=
 OpenBabel11062419523D

 30 32  0  0  1  0  0  0  0  0999 V2000
  183.1760  178.5510  142.5210 N   0  0  0  0  0  0  0  0  0  0  0  0
  186.7950  177.7860  143.0250 C   0  0  0  0  0  3  0  0  0  0  0  0
  186.8840  177.7430  144.4240 C   0  0  0  0  0  0  0  0  0  0  0  0
  185.4930  178.1630  140.9080 C   0  0  0  0  0  2  0  0  0  0  0  0
  181.7460  178.6670  140.6330 N   0  0  0  0  0  2  0  0  0  0  0  0
  184.1020  177.7790  140.3970 C   0  0  0  0  0  2  0  0  0  0  0  0
  185.7290  177.9930  145.1840 C   0  0  0  0  0  3  0  0  0  0  0  0
  185.5730  178.0370  142.3970 C   0  0  0  0  0  0  0  0  0  0  0  0
  184.4250  178.2790  143.1670 C   0  0  0  0  0  0  0  0  0  0  0  0
  184.5060  178.2600  144.5610 C   0  0  0  0  0  3  0  0  0  0  0  0
  183.0100  178.3890  141.2380 C   0  0  0  0  0  0  0  0  0  0  0  0
  178.2270  178.8950  140.3440 C   0  0  1  0  0  3  0  0  0  0  0  0
  179.3030  178.0040  141.5120 S   0  0  0  0  0  0  0  0  0  0  0  0
  179.0670  179.9320  139.6260 C   0  0  2  0  0  3  0  0  0  0  0  0
  180.6280  179.2440  141.3680 C   0  0  2  0  0  3  0  0  0  0  0  0
  180.0820  180.4460  140.6230 C   0  0  0  0  0  2  0  0  0  0  0  0
  178.2160  181.0450  139.1120 C   0  0  0  0  0  0  0  0  0  0  0  0
  177.7700  182.0470  139.9650 O   0  0  0  0  0  1  0  0  0  0  0  0
  177.8810  181.0610  137.9000 O   0  0  0  0  0  0  0  0  0  0  0  0
  177.6910  177.9940  139.4210 O   0  0  0  0  0  0  0  0  0  0  0  0
  177.7130  176.7610  140.0730 C   0  0  0  0  0  1  0  0  0  0  0  0
  188.1710  177.4820  145.1130 C   0  0  0  0  0  0  0  0  0  0  0  0
  189.2360  177.9080  144.5850 O   0  0  0  0  0  0  0  0  0  0  0  0
  187.1290  176.4580  147.0640 O   0  0  0  0  0  1  0  0  0  0  0  0
  188.2450  176.7630  146.3590 N   0  0  0  0  0  0  0  0  0  0  0  0
  189.5420  176.4540  146.9490 C   0  0  0  0  0  2  0  0  0  0  0  0
  189.7780  174.9480  146.9750 C   0  0  0  0  0  2  0  0  0  0  0  0
  191.7970  174.7380  145.4760 N   0  0  0  0  0  1  0  0  0  0  0  0
  189.6920  173.9720  144.7720 N   0  0  0  0  0  2  0  0  0  0  0  0
  190.4180  174.4790  145.7120 C   0  0  0  0  0  0  0  0  0  0  0  0
  1  9  1  0  0  0  0
  2  3  1  0  0  0  0
  3 22  1  0  0  0  0
  3  7  2  0  0  0  0
  4  8  1  0  0  0  0
  5 11  1  0  0  0  0
  6  4  1  0  0  0  0
  6 11  1  0  0  0  0
  8  2  2  0  0  0  0
  8  9  1  0  0  0  0
  9 10  2  0  0  0  0
 10  7  1  0  0  0  0
 11  1  2  0  0  0  0
 12 20  1  6  0  0  0
 12 13  1  0  0  0  0
 14 17  1  1  0  0  0
 14 12  1  0  0  0  0
 14 16  1  0  0  0  0
 15  5  1  6  0  0  0
 15 13  1  0  0  0  0
 16 15  1  0  0  0  0
 17 18  1  0  0  0  0
 19 17  2  0  0  0  0
 20 21  1  0  0  0  0
 22 25  1  0  0  0  0
 23 22  2  0  0  0  0
 25 26  1  0  0  0  0
 25 24  1  0  0  0  0
 26 27  1  0  0  0  0
 28 30  1  0  0  0  0
 29 30  2  0  0  0  0
 30 27  1  0  0  0  0
M  END
>  <MODEL>
1

>  <REMARK>
 VINA RESULT:      -7.2      0.000      0.000
  Name = 
  7 active torsions:
  status: ('A' for Active; 'I' for Inactive)
    1  A    between atoms: C_1  and  C_5
    2  A    between atoms: C_3  and  C_19
    3  A    between atoms: C_3  and  C_21
    4  A    between atoms: C_6  and  O_17
    5  A    between atoms: N_8  and  C_27
    6  A    between atoms: C_16  and  C_18
    7  A    between atoms: C_21  and  N_29
                            x       y       z     vdW  Elec       q    Type
                         _______ _______ _______ _____ _____    ______ ____

>  <TORSDO>
F 7

$$$$
=
 OpenBabel11062419523D

 30 32  0  0  1  0  0  0  0  0999 V2000
  189.8150  177.0720  145.1110 N   0  0  0  0  0  0  0  0  0  0  0  0
  186.8190  178.1660  143.1700 C   0  0  0  0  0  3  0  0  0  0  0  0
  185.8230  178.1560  144.1580 C   0  0  0  0  0  0  0  0  0  0  0  0
  189.1820  177.7570  142.4180 C   0  0  0  0  0  2  0  0  0  0  0  0
  192.1330  176.9000  144.6380 N   0  0  0  0  0  2  0  0  0  0  0  0
  190.5750  178.0250  142.9930 C   0  0  0  0  0  2  0  0  0  0  0  0
  186.1650  177.7610  145.4610 C   0  0  0  0  0  3  0  0  0  0  0  0
  188.1360  177.8240  143.4860 C   0  0  0  0  0  0  0  0  0  0  0  0
  188.4670  177.4370  144.7930 C   0  0  0  0  0  0  0  0  0  0  0  0
  187.4790  177.4020  145.7790 C   0  0  0  0  0  3  0  0  0  0  0  0
  190.8010  177.2740  144.2810 C   0  0  0  0  0  0  0  0  0  0  0  0
  194.7320  174.8710  145.9210 C   0  0  1  0  0  3  0  0  0  0  0  0
  194.1680  176.5490  146.3460 S   0  0  0  0  0  0  0  0  0  0  0  0
  193.6460  174.2010  145.1050 C   0  0  2  0  0  3  0  0  0  0  0  0
  192.4500  176.1850  145.8670 C   0  0  2  0  0  3  0  0  0  0  0  0
  192.3210  174.6900  145.6460 C   0  0  0  0  0  2  0  0  0  0  0  0
  193.7440  172.7150  145.2030 C   0  0  0  0  0  0  0  0  0  0  0  0
  194.8430  172.1180  145.8090 O   0  0  0  0  0  1  0  0  0  0  0  0
  192.8350  171.9990  144.7130 O   0  0  0  0  0  0  0  0  0  0  0  0
  195.9100  174.9490  145.1740 O   0  0  0  0  0  0  0  0  0  0  0  0
  195.7270  176.0480  144.3340 C   0  0  0  0  0  1  0  0  0  0  0  0
  184.4170  178.5120  143.8460 C   0  0  0  0  0  0  0  0  0  0  0  0
  183.7130  179.0400  144.7510 O   0  0  0  0  0  0  0  0  0  0  0  0
  184.5920  177.8980  141.4940 O   0  0  0  0  0  1  0  0  0  0  0  0
  183.8330  178.2760  142.5500 N   0  0  0  0  0  0  0  0  0  0  0  0
  182.4220  178.5600  142.3220 C   0  0  0  0  0  2  0  0  0  0  0  0
  182.0130  178.1620  140.9090 C   0  0  0  0  0  2  0  0  0  0  0  0
  179.7160  177.8790  139.9030 N   0  0  0  0  0  2  0  0  0  0  0  0
  180.4190  179.9630  140.7240 N   0  0  0  0  0  1  0  0  0  0  0  0
  180.6680  178.7060  140.5620 C   0  0  0  0  0  0  0  0  0  0  0  0
  2  8  2  0  0  0  0
  2  3  1  0  0  0  0
  3  7  2  0  0  0  0
  4  6  1  0  0  0  0
  4  8  1  0  0  0  0
  6 11  1  0  0  0  0
  7 10  1  0  0  0  0
  8  9  1  0  0  0  0
  9  1  1  0  0  0  0
  9 10  2  0  0  0  0
 11  5  1  0  0  0  0
 11  1  2  0  0  0  0
 12 20  1  6  0  0  0
 12 13  1  0  0  0  0
 14 17  1  1  0  0  0
 14 16  1  0  0  0  0
 14 12  1  0  0  0  0
 15  5  1  6  0  0  0
 15 13  1  0  0  0  0
 16 15  1  0  0  0  0
 17 18  1  0  0  0  0
 19 17  2  0  0  0  0
 21 20  1  0  0  0  0
 22  3  1  0  0  0  0
 22 23  2  0  0  0  0
 24 25  1  0  0  0  0
 25 22  1  0  0  0  0
 26 25  1  0  0  0  0
 27 26  1  0  0  0  0
 28 30  2  0  0  0  0
 30 29  1  0  0  0  0
 30 27  1  0  0  0  0
M  END
>  <MODEL>
2

>  <REMARK>
 VINA RESULT:      -7.1      4.504     11.818
  Name = 
  7 active torsions:
  status: ('A' for Active; 'I' for Inactive)
    1  A    between atoms: C_1  and  C_5
    2  A    between atoms: C_3  and  C_19
    3  A    between atoms: C_3  and  C_21
    4  A    between atoms: C_6  and  O_17
    5  A    between atoms: N_8  and  C_27
    6  A    between atoms: C_16  and  C_18
    7  A    between atoms: C_21  and  N_29
                            x       y       z     vdW  Elec       q    Type
                         _______ _______ _______ _____ _____    ______ ____

>  <TORSDO>
F 7

$$$$
=
 OpenBabel11062419523D

 30 32  0  0  1  0  0  0  0  0999 V2000
  187.6790  177.7030  142.9000 N   0  0  0  0  0  0  0  0  0  0  0  0
  183.9930  178.2930  142.9770 C   0  0  0  0  0  3  0  0  0  0  0  0
  183.6560  178.1620  141.6210 C   0  0  0  0  0  0  0  0  0  0  0  0
  185.6860  178.3450  144.8340 C   0  0  0  0  0  2  0  0  0  0  0  0
  189.3580  177.4460  144.5540 N   0  0  0  0  0  2  0  0  0  0  0  0
  186.9180  177.5190  145.2140 C   0  0  0  0  0  2  0  0  0  0  0  0
  184.6760  177.8980  140.6920 C   0  0  0  0  0  3  0  0  0  0  0  0
  185.3130  178.1270  143.4010 C   0  0  0  0  0  0  0  0  0  0  0  0
  186.3230  177.8570  142.4640 C   0  0  0  0  0  0  0  0  0  0  0  0
  186.0030  177.7470  141.1090 C   0  0  0  0  0  3  0  0  0  0  0  0
  187.9930  177.6040  144.1610 C   0  0  0  0  0  0  0  0  0  0  0  0
  192.2160  175.5370  143.7140 C   0  0  1  0  0  3  0  0  0  0  0  0
  190.6630  175.8690  142.8240 S   0  0  0  0  0  0  0  0  0  0  0  0
  192.3420  176.5480  144.8360 C   0  0  2  0  0  3  0  0  0  0  0  0
  190.4640  177.5000  143.6080 C   0  0  2  0  0  3  0  0  0  0  0  0
  191.7510  177.8450  144.3310 C   0  0  0  0  0  2  0  0  0  0  0  0
  193.7690  176.7310  145.2310 C   0  0  0  0  0  0  0  0  0  0  0  0
  194.1150  176.9340  146.5610 O   0  0  0  0  0  1  0  0  0  0  0  0
  194.6640  176.7240  144.3470 O   0  0  0  0  0  0  0  0  0  0  0  0
  192.1870  174.2430  144.2390 O   0  0  0  0  0  0  0  0  0  0  0  0
  190.8490  173.8540  144.1540 C   0  0  0  0  0  1  0  0  0  0  0  0
  182.2620  178.3370  141.1470 C   0  0  0  0  0  0  0  0  0  0  0  0
  181.9320  177.8250  140.0410 O   0  0  0  0  0  0  0  0  0  0  0  0
  181.5200  179.4630  143.1770 O   0  0  0  0  0  1  0  0  0  0  0  0
  181.2780  179.0660  141.9040 N   0  0  0  0  0  0  0  0  0  0  0  0
  179.9470  179.2870  141.3520 C   0  0  0  0  0  2  0  0  0  0  0  0
  178.8730  178.8100  142.3230 C   0  0  0  0  0  2  0  0  0  0  0  0
  178.2300  177.0020  140.6850 N   0  0  0  0  0  2  0  0  0  0  0  0
  178.1760  176.6020  142.9980 N   0  0  0  0  0  1  0  0  0  0  0  0
  178.4630  177.4060  142.0290 C   0  0  0  0  0  0  0  0  0  0  0  0
  1 11  2  0  0  0  0
  2  8  1  0  0  0  0
  3  2  2  0  0  0  0
  4  6  1  0  0  0  0
  7 10  2  0  0  0  0
  7  3  1  0  0  0  0
  8  4  1  0  0  0  0
  9  1  1  0  0  0  0
  9  8  2  0  0  0  0
 10  9  1  0  0  0  0
 11  5  1  0  0  0  0
 11  6  1  0  0  0  0
 12 20  1  1  0  0  0
 12 14  1  0  0  0  0
 13 15  1  0  0  0  0
 13 12  1  0  0  0  0
 14 17  1  6  0  0  0
 15 16  1  0  0  0  0
 15  5  1  1  0  0  0
 16 14  1  0  0  0  0
 17 18  1  0  0  0  0
 19 17  2  0  0  0  0
 21 20  1  0  0  0  0
 22  3  1  0  0  0  0
 22 25  1  0  0  0  0
 23 22  2  0  0  0  0
 25 24  1  0  0  0  0
 26 25  1  0  0  0  0
 26 27  1  0  0  0  0
 28 30  2  0  0  0  0
 30 27  1  0  0  0  0
 30 29  1  0  0  0  0
M  END
>  <MODEL>
3

>  <REMARK>
 VINA RESULT:      -6.9      3.638     10.890
  Name = 
  7 active torsions:
  status: ('A' for Active; 'I' for Inactive)
    1  A    between atoms: C_1  and  C_5
    2  A    between atoms: C_3  and  C_19
    3  A    between atoms: C_3  and  C_21
    4  A    between atoms: C_6  and  O_17
    5  A    between atoms: N_8  and  C_27
    6  A    between atoms: C_16  and  C_18
    7  A    between atoms: C_21  and  N_29
                            x       y       z     vdW  Elec       q    Type
                         _______ _______ _______ _____ _____    ______ ____

>  <TORSDO>
F 7

$$$$
=
 OpenBabel11062419523D

 30 32  0  0  1  0  0  0  0  0999 V2000
  189.9020  177.0370  144.3840 N   0  0  0  0  0  0  0  0  0  0  0  0
  186.2380  177.4170  144.9920 C   0  0  0  0  0  3  0  0  0  0  0  0
  185.8230  178.0720  143.8230 C   0  0  0  0  0  0  0  0  0  0  0  0
  188.0340  176.4370  146.4520 C   0  0  0  0  0  2  0  0  0  0  0  0
  191.6670  175.9170  145.5040 N   0  0  0  0  0  2  0  0  0  0  0  0
  189.2700  175.5620  146.2270 C   0  0  0  0  0  2  0  0  0  0  0  0
  186.7840  178.3970  142.8510 C   0  0  0  0  0  3  0  0  0  0  0  0
  187.5770  177.0630  145.1720 C   0  0  0  0  0  0  0  0  0  0  0  0
  188.5270  177.3880  144.1910 C   0  0  0  0  0  0  0  0  0  0  0  0
  188.1290  178.0590  143.0330 C   0  0  0  0  0  3  0  0  0  0  0  0
  190.2860  176.2470  145.3480 C   0  0  0  0  0  0  0  0  0  0  0  0
  194.2790  174.8640  143.3600 C   0  0  1  0  0  3  0  0  0  0  0  0
  192.7170  175.7460  143.0430 S   0  0  0  0  0  0  0  0  0  0  0  0
  194.5630  174.9290  144.8470 C   0  0  2  0  0  3  0  0  0  0  0  0
  192.7190  176.5160  144.6930 C   0  0  2  0  0  3  0  0  0  0  0  0
  194.0710  176.2730  145.3330 C   0  0  0  0  0  2  0  0  0  0  0  0
  196.0210  174.7650  145.1180 C   0  0  0  0  0  0  0  0  0  0  0  0
  196.4590  174.0270  146.2110 O   0  0  0  0  0  1  0  0  0  0  0  0
  196.8590  175.3190  144.3630 O   0  0  0  0  0  0  0  0  0  0  0  0
  194.1550  173.5330  142.9550 O   0  0  0  0  0  0  0  0  0  0  0  0
  193.0630  173.0430  143.6720 C   0  0  0  0  0  1  0  0  0  0  0  0
  184.4080  178.4610  143.6110 C   0  0  0  0  0  0  0  0  0  0  0  0
  183.7770  178.9860  144.5700 O   0  0  0  0  0  0  0  0  0  0  0  0
  184.4140  177.8880  141.2430 O   0  0  0  0  0  1  0  0  0  0  0  0
  183.7350  178.2610  142.3540 N   0  0  0  0  0  0  0  0  0  0  0  0
  182.3180  178.5770  142.2250 C   0  0  0  0  0  2  0  0  0  0  0  0
  181.8180  178.2580  140.8210 C   0  0  0  0  0  2  0  0  0  0  0  0
  180.1690  180.1200  140.3990 N   0  0  0  0  0  2  0  0  0  0  0  0
  179.4300  177.9270  140.7980 N   0  0  0  0  0  1  0  0  0  0  0  0
  180.4200  178.7370  140.6220 C   0  0  0  0  0  0  0  0  0  0  0  0
  1 11  2  0  0  0  0
  2  8  1  0  0  0  0
  3  2  2  0  0  0  0
  6  4  1  0  0  0  0
  7 10  2  0  0  0  0
  7  3  1  0  0  0  0
  8  4  1  0  0  0  0
  9  1  1  0  0  0  0
  9  8  2  0  0  0  0
 10  9  1  0  0  0  0
 11  5  1  0  0  0  0
 11  6  1  0  0  0  0
 12 20  1  1  0  0  0
 12 14  1  0  0  0  0
 13 12  1  0  0  0  0
 13 15  1  0  0  0  0
 14 17  1  6  0  0  0
 14 16  1  0  0  0  0
 15 16  1  0  0  0  0
 15  5  1  1  0  0  0
 17 18  1  0  0  0  0
 19 17  2  0  0  0  0
 20 21  1  0  0  0  0
 22  3  1  0  0  0  0
 22 23  2  0  0  0  0
 24 25  1  0  0  0  0
 25 22  1  0  0  0  0
 26 25  1  0  0  0  0
 27 26  1  0  0  0  0
 28 30  2  0  0  0  0
 30 29  1  0  0  0  0
 30 27  1  0  0  0  0
M  END
>  <MODEL>
4

>  <REMARK>
 VINA RESULT:      -6.8      4.372     11.862
  Name = 
  7 active torsions:
  status: ('A' for Active; 'I' for Inactive)
    1  A    between atoms: C_1  and  C_5
    2  A    between atoms: C_3  and  C_19
    3  A    between atoms: C_3  and  C_21
    4  A    between atoms: C_6  and  O_17
    5  A    between atoms: N_8  and  C_27
    6  A    between atoms: C_16  and  C_18
    7  A    between atoms: C_21  and  N_29
                            x       y       z     vdW  Elec       q    Type
                         _______ _______ _______ _____ _____    ______ ____

>  <TORSDO>
F 7

$$$$
=
 OpenBabel11062419523D

 30 32  0  0  1  0  0  0  0  0999 V2000
  190.4870  175.7680  143.8820 N   0  0  0  0  0  0  0  0  0  0  0  0
  187.4040  177.6350  144.8570 C   0  0  0  0  0  3  0  0  0  0  0  0
  186.5190  177.2770  143.8300 C   0  0  0  0  0  0  0  0  0  0  0  0
  189.6740  177.5710  145.9340 C   0  0  0  0  0  2  0  0  0  0  0  0
  192.5900  175.3790  144.9050 N   0  0  0  0  0  2  0  0  0  0  0  0
  190.7280  176.4930  146.2030 C   0  0  0  0  0  2  0  0  0  0  0  0
  186.9750  176.4270  142.8080 C   0  0  0  0  0  3  0  0  0  0  0  0
  188.7050  177.1270  144.8840 C   0  0  0  0  0  0  0  0  0  0  0  0
  189.1470  176.2750  143.8610 C   0  0  0  0  0  0  0  0  0  0  0  0
  188.2810  175.9290  142.8210 C   0  0  0  0  0  3  0  0  0  0  0  0
  191.2610  175.9040  144.9220 C   0  0  0  0  0  0  0  0  0  0  0  0
  195.7950  174.4090  143.7610 C   0  0  1  0  0  3  0  0  0  0  0  0
  194.3200  173.4470  144.2280 S   0  0  0  0  0  0  0  0  0  0  0  0
  195.3730  175.8490  143.5520 C   0  0  2  0  0  3  0  0  0  0  0  0
  193.1880  174.7790  143.7200 C   0  0  2  0  0  3  0  0  0  0  0  0
  193.9830  175.8190  142.9550 C   0  0  0  0  0  2  0  0  0  0  0  0
  196.3250  176.5580  142.6480 C   0  0  0  0  0  0  0  0  0  0  0  0
  196.1490  176.5260  141.2690 O   0  0  0  0  0  0  0  0  0  0  0  0
  197.3070  177.1700  143.1380 O   0  0  0  0  0  1  0  0  0  0  0  0
  196.7450  174.3340  144.7830 O   0  0  0  0  0  0  0  0  0  0  0  0
  196.0000  174.3400  145.9620 C   0  0  0  0  0  1  0  0  0  0  0  0
  185.1340  177.8050  143.7780 C   0  0  0  0  0  0  0  0  0  0  0  0
  184.5060  177.9600  144.8630 O   0  0  0  0  0  0  0  0  0  0  0  0
  185.1750  178.1880  141.3720 O   0  0  0  0  0  1  0  0  0  0  0  0
  184.4860  178.1470  142.5380 N   0  0  0  0  0  0  0  0  0  0  0  0
  183.0940  178.5770  142.5350 C   0  0  0  0  0  2  0  0  0  0  0  0
  182.4470  178.3050  141.1810 C   0  0  0  0  0  2  0  0  0  0  0  0
  180.0190  177.9000  141.7330 N   0  0  0  0  0  1  0  0  0  0  0  0
  180.6740  179.7960  140.5130 N   0  0  0  0  0  2  0  0  0  0  0  0
  181.0200  178.7370  141.1670 C   0  0  0  0  0  0  0  0  0  0  0  0
  1 11  2  0  0  0  0
  2  8  1  0  0  0  0
  3  2  2  0  0  0  0
  4  6  1  0  0  0  0
  5 11  1  0  0  0  0
  7 10  2  0  0  0  0
  7  3  1  0  0  0  0
  8  4  1  0  0  0  0
  9  1  1  0  0  0  0
  9  8  2  0  0  0  0
 10  9  1  0  0  0  0
 11  6  1  0  0  0  0
 12 13  1  0  0  0  0
 12 20  1  1  0  0  0
 14 17  1  6  0  0  0
 14 12  1  0  0  0  0
 15 13  1  0  0  0  0
 15  5  1  1  0  0  0
 16 14  1  0  0  0  0
 16 15  1  0  0  0  0
 17 19  1  0  0  0  0
 18 17  2  0  0  0  0
 20 21  1  0  0  0  0
 22  3  1  0  0  0  0
 22 23  2  0  0  0  0
 24 25  1  0  0  0  0
 25 22  1  0  0  0  0
 26 25  1  0  0  0  0
 27 26  1  0  0  0  0
 29 30  2  0  0  0  0
 30 27  1  0  0  0  0
 30 28  1  0  0  0  0
M  END
>  <MODEL>
5

>  <REMARK>
 VINA RESULT:      -6.7      4.862     12.134
  Name = 
  7 active torsions:
  status: ('A' for Active; 'I' for Inactive)
    1  A    between atoms: C_1  and  C_5
    2  A    between atoms: C_3  and  C_19
    3  A    between atoms: C_3  and  C_21
    4  A    between atoms: C_6  and  O_17
    5  A    between atoms: N_8  and  C_27
    6  A    between atoms: C_16  and  C_18
    7  A    between atoms: C_21  and  N_29
                            x       y       z     vdW  Elec       q    Type
                         _______ _______ _______ _____ _____    ______ ____

>  <TORSDO>
F 7

$$$$
=
 OpenBabel11062419523D

 30 32  0  0  1  0  0  0  0  0999 V2000
  190.5520  175.9730  144.6100 N   0  0  0  0  0  0  0  0  0  0  0  0
  187.0450  176.2310  143.3530 C   0  0  0  0  0  3  0  0  0  0  0  0
  186.5620  177.3260  144.0850 C   0  0  0  0  0  0  0  0  0  0  0  0
  188.8540  174.5780  142.7940 C   0  0  0  0  0  2  0  0  0  0  0  0
  192.4440  174.6770  144.0080 N   0  0  0  0  0  2  0  0  0  0  0  0
  190.3670  174.6470  142.5660 C   0  0  0  0  0  2  0  0  0  0  0  0
  187.4140  177.9530  145.0090 C   0  0  0  0  0  3  0  0  0  0  0  0
  188.3620  175.7940  143.5140 C   0  0  0  0  0  0  0  0  0  0  0  0
  189.2060  176.4330  144.4360 C   0  0  0  0  0  0  0  0  0  0  0  0
  188.7290  177.5100  145.1850 C   0  0  0  0  0  3  0  0  0  0  0  0
  191.0970  175.1070  143.8020 C   0  0  0  0  0  0  0  0  0  0  0  0
  195.6550  175.9980  144.6900 C   0  0  1  0  0  3  0  0  0  0  0  0
  193.9840  176.7050  144.8430 S   0  0  0  0  0  0  0  0  0  0  0  0
  195.5200  174.4950  144.5530 C   0  0  2  0  0  3  0  0  0  0  0  0
  193.2330  175.0780  145.1650 C   0  0  2  0  0  3  0  0  0  0  0  0
  194.3450  174.0770  145.4080 C   0  0  0  0  0  2  0  0  0  0  0  0
  196.7690  173.8060  144.9900 C   0  0  0  0  0  0  0  0  0  0  0  0
  196.9500  173.4470  146.3210 O   0  0  0  0  0  1  0  0  0  0  0  0
  197.6740  173.5680  144.1510 O   0  0  0  0  0  0  0  0  0  0  0  0
  196.2840  176.5250  143.5590 O   0  0  0  0  0  0  0  0  0  0  0  0
  195.4840  176.1270  142.4880 C   0  0  0  0  0  1  0  0  0  0  0  0
  185.1670  177.8060  143.9330 C   0  0  0  0  0  0  0  0  0  0  0  0
  184.4490  177.9130  144.9660 O   0  0  0  0  0  0  0  0  0  0  0  0
  185.3850  178.2480  141.5460 O   0  0  0  0  0  1  0  0  0  0  0  0
  184.6080  178.1540  142.6520 N   0  0  0  0  0  0  0  0  0  0  0  0
  183.2040  178.5340  142.5460 C   0  0  0  0  0  2  0  0  0  0  0  0
  182.6840  178.2900  141.1340 C   0  0  0  0  0  2  0  0  0  0  0  0
  180.6080  179.4160  142.0190 N   0  0  0  0  0  1  0  0  0  0  0  0
  180.5060  178.0180  140.1360 N   0  0  0  0  0  2  0  0  0  0  0  0
  181.2300  178.6030  141.0320 C   0  0  0  0  0  0  0  0  0  0  0  0
  2  8  2  0  0  0  0
  2  3  1  0  0  0  0
  3  7  2  0  0  0  0
  4  8  1  0  0  0  0
  6  4  1  0  0  0  0
  6 11  1  0  0  0  0
  7 10  1  0  0  0  0
  8  9  1  0  0  0  0
  9  1  1  0  0  0  0
  9 10  2  0  0  0  0
 11  5  1  0  0  0  0
 11  1  2  0  0  0  0
 12 20  1  6  0  0  0
 12 13  1  0  0  0  0
 13 15  1  0  0  0  0
 14 12  1  0  0  0  0
 14 17  1  1  0  0  0
 14 16  1  0  0  0  0
 15  5  1  6  0  0  0
 15 16  1  0  0  0  0
 17 18  1  0  0  0  0
 19 17  2  0  0  0  0
 21 20  1  0  0  0  0
 22  3  1  0  0  0  0
 22 23  2  0  0  0  0
 24 25  1  0  0  0  0
 25 22  1  0  0  0  0
 26 25  1  0  0  0  0
 27 26  1  0  0  0  0
 29 30  2  0  0  0  0
 30 27  1  0  0  0  0
 30 28  1  0  0  0  0
M  END
>  <MODEL>
6

>  <REMARK>
 VINA RESULT:      -6.7      4.864     12.288
  Name = 
  7 active torsions:
  status: ('A' for Active; 'I' for Inactive)
    1  A    between atoms: C_1  and  C_5
    2  A    between atoms: C_3  and  C_19
    3  A    between atoms: C_3  and  C_21
    4  A    between atoms: C_6  and  O_17
    5  A    between atoms: N_8  and  C_27
    6  A    between atoms: C_16  and  C_18
    7  A    between atoms: C_21  and  N_29
                            x       y       z     vdW  Elec       q    Type
                         _______ _______ _______ _____ _____    ______ ____

>  <TORSDO>
F 7

$$$$
=
 OpenBabel11062419523D

 30 32  0  0  1  0  0  0  0  0999 V2000
  192.0690  175.1950  145.7620 N   0  0  0  0  0  0  0  0  0  0  0  0
  189.1040  177.4520  145.5340 C   0  0  0  0  0  3  0  0  0  0  0  0
  188.2520  176.9000  146.5030 C   0  0  0  0  0  0  0  0  0  0  0  0
  191.2410  177.4400  144.2120 C   0  0  0  0  0  2  0  0  0  0  0  0
  194.2390  175.1980  144.8080 N   0  0  0  0  0  2  0  0  0  0  0  0
  192.7210  177.2000  144.5270 C   0  0  0  0  0  2  0  0  0  0  0  0
  188.6760  175.7620  147.2080 C   0  0  0  0  0  3  0  0  0  0  0  0
  190.3650  176.9020  145.3000 C   0  0  0  0  0  0  0  0  0  0  0  0
  190.7800  175.7680  146.0150 C   0  0  0  0  0  0  0  0  0  0  0  0
  189.9320  175.1970  146.9660 C   0  0  0  0  0  3  0  0  0  0  0  0
  192.9640  175.8000  145.0320 C   0  0  0  0  0  0  0  0  0  0  0  0
  196.7910  172.7930  144.3310 C   0  0  1  0  0  3  0  0  0  0  0  0
  196.3220  173.8100  145.7670 S   0  0  0  0  0  0  0  0  0  0  0  0
  195.6440  172.8160  143.3420 C   0  0  2  0  0  3  0  0  0  0  0  0
  194.5710  173.8560  145.2690 C   0  0  2  0  0  3  0  0  0  0  0  0
  194.3650  172.8560  144.1480 C   0  0  0  0  0  2  0  0  0  0  0  0
  195.6780  171.6150  142.4570 C   0  0  0  0  0  0  0  0  0  0  0  0
  195.1120  170.4150  142.8710 O   0  0  0  0  0  1  0  0  0  0  0  0
  196.2450  171.6840  141.3370 O   0  0  0  0  0  0  0  0  0  0  0  0
  197.9410  173.3210  143.7400 O   0  0  0  0  0  0  0  0  0  0  0  0
  197.5580  174.5810  143.2790 C   0  0  0  0  0  1  0  0  0  0  0  0
  186.9070  177.4660  146.7670 C   0  0  0  0  0  0  0  0  0  0  0  0
  186.7720  178.2860  147.7180 O   0  0  0  0  0  0  0  0  0  0  0  0
  185.8790  176.4000  144.8320 O   0  0  0  0  0  1  0  0  0  0  0  0
  185.7550  177.1140  145.9760 N   0  0  0  0  0  0  0  0  0  0  0  0
  184.4390  177.6270  146.3330 C   0  0  0  0  0  2  0  0  0  0  0  0
  184.2440  179.0380  145.7910 C   0  0  0  0  0  2  0  0  0  0  0  0
  185.6780  179.7760  143.8510 N   0  0  0  0  0  1  0  0  0  0  0  0
  183.6410  178.6670  143.4860 N   0  0  0  0  0  2  0  0  0  0  0  0
  184.5210  179.0980  144.3270 C   0  0  0  0  0  0  0  0  0  0  0  0
  1  9  1  0  0  0  0
  2  3  1  0  0  0  0
  3 22  1  0  0  0  0
  3  7  2  0  0  0  0
  4  6  1  0  0  0  0
  4  8  1  0  0  0  0
  5 11  1  0  0  0  0
  6 11  1  0  0  0  0
  8  2  2  0  0  0  0
  8  9  1  0  0  0  0
  9 10  2  0  0  0  0
 10  7  1  0  0  0  0
 11  1  2  0  0  0  0
 12 20  1  6  0  0  0
 12 13  1  0  0  0  0
 14 17  1  1  0  0  0
 14 16  1  0  0  0  0
 14 12  1  0  0  0  0
 15  5  1  6  0  0  0
 15 13  1  0  0  0  0
 16 15  1  0  0  0  0
 17 18  1  0  0  0  0
 19 17  2  0  0  0  0
 21 20  1  0  0  0  0
 22 23  2  0  0  0  0
 24 25  1  0  0  0  0
 25 26  1  0  0  0  0
 25 22  1  0  0  0  0
 27 26  1  0  0  0  0
 28 30  1  0  0  0  0
 29 30  2  0  0  0  0
 30 27  1  0  0  0  0
M  END
>  <MODEL>
7

>  <REMARK>
 VINA RESULT:      -6.7      6.072     12.551
  Name = 
  7 active torsions:
  status: ('A' for Active; 'I' for Inactive)
    1  A    between atoms: C_1  and  C_5
    2  A    between atoms: C_3  and  C_19
    3  A    between atoms: C_3  and  C_21
    4  A    between atoms: C_6  and  O_17
    5  A    between atoms: N_8  and  C_27
    6  A    between atoms: C_16  and  C_18
    7  A    between atoms: C_21  and  N_29
                            x       y       z     vdW  Elec       q    Type
                         _______ _______ _______ _____ _____    ______ ____

>  <TORSDO>
F 7

$$$$
=
 OpenBabel11062419523D

 30 32  0  0  1  0  0  0  0  0999 V2000
  189.5040  176.1400  143.6790 N   0  0  0  0  0  0  0  0  0  0  0  0
  193.2370  176.2200  143.6400 C   0  0  0  0  0  3  0  0  0  0  0  0
  193.5520  174.8660  143.8260 C   0  0  0  0  0  0  0  0  0  0  0  0
  191.5690  178.0920  143.4570 C   0  0  0  0  0  2  0  0  0  0  0  0
  187.8010  177.7340  143.2550 N   0  0  0  0  0  2  0  0  0  0  0  0
  190.2190  178.2900  142.7640 C   0  0  0  0  0  2  0  0  0  0  0  0
  192.5050  173.9430  143.9840 C   0  0  0  0  0  3  0  0  0  0  0  0
  191.9060  176.6390  143.5760 C   0  0  0  0  0  0  0  0  0  0  0  0
  190.8690  175.7060  143.7290 C   0  0  0  0  0  0  0  0  0  0  0  0
  191.1710  174.3580  143.9370 C   0  0  0  0  0  3  0  0  0  0  0  0
  189.1740  177.3420  143.2960 C   0  0  0  0  0  0  0  0  0  0  0  0
  184.6510  178.0870  144.8290 C   0  0  1  0  0  3  0  0  0  0  0  0
  185.1290  177.5490  143.1560 S   0  0  0  0  0  0  0  0  0  0  0  0
  185.8830  178.0400  145.7090 C   0  0  2  0  0  3  0  0  0  0  0  0
  186.7210  176.8810  143.7340 C   0  0  2  0  0  3  0  0  0  0  0  0
  186.7100  176.8590  145.2500 C   0  0  0  0  0  2  0  0  0  0  0  0
  185.5070  177.8990  147.1460 C   0  0  0  0  0  0  0  0  0  0  0  0
  186.0870  176.9140  147.9360 O   0  0  0  0  0  1  0  0  0  0  0  0
  184.6400  178.6650  147.6390 O   0  0  0  0  0  0  0  0  0  0  0  0
  184.1530  179.3920  144.7760 O   0  0  0  0  0  0  0  0  0  0  0  0
  185.2060  180.1550  144.2690 C   0  0  0  0  0  1  0  0  0  0  0  0
  194.9570  174.3990  143.9010 C   0  0  0  0  0  0  0  0  0  0  0  0
  195.4690  173.8600  142.8800 O   0  0  0  0  0  0  0  0  0  0  0  0
  195.3240  175.2820  146.1420 O   0  0  0  0  0  1  0  0  0  0  0  0
  195.7530  174.5410  145.0930 N   0  0  0  0  0  0  0  0  0  0  0  0
  197.0990  173.9840  145.1440 C   0  0  0  0  0  2  0  0  0  0  0  0
  197.1730  172.8400  146.1480 C   0  0  0  0  0  2  0  0  0  0  0  0
  197.3990  171.2990  144.1640 N   0  0  0  0  0  2  0  0  0  0  0  0
  196.1760  170.6460  146.0590 N   0  0  0  0  0  1  0  0  0  0  0  0
  196.9320  171.5240  145.4880 C   0  0  0  0  0  0  0  0  0  0  0  0
  1  9  1  0  0  0  0
  2  3  1  0  0  0  0
  3 22  1  0  0  0  0
  3  7  2  0  0  0  0
  4  8  1  0  0  0  0
  5 11  1  0  0  0  0
  6 11  1  0  0  0  0
  6  4  1  0  0  0  0
  8  2  2  0  0  0  0
  8  9  1  0  0  0  0
  9 10  2  0  0  0  0
 10  7  1  0  0  0  0
 11  1  2  0  0  0  0
 12 20  1  6  0  0  0
 12 14  1  0  0  0  0
 13 15  1  0  0  0  0
 13 12  1  0  0  0  0
 14 17  1  1  0  0  0
 15  5  1  1  0  0  0
 15 16  1  0  0  0  0
 16 14  1  0  0  0  0
 17 19  2  0  0  0  0
 17 18  1  0  0  0  0
 21 20  1  0  0  0  0
 22 25  1  0  0  0  0
 23 22  2  0  0  0  0
 25 26  1  0  0  0  0
 25 24  1  0  0  0  0
 26 27  1  0  0  0  0
 28 30  2  0  0  0  0
 30 29  1  0  0  0  0
 30 27  1  0  0  0  0
M  END
>  <MODEL>
8

>  <REMARK>
 VINA RESULT:      -6.7      5.197      8.088
  Name = 
  7 active torsions:
  status: ('A' for Active; 'I' for Inactive)
    1  A    between atoms: C_1  and  C_5
    2  A    between atoms: C_3  and  C_19
    3  A    between atoms: C_3  and  C_21
    4  A    between atoms: C_6  and  O_17
    5  A    between atoms: N_8  and  C_27
    6  A    between atoms: C_16  and  C_18
    7  A    between atoms: C_21  and  N_29
                            x       y       z     vdW  Elec       q    Type
                         _______ _______ _______ _____ _____    ______ ____

>  <TORSDO>
F 7

$$$$
=
 OpenBabel11062419523D

 30 32  0  0  1  0  0  0  0  0999 V2000
  189.9300  176.8800  145.0800 N   0  0  0  0  0  0  0  0  0  0  0  0
  192.6280  174.3300  145.4780 C   0  0  0  0  0  3  0  0  0  0  0  0
  193.7710  175.0730  145.1450 C   0  0  0  0  0  0  0  0  0  0  0  0
  190.1390  174.1170  145.7490 C   0  0  0  0  0  2  0  0  0  0  0  0
  187.6060  176.9310  145.5490 N   0  0  0  0  0  2  0  0  0  0  0  0
  189.0230  174.9890  146.3330 C   0  0  0  0  0  2  0  0  0  0  0  0
  193.6200  176.4180  144.7700 C   0  0  0  0  0  3  0  0  0  0  0  0
  191.3660  174.9280  145.4720 C   0  0  0  0  0  0  0  0  0  0  0  0
  191.2280  176.2740  145.1010 C   0  0  0  0  0  0  0  0  0  0  0  0
  192.3560  177.0160  144.7460 C   0  0  0  0  0  3  0  0  0  0  0  0
  188.8830  176.2900  145.5850 C   0  0  0  0  0  0  0  0  0  0  0  0
  184.8740  178.9840  144.6330 C   0  0  1  0  0  3  0  0  0  0  0  0
  186.2200  179.2060  145.8400 S   0  0  0  0  0  0  0  0  0  0  0  0
  185.2620  177.8600  143.6950 C   0  0  2  0  0  3  0  0  0  0  0  0
  187.3760  178.1950  144.8620 C   0  0  2  0  0  3  0  0  0  0  0  0
  186.7590  177.9430  143.5010 C   0  0  0  0  0  2  0  0  0  0  0  0
  184.5480  177.9830  142.3910 C   0  0  0  0  0  0  0  0  0  0  0  0
  185.2280  177.8000  141.1920 O   0  0  0  0  0  0  0  0  0  0  0  0
  183.3260  178.2770  142.3770 O   0  0  0  0  0  1  0  0  0  0  0  0
  183.6920  178.6590  145.3040 O   0  0  0  0  0  0  0  0  0  0  0  0
  184.0980  178.3240  146.5960 C   0  0  0  0  0  1  0  0  0  0  0  0
  195.1210  174.4600  145.1420 C   0  0  0  0  0  0  0  0  0  0  0  0
  195.8340  174.5630  146.1790 O   0  0  0  0  0  0  0  0  0  0  0  0
  194.8540  173.4430  142.9430 O   0  0  0  0  0  1  0  0  0  0  0  0
  195.6420  173.7520  144.0000 N   0  0  0  0  0  0  0  0  0  0  0  0
  197.0090  173.2460  144.0150 C   0  0  0  0  0  2  0  0  0  0  0  0
  197.0310  171.7420  143.7720 C   0  0  0  0  0  2  0  0  0  0  0  0
  195.3440  170.1260  144.7260 N   0  0  0  0  0  2  0  0  0  0  0  0
  196.8480  171.2590  146.1280 N   0  0  0  0  0  1  0  0  0  0  0  0
  196.4490  170.9990  144.9270 C   0  0  0  0  0  0  0  0  0  0  0  0
  1  9  1  0  0  0  0
  1 11  2  0  0  0  0
  3  2  2  0  0  0  0
  4  6  1  0  0  0  0
  5 11  1  0  0  0  0
  7  3  1  0  0  0  0
  8  2  1  0  0  0  0
  8  4  1  0  0  0  0
  9  8  2  0  0  0  0
 10  7  2  0  0  0  0
 10  9  1  0  0  0  0
 11  6  1  0  0  0  0
 12 20  1  1  0  0  0
 12 13  1  0  0  0  0
 14 17  1  6  0  0  0
 14 12  1  0  0  0  0
 15  5  1  1  0  0  0
 15 13  1  0  0  0  0
 16 14  1  0  0  0  0
 16 15  1  0  0  0  0
 18 17  2  0  0  0  0
 19 17  1  0  0  0  0
 20 21  1  0  0  0  0
 22  3  1  0  0  0  0
 22 23  2  0  0  0  0
 24 25  1  0  0  0  0
 25 26  1  0  0  0  0
 25 22  1  0  0  0  0
 27 26  1  0  0  0  0
 27 30  1  0  0  0  0
 28 30  2  0  0  0  0
 30 29  1  0  0  0  0
M  END
>  <MODEL>
9

>  <REMARK>
 VINA RESULT:      -6.7      4.632      7.882
  Name = 
  7 active torsions:
  status: ('A' for Active; 'I' for Inactive)
    1  A    between atoms: C_1  and  C_5
    2  A    between atoms: C_3  and  C_19
    3  A    between atoms: C_3  and  C_21
    4  A    between atoms: C_6  and  O_17
    5  A    between atoms: N_8  and  C_27
    6  A    between atoms: C_16  and  C_18
    7  A    between atoms: C_21  and  N_29
                            x       y       z     vdW  Elec       q    Type
                         _______ _______ _______ _____ _____    ______ ____

>  <TORSDO>
F 7

$$$$
