=
 OpenBabel11062423113D

 28 33  0  0  1  0  0  0  0  0999 V2000
  184.0310  178.3550  145.0900 O   0  0  0  0  0  0  0  0  0  0  0  0
  187.8850  177.7020  146.4460 C   0  0  2  0  0  3  0  0  0  0  0  0
  186.6740  177.5110  147.3150 C   0  0  0  0  0  3  0  0  0  0  0  0
  186.3350  178.0940  144.4510 C   0  0  1  0  0  3  0  0  0  0  0  0
  185.1990  178.0470  145.4470 C   0  0  0  0  0  0  0  0  0  0  0  0
  187.6100  177.3810  144.9650 C   0  0  1  0  0  3  0  0  0  0  0  0
  185.4410  177.7030  146.8540 C   0  0  0  0  0  3  0  0  0  0  0  0
  189.0390  176.9080  146.9830 C   0  0  0  0  0  0  0  0  0  0  0  0
  190.0500  174.7520  147.4390 C   0  0  0  0  0  3  0  0  0  0  0  0
  191.1440  175.3880  148.0330 C   0  0  0  0  0  3  0  0  0  0  0  0
  191.1890  176.7830  148.1070 C   0  0  0  0  0  3  0  0  0  0  0  0
  188.9990  175.5110  146.9140 C   0  0  0  0  0  3  0  0  0  0  0  0
  190.1380  177.5420  147.5850 C   0  0  0  0  0  3  0  0  0  0  0  0
  186.2480  176.1220  142.8370 C   0  0  0  0  0  1  0  0  0  0  0  0
  185.8700  177.5750  143.0780 C   0  0  0  0  0  3  0  0  0  0  0  0
  186.3660  178.4500  141.9420 C   0  0  0  0  0  1  0  0  0  0  0  0
  189.7160  176.9930  143.9530 C   0  0  0  0  0  3  0  0  0  0  0  0
  188.7380  177.7930  144.1670 N   0  0  0  0  0  0  0  0  0  0  0  0
  191.5570  176.4100  142.6000 C   0  0  2  0  0  3  0  0  0  0  0  0
  192.8230  173.1970  144.5460 C   0  0  0  0  0  3  0  0  0  0  0  0
  192.6660  175.9500  144.4820 C   0  0  0  0  0  0  0  0  0  0  0  0
  193.3960  175.4250  145.5200 C   0  0  0  0  0  0  0  0  0  0  0  0
  192.1460  176.9490  143.7540 N   0  0  0  0  0  4  0  0  0  0  0  0
  190.8870  177.4530  143.1520 C   0  0  2  0  0  3  0  0  0  0  0  0
  193.4590  174.0100  145.5420 C   0  0  0  0  0  2  0  0  0  0  0  0
  192.0190  175.1230  143.4430 C   0  0  1  0  0  0  0  0  0  0  0  0
  192.0900  173.7440  143.4590 C   0  0  0  0  0  3  0  0  0  0  0  0
  194.1920  176.4230  146.7190 Cl  0  0  0  0  0  0  0  0  0  0  0  0
  1  5  2  0  0  0  0
  2  8  1  1  0  0  0
  2  3  1  0  0  0  0
  4 15  1  6  0  0  0
  4  6  1  0  0  0  0
  4  5  1  0  0  0  0
  5  7  1  0  0  0  0
  6 18  1  6  0  0  0
  6  2  1  0  0  0  0
  7  3  2  0  0  0  0
  8 13  1  0  0  0  0
  9 10  2  0  0  0  0
 10 11  1  0  0  0  0
 12  8  2  0  0  0  0
 12  9  1  0  0  0  0
 13 11  2  0  0  0  0
 14 15  1  0  0  0  0
 16 15  1  0  0  0  0
 17 18  2  0  0  0  0
 19 24  1  0  0  0  0
 19 26  1  0  0  0  0
 19 23  1  1  0  0  0
 20 25  1  0  0  0  0
 21 22  2  0  0  0  0
 22 25  1  0  0  0  0
 22 28  1  0  0  0  0
 23 21  1  0  0  0  0
 24 23  1  0  0  0  0
 24 17  1  1  0  0  0
 26 27  1  1  0  0  0
 26 23  1  0  0  0  0
 26 21  1  0  0  0  0
 27 20  2  0  0  0  0
M  END
>  <MODEL>
1

>  <REMARK>
 VINA RESULT:      -8.1      0.000      0.000
  Name = 
  4 active torsions:
  status: ('A' for Active; 'I' for Inactive)
    1  A    between atoms: C_4  and  C_11
    2  A    between atoms: C_5  and  C_19
    3  A    between atoms: C_8  and  C_17
    4  A    between atoms: N_12  and  C_21
                            x       y       z     vdW  Elec       q    Type
                         _______ _______ _______ _____ _____    ______ ____

>  <TORSDO>
F 4

$$$$
=
 OpenBabel11062423113D

 28 33  0  0  1  0  0  0  0  0999 V2000
  184.1390  178.8080  143.1990 O   0  0  0  0  0  0  0  0  0  0  0  0
  187.8140  176.9270  142.9240 C   0  0  2  0  0  3  0  0  0  0  0  0
  187.3500  177.9540  141.9300 C   0  0  0  0  0  3  0  0  0  0  0  0
  185.7460  177.4310  144.3410 C   0  0  1  0  0  3  0  0  0  0  0  0
  185.2980  178.3150  143.2000 C   0  0  0  0  0  0  0  0  0  0  0  0
  187.2750  177.1880  144.3440 C   0  0  1  0  0  3  0  0  0  0  0  0
  186.1740  178.5660  142.0490 C   0  0  0  0  0  3  0  0  0  0  0  0
  189.3100  176.8260  142.9060 C   0  0  0  0  0  0  0  0  0  0  0  0
  191.4700  177.8420  143.3290 C   0  0  0  0  0  3  0  0  0  0  0  0
  192.1080  176.7030  142.8270 C   0  0  0  0  0  3  0  0  0  0  0  0
  191.3500  175.6240  142.3620 C   0  0  0  0  0  3  0  0  0  0  0  0
  190.0740  177.9040  143.3690 C   0  0  0  0  0  3  0  0  0  0  0  0
  189.9540  175.6860  142.3990 C   0  0  0  0  0  3  0  0  0  0  0  0
  186.1510  179.0120  146.3010 C   0  0  0  0  0  1  0  0  0  0  0  0
  185.2240  177.9770  145.6830 C   0  0  0  0  0  3  0  0  0  0  0  0
  184.9310  176.8650  146.6740 C   0  0  0  0  0  1  0  0  0  0  0  0
  188.6560  176.0210  145.8730 C   0  0  0  0  0  3  0  0  0  0  0  0
  187.5750  176.0570  145.1870 N   0  0  0  0  0  0  0  0  0  0  0  0
  189.8920  175.1020  147.6590 C   0  0  2  0  0  3  0  0  0  0  0  0
  193.3980  176.8310  147.0010 C   0  0  0  0  0  3  0  0  0  0  0  0
  191.5980  174.8870  146.2340 C   0  0  0  0  0  0  0  0  0  0  0  0
  192.7880  174.8910  145.5500 C   0  0  0  0  0  0  0  0  0  0  0  0
  190.3760  174.4220  146.5310 N   0  0  0  0  0  4  0  0  0  0  0  0
  188.9590  174.8260  146.7130 C   0  0  2  0  0  3  0  0  0  0  0  0
  193.6980  175.9010  145.9500 C   0  0  0  0  0  2  0  0  0  0  0  0
  191.2850  175.8310  147.3270 C   0  0  1  0  0  0  0  0  0  0  0  0
  192.1760  176.8080  147.7250 C   0  0  0  0  0  3  0  0  0  0  0  0
  193.1580  173.7370  144.2860 Cl  0  0  0  0  0  0  0  0  0  0  0  0
  1  5  2  0  0  0  0
  2  8  1  1  0  0  0
  2  6  1  0  0  0  0
  3  7  2  0  0  0  0
  3  2  1  0  0  0  0
  4  6  1  0  0  0  0
  4 15  1  1  0  0  0
  5  4  1  0  0  0  0
  6 18  1  1  0  0  0
  7  5  1  0  0  0  0
  8 12  1  0  0  0  0
  9 12  2  0  0  0  0
 10  9  1  0  0  0  0
 11 13  1  0  0  0  0
 11 10  2  0  0  0  0
 13  8  2  0  0  0  0
 15 14  1  0  0  0  0
 15 16  1  0  0  0  0
 18 17  2  0  0  0  0
 19 23  1  6  0  0  0
 20 27  2  0  0  0  0
 21 23  1  0  0  0  0
 21 26  1  0  0  0  0
 22 25  1  0  0  0  0
 22 21  2  0  0  0  0
 23 24  1  0  0  0  0
 23 26  1  0  0  0  0
 24 17  1  6  0  0  0
 24 19  1  0  0  0  0
 25 20  1  0  0  0  0
 26 19  1  0  0  0  0
 26 27  1  6  0  0  0
 28 22  1  0  0  0  0
M  END
>  <MODEL>
2

>  <REMARK>
 VINA RESULT:      -7.4      1.698      4.054
  Name = 
  4 active torsions:
  status: ('A' for Active; 'I' for Inactive)
    1  A    between atoms: C_4  and  C_11
    2  A    between atoms: C_5  and  C_19
    3  A    between atoms: C_8  and  C_17
    4  A    between atoms: N_12  and  C_21
                            x       y       z     vdW  Elec       q    Type
                         _______ _______ _______ _____ _____    ______ ____

>  <TORSDO>
F 4

$$$$
=
 OpenBabel11062423113D

 28 33  0  0  1  0  0  0  0  0999 V2000
  192.1410  176.4890  146.6710 O   0  0  0  0  0  0  0  0  0  0  0  0
  188.1110  176.7810  145.7830 C   0  0  2  0  0  3  0  0  0  0  0  0
  188.6580  177.0140  147.1630 C   0  0  0  0  0  3  0  0  0  0  0  0
  190.5080  176.6130  144.9100 C   0  0  1  0  0  3  0  0  0  0  0  0
  190.9380  176.6910  146.3570 C   0  0  0  0  0  0  0  0  0  0  0  0
  189.0950  177.2010  144.6750 C   0  0  1  0  0  3  0  0  0  0  0  0
  189.9610  176.9390  147.4240 C   0  0  0  0  0  3  0  0  0  0  0  0
  186.7800  177.4570  145.6320 C   0  0  0  0  0  0  0  0  0  0  0  0
  185.4340  179.2010  144.6210 C   0  0  0  0  0  3  0  0  0  0  0  0
  184.3290  178.7870  145.3710 C   0  0  0  0  0  3  0  0  0  0  0  0
  184.4450  177.7100  146.2540 C   0  0  0  0  0  3  0  0  0  0  0  0
  186.6580  178.5370  144.7510 C   0  0  0  0  0  3  0  0  0  0  0  0
  185.6690  177.0470  146.3870 C   0  0  0  0  0  3  0  0  0  0  0  0
  191.1830  178.6150  143.4820 C   0  0  0  0  0  1  0  0  0  0  0  0
  191.5770  177.2390  143.9960 C   0  0  0  0  0  3  0  0  0  0  0  0
  191.9430  176.3240  142.8410 C   0  0  0  0  0  1  0  0  0  0  0  0
  188.4930  175.5000  143.1410 C   0  0  0  0  0  3  0  0  0  0  0  0
  188.6000  176.7500  143.3970 N   0  0  0  0  0  0  0  0  0  0  0  0
  187.9700  173.7050  141.7030 C   0  0  2  0  0  3  0  0  0  0  0  0
  190.9450  171.2440  142.5990 C   0  0  0  0  0  3  0  0  0  0  0  0
  190.1560  173.5350  141.2830 C   0  0  0  0  0  0  0  0  0  0  0  0
  191.4660  173.1680  141.0940 C   0  0  0  0  0  0  0  0  0  0  0  0
  189.0780  174.3110  141.0930 N   0  0  0  0  0  4  0  0  0  0  0  0
  188.0090  175.0580  141.8000 C   0  0  2  0  0  3  0  0  0  0  0  0
  191.8560  171.9930  141.7840 C   0  0  0  0  0  2  0  0  0  0  0  0
  189.2060  172.7620  142.1090 C   0  0  1  0  0  0  0  0  0  0  0  0
  189.5840  171.6120  142.7730 C   0  0  0  0  0  3  0  0  0  0  0  0
  192.5660  174.0730  140.0770 Cl  0  0  0  0  0  0  0  0  0  0  0  0
  2  8  1  1  0  0  0
  2  3  1  0  0  0  0
  3  7  2  0  0  0  0
  4 15  1  6  0  0  0
  4  5  1  0  0  0  0
  5  1  2  0  0  0  0
  5  7  1  0  0  0  0
  6 18  1  6  0  0  0
  6  4  1  0  0  0  0
  6  2  1  0  0  0  0
  8 13  1  0  0  0  0
  9 12  1  0  0  0  0
  9 10  2  0  0  0  0
 10 11  1  0  0  0  0
 11 13  2  0  0  0  0
 12  8  2  0  0  0  0
 14 15  1  0  0  0  0
 16 15  1  0  0  0  0
 17 18  2  0  0  0  0
 19 23  1  6  0  0  0
 19 24  1  0  0  0  0
 19 26  1  0  0  0  0
 20 27  2  0  0  0  0
 21 26  1  0  0  0  0
 22 21  2  0  0  0  0
 22 25  1  0  0  0  0
 23 21  1  0  0  0  0
 23 24  1  0  0  0  0
 23 26  1  0  0  0  0
 24 17  1  1  0  0  0
 25 20  1  0  0  0  0
 26 27  1  1  0  0  0
 28 22  1  0  0  0  0
M  END
>  <MODEL>
3

>  <REMARK>
 VINA RESULT:      -7.4      2.903      4.990
  Name = 
  4 active torsions:
  status: ('A' for Active; 'I' for Inactive)
    1  A    between atoms: C_4  and  C_11
    2  A    between atoms: C_5  and  C_19
    3  A    between atoms: C_8  and  C_17
    4  A    between atoms: N_12  and  C_21
                            x       y       z     vdW  Elec       q    Type
                         _______ _______ _______ _____ _____    ______ ____

>  <TORSDO>
F 4

$$$$
=
 OpenBabel11062423113D

 28 33  0  0  1  0  0  0  0  0999 V2000
  188.7860  174.9160  140.5420 O   0  0  0  0  0  0  0  0  0  0  0  0
  187.3950  177.1870  143.7080 C   0  0  2  0  0  3  0  0  0  0  0  0
  186.6510  177.0630  142.4080 C   0  0  0  0  0  3  0  0  0  0  0  0
  189.0490  175.4230  142.8780 C   0  0  1  0  0  3  0  0  0  0  0  0
  188.3220  175.5020  141.5560 C   0  0  0  0  0  0  0  0  0  0  0  0
  188.1840  175.9130  144.0650 C   0  0  1  0  0  3  0  0  0  0  0  0
  187.1030  176.3090  141.4100 C   0  0  0  0  0  3  0  0  0  0  0  0
  186.4550  177.5870  144.8070 C   0  0  0  0  0  0  0  0  0  0  0  0
  184.9480  176.9440  146.5930 C   0  0  0  0  0  3  0  0  0  0  0  0
  184.6440  178.2890  146.8250 C   0  0  0  0  0  3  0  0  0  0  0  0
  185.2430  179.2870  146.0490 C   0  0  0  0  0  3  0  0  0  0  0  0
  185.8520  176.5930  145.5860 C   0  0  0  0  0  3  0  0  0  0  0  0
  186.1450  178.9370  145.0400 C   0  0  0  0  0  3  0  0  0  0  0  0
  191.0020  173.8300  142.4890 C   0  0  0  0  0  1  0  0  0  0  0  0
  189.6180  174.0090  143.0960 C   0  0  0  0  0  3  0  0  0  0  0  0
  188.6740  172.9320  142.5950 C   0  0  0  0  0  1  0  0  0  0  0  0
  189.3590  175.2420  146.0090 C   0  0  0  0  0  3  0  0  0  0  0  0
  189.0380  176.1790  145.1970 N   0  0  0  0  0  0  0  0  0  0  0  0
  191.1890  176.4440  146.8840 C   0  0  2  0  0  3  0  0  0  0  0  0
  193.6920  176.1660  143.8230 C   0  0  0  0  0  3  0  0  0  0  0  0
  192.5140  174.8970  145.9690 C   0  0  0  0  0  0  0  0  0  0  0  0
  193.4550  174.1600  145.2920 C   0  0  0  0  0  0  0  0  0  0  0  0
  191.6100  175.1060  146.9380 N   0  0  0  0  0  4  0  0  0  0  0  0
  190.2170  175.5490  147.1910 C   0  0  2  0  0  3  0  0  0  0  0  0
  194.0440  174.8240  144.1880 C   0  0  0  0  0  2  0  0  0  0  0  0
  192.1550  176.2840  145.6100 C   0  0  1  0  0  0  0  0  0  0  0  0
  192.7370  176.9350  144.5400 C   0  0  0  0  0  3  0  0  0  0  0  0
  193.8970  172.5310  145.7580 Cl  0  0  0  0  0  0  0  0  0  0  0  0
  1  5  2  0  0  0  0
  2  6  1  0  0  0  0
  2  8  1  1  0  0  0
  3  2  1  0  0  0  0
  4 15  1  1  0  0  0
  4  6  1  0  0  0  0
  5  4  1  0  0  0  0
  6 18  1  1  0  0  0
  7  5  1  0  0  0  0
  7  3  2  0  0  0  0
  8 13  2  0  0  0  0
  8 12  1  0  0  0  0
  9 10  1  0  0  0  0
 11 10  2  0  0  0  0
 12  9  2  0  0  0  0
 13 11  1  0  0  0  0
 14 15  1  0  0  0  0
 16 15  1  0  0  0  0
 18 17  2  0  0  0  0
 19 23  1  1  0  0  0
 19 24  1  0  0  0  0
 20 25  1  0  0  0  0
 20 27  2  0  0  0  0
 21 23  1  0  0  0  0
 22 28  1  0  0  0  0
 22 21  2  0  0  0  0
 23 24  1  0  0  0  0
 24 17  1  6  0  0  0
 25 22  1  0  0  0  0
 26 27  1  6  0  0  0
 26 21  1  0  0  0  0
 26 19  1  0  0  0  0
 26 23  1  0  0  0  0
M  END
>  <MODEL>
4

>  <REMARK>
 VINA RESULT:      -7.3      2.307      4.467
  Name = 
  4 active torsions:
  status: ('A' for Active; 'I' for Inactive)
    1  A    between atoms: C_4  and  C_11
    2  A    between atoms: C_5  and  C_19
    3  A    between atoms: C_8  and  C_17
    4  A    between atoms: N_12  and  C_21
                            x       y       z     vdW  Elec       q    Type
                         _______ _______ _______ _____ _____    ______ ____

>  <TORSDO>
F 4

$$$$
=
 OpenBabel11062423113D

 28 33  0  0  1  0  0  0  0  0999 V2000
  189.9740  171.3230  140.7010 O   0  0  0  0  0  0  0  0  0  0  0  0
  189.8210  173.7430  144.0520 C   0  0  2  0  0  3  0  0  0  0  0  0
  189.7390  172.2440  144.1280 C   0  0  0  0  0  3  0  0  0  0  0  0
  190.3160  173.5450  141.5520 C   0  0  1  0  0  3  0  0  0  0  0  0
  190.0500  172.0670  141.7140 C   0  0  0  0  0  0  0  0  0  0  0  0
  190.6990  174.2330  142.8850 C   0  0  1  0  0  3  0  0  0  0  0  0
  189.8150  171.4820  143.0400 C   0  0  0  0  0  3  0  0  0  0  0  0
  190.2770  174.3040  145.3670 C   0  0  0  0  0  0  0  0  0  0  0  0
  192.0860  175.0540  146.7950 C   0  0  0  0  0  3  0  0  0  0  0  0
  191.1760  175.2910  147.8300 C   0  0  0  0  0  3  0  0  0  0  0  0
  189.8150  175.0330  147.6380 C   0  0  0  0  0  3  0  0  0  0  0  0
  191.6380  174.5620  145.5650 C   0  0  0  0  0  3  0  0  0  0  0  0
  189.3660  174.5390  146.4100 C   0  0  0  0  0  3  0  0  0  0  0  0
  190.8030  173.4760  139.0500 C   0  0  0  0  0  1  0  0  0  0  0  0
  191.3480  173.7880  140.4350 C   0  0  0  0  0  3  0  0  0  0  0  0
  192.6410  173.0320  140.6820 C   0  0  0  0  0  1  0  0  0  0  0  0
  189.4310  176.1740  142.4010 C   0  0  0  0  0  3  0  0  0  0  0  0
  190.5540  175.6610  142.7430 N   0  0  0  0  0  0  0  0  0  0  0  0
  189.1730  178.2850  143.4190 C   0  0  2  0  0  3  0  0  0  0  0  0
  186.5310  177.3530  146.2230 C   0  0  0  0  0  3  0  0  0  0  0  0
  186.9880  177.8440  143.5480 C   0  0  0  0  0  0  0  0  0  0  0  0
  185.6760  177.6330  143.8930 C   0  0  0  0  0  0  0  0  0  0  0  0
  187.9850  178.1160  142.6930 N   0  0  0  0  0  4  0  0  0  0  0  0
  189.3150  177.6510  142.2280 C   0  0  2  0  0  3  0  0  0  0  0  0
  185.4600  177.3740  145.2690 C   0  0  0  0  0  2  0  0  0  0  0  0
  188.0970  177.8380  144.5250 C   0  0  1  0  0  0  0  0  0  0  0  0
  187.8840  177.5970  145.8680 C   0  0  0  0  0  3  0  0  0  0  0  0
  184.3700  177.6860  142.7280 Cl  0  0  0  0  0  0  0  0  0  0  0  0
  1  5  2  0  0  0  0
  2  3  1  0  0  0  0
  2  8  1  1  0  0  0
  4 15  1  6  0  0  0
  4  5  1  0  0  0  0
  4  6  1  0  0  0  0
  5  7  1  0  0  0  0
  6 18  1  6  0  0  0
  6  2  1  0  0  0  0
  7  3  2  0  0  0  0
  8 12  2  0  0  0  0
  8 13  1  0  0  0  0
  9 10  2  0  0  0  0
 11 10  1  0  0  0  0
 12  9  1  0  0  0  0
 13 11  2  0  0  0  0
 14 15  1  0  0  0  0
 15 16  1  0  0  0  0
 17 18  2  0  0  0  0
 19 23  1  6  0  0  0
 19 26  1  0  0  0  0
 21 22  2  0  0  0  0
 21 26  1  0  0  0  0
 22 25  1  0  0  0  0
 23 21  1  0  0  0  0
 23 26  1  0  0  0  0
 24 17  1  1  0  0  0
 24 23  1  0  0  0  0
 24 19  1  0  0  0  0
 25 20  1  0  0  0  0
 26 27  1  6  0  0  0
 27 20  2  0  0  0  0
 28 22  1  0  0  0  0
M  END
>  <MODEL>
5

>  <REMARK>
 VINA RESULT:      -7.0      3.458      6.145
  Name = 
  4 active torsions:
  status: ('A' for Active; 'I' for Inactive)
    1  A    between atoms: C_4  and  C_11
    2  A    between atoms: C_5  and  C_19
    3  A    between atoms: C_8  and  C_17
    4  A    between atoms: N_12  and  C_21
                            x       y       z     vdW  Elec       q    Type
                         _______ _______ _______ _____ _____    ______ ____

>  <TORSDO>
F 4

$$$$
=
 OpenBabel11062423113D

 28 33  0  0  1  0  0  0  0  0999 V2000
  190.4640  170.3420  141.5450 O   0  0  0  0  0  0  0  0  0  0  0  0
  191.1090  173.6310  143.9720 C   0  0  2  0  0  3  0  0  0  0  0  0
  191.5520  172.2440  144.3470 C   0  0  0  0  0  3  0  0  0  0  0  0
  190.4340  172.7440  141.6710 C   0  0  1  0  0  3  0  0  0  0  0  0
  190.7570  171.3700  142.2120 C   0  0  0  0  0  0  0  0  0  0  0  0
  191.1450  173.8750  142.4510 C   0  0  1  0  0  3  0  0  0  0  0  0
  191.3570  171.2030  143.5420 C   0  0  0  0  0  3  0  0  0  0  0  0
  191.9130  174.6520  144.7200 C   0  0  0  0  0  0  0  0  0  0  0  0
  193.5290  176.4590  144.6910 C   0  0  0  0  0  3  0  0  0  0  0  0
  193.4790  176.5300  146.0870 C   0  0  0  0  0  3  0  0  0  0  0  0
  192.6490  175.6630  146.8040 C   0  0  0  0  0  3  0  0  0  0  0  0
  192.7470  175.5210  144.0090 C   0  0  0  0  0  3  0  0  0  0  0  0
  191.8690  174.7240  146.1230 C   0  0  0  0  0  3  0  0  0  0  0  0
  191.9690  173.5640  139.8070 C   0  0  0  0  0  1  0  0  0  0  0  0
  190.6990  172.8020  140.1560 C   0  0  0  0  0  3  0  0  0  0  0  0
  189.5140  173.3640  139.3920 C   0  0  0  0  0  1  0  0  0  0  0  0
  189.2520  175.2950  142.3590 C   0  0  0  0  0  3  0  0  0  0  0  0
  190.5060  175.1330  142.1530 N   0  0  0  0  0  0  0  0  0  0  0  0
  189.1060  177.6150  142.7540 C   0  0  2  0  0  3  0  0  0  0  0  0
  189.4370  177.6400  146.7040 C   0  0  0  0  0  3  0  0  0  0  0  0
  187.8300  177.1320  144.5220 C   0  0  0  0  0  0  0  0  0  0  0  0
  187.2240  176.9910  145.7460 C   0  0  0  0  0  0  0  0  0  0  0  0
  187.8630  177.1240  143.1810 N   0  0  0  0  0  4  0  0  0  0  0  0
  188.6070  176.5950  142.0110 C   0  0  2  0  0  3  0  0  0  0  0  0
  188.0660  177.2480  146.8560 C   0  0  0  0  0  2  0  0  0  0  0  0
  189.2370  177.5500  144.3540 C   0  0  1  0  0  0  0  0  0  0  0  0
  190.0550  177.8100  145.4360 C   0  0  0  0  0  3  0  0  0  0  0  0
  185.5430  176.5360  145.9240 Cl  0  0  0  0  0  0  0  0  0  0  0  0
  1  5  2  0  0  0  0
  2  3  1  0  0  0  0
  2  8  1  1  0  0  0
  4 15  1  6  0  0  0
  4  5  1  0  0  0  0
  4  6  1  0  0  0  0
  5  7  1  0  0  0  0
  6 18  1  1  0  0  0
  6  2  1  0  0  0  0
  7  3  2  0  0  0  0
  8 13  1  0  0  0  0
  9 10  2  0  0  0  0
 10 11  1  0  0  0  0
 12  9  1  0  0  0  0
 12  8  2  0  0  0  0
 13 11  2  0  0  0  0
 14 15  1  0  0  0  0
 16 15  1  0  0  0  0
 18 17  2  0  0  0  0
 19 23  1  1  0  0  0
 19 26  1  0  0  0  0
 20 25  1  0  0  0  0
 21 22  2  0  0  0  0
 22 28  1  0  0  0  0
 22 25  1  0  0  0  0
 23 26  1  0  0  0  0
 23 21  1  0  0  0  0
 24 17  1  1  0  0  0
 24 19  1  0  0  0  0
 24 23  1  0  0  0  0
 26 21  1  0  0  0  0
 26 27  1  1  0  0  0
 27 20  2  0  0  0  0
M  END
>  <MODEL>
6

>  <REMARK>
 VINA RESULT:      -7.0      3.342      6.030
  Name = 
  4 active torsions:
  status: ('A' for Active; 'I' for Inactive)
    1  A    between atoms: C_4  and  C_11
    2  A    between atoms: C_5  and  C_19
    3  A    between atoms: C_8  and  C_17
    4  A    between atoms: N_12  and  C_21
                            x       y       z     vdW  Elec       q    Type
                         _______ _______ _______ _____ _____    ______ ____

>  <TORSDO>
F 4

$$$$
=
 OpenBabel11062423113D

 28 33  0  0  1  0  0  0  0  0999 V2000
  195.5670  173.7810  144.1490 O   0  0  0  0  0  0  0  0  0  0  0  0
  191.7790  174.5930  145.6020 C   0  0  2  0  0  3  0  0  0  0  0  0
  193.0320  174.9900  146.3310 C   0  0  0  0  0  3  0  0  0  0  0  0
  193.2200  173.8430  143.6280 C   0  0  1  0  0  3  0  0  0  0  0  0
  194.4110  174.1240  144.5140 C   0  0  0  0  0  0  0  0  0  0  0  0
  191.9510  174.6110  144.0720 C   0  0  1  0  0  3  0  0  0  0  0  0
  194.2420  174.7410  145.8360 C   0  0  0  0  0  3  0  0  0  0  0  0
  190.6290  175.4480  146.0450 C   0  0  0  0  0  0  0  0  0  0  0  0
  188.4940  175.6420  147.1760 C   0  0  0  0  0  3  0  0  0  0  0  0
  188.4320  176.9960  146.8330 C   0  0  0  0  0  3  0  0  0  0  0  0
  189.4660  177.5810  146.0940 C   0  0  0  0  0  3  0  0  0  0  0  0
  189.5900  174.8690  146.7820 C   0  0  0  0  0  3  0  0  0  0  0  0
  190.5610  176.8080  145.6990 C   0  0  0  0  0  3  0  0  0  0  0  0
  193.3280  175.5160  141.7060 C   0  0  0  0  0  1  0  0  0  0  0  0
  193.5800  174.0830  142.1500 C   0  0  0  0  0  3  0  0  0  0  0  0
  192.8720  173.1080  141.2270 C   0  0  0  0  0  1  0  0  0  0  0  0
  189.9950  174.7210  142.7420 C   0  0  0  0  0  3  0  0  0  0  0  0
  190.7940  174.0140  143.4520 N   0  0  0  0  0  0  0  0  0  0  0  0
  188.1640  174.9240  141.2700 C   0  0  2  0  0  3  0  0  0  0  0  0
  187.1070  178.6670  142.0350 C   0  0  0  0  0  3  0  0  0  0  0  0
  187.1140  176.0450  142.8900 C   0  0  0  0  0  0  0  0  0  0  0  0
  186.4320  176.9260  143.6940 C   0  0  0  0  0  0  0  0  0  0  0  0
  187.5670  174.8340  142.5360 N   0  0  0  0  0  4  0  0  0  0  0  0
  188.7860  174.0870  142.1380 C   0  0  2  0  0  3  0  0  0  0  0  0
  186.4460  178.2690  143.2440 C   0  0  0  0  0  2  0  0  0  0  0  0
  187.7860  176.4430  141.6360 C   0  0  1  0  0  0  0  0  0  0  0  0
  187.7900  177.7500  141.1930 C   0  0  0  0  0  3  0  0  0  0  0  0
  185.6050  176.4300  145.1550 Cl  0  0  0  0  0  0  0  0  0  0  0  0
  1  5  2  0  0  0  0
  2  8  1  6  0  0  0
  2  3  1  0  0  0  0
  4 15  1  6  0  0  0
  4  6  1  0  0  0  0
  4  5  1  0  0  0  0
  5  7  1  0  0  0  0
  6 18  1  6  0  0  0
  6  2  1  0  0  0  0
  7  3  2  0  0  0  0
  8 12  1  0  0  0  0
 10  9  1  0  0  0  0
 11 10  2  0  0  0  0
 12  9  2  0  0  0  0
 13  8  2  0  0  0  0
 13 11  1  0  0  0  0
 14 15  1  0  0  0  0
 16 15  1  0  0  0  0
 17 18  2  0  0  0  0
 19 26  1  0  0  0  0
 19 24  1  0  0  0  0
 19 23  1  1  0  0  0
 20 25  1  0  0  0  0
 21 22  2  0  0  0  0
 22 28  1  0  0  0  0
 23 21  1  0  0  0  0
 24 23  1  0  0  0  0
 24 17  1  1  0  0  0
 25 22  1  0  0  0  0
 26 27  1  1  0  0  0
 26 23  1  0  0  0  0
 26 21  1  0  0  0  0
 27 20  2  0  0  0  0
M  END
>  <MODEL>
7

>  <REMARK>
 VINA RESULT:      -6.9      3.389      6.523
  Name = 
  4 active torsions:
  status: ('A' for Active; 'I' for Inactive)
    1  A    between atoms: C_4  and  C_11
    2  A    between atoms: C_5  and  C_19
    3  A    between atoms: C_8  and  C_17
    4  A    between atoms: N_12  and  C_21
                            x       y       z     vdW  Elec       q    Type
                         _______ _______ _______ _____ _____    ______ ____

>  <TORSDO>
F 4

$$$$
=
 OpenBabel11062423113D

 28 33  0  0  1  0  0  0  0  0999 V2000
  187.3660  176.7060  140.3100 O   0  0  0  0  0  0  0  0  0  0  0  0
  189.6390  176.2450  143.7360 C   0  0  2  0  0  3  0  0  0  0  0  0
  188.6450  177.3590  143.5640 C   0  0  0  0  0  3  0  0  0  0  0  0
  188.8170  175.2320  141.5370 C   0  0  1  0  0  3  0  0  0  0  0  0
  187.9770  176.4800  141.3880 C   0  0  0  0  0  0  0  0  0  0  0  0
  189.2190  174.9550  143.0060 C   0  0  1  0  0  3  0  0  0  0  0  0
  187.9060  177.4760  142.4640 C   0  0  0  0  0  3  0  0  0  0  0  0
  189.8990  176.0020  145.1930 C   0  0  0  0  0  0  0  0  0  0  0  0
  190.8650  176.7460  147.2880 C   0  0  0  0  0  3  0  0  0  0  0  0
  190.4600  175.5570  147.9010 C   0  0  0  0  0  3  0  0  0  0  0  0
  189.7750  174.5860  147.1640 C   0  0  0  0  0  3  0  0  0  0  0  0
  190.5850  176.9690  145.9360 C   0  0  0  0  0  3  0  0  0  0  0  0
  189.4960  174.8070  145.8120 C   0  0  0  0  0  3  0  0  0  0  0  0
  187.6730  172.9770  141.8700 C   0  0  0  0  0  1  0  0  0  0  0  0
  188.1220  174.0320  140.8690 C   0  0  0  0  0  3  0  0  0  0  0  0
  188.9820  173.4070  139.7860 C   0  0  0  0  0  1  0  0  0  0  0  0
  191.4230  174.2850  142.4570 C   0  0  0  0  0  3  0  0  0  0  0  0
  190.3100  174.0120  143.0300 N   0  0  0  0  0  0  0  0  0  0  0  0
  193.0380  173.1130  143.7130 C   0  0  2  0  0  3  0  0  0  0  0  0
  194.2560  176.0230  146.1120 C   0  0  0  0  0  3  0  0  0  0  0  0
  194.3200  174.9360  143.5790 C   0  0  0  0  0  0  0  0  0  0  0  0
  195.1210  176.0350  143.7690 C   0  0  0  0  0  0  0  0  0  0  0  0
  193.8020  173.9280  142.8630 N   0  0  0  0  0  4  0  0  0  0  0  0
  192.5260  173.2800  142.4670 C   0  0  2  0  0  3  0  0  0  0  0  0
  195.0690  176.5860  145.0730 C   0  0  0  0  0  2  0  0  0  0  0  0
  193.4890  174.3410  144.6460 C   0  0  1  0  0  0  0  0  0  0  0  0
  193.4480  174.8720  145.9200 C   0  0  0  0  0  3  0  0  0  0  0  0
  196.1310  176.7020  142.5040 Cl  0  0  0  0  0  0  0  0  0  0  0  0
  1  5  2  0  0  0  0
  2  8  1  1  0  0  0
  3  2  1  0  0  0  0
  4 15  1  1  0  0  0
  4  6  1  0  0  0  0
  5  4  1  0  0  0  0
  5  7  1  0  0  0  0
  6 18  1  6  0  0  0
  6  2  1  0  0  0  0
  7  3  2  0  0  0  0
  8 13  2  0  0  0  0
  8 12  1  0  0  0  0
  9 10  1  0  0  0  0
 11 10  2  0  0  0  0
 12  9  2  0  0  0  0
 13 11  1  0  0  0  0
 15 14  1  0  0  0  0
 16 15  1  0  0  0  0
 17 18  2  0  0  0  0
 19 23  1  6  0  0  0
 19 26  1  0  0  0  0
 21 22  2  0  0  0  0
 21 26  1  0  0  0  0
 22 25  1  0  0  0  0
 23 21  1  0  0  0  0
 23 26  1  0  0  0  0
 24 17  1  1  0  0  0
 24 23  1  0  0  0  0
 24 19  1  0  0  0  0
 25 20  1  0  0  0  0
 26 27  1  6  0  0  0
 27 20  2  0  0  0  0
 28 22  1  0  0  0  0
M  END
>  <MODEL>
8

>  <REMARK>
 VINA RESULT:      -6.9      2.665      3.813
  Name = 
  4 active torsions:
  status: ('A' for Active; 'I' for Inactive)
    1  A    between atoms: C_4  and  C_11
    2  A    between atoms: C_5  and  C_19
    3  A    between atoms: C_8  and  C_17
    4  A    between atoms: N_12  and  C_21
                            x       y       z     vdW  Elec       q    Type
                         _______ _______ _______ _____ _____    ______ ____

>  <TORSDO>
F 4

$$$$
=
 OpenBabel11062423113D

 28 33  0  0  1  0  0  0  0  0999 V2000
  193.9850  177.5520  145.3740 O   0  0  0  0  0  0  0  0  0  0  0  0
  190.5760  176.0590  143.5660 C   0  0  2  0  0  3  0  0  0  0  0  0
  191.8740  176.2390  142.8310 C   0  0  0  0  0  3  0  0  0  0  0  0
  191.7730  176.6810  145.7380 C   0  0  1  0  0  3  0  0  0  0  0  0
  192.9750  176.9890  144.8750 C   0  0  0  0  0  0  0  0  0  0  0  0
  190.7780  175.7120  145.0530 C   0  0  1  0  0  3  0  0  0  0  0  0
  192.9660  176.6980  143.4360 C   0  0  0  0  0  3  0  0  0  0  0  0
  189.7200  175.0440  142.8680 C   0  0  0  0  0  0  0  0  0  0  0  0
  188.2980  174.4560  140.9960 C   0  0  0  0  0  3  0  0  0  0  0  0
  188.0630  173.2000  141.5650 C   0  0  0  0  0  3  0  0  0  0  0  0
  188.6540  172.8630  142.7860 C   0  0  0  0  0  3  0  0  0  0  0  0
  189.1250  175.3760  141.6460 C   0  0  0  0  0  3  0  0  0  0  0  0
  189.4790  173.7830  143.4380 C   0  0  0  0  0  3  0  0  0  0  0  0
  192.0820  174.6910  147.3040 C   0  0  0  0  0  1  0  0  0  0  0  0
  192.2190  176.1960  147.1300 C   0  0  0  0  0  3  0  0  0  0  0  0
  191.4970  176.9290  148.2460 C   0  0  0  0  0  1  0  0  0  0  0  0
  188.9180  176.8930  145.9230 C   0  0  0  0  0  3  0  0  0  0  0  0
  189.5100  175.7710  145.7370 N   0  0  0  0  0  0  0  0  0  0  0  0
  186.6300  176.3260  145.9620 C   0  0  2  0  0  3  0  0  0  0  0  0
  185.6960  177.0630  142.1810 C   0  0  0  0  0  3  0  0  0  0  0  0
  186.2690  178.1090  144.6680 C   0  0  0  0  0  0  0  0  0  0  0  0
  185.9180  179.0270  143.7080 C   0  0  0  0  0  0  0  0  0  0  0  0
  186.6270  177.7280  145.9030 N   0  0  0  0  0  4  0  0  0  0  0  0
  187.6230  176.9320  146.6620 C   0  0  2  0  0  3  0  0  0  0  0  0
  185.6350  178.4740  142.4350 C   0  0  0  0  0  2  0  0  0  0  0  0
  186.3200  176.6540  144.4200 C   0  0  1  0  0  0  0  0  0  0  0  0
  186.0340  176.1140  143.1820 C   0  0  0  0  0  3  0  0  0  0  0  0
  185.8220  180.7450  144.0310 Cl  0  0  0  0  0  0  0  0  0  0  0  0
  2  8  1  6  0  0  0
  2  6  1  0  0  0  0
  3  7  2  0  0  0  0
  3  2  1  0  0  0  0
  4 15  1  1  0  0  0
  5  1  2  0  0  0  0
  5  4  1  0  0  0  0
  6 18  1  1  0  0  0
  6  4  1  0  0  0  0
  7  5  1  0  0  0  0
  8 13  1  0  0  0  0
  9 10  2  0  0  0  0
  9 12  1  0  0  0  0
 10 11  1  0  0  0  0
 11 13  2  0  0  0  0
 12  8  2  0  0  0  0
 15 14  1  0  0  0  0
 15 16  1  0  0  0  0
 18 17  2  0  0  0  0
 19 23  1  1  0  0  0
 19 24  1  0  0  0  0
 20 25  1  0  0  0  0
 20 27  2  0  0  0  0
 21 23  1  0  0  0  0
 22 28  1  0  0  0  0
 22 21  2  0  0  0  0
 23 24  1  0  0  0  0
 24 17  1  6  0  0  0
 25 22  1  0  0  0  0
 26 27  1  6  0  0  0
 26 21  1  0  0  0  0
 26 23  1  0  0  0  0
 26 19  1  0  0  0  0
M  END
>  <MODEL>
9

>  <REMARK>
 VINA RESULT:      -6.8      3.240      6.863
  Name = 
  4 active torsions:
  status: ('A' for Active; 'I' for Inactive)
    1  A    between atoms: C_4  and  C_11
    2  A    between atoms: C_5  and  C_19
    3  A    between atoms: C_8  and  C_17
    4  A    between atoms: N_12  and  C_21
                            x       y       z     vdW  Elec       q    Type
                         _______ _______ _______ _____ _____    ______ ____

>  <TORSDO>
F 4

$$$$
