=
 OpenBabel11062422073D

 27 29  0  0  1  0  0  0  0  0999 V2000
  188.2020  175.7140  142.8240 C   0  0  0  0  0  0  0  0  0  0  0  0
  186.2300  177.0290  143.2010 C   0  0  0  0  0  0  0  0  0  0  0  0
  185.6310  177.5970  145.4880 C   0  0  0  0  0  0  0  0  0  0  0  0
  187.6270  176.2610  145.0280 C   0  0  0  0  0  0  0  0  0  0  0  0
  187.8990  176.1900  146.4150 C   0  0  0  0  0  0  0  0  0  0  0  0
  184.4580  178.3210  144.9590 C   0  0  0  0  0  0  0  0  0  0  0  0
  187.0950  176.3970  142.3120 C   0  0  0  0  0  3  0  0  0  0  0  0
  185.0460  177.7630  142.7090 C   0  0  0  0  0  3  0  0  0  0  0  0
  188.9960  175.1370  142.0370 O   0  0  0  0  0  0  0  0  0  0  0  0
  183.6530  178.9050  145.7330 O   0  0  0  0  0  0  0  0  0  0  0  0
  186.4910  176.9670  144.5770 C   0  0  0  0  0  0  0  0  0  0  0  0
  184.2380  178.3540  143.5410 N   0  0  0  0  0  0  0  0  0  0  0  0
  185.9030  177.5270  146.8560 C   0  0  0  0  0  3  0  0  0  0  0  0
  188.4250  175.6710  144.1360 O   0  0  0  0  0  0  0  0  0  0  0  0
  187.0240  176.8290  147.3110 C   0  0  0  0  0  3  0  0  0  0  0  0
  189.0020  174.2270  147.1740 O   0  0  0  0  0  0  0  0  0  0  0  0
  190.2850  176.1590  147.2710 N   0  0  0  0  0  2  0  0  0  0  0  0
  189.0720  175.4690  146.9680 C   0  0  0  0  0  0  0  0  0  0  0  0
  191.3950  175.4830  147.7930 N   0  0  0  0  0  2  0  0  0  0  0  0
  192.2880  175.2260  146.6770 C   0  0  0  0  0  2  0  0  0  0  0  0
  192.7510  176.5420  146.0600 C   0  0  2  0  0  3  0  0  0  0  0  0
  192.4420  176.5550  144.5630 C   0  0  1  0  0  3  0  0  0  0  0  0
  191.9340  175.1980  144.1070 C   0  0  0  0  0  1  0  0  0  0  0  0
  191.4680  177.5140  144.2780 O   0  0  0  0  0  1  0  0  0  0  0  0
  194.2510  176.7130  146.2840 C   0  0  0  0  0  2  0  0  0  0  0  0
  194.9880  175.3910  146.1400 C   0  0  0  0  0  2  0  0  0  0  0  0
  195.7500  175.3960  144.9720 O   0  0  0  0  0  1  0  0  0  0  0  0
  1 14  1  0  0  0  0
  2 11  1  0  0  0  0
  3 13  1  0  0  0  0
  4  5  2  0  0  0  0
  5 18  1  0  0  0  0
  5 15  1  0  0  0  0
  6  3  1  0  0  0  0
  6 10  2  0  0  0  0
  7  1  1  0  0  0  0
  7  2  2  0  0  0  0
  8  2  1  0  0  0  0
  8 12  2  0  0  0  0
  9  1  2  0  0  0  0
 11  4  1  0  0  0  0
 11  3  2  0  0  0  0
 12  6  1  0  0  0  0
 13 15  2  0  0  0  0
 14  4  1  0  0  0  0
 17 19  1  0  0  0  0
 18 16  2  0  0  0  0
 18 17  1  0  0  0  0
 20 19  1  0  0  0  0
 21 25  1  6  0  0  0
 21 20  1  0  0  0  0
 22 23  1  1  0  0  0
 22 21  1  0  0  0  0
 24 22  1  0  0  0  0
 26 25  1  0  0  0  0
 27 26  1  0  0  0  0
M  END
>  <MODEL>
1

>  <REMARK>
 VINA RESULT:      -7.2      0.000      0.000
  Name = 
  7 active torsions:
  status: ('A' for Active; 'I' for Inactive)
    1  A    between atoms: C_3  and  C_25
    2  A    between atoms: C_4  and  C_14
    3  A    between atoms: N_5  and  N_18
    4  A    between atoms: N_5  and  C_22
    5  A    between atoms: C_9  and  C_19
    6  A    between atoms: C_14  and  C_25
    7  A    between atoms: C_22  and  C_25
                            x       y       z     vdW  Elec       q    Type
                         _______ _______ _______ _____ _____    ______ ____

>  <TORSDO>
F 7

$$$$
=
 OpenBabel11062422073D

 27 29  0  0  1  0  0  0  0  0999 V2000
  186.6710  177.9600  141.6960 C   0  0  0  0  0  0  0  0  0  0  0  0
  185.2980  178.4510  143.6030 C   0  0  0  0  0  0  0  0  0  0  0  0
  186.1890  178.0080  145.8210 C   0  0  0  0  0  0  0  0  0  0  0  0
  187.5310  177.5330  143.8320 C   0  0  0  0  0  0  0  0  0  0  0  0
  188.5860  177.0730  144.6550 C   0  0  0  0  0  0  0  0  0  0  0  0
  184.9190  178.5050  146.3870 C   0  0  0  0  0  0  0  0  0  0  0  0
  185.4650  178.4330  142.2200 C   0  0  0  0  0  3  0  0  0  0  0  0
  184.0420  178.9410  144.2040 C   0  0  0  0  0  3  0  0  0  0  0  0
  186.8410  177.9370  140.4500 O   0  0  0  0  0  0  0  0  0  0  0  0
  184.7320  178.5360  147.6320 O   0  0  0  0  0  0  0  0  0  0  0  0
  186.3380  177.9980  144.4260 C   0  0  0  0  0  0  0  0  0  0  0  0
  183.8870  178.9570  145.4970 N   0  0  0  0  0  0  0  0  0  0  0  0
  187.2320  177.5540  146.6300 C   0  0  0  0  0  3  0  0  0  0  0  0
  187.6420  177.5350  142.5030 O   0  0  0  0  0  0  0  0  0  0  0  0
  188.4160  177.0910  146.0510 C   0  0  0  0  0  3  0  0  0  0  0  0
  189.8840  175.5220  143.4060 O   0  0  0  0  0  0  0  0  0  0  0  0
  191.0980  177.2550  144.3630 N   0  0  0  0  0  2  0  0  0  0  0  0
  189.8710  176.5700  144.1080 C   0  0  0  0  0  0  0  0  0  0  0  0
  192.3130  176.7840  143.8490 N   0  0  0  0  0  2  0  0  0  0  0  0
  192.7370  175.6960  144.7130 C   0  0  0  0  0  2  0  0  0  0  0  0
  192.8650  176.1850  146.1510 C   0  0  2  0  0  3  0  0  0  0  0  0
  194.3370  176.4180  146.4960 C   0  0  1  0  0  3  0  0  0  0  0  0
  195.2000  175.2900  145.9550 C   0  0  0  0  0  1  0  0  0  0  0  0
  194.7790  177.6220  145.9450 O   0  0  0  0  0  1  0  0  0  0  0  0
  192.2640  175.1510  147.1010 C   0  0  0  0  0  2  0  0  0  0  0  0
  191.0810  175.7230  147.8660 C   0  0  0  0  0  2  0  0  0  0  0  0
  191.4040  176.9830  148.3700 O   0  0  0  0  0  1  0  0  0  0  0  0
  1  7  1  0  0  0  0
  1 14  1  0  0  0  0
  2  8  1  0  0  0  0
  2 11  1  0  0  0  0
  3  6  1  0  0  0  0
  3 13  1  0  0  0  0
  4 11  1  0  0  0  0
  4  5  2  0  0  0  0
  5 15  1  0  0  0  0
  6 10  2  0  0  0  0
  7  2  2  0  0  0  0
  8 12  2  0  0  0  0
  9  1  2  0  0  0  0
 11  3  2  0  0  0  0
 12  6  1  0  0  0  0
 14  4  1  0  0  0  0
 15 13  2  0  0  0  0
 16 18  2  0  0  0  0
 18 17  1  0  0  0  0
 18  5  1  0  0  0  0
 19 17  1  0  0  0  0
 19 20  1  0  0  0  0
 21 20  1  6  0  0  0
 21 22  1  0  0  0  0
 21 25  1  0  0  0  0
 22 23  1  6  0  0  0
 24 22  1  0  0  0  0
 25 26  1  0  0  0  0
 26 27  1  0  0  0  0
M  END
>  <MODEL>
2

>  <REMARK>
 VINA RESULT:      -7.2      1.996      2.880
  Name = 
  7 active torsions:
  status: ('A' for Active; 'I' for Inactive)
    1  A    between atoms: C_3  and  C_25
    2  A    between atoms: C_4  and  C_14
    3  A    between atoms: N_5  and  N_18
    4  A    between atoms: N_5  and  C_22
    5  A    between atoms: C_9  and  C_19
    6  A    between atoms: C_14  and  C_25
    7  A    between atoms: C_22  and  C_25
                            x       y       z     vdW  Elec       q    Type
                         _______ _______ _______ _____ _____    ______ ____

>  <TORSDO>
F 7

$$$$
=
 OpenBabel11062422073D

 27 29  0  0  1  0  0  0  0  0999 V2000
  188.1600  175.6620  142.7190 C   0  0  0  0  0  0  0  0  0  0  0  0
  186.1870  176.9780  143.0850 C   0  0  0  0  0  0  0  0  0  0  0  0
  185.6440  177.6500  145.3580 C   0  0  0  0  0  0  0  0  0  0  0  0
  187.6390  176.3080  144.9080 C   0  0  0  0  0  0  0  0  0  0  0  0
  187.9480  176.3060  146.2890 C   0  0  0  0  0  0  0  0  0  0  0  0
  184.4510  178.3390  144.8260 C   0  0  0  0  0  0  0  0  0  0  0  0
  187.0340  176.3100  142.2040 C   0  0  0  0  0  3  0  0  0  0  0  0
  184.9850  177.6780  142.5900 C   0  0  0  0  0  3  0  0  0  0  0  0
  188.9380  175.0530  141.9390 O   0  0  0  0  0  0  0  0  0  0  0  0
  183.6620  178.9530  145.5930 O   0  0  0  0  0  0  0  0  0  0  0  0
  186.4850  176.9830  144.4550 C   0  0  0  0  0  0  0  0  0  0  0  0
  184.1940  178.3030  143.4140 N   0  0  0  0  0  0  0  0  0  0  0  0
  185.9520  177.6470  146.7190 C   0  0  0  0  0  3  0  0  0  0  0  0
  188.4180  175.6820  144.0250 O   0  0  0  0  0  0  0  0  0  0  0  0
  187.0910  176.9810  147.1770 C   0  0  0  0  0  3  0  0  0  0  0  0
  189.1000  174.3820  147.0740 O   0  0  0  0  0  0  0  0  0  0  0  0
  190.3410  176.3430  147.1240 N   0  0  0  0  0  2  0  0  0  0  0  0
  189.1410  175.6210  146.8450 C   0  0  0  0  0  0  0  0  0  0  0  0
  191.4700  175.7010  147.6480 N   0  0  0  0  0  2  0  0  0  0  0  0
  192.6220  176.2550  146.9580 C   0  0  0  0  0  2  0  0  0  0  0  0
  192.6550  175.7660  145.5140 C   0  0  2  0  0  3  0  0  0  0  0  0
  193.8290  174.8070  145.3130 C   0  0  1  0  0  3  0  0  0  0  0  0
  195.0610  175.3040  146.0490 C   0  0  0  0  0  1  0  0  0  0  0  0
  193.5040  173.5370  145.7940 O   0  0  0  0  0  1  0  0  0  0  0  0
  192.7900  176.9610  144.5720 C   0  0  0  0  0  2  0  0  0  0  0  0
  191.5650  177.1080  143.6850 C   0  0  0  0  0  2  0  0  0  0  0  0
  190.7430  178.1250  144.1720 O   0  0  0  0  0  1  0  0  0  0  0  0
  1 14  1  0  0  0  0
  2 11  1  0  0  0  0
  3 13  1  0  0  0  0
  4  5  2  0  0  0  0
  5 18  1  0  0  0  0
  5 15  1  0  0  0  0
  6  3  1  0  0  0  0
  6 10  2  0  0  0  0
  7  1  1  0  0  0  0
  7  2  2  0  0  0  0
  8  2  1  0  0  0  0
  8 12  2  0  0  0  0
  9  1  2  0  0  0  0
 11  4  1  0  0  0  0
 11  3  2  0  0  0  0
 12  6  1  0  0  0  0
 13 15  2  0  0  0  0
 14  4  1  0  0  0  0
 17 19  1  0  0  0  0
 18 16  2  0  0  0  0
 18 17  1  0  0  0  0
 20 19  1  0  0  0  0
 21 25  1  6  0  0  0
 21 20  1  0  0  0  0
 22 21  1  0  0  0  0
 22 24  1  0  0  0  0
 22 23  1  1  0  0  0
 26 27  1  0  0  0  0
 26 25  1  0  0  0  0
M  END
>  <MODEL>
3

>  <REMARK>
 VINA RESULT:      -7.1      0.831      1.954
  Name = 
  7 active torsions:
  status: ('A' for Active; 'I' for Inactive)
    1  A    between atoms: C_3  and  C_25
    2  A    between atoms: C_4  and  C_14
    3  A    between atoms: N_5  and  N_18
    4  A    between atoms: N_5  and  C_22
    5  A    between atoms: C_9  and  C_19
    6  A    between atoms: C_14  and  C_25
    7  A    between atoms: C_22  and  C_25
                            x       y       z     vdW  Elec       q    Type
                         _______ _______ _______ _____ _____    ______ ____

>  <TORSDO>
F 7

$$$$
=
 OpenBabel11062422073D

 27 29  0  0  1  0  0  0  0  0999 V2000
  186.7540  177.9930  141.7220 C   0  0  0  0  0  0  0  0  0  0  0  0
  185.3280  178.4440  143.5980 C   0  0  0  0  0  0  0  0  0  0  0  0
  186.2020  178.0750  145.8370 C   0  0  0  0  0  0  0  0  0  0  0  0
  187.5980  177.6370  143.8770 C   0  0  0  0  0  0  0  0  0  0  0  0
  188.6590  177.2380  144.7230 C   0  0  0  0  0  0  0  0  0  0  0  0
  184.9000  178.5190  146.3750 C   0  0  0  0  0  0  0  0  0  0  0  0
  185.5190  178.4150  142.2190 C   0  0  0  0  0  3  0  0  0  0  0  0
  184.0400  178.8830  144.1730 C   0  0  0  0  0  3  0  0  0  0  0  0
  186.9460  177.9600  140.4780 O   0  0  0  0  0  0  0  0  0  0  0  0
  184.6910  178.5580  147.6170 O   0  0  0  0  0  0  0  0  0  0  0  0
  186.3740  178.0530  144.4450 C   0  0  0  0  0  0  0  0  0  0  0  0
  183.8630  178.9100  145.4620 N   0  0  0  0  0  0  0  0  0  0  0  0
  187.2510  177.6820  146.6690 C   0  0  0  0  0  3  0  0  0  0  0  0
  187.7300  177.6260  142.5500 O   0  0  0  0  0  0  0  0  0  0  0  0
  188.4650  177.2670  146.1150 C   0  0  0  0  0  3  0  0  0  0  0  0
  190.8230  177.6420  143.8270 O   0  0  0  0  0  0  0  0  0  0  0  0
  190.2990  175.4000  144.1250 N   0  0  0  0  0  2  0  0  0  0  0  0
  189.9750  176.7880  144.2040 C   0  0  0  0  0  0  0  0  0  0  0  0
  191.5400  174.9710  143.6360 N   0  0  0  0  0  2  0  0  0  0  0  0
  192.3060  174.5180  144.7840 C   0  0  0  0  0  2  0  0  0  0  0  0
  193.5250  175.4110  144.9880 C   0  0  2  0  0  3  0  0  0  0  0  0
  193.2310  176.4630  146.0570 C   0  0  1  0  0  3  0  0  0  0  0  0
  192.2340  175.9320  147.0740 C   0  0  0  0  0  1  0  0  0  0  0  0
  194.4050  176.8160  146.7260 O   0  0  0  0  0  1  0  0  0  0  0  0
  193.8870  176.0930  143.6710 C   0  0  0  0  0  2  0  0  0  0  0  0
  195.3290  175.8120  143.2800 C   0  0  0  0  0  2  0  0  0  0  0  0
  196.1700  176.7750  143.8380 O   0  0  0  0  0  1  0  0  0  0  0  0
  1  7  1  0  0  0  0
  1 14  1  0  0  0  0
  2  8  1  0  0  0  0
  2 11  1  0  0  0  0
  3  6  1  0  0  0  0
  3 13  1  0  0  0  0
  4 11  1  0  0  0  0
  4  5  2  0  0  0  0
  5 15  1  0  0  0  0
  6 10  2  0  0  0  0
  7  2  2  0  0  0  0
  8 12  2  0  0  0  0
  9  1  2  0  0  0  0
 11  3  2  0  0  0  0
 12  6  1  0  0  0  0
 14  4  1  0  0  0  0
 15 13  2  0  0  0  0
 16 18  2  0  0  0  0
 17 18  1  0  0  0  0
 18  5  1  0  0  0  0
 19 17  1  0  0  0  0
 19 20  1  0  0  0  0
 20 21  1  0  0  0  0
 21 25  1  6  0  0  0
 21 22  1  0  0  0  0
 22 24  1  0  0  0  0
 22 23  1  1  0  0  0
 26 25  1  0  0  0  0
 26 27  1  0  0  0  0
M  END
>  <MODEL>
4

>  <REMARK>
 VINA RESULT:      -7.0      2.052      2.641
  Name = 
  7 active torsions:
  status: ('A' for Active; 'I' for Inactive)
    1  A    between atoms: C_3  and  C_25
    2  A    between atoms: C_4  and  C_14
    3  A    between atoms: N_5  and  N_18
    4  A    between atoms: N_5  and  C_22
    5  A    between atoms: C_9  and  C_19
    6  A    between atoms: C_14  and  C_25
    7  A    between atoms: C_22  and  C_25
                            x       y       z     vdW  Elec       q    Type
                         _______ _______ _______ _____ _____    ______ ____

>  <TORSDO>
F 7

$$$$
=
 OpenBabel11062422073D

 27 29  0  0  1  0  0  0  0  0999 V2000
  186.9310  177.9140  146.3740 C   0  0  0  0  0  0  0  0  0  0  0  0
  185.4080  178.2850  144.5570 C   0  0  0  0  0  0  0  0  0  0  0  0
  186.2450  178.0920  142.2820 C   0  0  0  0  0  0  0  0  0  0  0  0
  187.7390  177.7270  144.1840 C   0  0  0  0  0  0  0  0  0  0  0  0
  188.8090  177.4740  143.2940 C   0  0  0  0  0  0  0  0  0  0  0  0
  184.8890  178.4190  141.7980 C   0  0  0  0  0  0  0  0  0  0  0  0
  185.6440  178.2240  145.9270 C   0  0  0  0  0  3  0  0  0  0  0  0
  184.0650  178.6090  144.0350 C   0  0  0  0  0  3  0  0  0  0  0  0
  187.1630  177.8540  147.6100 O   0  0  0  0  0  0  0  0  0  0  0  0
  184.6390  178.4830  140.5650 O   0  0  0  0  0  0  0  0  0  0  0  0
  186.4620  178.0350  143.6670 C   0  0  0  0  0  0  0  0  0  0  0  0
  183.8460  178.6660  142.7530 N   0  0  0  0  0  0  0  0  0  0  0  0
  187.3030  177.8410  141.4060 C   0  0  0  0  0  3  0  0  0  0  0  0
  187.9130  177.6810  145.5050 O   0  0  0  0  0  0  0  0  0  0  0  0
  188.5700  177.5370  141.9100 C   0  0  0  0  0  3  0  0  0  0  0  0
  191.0220  178.0670  143.9280 O   0  0  0  0  0  0  0  0  0  0  0  0
  190.5630  175.7930  144.0190 N   0  0  0  0  0  2  0  0  0  0  0  0
  190.1800  177.1440  143.7580 C   0  0  0  0  0  0  0  0  0  0  0  0
  191.8540  175.4760  144.4570 N   0  0  0  0  0  2  0  0  0  0  0  0
  191.7020  174.5570  145.5720 C   0  0  0  0  0  2  0  0  0  0  0  0
  192.2270  175.1940  146.8540 C   0  0  2  0  0  3  0  0  0  0  0  0
  191.0590  175.6080  147.7500 C   0  0  1  0  0  3  0  0  0  0  0  0
  190.7940  177.0990  147.6330 C   0  0  0  0  0  1  0  0  0  0  0  0
  189.9000  174.9190  147.3840 O   0  0  0  0  0  1  0  0  0  0  0  0
  193.0770  176.4140  146.5100 C   0  0  0  0  0  2  0  0  0  0  0  0
  194.5590  176.0740  146.5100 C   0  0  0  0  0  2  0  0  0  0  0  0
  195.1140  176.3620  145.2630 O   0  0  0  0  0  1  0  0  0  0  0  0
  1  9  2  0  0  0  0
  2  7  2  0  0  0  0
  3 11  1  0  0  0  0
  4 14  1  0  0  0  0
  5 18  1  0  0  0  0
  5  4  1  0  0  0  0
  6  3  1  0  0  0  0
  6 12  1  0  0  0  0
  7  1  1  0  0  0  0
  8  2  1  0  0  0  0
 10  6  2  0  0  0  0
 11  4  2  0  0  0  0
 11  2  1  0  0  0  0
 12  8  2  0  0  0  0
 13 15  1  0  0  0  0
 13  3  2  0  0  0  0
 14  1  1  0  0  0  0
 15  5  2  0  0  0  0
 17 19  1  0  0  0  0
 18 16  2  0  0  0  0
 18 17  1  0  0  0  0
 19 20  1  0  0  0  0
 21 20  1  6  0  0  0
 21 22  1  0  0  0  0
 22 23  1  6  0  0  0
 24 22  1  0  0  0  0
 25 26  1  0  0  0  0
 25 21  1  0  0  0  0
 27 26  1  0  0  0  0
M  END
>  <MODEL>
5

>  <REMARK>
 VINA RESULT:      -6.9      2.069      3.586
  Name = 
  7 active torsions:
  status: ('A' for Active; 'I' for Inactive)
    1  A    between atoms: C_3  and  C_25
    2  A    between atoms: C_4  and  C_14
    3  A    between atoms: N_5  and  N_18
    4  A    between atoms: N_5  and  C_22
    5  A    between atoms: C_9  and  C_19
    6  A    between atoms: C_14  and  C_25
    7  A    between atoms: C_22  and  C_25
                            x       y       z     vdW  Elec       q    Type
                         _______ _______ _______ _____ _____    ______ ____

>  <TORSDO>
F 7

$$$$
=
 OpenBabel11062422073D

 27 29  0  0  1  0  0  0  0  0999 V2000
  185.2070  178.3400  146.8380 C   0  0  0  0  0  0  0  0  0  0  0  0
  184.8090  178.3350  144.4710 C   0  0  0  0  0  0  0  0  0  0  0  0
  186.4640  177.3050  143.0170 C   0  0  0  0  0  0  0  0  0  0  0  0
  186.8020  177.3470  145.4390 C   0  0  0  0  0  0  0  0  0  0  0  0
  188.0320  176.6680  145.2790 C   0  0  0  0  0  0  0  0  0  0  0  0
  185.6120  177.6580  141.8640 C   0  0  0  0  0  0  0  0  0  0  0  0
  184.3920  178.6790  145.7540 C   0  0  0  0  0  3  0  0  0  0  0  0
  183.9840  178.6710  143.2940 C   0  0  0  0  0  3  0  0  0  0  0  0
  184.8470  178.6430  148.0050 O   0  0  0  0  0  0  0  0  0  0  0  0
  185.9560  177.3630  140.6890 O   0  0  0  0  0  0  0  0  0  0  0  0
  186.0260  177.6600  144.3020 C   0  0  0  0  0  0  0  0  0  0  0  0
  184.3740  178.3490  142.0950 N   0  0  0  0  0  0  0  0  0  0  0  0
  187.6780  176.6340  142.8620 C   0  0  0  0  0  3  0  0  0  0  0  0
  186.3590  177.7000  146.6470 O   0  0  0  0  0  0  0  0  0  0  0  0
  188.4520  176.3210  143.9830 C   0  0  0  0  0  3  0  0  0  0  0  0
  188.5820  175.3420  147.1730 O   0  0  0  0  0  0  0  0  0  0  0  0
  190.1070  177.0250  146.6920 N   0  0  0  0  0  2  0  0  0  0  0  0
  188.9040  176.3030  146.4230 C   0  0  0  0  0  0  0  0  0  0  0  0
  190.9320  176.6840  147.7710 N   0  0  0  0  0  2  0  0  0  0  0  0
  191.8960  175.7200  147.2690 C   0  0  0  0  0  2  0  0  0  0  0  0
  192.6530  176.3020  146.0810 C   0  0  2  0  0  3  0  0  0  0  0  0
  192.5320  175.3700  144.8750 C   0  0  1  0  0  3  0  0  0  0  0  0
  191.6710  174.1640  145.2120 C   0  0  0  0  0  1  0  0  0  0  0  0
  191.9520  176.0440  143.7980 O   0  0  0  0  0  1  0  0  0  0  0  0
  194.1230  176.4880  146.4500 C   0  0  0  0  0  2  0  0  0  0  0  0
  195.0320  175.7000  145.5210 C   0  0  0  0  0  2  0  0  0  0  0  0
  195.6840  176.5680  144.6450 O   0  0  0  0  0  1  0  0  0  0  0  0
  1  9  2  0  0  0  0
  2  7  2  0  0  0  0
  3 11  1  0  0  0  0
  4 14  1  0  0  0  0
  5  4  1  0  0  0  0
  5 18  1  0  0  0  0
  6 12  1  0  0  0  0
  6  3  1  0  0  0  0
  7  1  1  0  0  0  0
  8  2  1  0  0  0  0
 10  6  2  0  0  0  0
 11  2  1  0  0  0  0
 11  4  2  0  0  0  0
 12  8  2  0  0  0  0
 13  3  2  0  0  0  0
 13 15  1  0  0  0  0
 14  1  1  0  0  0  0
 15  5  2  0  0  0  0
 17 19  1  0  0  0  0
 18 17  1  0  0  0  0
 18 16  2  0  0  0  0
 20 19  1  0  0  0  0
 21 25  1  1  0  0  0
 21 20  1  0  0  0  0
 22 23  1  1  0  0  0
 22 21  1  0  0  0  0
 24 22  1  0  0  0  0
 26 25  1  0  0  0  0
 27 26  1  0  0  0  0
M  END
>  <MODEL>
6

>  <REMARK>
 VINA RESULT:      -6.8      1.467      3.040
  Name = 
  7 active torsions:
  status: ('A' for Active; 'I' for Inactive)
    1  A    between atoms: C_3  and  C_25
    2  A    between atoms: C_4  and  C_14
    3  A    between atoms: N_5  and  N_18
    4  A    between atoms: N_5  and  C_22
    5  A    between atoms: C_9  and  C_19
    6  A    between atoms: C_14  and  C_25
    7  A    between atoms: C_22  and  C_25
                            x       y       z     vdW  Elec       q    Type
                         _______ _______ _______ _____ _____    ______ ____

>  <TORSDO>
F 7

$$$$
=
 OpenBabel11062422073D

 27 29  0  0  1  0  0  0  0  0999 V2000
  187.3810  177.9310  146.2470 C   0  0  0  0  0  0  0  0  0  0  0  0
  185.7200  178.1390  144.5270 C   0  0  0  0  0  0  0  0  0  0  0  0
  186.4430  178.1260  142.2060 C   0  0  0  0  0  0  0  0  0  0  0  0
  188.0800  177.9180  144.0120 C   0  0  0  0  0  0  0  0  0  0  0  0
  189.1220  177.8400  143.0580 C   0  0  0  0  0  0  0  0  0  0  0  0
  185.0300  178.2760  141.8060 C   0  0  0  0  0  0  0  0  0  0  0  0
  186.0400  178.0730  145.8810 C   0  0  0  0  0  3  0  0  0  0  0  0
  184.3170  178.2880  144.0900 C   0  0  0  0  0  3  0  0  0  0  0  0
  187.6900  177.8690  147.4660 O   0  0  0  0  0  0  0  0  0  0  0  0
  184.7030  178.3390  140.5920 O   0  0  0  0  0  0  0  0  0  0  0  0
  186.7450  178.0610  143.5740 C   0  0  0  0  0  0  0  0  0  0  0  0
  184.0200  178.3500  142.8240 N   0  0  0  0  0  0  0  0  0  0  0  0
  187.4740  178.0470  141.2670 C   0  0  0  0  0  3  0  0  0  0  0  0
  188.3340  177.8600  145.3200 O   0  0  0  0  0  0  0  0  0  0  0  0
  188.7970  177.9070  141.6920 C   0  0  0  0  0  3  0  0  0  0  0  0
  191.1840  178.6810  143.8870 O   0  0  0  0  0  0  0  0  0  0  0  0
  191.2170  176.4340  143.3020 N   0  0  0  0  0  2  0  0  0  0  0  0
  190.5480  177.6890  143.4370 C   0  0  0  0  0  0  0  0  0  0  0  0
  192.5630  176.2870  143.6580 N   0  0  0  0  0  2  0  0  0  0  0  0
  192.5970  175.3780  144.7910 C   0  0  0  0  0  2  0  0  0  0  0  0
  192.6650  176.1640  146.0950 C   0  0  2  0  0  3  0  0  0  0  0  0
  194.1230  176.3610  146.5120 C   0  0  1  0  0  3  0  0  0  0  0  0
  194.9810  175.2020  146.0330 C   0  0  0  0  0  1  0  0  0  0  0  0
  194.6260  177.5440  145.9670 O   0  0  0  0  0  1  0  0  0  0  0  0
  191.9080  175.4120  147.1870 C   0  0  0  0  0  2  0  0  0  0  0  0
  190.4940  175.9480  147.3500 C   0  0  0  0  0  2  0  0  0  0  0  0
  189.6200  174.9020  147.6460 O   0  0  0  0  0  1  0  0  0  0  0  0
  1  9  2  0  0  0  0
  2  7  2  0  0  0  0
  3 11  1  0  0  0  0
  4 14  1  0  0  0  0
  5 18  1  0  0  0  0
  5  4  1  0  0  0  0
  6  3  1  0  0  0  0
  6 12  1  0  0  0  0
  7  1  1  0  0  0  0
  8  2  1  0  0  0  0
 10  6  2  0  0  0  0
 11  4  2  0  0  0  0
 11  2  1  0  0  0  0
 12  8  2  0  0  0  0
 13 15  1  0  0  0  0
 13  3  2  0  0  0  0
 14  1  1  0  0  0  0
 15  5  2  0  0  0  0
 17 18  1  0  0  0  0
 17 19  1  0  0  0  0
 18 16  2  0  0  0  0
 19 20  1  0  0  0  0
 21 20  1  6  0  0  0
 21 22  1  0  0  0  0
 21 25  1  0  0  0  0
 22 23  1  6  0  0  0
 24 22  1  0  0  0  0
 25 26  1  0  0  0  0
 26 27  1  0  0  0  0
M  END
>  <MODEL>
7

>  <REMARK>
 VINA RESULT:      -6.8      2.219      3.985
  Name = 
  7 active torsions:
  status: ('A' for Active; 'I' for Inactive)
    1  A    between atoms: C_3  and  C_25
    2  A    between atoms: C_4  and  C_14
    3  A    between atoms: N_5  and  N_18
    4  A    between atoms: N_5  and  C_22
    5  A    between atoms: C_9  and  C_19
    6  A    between atoms: C_14  and  C_25
    7  A    between atoms: C_22  and  C_25
                            x       y       z     vdW  Elec       q    Type
                         _______ _______ _______ _____ _____    ______ ____

>  <TORSDO>
F 7

$$$$
=
 OpenBabel11062422073D

 27 29  0  0  1  0  0  0  0  0999 V2000
  188.3370  175.6840  146.8110 C   0  0  0  0  0  0  0  0  0  0  0  0
  186.4610  177.1310  146.4260 C   0  0  0  0  0  0  0  0  0  0  0  0
  186.2920  178.2680  144.2830 C   0  0  0  0  0  0  0  0  0  0  0  0
  188.1750  176.7780  144.7460 C   0  0  0  0  0  0  0  0  0  0  0  0
  188.6990  177.0410  143.4580 C   0  0  0  0  0  0  0  0  0  0  0  0
  185.0370  178.8870  144.7560 C   0  0  0  0  0  0  0  0  0  0  0  0
  187.1510  176.2640  147.2690 C   0  0  0  0  0  3  0  0  0  0  0  0
  185.2030  177.7690  146.8640 C   0  0  0  0  0  3  0  0  0  0  0  0
  188.9740  174.8970  147.5580 O   0  0  0  0  0  0  0  0  0  0  0  0
  184.3860  179.6770  144.0210 O   0  0  0  0  0  0  0  0  0  0  0  0
  186.9710  177.3970  145.1470 C   0  0  0  0  0  0  0  0  0  0  0  0
  184.5600  178.5790  146.0750 N   0  0  0  0  0  0  0  0  0  0  0  0
  186.8100  178.5250  143.0130 C   0  0  0  0  0  3  0  0  0  0  0  0
  188.7980  175.9560  145.5910 O   0  0  0  0  0  0  0  0  0  0  0  0
  188.0020  177.9180  142.6080 C   0  0  0  0  0  3  0  0  0  0  0  0
  189.9080  175.4880  142.1260 O   0  0  0  0  0  0  0  0  0  0  0  0
  191.2290  176.8930  143.4180 N   0  0  0  0  0  2  0  0  0  0  0  0
  189.9570  176.4300  142.9630 C   0  0  0  0  0  0  0  0  0  0  0  0
  192.4200  176.3190  142.9530 N   0  0  0  0  0  2  0  0  0  0  0  0
  193.3030  176.2060  144.1010 C   0  0  0  0  0  2  0  0  0  0  0  0
  192.6670  175.3240  145.1690 C   0  0  2  0  0  3  0  0  0  0  0  0
  192.9820  175.8760  146.5600 C   0  0  1  0  0  3  0  0  0  0  0  0
  194.1910  176.7950  146.5120 C   0  0  0  0  0  1  0  0  0  0  0  0
  191.8930  176.5980  147.0520 O   0  0  0  0  0  1  0  0  0  0  0  0
  193.2000  173.8990  145.0410 C   0  0  0  0  0  2  0  0  0  0  0  0
  192.1000  172.9300  144.6390 C   0  0  0  0  0  2  0  0  0  0  0  0
  190.8510  173.5130  144.8500 O   0  0  0  0  0  1  0  0  0  0  0  0
  1  7  1  0  0  0  0
  1  9  2  0  0  0  0
  2  8  1  0  0  0  0
  2  7  2  0  0  0  0
  3  6  1  0  0  0  0
  3 11  1  0  0  0  0
  4 11  2  0  0  0  0
  4 14  1  0  0  0  0
  5  4  1  0  0  0  0
  6 12  1  0  0  0  0
 10  6  2  0  0  0  0
 11  2  1  0  0  0  0
 12  8  2  0  0  0  0
 13  3  2  0  0  0  0
 14  1  1  0  0  0  0
 15 13  1  0  0  0  0
 15  5  2  0  0  0  0
 16 18  2  0  0  0  0
 18 17  1  0  0  0  0
 18  5  1  0  0  0  0
 19 17  1  0  0  0  0
 19 20  1  0  0  0  0
 21 20  1  6  0  0  0
 21 22  1  0  0  0  0
 22 23  1  6  0  0  0
 22 24  1  0  0  0  0
 25 21  1  0  0  0  0
 26 27  1  0  0  0  0
 26 25  1  0  0  0  0
M  END
>  <MODEL>
8

>  <REMARK>
 VINA RESULT:      -6.7      1.987      3.584
  Name = 
  7 active torsions:
  status: ('A' for Active; 'I' for Inactive)
    1  A    between atoms: C_3  and  C_25
    2  A    between atoms: C_4  and  C_14
    3  A    between atoms: N_5  and  N_18
    4  A    between atoms: N_5  and  C_22
    5  A    between atoms: C_9  and  C_19
    6  A    between atoms: C_14  and  C_25
    7  A    between atoms: C_22  and  C_25
                            x       y       z     vdW  Elec       q    Type
                         _______ _______ _______ _____ _____    ______ ____

>  <TORSDO>
F 7

$$$$
=
 OpenBabel11062422073D

 27 29  0  0  1  0  0  0  0  0999 V2000
  186.1130  178.2150  141.7740 C   0  0  0  0  0  0  0  0  0  0  0  0
  185.1430  178.4470  143.9570 C   0  0  0  0  0  0  0  0  0  0  0  0
  186.5200  177.9470  145.8980 C   0  0  0  0  0  0  0  0  0  0  0  0
  187.4400  177.7350  143.6420 C   0  0  0  0  0  0  0  0  0  0  0  0
  188.6800  177.3250  144.1880 C   0  0  0  0  0  0  0  0  0  0  0  0
  185.3640  178.2820  146.7540 C   0  0  0  0  0  0  0  0  0  0  0  0
  185.0120  178.5350  142.5740 C   0  0  0  0  0  3  0  0  0  0  0  0
  184.0090  178.7740  144.8440 C   0  0  0  0  0  3  0  0  0  0  0  0
  186.0140  178.2900  140.5210 O   0  0  0  0  0  0  0  0  0  0  0  0
  185.4450  178.2140  148.0090 O   0  0  0  0  0  0  0  0  0  0  0  0
  186.3680  178.0430  144.5070 C   0  0  0  0  0  0  0  0  0  0  0  0
  184.1330  178.6910  146.1380 N   0  0  0  0  0  0  0  0  0  0  0  0
  187.7440  177.5440  146.4330 C   0  0  0  0  0  3  0  0  0  0  0  0
  187.2640  177.8340  142.3240 O   0  0  0  0  0  0  0  0  0  0  0  0
  188.8100  177.2360  145.5840 C   0  0  0  0  0  3  0  0  0  0  0  0
  190.5010  177.9020  142.7740 O   0  0  0  0  0  0  0  0  0  0  0  0
  190.2670  175.6270  143.1740 N   0  0  0  0  0  2  0  0  0  0  0  0
  189.8540  176.9840  143.3460 C   0  0  0  0  0  0  0  0  0  0  0  0
  191.3740  175.3010  142.3810 N   0  0  0  0  0  2  0  0  0  0  0  0
  192.4730  175.0300  143.2920 C   0  0  0  0  0  2  0  0  0  0  0  0
  191.9370  174.5360  144.6310 C   0  0  2  0  0  3  0  0  0  0  0  0
  192.5650  175.3340  145.7740 C   0  0  1  0  0  3  0  0  0  0  0  0
  191.6790  175.2920  147.0080 C   0  0  0  0  0  1  0  0  0  0  0  0
  193.8140  174.8060  146.1040 O   0  0  0  0  0  1  0  0  0  0  0  0
  192.2570  173.0510  144.7950 C   0  0  0  0  0  2  0  0  0  0  0  0
  191.1510  172.1800  144.2210 C   0  0  0  0  0  2  0  0  0  0  0  0
  189.9560  172.4180  144.8990 O   0  0  0  0  0  1  0  0  0  0  0  0
  1 14  1  0  0  0  0
  1  7  1  0  0  0  0
  2 11  1  0  0  0  0
  2  8  1  0  0  0  0
  3 13  1  0  0  0  0
  3  6  1  0  0  0  0
  4  5  2  0  0  0  0
  4 11  1  0  0  0  0
  5 15  1  0  0  0  0
  6 10  2  0  0  0  0
  7  2  2  0  0  0  0
  8 12  2  0  0  0  0
  9  1  2  0  0  0  0
 11  3  2  0  0  0  0
 12  6  1  0  0  0  0
 14  4  1  0  0  0  0
 15 13  2  0  0  0  0
 16 18  2  0  0  0  0
 17 18  1  0  0  0  0
 18  5  1  0  0  0  0
 19 17  1  0  0  0  0
 19 20  1  0  0  0  0
 21 20  1  6  0  0  0
 21 25  1  0  0  0  0
 21 22  1  0  0  0  0
 22 24  1  0  0  0  0
 22 23  1  1  0  0  0
 26 25  1  0  0  0  0
 26 27  1  0  0  0  0
M  END
>  <MODEL>
9

>  <REMARK>
 VINA RESULT:      -6.6      2.335      3.542
  Name = 
  7 active torsions:
  status: ('A' for Active; 'I' for Inactive)
    1  A    between atoms: C_3  and  C_25
    2  A    between atoms: C_4  and  C_14
    3  A    between atoms: N_5  and  N_18
    4  A    between atoms: N_5  and  C_22
    5  A    between atoms: C_9  and  C_19
    6  A    between atoms: C_14  and  C_25
    7  A    between atoms: C_22  and  C_25
                            x       y       z     vdW  Elec       q    Type
                         _______ _______ _______ _____ _____    ______ ____

>  <TORSDO>
F 7

$$$$
