=
 OpenBabel11072409373D

 63 67  0  0  1  0  0  0  0  0999 V2000
  189.6290  173.3910  140.8880 C   0  0  1  0  0  3  0  0  0  0  0  0
  187.8420  172.5700  139.2660 O   0  0  0  0  0  0  0  0  0  0  0  0
  190.1430  172.5630  138.5200 C   0  0  1  0  0  3  0  0  0  0  0  0
  190.6090  173.3780  139.7120 C   0  0  2  0  0  3  0  0  0  0  0  0
  188.6050  174.4990  140.6460 C   0  0  1  0  0  3  0  0  0  0  0  0
  190.2280  171.0590  138.7510 C   0  0  0  0  0  1  0  0  0  0  0  0
  188.7170  172.9880  138.2380 C   0  0  0  0  0  2  0  0  0  0  0  0
  188.1580  173.0480  140.5780 C   0  0  2  0  0  3  0  0  0  0  0  0
  192.0400  173.0650  140.1390 C   0  0  0  0  0  2  0  0  0  0  0  0
  192.9220  174.1370  139.8270 O   0  0  0  0  0  0  0  0  0  0  0  0
  194.9400  174.8350  138.9910 O   0  0  0  0  0  0  0  0  0  0  0  0
  194.2570  173.9060  139.4960 C   0  0  0  0  0  0  0  0  0  0  0  0
  194.8610  172.6330  139.7460 N   0  0  0  0  0  0  0  0  0  0  0  0
  195.9990  170.7880  138.8870 O   0  0  0  0  0  0  0  0  0  0  0  0
  195.2630  171.7850  138.6600 C   0  0  0  0  0  0  0  0  0  0  0  0
  194.7670  172.0390  137.2690 C   0  0  2  0  0  3  0  0  0  0  0  0
  193.4930  171.2560  137.0240 C   0  0  0  0  0  1  0  0  0  0  0  0
  195.7330  171.6750  136.3250 O   0  0  0  0  0  0  0  0  0  0  0  0
  195.2170  175.0330  134.9310 N   0  0  0  0  0  2  0  0  0  0  0  0
  197.4790  174.9350  135.8640 C   0  0  0  0  0  2  0  0  0  0  0  0
  197.1870  173.5670  136.4720 C   0  0  0  0  0  2  0  0  0  0  0  0
  194.8590  173.7740  135.5830 C   0  0  0  0  0  2  0  0  0  0  0  0
  196.0850  172.8630  135.6800 C   0  0  2  0  0  3  0  0  0  0  0  0
  196.4740  177.0970  135.1740 C   0  0  0  0  0  1  0  0  0  0  0  0
  196.1840  175.7370  135.7720 C   0  0  1  0  0  3  0  0  0  0  0  0
  195.2310  172.3320  141.0390 O   0  0  0  0  0  0  0  0  0  0  0  0
  195.7380  173.3070  141.8980 C   0  0  0  0  0  0  0  0  0  0  0  0
  195.1480  174.1990  142.9580 C   0  0  2  0  0  3  0  0  0  0  0  0
  196.9550  173.8470  142.0770 N   0  0  0  0  0  0  0  0  0  0  0  0
  196.4480  174.7190  143.1170 C   0  0  1  0  0  3  0  0  0  0  0  0
  196.6060  176.5530  141.2560 C   0  0  0  0  0  1  0  0  0  0  0  0
  196.4950  176.1680  142.6990 C   0  0  0  0  0  0  0  0  0  0  0  0
  196.6470  177.0740  143.5910 N   0  0  0  0  0  2  0  0  0  0  0  0
  194.7490  173.3790  144.1790 C   0  0  0  0  0  2  0  0  0  0  0  0
  193.2790  172.9890  144.1190 C   0  0  0  0  0  2  0  0  0  0  0  0
  193.1360  171.4980  143.8880 C   0  0  0  0  0  1  0  0  0  0  0  0
  188.2160  175.0420  141.8990 O   0  0  0  0  0  0  0  0  0  0  0  0
  187.5870  176.2820  142.0370 C   0  0  0  0  0  0  0  0  0  0  0  0
  186.9100  177.0610  140.7600 S   0  0  0  0  0  0  0  0  0  0  0  0
  187.4590  176.8780  143.3990 C   0  0  2  0  0  3  0  0  0  0  0  0
  187.9960  176.1800  145.5600 N   0  0  0  0  0  0  0  0  0  0  0  0
  188.2190  176.0940  144.3400 N   0  0  0  0  0  0  0  0  0  0  0  0
  188.7960  175.4280  146.4870 C   0  0  0  0  0  2  0  0  0  0  0  0
  190.0890  174.9880  145.8190 C   0  0  1  0  0  3  0  0  0  0  0  0
  192.2150  175.8990  146.6690 N   0  0  0  0  0  0  0  0  0  0  0  0
  191.1930  175.8750  147.7560 C   0  0  0  0  0  2  0  0  0  0  0  0
  191.1950  174.8260  146.8590 C   0  0  1  0  0  3  0  0  0  0  0  0
  193.3090  176.4870  145.9700 C   0  0  0  0  0  0  0  0  0  0  0  0
  194.4350  176.7610  146.6090 C   0  0  0  0  0  2  0  0  0  0  0  0
  193.2040  176.7550  144.5060 C   0  0  0  0  0  2  0  0  0  0  0  0
  192.0630  177.7150  144.1920 C   0  0  0  0  0  2  0  0  0  0  0  0
  191.2620  177.2420  143.0270 C   0  0  0  0  0  0  0  0  0  0  0  0
  191.4070  176.0710  142.5880 O   0  0  0  0  0  1  0  0  0  0  0  0
  190.3660  178.1080  142.4150 O   0  0  0  0  0  0  0  0  0  0  0  0
  189.4570  172.6630  145.8900 O   0  0  0  0  0  1  0  0  0  0  0  0
  189.8690  173.6940  145.0410 C   0  0  0  0  0  2  0  0  0  0  0  0
  186.0860  176.8680  143.7710 O   0  0  0  0  0  0  0  0  0  0  0  0
  185.1900  179.0480  143.4190 C   0  0  0  0  0  2  0  0  0  0  0  0
  185.3870  177.9970  144.2100 C   0  0  0  0  0  0  0  0  0  0  0  0
  184.7560  176.6810  146.4970 O   0  0  0  0  0  1  0  0  0  0  0  0
  183.3660  178.8390  146.0100 O   0  0  0  0  0  0  0  0  0  0  0  0
  186.0060  178.9530  146.8060 O   0  0  0  0  0  1  0  0  0  0  0  0
  184.8680  178.0710  145.9180 P   0  0  0  0  0  0  0  0  0  0  0  0
  2  8  1  0  0  0  0
  3  6  1  0  0  0  0
  3  4  1  0  0  0  0
  4  9  1  0  0  0  0
  4  1  1  0  0  0  0
  5  1  1  0  0  0  0
  5 37  1  0  0  0  0
  7  3  1  0  0  0  0
  7  2  1  0  0  0  0
  8  5  1  0  0  0  0
  8  1  1  0  0  0  0
 10  9  1  0  0  0  0
 11 12  2  0  0  0  0
 12 13  1  0  0  0  0
 12 10  1  0  0  0  0
 13 26  1  0  0  0  0
 15 14  2  0  0  0  0
 15 13  1  0  0  0  0
 16 15  1  0  0  0  0
 17 16  1  0  0  0  0
 18 16  1  0  0  0  0
 19 22  1  0  0  0  0
 19 25  1  0  0  0  0
 20 21  1  0  0  0  0
 22 23  1  0  0  0  0
 23 18  1  0  0  0  0
 23 21  1  0  0  0  0
 24 25  1  0  0  0  0
 25 20  1  0  0  0  0
 26 27  1  0  0  0  0
 27 29  2  0  0  0  0
 27 28  1  0  0  0  0
 28 30  1  0  0  0  0
 28 34  1  0  0  0  0
 29 30  1  0  0  0  0
 31 32  1  0  0  0  0
 32 30  1  0  0  0  0
 32 33  2  0  0  0  0
 35 34  1  0  0  0  0
 36 35  1  0  0  0  0
 37 38  1  0  0  0  0
 38 40  1  0  0  0  0
 39 38  2  0  0  0  0
 40 57  1  0  0  0  0
 40 42  1  0  0  0  0
 41 43  1  0  0  0  0
 42 41  2  0  0  0  0
 44 43  1  0  0  0  0
 44 47  1  0  0  0  0
 45 47  1  0  0  0  0
 45 46  1  0  0  0  0
 47 46  1  0  0  0  0
 48 49  2  0  0  0  0
 48 45  1  0  0  0  0
 50 48  1  0  0  0  0
 51 50  1  0  0  0  0
 52 51  1  0  0  0  0
 53 52  1  0  0  0  0
 54 52  2  0  0  0  0
 56 44  1  0  0  0  0
 56 55  1  0  0  0  0
 57 59  1  0  0  0  0
 58 59  2  0  0  0  0
 59 63  1  0  0  0  0
 63 61  2  0  0  0  0
 63 60  1  0  0  0  0
 63 62  1  0  0  0  0
M  END
>  <MODEL>
1

>  <REMARK>
 VINA RESULT:      -5.8      0.000      0.000
  Name = 
  26 active torsions:
  status: ('A' for Active; 'I' for Inactive)
    1  A    between atoms: C_1  and  C_6
    2  A    between atoms: C_1  and  C_18
    3  A    between atoms: C_2  and  O_52
    4  A    between atoms: C_4  and  N_22
    5  A    between atoms: C_4  and  O_42
    6  A    between atoms: C_4  and  C_45
    7  A    between atoms: C_7  and  O_56
    8  A    between atoms: C_7  and  C_62
    9  A    between atoms: C_8  and  C_19
   10  A    between atoms: C_8  and  C_34
   11  A    between atoms: N_11  and  C_13
   12  A    between atoms: O_12  and  C_36
   13  A    between atoms: O_12  and  C_45
   14  A    between atoms: C_13  and  C_47
   15  A    between atoms: O_15  and  C_16
   16  A    between atoms: O_15  and  C_48
   17  A    between atoms: C_18  and  C_24
   18  A    between atoms: N_20  and  C_24
   19  A    between atoms: C_26  and  C_48
   20  A    between atoms: N_28  and  O_52
   21  A    between atoms: C_33  and  C_47
   22  A    between atoms: C_35  and  C_40
   23  A    between atoms: C_38  and  O_56
   24  A    between atoms: O_42  and  C_58
   25  A    between atoms: C_47  and  C_53
   26  A    between atoms: C_58  and  P_60
                            x       y       z     vdW  Elec       q    Type
                         _______ _______ _______ _____ _____    ______ ____

>  <TORSDO>
F 26

$$$$
=
 OpenBabel11072409373D

 63 67  0  0  1  0  0  0  0  0999 V2000
  189.5540  173.3240  140.6780 C   0  0  1  0  0  3  0  0  0  0  0  0
  188.0470  172.6670  138.7310 O   0  0  0  0  0  0  0  0  0  0  0  0
  190.4360  172.4280  138.4480 C   0  0  1  0  0  3  0  0  0  0  0  0
  190.7390  173.2050  139.7160 C   0  0  2  0  0  3  0  0  0  0  0  0
  188.7110  174.5240  140.2530 C   0  0  1  0  0  3  0  0  0  0  0  0
  190.3280  170.9250  138.6750 C   0  0  0  0  0  1  0  0  0  0  0  0
  189.1410  172.9880  137.8980 C   0  0  0  0  0  2  0  0  0  0  0  0
  188.1460  173.1240  140.0840 C   0  0  2  0  0  3  0  0  0  0  0  0
  192.0210  172.7570  140.4100 C   0  0  0  0  0  2  0  0  0  0  0  0
  192.8690  173.8620  140.7000 O   0  0  0  0  0  0  0  0  0  0  0  0
  194.0620  175.1300  139.2070 O   0  0  0  0  0  0  0  0  0  0  0  0
  194.0170  174.1140  139.9490 C   0  0  0  0  0  0  0  0  0  0  0  0
  195.1490  173.2430  140.0330 N   0  0  0  0  0  0  0  0  0  0  0  0
  196.6630  171.8650  138.9160 O   0  0  0  0  0  0  0  0  0  0  0  0
  195.5420  172.4400  138.9100 C   0  0  0  0  0  0  0  0  0  0  0  0
  194.6080  172.2310  137.7570 C   0  0  2  0  0  3  0  0  0  0  0  0
  193.9240  170.8840  137.8840 C   0  0  0  0  0  1  0  0  0  0  0  0
  195.2980  172.2950  136.5420 O   0  0  0  0  0  0  0  0  0  0  0  0
  192.7190  174.7380  135.6130 N   0  0  0  0  0  2  0  0  0  0  0  0
  194.8890  175.8720  135.5810 C   0  0  0  0  0  2  0  0  0  0  0  0
  195.5580  174.6450  136.1930 C   0  0  0  0  0  2  0  0  0  0  0  0
  193.2980  173.5820  136.2970 C   0  0  0  0  0  2  0  0  0  0  0  0
  194.7530  173.3890  135.8650 C   0  0  2  0  0  3  0  0  0  0  0  0
  192.7720  177.1600  135.4370 C   0  0  0  0  0  1  0  0  0  0  0  0
  193.4350  175.9390  136.0390 C   0  0  1  0  0  3  0  0  0  0  0  0
  195.9670  173.3440  141.1370 O   0  0  0  0  0  0  0  0  0  0  0  0
  195.9110  172.4140  142.1740 C   0  0  0  0  0  0  0  0  0  0  0  0
  194.8170  171.6050  142.8190 C   0  0  2  0  0  3  0  0  0  0  0  0
  196.8250  171.9110  143.0220 N   0  0  0  0  0  0  0  0  0  0  0  0
  195.8170  171.0970  143.6710 C   0  0  1  0  0  3  0  0  0  0  0  0
  196.6010  172.3400  145.8380 C   0  0  0  0  0  1  0  0  0  0  0  0
  195.5770  171.5400  145.0940 C   0  0  0  0  0  0  0  0  0  0  0  0
  194.5830  171.0580  145.7420 N   0  0  0  0  0  2  0  0  0  0  0  0
  194.3270  170.5220  141.8660 C   0  0  0  0  0  2  0  0  0  0  0  0
  193.2530  169.6630  142.5190 C   0  0  0  0  0  2  0  0  0  0  0  0
  192.2020  170.5370  143.1750 C   0  0  0  0  0  1  0  0  0  0  0  0
  188.1400  175.1140  141.4120 O   0  0  0  0  0  0  0  0  0  0  0  0
  187.5330  176.3730  141.4140 C   0  0  0  0  0  0  0  0  0  0  0  0
  186.8720  177.0220  140.0580 S   0  0  0  0  0  0  0  0  0  0  0  0
  187.4140  177.1130  142.7040 C   0  0  2  0  0  3  0  0  0  0  0  0
  189.3600  177.4710  143.9410 N   0  0  0  0  0  0  0  0  0  0  0  0
  188.4570  176.6860  143.6010 N   0  0  0  0  0  0  0  0  0  0  0  0
  190.4190  177.0140  144.7980 C   0  0  0  0  0  2  0  0  0  0  0  0
  190.3680  175.4990  144.9230 C   0  0  1  0  0  3  0  0  0  0  0  0
  192.7800  175.0650  145.1810 N   0  0  0  0  0  0  0  0  0  0  0  0
  192.0410  173.7810  145.0050 C   0  0  0  0  0  2  0  0  0  0  0  0
  191.6040  174.8720  144.2820 C   0  0  1  0  0  3  0  0  0  0  0  0
  193.8030  175.8700  145.7610 C   0  0  0  0  0  0  0  0  0  0  0  0
  193.5250  176.6610  146.7850 C   0  0  0  0  0  2  0  0  0  0  0  0
  195.2000  175.7930  145.2440 C   0  0  0  0  0  2  0  0  0  0  0  0
  195.2320  175.4180  143.7670 C   0  0  0  0  0  2  0  0  0  0  0  0
  195.9930  176.4230  142.9700 C   0  0  0  0  0  0  0  0  0  0  0  0
  197.0110  176.9830  143.4560 O   0  0  0  0  0  1  0  0  0  0  0  0
  195.5610  176.7530  141.6920 O   0  0  0  0  0  0  0  0  0  0  0  0
  188.9010  174.9440  146.7530 O   0  0  0  0  0  1  0  0  0  0  0  0
  190.2410  175.0940  146.3880 C   0  0  0  0  0  2  0  0  0  0  0  0
  186.1440  176.8240  143.2770 O   0  0  0  0  0  0  0  0  0  0  0  0
  184.1510  177.9330  142.5890 C   0  0  0  0  0  2  0  0  0  0  0  0
  185.1380  177.7750  143.4670 C   0  0  0  0  0  0  0  0  0  0  0  0
  185.6140  180.2800  144.3920 O   0  0  0  0  0  0  0  0  0  0  0  0
  186.4630  178.3310  145.9110 O   0  0  0  0  0  1  0  0  0  0  0  0
  183.7800  178.9310  145.6720 O   0  0  0  0  0  1  0  0  0  0  0  0
  185.2640  178.8880  144.8590 P   0  0  0  0  0  0  0  0  0  0  0  0
  2  8  1  0  0  0  0
  3  6  1  0  0  0  0
  3  4  1  0  0  0  0
  4  9  1  0  0  0  0
  4  1  1  0  0  0  0
  5  1  1  0  0  0  0
  5 37  1  0  0  0  0
  7  3  1  0  0  0  0
  7  2  1  0  0  0  0
  8  5  1  0  0  0  0
  8  1  1  0  0  0  0
  9 10  1  0  0  0  0
 11 12  2  0  0  0  0
 12 13  1  0  0  0  0
 12 10  1  0  0  0  0
 13 26  1  0  0  0  0
 15 14  2  0  0  0  0
 15 13  1  0  0  0  0
 16 17  1  0  0  0  0
 16 15  1  0  0  0  0
 18 16  1  0  0  0  0
 19 25  1  0  0  0  0
 19 22  1  0  0  0  0
 20 25  1  0  0  0  0
 20 21  1  0  0  0  0
 23 21  1  0  0  0  0
 23 22  1  0  0  0  0
 23 18  1  0  0  0  0
 24 25  1  0  0  0  0
 26 27  1  0  0  0  0
 27 28  1  0  0  0  0
 27 29  2  0  0  0  0
 28 30  1  0  0  0  0
 29 30  1  0  0  0  0
 30 32  1  0  0  0  0
 32 33  2  0  0  0  0
 32 31  1  0  0  0  0
 34 35  1  0  0  0  0
 34 28  1  0  0  0  0
 35 36  1  0  0  0  0
 37 38  1  0  0  0  0
 38 40  1  0  0  0  0
 39 38  2  0  0  0  0
 40 57  1  0  0  0  0
 40 42  1  0  0  0  0
 41 43  1  0  0  0  0
 42 41  2  0  0  0  0
 43 44  1  0  0  0  0
 44 56  1  0  0  0  0
 45 48  1  0  0  0  0
 46 45  1  0  0  0  0
 47 44  1  0  0  0  0
 47 46  1  0  0  0  0
 47 45  1  0  0  0  0
 48 49  2  0  0  0  0
 50 48  1  0  0  0  0
 51 50  1  0  0  0  0
 52 53  1  0  0  0  0
 52 51  1  0  0  0  0
 54 52  2  0  0  0  0
 56 55  1  0  0  0  0
 57 59  1  0  0  0  0
 58 59  2  0  0  0  0
 59 63  1  0  0  0  0
 60 63  2  0  0  0  0
 63 62  1  0  0  0  0
 63 61  1  0  0  0  0
M  END
>  <MODEL>
2

>  <REMARK>
 VINA RESULT:      -5.3      1.800      2.585
  Name = 
  26 active torsions:
  status: ('A' for Active; 'I' for Inactive)
    1  A    between atoms: C_1  and  C_6
    2  A    between atoms: C_1  and  C_18
    3  A    between atoms: C_2  and  O_52
    4  A    between atoms: C_4  and  N_22
    5  A    between atoms: C_4  and  O_42
    6  A    between atoms: C_4  and  C_45
    7  A    between atoms: C_7  and  O_56
    8  A    between atoms: C_7  and  C_62
    9  A    between atoms: C_8  and  C_19
   10  A    between atoms: C_8  and  C_34
   11  A    between atoms: N_11  and  C_13
   12  A    between atoms: O_12  and  C_36
   13  A    between atoms: O_12  and  C_45
   14  A    between atoms: C_13  and  C_47
   15  A    between atoms: O_15  and  C_16
   16  A    between atoms: O_15  and  C_48
   17  A    between atoms: C_18  and  C_24
   18  A    between atoms: N_20  and  C_24
   19  A    between atoms: C_26  and  C_48
   20  A    between atoms: N_28  and  O_52
   21  A    between atoms: C_33  and  C_47
   22  A    between atoms: C_35  and  C_40
   23  A    between atoms: C_38  and  O_56
   24  A    between atoms: O_42  and  C_58
   25  A    between atoms: C_47  and  C_53
   26  A    between atoms: C_58  and  P_60
                            x       y       z     vdW  Elec       q    Type
                         _______ _______ _______ _____ _____    ______ ____

>  <TORSDO>
F 26

$$$$
=
 OpenBabel11072409373D

 63 67  0  0  1  0  0  0  0  0999 V2000
  190.5300  173.3010  141.6870 C   0  0  1  0  0  3  0  0  0  0  0  0
  188.3430  172.3390  140.7990 O   0  0  0  0  0  0  0  0  0  0  0  0
  188.2740  174.4920  141.8980 C   0  0  1  0  0  3  0  0  0  0  0  0
  189.6940  174.3570  142.4150 C   0  0  2  0  0  3  0  0  0  0  0  0
  190.2620  171.9450  142.3380 C   0  0  1  0  0  3  0  0  0  0  0  0
  188.1900  175.1950  140.5490 C   0  0  0  0  0  1  0  0  0  0  0  0
  187.7100  173.0890  141.8150 C   0  0  0  0  0  2  0  0  0  0  0  0
  189.7630  172.2020  140.9270 C   0  0  2  0  0  3  0  0  0  0  0  0
  190.4190  175.6920  142.5530 C   0  0  0  0  0  2  0  0  0  0  0  0
  189.7330  176.5670  143.4400 O   0  0  0  0  0  0  0  0  0  0  0  0
  191.1110  177.9520  144.6410 O   0  0  0  0  0  0  0  0  0  0  0  0
  190.3080  176.9820  144.6400 C   0  0  0  0  0  0  0  0  0  0  0  0
  189.9760  176.3320  145.8710 N   0  0  0  0  0  0  0  0  0  0  0  0
  190.7260  175.1920  147.7630 O   0  0  0  0  0  0  0  0  0  0  0  0
  190.9560  175.5580  146.5800 C   0  0  0  0  0  0  0  0  0  0  0  0
  192.2230  175.1280  145.9040 C   0  0  2  0  0  3  0  0  0  0  0  0
  191.9980  173.8260  145.1630 C   0  0  0  0  0  1  0  0  0  0  0  0
  193.2520  174.9660  146.8380 O   0  0  0  0  0  0  0  0  0  0  0  0
  196.4730  174.8040  145.0830 N   0  0  0  0  0  2  0  0  0  0  0  0
  195.2370  176.7380  144.2300 C   0  0  0  0  0  2  0  0  0  0  0  0
  193.9970  176.3090  145.0070 C   0  0  0  0  0  2  0  0  0  0  0  0
  195.2790  174.2980  145.7590 C   0  0  0  0  0  2  0  0  0  0  0  0
  194.3990  175.4640  146.2150 C   0  0  2  0  0  3  0  0  0  0  0  0
  197.2890  175.9300  143.0920 C   0  0  0  0  0  1  0  0  0  0  0  0
  196.0620  175.5060  143.8680 C   0  0  1  0  0  3  0  0  0  0  0  0
  188.7680  176.6320  146.4600 O   0  0  0  0  0  0  0  0  0  0  0  0
  187.7150  177.1770  145.7270 C   0  0  0  0  0  0  0  0  0  0  0  0
  186.3460  176.7010  145.3180 C   0  0  2  0  0  3  0  0  0  0  0  0
  187.5410  178.3370  145.0710 N   0  0  0  0  0  0  0  0  0  0  0  0
  186.2090  177.9400  144.6610 C   0  0  1  0  0  3  0  0  0  0  0  0
  186.3650  178.8770  142.2220 C   0  0  0  0  0  1  0  0  0  0  0  0
  186.1240  177.7420  143.1670 C   0  0  0  0  0  0  0  0  0  0  0  0
  185.6430  176.6480  142.7060 N   0  0  0  0  0  2  0  0  0  0  0  0
  185.4240  176.6360  146.5300 C   0  0  0  0  0  2  0  0  0  0  0  0
  184.4640  177.8180  146.5510 C   0  0  0  0  0  2  0  0  0  0  0  0
  184.8500  178.7940  147.6450 C   0  0  0  0  0  1  0  0  0  0  0  0
  191.4460  171.1650  142.2740 O   0  0  0  0  0  0  0  0  0  0  0  0
  191.8530  170.4790  141.1260 C   0  0  0  0  0  0  0  0  0  0  0  0
  191.1050  169.1080  140.6210 S   0  0  0  0  0  0  0  0  0  0  0  0
  192.9490  171.0550  140.2930 C   0  0  2  0  0  3  0  0  0  0  0  0
  192.0350  171.7280  138.2540 N   0  0  0  0  0  0  0  0  0  0  0  0
  192.6470  170.8580  138.8980 N   0  0  0  0  0  0  0  0  0  0  0  0
  191.6990  171.4930  136.8770 C   0  0  0  0  0  2  0  0  0  0  0  0
  191.3020  172.8010  136.2090 C   0  0  1  0  0  3  0  0  0  0  0  0
  193.5850  173.6050  135.7460 N   0  0  0  0  0  0  0  0  0  0  0  0
  193.3640  172.2790  135.0980 C   0  0  0  0  0  2  0  0  0  0  0  0
  192.3050  173.1640  135.1160 C   0  0  1  0  0  3  0  0  0  0  0  0
  194.3830  174.5580  136.4420 C   0  0  0  0  0  0  0  0  0  0  0  0
  195.5830  174.8790  135.9850 C   0  0  0  0  0  2  0  0  0  0  0  0
  193.8510  175.2300  137.6630 C   0  0  0  0  0  2  0  0  0  0  0  0
  194.2290  174.4730  138.9300 C   0  0  0  0  0  2  0  0  0  0  0  0
  195.1840  175.2560  139.7650 C   0  0  0  0  0  0  0  0  0  0  0  0
  196.4220  175.0420  139.6860 O   0  0  0  0  0  0  0  0  0  0  0  0
  194.6980  176.2130  140.6460 O   0  0  0  0  0  1  0  0  0  0  0  0
  189.3140  171.4620  135.9520 O   0  0  0  0  0  1  0  0  0  0  0  0
  189.8880  172.6990  135.6470 C   0  0  0  0  0  2  0  0  0  0  0  0
  194.1630  170.3880  140.6160 O   0  0  0  0  0  0  0  0  0  0  0  0
  196.1990  171.4630  140.0000 C   0  0  0  0  0  2  0  0  0  0  0  0
  195.3540  171.0460  140.9400 C   0  0  0  0  0  0  0  0  0  0  0  0
  194.6250  171.6860  143.4730 O   0  0  0  0  0  1  0  0  0  0  0  0
  197.0730  172.3100  142.8060 O   0  0  0  0  0  0  0  0  0  0  0  0
  196.3010  169.6970  143.2470 O   0  0  0  0  0  1  0  0  0  0  0  0
  195.8030  171.2050  142.6610 P   0  0  0  0  0  0  0  0  0  0  0  0
  1  5  1  0  0  0  0
  1  4  1  0  0  0  0
  2  8  1  0  0  0  0
  2  7  1  0  0  0  0
  3  4  1  0  0  0  0
  4  9  1  0  0  0  0
  6  3  1  0  0  0  0
  7  3  1  0  0  0  0
  8  1  1  0  0  0  0
  8  5  1  0  0  0  0
  9 10  1  0  0  0  0
 10 12  1  0  0  0  0
 12 11  2  0  0  0  0
 12 13  1  0  0  0  0
 13 26  1  0  0  0  0
 13 15  1  0  0  0  0
 15 14  2  0  0  0  0
 16 15  1  0  0  0  0
 16 18  1  0  0  0  0
 17 16  1  0  0  0  0
 19 22  1  0  0  0  0
 20 21  1  0  0  0  0
 21 23  1  0  0  0  0
 22 23  1  0  0  0  0
 23 18  1  0  0  0  0
 24 25  1  0  0  0  0
 25 20  1  0  0  0  0
 25 19  1  0  0  0  0
 27 26  1  0  0  0  0
 28 27  1  0  0  0  0
 28 34  1  0  0  0  0
 29 27  2  0  0  0  0
 30 29  1  0  0  0  0
 30 28  1  0  0  0  0
 31 32  1  0  0  0  0
 32 30  1  0  0  0  0
 33 32  2  0  0  0  0
 34 35  1  0  0  0  0
 35 36  1  0  0  0  0
 37  5  1  0  0  0  0
 38 37  1  0  0  0  0
 39 38  2  0  0  0  0
 40 57  1  0  0  0  0
 40 38  1  0  0  0  0
 41 42  2  0  0  0  0
 42 40  1  0  0  0  0
 43 41  1  0  0  0  0
 44 43  1  0  0  0  0
 45 48  1  0  0  0  0
 46 47  1  0  0  0  0
 46 45  1  0  0  0  0
 47 45  1  0  0  0  0
 47 44  1  0  0  0  0
 48 50  1  0  0  0  0
 49 48  2  0  0  0  0
 50 51  1  0  0  0  0
 51 52  1  0  0  0  0
 52 54  1  0  0  0  0
 53 52  2  0  0  0  0
 56 55  1  0  0  0  0
 56 44  1  0  0  0  0
 57 59  1  0  0  0  0
 58 59  2  0  0  0  0
 59 63  1  0  0  0  0
 63 61  2  0  0  0  0
 63 62  1  0  0  0  0
 63 60  1  0  0  0  0
M  END
>  <MODEL>
3

>  <REMARK>
 VINA RESULT:      -4.8      3.058      9.360
  Name = 
  26 active torsions:
  status: ('A' for Active; 'I' for Inactive)
    1  A    between atoms: C_1  and  C_6
    2  A    between atoms: C_1  and  C_18
    3  A    between atoms: C_2  and  O_52
    4  A    between atoms: C_4  and  N_22
    5  A    between atoms: C_4  and  O_42
    6  A    between atoms: C_4  and  C_45
    7  A    between atoms: C_7  and  O_56
    8  A    between atoms: C_7  and  C_62
    9  A    between atoms: C_8  and  C_19
   10  A    between atoms: C_8  and  C_34
   11  A    between atoms: N_11  and  C_13
   12  A    between atoms: O_12  and  C_36
   13  A    between atoms: O_12  and  C_45
   14  A    between atoms: C_13  and  C_47
   15  A    between atoms: O_15  and  C_16
   16  A    between atoms: O_15  and  C_48
   17  A    between atoms: C_18  and  C_24
   18  A    between atoms: N_20  and  C_24
   19  A    between atoms: C_26  and  C_48
   20  A    between atoms: N_28  and  O_52
   21  A    between atoms: C_33  and  C_47
   22  A    between atoms: C_35  and  C_40
   23  A    between atoms: C_38  and  O_56
   24  A    between atoms: O_42  and  C_58
   25  A    between atoms: C_47  and  C_53
   26  A    between atoms: C_58  and  P_60
                            x       y       z     vdW  Elec       q    Type
                         _______ _______ _______ _____ _____    ______ ____

>  <TORSDO>
F 26

$$$$
=
 OpenBabel11072409373D

 63 67  0  0  1  0  0  0  0  0999 V2000
  193.5050  174.0880  144.1870 C   0  0  1  0  0  3  0  0  0  0  0  0
  194.8650  175.7460  145.5650 O   0  0  0  0  0  0  0  0  0  0  0  0
  196.0640  174.0900  144.2740 C   0  0  1  0  0  3  0  0  0  0  0  0
  194.8020  173.3020  143.9740 C   0  0  2  0  0  3  0  0  0  0  0  0
  193.1150  173.9760  145.6600 C   0  0  1  0  0  3  0  0  0  0  0  0
  196.3900  175.1310  143.2110 C   0  0  0  0  0  1  0  0  0  0  0  0
  195.8550  174.7400  145.6260 C   0  0  0  0  0  2  0  0  0  0  0  0
  193.5750  175.3170  145.1150 C   0  0  2  0  0  3  0  0  0  0  0  0
  194.8420  172.5820  142.6300 C   0  0  0  0  0  2  0  0  0  0  0  0
  193.9970  173.2140  141.6760 O   0  0  0  0  0  0  0  0  0  0  0  0
  193.0450  172.7730  139.6370 O   0  0  0  0  0  0  0  0  0  0  0  0
  194.0940  172.9260  140.3150 C   0  0  0  0  0  0  0  0  0  0  0  0
  195.3730  172.8270  139.6800 N   0  0  0  0  0  0  0  0  0  0  0  0
  196.8540  171.5370  138.4210 O   0  0  0  0  0  0  0  0  0  0  0  0
  195.8470  171.5680  139.1780 C   0  0  0  0  0  0  0  0  0  0  0  0
  195.1940  170.2850  139.5940 C   0  0  2  0  0  3  0  0  0  0  0  0
  195.8950  169.7200  140.8140 C   0  0  0  0  0  1  0  0  0  0  0  0
  195.2310  169.3500  138.5540 O   0  0  0  0  0  0  0  0  0  0  0  0
  191.5850  169.1560  138.9440 N   0  0  0  0  0  2  0  0  0  0  0  0
  192.0650  170.2520  136.8080 C   0  0  0  0  0  2  0  0  0  0  0  0
  193.5500  170.3100  137.1520 C   0  0  0  0  0  2  0  0  0  0  0  0
  192.9810  169.2860  139.3610 C   0  0  0  0  0  2  0  0  0  0  0  0
  193.9040  169.2020  138.1430 C   0  0  2  0  0  3  0  0  0  0  0  0
  189.7700  170.2420  137.7510 C   0  0  0  0  0  1  0  0  0  0  0  0
  191.2430  170.2940  138.0920 C   0  0  1  0  0  3  0  0  0  0  0  0
  196.0430  173.9930  139.3810 O   0  0  0  0  0  0  0  0  0  0  0  0
  195.9160  174.6080  138.1360 C   0  0  0  0  0  0  0  0  0  0  0  0
  194.8640  174.6190  137.0580 C   0  0  2  0  0  3  0  0  0  0  0  0
  196.7160  175.4050  137.4070 N   0  0  0  0  0  0  0  0  0  0  0  0
  195.7330  175.4660  136.3440 C   0  0  1  0  0  3  0  0  0  0  0  0
  195.6200  173.5010  134.6180 C   0  0  0  0  0  1  0  0  0  0  0  0
  196.2280  174.7850  135.0910 C   0  0  0  0  0  0  0  0  0  0  0  0
  197.3080  175.1940  134.5380 N   0  0  0  0  0  2  0  0  0  0  0  0
  193.6350  175.3880  137.5260 C   0  0  0  0  0  2  0  0  0  0  0  0
  192.5660  175.4240  136.4420 C   0  0  0  0  0  2  0  0  0  0  0  0
  192.0920  174.0200  136.1210 C   0  0  0  0  0  1  0  0  0  0  0  0
  191.6980  173.9810  145.7580 O   0  0  0  0  0  0  0  0  0  0  0  0
  190.9740  175.0050  146.3750 C   0  0  0  0  0  0  0  0  0  0  0  0
  191.3380  175.5410  147.8830 S   0  0  0  0  0  0  0  0  0  0  0  0
  189.8890  175.6840  145.6070 C   0  0  2  0  0  3  0  0  0  0  0  0
  187.7060  176.1600  146.2800 N   0  0  0  0  0  0  0  0  0  0  0  0
  188.9230  176.2340  146.5240 N   0  0  0  0  0  0  0  0  0  0  0  0
  186.7590  176.7570  147.1810 C   0  0  0  0  0  2  0  0  0  0  0  0
  186.6470  178.2490  146.9040 C   0  0  1  0  0  3  0  0  0  0  0  0
  184.9770  177.9050  145.1240 N   0  0  0  0  0  0  0  0  0  0  0  0
  184.4200  177.4840  146.4430 C   0  0  0  0  0  2  0  0  0  0  0  0
  185.2400  178.5940  146.4220 C   0  0  1  0  0  3  0  0  0  0  0  0
  185.1490  177.7630  143.7170 C   0  0  0  0  0  0  0  0  0  0  0  0
  185.8810  176.7730  143.2340 C   0  0  0  0  0  2  0  0  0  0  0  0
  184.4680  178.7050  142.7820 C   0  0  0  0  0  2  0  0  0  0  0  0
  184.1770  178.0490  141.4380 C   0  0  0  0  0  2  0  0  0  0  0  0
  182.7270  178.1280  141.0990 C   0  0  0  0  0  0  0  0  0  0  0  0
  181.8970  178.5490  141.9480 O   0  0  0  0  0  1  0  0  0  0  0  0
  182.2920  177.7150  139.8460 O   0  0  0  0  0  0  0  0  0  0  0  0
  186.1990  180.1740  148.2830 O   0  0  0  0  0  1  0  0  0  0  0  0
  187.0150  179.0480  148.1500 C   0  0  0  0  0  2  0  0  0  0  0  0
  189.2570  174.7230  144.7690 O   0  0  0  0  0  0  0  0  0  0  0  0
  189.6190  175.8110  142.6810 C   0  0  0  0  0  2  0  0  0  0  0  0
  189.3740  174.7040  143.3770 C   0  0  0  0  0  0  0  0  0  0  0  0
  187.6240  173.1330  142.0240 O   0  0  0  0  0  1  0  0  0  0  0  0
  189.3250  171.8750  143.5570 O   0  0  0  0  0  1  0  0  0  0  0  0
  190.0950  173.0570  141.1850 O   0  0  0  0  0  0  0  0  0  0  0  0
  189.0520  173.1740  142.5120 P   0  0  0  0  0  0  0  0  0  0  0  0
  1  8  1  0  0  0  0
  1  5  1  0  0  0  0
  2  7  1  0  0  0  0
  3  7  1  0  0  0  0
  4  1  1  0  0  0  0
  4  3  1  0  0  0  0
  5 37  1  0  0  0  0
  6  3  1  0  0  0  0
  8  2  1  0  0  0  0
  8  5  1  0  0  0  0
  9  4  1  0  0  0  0
 10  9  1  0  0  0  0
 11 12  2  0  0  0  0
 12 10  1  0  0  0  0
 13 12  1  0  0  0  0
 14 15  2  0  0  0  0
 15 16  1  0  0  0  0
 15 13  1  0  0  0  0
 16 17  1  0  0  0  0
 18 16  1  0  0  0  0
 19 22  1  0  0  0  0
 20 21  1  0  0  0  0
 20 25  1  0  0  0  0
 21 23  1  0  0  0  0
 23 18  1  0  0  0  0
 23 22  1  0  0  0  0
 24 25  1  0  0  0  0
 25 19  1  0  0  0  0
 26 13  1  0  0  0  0
 27 26  1  0  0  0  0
 28 34  1  0  0  0  0
 28 27  1  0  0  0  0
 29 27  2  0  0  0  0
 30 28  1  0  0  0  0
 30 29  1  0  0  0  0
 31 32  1  0  0  0  0
 32 30  1  0  0  0  0
 33 32  2  0  0  0  0
 35 34  1  0  0  0  0
 36 35  1  0  0  0  0
 37 38  1  0  0  0  0
 38 39  2  0  0  0  0
 40 38  1  0  0  0  0
 40 42  1  0  0  0  0
 41 42  2  0  0  0  0
 41 43  1  0  0  0  0
 44 43  1  0  0  0  0
 44 56  1  0  0  0  0
 45 47  1  0  0  0  0
 45 46  1  0  0  0  0
 47 46  1  0  0  0  0
 47 44  1  0  0  0  0
 48 45  1  0  0  0  0
 49 48  2  0  0  0  0
 50 48  1  0  0  0  0
 51 50  1  0  0  0  0
 52 51  1  0  0  0  0
 52 53  1  0  0  0  0
 54 52  2  0  0  0  0
 56 55  1  0  0  0  0
 57 40  1  0  0  0  0
 58 59  2  0  0  0  0
 59 57  1  0  0  0  0
 60 63  1  0  0  0  0
 62 63  2  0  0  0  0
 63 59  1  0  0  0  0
 63 61  1  0  0  0  0
M  END
>  <MODEL>
4

>  <REMARK>
 VINA RESULT:      -4.7      2.698      6.688
  Name = 
  26 active torsions:
  status: ('A' for Active; 'I' for Inactive)
    1  A    between atoms: C_1  and  C_6
    2  A    between atoms: C_1  and  C_18
    3  A    between atoms: C_2  and  O_52
    4  A    between atoms: C_4  and  N_22
    5  A    between atoms: C_4  and  O_42
    6  A    between atoms: C_4  and  C_45
    7  A    between atoms: C_7  and  O_56
    8  A    between atoms: C_7  and  C_62
    9  A    between atoms: C_8  and  C_19
   10  A    between atoms: C_8  and  C_34
   11  A    between atoms: N_11  and  C_13
   12  A    between atoms: O_12  and  C_36
   13  A    between atoms: O_12  and  C_45
   14  A    between atoms: C_13  and  C_47
   15  A    between atoms: O_15  and  C_16
   16  A    between atoms: O_15  and  C_48
   17  A    between atoms: C_18  and  C_24
   18  A    between atoms: N_20  and  C_24
   19  A    between atoms: C_26  and  C_48
   20  A    between atoms: N_28  and  O_52
   21  A    between atoms: C_33  and  C_47
   22  A    between atoms: C_35  and  C_40
   23  A    between atoms: C_38  and  O_56
   24  A    between atoms: O_42  and  C_58
   25  A    between atoms: C_47  and  C_53
   26  A    between atoms: C_58  and  P_60
                            x       y       z     vdW  Elec       q    Type
                         _______ _______ _______ _____ _____    ______ ____

>  <TORSDO>
F 26

$$$$
=
 OpenBabel11072409373D

 63 67  0  0  1  0  0  0  0  0999 V2000
  190.5480  173.0650  142.1450 C   0  0  1  0  0  3  0  0  0  0  0  0
  188.4090  171.9830  141.2790 O   0  0  0  0  0  0  0  0  0  0  0  0
  188.3790  174.3590  141.7230 C   0  0  1  0  0  3  0  0  0  0  0  0
  189.7170  174.3180  142.4380 C   0  0  2  0  0  3  0  0  0  0  0  0
  190.1050  171.9620  143.1040 C   0  0  1  0  0  3  0  0  0  0  0  0
  188.5030  174.6550  140.2340 C   0  0  0  0  0  1  0  0  0  0  0  0
  187.7230  173.0140  141.9570 C   0  0  0  0  0  2  0  0  0  0  0  0
  189.7900  171.8280  141.6240 C   0  0  2  0  0  3  0  0  0  0  0  0
  190.5210  175.6060  142.2960 C   0  0  0  0  0  2  0  0  0  0  0  0
  189.8860  176.6910  142.9620 O   0  0  0  0  0  0  0  0  0  0  0  0
  191.2040  178.2830  143.9570 O   0  0  0  0  0  0  0  0  0  0  0  0
  190.4520  177.2820  144.0910 C   0  0  0  0  0  0  0  0  0  0  0  0
  190.1680  176.7760  145.3990 N   0  0  0  0  0  0  0  0  0  0  0  0
  190.9950  175.9220  147.4060 O   0  0  0  0  0  0  0  0  0  0  0  0
  191.1930  176.1470  146.1820 C   0  0  0  0  0  0  0  0  0  0  0  0
  192.4740  175.6990  145.5440 C   0  0  2  0  0  3  0  0  0  0  0  0
  192.8190  174.2980  146.0070 C   0  0  0  0  0  1  0  0  0  0  0  0
  193.5190  176.5720  145.8650 O   0  0  0  0  0  0  0  0  0  0  0  0
  196.3710  176.8300  143.5670 N   0  0  0  0  0  2  0  0  0  0  0  0
  194.4310  176.0530  142.2900 C   0  0  0  0  0  2  0  0  0  0  0  0
  193.6280  175.8930  143.5760 C   0  0  0  0  0  2  0  0  0  0  0  0
  195.6750  176.5910  144.8310 C   0  0  0  0  0  2  0  0  0  0  0  0
  194.1720  176.8250  144.6570 C   0  0  2  0  0  3  0  0  0  0  0  0
  196.7110  175.9980  141.3110 C   0  0  0  0  0  1  0  0  0  0  0  0
  195.9140  175.8450  142.5880 C   0  0  1  0  0  3  0  0  0  0  0  0
  188.9510  177.0880  145.9670 O   0  0  0  0  0  0  0  0  0  0  0  0
  187.8570  177.4580  145.1870 C   0  0  0  0  0  0  0  0  0  0  0  0
  186.5800  176.7850  144.7590 C   0  0  2  0  0  3  0  0  0  0  0  0
  187.5450  178.5620  144.4870 N   0  0  0  0  0  0  0  0  0  0  0  0
  186.2940  177.9720  144.0560 C   0  0  1  0  0  3  0  0  0  0  0  0
  187.3650  178.2560  141.6840 C   0  0  0  0  0  1  0  0  0  0  0  0
  186.2840  177.7170  142.5680 C   0  0  0  0  0  0  0  0  0  0  0  0
  185.2390  177.2120  142.0250 N   0  0  0  0  0  2  0  0  0  0  0  0
  185.6380  176.6300  145.9470 C   0  0  0  0  0  2  0  0  0  0  0  0
  186.3180  177.0520  147.2420 C   0  0  0  0  0  2  0  0  0  0  0  0
  185.5720  178.2080  147.8790 C   0  0  0  0  0  1  0  0  0  0  0  0
  191.2260  171.1460  143.4120 O   0  0  0  0  0  0  0  0  0  0  0  0
  191.9170  170.3960  142.4560 C   0  0  0  0  0  0  0  0  0  0  0  0
  191.2630  169.0600  141.7600 S   0  0  0  0  0  0  0  0  0  0  0  0
  193.2550  170.8700  141.9980 C   0  0  2  0  0  3  0  0  0  0  0  0
  194.1730  171.1960  139.8770 N   0  0  0  0  0  0  0  0  0  0  0  0
  193.4450  170.5100  140.6160 N   0  0  0  0  0  0  0  0  0  0  0  0
  194.3120  170.8500  138.4900 C   0  0  0  0  0  2  0  0  0  0  0  0
  193.7840  171.9790  137.6170 C   0  0  1  0  0  3  0  0  0  0  0  0
  195.5340  173.4420  136.6850 N   0  0  0  0  0  0  0  0  0  0  0  0
  196.0390  172.0430  136.7990 C   0  0  0  0  0  2  0  0  0  0  0  0
  194.7190  172.2160  136.4340 C   0  0  1  0  0  3  0  0  0  0  0  0
  195.6880  174.8560  136.7630 C   0  0  0  0  0  0  0  0  0  0  0  0
  196.7220  175.3770  137.4040 C   0  0  0  0  0  2  0  0  0  0  0  0
  194.7070  175.7550  136.0860 C   0  0  0  0  0  2  0  0  0  0  0  0
  193.3390  175.6950  136.7530 C   0  0  0  0  0  2  0  0  0  0  0  0
  192.3230  175.0840  135.8490 C   0  0  0  0  0  0  0  0  0  0  0  0
  192.6080  174.8320  134.6490 O   0  0  0  0  0  0  0  0  0  0  0  0
  191.0500  174.8120  136.3340 O   0  0  0  0  0  1  0  0  0  0  0  0
  192.3630  170.5920  136.2510 O   0  0  0  0  0  1  0  0  0  0  0  0
  192.3680  171.6650  137.1460 C   0  0  0  0  0  2  0  0  0  0  0  0
  194.2550  170.2450  142.7940 O   0  0  0  0  0  0  0  0  0  0  0  0
  194.3440  170.7680  145.1180 C   0  0  0  0  0  2  0  0  0  0  0  0
  194.8660  170.8500  143.8970 C   0  0  0  0  0  0  0  0  0  0  0  0
  196.2780  172.4710  142.2420 O   0  0  0  0  0  0  0  0  0  0  0  0
  197.6980  170.9130  143.7860 O   0  0  0  0  0  1  0  0  0  0  0  0
  196.3440  173.1050  144.7740 O   0  0  0  0  0  1  0  0  0  0  0  0
  196.3120  171.8640  143.6240 P   0  0  0  0  0  0  0  0  0  0  0  0
  1  4  1  0  0  0  0
  1  5  1  0  0  0  0
  2  8  1  0  0  0  0
  2  7  1  0  0  0  0
  3  7  1  0  0  0  0
  3  4  1  0  0  0  0
  5 37  1  0  0  0  0
  6  3  1  0  0  0  0
  8  1  1  0  0  0  0
  8  5  1  0  0  0  0
  9  4  1  0  0  0  0
  9 10  1  0  0  0  0
 10 12  1  0  0  0  0
 11 12  2  0  0  0  0
 12 13  1  0  0  0  0
 13 26  1  0  0  0  0
 13 15  1  0  0  0  0
 15 14  2  0  0  0  0
 16 18  1  0  0  0  0
 16 17  1  0  0  0  0
 16 15  1  0  0  0  0
 19 22  1  0  0  0  0
 20 25  1  0  0  0  0
 20 21  1  0  0  0  0
 21 23  1  0  0  0  0
 23 22  1  0  0  0  0
 23 18  1  0  0  0  0
 24 25  1  0  0  0  0
 25 19  1  0  0  0  0
 27 26  1  0  0  0  0
 28 27  1  0  0  0  0
 28 34  1  0  0  0  0
 29 27  2  0  0  0  0
 30 29  1  0  0  0  0
 30 28  1  0  0  0  0
 31 32  1  0  0  0  0
 32 30  1  0  0  0  0
 33 32  2  0  0  0  0
 34 35  1  0  0  0  0
 35 36  1  0  0  0  0
 38 37  1  0  0  0  0
 39 38  2  0  0  0  0
 40 38  1  0  0  0  0
 40 57  1  0  0  0  0
 41 42  2  0  0  0  0
 42 40  1  0  0  0  0
 43 41  1  0  0  0  0
 44 43  1  0  0  0  0
 45 48  1  0  0  0  0
 45 46  1  0  0  0  0
 47 45  1  0  0  0  0
 47 46  1  0  0  0  0
 47 44  1  0  0  0  0
 48 49  2  0  0  0  0
 50 51  1  0  0  0  0
 50 48  1  0  0  0  0
 52 54  1  0  0  0  0
 52 51  1  0  0  0  0
 53 52  2  0  0  0  0
 55 56  1  0  0  0  0
 56 44  1  0  0  0  0
 57 59  1  0  0  0  0
 59 58  2  0  0  0  0
 60 63  2  0  0  0  0
 63 61  1  0  0  0  0
 63 59  1  0  0  0  0
 63 62  1  0  0  0  0
M  END
>  <MODEL>
5

>  <REMARK>
 VINA RESULT:      -4.5      3.100      9.125
  Name = 
  26 active torsions:
  status: ('A' for Active; 'I' for Inactive)
    1  A    between atoms: C_1  and  C_6
    2  A    between atoms: C_1  and  C_18
    3  A    between atoms: C_2  and  O_52
    4  A    between atoms: C_4  and  N_22
    5  A    between atoms: C_4  and  O_42
    6  A    between atoms: C_4  and  C_45
    7  A    between atoms: C_7  and  O_56
    8  A    between atoms: C_7  and  C_62
    9  A    between atoms: C_8  and  C_19
   10  A    between atoms: C_8  and  C_34
   11  A    between atoms: N_11  and  C_13
   12  A    between atoms: O_12  and  C_36
   13  A    between atoms: O_12  and  C_45
   14  A    between atoms: C_13  and  C_47
   15  A    between atoms: O_15  and  C_16
   16  A    between atoms: O_15  and  C_48
   17  A    between atoms: C_18  and  C_24
   18  A    between atoms: N_20  and  C_24
   19  A    between atoms: C_26  and  C_48
   20  A    between atoms: N_28  and  O_52
   21  A    between atoms: C_33  and  C_47
   22  A    between atoms: C_35  and  C_40
   23  A    between atoms: C_38  and  O_56
   24  A    between atoms: O_42  and  C_58
   25  A    between atoms: C_47  and  C_53
   26  A    between atoms: C_58  and  P_60
                            x       y       z     vdW  Elec       q    Type
                         _______ _______ _______ _____ _____    ______ ____

>  <TORSDO>
F 26

$$$$
=
 OpenBabel11072409373D

 63 67  0  0  1  0  0  0  0  0999 V2000
  190.3300  171.4530  140.6190 C   0  0  1  0  0  3  0  0  0  0  0  0
  192.0050  170.7480  142.4060 O   0  0  0  0  0  0  0  0  0  0  0  0
  190.4810  172.5500  142.9280 C   0  0  1  0  0  3  0  0  0  0  0  0
  190.0170  172.6750  141.4880 C   0  0  2  0  0  3  0  0  0  0  0  0
  191.7510  171.6010  140.0790 C   0  0  1  0  0  3  0  0  0  0  0  0
  189.6210  171.6040  143.7550 C   0  0  0  0  0  1  0  0  0  0  0  0
  191.9180  172.0760  142.8790 C   0  0  0  0  0  2  0  0  0  0  0  0
  191.4560  170.5190  141.1040 C   0  0  2  0  0  3  0  0  0  0  0  0
  188.5710  173.1410  141.3540 C   0  0  0  0  0  2  0  0  0  0  0  0
  188.4950  174.5430  141.1300 O   0  0  0  0  0  0  0  0  0  0  0  0
  187.5310  175.0960  143.1360 O   0  0  0  0  0  0  0  0  0  0  0  0
  188.2750  175.4350  142.1790 C   0  0  0  0  0  0  0  0  0  0  0  0
  188.9030  176.7210  142.1880 N   0  0  0  0  0  0  0  0  0  0  0  0
  188.6520  179.0370  142.2900 O   0  0  0  0  0  0  0  0  0  0  0  0
  188.1260  177.9190  142.0460 C   0  0  0  0  0  0  0  0  0  0  0  0
  186.7120  177.8580  141.5530 C   0  0  2  0  0  3  0  0  0  0  0  0
  186.6900  177.9260  140.0390 C   0  0  0  0  0  1  0  0  0  0  0  0
  185.9560  178.9090  142.0830 O   0  0  0  0  0  0  0  0  0  0  0  0
  185.2110  179.6580  145.5990 N   0  0  0  0  0  2  0  0  0  0  0  0
  185.2070  177.2260  145.3210 C   0  0  0  0  0  2  0  0  0  0  0  0
  185.3240  177.3820  143.8090 C   0  0  0  0  0  2  0  0  0  0  0  0
  185.2160  179.8560  144.1500 C   0  0  0  0  0  2  0  0  0  0  0  0
  185.9790  178.7190  143.4660 C   0  0  2  0  0  3  0  0  0  0  0  0
  184.3530  178.2750  147.4020 C   0  0  0  0  0  1  0  0  0  0  0  0
  184.4750  178.4320  145.9010 C   0  0  1  0  0  3  0  0  0  0  0  0
  190.2340  176.7920  142.5380 O   0  0  0  0  0  0  0  0  0  0  0  0
  190.6470  176.6670  143.8640 C   0  0  0  0  0  0  0  0  0  0  0  0
  191.7870  175.9730  144.5610 C   0  0  2  0  0  3  0  0  0  0  0  0
  190.1500  177.0970  145.0360 N   0  0  0  0  0  0  0  0  0  0  0  0
  191.2340  176.4640  145.7610 C   0  0  1  0  0  3  0  0  0  0  0  0
  189.7270  174.3510  146.1030 C   0  0  0  0  0  1  0  0  0  0  0  0
  190.7380  175.3270  146.6200 C   0  0  0  0  0  0  0  0  0  0  0  0
  191.0260  175.3110  147.8680 N   0  0  0  0  0  2  0  0  0  0  0  0
  193.1030  176.6770  144.2540 C   0  0  0  0  0  2  0  0  0  0  0  0
  194.0730  175.7400  143.5490 C   0  0  0  0  0  2  0  0  0  0  0  0
  193.4790  175.2440  142.2450 C   0  0  0  0  0  1  0  0  0  0  0  0
  191.8130  171.0090  138.7890 O   0  0  0  0  0  0  0  0  0  0  0  0
  192.0100  171.7420  137.6160 C   0  0  0  0  0  0  0  0  0  0  0  0
  191.1590  173.1080  137.2900 S   0  0  0  0  0  0  0  0  0  0  0  0
  193.0820  171.3140  136.6700 C   0  0  2  0  0  3  0  0  0  0  0  0
  193.9410  169.1540  136.8790 N   0  0  0  0  0  0  0  0  0  0  0  0
  193.9140  170.3230  137.3040 N   0  0  0  0  0  0  0  0  0  0  0  0
  194.7390  168.1680  137.5530 C   0  0  0  0  0  2  0  0  0  0  0  0
  195.6570  168.8420  138.5620 C   0  0  1  0  0  3  0  0  0  0  0  0
  195.4770  169.2870  140.9790 N   0  0  0  0  0  0  0  0  0  0  0  0
  194.2660  168.5610  140.4970 C   0  0  0  0  0  2  0  0  0  0  0  0
  195.4810  168.2130  139.9420 C   0  0  1  0  0  3  0  0  0  0  0  0
  196.1350  170.2590  141.7860 C   0  0  0  0  0  0  0  0  0  0  0  0
  197.2140  170.8780  141.3350 C   0  0  0  0  0  2  0  0  0  0  0  0
  195.5850  170.6150  143.1270 C   0  0  0  0  0  2  0  0  0  0  0  0
  195.4880  172.1240  143.3120 C   0  0  0  0  0  2  0  0  0  0  0  0
  195.3520  172.4860  144.7520 C   0  0  0  0  0  0  0  0  0  0  0  0
  194.3660  172.0790  145.4200 O   0  0  0  0  0  1  0  0  0  0  0  0
  196.3130  173.2920  145.3490 O   0  0  0  0  0  0  0  0  0  0  0  0
  197.1800  168.5350  136.7200 O   0  0  0  0  0  1  0  0  0  0  0  0
  197.1070  168.7560  138.0980 C   0  0  0  0  0  2  0  0  0  0  0  0
  193.8690  172.4500  136.3310 O   0  0  0  0  0  0  0  0  0  0  0  0
  196.1810  171.8890  136.4640 C   0  0  0  0  0  2  0  0  0  0  0  0
  195.1630  172.6740  136.8090 C   0  0  0  0  0  0  0  0  0  0  0  0
  196.8080  173.8780  138.5990 O   0  0  0  0  0  1  0  0  0  0  0  0
  194.2780  173.8100  139.2510 O   0  0  0  0  0  1  0  0  0  0  0  0
  195.2290  175.4720  137.2640 O   0  0  0  0  0  0  0  0  0  0  0  0
  195.4190  173.9680  138.0150 P   0  0  0  0  0  0  0  0  0  0  0  0
  1  8  1  0  0  0  0
  1  4  1  0  0  0  0
  2  7  1  0  0  0  0
  3  6  1  0  0  0  0
  4  3  1  0  0  0  0
  5  1  1  0  0  0  0
  5  8  1  0  0  0  0
  7  3  1  0  0  0  0
  8  2  1  0  0  0  0
  9  4  1  0  0  0  0
 10  9  1  0  0  0  0
 10 12  1  0  0  0  0
 12 13  1  0  0  0  0
 12 11  2  0  0  0  0
 13 26  1  0  0  0  0
 15 13  1  0  0  0  0
 15 14  2  0  0  0  0
 16 15  1  0  0  0  0
 16 18  1  0  0  0  0
 17 16  1  0  0  0  0
 18 23  1  0  0  0  0
 19 25  1  0  0  0  0
 20 25  1  0  0  0  0
 21 20  1  0  0  0  0
 22 19  1  0  0  0  0
 23 21  1  0  0  0  0
 23 22  1  0  0  0  0
 25 24  1  0  0  0  0
 26 27  1  0  0  0  0
 27 28  1  0  0  0  0
 27 29  2  0  0  0  0
 28 30  1  0  0  0  0
 29 30  1  0  0  0  0
 30 32  1  0  0  0  0
 31 32  1  0  0  0  0
 32 33  2  0  0  0  0
 34 28  1  0  0  0  0
 35 34  1  0  0  0  0
 36 35  1  0  0  0  0
 37  5  1  0  0  0  0
 38 37  1  0  0  0  0
 39 38  2  0  0  0  0
 40 42  1  0  0  0  0
 40 38  1  0  0  0  0
 41 42  2  0  0  0  0
 41 43  1  0  0  0  0
 43 44  1  0  0  0  0
 44 47  1  0  0  0  0
 45 48  1  0  0  0  0
 46 45  1  0  0  0  0
 47 46  1  0  0  0  0
 47 45  1  0  0  0  0
 48 50  1  0  0  0  0
 49 48  2  0  0  0  0
 50 51  1  0  0  0  0
 51 52  1  0  0  0  0
 52 54  2  0  0  0  0
 52 53  1  0  0  0  0
 55 56  1  0  0  0  0
 56 44  1  0  0  0  0
 57 40  1  0  0  0  0
 57 59  1  0  0  0  0
 58 59  2  0  0  0  0
 59 63  1  0  0  0  0
 62 63  2  0  0  0  0
 63 60  1  0  0  0  0
 63 61  1  0  0  0  0
M  END
>  <MODEL>
6

>  <REMARK>
 VINA RESULT:      -4.2      3.220      9.884
  Name = 
  26 active torsions:
  status: ('A' for Active; 'I' for Inactive)
    1  A    between atoms: C_1  and  C_6
    2  A    between atoms: C_1  and  C_18
    3  A    between atoms: C_2  and  O_52
    4  A    between atoms: C_4  and  N_22
    5  A    between atoms: C_4  and  O_42
    6  A    between atoms: C_4  and  C_45
    7  A    between atoms: C_7  and  O_56
    8  A    between atoms: C_7  and  C_62
    9  A    between atoms: C_8  and  C_19
   10  A    between atoms: C_8  and  C_34
   11  A    between atoms: N_11  and  C_13
   12  A    between atoms: O_12  and  C_36
   13  A    between atoms: O_12  and  C_45
   14  A    between atoms: C_13  and  C_47
   15  A    between atoms: O_15  and  C_16
   16  A    between atoms: O_15  and  C_48
   17  A    between atoms: C_18  and  C_24
   18  A    between atoms: N_20  and  C_24
   19  A    between atoms: C_26  and  C_48
   20  A    between atoms: N_28  and  O_52
   21  A    between atoms: C_33  and  C_47
   22  A    between atoms: C_35  and  C_40
   23  A    between atoms: C_38  and  O_56
   24  A    between atoms: O_42  and  C_58
   25  A    between atoms: C_47  and  C_53
   26  A    between atoms: C_58  and  P_60
                            x       y       z     vdW  Elec       q    Type
                         _______ _______ _______ _____ _____    ______ ____

>  <TORSDO>
F 26

$$$$
=
 OpenBabel11072409373D

 63 67  0  0  1  0  0  0  0  0999 V2000
  193.4960  176.1240  144.8710 C   0  0  1  0  0  3  0  0  0  0  0  0
  195.3160  175.4510  146.5240 O   0  0  0  0  0  0  0  0  0  0  0  0
  195.3910  174.4980  144.3030 C   0  0  1  0  0  3  0  0  0  0  0  0
  194.0010  175.0020  143.9590 C   0  0  2  0  0  3  0  0  0  0  0  0
  192.8600  175.4880  146.1060 C   0  0  1  0  0  3  0  0  0  0  0  0
  196.4970  175.4690  143.9080 C   0  0  0  0  0  1  0  0  0  0  0  0
  195.4000  174.2440  145.7960 C   0  0  0  0  0  2  0  0  0  0  0  0
  194.1620  176.2560  146.2550 C   0  0  2  0  0  3  0  0  0  0  0  0
  193.8200  175.3180  142.4780 C   0  0  0  0  0  2  0  0  0  0  0  0
  194.5260  174.3940  141.6590 O   0  0  0  0  0  0  0  0  0  0  0  0
  192.9690  172.7180  141.8160 O   0  0  0  0  0  0  0  0  0  0  0  0
  193.9130  173.2420  141.1690 C   0  0  0  0  0  0  0  0  0  0  0  0
  194.3320  172.6650  139.9280 N   0  0  0  0  0  0  0  0  0  0  0  0
  195.1300  170.7870  138.7970 O   0  0  0  0  0  0  0  0  0  0  0  0
  194.9820  171.3850  139.8960 C   0  0  0  0  0  0  0  0  0  0  0  0
  195.5400  170.7810  141.1490 C   0  0  2  0  0  3  0  0  0  0  0  0
  197.0510  170.7040  141.0570 C   0  0  0  0  0  1  0  0  0  0  0  0
  195.0150  169.5010  141.3580 O   0  0  0  0  0  0  0  0  0  0  0  0
  194.5690  168.1690  144.7510 N   0  0  0  0  0  2  0  0  0  0  0  0
  194.8470  170.5960  144.9150 C   0  0  0  0  0  2  0  0  0  0  0  0
  195.1950  170.6740  143.4330 C   0  0  0  0  0  2  0  0  0  0  0  0
  195.0000  168.1820  143.3530 C   0  0  0  0  0  2  0  0  0  0  0  0
  194.5780  169.4930  142.6850 C   0  0  2  0  0  3  0  0  0  0  0  0
  194.9280  169.1610  146.9390 C   0  0  0  0  0  1  0  0  0  0  0  0
  195.2670  169.2360  145.4660 C   0  0  1  0  0  3  0  0  0  0  0  0
  193.9180  173.2640  138.7590 O   0  0  0  0  0  0  0  0  0  0  0  0
  192.6110  173.1280  138.2940 C   0  0  0  0  0  0  0  0  0  0  0  0
  191.7190  171.9640  137.9530 C   0  0  2  0  0  3  0  0  0  0  0  0
  191.6560  174.0040  137.9350 N   0  0  0  0  0  0  0  0  0  0  0  0
  190.7480  172.9230  137.6070 C   0  0  1  0  0  3  0  0  0  0  0  0
  190.8050  171.6680  135.3100 C   0  0  0  0  0  1  0  0  0  0  0  0
  190.4560  172.8740  136.1270 C   0  0  0  0  0  0  0  0  0  0  0  0
  190.0950  173.9430  135.5220 N   0  0  0  0  0  2  0  0  0  0  0  0
  191.3090  171.2230  139.2190 C   0  0  0  0  0  2  0  0  0  0  0  0
  191.7030  169.7540  139.1470 C   0  0  0  0  0  2  0  0  0  0  0  0
  190.5370  168.8720  139.5470 C   0  0  0  0  0  1  0  0  0  0  0  0
  191.7880  176.3090  146.5430 O   0  0  0  0  0  0  0  0  0  0  0  0
  190.7790  176.7730  145.6940 C   0  0  0  0  0  0  0  0  0  0  0  0
  191.0520  177.9470  144.5790 S   0  0  0  0  0  0  0  0  0  0  0  0
  189.4360  176.1250  145.7490 C   0  0  2  0  0  3  0  0  0  0  0  0
  190.2440  175.0160  143.8610 N   0  0  0  0  0  0  0  0  0  0  0  0
  189.2950  175.2170  144.6390 N   0  0  0  0  0  0  0  0  0  0  0  0
  190.0700  174.1460  142.7310 C   0  0  0  0  0  2  0  0  0  0  0  0
  188.6210  173.6920  142.6440 C   0  0  1  0  0  3  0  0  0  0  0  0
  188.1620  175.6280  141.1900 N   0  0  0  0  0  0  0  0  0  0  0  0
  188.9660  174.6090  140.4540 C   0  0  0  0  0  2  0  0  0  0  0  0
  188.0000  174.1500  141.3270 C   0  0  1  0  0  3  0  0  0  0  0  0
  187.8160  176.9680  141.5260 C   0  0  0  0  0  0  0  0  0  0  0  0
  188.7370  177.7950  141.9930 C   0  0  0  0  0  2  0  0  0  0  0  0
  186.4220  177.4570  141.3110 C   0  0  0  0  0  2  0  0  0  0  0  0
  185.5380  177.1830  142.5210 C   0  0  0  0  0  2  0  0  0  0  0  0
  185.0190  178.4500  143.1100 C   0  0  0  0  0  0  0  0  0  0  0  0
  183.7860  178.5980  143.3180 O   0  0  0  0  0  0  0  0  0  0  0  0
  185.9030  179.4780  143.4120 O   0  0  0  0  0  1  0  0  0  0  0  0
  189.7180  171.5600  142.3950 O   0  0  0  0  0  1  0  0  0  0  0  0
  188.5310  172.1770  142.7990 C   0  0  0  0  0  2  0  0  0  0  0  0
  188.4400  177.1370  145.6660 O   0  0  0  0  0  0  0  0  0  0  0  0
  188.3820  178.4050  147.6830 C   0  0  0  0  0  2  0  0  0  0  0  0
  187.7620  177.6580  146.7720 C   0  0  0  0  0  0  0  0  0  0  0  0
  185.5310  176.4370  145.8320 O   0  0  0  0  0  0  0  0  0  0  0  0
  185.1290  178.5880  147.2580 O   0  0  0  0  0  1  0  0  0  0  0  0
  185.9460  176.2130  148.4000 O   0  0  0  0  0  1  0  0  0  0  0  0
  186.0560  177.1950  147.0260 P   0  0  0  0  0  0  0  0  0  0  0  0
  1  5  1  0  0  0  0
  1  8  1  0  0  0  0
  3  7  1  0  0  0  0
  4  3  1  0  0  0  0
  4  1  1  0  0  0  0
  5  8  1  0  0  0  0
  5 37  1  0  0  0  0
  6  3  1  0  0  0  0
  7  2  1  0  0  0  0
  8  2  1  0  0  0  0
  9  4  1  0  0  0  0
 10  9  1  0  0  0  0
 12 10  1  0  0  0  0
 12 11  2  0  0  0  0
 13 12  1  0  0  0  0
 14 15  2  0  0  0  0
 15 13  1  0  0  0  0
 15 16  1  0  0  0  0
 16 18  1  0  0  0  0
 17 16  1  0  0  0  0
 18 23  1  0  0  0  0
 19 25  1  0  0  0  0
 20 25  1  0  0  0  0
 21 20  1  0  0  0  0
 22 19  1  0  0  0  0
 23 22  1  0  0  0  0
 23 21  1  0  0  0  0
 25 24  1  0  0  0  0
 26 13  1  0  0  0  0
 27 26  1  0  0  0  0
 28 27  1  0  0  0  0
 28 34  1  0  0  0  0
 29 27  2  0  0  0  0
 30 29  1  0  0  0  0
 30 28  1  0  0  0  0
 31 32  1  0  0  0  0
 32 30  1  0  0  0  0
 33 32  2  0  0  0  0
 35 34  1  0  0  0  0
 35 36  1  0  0  0  0
 38 40  1  0  0  0  0
 38 37  1  0  0  0  0
 39 38  2  0  0  0  0
 41 42  2  0  0  0  0
 42 40  1  0  0  0  0
 43 41  1  0  0  0  0
 44 43  1  0  0  0  0
 44 56  1  0  0  0  0
 45 47  1  0  0  0  0
 45 48  1  0  0  0  0
 46 45  1  0  0  0  0
 46 47  1  0  0  0  0
 47 44  1  0  0  0  0
 48 49  2  0  0  0  0
 50 48  1  0  0  0  0
 50 51  1  0  0  0  0
 51 52  1  0  0  0  0
 52 53  2  0  0  0  0
 52 54  1  0  0  0  0
 55 56  1  0  0  0  0
 57 40  1  0  0  0  0
 57 59  1  0  0  0  0
 59 63  1  0  0  0  0
 59 58  2  0  0  0  0
 60 63  2  0  0  0  0
 63 61  1  0  0  0  0
 63 62  1  0  0  0  0
M  END
>  <MODEL>
7

>  <REMARK>
 VINA RESULT:      -4.2      2.777      6.681
  Name = 
  26 active torsions:
  status: ('A' for Active; 'I' for Inactive)
    1  A    between atoms: C_1  and  C_6
    2  A    between atoms: C_1  and  C_18
    3  A    between atoms: C_2  and  O_52
    4  A    between atoms: C_4  and  N_22
    5  A    between atoms: C_4  and  O_42
    6  A    between atoms: C_4  and  C_45
    7  A    between atoms: C_7  and  O_56
    8  A    between atoms: C_7  and  C_62
    9  A    between atoms: C_8  and  C_19
   10  A    between atoms: C_8  and  C_34
   11  A    between atoms: N_11  and  C_13
   12  A    between atoms: O_12  and  C_36
   13  A    between atoms: O_12  and  C_45
   14  A    between atoms: C_13  and  C_47
   15  A    between atoms: O_15  and  C_16
   16  A    between atoms: O_15  and  C_48
   17  A    between atoms: C_18  and  C_24
   18  A    between atoms: N_20  and  C_24
   19  A    between atoms: C_26  and  C_48
   20  A    between atoms: N_28  and  O_52
   21  A    between atoms: C_33  and  C_47
   22  A    between atoms: C_35  and  C_40
   23  A    between atoms: C_38  and  O_56
   24  A    between atoms: O_42  and  C_58
   25  A    between atoms: C_47  and  C_53
   26  A    between atoms: C_58  and  P_60
                            x       y       z     vdW  Elec       q    Type
                         _______ _______ _______ _____ _____    ______ ____

>  <TORSDO>
F 26

$$$$
=
 OpenBabel11072409373D

 63 67  0  0  1  0  0  0  0  0999 V2000
  193.6580  174.4510  145.1110 C   0  0  1  0  0  3  0  0  0  0  0  0
  195.2790  175.9980  146.3260 O   0  0  0  0  0  0  0  0  0  0  0  0
  193.0430  176.8100  145.8920 C   0  0  1  0  0  3  0  0  0  0  0  0
  192.7240  175.6540  144.9620 C   0  0  2  0  0  3  0  0  0  0  0  0
  194.8900  174.6900  144.2410 C   0  0  1  0  0  3  0  0  0  0  0  0
  192.6490  176.5430  147.3390 C   0  0  0  0  0  1  0  0  0  0  0  0
  194.5320  177.0610  145.7720 C   0  0  0  0  0  2  0  0  0  0  0  0
  195.0350  174.7080  145.7530 C   0  0  2  0  0  3  0  0  0  0  0  0
  191.2500  175.2620  144.9660 C   0  0  0  0  0  2  0  0  0  0  0  0
  190.8550  174.7090  143.7170 O   0  0  0  0  0  0  0  0  0  0  0  0
  191.1110  176.6700  142.5550 O   0  0  0  0  0  0  0  0  0  0  0  0
  190.6020  175.5200  142.6110 C   0  0  0  0  0  0  0  0  0  0  0  0
  189.7910  175.0480  141.5310 N   0  0  0  0  0  0  0  0  0  0  0  0
  187.9140  175.3760  140.1850 O   0  0  0  0  0  0  0  0  0  0  0  0
  188.5070  175.6340  141.2660 C   0  0  0  0  0  0  0  0  0  0  0  0
  187.8380  176.5010  142.2900 C   0  0  2  0  0  3  0  0  0  0  0  0
  188.3900  177.9110  142.2120 C   0  0  0  0  0  1  0  0  0  0  0  0
  188.0340  175.9880  143.5770 O   0  0  0  0  0  0  0  0  0  0  0  0
  185.2840  177.7010  145.3050 N   0  0  0  0  0  2  0  0  0  0  0  0
  187.1920  177.5870  146.8360 C   0  0  0  0  0  2  0  0  0  0  0  0
  187.9400  176.6820  145.8620 C   0  0  0  0  0  2  0  0  0  0  0  0
  185.9200  176.7520  144.3910 C   0  0  0  0  0  2  0  0  0  0  0  0
  187.4410  176.9150  144.4370 C   0  0  2  0  0  3  0  0  0  0  0  0
  184.9470  178.2700  147.6420 C   0  0  0  0  0  1  0  0  0  0  0  0
  185.6890  177.3770  146.6720 C   0  0  1  0  0  3  0  0  0  0  0  0
  190.3520  174.1660  140.6330 O   0  0  0  0  0  0  0  0  0  0  0  0
  190.2280  172.7860  140.7920 C   0  0  0  0  0  0  0  0  0  0  0  0
  190.3520  171.8340  141.9520 C   0  0  2  0  0  3  0  0  0  0  0  0
  189.9840  171.7710  139.9450 N   0  0  0  0  0  0  0  0  0  0  0  0
  190.0750  170.8100  141.0250 C   0  0  1  0  0  3  0  0  0  0  0  0
  191.7680  169.0690  142.0020 C   0  0  0  0  0  1  0  0  0  0  0  0
  191.2710  169.9040  140.8630 C   0  0  0  0  0  0  0  0  0  0  0  0
  191.9920  169.9980  139.8090 N   0  0  0  0  0  2  0  0  0  0  0  0
  189.1820  172.0150  142.9110 C   0  0  0  0  0  2  0  0  0  0  0  0
  189.5630  171.5930  144.3240 C   0  0  0  0  0  2  0  0  0  0  0  0
  191.0580  171.7340  144.5340 C   0  0  0  0  0  1  0  0  0  0  0  0
  195.3520  173.4410  143.7490 O   0  0  0  0  0  0  0  0  0  0  0  0
  196.0480  173.2990  142.5450 C   0  0  0  0  0  0  0  0  0  0  0  0
  196.5500  174.5950  141.6720 S   0  0  0  0  0  0  0  0  0  0  0  0
  196.4130  171.9290  142.0820 C   0  0  2  0  0  3  0  0  0  0  0  0
  197.5220  171.5330  140.0660 N   0  0  0  0  0  0  0  0  0  0  0  0
  196.4870  171.9120  140.6430 N   0  0  0  0  0  0  0  0  0  0  0  0
  197.5950  171.5700  138.6320 C   0  0  0  0  0  2  0  0  0  0  0  0
  196.1990  171.7060  138.0440 C   0  0  1  0  0  3  0  0  0  0  0  0
  195.1420  173.7960  137.2780 N   0  0  0  0  0  0  0  0  0  0  0  0
  196.6110  173.9930  137.4480 C   0  0  0  0  0  2  0  0  0  0  0  0
  196.1840  172.7760  136.9560 C   0  0  1  0  0  3  0  0  0  0  0  0
  193.7860  174.2260  137.3640 C   0  0  0  0  0  0  0  0  0  0  0  0
  193.4560  175.4580  137.0100 C   0  0  0  0  0  2  0  0  0  0  0  0
  192.7270  173.2760  137.8140 C   0  0  0  0  0  2  0  0  0  0  0  0
  191.3550  173.6730  137.2820 C   0  0  0  0  0  2  0  0  0  0  0  0
  190.8560  172.6870  136.2810 C   0  0  0  0  0  0  0  0  0  0  0  0
  191.6470  171.8640  135.7490 O   0  0  0  0  0  0  0  0  0  0  0  0
  189.5140  172.6940  135.9230 O   0  0  0  0  0  1  0  0  0  0  0  0
  194.6170  170.5260  136.6590 O   0  0  0  0  0  1  0  0  0  0  0  0
  195.7200  170.3630  137.5030 C   0  0  0  0  0  2  0  0  0  0  0  0
  195.4100  171.0190  142.5180 O   0  0  0  0  0  0  0  0  0  0  0  0
  194.4510  170.0610  144.4780 C   0  0  0  0  0  2  0  0  0  0  0  0
  195.5020  170.2550  143.6840 C   0  0  0  0  0  0  0  0  0  0  0  0
  197.9030  169.2120  142.9730 O   0  0  0  0  0  0  0  0  0  0  0  0
  196.8980  168.3180  145.2130 O   0  0  0  0  0  1  0  0  0  0  0  0
  197.9410  170.8640  144.9950 O   0  0  0  0  0  1  0  0  0  0  0  0
  197.1040  169.6390  144.1800 P   0  0  0  0  0  0  0  0  0  0  0  0
  1  8  1  0  0  0  0
  3  6  1  0  0  0  0
  4  9  1  0  0  0  0
  4  1  1  0  0  0  0
  4  3  1  0  0  0  0
  5  1  1  0  0  0  0
  5  8  1  0  0  0  0
  7  3  1  0  0  0  0
  7  2  1  0  0  0  0
  8  2  1  0  0  0  0
 10  9  1  0  0  0  0
 11 12  2  0  0  0  0
 12 10  1  0  0  0  0
 13 12  1  0  0  0  0
 14 15  2  0  0  0  0
 15 13  1  0  0  0  0
 15 16  1  0  0  0  0
 16 18  1  0  0  0  0
 17 16  1  0  0  0  0
 18 23  1  0  0  0  0
 19 25  1  0  0  0  0
 21 20  1  0  0  0  0
 22 23  1  0  0  0  0
 22 19  1  0  0  0  0
 23 21  1  0  0  0  0
 25 20  1  0  0  0  0
 25 24  1  0  0  0  0
 26 27  1  0  0  0  0
 26 13  1  0  0  0  0
 27 28  1  0  0  0  0
 28 34  1  0  0  0  0
 29 27  2  0  0  0  0
 29 30  1  0  0  0  0
 30 28  1  0  0  0  0
 32 30  1  0  0  0  0
 32 31  1  0  0  0  0
 33 32  2  0  0  0  0
 34 35  1  0  0  0  0
 35 36  1  0  0  0  0
 37  5  1  0  0  0  0
 38 37  1  0  0  0  0
 39 38  2  0  0  0  0
 40 57  1  0  0  0  0
 40 38  1  0  0  0  0
 41 42  2  0  0  0  0
 42 40  1  0  0  0  0
 43 41  1  0  0  0  0
 44 43  1  0  0  0  0
 45 48  1  0  0  0  0
 45 46  1  0  0  0  0
 47 45  1  0  0  0  0
 47 46  1  0  0  0  0
 47 44  1  0  0  0  0
 48 50  1  0  0  0  0
 49 48  2  0  0  0  0
 51 50  1  0  0  0  0
 52 51  1  0  0  0  0
 53 52  2  0  0  0  0
 54 52  1  0  0  0  0
 55 56  1  0  0  0  0
 56 44  1  0  0  0  0
 57 59  1  0  0  0  0
 59 63  1  0  0  0  0
 59 58  2  0  0  0  0
 60 63  2  0  0  0  0
 63 62  1  0  0  0  0
 63 61  1  0  0  0  0
M  END
>  <MODEL>
8

>  <REMARK>
 VINA RESULT:      -3.9      3.413     10.214
  Name = 
  26 active torsions:
  status: ('A' for Active; 'I' for Inactive)
    1  A    between atoms: C_1  and  C_6
    2  A    between atoms: C_1  and  C_18
    3  A    between atoms: C_2  and  O_52
    4  A    between atoms: C_4  and  N_22
    5  A    between atoms: C_4  and  O_42
    6  A    between atoms: C_4  and  C_45
    7  A    between atoms: C_7  and  O_56
    8  A    between atoms: C_7  and  C_62
    9  A    between atoms: C_8  and  C_19
   10  A    between atoms: C_8  and  C_34
   11  A    between atoms: N_11  and  C_13
   12  A    between atoms: O_12  and  C_36
   13  A    between atoms: O_12  and  C_45
   14  A    between atoms: C_13  and  C_47
   15  A    between atoms: O_15  and  C_16
   16  A    between atoms: O_15  and  C_48
   17  A    between atoms: C_18  and  C_24
   18  A    between atoms: N_20  and  C_24
   19  A    between atoms: C_26  and  C_48
   20  A    between atoms: N_28  and  O_52
   21  A    between atoms: C_33  and  C_47
   22  A    between atoms: C_35  and  C_40
   23  A    between atoms: C_38  and  O_56
   24  A    between atoms: O_42  and  C_58
   25  A    between atoms: C_47  and  C_53
   26  A    between atoms: C_58  and  P_60
                            x       y       z     vdW  Elec       q    Type
                         _______ _______ _______ _____ _____    ______ ____

>  <TORSDO>
F 26

$$$$
=
 OpenBabel11072409373D

 63 67  0  0  1  0  0  0  0  0999 V2000
  192.8200  173.7460  145.4240 C   0  0  1  0  0  3  0  0  0  0  0  0
  194.4280  175.4600  146.4100 O   0  0  0  0  0  0  0  0  0  0  0  0
  192.2790  176.2410  145.6220 C   0  0  1  0  0  3  0  0  0  0  0  0
  191.9670  174.9210  144.9400 C   0  0  2  0  0  3  0  0  0  0  0  0
  194.1250  173.7430  144.6300 C   0  0  1  0  0  3  0  0  0  0  0  0
  191.7640  176.3120  147.0540 C   0  0  0  0  0  1  0  0  0  0  0  0
  193.7840  176.4030  145.5780 C   0  0  0  0  0  2  0  0  0  0  0  0
  194.1570  174.0860  146.1100 C   0  0  2  0  0  3  0  0  0  0  0  0
  190.4770  174.5950  144.9030 C   0  0  0  0  0  2  0  0  0  0  0  0
  189.6850  175.7710  145.0090 O   0  0  0  0  0  0  0  0  0  0  0  0
  189.9890  177.9040  144.2210 O   0  0  0  0  0  0  0  0  0  0  0  0
  189.6450  176.7160  143.9840 C   0  0  0  0  0  0  0  0  0  0  0  0
  189.2410  176.3420  142.6630 N   0  0  0  0  0  0  0  0  0  0  0  0
  187.7910  176.6960  140.8710 O   0  0  0  0  0  0  0  0  0  0  0  0
  188.0160  176.8390  142.1020 C   0  0  0  0  0  0  0  0  0  0  0  0
  186.9760  177.4700  142.9780 C   0  0  2  0  0  3  0  0  0  0  0  0
  185.9550  176.4320  143.3980 C   0  0  0  0  0  1  0  0  0  0  0  0
  186.3350  178.5180  142.3080 O   0  0  0  0  0  0  0  0  0  0  0  0
  182.6770  178.2600  142.4940 N   0  0  0  0  0  2  0  0  0  0  0  0
  183.3500  177.8770  140.1720 C   0  0  0  0  0  2  0  0  0  0  0  0
  184.7850  178.2700  140.5050 C   0  0  0  0  0  2  0  0  0  0  0  0
  184.0130  178.7460  142.8350 C   0  0  0  0  0  2  0  0  0  0  0  0
  185.0660  178.0280  141.9870 C   0  0  2  0  0  3  0  0  0  0  0  0
  180.9670  178.2270  140.7700 C   0  0  0  0  0  1  0  0  0  0  0  0
  182.3920  178.6120  141.1040 C   0  0  1  0  0  3  0  0  0  0  0  0
  190.1450  175.6670  141.8730 O   0  0  0  0  0  0  0  0  0  0  0  0
  189.8210  174.4540  141.2670 C   0  0  0  0  0  0  0  0  0  0  0  0
  190.6100  173.3250  140.6580 C   0  0  2  0  0  3  0  0  0  0  0  0
  188.6600  173.8470  140.9650 N   0  0  0  0  0  0  0  0  0  0  0  0
  189.3660  172.7250  140.3790 C   0  0  1  0  0  3  0  0  0  0  0  0
  190.1610  172.0260  137.9840 C   0  0  0  0  0  1  0  0  0  0  0  0
  189.1390  172.6420  138.8890 C   0  0  0  0  0  0  0  0  0  0  0  0
  188.1600  173.2820  138.3670 N   0  0  0  0  0  2  0  0  0  0  0  0
  191.3460  172.5480  141.7410 C   0  0  0  0  0  2  0  0  0  0  0  0
  191.5810  171.1050  141.3170 C   0  0  0  0  0  2  0  0  0  0  0  0
  190.6870  170.1690  142.1070 C   0  0  0  0  0  1  0  0  0  0  0  0
  194.5530  172.3990  144.4600 O   0  0  0  0  0  0  0  0  0  0  0  0
  194.7840  171.8190  143.2100 C   0  0  0  0  0  0  0  0  0  0  0  0
  194.7330  170.1930  142.9840 S   0  0  0  0  0  0  0  0  0  0  0  0
  195.0030  172.7070  142.0320 C   0  0  2  0  0  3  0  0  0  0  0  0
  195.8750  171.8700  140.0350 N   0  0  0  0  0  0  0  0  0  0  0  0
  194.9130  171.9310  140.8210 N   0  0  0  0  0  0  0  0  0  0  0  0
  195.7500  171.1320  138.8090 C   0  0  0  0  0  2  0  0  0  0  0  0
  194.5450  171.6280  138.0250 C   0  0  1  0  0  3  0  0  0  0  0  0
  193.9830  173.3530  136.3570 N   0  0  0  0  0  0  0  0  0  0  0  0
  195.3050  173.6510  136.9820 C   0  0  0  0  0  2  0  0  0  0  0  0
  194.9960  172.3270  136.7450 C   0  0  1  0  0  3  0  0  0  0  0  0
  192.7210  173.7350  135.8180 C   0  0  0  0  0  0  0  0  0  0  0  0
  192.1110  172.9560  134.9400 C   0  0  0  0  0  2  0  0  0  0  0  0
  192.0620  174.9930  136.2740 C   0  0  0  0  0  2  0  0  0  0  0  0
  193.0830  176.0270  136.7330 C   0  0  0  0  0  2  0  0  0  0  0  0
  193.4710  176.9370  135.6170 C   0  0  0  0  0  0  0  0  0  0  0  0
  192.6880  177.8440  135.2340 O   0  0  0  0  0  1  0  0  0  0  0  0
  194.6980  176.7650  134.9890 O   0  0  0  0  0  0  0  0  0  0  0  0
  193.3960  169.6760  138.8490 O   0  0  0  0  0  1  0  0  0  0  0  0
  193.6010  170.4690  137.7170 C   0  0  0  0  0  2  0  0  0  0  0  0
  196.3010  173.2820  142.1330 O   0  0  0  0  0  0  0  0  0  0  0  0
  197.2910  175.1220  143.2780 C   0  0  0  0  0  2  0  0  0  0  0  0
  196.5390  174.6510  142.2870 C   0  0  0  0  0  0  0  0  0  0  0  0
  195.7960  175.3240  139.7660 O   0  0  0  0  0  0  0  0  0  0  0  0
  196.4130  177.3190  141.3380 O   0  0  0  0  0  1  0  0  0  0  0  0
  194.0720  175.8900  141.6440 O   0  0  0  0  0  1  0  0  0  0  0  0
  195.7010  175.7930  141.1980 P   0  0  0  0  0  0  0  0  0  0  0  0
  1  8  1  0  0  0  0
  3  6  1  0  0  0  0
  4  1  1  0  0  0  0
  4  3  1  0  0  0  0
  5  1  1  0  0  0  0
  5  8  1  0  0  0  0
  7  3  1  0  0  0  0
  7  2  1  0  0  0  0
  8  2  1  0  0  0  0
  9  4  1  0  0  0  0
  9 10  1  0  0  0  0
 12 11  2  0  0  0  0
 12 10  1  0  0  0  0
 13 12  1  0  0  0  0
 14 15  2  0  0  0  0
 15 13  1  0  0  0  0
 15 16  1  0  0  0  0
 16 17  1  0  0  0  0
 18 16  1  0  0  0  0
 19 22  1  0  0  0  0
 20 21  1  0  0  0  0
 20 25  1  0  0  0  0
 21 23  1  0  0  0  0
 23 18  1  0  0  0  0
 23 22  1  0  0  0  0
 24 25  1  0  0  0  0
 25 19  1  0  0  0  0
 26 13  1  0  0  0  0
 27 26  1  0  0  0  0
 28 27  1  0  0  0  0
 28 34  1  0  0  0  0
 29 27  2  0  0  0  0
 30 28  1  0  0  0  0
 30 29  1  0  0  0  0
 31 32  1  0  0  0  0
 32 30  1  0  0  0  0
 33 32  2  0  0  0  0
 35 34  1  0  0  0  0
 35 36  1  0  0  0  0
 37  5  1  0  0  0  0
 38 37  1  0  0  0  0
 39 38  2  0  0  0  0
 40 57  1  0  0  0  0
 40 38  1  0  0  0  0
 41 42  2  0  0  0  0
 42 40  1  0  0  0  0
 43 41  1  0  0  0  0
 44 43  1  0  0  0  0
 45 47  1  0  0  0  0
 45 46  1  0  0  0  0
 47 46  1  0  0  0  0
 47 44  1  0  0  0  0
 48 50  1  0  0  0  0
 48 45  1  0  0  0  0
 49 48  2  0  0  0  0
 50 51  1  0  0  0  0
 52 51  1  0  0  0  0
 53 52  1  0  0  0  0
 54 52  2  0  0  0  0
 56 44  1  0  0  0  0
 56 55  1  0  0  0  0
 57 59  1  0  0  0  0
 59 58  2  0  0  0  0
 60 63  2  0  0  0  0
 63 61  1  0  0  0  0
 63 62  1  0  0  0  0
 63 59  1  0  0  0  0
M  END
>  <MODEL>
9

>  <REMARK>
 VINA RESULT:      -3.9      3.288     10.021
  Name = 
  26 active torsions:
  status: ('A' for Active; 'I' for Inactive)
    1  A    between atoms: C_1  and  C_6
    2  A    between atoms: C_1  and  C_18
    3  A    between atoms: C_2  and  O_52
    4  A    between atoms: C_4  and  N_22
    5  A    between atoms: C_4  and  O_42
    6  A    between atoms: C_4  and  C_45
    7  A    between atoms: C_7  and  O_56
    8  A    between atoms: C_7  and  C_62
    9  A    between atoms: C_8  and  C_19
   10  A    between atoms: C_8  and  C_34
   11  A    between atoms: N_11  and  C_13
   12  A    between atoms: O_12  and  C_36
   13  A    between atoms: O_12  and  C_45
   14  A    between atoms: C_13  and  C_47
   15  A    between atoms: O_15  and  C_16
   16  A    between atoms: O_15  and  C_48
   17  A    between atoms: C_18  and  C_24
   18  A    between atoms: N_20  and  C_24
   19  A    between atoms: C_26  and  C_48
   20  A    between atoms: N_28  and  O_52
   21  A    between atoms: C_33  and  C_47
   22  A    between atoms: C_35  and  C_40
   23  A    between atoms: C_38  and  O_56
   24  A    between atoms: O_42  and  C_58
   25  A    between atoms: C_47  and  C_53
   26  A    between atoms: C_58  and  P_60
                            x       y       z     vdW  Elec       q    Type
                         _______ _______ _______ _____ _____    ______ ____

>  <TORSDO>
F 26

$$$$
