=
 OpenBabel11072408593D

 45 48  0  0  1  0  0  0  0  0999 V2000
  195.2140  175.8320  142.1680 C   0  0  2  0  0  3  0  0  0  0  0  0
  193.3610  176.7130  143.2710 C   0  0  1  0  0  3  0  0  0  0  0  0
  191.1420  177.6920  142.6920 C   0  0  0  0  0  2  0  0  0  0  0  0
  188.9490  178.2950  141.6720 C   0  0  0  0  0  2  0  0  0  0  0  0
  192.2460  170.7250  141.6230 C   0  0  0  0  0  2  0  0  0  0  0  0
  187.4280  178.0930  141.7090 C   0  0  1  0  0  3  0  0  0  0  0  0
  195.5900  174.8310  141.2670 O   0  0  0  0  0  1  0  0  0  0  0  0
  189.3550  172.9340  140.8910 C   0  0  0  0  0  3  0  0  0  0  0  0
  187.5090  175.5420  141.7220 C   0  0  0  0  0  2  0  0  0  0  0  0
  192.7880  171.2720  142.9330 C   0  0  2  0  0  3  0  0  0  0  0  0
  195.1580  175.3570  143.6280 C   0  0  2  0  0  0  0  0  0  0  0  0
  195.0810  173.8190  143.7300 C   0  0  0  0  0  2  0  0  0  0  0  0
  191.5200  171.8080  140.8450 C   0  0  0  0  0  2  0  0  0  0  0  0
  193.7520  173.2560  143.2380 C   0  0  0  0  0  2  0  0  0  0  0  0
  187.6070  177.5710  144.2090 C   0  0  0  0  0  2  0  0  0  0  0  0
  186.9820  176.7880  141.0310 C   0  0  0  0  0  2  0  0  0  0  0  0
  187.9910  173.1610  141.3910 C   0  0  0  0  0  0  0  0  0  0  0  0
  193.9690  171.9830  142.6910 O   0  0  0  0  0  0  0  0  0  0  0  0
  189.1020  177.8690  144.1350 C   0  0  0  0  0  2  0  0  0  0  0  0
  194.0130  175.9220  144.2400 O   0  0  0  0  0  0  0  0  0  0  0  0
  189.6420  177.4790  142.7600 C   0  0  2  0  0  3  0  0  0  0  0  0
  190.1480  171.9940  141.3930 C   0  0  0  0  0  3  0  0  0  0  0  0
  193.8270  176.2970  141.8960 C   0  0  0  0  0  2  0  0  0  0  0  0
  187.2220  174.3240  140.8700 C   0  0  0  0  0  2  0  0  0  0  0  0
  186.8590  178.3420  143.1220 C   0  0  2  0  0  3  0  0  0  0  0  0
  191.8580  176.5510  143.3960 C   0  0  0  0  0  2  0  0  0  0  0  0
  187.5320  172.4890  142.3950 N   0  0  0  0  0  2  0  0  0  0  0  0
  185.3800  178.1410  143.2010 C   0  0  0  0  0  0  0  0  0  0  0  0
  184.8800  177.6980  144.2710 O   0  0  0  0  0  0  0  0  0  0  0  0
  184.5490  178.4740  142.0740 N   0  0  0  0  0  2  0  0  0  0  0  0
  180.9290  177.9400  140.9950 C   0  0  0  0  0  2  0  0  0  0  0  0
  182.4330  177.9960  140.9900 C   0  0  0  0  0  3  0  0  0  0  0  0
  183.1160  178.4870  142.0360 C   0  0  0  0  0  0  0  0  0  0  0  0
  180.3530  179.1160  141.8000 C   0  0  2  0  0  3  0  0  0  0  0  0
  181.0810  179.3310  143.1060 C   0  0  0  0  0  3  0  0  0  0  0  0
  182.3860  179.0560  143.1880 C   0  0  0  0  0  3  0  0  0  0  0  0
  178.5520  177.7740  142.2710 C   0  0  0  0  0  1  0  0  0  0  0  0
  178.9460  179.0770  141.9320 O   0  0  0  0  0  0  0  0  0  0  0  0
  193.3010  169.2330  144.5830 C   0  0  0  0  0  0  0  0  0  0  0  0
  193.0700  170.1540  143.8390 C   0  0  0  0  0  0  0  0  0  0  0  0
  193.5710  168.1660  145.4490 N   0  0  0  0  0  1  0  0  0  0  0  0
  196.4220  175.8250  144.3760 C   0  0  2  0  0  3  0  0  0  0  0  0
  196.8240  177.0850  143.9150 O   0  0  0  0  0  1  0  0  0  0  0  0
  197.5930  174.8570  144.2290 C   0  0  0  0  0  2  0  0  0  0  0  0
  197.7880  174.1580  145.4220 O   0  0  0  0  0  1  0  0  0  0  0  0
  1  7  1  6  0  0  0
  1 11  1  0  0  0  0
  2 23  1  6  0  0  0
  2 26  1  0  0  0  0
  2 20  1  0  0  0  0
  3 21  1  0  0  0  0
  3 26  1  0  0  0  0
  4  6  1  0  0  0  0
  5 10  1  0  0  0  0
  6 16  1  1  0  0  0
  6 25  1  0  0  0  0
  8 17  1  0  0  0  0
  8 22  2  0  0  0  0
 10 40  1  1  0  0  0
 11 12  1  0  0  0  0
 11 20  1  0  0  0  0
 11 42  1  1  0  0  0
 13 22  1  0  0  0  0
 13  5  1  0  0  0  0
 14 12  1  0  0  0  0
 16  9  1  0  0  0  0
 17 27  2  0  0  0  0
 18 10  1  0  0  0  0
 18 14  1  0  0  0  0
 19 15  1  0  0  0  0
 21  4  1  6  0  0  0
 21 19  1  0  0  0  0
 23  1  1  0  0  0  0
 24 17  1  0  0  0  0
 24  9  1  0  0  0  0
 25 28  1  6  0  0  0
 25 15  1  0  0  0  0
 28 29  2  0  0  0  0
 30 28  1  0  0  0  0
 31 34  1  0  0  0  0
 32 31  1  0  0  0  0
 32 33  2  0  0  0  0
 33 30  1  0  0  0  0
 33 36  1  0  0  0  0
 34 38  1  1  0  0  0
 34 35  1  0  0  0  0
 35 36  2  0  0  0  0
 38 37  1  0  0  0  0
 39 41  1  0  0  0  0
 40 39  3  0  0  0  0
 42 43  1  6  0  0  0
 44 42  1  0  0  0  0
 44 45  1  0  0  0  0
M  END
>  <MODEL>
1

>  <REMARK>
 VINA RESULT:      -6.6      0.000      0.000
  Name = 
  6 active torsions:
  status: ('A' for Active; 'I' for Inactive)
    1  A    between atoms: C_1  and  C_11
    2  A    between atoms: C_11  and  C_16
    3  A    between atoms: C_14  and  C_38
    4  A    between atoms: C_25  and  N_44
    5  A    between atoms: O_26  and  C_29
    6  A    between atoms: C_27  and  C_41
                            x       y       z     vdW  Elec       q    Type
                         _______ _______ _______ _____ _____    ______ ____

>  <TORSDO>
F 6

$$$$
=
 OpenBabel11072408593D

 45 48  0  0  1  0  0  0  0  0999 V2000
  186.9390  177.9930  142.4770 C   0  0  2  0  0  3  0  0  0  0  0  0
  187.0500  175.8770  141.5080 C   0  0  1  0  0  3  0  0  0  0  0  0
  188.0630  174.8010  139.4990 C   0  0  0  0  0  2  0  0  0  0  0  0
  189.4950  174.1170  137.5770 C   0  0  0  0  0  2  0  0  0  0  0  0
  192.3320  177.0380  144.7590 C   0  0  0  0  0  2  0  0  0  0  0  0
  190.5610  173.1380  137.0680 C   0  0  1  0  0  3  0  0  0  0  0  0
  187.7450  179.0220  142.9740 O   0  0  0  0  0  1  0  0  0  0  0  0
  193.0390  175.5230  141.4460 C   0  0  0  0  0  3  0  0  0  0  0  0
  192.1490  173.4420  139.0420 C   0  0  0  0  0  2  0  0  0  0  0  0
  191.0660  176.3290  145.2110 C   0  0  2  0  0  3  0  0  0  0  0  0
  186.6430  176.8910  143.5080 C   0  0  2  0  0  0  0  0  0  0  0  0
  187.6380  176.9230  144.6860 C   0  0  0  0  0  2  0  0  0  0  0  0
  192.4290  177.0560  143.2440 C   0  0  0  0  0  2  0  0  0  0  0  0
  189.0490  176.5080  144.2840 C   0  0  0  0  0  2  0  0  0  0  0  0
  189.6920  171.3990  138.7340 C   0  0  0  0  0  2  0  0  0  0  0  0
  191.9790  173.5040  137.5340 C   0  0  0  0  0  2  0  0  0  0  0  0
  193.5280  174.2480  140.9030 C   0  0  0  0  0  0  0  0  0  0  0  0
  189.9730  177.1940  145.0850 O   0  0  0  0  0  0  0  0  0  0  0  0
  188.5950  172.3800  139.1400 C   0  0  0  0  0  2  0  0  0  0  0  0
  186.7280  175.6350  142.8600 O   0  0  0  0  0  0  0  0  0  0  0  0
  189.1100  173.8130  139.0230 C   0  0  2  0  0  3  0  0  0  0  0  0
  192.9290  175.7430  142.7510 C   0  0  0  0  0  3  0  0  0  0  0  0
  187.6280  177.2660  141.3760 C   0  0  0  0  0  2  0  0  0  0  0  0
  193.4880  174.0340  139.4300 C   0  0  0  0  0  2  0  0  0  0  0  0
  190.1390  171.6710  137.2980 C   0  0  2  0  0  3  0  0  0  0  0  0
  188.0420  174.8390  141.0190 C   0  0  0  0  0  2  0  0  0  0  0  0
  193.8100  173.2580  141.6850 N   0  0  0  0  0  2  0  0  0  0  0  0
  191.1600  170.6870  136.8270 C   0  0  0  0  0  0  0  0  0  0  0  0
  190.8130  169.7860  136.0160 O   0  0  0  0  0  0  0  0  0  0  0  0
  192.5210  170.7920  137.2830 N   0  0  0  0  0  2  0  0  0  0  0  0
  195.2880  168.1790  136.9980 C   0  0  0  0  0  2  0  0  0  0  0  0
  194.1600  169.0210  137.5330 C   0  0  0  0  0  3  0  0  0  0  0  0
  193.6460  170.0340  136.8170 C   0  0  0  0  0  0  0  0  0  0  0  0
  196.2060  169.0240  136.0990 C   0  0  2  0  0  3  0  0  0  0  0  0
  195.4290  169.8990  135.1440 C   0  0  0  0  0  3  0  0  0  0  0  0
  194.2410  170.3870  135.5110 C   0  0  0  0  0  3  0  0  0  0  0  0
  197.9300  169.1080  134.5890 C   0  0  0  0  0  1  0  0  0  0  0  0
  197.2350  168.2790  135.4810 O   0  0  0  0  0  0  0  0  0  0  0  0
  191.3370  175.6100  147.7700 C   0  0  0  0  0  0  0  0  0  0  0  0
  191.2140  175.9340  146.6150 C   0  0  0  0  0  0  0  0  0  0  0  0
  191.4780  175.2310  149.1110 N   0  0  0  0  0  1  0  0  0  0  0  0
  185.2210  177.0800  144.0740 C   0  0  2  0  0  3  0  0  0  0  0  0
  184.5190  178.0320  143.3240 O   0  0  0  0  0  1  0  0  0  0  0  0
  185.2170  177.5140  145.5380 C   0  0  0  0  0  2  0  0  0  0  0  0
  184.0660  178.2560  145.8120 O   0  0  0  0  0  1  0  0  0  0  0  0
  1  7  1  1  0  0  0
  1 11  1  0  0  0  0
  2 26  1  1  0  0  0
  2 20  1  0  0  0  0
  3 26  1  0  0  0  0
  5 10  1  0  0  0  0
  6 25  1  0  0  0  0
  6 16  1  1  0  0  0
  6  4  1  0  0  0  0
  8 22  2  0  0  0  0
  9 24  1  0  0  0  0
 10 40  1  1  0  0  0
 11 42  1  1  0  0  0
 11 12  1  0  0  0  0
 13  5  1  0  0  0  0
 14 12  1  0  0  0  0
 14 18  1  0  0  0  0
 15 19  1  0  0  0  0
 16  9  1  0  0  0  0
 17  8  1  0  0  0  0
 17 27  2  0  0  0  0
 18 10  1  0  0  0  0
 20 11  1  0  0  0  0
 21  4  1  6  0  0  0
 21 19  1  0  0  0  0
 21  3  1  0  0  0  0
 22 13  1  0  0  0  0
 23  2  1  0  0  0  0
 23  1  1  0  0  0  0
 24 17  1  0  0  0  0
 25 28  1  1  0  0  0
 25 15  1  0  0  0  0
 28 30  1  0  0  0  0
 29 28  2  0  0  0  0
 31 32  1  0  0  0  0
 33 30  1  0  0  0  0
 33 32  2  0  0  0  0
 34 38  1  6  0  0  0
 34 31  1  0  0  0  0
 35 36  2  0  0  0  0
 35 34  1  0  0  0  0
 36 33  1  0  0  0  0
 37 38  1  0  0  0  0
 39 41  1  0  0  0  0
 40 39  3  0  0  0  0
 42 43  1  6  0  0  0
 42 44  1  0  0  0  0
 44 45  1  0  0  0  0
M  END
>  <MODEL>
2

>  <REMARK>
 VINA RESULT:      -5.6      4.309     10.845
  Name = 
  6 active torsions:
  status: ('A' for Active; 'I' for Inactive)
    1  A    between atoms: C_1  and  C_11
    2  A    between atoms: C_11  and  C_16
    3  A    between atoms: C_14  and  C_38
    4  A    between atoms: C_25  and  N_44
    5  A    between atoms: O_26  and  C_29
    6  A    between atoms: C_27  and  C_41
                            x       y       z     vdW  Elec       q    Type
                         _______ _______ _______ _____ _____    ______ ____

>  <TORSDO>
F 6

$$$$
=
 OpenBabel11072408593D

 45 48  0  0  1  0  0  0  0  0999 V2000
  189.2100  176.1510  147.2950 C   0  0  2  0  0  3  0  0  0  0  0  0
  191.1980  176.5810  146.1600 C   0  0  1  0  0  3  0  0  0  0  0  0
  193.1430  175.3030  145.2630 C   0  0  0  0  0  2  0  0  0  0  0  0
  194.6880  173.6150  144.2740 C   0  0  0  0  0  2  0  0  0  0  0  0
  186.7850  174.6100  142.1040 C   0  0  0  0  0  2  0  0  0  0  0  0
  195.4170  173.1430  143.0100 C   0  0  1  0  0  3  0  0  0  0  0  0
  188.0220  175.4190  147.2010 O   0  0  0  0  0  1  0  0  0  0  0  0
  190.0610  172.9740  141.5020 C   0  0  0  0  0  3  0  0  0  0  0  0
  193.3560  173.1630  141.5040 C   0  0  0  0  0  2  0  0  0  0  0  0
  187.1620  176.0300  142.4920 C   0  0  2  0  0  3  0  0  0  0  0  0
  189.1560  177.5050  146.5700 C   0  0  2  0  0  0  0  0  0  0  0  0
  188.0050  177.5640  145.5440 C   0  0  0  0  0  2  0  0  0  0  0  0
  187.9060  173.6430  142.4350 C   0  0  0  0  0  2  0  0  0  0  0  0
  188.2320  176.6530  144.3430 C   0  0  0  0  0  2  0  0  0  0  0  0
  195.3960  175.5550  142.1540 C   0  0  0  0  0  2  0  0  0  0  0  0
  194.5100  172.3450  142.0600 C   0  0  0  0  0  2  0  0  0  0  0  0
  191.1290  172.9930  140.4930 C   0  0  0  0  0  0  0  0  0  0  0  0
  186.9920  176.2010  143.8700 O   0  0  0  0  0  0  0  0  0  0  0  0
  194.7520  175.9850  143.4690 C   0  0  0  0  0  2  0  0  0  0  0  0
  190.3870  177.7060  145.9010 O   0  0  0  0  0  0  0  0  0  0  0  0
  193.8570  174.8660  143.9990 C   0  0  2  0  0  3  0  0  0  0  0  0
  188.9580  173.7040  141.3820 C   0  0  0  0  0  3  0  0  0  0  0  0
  190.3270  175.4360  146.6200 C   0  0  0  0  0  2  0  0  0  0  0  0
  192.3910  172.2540  140.7730 C   0  0  0  0  0  2  0  0  0  0  0  0
  196.2240  174.2870  142.3610 C   0  0  2  0  0  3  0  0  0  0  0  0
  191.9660  176.1970  144.9090 C   0  0  0  0  0  2  0  0  0  0  0  0
  191.0630  173.7810  139.4710 N   0  0  0  0  0  2  0  0  0  0  0  0
  196.9380  173.8680  141.1160 C   0  0  0  0  0  0  0  0  0  0  0  0
  197.9410  173.1100  141.2130 O   0  0  0  0  0  0  0  0  0  0  0  0
  196.4620  174.3110  139.8320 N   0  0  0  0  0  2  0  0  0  0  0  0
  197.9220  174.2970  136.3070 C   0  0  0  0  0  2  0  0  0  0  0  0
  197.3560  174.7610  137.6230 C   0  0  0  0  0  3  0  0  0  0  0  0
  196.9310  173.8840  138.5460 C   0  0  0  0  0  0  0  0  0  0  0  0
  197.2470  172.9880  135.8660 C   0  0  2  0  0  3  0  0  0  0  0  0
  197.1200  171.9960  136.9980 C   0  0  0  0  0  3  0  0  0  0  0  0
  196.9430  172.4370  138.2460 C   0  0  0  0  0  3  0  0  0  0  0  0
  197.8730  171.0450  134.8200 C   0  0  0  0  0  1  0  0  0  0  0  0
  197.7950  172.4390  134.6850 O   0  0  0  0  0  0  0  0  0  0  0  0
  185.5820  177.7430  141.1860 C   0  0  0  0  0  0  0  0  0  0  0  0
  186.2940  176.9690  141.7750 C   0  0  0  0  0  0  0  0  0  0  0  0
  184.7520  178.6400  140.5010 N   0  0  0  0  0  1  0  0  0  0  0  0
  188.9420  178.6350  147.5980 C   0  0  2  0  0  3  0  0  0  0  0  0
  189.9660  178.6260  148.5530 O   0  0  0  0  0  1  0  0  0  0  0  0
  187.6010  178.5360  148.3200 C   0  0  0  0  0  2  0  0  0  0  0  0
  186.8030  179.6350  147.9990 O   0  0  0  0  0  1  0  0  0  0  0  0
  1  7  1  6  0  0  0
  2 26  1  6  0  0  0
  2 23  1  0  0  0  0
  5 13  1  0  0  0  0
  5 10  1  0  0  0  0
  6 16  1  6  0  0  0
  6  4  1  0  0  0  0
  9 16  1  0  0  0  0
 10 40  1  6  0  0  0
 10 18  1  0  0  0  0
 11  1  1  0  0  0  0
 11 42  1  1  0  0  0
 12 11  1  0  0  0  0
 14 12  1  0  0  0  0
 15 25  1  0  0  0  0
 15 19  1  0  0  0  0
 17 24  1  0  0  0  0
 17  8  1  0  0  0  0
 18 14  1  0  0  0  0
 20  2  1  0  0  0  0
 20 11  1  0  0  0  0
 21 19  1  1  0  0  0
 21  4  1  0  0  0  0
 21  3  1  0  0  0  0
 22  8  2  0  0  0  0
 22 13  1  0  0  0  0
 23  1  1  0  0  0  0
 24  9  1  0  0  0  0
 25 28  1  6  0  0  0
 25  6  1  0  0  0  0
 26  3  1  0  0  0  0
 27 17  2  0  0  0  0
 28 29  2  0  0  0  0
 30 28  1  0  0  0  0
 31 32  1  0  0  0  0
 32 33  2  0  0  0  0
 33 30  1  0  0  0  0
 34 38  1  6  0  0  0
 34 31  1  0  0  0  0
 34 35  1  0  0  0  0
 35 36  2  0  0  0  0
 36 33  1  0  0  0  0
 38 37  1  0  0  0  0
 39 40  3  0  0  0  0
 41 39  1  0  0  0  0
 42 44  1  0  0  0  0
 42 43  1  1  0  0  0
 45 44  1  0  0  0  0
M  END
>  <MODEL>
3

>  <REMARK>
 VINA RESULT:      -5.6      3.915     10.825
  Name = 
  6 active torsions:
  status: ('A' for Active; 'I' for Inactive)
    1  A    between atoms: C_1  and  C_11
    2  A    between atoms: C_11  and  C_16
    3  A    between atoms: C_14  and  C_38
    4  A    between atoms: C_25  and  N_44
    5  A    between atoms: O_26  and  C_29
    6  A    between atoms: C_27  and  C_41
                            x       y       z     vdW  Elec       q    Type
                         _______ _______ _______ _____ _____    ______ ____

>  <TORSDO>
F 6

$$$$
=
 OpenBabel11072408593D

 45 48  0  0  1  0  0  0  0  0999 V2000
  196.3550  169.5910  137.9210 C   0  0  2  0  0  3  0  0  0  0  0  0
  194.2300  170.0600  138.7540 C   0  0  1  0  0  3  0  0  0  0  0  0
  193.1220  170.3500  140.9690 C   0  0  0  0  0  2  0  0  0  0  0  0
  192.5290  170.8580  143.3360 C   0  0  0  0  0  2  0  0  0  0  0  0
  197.7410  175.3030  138.7260 C   0  0  0  0  0  2  0  0  0  0  0  0
  191.8630  171.8510  144.2970 C   0  0  1  0  0  3  0  0  0  0  0  0
  197.6740  170.0560  137.9370 O   0  0  0  0  0  1  0  0  0  0  0  0
  195.8380  174.9160  141.8890 C   0  0  0  0  0  3  0  0  0  0  0  0
  193.1000  173.9110  143.4340 C   0  0  0  0  0  2  0  0  0  0  0  0
  196.7790  174.7900  137.6680 C   0  0  2  0  0  3  0  0  0  0  0  0
  195.4770  170.2700  136.8570 C   0  0  2  0  0  0  0  0  0  0  0  0
  196.0930  171.5950  136.3630 C   0  0  0  0  0  2  0  0  0  0  0  0
  197.4510  174.6670  140.0730 C   0  0  0  0  0  2  0  0  0  0  0  0
  196.0800  172.6900  137.4240 C   0  0  0  0  0  2  0  0  0  0  0  0
  190.3550  172.6240  142.3770 C   0  0  0  0  0  2  0  0  0  0  0  0
  192.7650  173.0480  144.6390 C   0  0  0  0  0  2  0  0  0  0  0  0
  194.7040  175.5530  142.5730 C   0  0  0  0  0  0  0  0  0  0  0  0
  197.1900  173.5250  137.2340 O   0  0  0  0  0  0  0  0  0  0  0  0
  190.9900  171.5580  141.4880 C   0  0  0  0  0  2  0  0  0  0  0  0
  194.2060  170.5300  137.4240 O   0  0  0  0  0  0  0  0  0  0  0  0
  192.4480  171.3470  141.8910 C   0  0  2  0  0  3  0  0  0  0  0  0
  196.2960  175.3500  140.7200 C   0  0  0  0  0  3  0  0  0  0  0  0
  195.6650  169.9100  139.2010 C   0  0  0  0  0  2  0  0  0  0  0  0
  194.1660  174.9190  143.8080 C   0  0  0  0  0  2  0  0  0  0  0  0
  190.4290  172.2020  143.8450 C   0  0  2  0  0  3  0  0  0  0  0  0
  193.4890  171.0270  139.6580 C   0  0  0  0  0  2  0  0  0  0  0  0
  194.0610  176.5300  142.0240 N   0  0  0  0  0  2  0  0  0  0  0  0
  189.7520  173.1790  144.7500 C   0  0  0  0  0  0  0  0  0  0  0  0
  189.4270  172.8130  145.9120 O   0  0  0  0  0  0  0  0  0  0  0  0
  189.5010  174.5220  144.2960 N   0  0  0  0  0  2  0  0  0  0  0  0
  189.1660  177.2460  146.9470 C   0  0  0  0  0  2  0  0  0  0  0  0
  189.6480  176.0440  146.1790 C   0  0  0  0  0  3  0  0  0  0  0  0
  189.0060  175.6170  145.0800 C   0  0  0  0  0  0  0  0  0  0  0  0
  187.6340  177.3540  146.8640 C   0  0  2  0  0  3  0  0  0  0  0  0
  187.1160  177.1250  145.4640 C   0  0  0  0  0  3  0  0  0  0  0  0
  187.7600  176.2830  144.6500 C   0  0  0  0  0  3  0  0  0  0  0  0
  185.7300  178.3650  147.6480 C   0  0  0  0  0  1  0  0  0  0  0  0
  187.1140  178.5140  147.4810 O   0  0  0  0  0  0  0  0  0  0  0  0
  196.7760  176.4810  135.5980 C   0  0  0  0  0  0  0  0  0  0  0  0
  196.7770  175.7170  136.5320 C   0  0  0  0  0  0  0  0  0  0  0  0
  196.7740  177.3660  134.5130 N   0  0  0  0  0  1  0  0  0  0  0  0
  195.3150  169.3330  135.6430 C   0  0  2  0  0  3  0  0  0  0  0  0
  196.4000  169.4720  134.7700 O   0  0  0  0  0  1  0  0  0  0  0  0
  194.0270  169.5870  134.8640 C   0  0  0  0  0  2  0  0  0  0  0  0
  193.2150  168.4520  134.9000 O   0  0  0  0  0  1  0  0  0  0  0  0
  1  7  1  1  0  0  0
  1 23  1  0  0  0  0
  2 23  1  1  0  0  0
  2 26  1  0  0  0  0
  5 13  1  0  0  0  0
  6  4  1  6  0  0  0
  6 16  1  0  0  0  0
  8 17  1  0  0  0  0
  9 24  1  0  0  0  0
  9 16  1  0  0  0  0
 10 40  1  6  0  0  0
 10  5  1  0  0  0  0
 11 42  1  6  0  0  0
 11 20  1  0  0  0  0
 11  1  1  0  0  0  0
 12 11  1  0  0  0  0
 12 14  1  0  0  0  0
 13 22  1  0  0  0  0
 15 25  1  0  0  0  0
 17 24  1  0  0  0  0
 18 14  1  0  0  0  0
 18 10  1  0  0  0  0
 19 21  1  0  0  0  0
 19 15  1  0  0  0  0
 20  2  1  0  0  0  0
 21  3  1  6  0  0  0
 21  4  1  0  0  0  0
 22  8  2  0  0  0  0
 25  6  1  0  0  0  0
 25 28  1  1  0  0  0
 26  3  1  0  0  0  0
 27 17  2  0  0  0  0
 28 29  2  0  0  0  0
 30 28  1  0  0  0  0
 30 33  1  0  0  0  0
 32 31  1  0  0  0  0
 33 32  2  0  0  0  0
 34 31  1  0  0  0  0
 34 38  1  6  0  0  0
 35 34  1  0  0  0  0
 36 33  1  0  0  0  0
 36 35  2  0  0  0  0
 38 37  1  0  0  0  0
 39 40  3  0  0  0  0
 41 39  1  0  0  0  0
 42 43  1  6  0  0  0
 44 45  1  0  0  0  0
 44 42  1  0  0  0  0
M  END
>  <MODEL>
4

>  <REMARK>
 VINA RESULT:      -5.0      4.744      8.415
  Name = 
  6 active torsions:
  status: ('A' for Active; 'I' for Inactive)
    1  A    between atoms: C_1  and  C_11
    2  A    between atoms: C_11  and  C_16
    3  A    between atoms: C_14  and  C_38
    4  A    between atoms: C_25  and  N_44
    5  A    between atoms: O_26  and  C_29
    6  A    between atoms: C_27  and  C_41
                            x       y       z     vdW  Elec       q    Type
                         _______ _______ _______ _____ _____    ______ ____

>  <TORSDO>
F 6

$$$$
=
 OpenBabel11072408593D

 45 48  0  0  1  0  0  0  0  0999 V2000
  192.8300  169.5790  137.1180 C   0  0  2  0  0  3  0  0  0  0  0  0
  191.1160  171.0630  137.6500 C   0  0  1  0  0  3  0  0  0  0  0  0
  189.8280  171.7740  139.6640 C   0  0  0  0  0  2  0  0  0  0  0  0
  189.0420  172.3850  141.9490 C   0  0  0  0  0  2  0  0  0  0  0  0
  196.7000  173.6080  139.1150 C   0  0  0  0  0  2  0  0  0  0  0  0
  188.7720  173.5240  142.9410 C   0  0  1  0  0  3  0  0  0  0  0  0
  194.1560  169.2640  137.4360 O   0  0  0  0  0  1  0  0  0  0  0  0
  194.1880  174.1190  141.7990 C   0  0  0  0  0  3  0  0  0  0  0  0
  191.0470  174.6480  142.6650 C   0  0  0  0  0  2  0  0  0  0  0  0
  195.8890  173.7500  137.8380 C   0  0  2  0  0  3  0  0  0  0  0  0
  192.6970  170.6810  136.0550 C   0  0  2  0  0  0  0  0  0  0  0  0
  193.9990  171.4970  135.9070 C   0  0  0  0  0  2  0  0  0  0  0  0
  195.8210  173.1500  140.2650 C   0  0  0  0  0  2  0  0  0  0  0  0
  194.2980  172.3660  137.1230 C   0  0  0  0  0  2  0  0  0  0  0  0
  188.3650  175.0910  140.9570 C   0  0  0  0  0  2  0  0  0  0  0  0
  190.0490  174.0320  143.6300 C   0  0  0  0  0  2  0  0  0  0  0  0
  193.4140  175.2240  142.3820 C   0  0  0  0  0  0  0  0  0  0  0  0
  195.6870  172.4880  137.2680 O   0  0  0  0  0  0  0  0  0  0  0  0
  188.5560  173.9030  140.0180 C   0  0  0  0  0  2  0  0  0  0  0  0
  191.6450  171.5480  136.4360 O   0  0  0  0  0  0  0  0  0  0  0  0
  189.5620  172.9230  140.6180 C   0  0  2  0  0  3  0  0  0  0  0  0
  195.0620  174.3070  140.8160 C   0  0  0  0  0  3  0  0  0  0  0  0
  192.1230  170.1430  138.2990 C   0  0  0  0  0  2  0  0  0  0  0  0
  192.3560  174.9070  143.3810 C   0  0  0  0  0  2  0  0  0  0  0  0
  187.8690  174.6120  142.3210 C   0  0  2  0  0  3  0  0  0  0  0  0
  190.7830  172.2230  138.5700 C   0  0  0  0  0  2  0  0  0  0  0  0
  193.5070  176.4230  141.9090 N   0  0  0  0  0  2  0  0  0  0  0  0
  187.5940  175.7470  143.2540 C   0  0  0  0  0  0  0  0  0  0  0  0
  188.2100  176.8350  143.0900 O   0  0  0  0  0  0  0  0  0  0  0  0
  186.6230  175.5940  144.3050 N   0  0  0  0  0  2  0  0  0  0  0  0
  184.6980  178.5760  145.7030 C   0  0  0  0  0  2  0  0  0  0  0  0
  185.2700  177.5550  144.7560 C   0  0  0  0  0  3  0  0  0  0  0  0
  186.1330  176.6180  145.1800 C   0  0  0  0  0  0  0  0  0  0  0  0
  185.7180  178.9160  146.8020 C   0  0  2  0  0  3  0  0  0  0  0  0
  186.3850  177.6860  147.3690 C   0  0  0  0  0  3  0  0  0  0  0  0
  186.5960  176.6270  146.5830 C   0  0  0  0  0  3  0  0  0  0  0  0
  186.2870  180.4950  148.3660 C   0  0  0  0  0  1  0  0  0  0  0  0
  185.2170  179.7980  147.7860 O   0  0  0  0  0  0  0  0  0  0  0  0
  197.2300  175.2930  136.1170 C   0  0  0  0  0  0  0  0  0  0  0  0
  196.6260  174.5970  136.8940 C   0  0  0  0  0  0  0  0  0  0  0  0
  197.9350  176.1020  135.2160 N   0  0  0  0  0  1  0  0  0  0  0  0
  192.3690  170.0460  134.6880 C   0  0  2  0  0  3  0  0  0  0  0  0
  190.9840  169.9440  134.5170 O   0  0  0  0  0  1  0  0  0  0  0  0
  192.9850  168.6600  134.5130 C   0  0  0  0  0  2  0  0  0  0  0  0
  194.3770  168.7470  134.5540 O   0  0  0  0  0  1  0  0  0  0  0  0
  1  7  1  1  0  0  0
  1 23  1  0  0  0  0
  2 23  1  1  0  0  0
  2 26  1  0  0  0  0
  5 13  1  0  0  0  0
  6  4  1  6  0  0  0
  6 16  1  0  0  0  0
  8 17  1  0  0  0  0
  9 24  1  0  0  0  0
  9 16  1  0  0  0  0
 10 40  1  6  0  0  0
 10  5  1  0  0  0  0
 11 42  1  6  0  0  0
 11 20  1  0  0  0  0
 11  1  1  0  0  0  0
 12 11  1  0  0  0  0
 12 14  1  0  0  0  0
 13 22  1  0  0  0  0
 14 18  1  0  0  0  0
 15 25  1  0  0  0  0
 17 24  1  0  0  0  0
 18 10  1  0  0  0  0
 19 21  1  0  0  0  0
 19 15  1  0  0  0  0
 20  2  1  0  0  0  0
 21  3  1  6  0  0  0
 21  4  1  0  0  0  0
 22  8  2  0  0  0  0
 25  6  1  0  0  0  0
 25 28  1  1  0  0  0
 26  3  1  0  0  0  0
 27 17  2  0  0  0  0
 28 30  1  0  0  0  0
 29 28  2  0  0  0  0
 30 33  1  0  0  0  0
 31 34  1  0  0  0  0
 32 33  2  0  0  0  0
 32 31  1  0  0  0  0
 33 36  1  0  0  0  0
 34 35  1  0  0  0  0
 34 38  1  1  0  0  0
 36 35  2  0  0  0  0
 38 37  1  0  0  0  0
 39 40  3  0  0  0  0
 41 39  1  0  0  0  0
 42 43  1  1  0  0  0
 44 45  1  0  0  0  0
 44 42  1  0  0  0  0
M  END
>  <MODEL>
5

>  <REMARK>
 VINA RESULT:      -5.0      4.673      7.542
  Name = 
  6 active torsions:
  status: ('A' for Active; 'I' for Inactive)
    1  A    between atoms: C_1  and  C_11
    2  A    between atoms: C_11  and  C_16
    3  A    between atoms: C_14  and  C_38
    4  A    between atoms: C_25  and  N_44
    5  A    between atoms: O_26  and  C_29
    6  A    between atoms: C_27  and  C_41
                            x       y       z     vdW  Elec       q    Type
                         _______ _______ _______ _____ _____    ______ ____

>  <TORSDO>
F 6

$$$$
=
 OpenBabel11072408593D

 45 48  0  0  1  0  0  0  0  0999 V2000
  193.5560  169.1750  136.7360 C   0  0  2  0  0  3  0  0  0  0  0  0
  192.0340  170.3990  138.0060 C   0  0  1  0  0  3  0  0  0  0  0  0
  191.3890  170.6540  140.4020 C   0  0  0  0  0  2  0  0  0  0  0  0
  191.3090  170.8090  142.8880 C   0  0  0  0  0  2  0  0  0  0  0  0
  197.7160  173.1320  138.2280 C   0  0  0  0  0  2  0  0  0  0  0  0
  191.3130  171.7410  144.1070 C   0  0  1  0  0  3  0  0  0  0  0  0
  194.9240  168.9260  136.5920 O   0  0  0  0  0  1  0  0  0  0  0  0
  196.1130  172.9760  141.5710 C   0  0  0  0  0  3  0  0  0  0  0  0
  193.3630  173.0840  143.3940 C   0  0  0  0  0  2  0  0  0  0  0  0
  196.5550  173.4140  137.2900 C   0  0  2  0  0  3  0  0  0  0  0  0
  193.0740  170.4220  135.9780 C   0  0  2  0  0  0  0  0  0  0  0  0
  194.2430  171.3590  135.6110 C   0  0  0  0  0  2  0  0  0  0  0  0
  197.2390  172.4170  139.4790 C   0  0  0  0  0  2  0  0  0  0  0  0
  194.8660  172.0370  136.8260 C   0  0  0  0  0  2  0  0  0  0  0  0
  190.2780  173.5740  142.6490 C   0  0  0  0  0  2  0  0  0  0  0  0
  192.7210  172.2330  144.4770 C   0  0  0  0  0  2  0  0  0  0  0  0
  195.5150  173.8980  142.5470 C   0  0  0  0  0  0  0  0  0  0  0  0
  196.2300  172.2510  136.5820 O   0  0  0  0  0  0  0  0  0  0  0  0
  190.2150  172.5780  141.4940 C   0  0  0  0  0  2  0  0  0  0  0  0
  192.1580  171.1210  136.8010 O   0  0  0  0  0  0  0  0  0  0  0  0
  191.3860  171.6020  141.5850 C   0  0  2  0  0  3  0  0  0  0  0  0
  196.6440  173.3970  140.4290 C   0  0  0  0  0  3  0  0  0  0  0  0
  193.2180  169.4730  138.1550 C   0  0  0  0  0  2  0  0  0  0  0  0
  194.8170  173.3310  143.7340 C   0  0  0  0  0  2  0  0  0  0  0  0
  190.2310  172.8350  143.9870 C   0  0  2  0  0  3  0  0  0  0  0  0
  191.9560  171.3570  139.1790 C   0  0  0  0  0  2  0  0  0  0  0  0
  195.4230  175.1630  142.2960 N   0  0  0  0  0  2  0  0  0  0  0  0
  190.2140  173.7720  145.1510 C   0  0  0  0  0  0  0  0  0  0  0  0
  189.6120  173.4270  146.2040 O   0  0  0  0  0  0  0  0  0  0  0  0
  190.8980  175.0350  145.0650 N   0  0  0  0  0  2  0  0  0  0  0  0
  192.5350  177.1540  147.7830 C   0  0  0  0  0  2  0  0  0  0  0  0
  192.3030  176.1080  146.7250 C   0  0  0  0  0  3  0  0  0  0  0  0
  191.1080  175.9740  146.1280 C   0  0  0  0  0  0  0  0  0  0  0  0
  191.2470  177.3960  148.5870 C   0  0  2  0  0  3  0  0  0  0  0  0
  190.0290  177.5090  147.7010 C   0  0  0  0  0  3  0  0  0  0  0  0
  189.9710  176.8120  146.5640 C   0  0  0  0  0  3  0  0  0  0  0  0
  191.5570  177.8760  150.8090 C   0  0  0  0  0  1  0  0  0  0  0  0
  191.3600  178.4350  149.5370 O   0  0  0  0  0  0  0  0  0  0  0  0
  197.2660  175.3310  135.5690 C   0  0  0  0  0  0  0  0  0  0  0  0
  196.9460  174.4650  136.3450 C   0  0  0  0  0  0  0  0  0  0  0  0
  197.6400  176.3340  134.6660 N   0  0  0  0  0  1  0  0  0  0  0  0
  192.3700  169.9970  134.6740 C   0  0  2  0  0  3  0  0  0  0  0  0
  191.1250  170.6280  134.5620 O   0  0  0  0  0  1  0  0  0  0  0  0
  192.1610  168.4880  134.5750 C   0  0  0  0  0  2  0  0  0  0  0  0
  190.8230  168.1740  134.8180 O   0  0  0  0  0  1  0  0  0  0  0  0
  1  7  1  1  0  0  0
  1 23  1  0  0  0  0
  2 23  1  1  0  0  0
  2 26  1  0  0  0  0
  5 13  1  0  0  0  0
  6  4  1  6  0  0  0
  6 16  1  0  0  0  0
  8 17  1  0  0  0  0
  9 24  1  0  0  0  0
  9 16  1  0  0  0  0
 10 40  1  6  0  0  0
 10  5  1  0  0  0  0
 11 42  1  6  0  0  0
 11  1  1  0  0  0  0
 11 20  1  0  0  0  0
 12 11  1  0  0  0  0
 12 14  1  0  0  0  0
 13 22  1  0  0  0  0
 15 25  1  0  0  0  0
 17 24  1  0  0  0  0
 18 14  1  0  0  0  0
 18 10  1  0  0  0  0
 19 21  1  0  0  0  0
 19 15  1  0  0  0  0
 20  2  1  0  0  0  0
 21  3  1  6  0  0  0
 21  4  1  0  0  0  0
 22  8  2  0  0  0  0
 25  6  1  0  0  0  0
 25 28  1  1  0  0  0
 26  3  1  0  0  0  0
 27 17  2  0  0  0  0
 28 29  2  0  0  0  0
 30 28  1  0  0  0  0
 30 33  1  0  0  0  0
 31 34  1  0  0  0  0
 32 31  1  0  0  0  0
 33 36  1  0  0  0  0
 33 32  2  0  0  0  0
 34 38  1  6  0  0  0
 35 34  1  0  0  0  0
 36 35  2  0  0  0  0
 38 37  1  0  0  0  0
 39 40  3  0  0  0  0
 41 39  1  0  0  0  0
 42 43  1  1  0  0  0
 44 42  1  0  0  0  0
 44 45  1  0  0  0  0
M  END
>  <MODEL>
6

>  <REMARK>
 VINA RESULT:      -5.0      5.901      9.346
  Name = 
  6 active torsions:
  status: ('A' for Active; 'I' for Inactive)
    1  A    between atoms: C_1  and  C_11
    2  A    between atoms: C_11  and  C_16
    3  A    between atoms: C_14  and  C_38
    4  A    between atoms: C_25  and  N_44
    5  A    between atoms: O_26  and  C_29
    6  A    between atoms: C_27  and  C_41
                            x       y       z     vdW  Elec       q    Type
                         _______ _______ _______ _____ _____    ______ ____

>  <TORSDO>
F 6

$$$$
=
 OpenBabel11072408593D

 45 48  0  0  1  0  0  0  0  0999 V2000
  196.6500  169.5110  140.1700 C   0  0  2  0  0  3  0  0  0  0  0  0
  194.4040  170.0700  140.4270 C   0  0  1  0  0  3  0  0  0  0  0  0
  192.8850  170.8970  142.2250 C   0  0  0  0  0  2  0  0  0  0  0  0
  191.8430  172.0050  144.2000 C   0  0  0  0  0  2  0  0  0  0  0  0
  197.8400  175.2930  139.5760 C   0  0  0  0  0  2  0  0  0  0  0  0
  191.0010  173.1850  144.7010 C   0  0  1  0  0  3  0  0  0  0  0  0
  197.9400  170.0360  140.3000 O   0  0  0  0  0  1  0  0  0  0  0  0
  195.3610  175.6860  142.3080 C   0  0  0  0  0  3  0  0  0  0  0  0
  192.3770  174.9930  143.5380 C   0  0  0  0  0  2  0  0  0  0  0  0
  197.1040  174.4530  138.5450 C   0  0  2  0  0  3  0  0  0  0  0  0
  195.9940  169.8190  138.8150 C   0  0  2  0  0  0  0  0  0  0  0  0
  196.6920  170.9890  138.0900 C   0  0  0  0  0  2  0  0  0  0  0  0
  197.2960  175.0380  140.9690 C   0  0  0  0  0  2  0  0  0  0  0  0
  196.4700  172.3310  138.7790 C   0  0  0  0  0  2  0  0  0  0  0  0
  189.8920  173.3100  142.3970 C   0  0  0  0  0  2  0  0  0  0  0  0
  191.8160  174.4790  144.8530 C   0  0  0  0  0  2  0  0  0  0  0  0
  194.1140  176.4220  142.5630 C   0  0  0  0  0  0  0  0  0  0  0  0
  197.5940  173.1430  138.5700 O   0  0  0  0  0  0  0  0  0  0  0  0
  190.6910  172.0780  141.9780 C   0  0  0  0  0  2  0  0  0  0  0  0
  194.6360  170.1530  139.0390 O   0  0  0  0  0  0  0  0  0  0  0  0
  192.0430  172.0700  142.6880 C   0  0  2  0  0  3  0  0  0  0  0  0
  196.0370  175.8060  141.1710 C   0  0  0  0  0  3  0  0  0  0  0  0
  195.7250  170.1310  141.1570 C   0  0  0  0  0  2  0  0  0  0  0  0
  193.3480  176.1230  143.8040 C   0  0  0  0  0  2  0  0  0  0  0  0
  189.6820  173.3140  143.9110 C   0  0  2  0  0  3  0  0  0  0  0  0
  193.4990  171.2050  140.8690 C   0  0  0  0  0  2  0  0  0  0  0  0
  193.5880  177.1710  141.6510 N   0  0  0  0  0  2  0  0  0  0  0  0
  188.8390  174.4640  144.3610 C   0  0  0  0  0  0  0  0  0  0  0  0
  188.9580  174.8810  145.5450 O   0  0  0  0  0  0  0  0  0  0  0  0
  187.9270  175.0900  143.4400 N   0  0  0  0  0  2  0  0  0  0  0  0
  185.1820  177.7360  143.3100 C   0  0  0  0  0  2  0  0  0  0  0  0
  186.0140  176.5180  143.0120 C   0  0  0  0  0  3  0  0  0  0  0  0
  187.1670  176.2850  143.6600 C   0  0  0  0  0  0  0  0  0  0  0  0
  186.0850  178.9140  143.7140 C   0  0  2  0  0  3  0  0  0  0  0  0
  187.1610  178.5060  144.6920 C   0  0  0  0  0  3  0  0  0  0  0  0
  187.6760  177.2750  144.6320 C   0  0  0  0  0  3  0  0  0  0  0  0
  184.1310  179.6820  144.6400 C   0  0  0  0  0  1  0  0  0  0  0  0
  185.3680  180.0680  144.1030 O   0  0  0  0  0  0  0  0  0  0  0  0
  197.4970  175.5040  136.1200 C   0  0  0  0  0  0  0  0  0  0  0  0
  197.3210  175.0290  137.2140 C   0  0  0  0  0  0  0  0  0  0  0  0
  197.7050  176.0530  134.8480 N   0  0  0  0  0  1  0  0  0  0  0  0
  196.0720  168.5750  137.9060 C   0  0  2  0  0  3  0  0  0  0  0  0
  197.4040  168.2920  137.5810 O   0  0  0  0  0  1  0  0  0  0  0  0
  195.2780  168.7330  136.6120 C   0  0  0  0  0  2  0  0  0  0  0  0
  196.0790  168.4030  135.5170 O   0  0  0  0  0  1  0  0  0  0  0  0
  1  7  1  6  0  0  0
  1 23  1  0  0  0  0
  2 26  1  1  0  0  0
  2 23  1  0  0  0  0
  3 21  1  0  0  0  0
  5 13  1  0  0  0  0
  6  4  1  6  0  0  0
  6 16  1  0  0  0  0
  8 17  1  0  0  0  0
  9 24  1  0  0  0  0
  9 16  1  0  0  0  0
 10 40  1  6  0  0  0
 10 18  1  0  0  0  0
 10  5  1  0  0  0  0
 11 42  1  6  0  0  0
 11 20  1  0  0  0  0
 11  1  1  0  0  0  0
 12 14  1  0  0  0  0
 12 11  1  0  0  0  0
 13 22  1  0  0  0  0
 15 25  1  0  0  0  0
 17 24  1  0  0  0  0
 18 14  1  0  0  0  0
 19 15  1  0  0  0  0
 20  2  1  0  0  0  0
 21 19  1  6  0  0  0
 21  4  1  0  0  0  0
 22  8  2  0  0  0  0
 25 28  1  1  0  0  0
 25  6  1  0  0  0  0
 26  3  1  0  0  0  0
 27 17  2  0  0  0  0
 28 29  2  0  0  0  0
 30 33  1  0  0  0  0
 30 28  1  0  0  0  0
 31 34  1  0  0  0  0
 32 31  1  0  0  0  0
 32 33  2  0  0  0  0
 33 36  1  0  0  0  0
 34 38  1  1  0  0  0
 34 35  1  0  0  0  0
 36 35  2  0  0  0  0
 38 37  1  0  0  0  0
 39 40  3  0  0  0  0
 41 39  1  0  0  0  0
 42 43  1  6  0  0  0
 44 42  1  0  0  0  0
 45 44  1  0  0  0  0
M  END
>  <MODEL>
7

>  <REMARK>
 VINA RESULT:      -4.8      4.264      7.270
  Name = 
  6 active torsions:
  status: ('A' for Active; 'I' for Inactive)
    1  A    between atoms: C_1  and  C_11
    2  A    between atoms: C_11  and  C_16
    3  A    between atoms: C_14  and  C_38
    4  A    between atoms: C_25  and  N_44
    5  A    between atoms: O_26  and  C_29
    6  A    between atoms: C_27  and  C_41
                            x       y       z     vdW  Elec       q    Type
                         _______ _______ _______ _____ _____    ______ ____

>  <TORSDO>
F 6

$$$$
=
 OpenBabel11072408593D

 45 48  0  0  1  0  0  0  0  0999 V2000
  194.4690  176.5640  143.1380 C   0  0  2  0  0  3  0  0  0  0  0  0
  192.2830  176.8950  143.8720 C   0  0  1  0  0  3  0  0  0  0  0  0
  190.1740  177.9290  143.0340 C   0  0  0  0  0  2  0  0  0  0  0  0
  188.2600  178.7790  141.6810 C   0  0  0  0  0  2  0  0  0  0  0  0
  192.5280  171.9110  140.0120 C   0  0  0  0  0  2  0  0  0  0  0  0
  186.8300  178.5160  141.1930 C   0  0  1  0  0  3  0  0  0  0  0  0
  195.2090  175.9860  142.1020 O   0  0  0  0  0  1  0  0  0  0  0  0
  189.6380  174.1140  139.2610 C   0  0  0  0  0  3  0  0  0  0  0  0
  187.2780  176.1490  140.3510 C   0  0  0  0  0  2  0  0  0  0  0  0
  192.6220  171.9530  141.5280 C   0  0  2  0  0  3  0  0  0  0  0  0
  194.1020  175.5770  144.2580 C   0  0  2  0  0  0  0  0  0  0  0  0
  194.2280  174.1110  143.7960 C   0  0  0  0  0  2  0  0  0  0  0  0
  191.8800  173.1740  139.4760 C   0  0  0  0  0  2  0  0  0  0  0  0
  193.1710  173.7180  142.7690 C   0  0  0  0  0  2  0  0  0  0  0  0
  186.4230  177.1090  143.2930 C   0  0  0  0  0  2  0  0  0  0  0  0
  186.7730  177.5400  140.0070 C   0  0  0  0  0  2  0  0  0  0  0  0
  188.1730  174.0830  139.3790 C   0  0  0  0  0  0  0  0  0  0  0  0
  193.7070  172.7490  141.9080 O   0  0  0  0  0  0  0  0  0  0  0  0
  187.8250  177.4740  143.7740 C   0  0  0  0  0  2  0  0  0  0  0  0
  192.7670  175.8270  144.6570 O   0  0  0  0  0  0  0  0  0  0  0  0
  188.7560  177.6450  142.5760 C   0  0  2  0  0  3  0  0  0  0  0  0
  190.4010  173.0880  139.6200 C   0  0  0  0  0  3  0  0  0  0  0  0
  193.1480  177.0400  142.6430 C   0  0  0  0  0  2  0  0  0  0  0  0
  187.4050  175.3250  139.0870 C   0  0  0  0  0  2  0  0  0  0  0  0
  185.8810  178.1990  142.3680 C   0  0  2  0  0  3  0  0  0  0  0  0
  190.8400  176.6380  143.4810 C   0  0  0  0  0  2  0  0  0  0  0  0
  187.5710  173.0680  139.9050 N   0  0  0  0  0  2  0  0  0  0  0  0
  184.4780  177.9230  141.9300 C   0  0  0  0  0  0  0  0  0  0  0  0
  184.1930  176.7810  141.4760 O   0  0  0  0  0  0  0  0  0  0  0  0
  183.4740  178.9460  142.0510 N   0  0  0  0  0  2  0  0  0  0  0  0
  179.6850  179.0400  142.4920 C   0  0  0  0  0  2  0  0  0  0  0  0
  181.1630  179.1170  142.7670 C   0  0  0  0  0  3  0  0  0  0  0  0
  182.0650  178.8010  141.8250 C   0  0  0  0  0  0  0  0  0  0  0  0
  179.3860  177.9080  141.4950 C   0  0  2  0  0  3  0  0  0  0  0  0
  180.3490  177.8970  140.3310 C   0  0  0  0  0  3  0  0  0  0  0  0
  181.6110  178.2940  140.5140 C   0  0  0  0  0  3  0  0  0  0  0  0
  177.7740  178.8090  140.1330 C   0  0  0  0  0  1  0  0  0  0  0  0
  178.0280  177.8360  141.1110 O   0  0  0  0  0  0  0  0  0  0  0  0
  192.9780  169.4690  142.4490 C   0  0  0  0  0  0  0  0  0  0  0  0
  192.8180  170.5900  142.0330 C   0  0  0  0  0  0  0  0  0  0  0  0
  193.1660  168.1680  142.9320 N   0  0  0  0  0  1  0  0  0  0  0  0
  195.0440  175.7850  145.4610 C   0  0  2  0  0  3  0  0  0  0  0  0
  195.6560  174.5770  145.8170 O   0  0  0  0  0  1  0  0  0  0  0  0
  194.3280  176.3470  146.6870 C   0  0  0  0  0  2  0  0  0  0  0  0
  194.2370  177.7370  146.5920 O   0  0  0  0  0  1  0  0  0  0  0  0
  1  7  1  6  0  0  0
  1 11  1  0  0  0  0
  2 23  1  6  0  0  0
  2 20  1  0  0  0  0
  3 26  1  0  0  0  0
  5 10  1  0  0  0  0
  6 16  1  6  0  0  0
  6  4  1  0  0  0  0
  6 25  1  0  0  0  0
  8 17  1  0  0  0  0
  8 22  2  0  0  0  0
 10 18  1  0  0  0  0
 10 40  1  6  0  0  0
 11 20  1  0  0  0  0
 11 42  1  1  0  0  0
 12 11  1  0  0  0  0
 13 22  1  0  0  0  0
 13  5  1  0  0  0  0
 14 12  1  0  0  0  0
 15 19  1  0  0  0  0
 16  9  1  0  0  0  0
 17 27  2  0  0  0  0
 18 14  1  0  0  0  0
 21  4  1  6  0  0  0
 21  3  1  0  0  0  0
 21 19  1  0  0  0  0
 23  1  1  0  0  0  0
 24 17  1  0  0  0  0
 24  9  1  0  0  0  0
 25 28  1  6  0  0  0
 25 15  1  0  0  0  0
 26  2  1  0  0  0  0
 28 30  1  0  0  0  0
 29 28  2  0  0  0  0
 31 32  1  0  0  0  0
 33 30  1  0  0  0  0
 33 32  2  0  0  0  0
 34 38  1  6  0  0  0
 34 31  1  0  0  0  0
 35 36  2  0  0  0  0
 35 34  1  0  0  0  0
 36 33  1  0  0  0  0
 37 38  1  0  0  0  0
 39 41  1  0  0  0  0
 40 39  3  0  0  0  0
 42 43  1  1  0  0  0
 42 44  1  0  0  0  0
 45 44  1  0  0  0  0
M  END
>  <MODEL>
8

>  <REMARK>
 VINA RESULT:      -3.7      1.576      2.071
  Name = 
  6 active torsions:
  status: ('A' for Active; 'I' for Inactive)
    1  A    between atoms: C_1  and  C_11
    2  A    between atoms: C_11  and  C_16
    3  A    between atoms: C_14  and  C_38
    4  A    between atoms: C_25  and  N_44
    5  A    between atoms: O_26  and  C_29
    6  A    between atoms: C_27  and  C_41
                            x       y       z     vdW  Elec       q    Type
                         _______ _______ _______ _____ _____    ______ ____

>  <TORSDO>
F 6

$$$$
