=
 OpenBabel11072408273D

 34 37  0  0  1  0  0  0  0  0999 V2000
  188.6520  174.8990  143.0690 C   0  0  0  0  0  2  0  0  0  0  0  0
  189.7900  174.5490  144.0070 C   0  0  0  0  0  2  0  0  0  0  0  0
  194.7130  176.2960  145.5440 C   0  0  2  0  0  3  0  0  0  0  0  0
  191.5380  176.4960  147.6070 C   0  0  0  0  0  2  0  0  0  0  0  0
  193.2810  176.0670  146.0190 C   0  0  2  0  0  0  0  0  0  0  0  0
  192.4380  174.6660  143.0920 S   0  0  0  0  0  0  0  0  0  0  0  0
  195.0430  177.7160  145.5860 N   0  0  0  0  0  1  0  0  0  0  0  0
  194.8840  175.7200  144.0910 C   0  0  1  0  0  3  0  0  0  0  0  0
  192.4790  176.8410  145.1380 O   0  0  0  0  0  0  0  0  0  0  0  0
  190.9430  175.5240  143.8310 C   0  0  2  0  0  3  0  0  0  0  0  0
  192.8750  176.5100  147.3910 C   0  0  0  0  0  2  0  0  0  0  0  0
  190.5930  176.0180  146.4970 C   0  0  0  0  0  2  0  0  0  0  0  0
  193.0770  174.5330  146.0090 C   0  0  0  0  0  1  0  0  0  0  0  0
  193.7380  175.9910  143.0700 C   0  0  0  0  0  2  0  0  0  0  0  0
  191.1590  176.4000  145.0920 C   0  0  1  0  0  3  0  0  0  0  0  0
  196.3600  176.8740  142.6000 O   0  0  0  0  0  0  0  0  0  0  0  0
  196.2280  176.0110  143.5070 C   0  0  0  0  0  0  0  0  0  0  0  0
  197.3440  175.3380  143.9840 O   0  0  0  0  0  1  0  0  0  0  0  0
  188.5440  176.2870  142.9680 O   0  0  0  0  0  0  0  0  0  0  0  0
  187.1700  176.5410  142.9690 C   0  0  1  0  0  3  0  0  0  0  0  0
  184.8580  179.0960  143.2180 C   0  0  2  0  0  3  0  0  0  0  0  0
  186.8850  177.8820  143.6570 C   0  0  1  0  0  3  0  0  0  0  0  0
  186.0750  176.8280  148.0380 O   0  0  0  0  0  1  0  0  0  0  0  0
  186.7380  177.8050  147.2960 C   0  0  2  0  0  3  0  0  0  0  0  0
  184.7590  179.5700  144.6790 C   0  0  0  0  0  2  0  0  0  0  0  0
  183.9990  178.0190  142.9940 O   0  0  0  0  0  1  0  0  0  0  0  0
  186.1840  178.7870  142.7900 O   0  0  0  0  0  0  0  0  0  0  0  0
  186.2480  177.7020  144.9650 N   0  0  2  0  0  0  0  0  0  0  0  0
  185.7590  178.9090  146.9330 C   0  0  0  0  0  2  0  0  0  0  0  0
  185.9450  179.0290  145.4450 C   0  0  2  0  0  3  0  0  0  0  0  0
  187.1890  177.2160  145.9620 C   0  0  0  0  0  2  0  0  0  0  0  0
  186.6300  176.5020  141.5460 C   0  0  0  0  0  2  0  0  0  0  0  0
  187.5140  177.1520  140.6840 O   0  0  0  0  0  0  0  0  0  0  0  0
  186.7510  177.4400  139.5530 C   0  0  0  0  0  1  0  0  0  0  0  0
  1  2  1  0  0  0  0
  3  7  1  6  0  0  0
  3  5  1  0  0  0  0
  5 13  1  6  0  0  0
  5 11  1  0  0  0  0
  6 10  1  0  0  0  0
  8 17  1  6  0  0  0
  8  3  1  0  0  0  0
  9  5  1  0  0  0  0
 10  2  1  1  0  0  0
 10 15  1  0  0  0  0
 11  4  1  0  0  0  0
 12  4  1  0  0  0  0
 14  6  1  0  0  0  0
 14  8  1  0  0  0  0
 15  9  1  0  0  0  0
 15 12  1  1  0  0  0
 16 17  2  0  0  0  0
 17 18  1  0  0  0  0
 19 20  1  0  0  0  0
 19  1  1  0  0  0  0
 20 32  1  6  0  0  0
 21 26  1  1  0  0  0
 21 25  1  0  0  0  0
 22 20  1  6  0  0  0
 22 28  1  0  0  0  0
 24 23  1  1  0  0  0
 27 21  1  0  0  0  0
 27 22  1  0  0  0  0
 28 30  1  0  0  0  0
 28 31  1  1  0  0  0
 29 24  1  0  0  0  0
 30 25  1  6  0  0  0
 30 29  1  0  0  0  0
 31 24  1  0  0  0  0
 33 32  1  0  0  0  0
 34 33  1  0  0  0  0
M  END
>  <MODEL>
1

>  <REMARK>
 VINA RESULT:      -7.5      0.000      0.000
  Name = 
  8 active torsions:
  status: ('A' for Active; 'I' for Inactive)
    1  A    between atoms: C_4  and  C_5
    2  A    between atoms: C_5  and  C_24
    3  A    between atoms: C_5  and  O_33
    4  A    between atoms: C_13  and  C_20
    5  A    between atoms: O_19  and  C_24
    6  A    between atoms: C_21  and  C_30
    7  A    between atoms: C_27  and  C_30
    8  A    between atoms: C_27  and  O_33
                            x       y       z     vdW  Elec       q    Type
                         _______ _______ _______ _____ _____    ______ ____

>  <TORSDO>
F 8

$$$$
=
 OpenBabel11072408273D

 34 37  0  0  1  0  0  0  0  0999 V2000
  189.0100  175.2780  143.8100 C   0  0  0  0  0  2  0  0  0  0  0  0
  190.3500  174.8210  144.3500 C   0  0  0  0  0  2  0  0  0  0  0  0
  195.6890  175.3840  143.4330 C   0  0  2  0  0  3  0  0  0  0  0  0
  193.9020  176.1210  146.6960 C   0  0  0  0  0  2  0  0  0  0  0  0
  194.6100  175.4340  144.5120 C   0  0  2  0  0  0  0  0  0  0  0  0
  192.2630  174.4320  142.3360 S   0  0  0  0  0  0  0  0  0  0  0  0
  196.3030  176.6960  143.2660 N   0  0  0  0  0  1  0  0  0  0  0  0
  195.0610  174.8780  142.0830 C   0  0  1  0  0  3  0  0  0  0  0  0
  193.6880  176.4150  144.0560 O   0  0  0  0  0  0  0  0  0  0  0  0
  191.4840  175.5390  143.6340 C   0  0  2  0  0  3  0  0  0  0  0  0
  194.9680  175.8650  145.9000 C   0  0  0  0  0  2  0  0  0  0  0  0
  192.4810  175.9260  146.1500 C   0  0  0  0  0  2  0  0  0  0  0  0
  194.0940  173.9830  144.6560 C   0  0  0  0  0  1  0  0  0  0  0  0
  193.6690  175.4510  141.6780 C   0  0  0  0  0  2  0  0  0  0  0  0
  192.4270  176.2670  144.6270 C   0  0  1  0  0  3  0  0  0  0  0  0
  195.8170  175.6500  139.9460 O   0  0  0  0  0  0  0  0  0  0  0  0
  196.0290  174.9140  140.9460 C   0  0  0  0  0  0  0  0  0  0  0  0
  197.1820  174.1440  141.0010 O   0  0  0  0  0  1  0  0  0  0  0  0
  188.9970  176.6700  143.7190 O   0  0  0  0  0  0  0  0  0  0  0  0
  187.7870  176.9780  143.0900 C   0  0  1  0  0  3  0  0  0  0  0  0
  184.9800  178.9920  143.0780 C   0  0  2  0  0  3  0  0  0  0  0  0
  187.1490  178.2050  143.7530 C   0  0  1  0  0  3  0  0  0  0  0  0
  186.0560  176.8420  147.9850 O   0  0  0  0  0  1  0  0  0  0  0  0
  186.5850  177.9620  147.3430 C   0  0  2  0  0  3  0  0  0  0  0  0
  184.6090  179.3790  144.5200 C   0  0  0  0  0  2  0  0  0  0  0  0
  184.3980  177.7700  142.7350 O   0  0  0  0  0  1  0  0  0  0  0  0
  186.3830  178.9780  142.8160 O   0  0  0  0  0  0  0  0  0  0  0  0
  186.4100  177.8480  144.9690 N   0  0  2  0  0  0  0  0  0  0  0  0
  185.4470  178.8540  146.8740 C   0  0  0  0  0  2  0  0  0  0  0  0
  185.7810  179.0650  145.4230 C   0  0  2  0  0  3  0  0  0  0  0  0
  187.3050  177.5290  146.0700 C   0  0  0  0  0  2  0  0  0  0  0  0
  188.0110  177.1850  141.5990 C   0  0  0  0  0  2  0  0  0  0  0  0
  187.0760  176.4490  140.8700 O   0  0  0  0  0  0  0  0  0  0  0  0
  186.6790  177.3060  139.8440 C   0  0  0  0  0  1  0  0  0  0  0  0
  1  2  1  0  0  0  0
  3  7  1  6  0  0  0
  3  5  1  0  0  0  0
  5 13  1  1  0  0  0
  5 11  1  0  0  0  0
  6 10  1  0  0  0  0
  8 17  1  6  0  0  0
  8  3  1  0  0  0  0
  9  5  1  0  0  0  0
  9 15  1  0  0  0  0
 10  2  1  1  0  0  0
 10 15  1  0  0  0  0
 11  4  1  0  0  0  0
 12  4  1  0  0  0  0
 14  8  1  0  0  0  0
 14  6  1  0  0  0  0
 15 12  1  1  0  0  0
 16 17  2  0  0  0  0
 17 18  1  0  0  0  0
 19  1  1  0  0  0  0
 20 32  1  6  0  0  0
 20 19  1  0  0  0  0
 21 26  1  1  0  0  0
 21 25  1  0  0  0  0
 22 20  1  6  0  0  0
 22 28  1  0  0  0  0
 24 23  1  6  0  0  0
 27 21  1  0  0  0  0
 27 22  1  0  0  0  0
 28 30  1  0  0  0  0
 28 31  1  1  0  0  0
 29 24  1  0  0  0  0
 30 25  1  6  0  0  0
 30 29  1  0  0  0  0
 31 24  1  0  0  0  0
 33 32  1  0  0  0  0
 34 33  1  0  0  0  0
M  END
>  <MODEL>
2

>  <REMARK>
 VINA RESULT:      -7.2      1.328      1.589
  Name = 
  8 active torsions:
  status: ('A' for Active; 'I' for Inactive)
    1  A    between atoms: C_4  and  C_5
    2  A    between atoms: C_5  and  C_24
    3  A    between atoms: C_5  and  O_33
    4  A    between atoms: C_13  and  C_20
    5  A    between atoms: O_19  and  C_24
    6  A    between atoms: C_21  and  C_30
    7  A    between atoms: C_27  and  C_30
    8  A    between atoms: C_27  and  O_33
                            x       y       z     vdW  Elec       q    Type
                         _______ _______ _______ _____ _____    ______ ____

>  <TORSDO>
F 8

$$$$
=
 OpenBabel11072408273D

 34 37  0  0  1  0  0  0  0  0999 V2000
  191.2110  175.8710  142.7230 C   0  0  0  0  0  2  0  0  0  0  0  0
  189.7100  175.6940  142.8400 C   0  0  0  0  0  2  0  0  0  0  0  0
  185.2440  178.4650  144.2650 C   0  0  2  0  0  3  0  0  0  0  0  0
  186.4860  177.9150  140.7250 C   0  0  0  0  0  2  0  0  0  0  0  0
  186.0280  177.9140  143.0770 C   0  0  2  0  0  0  0  0  0  0  0  0
  188.2320  176.4140  145.1120 S   0  0  0  0  0  0  0  0  0  0  0  0
  185.1980  179.9220  144.2140 N   0  0  0  0  0  1  0  0  0  0  0  0
  185.9010  177.9680  145.6050 C   0  0  1  0  0  3  0  0  0  0  0  0
  187.3150  178.5060  143.1870 O   0  0  0  0  0  0  0  0  0  0  0  0
  189.0840  176.9050  143.5150 C   0  0  2  0  0  3  0  0  0  0  0  0
  185.5820  178.2310  141.6830 C   0  0  0  0  0  2  0  0  0  0  0  0
  187.8160  177.2590  141.1190 C   0  0  0  0  0  2  0  0  0  0  0  0
  185.9390  176.3740  143.1940 C   0  0  0  0  0  1  0  0  0  0  0  0
  187.4560  177.9960  145.6980 C   0  0  0  0  0  2  0  0  0  0  0  0
  188.2940  177.7840  142.5100 C   0  0  1  0  0  3  0  0  0  0  0  0
  184.0670  178.2910  147.1110 O   0  0  0  0  0  0  0  0  0  0  0  0
  185.2610  178.5620  146.8180 C   0  0  0  0  0  0  0  0  0  0  0  0
  185.9980  179.4030  147.6400 O   0  0  0  0  0  1  0  0  0  0  0  0
  191.7540  176.0760  143.9920 O   0  0  0  0  0  0  0  0  0  0  0  0
  192.0870  174.7990  144.4510 C   0  0  1  0  0  3  0  0  0  0  0  0
  195.2900  175.7770  145.3020 C   0  0  2  0  0  3  0  0  0  0  0  0
  193.5720  174.5170  144.1890 C   0  0  1  0  0  3  0  0  0  0  0  0
  194.3800  170.4540  146.1370 O   0  0  0  0  0  1  0  0  0  0  0  0
  194.7180  171.1510  144.9780 C   0  0  2  0  0  3  0  0  0  0  0  0
  196.2000  174.5410  145.4180 C   0  0  0  0  0  2  0  0  0  0  0  0
  194.6380  176.0180  146.5130 O   0  0  0  0  0  1  0  0  0  0  0  0
  194.3560  175.7190  144.2240 O   0  0  0  0  0  0  0  0  0  0  0  0
  194.0880  173.4490  145.0500 N   0  0  2  0  0  0  0  0  0  0  0  0
  195.9450  172.0070  145.2470 C   0  0  0  0  0  2  0  0  0  0  0  0
  195.5020  173.3640  144.7750 C   0  0  2  0  0  3  0  0  0  0  0  0
  193.6090  172.1400  144.6340 C   0  0  0  0  0  2  0  0  0  0  0  0
  191.7310  174.6640  145.9250 C   0  0  0  0  0  2  0  0  0  0  0  0
  191.4630  175.9210  146.4670 O   0  0  0  0  0  0  0  0  0  0  0  0
  191.1920  175.6710  147.8120 C   0  0  0  0  0  1  0  0  0  0  0  0
  1  2  1  0  0  0  0
  1 19  1  0  0  0  0
  3  7  1  1  0  0  0
  3  8  1  0  0  0  0
  4 12  1  0  0  0  0
  4 11  1  0  0  0  0
  5  9  1  0  0  0  0
  5 13  1  1  0  0  0
  5  3  1  0  0  0  0
  6 14  1  0  0  0  0
  8 14  1  0  0  0  0
  8 17  1  1  0  0  0
 10  2  1  6  0  0  0
 10  6  1  0  0  0  0
 11  5  1  0  0  0  0
 15 12  1  6  0  0  0
 15  9  1  0  0  0  0
 15 10  1  0  0  0  0
 17 16  2  0  0  0  0
 17 18  1  0  0  0  0
 19 20  1  0  0  0  0
 20 32  1  1  0  0  0
 21 25  1  0  0  0  0
 21 26  1  1  0  0  0
 22 27  1  0  0  0  0
 22 20  1  1  0  0  0
 22 28  1  0  0  0  0
 24 29  1  0  0  0  0
 24 23  1  1  0  0  0
 27 21  1  0  0  0  0
 28 31  1  6  0  0  0
 30 28  1  0  0  0  0
 30 29  1  1  0  0  0
 30 25  1  0  0  0  0
 31 24  1  0  0  0  0
 32 33  1  0  0  0  0
 33 34  1  0  0  0  0
M  END
>  <MODEL>
3

>  <REMARK>
 VINA RESULT:      -7.2      2.456      8.839
  Name = 
  8 active torsions:
  status: ('A' for Active; 'I' for Inactive)
    1  A    between atoms: C_4  and  C_5
    2  A    between atoms: C_5  and  C_24
    3  A    between atoms: C_5  and  O_33
    4  A    between atoms: C_13  and  C_20
    5  A    between atoms: O_19  and  C_24
    6  A    between atoms: C_21  and  C_30
    7  A    between atoms: C_27  and  C_30
    8  A    between atoms: C_27  and  O_33
                            x       y       z     vdW  Elec       q    Type
                         _______ _______ _______ _____ _____    ______ ____

>  <TORSDO>
F 8

$$$$
=
 OpenBabel11072408273D

 34 37  0  0  1  0  0  0  0  0999 V2000
  191.1150  175.6150  142.6620 C   0  0  0  0  0  2  0  0  0  0  0  0
  189.6390  175.4380  142.9630 C   0  0  0  0  0  2  0  0  0  0  0  0
  185.3210  178.4620  144.3290 C   0  0  2  0  0  3  0  0  0  0  0  0
  186.5370  177.7850  140.8010 C   0  0  0  0  0  2  0  0  0  0  0  0
  186.0770  177.8500  143.1520 C   0  0  2  0  0  0  0  0  0  0  0  0
  188.1970  176.2750  145.2190 S   0  0  0  0  0  0  0  0  0  0  0  0
  185.3510  179.9180  144.2510 N   0  0  0  0  0  1  0  0  0  0  0  0
  185.9490  177.9560  145.6780 C   0  0  1  0  0  3  0  0  0  0  0  0
  187.3930  178.3770  143.2550 O   0  0  0  0  0  0  0  0  0  0  0  0
  189.0760  176.6920  143.6140 C   0  0  2  0  0  3  0  0  0  0  0  0
  185.6500  178.1640  141.7520 C   0  0  0  0  0  2  0  0  0  0  0  0
  187.8310  177.0680  141.2100 C   0  0  0  0  0  2  0  0  0  0  0  0
  185.9080  176.3190  143.2970 C   0  0  0  0  0  1  0  0  0  0  0  0
  187.5040  177.9050  145.7740 C   0  0  0  0  0  2  0  0  0  0  0  0
  188.3340  177.5920  142.5930 C   0  0  1  0  0  3  0  0  0  0  0  0
  184.1100  178.4780  147.1210 O   0  0  0  0  0  0  0  0  0  0  0  0
  185.3400  178.6030  146.8790 C   0  0  0  0  0  0  0  0  0  0  0  0
  186.1410  179.3320  147.7470 O   0  0  0  0  0  1  0  0  0  0  0  0
  191.7380  176.2350  143.7460 O   0  0  0  0  0  0  0  0  0  0  0  0
  192.5960  175.2640  144.2700 C   0  0  1  0  0  3  0  0  0  0  0  0
  195.7520  174.6110  145.5150 C   0  0  2  0  0  3  0  0  0  0  0  0
  194.0220  175.8190  144.3620 C   0  0  1  0  0  3  0  0  0  0  0  0
  195.7130  175.4820  140.1210 O   0  0  0  0  0  1  0  0  0  0  0  0
  195.7230  176.3780  141.1900 C   0  0  2  0  0  3  0  0  0  0  0  0
  196.8170  175.0500  144.4950 C   0  0  0  0  0  2  0  0  0  0  0  0
  195.3270  173.3090  145.2490 O   0  0  0  0  0  1  0  0  0  0  0  0
  194.6380  175.4980  145.6190 O   0  0  0  0  0  0  0  0  0  0  0  0
  194.8310  175.4500  143.1960 N   0  0  2  0  0  0  0  0  0  0  0  0
  196.8590  176.0190  142.1330 C   0  0  0  0  0  2  0  0  0  0  0  0
  196.1610  175.9410  143.4630 C   0  0  2  0  0  3  0  0  0  0  0  0
  194.4500  176.2060  142.0130 C   0  0  0  0  0  2  0  0  0  0  0  0
  192.0800  174.7830  145.6190 C   0  0  0  0  0  2  0  0  0  0  0  0
  191.5270  175.8520  146.3250 O   0  0  0  0  0  0  0  0  0  0  0  0
  191.4690  175.4060  147.6440 C   0  0  0  0  0  1  0  0  0  0  0  0
  1  2  1  0  0  0  0
  1 19  1  0  0  0  0
  3  7  1  6  0  0  0
  3  8  1  0  0  0  0
  4 12  1  0  0  0  0
  4 11  1  0  0  0  0
  5  9  1  0  0  0  0
  5 13  1  1  0  0  0
  5  3  1  0  0  0  0
  6 14  1  0  0  0  0
  8 14  1  0  0  0  0
  8 17  1  1  0  0  0
 10  2  1  6  0  0  0
 10  6  1  0  0  0  0
 11  5  1  0  0  0  0
 15 12  1  6  0  0  0
 15  9  1  0  0  0  0
 15 10  1  0  0  0  0
 17 16  2  0  0  0  0
 17 18  1  0  0  0  0
 19 20  1  0  0  0  0
 20 32  1  1  0  0  0
 21 26  1  6  0  0  0
 21 27  1  0  0  0  0
 22 20  1  6  0  0  0
 22 27  1  0  0  0  0
 24 23  1  6  0  0  0
 24 31  1  0  0  0  0
 24 29  1  0  0  0  0
 25 21  1  0  0  0  0
 28 31  1  6  0  0  0
 28 30  1  0  0  0  0
 28 22  1  0  0  0  0
 30 29  1  6  0  0  0
 30 25  1  0  0  0  0
 32 33  1  0  0  0  0
 33 34  1  0  0  0  0
M  END
>  <MODEL>
4

>  <REMARK>
 VINA RESULT:      -7.1      2.001      8.997
  Name = 
  8 active torsions:
  status: ('A' for Active; 'I' for Inactive)
    1  A    between atoms: C_4  and  C_5
    2  A    between atoms: C_5  and  C_24
    3  A    between atoms: C_5  and  O_33
    4  A    between atoms: C_13  and  C_20
    5  A    between atoms: O_19  and  C_24
    6  A    between atoms: C_21  and  C_30
    7  A    between atoms: C_27  and  C_30
    8  A    between atoms: C_27  and  O_33
                            x       y       z     vdW  Elec       q    Type
                         _______ _______ _______ _____ _____    ______ ____

>  <TORSDO>
F 8

$$$$
=
 OpenBabel11072408273D

 34 37  0  0  1  0  0  0  0  0999 V2000
  191.1440  175.7640  142.6460 C   0  0  0  0  0  2  0  0  0  0  0  0
  189.6790  175.5370  142.9660 C   0  0  0  0  0  2  0  0  0  0  0  0
  185.2750  178.4520  144.2940 C   0  0  2  0  0  3  0  0  0  0  0  0
  186.5400  177.8090  140.7770 C   0  0  0  0  0  2  0  0  0  0  0  0
  186.0570  177.8600  143.1240 C   0  0  2  0  0  0  0  0  0  0  0  0
  188.1960  176.3350  145.2090 S   0  0  0  0  0  0  0  0  0  0  0  0
  185.2690  179.9080  144.2180 N   0  0  0  0  0  1  0  0  0  0  0  0
  185.9030  177.9590  145.6490 C   0  0  1  0  0  3  0  0  0  0  0  0
  187.3580  178.4190  143.2390 O   0  0  0  0  0  0  0  0  0  0  0  0
  189.0790  176.7750  143.6130 C   0  0  2  0  0  3  0  0  0  0  0  0
  185.6340  178.1650  141.7200 C   0  0  0  0  0  2  0  0  0  0  0  0
  187.8470  177.1240  141.1980 C   0  0  0  0  0  2  0  0  0  0  0  0
  185.9240  176.3250  143.2660 C   0  0  0  0  0  1  0  0  0  0  0  0
  187.4580  177.9470  145.7590 C   0  0  0  0  0  2  0  0  0  0  0  0
  188.3240  177.6580  142.5860 C   0  0  1  0  0  3  0  0  0  0  0  0
  184.0630  178.3540  147.1310 O   0  0  0  0  0  0  0  0  0  0  0  0
  185.2660  178.5910  146.8450 C   0  0  0  0  0  0  0  0  0  0  0  0
  186.0160  179.4290  147.6590 O   0  0  0  0  0  1  0  0  0  0  0  0
  191.8400  176.0270  143.8260 O   0  0  0  0  0  0  0  0  0  0  0  0
  192.6700  174.9180  144.0090 C   0  0  1  0  0  3  0  0  0  0  0  0
  195.5810  173.8520  145.5340 C   0  0  2  0  0  3  0  0  0  0  0  0
  194.0650  175.3730  144.4550 C   0  0  1  0  0  3  0  0  0  0  0  0
  196.4160  175.9900  140.5750 O   0  0  0  0  0  1  0  0  0  0  0  0
  196.2570  176.6020  141.8180 C   0  0  2  0  0  3  0  0  0  0  0  0
  196.7980  174.4770  144.8290 C   0  0  0  0  0  2  0  0  0  0  0  0
  195.2010  172.6710  144.8960 O   0  0  0  0  0  1  0  0  0  0  0  0
  194.4680  174.7350  145.6760 O   0  0  0  0  0  0  0  0  0  0  0  0
  195.0500  175.2600  143.3740 N   0  0  2  0  0  0  0  0  0  0  0  0
  197.2240  175.9810  142.8110 C   0  0  0  0  0  2  0  0  0  0  0  0
  196.3210  175.6160  143.9560 C   0  0  2  0  0  3  0  0  0  0  0  0
  194.8670  176.2930  142.3660 C   0  0  0  0  0  2  0  0  0  0  0  0
  192.0390  173.9520  145.0020 C   0  0  0  0  0  2  0  0  0  0  0  0
  191.9260  172.6850  144.4270 O   0  0  0  0  0  0  0  0  0  0  0  0
  190.5790  172.3570  144.5680 C   0  0  0  0  0  1  0  0  0  0  0  0
  1  2  1  0  0  0  0
  1 19  1  0  0  0  0
  3  7  1  1  0  0  0
  3  8  1  0  0  0  0
  4 12  1  0  0  0  0
  4 11  1  0  0  0  0
  5  9  1  0  0  0  0
  5 13  1  1  0  0  0
  5  3  1  0  0  0  0
  6 14  1  0  0  0  0
  8 14  1  0  0  0  0
  8 17  1  1  0  0  0
 10  2  1  6  0  0  0
 10  6  1  0  0  0  0
 11  5  1  0  0  0  0
 15 12  1  6  0  0  0
 15  9  1  0  0  0  0
 15 10  1  0  0  0  0
 17 16  2  0  0  0  0
 17 18  1  0  0  0  0
 19 20  1  0  0  0  0
 20 32  1  1  0  0  0
 21 26  1  6  0  0  0
 21 27  1  0  0  0  0
 22 20  1  6  0  0  0
 22 27  1  0  0  0  0
 24 23  1  6  0  0  0
 24 31  1  0  0  0  0
 24 29  1  0  0  0  0
 25 21  1  0  0  0  0
 28 31  1  6  0  0  0
 28 30  1  0  0  0  0
 28 22  1  0  0  0  0
 30 29  1  6  0  0  0
 30 25  1  0  0  0  0
 33 34  1  0  0  0  0
 33 32  1  0  0  0  0
M  END
>  <MODEL>
5

>  <REMARK>
 VINA RESULT:      -7.0      2.214      9.044
  Name = 
  8 active torsions:
  status: ('A' for Active; 'I' for Inactive)
    1  A    between atoms: C_4  and  C_5
    2  A    between atoms: C_5  and  C_24
    3  A    between atoms: C_5  and  O_33
    4  A    between atoms: C_13  and  C_20
    5  A    between atoms: O_19  and  C_24
    6  A    between atoms: C_21  and  C_30
    7  A    between atoms: C_27  and  C_30
    8  A    between atoms: C_27  and  O_33
                            x       y       z     vdW  Elec       q    Type
                         _______ _______ _______ _____ _____    ______ ____

>  <TORSDO>
F 8

$$$$
=
 OpenBabel11072408273D

 34 37  0  0  1  0  0  0  0  0999 V2000
  189.9800  176.9360  143.2720 C   0  0  0  0  0  2  0  0  0  0  0  0
  191.4110  177.4270  143.1860 C   0  0  0  0  0  2  0  0  0  0  0  0
  193.9470  172.9870  145.0610 C   0  0  2  0  0  3  0  0  0  0  0  0
  194.5770  176.5520  146.1890 C   0  0  0  0  0  2  0  0  0  0  0  0
  193.7790  174.4900  145.2630 C   0  0  2  0  0  0  0  0  0  0  0  0
  191.4200  174.6380  142.8840 S   0  0  0  0  0  0  0  0  0  0  0  0
  195.3200  172.6730  144.6850 N   0  0  0  0  0  1  0  0  0  0  0  0
  192.9330  172.4870  143.9670 C   0  0  1  0  0  3  0  0  0  0  0  0
  194.1500  175.0660  144.0180 O   0  0  0  0  0  0  0  0  0  0  0  0
  192.3580  176.2620  142.9410 C   0  0  2  0  0  3  0  0  0  0  0  0
  194.6220  175.2010  146.2770 C   0  0  0  0  0  2  0  0  0  0  0  0
  193.6840  177.2170  145.1330 C   0  0  0  0  0  2  0  0  0  0  0  0
  192.3190  174.6900  145.7350 C   0  0  0  0  0  1  0  0  0  0  0  0
  192.7590  173.3660  142.6920 C   0  0  0  0  0  2  0  0  0  0  0  0
  193.6190  176.3410  143.8410 C   0  0  1  0  0  3  0  0  0  0  0  0
  193.5510  170.7020  142.4950 O   0  0  0  0  0  0  0  0  0  0  0  0
  193.1160  171.0430  143.6260 C   0  0  0  0  0  0  0  0  0  0  0  0
  192.8220  170.0720  144.5730 O   0  0  0  0  0  1  0  0  0  0  0  0
  189.1860  177.9220  143.8590 O   0  0  0  0  0  0  0  0  0  0  0  0
  187.8970  177.6810  143.3750 C   0  0  1  0  0  3  0  0  0  0  0  0
  184.6430  178.8370  143.2540 C   0  0  2  0  0  3  0  0  0  0  0  0
  186.8940  178.6110  144.0680 C   0  0  1  0  0  3  0  0  0  0  0  0
  185.9400  176.5800  148.0580 O   0  0  0  0  0  1  0  0  0  0  0  0
  186.1740  177.8600  147.5590 C   0  0  2  0  0  3  0  0  0  0  0  0
  184.0800  178.9590  144.6810 C   0  0  0  0  0  2  0  0  0  0  0  0
  184.4550  177.5440  142.7640 O   0  0  0  0  0  1  0  0  0  0  0  0
  186.0080  179.2350  143.1260 O   0  0  0  0  0  0  0  0  0  0  0  0
  186.2040  177.9450  145.1770 N   0  0  2  0  0  0  0  0  0  0  0  0
  184.8670  178.4490  147.0550 C   0  0  0  0  0  2  0  0  0  0  0  0
  185.2270  178.8890  145.6630 C   0  0  2  0  0  3  0  0  0  0  0  0
  187.0740  177.7730  146.3300 C   0  0  0  0  0  2  0  0  0  0  0  0
  187.8690  177.8350  141.8610 C   0  0  0  0  0  2  0  0  0  0  0  0
  187.2190  176.7450  141.2830 O   0  0  0  0  0  0  0  0  0  0  0  0
  186.7930  177.2090  140.0400 C   0  0  0  0  0  1  0  0  0  0  0  0
  1 19  1  0  0  0  0
  2  1  1  0  0  0  0
  3  7  1  6  0  0  0
  3  5  1  0  0  0  0
  4 11  1  0  0  0  0
  5 13  1  1  0  0  0
  5 11  1  0  0  0  0
  6 10  1  0  0  0  0
  8 17  1  6  0  0  0
  8  3  1  0  0  0  0
  9  5  1  0  0  0  0
 10  2  1  1  0  0  0
 10 15  1  0  0  0  0
 12  4  1  0  0  0  0
 14  6  1  0  0  0  0
 14  8  1  0  0  0  0
 15  9  1  0  0  0  0
 15 12  1  1  0  0  0
 16 17  2  0  0  0  0
 17 18  1  0  0  0  0
 20 32  1  6  0  0  0
 20 19  1  0  0  0  0
 21 26  1  1  0  0  0
 21 25  1  0  0  0  0
 22 20  1  6  0  0  0
 22 28  1  0  0  0  0
 24 23  1  6  0  0  0
 27 21  1  0  0  0  0
 27 22  1  0  0  0  0
 28 30  1  0  0  0  0
 28 31  1  1  0  0  0
 29 24  1  0  0  0  0
 30 25  1  6  0  0  0
 30 29  1  0  0  0  0
 31 24  1  0  0  0  0
 33 32  1  0  0  0  0
 34 33  1  0  0  0  0
M  END
>  <MODEL>
6

>  <REMARK>
 VINA RESULT:      -7.0      2.351      2.846
  Name = 
  8 active torsions:
  status: ('A' for Active; 'I' for Inactive)
    1  A    between atoms: C_4  and  C_5
    2  A    between atoms: C_5  and  C_24
    3  A    between atoms: C_5  and  O_33
    4  A    between atoms: C_13  and  C_20
    5  A    between atoms: O_19  and  C_24
    6  A    between atoms: C_21  and  C_30
    7  A    between atoms: C_27  and  C_30
    8  A    between atoms: C_27  and  O_33
                            x       y       z     vdW  Elec       q    Type
                         _______ _______ _______ _____ _____    ______ ____

>  <TORSDO>
F 8

$$$$
=
 OpenBabel11072408273D

 34 37  0  0  1  0  0  0  0  0999 V2000
  191.7940  176.5940  142.7930 C   0  0  0  0  0  2  0  0  0  0  0  0
  191.0720  175.2610  142.7890 C   0  0  0  0  0  2  0  0  0  0  0  0
  186.9190  177.6060  145.4180 C   0  0  2  0  0  3  0  0  0  0  0  0
  189.2570  174.9820  146.8430 C   0  0  0  0  0  2  0  0  0  0  0  0
  188.1130  176.6700  145.5830 C   0  0  2  0  0  0  0  0  0  0  0  0
  189.0810  177.2010  142.4160 S   0  0  0  0  0  0  0  0  0  0  0  0
  185.6730  176.8920  145.6730 N   0  0  0  0  0  1  0  0  0  0  0  0
  186.9300  178.2230  143.9710 C   0  0  1  0  0  3  0  0  0  0  0  0
  187.8830  175.6220  144.6510 O   0  0  0  0  0  0  0  0  0  0  0  0
  189.5730  175.4680  142.9420 C   0  0  2  0  0  3  0  0  0  0  0  0
  188.3350  175.9740  146.8900 C   0  0  0  0  0  2  0  0  0  0  0  0
  189.9900  174.6870  145.5280 C   0  0  0  0  0  2  0  0  0  0  0  0
  189.3680  177.5500  145.3710 C   0  0  0  0  0  1  0  0  0  0  0  0
  187.2620  177.2690  142.7840 C   0  0  0  0  0  2  0  0  0  0  0  0
  189.0520  174.9490  144.3070 C   0  0  1  0  0  3  0  0  0  0  0  0
  185.5580  180.1620  144.2770 O   0  0  0  0  0  1  0  0  0  0  0  0
  185.7250  179.0610  143.6900 C   0  0  0  0  0  0  0  0  0  0  0  0
  184.7910  178.6280  142.7590 O   0  0  0  0  0  0  0  0  0  0  0  0
  193.1120  176.4080  142.3760 O   0  0  0  0  0  0  0  0  0  0  0  0
  193.7120  175.6700  143.4000 C   0  0  1  0  0  3  0  0  0  0  0  0
  196.8690  176.0600  142.0510 C   0  0  2  0  0  3  0  0  0  0  0  0
  194.9220  174.9010  142.8530 C   0  0  1  0  0  3  0  0  0  0  0  0
  196.8170  172.9000  146.5080 O   0  0  0  0  0  1  0  0  0  0  0  0
  196.5310  172.6030  145.1760 C   0  0  2  0  0  3  0  0  0  0  0  0
  197.8110  174.9770  142.6060 C   0  0  0  0  0  2  0  0  0  0  0  0
  196.8370  177.1640  142.9040 O   0  0  0  0  0  1  0  0  0  0  0  0
  195.5480  175.5990  141.7660 O   0  0  0  0  0  0  0  0  0  0  0  0
  195.8500  174.5100  143.9190 N   0  0  2  0  0  0  0  0  0  0  0  0
  197.6810  173.0720  144.3000 C   0  0  0  0  0  2  0  0  0  0  0  0
  196.9770  173.8980  143.2580 C   0  0  2  0  0  3  0  0  0  0  0  0
  195.3230  173.4160  144.7190 C   0  0  0  0  0  2  0  0  0  0  0  0
  194.0910  176.5870  144.5540 C   0  0  0  0  0  2  0  0  0  0  0  0
  193.4260  176.1920  145.7140 O   0  0  0  0  0  0  0  0  0  0  0  0
  194.1860  176.7270  146.7530 C   0  0  0  0  0  1  0  0  0  0  0  0
  2  1  1  0  0  0  0
  3  5  1  0  0  0  0
  3  7  1  6  0  0  0
  4 11  1  0  0  0  0
  5 13  1  6  0  0  0
  5 11  1  0  0  0  0
  6 14  1  0  0  0  0
  6 10  1  0  0  0  0
  8 17  1  6  0  0  0
  8  3  1  0  0  0  0
  9  5  1  0  0  0  0
 10  2  1  1  0  0  0
 10 15  1  0  0  0  0
 12  4  1  0  0  0  0
 14  8  1  0  0  0  0
 15  9  1  0  0  0  0
 15 12  1  1  0  0  0
 17 16  1  0  0  0  0
 18 17  2  0  0  0  0
 19  1  1  0  0  0  0
 19 20  1  0  0  0  0
 20 32  1  1  0  0  0
 21 25  1  0  0  0  0
 21 26  1  1  0  0  0
 22 20  1  1  0  0  0
 22 28  1  0  0  0  0
 24 23  1  1  0  0  0
 27 21  1  0  0  0  0
 27 22  1  0  0  0  0
 28 31  1  1  0  0  0
 29 24  1  0  0  0  0
 30 25  1  1  0  0  0
 30 28  1  0  0  0  0
 30 29  1  0  0  0  0
 31 24  1  0  0  0  0
 32 33  1  0  0  0  0
 33 34  1  0  0  0  0
M  END
>  <MODEL>
7

>  <REMARK>
 VINA RESULT:      -7.0      2.039      8.752
  Name = 
  8 active torsions:
  status: ('A' for Active; 'I' for Inactive)
    1  A    between atoms: C_4  and  C_5
    2  A    between atoms: C_5  and  C_24
    3  A    between atoms: C_5  and  O_33
    4  A    between atoms: C_13  and  C_20
    5  A    between atoms: O_19  and  C_24
    6  A    between atoms: C_21  and  C_30
    7  A    between atoms: C_27  and  C_30
    8  A    between atoms: C_27  and  O_33
                            x       y       z     vdW  Elec       q    Type
                         _______ _______ _______ _____ _____    ______ ____

>  <TORSDO>
F 8

$$$$
=
 OpenBabel11072408273D

 34 37  0  0  1  0  0  0  0  0999 V2000
  189.3620  176.1870  143.5940 C   0  0  0  0  0  2  0  0  0  0  0  0
  190.5500  175.2630  143.7770 C   0  0  0  0  0  2  0  0  0  0  0  0
  195.9870  175.5150  143.6100 C   0  0  2  0  0  3  0  0  0  0  0  0
  193.8080  176.4150  146.5800 C   0  0  0  0  0  2  0  0  0  0  0  0
  194.7730  175.6460  144.5260 C   0  0  2  0  0  0  0  0  0  0  0  0
  192.6990  174.7280  142.0550 S   0  0  0  0  0  0  0  0  0  0  0  0
  196.6920  176.7880  143.5140 N   0  0  0  0  0  1  0  0  0  0  0  0
  195.5250  175.0160  142.1920 C   0  0  1  0  0  3  0  0  0  0  0  0
  193.9810  176.6660  143.9330 O   0  0  0  0  0  0  0  0  0  0  0  0
  191.8110  175.9030  143.2180 C   0  0  2  0  0  3  0  0  0  0  0  0
  194.9590  176.0850  145.9450 C   0  0  0  0  0  2  0  0  0  0  0  0
  192.4680  176.2860  145.8440 C   0  0  0  0  0  2  0  0  0  0  0  0
  194.1610  174.2280  144.6140 C   0  0  0  0  0  1  0  0  0  0  0  0
  194.2380  175.6550  141.5880 C   0  0  0  0  0  2  0  0  0  0  0  0
  192.6460  176.5990  144.3240 C   0  0  1  0  0  3  0  0  0  0  0  0
  197.4150  173.9830  141.1440 O   0  0  0  0  0  1  0  0  0  0  0  0
  196.6430  174.9760  141.2000 C   0  0  0  0  0  0  0  0  0  0  0  0
  196.8170  176.0350  140.3200 O   0  0  0  0  0  0  0  0  0  0  0  0
  188.2730  175.6890  144.3100 O   0  0  0  0  0  0  0  0  0  0  0  0
  187.8220  176.7680  145.0750 C   0  0  1  0  0  3  0  0  0  0  0  0
  185.0800  178.4840  146.2900 C   0  0  2  0  0  3  0  0  0  0  0  0
  186.2950  176.8770  144.9780 C   0  0  1  0  0  3  0  0  0  0  0  0
  185.4840  178.6680  140.8440 O   0  0  0  0  0  1  0  0  0  0  0  0
  184.9610  177.6890  141.6880 C   0  0  2  0  0  3  0  0  0  0  0  0
  184.0780  178.7400  145.1510 C   0  0  0  0  0  2  0  0  0  0  0  0
  186.0370  179.5000  146.3370 O   0  0  0  0  0  1  0  0  0  0  0  0
  185.7030  177.2000  146.2460 O   0  0  0  0  0  0  0  0  0  0  0  0
  185.8760  177.7630  143.8870 N   0  0  2  0  0  0  0  0  0  0  0  0
  183.9580  178.3270  142.6350 C   0  0  0  0  0  2  0  0  0  0  0  0
  184.4390  177.8550  143.9790 C   0  0  2  0  0  3  0  0  0  0  0  0
  186.0670  177.1430  142.5850 C   0  0  0  0  0  2  0  0  0  0  0  0
  188.2950  176.6230  146.5140 C   0  0  0  0  0  2  0  0  0  0  0  0
  188.1900  175.2920  146.9180 O   0  0  0  0  0  0  0  0  0  0  0  0
  189.4660  174.9630  147.3730 C   0  0  0  0  0  1  0  0  0  0  0  0
  1  2  1  0  0  0  0
  1 19  1  0  0  0  0
  3  7  1  6  0  0  0
  3  5  1  0  0  0  0
  5 13  1  6  0  0  0
  5 11  1  0  0  0  0
  6 10  1  0  0  0  0
  8 17  1  6  0  0  0
  8  3  1  0  0  0  0
  9 15  1  0  0  0  0
  9  5  1  0  0  0  0
 10  2  1  1  0  0  0
 10 15  1  0  0  0  0
 11  4  1  0  0  0  0
 12  4  1  0  0  0  0
 14  6  1  0  0  0  0
 14  8  1  0  0  0  0
 15 12  1  1  0  0  0
 16 17  1  0  0  0  0
 18 17  2  0  0  0  0
 19 20  1  0  0  0  0
 20 32  1  1  0  0  0
 21 26  1  6  0  0  0
 22 20  1  1  0  0  0
 22 27  1  0  0  0  0
 24 23  1  6  0  0  0
 24 31  1  0  0  0  0
 24 29  1  0  0  0  0
 25 21  1  0  0  0  0
 27 21  1  0  0  0  0
 28 31  1  6  0  0  0
 28 30  1  0  0  0  0
 28 22  1  0  0  0  0
 30 29  1  6  0  0  0
 30 25  1  0  0  0  0
 32 33  1  0  0  0  0
 33 34  1  0  0  0  0
M  END
>  <MODEL>
8

>  <REMARK>
 VINA RESULT:      -6.9      1.743      3.519
  Name = 
  8 active torsions:
  status: ('A' for Active; 'I' for Inactive)
    1  A    between atoms: C_4  and  C_5
    2  A    between atoms: C_5  and  C_24
    3  A    between atoms: C_5  and  O_33
    4  A    between atoms: C_13  and  C_20
    5  A    between atoms: O_19  and  C_24
    6  A    between atoms: C_21  and  C_30
    7  A    between atoms: C_27  and  C_30
    8  A    between atoms: C_27  and  O_33
                            x       y       z     vdW  Elec       q    Type
                         _______ _______ _______ _____ _____    ______ ____

>  <TORSDO>
F 8

$$$$
=
 OpenBabel11072408273D

 34 37  0  0  1  0  0  0  0  0999 V2000
  189.6830  176.7260  143.3110 C   0  0  0  0  0  2  0  0  0  0  0  0
  189.1040  175.5870  144.1260 C   0  0  0  0  0  2  0  0  0  0  0  0
  193.6360  172.5770  143.8760 C   0  0  2  0  0  3  0  0  0  0  0  0
  190.1840  171.5010  142.7320 C   0  0  0  0  0  2  0  0  0  0  0  0
  192.1650  172.6290  143.4710 C   0  0  2  0  0  0  0  0  0  0  0  0
  191.8480  175.7370  144.6910 S   0  0  0  0  0  0  0  0  0  0  0  0
  193.8720  171.4710  144.7960 N   0  0  0  0  0  1  0  0  0  0  0  0
  194.0530  173.9480  144.5230 C   0  0  1  0  0  3  0  0  0  0  0  0
  191.4590  172.7760  144.6950 O   0  0  0  0  0  0  0  0  0  0  0  0
  190.2120  174.8320  144.8440 C   0  0  2  0  0  3  0  0  0  0  0  0
  191.5360  171.4430  142.8080 C   0  0  0  0  0  2  0  0  0  0  0  0
  189.4430  172.7300  143.2740 C   0  0  0  0  0  2  0  0  0  0  0  0
  192.0550  173.7790  142.4410 C   0  0  0  0  0  1  0  0  0  0  0  0
  193.0560  174.6030  145.5270 C   0  0  0  0  0  2  0  0  0  0  0  0
  190.1880  173.3160  144.5160 C   0  0  1  0  0  3  0  0  0  0  0  0
  195.7300  174.5210  146.1340 O   0  0  0  0  0  1  0  0  0  0  0  0
  195.4490  173.9370  145.0540 C   0  0  0  0  0  0  0  0  0  0  0  0
  196.4420  173.2570  144.3610 O   0  0  0  0  0  0  0  0  0  0  0  0
  189.0470  177.9170  143.6620 O   0  0  0  0  0  0  0  0  0  0  0  0
  187.7200  177.7480  143.2590 C   0  0  1  0  0  3  0  0  0  0  0  0
  184.5020  178.9900  143.4630 C   0  0  2  0  0  3  0  0  0  0  0  0
  186.8010  178.6600  144.0820 C   0  0  1  0  0  3  0  0  0  0  0  0
  186.1000  176.4190  148.0110 O   0  0  0  0  0  1  0  0  0  0  0  0
  186.3320  177.7210  147.5700 C   0  0  2  0  0  3  0  0  0  0  0  0
  184.0540  179.0410  144.9340 C   0  0  0  0  0  2  0  0  0  0  0  0
  184.2370  177.7340  142.9150 O   0  0  0  0  0  1  0  0  0  0  0  0
  185.8640  179.3620  143.2500 O   0  0  0  0  0  0  0  0  0  0  0  0
  186.1800  177.9460  145.2020 N   0  0  2  0  0  0  0  0  0  0  0  0
  185.0080  178.3700  147.2050 C   0  0  0  0  0  2  0  0  0  0  0  0
  185.2720  178.8840  145.8170 C   0  0  2  0  0  3  0  0  0  0  0  0
  187.1310  177.6850  146.2700 C   0  0  0  0  0  2  0  0  0  0  0  0
  187.5900  178.0040  141.7640 C   0  0  0  0  0  2  0  0  0  0  0  0
  186.8590  176.9760  141.1670 O   0  0  0  0  0  0  0  0  0  0  0  0
  186.3600  177.5380  139.9930 C   0  0  0  0  0  1  0  0  0  0  0  0
  1 19  1  0  0  0  0
  1  2  1  0  0  0  0
  3  8  1  0  0  0  0
  3  7  1  1  0  0  0
  4 11  1  0  0  0  0
  4 12  1  0  0  0  0
  5 13  1  6  0  0  0
  5  3  1  0  0  0  0
  5  9  1  0  0  0  0
  6 10  1  0  0  0  0
  6 14  1  0  0  0  0
  8 17  1  1  0  0  0
  8 14  1  0  0  0  0
 10  2  1  6  0  0  0
 11  5  1  0  0  0  0
 15 12  1  6  0  0  0
 15  9  1  0  0  0  0
 15 10  1  0  0  0  0
 17 16  1  0  0  0  0
 18 17  2  0  0  0  0
 20 32  1  6  0  0  0
 20 19  1  0  0  0  0
 21 26  1  1  0  0  0
 21 25  1  0  0  0  0
 22 20  1  6  0  0  0
 22 28  1  0  0  0  0
 24 23  1  6  0  0  0
 27 21  1  0  0  0  0
 27 22  1  0  0  0  0
 28 30  1  0  0  0  0
 28 31  1  1  0  0  0
 29 24  1  0  0  0  0
 30 25  1  6  0  0  0
 30 29  1  0  0  0  0
 31 24  1  0  0  0  0
 33 32  1  0  0  0  0
 34 33  1  0  0  0  0
M  END
>  <MODEL>
9

>  <REMARK>
 VINA RESULT:      -6.9      2.164      3.033
  Name = 
  8 active torsions:
  status: ('A' for Active; 'I' for Inactive)
    1  A    between atoms: C_4  and  C_5
    2  A    between atoms: C_5  and  C_24
    3  A    between atoms: C_5  and  O_33
    4  A    between atoms: C_13  and  C_20
    5  A    between atoms: O_19  and  C_24
    6  A    between atoms: C_21  and  C_30
    7  A    between atoms: C_27  and  C_30
    8  A    between atoms: C_27  and  O_33
                            x       y       z     vdW  Elec       q    Type
                         _______ _______ _______ _____ _____    ______ ____

>  <TORSDO>
F 8

$$$$
