=
 OpenBabel11062422083D

 27 33  0  0  1  0  0  0  0  0999 V2000
  184.6100  179.0390  143.5310 F   0  0  0  0  0  0  0  0  0  0  0  0
  187.3720  176.9590  142.8120 C   0  0  0  0  0  0  0  0  0  0  0  0
  191.7470  174.0560  145.7630 O   0  0  0  0  0  1  0  0  0  0  0  0
  186.4870  177.0050  144.8810 C   0  0  2  0  0  3  0  0  0  0  0  0
  192.6160  175.3350  142.7960 C   0  0  0  0  0  2  0  0  0  0  0  0
  189.6830  176.0310  143.4010 N   0  0  0  0  0  2  0  0  0  0  0  0
  186.2730  177.3360  143.4840 C   0  0  0  0  0  0  0  0  0  0  0  0
  191.9690  177.2670  144.7890 C   0  0  0  0  0  2  0  0  0  0  0  0
  185.7140  178.5520  141.4790 C   0  0  1  0  0  3  0  0  0  0  0  0
  191.4630  174.3600  143.0090 C   0  0  0  0  0  2  0  0  0  0  0  0
  189.3160  174.6280  146.4680 S   0  0  0  0  0  0  0  0  0  0  0  0
  186.1510  177.5410  139.3880 N   0  0  0  0  0  2  0  0  0  0  0  0
  193.3530  176.7910  144.3410 C   0  0  0  0  0  2  0  0  0  0  0  0
  193.3640  175.4370  143.9750 O   0  0  0  0  0  0  0  0  0  0  0  0
  188.3480  176.4020  143.7500 C   0  0  0  0  0  0  0  0  0  0  0  0
  186.0590  177.2820  140.7790 C   0  0  2  0  0  0  0  0  0  0  0  0
  190.3790  174.8810  143.9660 C   0  0  1  0  0  3  0  0  0  0  0  0
  185.1840  178.2770  140.1600 N   0  0  1  0  0  0  0  0  0  0  0  0
  191.3580  176.4000  145.8880 C   0  0  0  0  0  2  0  0  0  0  0  0
  188.4870  176.2410  146.3080 C   0  0  0  0  0  0  0  0  0  0  0  0
  190.7890  175.0260  145.4570 C   0  0  2  0  0  0  0  0  0  0  0  0
  185.7330  177.2660  145.9440 C   0  0  0  0  0  3  0  0  0  0  0  0
  185.0960  177.9930  142.7700 C   0  0  2  0  0  3  0  0  0  0  0  0
  186.2560  176.9010  147.2790 C   0  0  0  0  0  3  0  0  0  0  0  0
  187.8130  176.4130  144.9750 C   0  0  0  0  0  0  0  0  0  0  0  0
  187.5000  176.4160  147.4460 C   0  0  0  0  0  3  0  0  0  0  0  0
  187.5030  177.2600  141.3200 C   0  0  0  0  0  2  0  0  0  0  0  0
  2  7  2  0  0  0  0
  2 15  1  0  0  0  0
  4 25  1  0  0  0  0
  4 22  1  1  0  0  0
  5 10  1  0  0  0  0
  5 14  1  0  0  0  0
  6 15  1  0  0  0  0
  6 17  1  0  0  0  0
  7  4  1  0  0  0  0
  8 19  1  0  0  0  0
  9 23  1  0  0  0  0
 10 17  1  0  0  0  0
 12 18  1  0  0  0  0
 12 16  1  0  0  0  0
 13  8  1  0  0  0  0
 14 13  1  0  0  0  0
 15 25  2  0  0  0  0
 16 27  1  0  0  0  0
 16  9  1  0  0  0  0
 17 21  1  0  0  0  0
 18 16  1  0  0  0  0
 18  9  1  0  0  0  0
 20 11  1  0  0  0  0
 20 26  2  0  0  0  0
 21  3  1  0  0  0  0
 21 19  1  0  0  0  0
 21 11  1  0  0  0  0
 22 24  2  0  0  0  0
 23  7  1  0  0  0  0
 23  1  1  0  0  0  0
 24 26  1  0  0  0  0
 25 20  1  0  0  0  0
 27  2  1  0  0  0  0
M  END
>  <MODEL>
1

>  <REMARK>
 VINA RESULT:      -8.3      0.000      0.000
  Name = 
  0 active torsions:
  status: ('A' for Active; 'I' for Inactive)
                            x       y       z     vdW  Elec       q    Type
                         _______ _______ _______ _____ _____    ______ ____

>  <TORSDO>
F 0

$$$$
=
 OpenBabel11062422083D

 27 33  0  0  1  0  0  0  0  0999 V2000
  186.3730  178.7790  144.7430 F   0  0  0  0  0  0  0  0  0  0  0  0
  187.7940  176.3610  142.5970 C   0  0  0  0  0  0  0  0  0  0  0  0
  191.9000  171.9600  142.8190 O   0  0  0  0  0  1  0  0  0  0  0  0
  187.9320  176.1250  144.8310 C   0  0  0  0  0  0  0  0  0  0  0  0
  191.7670  173.6600  139.9420 C   0  0  0  0  0  2  0  0  0  0  0  0
  189.7340  174.8320  141.9270 N   0  0  0  0  0  2  0  0  0  0  0  0
  187.2560  176.8070  143.7430 C   0  0  0  0  0  0  0  0  0  0  0  0
  192.6480  175.1770  142.1880 C   0  0  0  0  0  2  0  0  0  0  0  0
  186.2950  178.5440  142.3750 C   0  0  1  0  0  3  0  0  0  0  0  0
  190.5800  172.9440  140.5740 C   0  0  0  0  0  2  0  0  0  0  0  0
  190.3000  172.8800  144.6430 S   0  0  0  0  0  0  0  0  0  0  0  0
  185.4730  177.9690  140.2350 N   0  0  0  0  0  2  0  0  0  0  0  0
  193.4940  174.5210  141.0930 C   0  0  0  0  0  2  0  0  0  0  0  0
  192.9380  173.3210  140.6310 O   0  0  0  0  0  0  0  0  0  0  0  0
  188.8560  175.4000  142.9010 C   0  0  0  0  0  0  0  0  0  0  0  0
  185.9070  177.4240  141.4710 C   0  0  2  0  0  0  0  0  0  0  0  0
  190.2200  173.4580  141.9760 C   0  0  1  0  0  3  0  0  0  0  0  0
  185.1990  178.7040  141.4430 N   0  0  1  0  0  0  0  0  0  0  0  0
  192.3310  174.2390  143.3500 C   0  0  0  0  0  2  0  0  0  0  0  0
  190.0130  174.6290  145.0580 C   0  0  0  0  0  0  0  0  0  0  0  0
  191.2470  173.1620  143.1030 C   0  0  2  0  0  0  0  0  0  0  0  0
  187.8200  176.2960  146.1450 C   0  0  0  0  0  3  0  0  0  0  0  0
  186.1470  177.8550  143.7400 C   0  0  2  0  0  3  0  0  0  0  0  0
  188.7230  175.5280  147.0290 C   0  0  0  0  0  3  0  0  0  0  0  0
  188.9240  175.2480  144.2270 C   0  0  1  0  0  3  0  0  0  0  0  0
  189.7080  174.7530  146.5390 C   0  0  0  0  0  3  0  0  0  0  0  0
  187.3620  176.9590  141.2600 C   0  0  0  0  0  2  0  0  0  0  0  0
  2 15  2  0  0  0  0
  2  7  1  0  0  0  0
  3 21  1  0  0  0  0
  4 22  1  0  0  0  0
  5 10  1  0  0  0  0
  5 14  1  0  0  0  0
  6 17  1  0  0  0  0
  6 15  1  0  0  0  0
  7  4  2  0  0  0  0
  8 19  1  0  0  0  0
  9 23  1  0  0  0  0
 10 17  1  0  0  0  0
 11 20  1  0  0  0  0
 12 18  1  0  0  0  0
 12 16  1  0  0  0  0
 13  8  1  0  0  0  0
 14 13  1  0  0  0  0
 15 25  1  0  0  0  0
 16  9  1  0  0  0  0
 17 21  1  0  0  0  0
 18 16  1  0  0  0  0
 18  9  1  0  0  0  0
 20 26  2  0  0  0  0
 21 19  1  0  0  0  0
 21 11  1  0  0  0  0
 22 24  2  0  0  0  0
 23  7  1  0  0  0  0
 23  1  1  0  0  0  0
 25  4  1  0  0  0  0
 25 20  1  0  0  0  0
 26 24  1  0  0  0  0
 27 16  1  0  0  0  0
 27  2  1  0  0  0  0
M  END
>  <MODEL>
2

>  <REMARK>
 VINA RESULT:      -7.8      1.859      2.470
  Name = 
  0 active torsions:
  status: ('A' for Active; 'I' for Inactive)
                            x       y       z     vdW  Elec       q    Type
                         _______ _______ _______ _____ _____    ______ ____

>  <TORSDO>
F 0

$$$$
=
 OpenBabel11062422083D

 27 33  0  0  1  0  0  0  0  0999 V2000
  185.4280  179.1330  141.0390 F   0  0  0  0  0  0  0  0  0  0  0  0
  187.4780  176.5750  142.3530 C   0  0  0  0  0  0  0  0  0  0  0  0
  189.7700  174.8810  147.6600 O   0  0  0  0  0  1  0  0  0  0  0  0
  186.1410  177.7740  143.7100 C   0  0  2  0  0  3  0  0  0  0  0  0
  191.7480  174.3730  145.0100 C   0  0  0  0  0  2  0  0  0  0  0  0
  189.1360  175.7180  144.1050 N   0  0  0  0  0  2  0  0  0  0  0  0
  186.4180  177.3980  142.3350 C   0  0  0  0  0  0  0  0  0  0  0  0
  191.2440  177.1110  145.6190 C   0  0  0  0  0  2  0  0  0  0  0  0
  186.8210  177.5310  139.9620 C   0  0  1  0  0  3  0  0  0  0  0  0
  190.3330  173.8220  145.1470 C   0  0  0  0  0  2  0  0  0  0  0  0
  187.5500  176.0930  147.0800 S   0  0  0  0  0  0  0  0  0  0  0  0
  187.4520  175.5640  138.8130 N   0  0  0  0  0  2  0  0  0  0  0  0
  192.4730  176.2700  145.9730 C   0  0  0  0  0  2  0  0  0  0  0  0
  192.1510  174.9300  146.2300 O   0  0  0  0  0  0  0  0  0  0  0  0
  187.9440  176.4130  143.7320 C   0  0  0  0  0  0  0  0  0  0  0  0
  186.9190  176.0450  140.0370 C   0  0  2  0  0  0  0  0  0  0  0  0
  189.2580  174.9070  145.3110 C   0  0  1  0  0  3  0  0  0  0  0  0
  186.5990  176.7240  138.7810 N   0  0  1  0  0  0  0  0  0  0  0  0
  190.1230  177.0070  146.6520 C   0  0  0  0  0  2  0  0  0  0  0  0
  187.3450  177.5200  145.9680 C   0  0  0  0  0  0  0  0  0  0  0  0
  189.2840  175.7070  146.6420 C   0  0  2  0  0  0  0  0  0  0  0  0
  185.2560  178.6390  144.1950 C   0  0  0  0  0  3  0  0  0  0  0  0
  185.7410  177.7870  141.0250 C   0  0  2  0  0  3  0  0  0  0  0  0
  185.2650  178.9080  145.6490 C   0  0  0  0  0  3  0  0  0  0  0  0
  187.1370  177.1110  144.5370 C   0  0  0  0  0  0  0  0  0  0  0  0
  186.2010  178.3850  146.4620 C   0  0  0  0  0  3  0  0  0  0  0  0
  188.0860  176.0730  141.0450 C   0  0  0  0  0  2  0  0  0  0  0  0
  2 15  1  0  0  0  0
  4 22  1  6  0  0  0
  4 25  1  0  0  0  0
  5 10  1  0  0  0  0
  5 14  1  0  0  0  0
  6 17  1  0  0  0  0
  7  2  2  0  0  0  0
  7  4  1  0  0  0  0
  8 13  1  0  0  0  0
  8 19  1  0  0  0  0
  9 16  1  0  0  0  0
  9 23  1  0  0  0  0
 10 17  1  0  0  0  0
 12 16  1  0  0  0  0
 13 14  1  0  0  0  0
 15  6  1  0  0  0  0
 15 25  2  0  0  0  0
 16 27  1  0  0  0  0
 17 21  1  0  0  0  0
 18 12  1  0  0  0  0
 18  9  1  0  0  0  0
 18 16  1  0  0  0  0
 20 26  2  0  0  0  0
 20 11  1  0  0  0  0
 21 19  1  0  0  0  0
 21 11  1  0  0  0  0
 21  3  1  0  0  0  0
 22 24  2  0  0  0  0
 23  1  1  0  0  0  0
 23  7  1  0  0  0  0
 24 26  1  0  0  0  0
 25 20  1  0  0  0  0
 27  2  1  0  0  0  0
M  END
>  <MODEL>
3

>  <REMARK>
 VINA RESULT:      -7.6      1.558      2.002
  Name = 
  0 active torsions:
  status: ('A' for Active; 'I' for Inactive)
                            x       y       z     vdW  Elec       q    Type
                         _______ _______ _______ _____ _____    ______ ____

>  <TORSDO>
F 0

$$$$
=
 OpenBabel11062422083D

 27 33  0  0  1  0  0  0  0  0999 V2000
  187.7950  178.2910  144.6860 F   0  0  0  0  0  0  0  0  0  0  0  0
  187.7530  175.9290  142.0620 C   0  0  0  0  0  0  0  0  0  0  0  0
  190.4570  170.7560  140.5760 O   0  0  0  0  0  1  0  0  0  0  0  0
  188.5790  175.3750  144.0800 C   0  0  0  0  0  0  0  0  0  0  0  0
  189.7820  172.8110  138.0240 C   0  0  0  0  0  2  0  0  0  0  0  0
  188.9040  174.1210  140.6640 N   0  0  0  0  0  2  0  0  0  0  0  0
  187.7650  176.3260  143.3440 C   0  0  0  0  0  0  0  0  0  0  0  0
  191.7210  173.7910  139.8680 C   0  0  0  0  0  2  0  0  0  0  0  0
  186.8610  178.3940  142.4990 C   0  0  1  0  0  3  0  0  0  0  0  0
  188.7410  172.2910  139.0090 C   0  0  0  0  0  2  0  0  0  0  0  0
  189.8540  171.7500  142.8960 S   0  0  0  0  0  0  0  0  0  0  0  0
  185.2450  178.2990  140.7770 N   0  0  0  0  0  2  0  0  0  0  0  0
  191.9540  173.1190  138.5130 C   0  0  0  0  0  2  0  0  0  0  0  0
  190.9930  172.1390  138.2270 O   0  0  0  0  0  0  0  0  0  0  0  0
  188.5800  174.7300  141.9150 C   0  0  0  0  0  0  0  0  0  0  0  0
  185.9240  177.5150  141.7450 C   0  0  2  0  0  0  0  0  0  0  0  0
  189.0190  172.6800  140.4690 C   0  0  1  0  0  3  0  0  0  0  0  0
  185.5900  178.9090  142.0350 N   0  0  1  0  0  0  0  0  0  0  0  0
  191.5960  172.7970  141.0210 C   0  0  0  0  0  2  0  0  0  0  0  0
  190.1700  173.4490  143.4690 C   0  0  0  0  0  0  0  0  0  0  0  0
  190.2600  172.0230  141.1330 C   0  0  2  0  0  0  0  0  0  0  0  0
  188.9660  175.3900  145.3520 C   0  0  0  0  0  3  0  0  0  0  0  0
  187.0200  177.5780  143.7910 C   0  0  2  0  0  3  0  0  0  0  0  0
  189.8940  174.3350  145.8130 C   0  0  0  0  0  3  0  0  0  0  0  0
  189.0550  174.3920  143.1180 C   0  0  1  0  0  3  0  0  0  0  0  0
  190.4280  173.4380  144.9640 C   0  0  0  0  0  3  0  0  0  0  0  0
  187.0560  176.7780  141.0000 C   0  0  0  0  0  2  0  0  0  0  0  0
  2  7  1  0  0  0  0
  3 21  1  0  0  0  0
  4 22  1  0  0  0  0
  5 14  1  0  0  0  0
  5 10  1  0  0  0  0
  6 15  1  0  0  0  0
  7 23  1  0  0  0  0
  7  4  2  0  0  0  0
  8 19  1  0  0  0  0
  9 23  1  0  0  0  0
 10 17  1  0  0  0  0
 11 20  1  0  0  0  0
 12 16  1  0  0  0  0
 12 18  1  0  0  0  0
 13  8  1  0  0  0  0
 14 13  1  0  0  0  0
 15  2  2  0  0  0  0
 15 25  1  0  0  0  0
 16 18  1  0  0  0  0
 16  9  1  0  0  0  0
 17  6  1  0  0  0  0
 17 21  1  0  0  0  0
 18  9  1  0  0  0  0
 19 21  1  0  0  0  0
 20 26  2  0  0  0  0
 21 11  1  0  0  0  0
 22 24  2  0  0  0  0
 23  1  1  0  0  0  0
 25 20  1  0  0  0  0
 25  4  1  0  0  0  0
 26 24  1  0  0  0  0
 27 16  1  0  0  0  0
 27  2  1  0  0  0  0
M  END
>  <MODEL>
4

>  <REMARK>
 VINA RESULT:      -7.5      3.256      4.265
  Name = 
  0 active torsions:
  status: ('A' for Active; 'I' for Inactive)
                            x       y       z     vdW  Elec       q    Type
                         _______ _______ _______ _____ _____    ______ ____

>  <TORSDO>
F 0

$$$$
=
 OpenBabel11062422083D

 27 33  0  0  1  0  0  0  0  0999 V2000
  188.0830  174.9720  138.0500 F   0  0  0  0  0  0  0  0  0  0  0  0
  189.2960  174.2710  141.2910 C   0  0  0  0  0  0  0  0  0  0  0  0
  189.7410  176.9870  146.6490 O   0  0  0  0  0  1  0  0  0  0  0  0
  187.8160  175.9350  140.9630 C   0  0  2  0  0  3  0  0  0  0  0  0
  192.2900  174.9780  145.8380 C   0  0  0  0  0  2  0  0  0  0  0  0
  190.2560  175.0450  143.5340 N   0  0  0  0  0  2  0  0  0  0  0  0
  188.4120  174.7380  140.3960 C   0  0  0  0  0  0  0  0  0  0  0  0
  192.0300  177.2990  144.2050 C   0  0  0  0  0  2  0  0  0  0  0  0
  189.4800  173.2220  138.8570 C   0  0  1  0  0  3  0  0  0  0  0  0
  190.8310  174.5400  145.8850 C   0  0  0  0  0  2  0  0  0  0  0  0
  187.9690  177.2240  144.7690 S   0  0  0  0  0  0  0  0  0  0  0  0
  190.1220  171.0860  139.6390 N   0  0  0  0  0  2  0  0  0  0  0  0
  192.9780  177.0690  145.3850 C   0  0  0  0  0  2  0  0  0  0  0  0
  192.4100  176.2630  146.3810 O   0  0  0  0  0  0  0  0  0  0  0  0
  189.3280  175.1610  142.4530 C   0  0  0  0  0  0  0  0  0  0  0  0
  189.3410  172.2270  139.9580 C   0  0  2  0  0  0  0  0  0  0  0  0
  189.9180  175.3200  144.9260 C   0  0  1  0  0  3  0  0  0  0  0  0
  189.4860  171.8040  138.5650 N   0  0  1  0  0  0  0  0  0  0  0  0
  190.6620  177.8320  144.6250 C   0  0  0  0  0  2  0  0  0  0  0  0
  188.2900  177.4450  142.9910 C   0  0  0  0  0  0  0  0  0  0  0  0
  189.6830  176.8180  145.2630 C   0  0  2  0  0  0  0  0  0  0  0  0
  186.9630  176.7990  140.4240 C   0  0  0  0  0  3  0  0  0  0  0  0
  188.1930  174.0360  139.0600 C   0  0  2  0  0  3  0  0  0  0  0  0
  186.6020  178.0040  141.2030 C   0  0  0  0  0  3  0  0  0  0  0  0
  188.4360  176.1380  142.2640 C   0  0  0  0  0  0  0  0  0  0  0  0
  187.1880  178.2910  142.3810 C   0  0  0  0  0  3  0  0  0  0  0  0
  190.1690  173.0640  140.9530 C   0  0  0  0  0  2  0  0  0  0  0  0
  1 23  1  0  0  0  0
  2 15  1  0  0  0  0
  4 22  1  6  0  0  0
  4 25  1  0  0  0  0
  5 10  1  0  0  0  0
  5 14  1  0  0  0  0
  6 17  1  0  0  0  0
  7  4  1  0  0  0  0
  7  2  2  0  0  0  0
  8 19  1  0  0  0  0
  8 13  1  0  0  0  0
  9 23  1  0  0  0  0
  9 16  1  0  0  0  0
 11 21  1  0  0  0  0
 12 16  1  0  0  0  0
 13 14  1  0  0  0  0
 15  6  1  0  0  0  0
 16 27  1  0  0  0  0
 17 21  1  0  0  0  0
 17 10  1  0  0  0  0
 18  9  1  0  0  0  0
 18 12  1  0  0  0  0
 18 16  1  0  0  0  0
 19 21  1  0  0  0  0
 20 11  1  0  0  0  0
 21  3  1  0  0  0  0
 22 24  2  0  0  0  0
 23  7  1  0  0  0  0
 24 26  1  0  0  0  0
 25 15  2  0  0  0  0
 25 20  1  0  0  0  0
 26 20  2  0  0  0  0
 27  2  1  0  0  0  0
M  END
>  <MODEL>
5

>  <REMARK>
 VINA RESULT:      -7.3      3.186      4.592
  Name = 
  0 active torsions:
  status: ('A' for Active; 'I' for Inactive)
                            x       y       z     vdW  Elec       q    Type
                         _______ _______ _______ _____ _____    ______ ____

>  <TORSDO>
F 0

$$$$
=
 OpenBabel11062422083D

 27 33  0  0  1  0  0  0  0  0999 V2000
  187.8220  175.0740  139.5450 F   0  0  0  0  0  0  0  0  0  0  0  0
  190.2660  173.9810  141.8470 C   0  0  0  0  0  0  0  0  0  0  0  0
  191.9880  175.1160  147.5060 O   0  0  0  0  0  1  0  0  0  0  0  0
  188.4220  175.0540  142.5650 C   0  0  2  0  0  3  0  0  0  0  0  0
  194.4590  174.4130  145.3640 C   0  0  0  0  0  2  0  0  0  0  0  0
  191.7690  174.3980  143.8770 N   0  0  0  0  0  2  0  0  0  0  0  0
  189.0330  174.3400  141.4580 C   0  0  0  0  0  0  0  0  0  0  0  0
  193.0810  176.8520  144.8420 C   0  0  0  0  0  2  0  0  0  0  0  0
  189.7880  173.7650  139.2420 C   0  0  1  0  0  3  0  0  0  0  0  0
  193.2660  173.5030  145.6300 C   0  0  0  0  0  2  0  0  0  0  0  0
  189.6490  175.2290  146.3910 S   0  0  0  0  0  0  0  0  0  0  0  0
  191.1540  171.8550  138.9760 N   0  0  0  0  0  2  0  0  0  0  0  0
  194.4210  176.6510  145.5550 C   0  0  0  0  0  2  0  0  0  0  0  0
  194.4640  175.4600  146.2930 O   0  0  0  0  0  0  0  0  0  0  0  0
  190.5110  174.4760  143.2040 C   0  0  0  0  0  0  0  0  0  0  0  0
  190.2990  172.5240  139.8900 C   0  0  2  0  0  0  0  0  0  0  0  0
  191.9090  174.1490  145.3070 C   0  0  1  0  0  3  0  0  0  0  0  0
  190.0200  172.5730  138.4540 N   0  0  1  0  0  0  0  0  0  0  0  0
  191.8780  176.7440  145.7750 C   0  0  0  0  0  2  0  0  0  0  0  0
  189.2350  176.0220  144.8050 C   0  0  0  0  0  0  0  0  0  0  0  0
  191.4690  175.3210  146.2260 C   0  0  2  0  0  0  0  0  0  0  0  0
  187.2530  175.6830  142.6320 C   0  0  0  0  0  3  0  0  0  0  0  0
  188.5120  173.9960  140.0670 C   0  0  2  0  0  3  0  0  0  0  0  0
  186.9300  176.4280  143.8680 C   0  0  0  0  0  3  0  0  0  0  0  0
  189.4080  175.0960  143.6350 C   0  0  0  0  0  0  0  0  0  0  0  0
  187.8210  176.5670  144.8680 C   0  0  0  0  0  3  0  0  0  0  0  0
  191.2120  173.2900  140.8670 C   0  0  0  0  0  2  0  0  0  0  0  0
  1 23  1  0  0  0  0
  2 15  1  0  0  0  0
  4 22  1  6  0  0  0
  4 25  1  0  0  0  0
  5 10  1  0  0  0  0
  5 14  1  0  0  0  0
  6 17  1  0  0  0  0
  7  2  2  0  0  0  0
  7  4  1  0  0  0  0
  8 13  1  0  0  0  0
  8 19  1  0  0  0  0
  9 16  1  0  0  0  0
  9 23  1  0  0  0  0
 12 16  1  0  0  0  0
 13 14  1  0  0  0  0
 15 25  2  0  0  0  0
 15  6  1  0  0  0  0
 16 27  1  0  0  0  0
 17 10  1  0  0  0  0
 17 21  1  0  0  0  0
 18 12  1  0  0  0  0
 18  9  1  0  0  0  0
 18 16  1  0  0  0  0
 19 21  1  0  0  0  0
 20 26  2  0  0  0  0
 20 11  1  0  0  0  0
 21 11  1  0  0  0  0
 21  3  1  0  0  0  0
 22 24  2  0  0  0  0
 23  7  1  0  0  0  0
 24 26  1  0  0  0  0
 25 20  1  0  0  0  0
 27  2  1  0  0  0  0
M  END
>  <MODEL>
6

>  <REMARK>
 VINA RESULT:      -7.3      2.928      4.144
  Name = 
  0 active torsions:
  status: ('A' for Active; 'I' for Inactive)
                            x       y       z     vdW  Elec       q    Type
                         _______ _______ _______ _____ _____    ______ ____

>  <TORSDO>
F 0

$$$$
=
 OpenBabel11062422083D

 27 33  0  0  1  0  0  0  0  0999 V2000
  189.9180  172.2400  142.4260 F   0  0  0  0  0  0  0  0  0  0  0  0
  188.2760  175.3400  142.8350 C   0  0  0  0  0  0  0  0  0  0  0  0
  186.9540  179.2210  147.2470 O   0  0  0  0  0  1  0  0  0  0  0  0
  189.7220  174.6010  144.3940 C   0  0  2  0  0  3  0  0  0  0  0  0
  184.6300  178.9090  144.8620 C   0  0  0  0  0  2  0  0  0  0  0  0
  186.9720  177.0050  144.2760 N   0  0  0  0  0  2  0  0  0  0  0  0
  189.2610  174.4490  143.0250 C   0  0  0  0  0  0  0  0  0  0  0  0
  185.0330  176.5780  146.4520 C   0  0  0  0  0  2  0  0  0  0  0  0
  188.4880  173.4620  140.9660 C   0  0  1  0  0  3  0  0  0  0  0  0
  186.0830  179.2890  144.6030 C   0  0  0  0  0  2  0  0  0  0  0  0
  188.9700  177.6140  146.9490 S   0  0  0  0  0  0  0  0  0  0  0  0
  187.8240  174.8950  139.2080 N   0  0  0  0  0  2  0  0  0  0  0  0
  183.9340  177.6360  146.5780 C   0  0  0  0  0  2  0  0  0  0  0  0
  184.3830  178.9200  146.2400 O   0  0  0  0  0  0  0  0  0  0  0  0
  188.0420  176.0780  144.0770 C   0  0  0  0  0  0  0  0  0  0  0  0
  188.5050  174.8610  140.4520 C   0  0  2  0  0  0  0  0  0  0  0  0
  187.0940  178.2270  145.0630 C   0  0  1  0  0  3  0  0  0  0  0  0
  188.5800  173.7160  139.5440 N   0  0  1  0  0  0  0  0  0  0  0  0
  186.3040  176.9320  147.2200 C   0  0  0  0  0  2  0  0  0  0  0  0
  188.9010  175.8550  146.4850 C   0  0  0  0  0  0  0  0  0  0  0  0
  187.2190  178.0130  146.5960 C   0  0  2  0  0  0  0  0  0  0  0  0
  190.6090  173.8880  145.0780 C   0  0  0  0  0  3  0  0  0  0  0  0
  189.6990  173.5040  141.9110 C   0  0  2  0  0  3  0  0  0  0  0  0
  190.8070  174.2040  146.5100 C   0  0  0  0  0  3  0  0  0  0  0  0
  188.9130  175.6510  144.9960 C   0  0  0  0  0  0  0  0  0  0  0  0
  190.0460  175.1130  147.1480 C   0  0  0  0  0  3  0  0  0  0  0  0
  187.5090  175.3690  141.5140 C   0  0  0  0  0  2  0  0  0  0  0  0
  2  7  2  0  0  0  0
  2 15  1  0  0  0  0
  4 25  1  0  0  0  0
  4 22  1  1  0  0  0
  5 14  1  0  0  0  0
  6 17  1  0  0  0  0
  7  4  1  0  0  0  0
  8 13  1  0  0  0  0
  8 19  1  0  0  0  0
  9 23  1  0  0  0  0
 10  5  1  0  0  0  0
 10 17  1  0  0  0  0
 12 18  1  0  0  0  0
 12 16  1  0  0  0  0
 14 13  1  0  0  0  0
 15  6  1  0  0  0  0
 15 25  2  0  0  0  0
 16  9  1  0  0  0  0
 16 27  1  0  0  0  0
 17 21  1  0  0  0  0
 18 16  1  0  0  0  0
 18  9  1  0  0  0  0
 20 11  1  0  0  0  0
 20 26  2  0  0  0  0
 21 11  1  0  0  0  0
 21 19  1  0  0  0  0
 21  3  1  0  0  0  0
 22 24  2  0  0  0  0
 23  1  1  0  0  0  0
 23  7  1  0  0  0  0
 24 26  1  0  0  0  0
 25 20  1  0  0  0  0
 27  2  1  0  0  0  0
M  END
>  <MODEL>
7

>  <REMARK>
 VINA RESULT:      -7.2      3.506      5.599
  Name = 
  0 active torsions:
  status: ('A' for Active; 'I' for Inactive)
                            x       y       z     vdW  Elec       q    Type
                         _______ _______ _______ _____ _____    ______ ____

>  <TORSDO>
F 0

$$$$
=
 OpenBabel11062422083D

 27 33  0  0  1  0  0  0  0  0999 V2000
  197.4130  175.8430  143.8710 F   0  0  0  0  0  0  0  0  0  0  0  0
  194.2280  175.5070  142.3830 C   0  0  0  0  0  0  0  0  0  0  0  0
  188.4520  175.1950  144.0620 O   0  0  0  0  0  1  0  0  0  0  0  0
  194.4300  176.3080  144.4770 C   0  0  0  0  0  0  0  0  0  0  0  0
  189.2910  173.3020  141.4350 C   0  0  0  0  0  2  0  0  0  0  0  0
  191.7800  174.7680  142.4860 N   0  0  0  0  0  2  0  0  0  0  0  0
  195.1270  176.0260  143.2340 C   0  0  0  0  0  0  0  0  0  0  0  0
  190.4930  172.5270  143.9000 C   0  0  0  0  0  2  0  0  0  0  0  0
  196.7710  175.2310  141.6620 C   0  0  1  0  0  3  0  0  0  0  0  0
  189.5070  174.8080  141.5140 C   0  0  0  0  0  2  0  0  0  0  0  0
  190.4640  176.4390  145.1290 S   0  0  0  0  0  0  0  0  0  0  0  0
  196.3170  175.4410  139.3520 N   0  0  0  0  0  2  0  0  0  0  0  0
  189.2660  171.9250  143.2100 C   0  0  0  0  0  2  0  0  0  0  0  0
  188.5120  172.8840  142.5210 O   0  0  0  0  0  0  0  0  0  0  0  0
  192.9290  175.4050  143.0500 C   0  0  0  0  0  0  0  0  0  0  0  0
  195.8960  175.8680  140.6370 C   0  0  2  0  0  0  0  0  0  0  0  0
  190.4140  175.2450  142.6750 C   0  0  1  0  0  3  0  0  0  0  0  0
  197.3130  175.6180  140.3770 N   0  0  1  0  0  0  0  0  0  0  0  0
  190.1580  173.7110  144.8040 C   0  0  0  0  0  2  0  0  0  0  0  0
  192.1180  175.7540  145.4590 C   0  0  0  0  0  0  0  0  0  0  0  0
  189.8420  175.0550  144.1060 C   0  0  2  0  0  0  0  0  0  0  0  0
  194.9040  176.7370  145.6410 C   0  0  0  0  0  3  0  0  0  0  0  0
  196.5850  176.2130  142.8290 C   0  0  2  0  0  3  0  0  0  0  0  0
  193.9700  176.8360  146.7840 C   0  0  0  0  0  3  0  0  0  0  0  0
  193.0460  175.8980  144.2860 C   0  0  1  0  0  3  0  0  0  0  0  0
  192.6960  176.4090  146.6990 C   0  0  0  0  0  3  0  0  0  0  0  0
  194.6690  175.0110  141.0070 C   0  0  0  0  0  2  0  0  0  0  0  0
  2 15  2  0  0  0  0
  2  7  1  0  0  0  0
  3 21  1  0  0  0  0
  4 22  1  0  0  0  0
  5 10  1  0  0  0  0
  5 14  1  0  0  0  0
  6 17  1  0  0  0  0
  6 15  1  0  0  0  0
  7  4  2  0  0  0  0
  8 19  1  0  0  0  0
  9 23  1  0  0  0  0
 10 17  1  0  0  0  0
 11 20  1  0  0  0  0
 12 18  1  0  0  0  0
 12 16  1  0  0  0  0
 13  8  1  0  0  0  0
 14 13  1  0  0  0  0
 15 25  1  0  0  0  0
 16 27  1  0  0  0  0
 16  9  1  0  0  0  0
 17 21  1  0  0  0  0
 18 16  1  0  0  0  0
 18  9  1  0  0  0  0
 20 26  2  0  0  0  0
 21 19  1  0  0  0  0
 21 11  1  0  0  0  0
 22 24  2  0  0  0  0
 23  7  1  0  0  0  0
 23  1  1  0  0  0  0
 25  4  1  0  0  0  0
 25 20  1  0  0  0  0
 26 24  1  0  0  0  0
 27  2  1  0  0  0  0
M  END
>  <MODEL>
8

>  <REMARK>
 VINA RESULT:      -7.1      4.589      7.341
  Name = 
  0 active torsions:
  status: ('A' for Active; 'I' for Inactive)
                            x       y       z     vdW  Elec       q    Type
                         _______ _______ _______ _____ _____    ______ ____

>  <TORSDO>
F 0

$$$$
=
 OpenBabel11062422083D

 27 33  0  0  1  0  0  0  0  0999 V2000
  187.1980  175.7840  141.8670 F   0  0  0  0  0  0  0  0  0  0  0  0
  190.3290  174.3410  142.6300 C   0  0  0  0  0  0  0  0  0  0  0  0
  194.8590  175.1370  146.5190 O   0  0  0  0  0  1  0  0  0  0  0  0
  189.2700  175.6300  144.1400 C   0  0  2  0  0  3  0  0  0  0  0  0
  195.7550  174.1590  143.4480 C   0  0  0  0  0  2  0  0  0  0  0  0
  192.7050  174.5210  143.5670 N   0  0  0  0  0  2  0  0  0  0  0  0
  189.1270  174.8630  142.9160 C   0  0  0  0  0  0  0  0  0  0  0  0
  194.6110  176.7660  143.5880 C   0  0  0  0  0  2  0  0  0  0  0  0
  188.5470  174.2370  140.6620 C   0  0  1  0  0  3  0  0  0  0  0  0
  194.7730  173.4080  144.3380 C   0  0  0  0  0  2  0  0  0  0  0  0
  192.3140  175.5730  146.7680 S   0  0  0  0  0  0  0  0  0  0  0  0
  189.3360  172.1710  139.8260 N   0  0  0  0  0  2  0  0  0  0  0  0
  196.0910  176.3800  143.5160 C   0  0  0  0  0  2  0  0  0  0  0  0
  196.3660  175.1800  144.1860 O   0  0  0  0  0  0  0  0  0  0  0  0
  191.2990  174.7740  143.6380 C   0  0  0  0  0  0  0  0  0  0  0  0
  189.1660  172.9280  141.0150 C   0  0  2  0  0  0  0  0  0  0  0  0
  193.5350  174.2300  144.7300 C   0  0  1  0  0  3  0  0  0  0  0  0
  188.1910  173.0400  139.9300 N   0  0  1  0  0  0  0  0  0  0  0  0
  194.0630  176.7980  145.0130 C   0  0  0  0  0  2  0  0  0  0  0  0
  191.2370  176.4430  145.5860 C   0  0  0  0  0  0  0  0  0  0  0  0
  193.7800  175.4320  145.6820 C   0  0  2  0  0  0  0  0  0  0  0  0
  188.3910  176.4040  144.7690 C   0  0  0  0  0  3  0  0  0  0  0  0
  187.9230  174.6160  142.0130 C   0  0  2  0  0  3  0  0  0  0  0  0
  188.8480  177.1610  145.9550 C   0  0  0  0  0  3  0  0  0  0  0  0
  190.6650  175.5240  144.5430 C   0  0  0  0  0  0  0  0  0  0  0  0
  190.1370  177.1650  146.3410 C   0  0  0  0  0  3  0  0  0  0  0  0
  190.5390  173.5520  141.3390 C   0  0  0  0  0  2  0  0  0  0  0  0
  1 23  1  0  0  0  0
  2  7  2  0  0  0  0
  2 15  1  0  0  0  0
  4 25  1  0  0  0  0
  4 22  1  6  0  0  0
  5 14  1  0  0  0  0
  5 10  1  0  0  0  0
  6 15  1  0  0  0  0
  6 17  1  0  0  0  0
  7  4  1  0  0  0  0
  8 19  1  0  0  0  0
  9 16  1  0  0  0  0
  9 23  1  0  0  0  0
 10 17  1  0  0  0  0
 12 18  1  0  0  0  0
 12 16  1  0  0  0  0
 13  8  1  0  0  0  0
 13 14  1  0  0  0  0
 15 25  2  0  0  0  0
 16 27  1  0  0  0  0
 17 21  1  0  0  0  0
 18  9  1  0  0  0  0
 18 16  1  0  0  0  0
 19 21  1  0  0  0  0
 20 26  2  0  0  0  0
 20 11  1  0  0  0  0
 21  3  1  0  0  0  0
 21 11  1  0  0  0  0
 22 24  2  0  0  0  0
 23  7  1  0  0  0  0
 24 26  1  0  0  0  0
 25 20  1  0  0  0  0
 27  2  1  0  0  0  0
M  END
>  <MODEL>
9

>  <REMARK>
 VINA RESULT:      -7.0      2.918      3.862
  Name = 
  0 active torsions:
  status: ('A' for Active; 'I' for Inactive)
                            x       y       z     vdW  Elec       q    Type
                         _______ _______ _______ _____ _____    ______ ____

>  <TORSDO>
F 0

$$$$
