=
 OpenBabel11072408543D

 60 67  0  0  1  0  0  0  0  0999 V2000
  191.3250  176.8600  147.6020 O   0  0  0  0  0  1  0  0  0  0  0  0
  192.3200  174.7030  145.6050 C   0  0  2  0  0  3  0  0  0  0  0  0
  190.8870  174.2980  145.6270 C   0  0  1  0  0  3  0  0  0  0  0  0
  191.2560  175.4800  147.4090 C   0  0  1  0  0  3  0  0  0  0  0  0
  190.2480  175.1900  146.4710 O   0  0  0  0  0  0  0  0  0  0  0  0
  192.5240  175.0090  146.9530 O   0  0  0  0  0  0  0  0  0  0  0  0
  191.3020  177.8280  144.0080 O   0  0  0  0  0  1  0  0  0  0  0  0
  191.7720  176.5350  143.8360 C   0  0  0  0  0  0  0  0  0  0  0  0
  192.6280  175.9300  144.8220 N   0  0  0  0  0  0  0  0  0  0  0  0
  191.6190  175.9760  142.7160 O   0  0  0  0  0  0  0  0  0  0  0  0
  193.9960  176.4360  144.9400 C   0  0  0  0  0  2  0  0  0  0  0  0
  197.6130  174.8330  140.8390 C   0  0  2  0  0  3  0  0  0  0  0  0
  196.5590  173.8640  146.0370 C   0  0  0  0  0  3  0  0  0  0  0  0
  197.9390  175.7460  142.0070 C   0  0  0  0  0  2  0  0  0  0  0  0
  195.4360  174.8000  143.6130 C   0  0  0  0  0  0  0  0  0  0  0  0
  196.3900  173.7420  143.6060 C   0  0  0  0  0  0  0  0  0  0  0  0
  196.9040  176.2150  140.9940 C   0  0  2  0  0  3  0  0  0  0  0  0
  195.6070  174.8900  146.0450 C   0  0  0  0  0  3  0  0  0  0  0  0
  196.9430  173.2890  144.8210 C   0  0  0  0  0  0  0  0  0  0  0  0
  197.8960  172.2720  144.8330 O   0  0  0  0  0  1  0  0  0  0  0  0
  196.6310  173.6650  141.0140 C   0  0  0  0  0  2  0  0  0  0  0  0
  195.5990  176.5020  141.7810 C   0  0  0  0  0  2  0  0  0  0  0  0
  195.0220  175.3400  144.8480 C   0  0  0  0  0  0  0  0  0  0  0  0
  194.8060  175.3120  142.3420 C   0  0  0  0  0  2  0  0  0  0  0  0
  196.6420  172.9050  142.3630 C   0  0  2  0  0  3  0  0  0  0  0  0
  194.1970  170.2900  141.0590 C   0  0  0  0  0  2  0  0  0  0  0  0
  194.5650  171.7740  141.2660 C   0  0  0  0  0  2  0  0  0  0  0  0
  196.0690  170.3300  142.5420 C   0  0  0  0  0  2  0  0  0  0  0  0
  194.7860  169.5610  142.2680 C   0  0  1  0  0  3  0  0  0  0  0  0
  195.6110  171.7650  142.3640 C   0  0  1  0  0  3  0  0  0  0  0  0
  194.0290  169.5600  143.4760 O   0  0  0  0  0  0  0  0  0  0  0  0
  194.3870  168.5280  144.3690 C   0  0  0  0  0  2  0  0  0  0  0  0
  194.8990  169.1370  145.6040 N   0  0  0  0  0  1  0  0  0  0  0  0
  190.1070  173.8580  144.3900 C   0  0  1  0  0  3  0  0  0  0  0  0
  190.6800  172.8170  143.4980 C   0  0  1  0  0  3  0  0  0  0  0  0
  189.8430  172.4830  144.5530 O   0  0  0  0  0  0  0  0  0  0  0  0
  189.8950  172.6330  142.1600 C   0  0  1  0  0  3  0  0  0  0  0  0
  190.2560  173.5370  141.0120 N   0  0  0  0  0  0  0  0  0  0  0  0
  190.8050  172.7710  139.8740 C   0  0  0  0  0  2  0  0  0  0  0  0
  193.7010  174.7770  139.0680 N   0  0  0  0  0  0  0  0  0  0  0  0
  192.6830  174.4000  139.8050 O   0  0  0  0  0  0  0  0  0  0  0  0
  192.6380  173.1250  138.0420 C   0  0  0  0  0  0  0  0  0  0  0  0
  192.3630  172.1120  137.1430 O   0  0  0  0  0  1  0  0  0  0  0  0
  193.6740  174.0220  137.9540 C   0  0  0  0  0  0  0  0  0  0  0  0
  192.0150  173.4180  139.2520 C   0  0  0  0  0  0  0  0  0  0  0  0
  194.4460  175.2820  136.0480 N   0  0  0  0  0  1  0  0  0  0  0  0
  194.6860  174.0930  136.8610 C   0  0  0  0  0  2  0  0  0  0  0  0
  189.0220  174.2810  140.6270 C   0  0  0  0  0  2  0  0  0  0  0  0
  188.0930  174.6640  141.7910 C   0  0  0  0  0  2  0  0  0  0  0  0
  188.2460  176.1570  142.0610 C   0  0  0  0  0  2  0  0  0  0  0  0
  184.8060  177.7650  142.3260 N   0  0  0  0  0  0  0  0  0  0  0  0
  185.9580  177.1310  142.6950 C   0  0  0  0  0  0  0  0  0  0  0  0
  186.7390  177.3470  140.4280 C   0  0  0  0  0  3  0  0  0  0  0  0
  186.1080  176.6730  144.1160 C   0  0  0  0  0  1  0  0  0  0  0  0
  184.5670  178.1680  141.0510 C   0  0  0  0  0  3  0  0  0  0  0  0
  186.9880  176.9430  141.7370 C   0  0  0  0  0  0  0  0  0  0  0  0
  185.5320  177.9670  140.0670 C   0  0  0  0  0  3  0  0  0  0  0  0
  189.6810  171.1580  141.7500 C   0  0  0  0  0  2  0  0  0  0  0  0
  190.5880  170.3180  142.4270 O   0  0  0  0  0  0  0  0  0  0  0  0
  190.7990  169.2620  141.5600 C   0  0  0  0  0  1  0  0  0  0  0  0
  2  9  1  6  0  0  0
  2  3  1  0  0  0  0
  2  6  1  0  0  0  0
  3  5  1  6  0  0  0
  4  1  1  6  0  0  0
  5  4  1  0  0  0  0
  6  4  1  0  0  0  0
  8  7  1  0  0  0  0
  8  9  1  0  0  0  0
  9 11  1  0  0  0  0
 10  8  2  0  0  0  0
 12 17  1  0  0  0  0
 12 21  1  1  0  0  0
 12 14  1  0  0  0  0
 13 18  1  0  0  0  0
 15 23  1  0  0  0  0
 16 15  2  0  0  0  0
 16 19  1  0  0  0  0
 17 22  1  1  0  0  0
 17 14  1  0  0  0  0
 19 20  1  0  0  0  0
 19 13  2  0  0  0  0
 22 24  1  0  0  0  0
 23 11  1  0  0  0  0
 23 18  2  0  0  0  0
 24 15  1  0  0  0  0
 25 21  1  6  0  0  0
 25 30  1  0  0  0  0
 25 16  1  0  0  0  0
 26 27  1  0  0  0  0
 26 29  1  0  0  0  0
 29 28  1  0  0  0  0
 29 31  1  1  0  0  0
 30 27  1  6  0  0  0
 30 28  1  0  0  0  0
 31 32  1  0  0  0  0
 32 33  1  0  0  0  0
 34 36  1  1  0  0  0
 34  3  1  0  0  0  0
 35 37  1  6  0  0  0
 35 34  1  0  0  0  0
 35 36  1  0  0  0  0
 37 58  1  6  0  0  0
 38 37  1  0  0  0  0
 39 38  1  0  0  0  0
 40 41  1  0  0  0  0
 42 45  2  0  0  0  0
 43 42  1  0  0  0  0
 44 42  1  0  0  0  0
 44 40  2  0  0  0  0
 45 41  1  0  0  0  0
 45 39  1  0  0  0  0
 46 47  1  0  0  0  0
 47 44  1  0  0  0  0
 48 38  1  0  0  0  0
 48 49  1  0  0  0  0
 49 50  1  0  0  0  0
 51 52  1  0  0  0  0
 52 54  1  0  0  0  0
 53 56  1  0  0  0  0
 55 51  2  0  0  0  0
 56 50  1  0  0  0  0
 56 52  2  0  0  0  0
 57 53  2  0  0  0  0
 57 55  1  0  0  0  0
 58 59  1  0  0  0  0
 60 59  1  0  0  0  0
M  END
>  <MODEL>
1

>  <REMARK>
 VINA RESULT:      -6.4      0.000      0.000
  Name = 
  18 active torsions:
  status: ('A' for Active; 'I' for Inactive)
    1  A    between atoms: C_2  and  O_3
    2  A    between atoms: O_3  and  C_34
    3  A    between atoms: C_6  and  N_58
    4  A    between atoms: O_8  and  C_16
    5  A    between atoms: C_15  and  C_21
    6  A    between atoms: C_16  and  C_50
    7  A    between atoms: C_20  and  N_38
    8  A    between atoms: C_20  and  C_52
    9  A    between atoms: C_29  and  N_38
   10  A    between atoms: C_29  and  C_51
   11  A    between atoms: N_38  and  C_50
   12  A    between atoms: C_40  and  C_44
   13  A    between atoms: C_43  and  C_50
   14  A    between atoms: C_44  and  C_52
   15  A    between atoms: C_45  and  C_56
   16  A    between atoms: C_48  and  C_57
   17  A    between atoms: C_49  and  C_53
   18  A    between atoms: C_53  and  N_58
                            x       y       z     vdW  Elec       q    Type
                         _______ _______ _______ _____ _____    ______ ____

>  <TORSDO>
F 18

$$$$
=
 OpenBabel11072408543D

 60 67  0  0  1  0  0  0  0  0999 V2000
  195.3070  177.1780  144.5270 O   0  0  0  0  0  1  0  0  0  0  0  0
  193.2130  174.9010  144.2690 C   0  0  2  0  0  3  0  0  0  0  0  0
  192.2630  176.0460  144.1960 C   0  0  1  0  0  3  0  0  0  0  0  0
  194.0950  176.7800  145.0950 C   0  0  1  0  0  3  0  0  0  0  0  0
  193.0350  177.1930  144.2680 O   0  0  0  0  0  0  0  0  0  0  0  0
  194.0970  175.3610  145.2490 O   0  0  0  0  0  0  0  0  0  0  0  0
  195.2220  172.7150  142.1400 O   0  0  0  0  0  0  0  0  0  0  0  0
  195.1930  173.8370  142.9530 C   0  0  0  0  0  0  0  0  0  0  0  0
  194.0090  174.6490  143.0380 N   0  0  0  0  0  0  0  0  0  0  0  0
  196.2740  174.2580  143.4490 O   0  0  0  0  0  1  0  0  0  0  0  0
  193.6510  175.4570  141.8710 C   0  0  0  0  0  2  0  0  0  0  0  0
  196.4480  173.3510  137.3750 C   0  0  2  0  0  3  0  0  0  0  0  0
  191.6630  172.9550  139.8280 C   0  0  0  0  0  3  0  0  0  0  0  0
  196.1610  172.6140  138.6700 C   0  0  0  0  0  2  0  0  0  0  0  0
  193.9170  174.6300  139.4720 C   0  0  0  0  0  0  0  0  0  0  0  0
  193.4360  173.8280  138.3970 C   0  0  0  0  0  0  0  0  0  0  0  0
  197.0550  173.8450  138.7260 C   0  0  2  0  0  3  0  0  0  0  0  0
  192.1250  173.7570  140.8770 C   0  0  0  0  0  3  0  0  0  0  0  0
  192.3150  172.9950  138.5910 C   0  0  0  0  0  0  0  0  0  0  0  0
  191.8440  172.1850  137.5600 O   0  0  0  0  0  1  0  0  0  0  0  0
  195.4300  174.3520  136.8060 C   0  0  0  0  0  2  0  0  0  0  0  0
  196.4020  174.8330  139.7270 C   0  0  0  0  0  2  0  0  0  0  0  0
  193.2250  174.6150  140.7000 C   0  0  0  0  0  0  0  0  0  0  0  0
  195.1050  175.5450  139.3120 C   0  0  0  0  0  2  0  0  0  0  0  0
  193.9260  174.0280  136.9720 C   0  0  2  0  0  3  0  0  0  0  0  0
  192.9650  177.2000  135.0930 C   0  0  0  0  0  2  0  0  0  0  0  0
  193.6070  176.5330  136.3280 C   0  0  0  0  0  2  0  0  0  0  0  0
  192.3930  174.8830  134.9950 C   0  0  0  0  0  2  0  0  0  0  0  0
  191.8330  176.2610  134.6770 C   0  0  1  0  0  3  0  0  0  0  0  0
  193.0510  175.1230  136.3400 C   0  0  1  0  0  3  0  0  0  0  0  0
  190.5880  176.3770  135.3610 O   0  0  0  0  0  0  0  0  0  0  0  0
  189.5320  175.6740  134.7420 C   0  0  0  0  0  2  0  0  0  0  0  0
  189.0020  174.6920  135.6980 N   0  0  0  0  0  1  0  0  0  0  0  0
  191.0610  176.0970  143.2550 C   0  0  1  0  0  3  0  0  0  0  0  0
  189.8510  176.8610  143.6560 C   0  0  1  0  0  3  0  0  0  0  0  0
  190.8700  177.4540  142.9230 O   0  0  0  0  0  0  0  0  0  0  0  0
  188.6240  176.6370  142.7150 C   0  0  1  0  0  3  0  0  0  0  0  0
  187.5500  175.6930  143.1860 N   0  0  0  0  0  0  0  0  0  0  0  0
  186.2970  176.4130  143.4970 C   0  0  0  0  0  2  0  0  0  0  0  0
  186.3340  176.9140  147.0750 N   0  0  0  0  0  0  0  0  0  0  0  0
  186.4000  176.2050  145.9730 O   0  0  0  0  0  0  0  0  0  0  0  0
  186.0680  178.2590  145.3350 C   0  0  0  0  0  0  0  0  0  0  0  0
  185.9610  179.4160  144.5850 O   0  0  0  0  0  1  0  0  0  0  0  0
  186.0960  178.1860  146.7050 C   0  0  0  0  0  0  0  0  0  0  0  0
  186.2540  176.9490  144.9040 C   0  0  0  0  0  0  0  0  0  0  0  0
  187.1440  179.3400  148.5460 N   0  0  0  0  0  1  0  0  0  0  0  0
  185.9910  179.3350  147.6500 C   0  0  0  0  0  2  0  0  0  0  0  0
  187.3460  174.6790  142.1110 C   0  0  0  0  0  2  0  0  0  0  0  0
  188.5480  173.7600  141.8370 C   0  0  0  0  0  2  0  0  0  0  0  0
  188.3600  172.4710  142.6300 C   0  0  0  0  0  2  0  0  0  0  0  0
  191.6180  171.7660  144.4700 N   0  0  0  0  0  0  0  0  0  0  0  0
  190.3930  172.2990  144.1880 C   0  0  0  0  0  0  0  0  0  0  0  0
  190.3050  170.9190  142.2180 C   0  0  0  0  0  3  0  0  0  0  0  0
  189.8280  173.3390  145.1110 C   0  0  0  0  0  1  0  0  0  0  0  0
  192.2240  170.8570  143.6630 C   0  0  0  0  0  3  0  0  0  0  0  0
  189.6780  171.8440  143.0500 C   0  0  0  0  0  0  0  0  0  0  0  0
  191.5790  170.4110  142.5120 C   0  0  0  0  0  3  0  0  0  0  0  0
  188.0790  177.9300  142.0670 C   0  0  0  0  0  2  0  0  0  0  0  0
  187.8270  177.7290  140.6950 O   0  0  0  0  0  0  0  0  0  0  0  0
  186.4720  177.9660  140.5510 C   0  0  0  0  0  1  0  0  0  0  0  0
  2  9  1  6  0  0  0
  2  6  1  0  0  0  0
  3  5  1  6  0  0  0
  3  2  1  0  0  0  0
  4  1  1  6  0  0  0
  4  6  1  0  0  0  0
  5  4  1  0  0  0  0
  7  8  2  0  0  0  0
  8  9  1  0  0  0  0
  8 10  1  0  0  0  0
 11  9  1  0  0  0  0
 12 21  1  1  0  0  0
 12 14  1  0  0  0  0
 12 17  1  0  0  0  0
 13 18  1  0  0  0  0
 15 23  1  0  0  0  0
 16 19  1  0  0  0  0
 16 15  2  0  0  0  0
 17 14  1  1  0  0  0
 17 22  1  0  0  0  0
 19 13  2  0  0  0  0
 20 19  1  0  0  0  0
 23 18  2  0  0  0  0
 23 11  1  0  0  0  0
 24 15  1  0  0  0  0
 24 22  1  0  0  0  0
 25 21  1  1  0  0  0
 25 16  1  0  0  0  0
 26 27  1  0  0  0  0
 27 30  1  0  0  0  0
 29 28  1  0  0  0  0
 29 26  1  0  0  0  0
 29 31  1  1  0  0  0
 30 28  1  6  0  0  0
 30 25  1  0  0  0  0
 32 31  1  0  0  0  0
 32 33  1  0  0  0  0
 34 36  1  6  0  0  0
 34 35  1  0  0  0  0
 34  3  1  0  0  0  0
 35 37  1  6  0  0  0
 36 35  1  0  0  0  0
 37 58  1  1  0  0  0
 37 38  1  0  0  0  0
 38 39  1  0  0  0  0
 39 45  1  0  0  0  0
 41 40  1  0  0  0  0
 42 44  1  0  0  0  0
 43 42  1  0  0  0  0
 44 40  2  0  0  0  0
 44 47  1  0  0  0  0
 45 42  2  0  0  0  0
 45 41  1  0  0  0  0
 47 46  1  0  0  0  0
 48 38  1  0  0  0  0
 49 48  1  0  0  0  0
 49 50  1  0  0  0  0
 50 56  1  0  0  0  0
 52 51  1  0  0  0  0
 52 54  1  0  0  0  0
 53 57  2  0  0  0  0
 53 56  1  0  0  0  0
 55 51  2  0  0  0  0
 56 52  2  0  0  0  0
 57 55  1  0  0  0  0
 59 58  1  0  0  0  0
 60 59  1  0  0  0  0
M  END
>  <MODEL>
2

>  <REMARK>
 VINA RESULT:      -6.2      2.789      7.596
  Name = 
  18 active torsions:
  status: ('A' for Active; 'I' for Inactive)
    1  A    between atoms: C_2  and  O_3
    2  A    between atoms: O_3  and  C_34
    3  A    between atoms: C_6  and  N_58
    4  A    between atoms: O_8  and  C_16
    5  A    between atoms: C_15  and  C_21
    6  A    between atoms: C_16  and  C_50
    7  A    between atoms: C_20  and  N_38
    8  A    between atoms: C_20  and  C_52
    9  A    between atoms: C_29  and  N_38
   10  A    between atoms: C_29  and  C_51
   11  A    between atoms: N_38  and  C_50
   12  A    between atoms: C_40  and  C_44
   13  A    between atoms: C_43  and  C_50
   14  A    between atoms: C_44  and  C_52
   15  A    between atoms: C_45  and  C_56
   16  A    between atoms: C_48  and  C_57
   17  A    between atoms: C_49  and  C_53
   18  A    between atoms: C_53  and  N_58
                            x       y       z     vdW  Elec       q    Type
                         _______ _______ _______ _____ _____    ______ ____

>  <TORSDO>
F 18

$$$$
=
 OpenBabel11072408543D

 60 67  0  0  1  0  0  0  0  0999 V2000
  187.3470  172.6230  141.8520 O   0  0  0  0  0  1  0  0  0  0  0  0
  190.0900  173.7740  140.9660 C   0  0  2  0  0  3  0  0  0  0  0  0
  190.2550  173.9880  142.4310 C   0  0  1  0  0  3  0  0  0  0  0  0
  188.1340  173.7600  142.0430 C   0  0  1  0  0  3  0  0  0  0  0  0
  189.1060  173.4960  143.0250 O   0  0  0  0  0  0  0  0  0  0  0  0
  188.7460  174.1170  140.8040 O   0  0  0  0  0  0  0  0  0  0  0  0
  190.4130  170.1950  141.6280 O   0  0  0  0  0  1  0  0  0  0  0  0
  191.0210  171.3480  141.1570 C   0  0  0  0  0  0  0  0  0  0  0  0
  190.2470  172.3680  140.5030 N   0  0  0  0  0  0  0  0  0  0  0  0
  192.2810  171.3990  141.1180 O   0  0  0  0  0  0  0  0  0  0  0  0
  189.7200  172.0740  139.1690 C   0  0  0  0  0  2  0  0  0  0  0  0
  192.5000  169.3580  135.0020 C   0  0  2  0  0  3  0  0  0  0  0  0
  191.3110  174.3680  136.6000 C   0  0  0  0  0  3  0  0  0  0  0  0
  191.1540  170.0460  134.8730 C   0  0  0  0  0  2  0  0  0  0  0  0
  191.6000  171.6950  137.4850 C   0  0  0  0  0  0  0  0  0  0  0  0
  192.4560  172.2180  136.4740 C   0  0  0  0  0  0  0  0  0  0  0  0
  191.2640  168.8500  135.8080 C   0  0  2  0  0  3  0  0  0  0  0  0
  190.4830  173.8600  137.6070 C   0  0  0  0  0  3  0  0  0  0  0  0
  192.2970  173.5500  136.0410 C   0  0  0  0  0  0  0  0  0  0  0  0
  193.1090  174.0720  135.0350 O   0  0  0  0  0  1  0  0  0  0  0  0
  193.5850  169.9350  135.9250 C   0  0  0  0  0  2  0  0  0  0  0  0
  190.8130  169.3310  137.2120 C   0  0  0  0  0  2  0  0  0  0  0  0
  190.6390  172.5420  138.0740 C   0  0  0  0  0  0  0  0  0  0  0  0
  191.7360  170.2810  137.9910 C   0  0  0  0  0  2  0  0  0  0  0  0
  193.7040  171.4750  136.0250 C   0  0  2  0  0  3  0  0  0  0  0  0
  196.8700  171.2240  138.1300 C   0  0  0  0  0  2  0  0  0  0  0  0
  195.4070  170.8030  137.8810 C   0  0  0  0  0  2  0  0  0  0  0  0
  196.0100  172.6960  136.4580 C   0  0  0  0  0  2  0  0  0  0  0  0
  196.9550  172.6730  137.6490 C   0  0  1  0  0  3  0  0  0  0  0  0
  194.8420  171.8810  136.9780 C   0  0  1  0  0  3  0  0  0  0  0  0
  196.5290  173.6960  138.5450 O   0  0  0  0  0  0  0  0  0  0  0  0
  196.5920  174.9950  137.9950 C   0  0  0  0  0  2  0  0  0  0  0  0
  197.9220  175.5550  138.2730 N   0  0  0  0  0  1  0  0  0  0  0  0
  191.5630  173.7510  143.1840 C   0  0  1  0  0  3  0  0  0  0  0  0
  191.6200  174.0090  144.6470 C   0  0  1  0  0  3  0  0  0  0  0  0
  191.2940  172.7560  144.1460 O   0  0  0  0  0  0  0  0  0  0  0  0
  193.0640  173.9500  145.2410 C   0  0  1  0  0  3  0  0  0  0  0  0
  193.3970  174.9060  146.3540 N   0  0  0  0  0  0  0  0  0  0  0  0
  194.0760  176.1150  145.8440 C   0  0  0  0  0  2  0  0  0  0  0  0
  195.2610  176.0280  142.4310 N   0  0  0  0  0  0  0  0  0  0  0  0
  194.4400  176.3690  143.3970 O   0  0  0  0  0  0  0  0  0  0  0  0
  195.9770  175.1450  144.3320 C   0  0  0  0  0  0  0  0  0  0  0  0
  196.7980  174.5160  145.2500 O   0  0  0  0  0  1  0  0  0  0  0  0
  196.2040  175.2420  142.9820 C   0  0  0  0  0  0  0  0  0  0  0  0
  194.8160  175.8790  144.5530 C   0  0  0  0  0  0  0  0  0  0  0  0
  197.1760  173.2290  142.0760 N   0  0  0  0  0  1  0  0  0  0  0  0
  197.3620  174.6670  142.2400 C   0  0  0  0  0  2  0  0  0  0  0  0
  192.1190  175.2470  147.0440 C   0  0  0  0  0  2  0  0  0  0  0  0
  191.7370  176.7370  147.0240 C   0  0  0  0  0  2  0  0  0  0  0  0
  190.2350  176.8470  146.7830 C   0  0  0  0  0  2  0  0  0  0  0  0
  188.3520  177.3660  143.5150 N   0  0  0  0  0  0  0  0  0  0  0  0
  188.5840  177.0940  144.8330 C   0  0  0  0  0  0  0  0  0  0  0  0
  190.9160  177.5660  144.4640 C   0  0  0  0  0  3  0  0  0  0  0  0
  187.4310  176.6780  145.6990 C   0  0  0  0  0  1  0  0  0  0  0  0
  189.3450  177.7010  142.6510 C   0  0  0  0  0  3  0  0  0  0  0  0
  189.8970  177.2320  145.3540 C   0  0  0  0  0  0  0  0  0  0  0  0
  190.6560  177.8080  143.1070 C   0  0  0  0  0  3  0  0  0  0  0  0
  193.5970  172.5170  145.4670 C   0  0  0  0  0  2  0  0  0  0  0  0
  194.4910  172.1520  144.4410 O   0  0  0  0  0  0  0  0  0  0  0  0
  194.1850  170.8330  144.1640 C   0  0  0  0  0  1  0  0  0  0  0  0
  2  9  1  1  0  0  0
  2  3  1  0  0  0  0
  3  5  1  1  0  0  0
  3 34  1  0  0  0  0
  4  1  1  6  0  0  0
  4  5  1  0  0  0  0
  6  2  1  0  0  0  0
  6  4  1  0  0  0  0
  8  7  1  0  0  0  0
  9  8  1  0  0  0  0
 10  8  2  0  0  0  0
 11  9  1  0  0  0  0
 12 14  1  6  0  0  0
 12 17  1  0  0  0  0
 12 21  1  0  0  0  0
 13 18  1  0  0  0  0
 15 24  1  0  0  0  0
 15 23  1  0  0  0  0
 16 15  2  0  0  0  0
 17 14  1  6  0  0  0
 17 22  1  0  0  0  0
 18 23  2  0  0  0  0
 19 16  1  0  0  0  0
 19 13  2  0  0  0  0
 20 19  1  0  0  0  0
 22 24  1  0  0  0  0
 23 11  1  0  0  0  0
 25 21  1  1  0  0  0
 25 16  1  0  0  0  0
 25 30  1  0  0  0  0
 27 26  1  0  0  0  0
 28 29  1  0  0  0  0
 29 26  1  0  0  0  0
 29 31  1  1  0  0  0
 30 28  1  6  0  0  0
 30 27  1  0  0  0  0
 32 33  1  0  0  0  0
 32 31  1  0  0  0  0
 34 36  1  1  0  0  0
 34 35  1  0  0  0  0
 35 37  1  1  0  0  0
 36 35  1  0  0  0  0
 37 58  1  1  0  0  0
 37 38  1  0  0  0  0
 38 48  1  0  0  0  0
 39 38  1  0  0  0  0
 40 44  2  0  0  0  0
 40 41  1  0  0  0  0
 41 45  1  0  0  0  0
 42 45  2  0  0  0  0
 42 43  1  0  0  0  0
 44 42  1  0  0  0  0
 45 39  1  0  0  0  0
 46 47  1  0  0  0  0
 47 44  1  0  0  0  0
 49 48  1  0  0  0  0
 50 49  1  0  0  0  0
 51 52  1  0  0  0  0
 52 56  2  0  0  0  0
 52 54  1  0  0  0  0
 53 56  1  0  0  0  0
 55 57  1  0  0  0  0
 55 51  2  0  0  0  0
 56 50  1  0  0  0  0
 57 53  2  0  0  0  0
 59 58  1  0  0  0  0
 60 59  1  0  0  0  0
M  END
>  <MODEL>
3

>  <REMARK>
 VINA RESULT:      -6.1      2.649      6.901
  Name = 
  18 active torsions:
  status: ('A' for Active; 'I' for Inactive)
    1  A    between atoms: C_2  and  O_3
    2  A    between atoms: O_3  and  C_34
    3  A    between atoms: C_6  and  N_58
    4  A    between atoms: O_8  and  C_16
    5  A    between atoms: C_15  and  C_21
    6  A    between atoms: C_16  and  C_50
    7  A    between atoms: C_20  and  N_38
    8  A    between atoms: C_20  and  C_52
    9  A    between atoms: C_29  and  N_38
   10  A    between atoms: C_29  and  C_51
   11  A    between atoms: N_38  and  C_50
   12  A    between atoms: C_40  and  C_44
   13  A    between atoms: C_43  and  C_50
   14  A    between atoms: C_44  and  C_52
   15  A    between atoms: C_45  and  C_56
   16  A    between atoms: C_48  and  C_57
   17  A    between atoms: C_49  and  C_53
   18  A    between atoms: C_53  and  N_58
                            x       y       z     vdW  Elec       q    Type
                         _______ _______ _______ _____ _____    ______ ____

>  <TORSDO>
F 18

$$$$
=
 OpenBabel11072408543D

 60 67  0  0  1  0  0  0  0  0999 V2000
  189.8940  172.5400  140.5630 O   0  0  0  0  0  1  0  0  0  0  0  0
  191.1900  170.9230  142.8740 C   0  0  2  0  0  3  0  0  0  0  0  0
  192.2770  170.7340  141.8730 C   0  0  1  0  0  3  0  0  0  0  0  0
  190.4860  171.2950  140.7870 C   0  0  1  0  0  3  0  0  0  0  0  0
  191.8860  171.4300  140.7420 O   0  0  0  0  0  0  0  0  0  0  0  0
  190.0630  170.8000  142.0560 O   0  0  0  0  0  0  0  0  0  0  0  0
  192.5480  174.2670  143.4400 O   0  0  0  0  0  0  0  0  0  0  0  0
  192.2580  173.0240  143.9810 C   0  0  0  0  0  0  0  0  0  0  0  0
  191.1300  172.2660  143.5110 N   0  0  0  0  0  0  0  0  0  0  0  0
  192.8600  172.6610  145.0280 O   0  0  0  0  0  1  0  0  0  0  0  0
  189.7920  172.7510  143.8510 C   0  0  0  0  0  2  0  0  0  0  0  0
  190.5090  177.3070  147.1980 C   0  0  2  0  0  3  0  0  0  0  0  0
  189.6950  176.0690  142.0130 C   0  0  0  0  0  3  0  0  0  0  0  0
  191.5370  176.7370  146.2380 C   0  0  0  0  0  2  0  0  0  0  0  0
  189.3710  175.1330  144.6660 C   0  0  0  0  0  0  0  0  0  0  0  0
  189.2120  176.5160  144.3630 C   0  0  0  0  0  0  0  0  0  0  0  0
  191.0880  175.8730  147.4090 C   0  0  2  0  0  3  0  0  0  0  0  0
  189.8320  174.7080  142.3080 C   0  0  0  0  0  3  0  0  0  0  0  0
  189.3810  176.9670  143.0380 C   0  0  0  0  0  0  0  0  0  0  0  0
  189.2540  178.3200  142.7270 O   0  0  0  0  0  1  0  0  0  0  0  0
  189.0140  177.2750  146.8470 C   0  0  0  0  0  2  0  0  0  0  0  0
  190.5320  174.5540  146.8100 C   0  0  0  0  0  2  0  0  0  0  0  0
  189.6430  174.2290  143.6170 C   0  0  0  0  0  0  0  0  0  0  0  0
  189.1900  174.5980  146.0640 C   0  0  0  0  0  2  0  0  0  0  0  0
  188.6130  177.4870  145.3670 C   0  0  2  0  0  3  0  0  0  0  0  0
  184.9110  177.4160  146.2650 C   0  0  0  0  0  2  0  0  0  0  0  0
  186.2910  176.7250  146.2730 C   0  0  0  0  0  2  0  0  0  0  0  0
  186.3230  178.6910  144.8210 C   0  0  0  0  0  2  0  0  0  0  0  0
  184.8810  178.2320  144.9720 C   0  0  1  0  0  3  0  0  0  0  0  0
  187.0860  177.4350  145.1940 C   0  0  1  0  0  3  0  0  0  0  0  0
  184.5270  177.5560  143.7680 O   0  0  0  0  0  0  0  0  0  0  0  0
  184.5810  178.3750  142.6200 C   0  0  0  0  0  2  0  0  0  0  0  0
  183.3730  178.1330  141.8180 N   0  0  0  0  0  1  0  0  0  0  0  0
  193.7660  170.7790  142.2150 C   0  0  1  0  0  3  0  0  0  0  0  0
  194.5370  169.5110  142.2840 C   0  0  1  0  0  3  0  0  0  0  0  0
  194.4460  170.2380  141.1050 O   0  0  0  0  0  0  0  0  0  0  0  0
  195.9770  169.6810  142.8670 C   0  0  1  0  0  3  0  0  0  0  0  0
  196.7140  170.9520  142.5400 N   0  0  0  0  0  0  0  0  0  0  0  0
  197.6020  171.3610  143.6470 C   0  0  0  0  0  2  0  0  0  0  0  0
  196.6960  173.7070  146.2420 N   0  0  0  0  0  0  0  0  0  0  0  0
  197.3030  172.6510  145.7520 O   0  0  0  0  0  0  0  0  0  0  0  0
  196.1760  173.5060  144.0980 C   0  0  0  0  0  0  0  0  0  0  0  0
  195.6860  173.8090  142.8410 O   0  0  0  0  0  1  0  0  0  0  0  0
  195.9660  174.2340  145.2420 C   0  0  0  0  0  0  0  0  0  0  0  0
  197.0370  172.4820  144.4800 C   0  0  0  0  0  0  0  0  0  0  0  0
  195.6740  176.4940  144.4500 N   0  0  0  0  0  1  0  0  0  0  0  0
  195.1500  175.4770  145.3570 C   0  0  0  0  0  2  0  0  0  0  0  0
  197.4800  170.7120  141.2830 C   0  0  0  0  0  2  0  0  0  0  0  0
  197.9410  171.9770  140.5410 C   0  0  0  0  0  2  0  0  0  0  0  0
  196.7070  172.7780  140.1390 C   0  0  0  0  0  2  0  0  0  0  0  0
  196.1400  175.0740  137.1550 N   0  0  0  0  0  0  0  0  0  0  0  0
  195.9980  174.5250  138.3980 C   0  0  0  0  0  0  0  0  0  0  0  0
  197.8120  173.0280  137.8860 C   0  0  0  0  0  3  0  0  0  0  0  0
  194.9210  175.0520  139.3010 C   0  0  0  0  0  1  0  0  0  0  0  0
  197.0550  174.6250  136.2570 C   0  0  0  0  0  3  0  0  0  0  0  0
  196.8800  173.4940  138.8110 C   0  0  0  0  0  0  0  0  0  0  0  0
  197.9150  173.5860  136.6030 C   0  0  0  0  0  3  0  0  0  0  0  0
  196.1190  169.2370  144.3400 C   0  0  0  0  0  2  0  0  0  0  0  0
  194.9680  169.5830  145.0760 O   0  0  0  0  0  0  0  0  0  0  0  0
  195.3970  169.6450  146.3890 C   0  0  0  0  0  1  0  0  0  0  0  0
  2  9  1  6  0  0  0
  3  5  1  6  0  0  0
  3 34  1  0  0  0  0
  3  2  1  0  0  0  0
  4  1  1  1  0  0  0
  4  6  1  0  0  0  0
  5  4  1  0  0  0  0
  6  2  1  0  0  0  0
  7  8  2  0  0  0  0
  8 10  1  0  0  0  0
  9 11  1  0  0  0  0
  9  8  1  0  0  0  0
 12 14  1  6  0  0  0
 12 17  1  0  0  0  0
 13 18  2  0  0  0  0
 13 19  1  0  0  0  0
 15 24  1  0  0  0  0
 16 15  1  0  0  0  0
 16 25  1  0  0  0  0
 17 14  1  6  0  0  0
 18 23  1  0  0  0  0
 19 16  2  0  0  0  0
 20 19  1  0  0  0  0
 21 12  1  0  0  0  0
 22 17  1  0  0  0  0
 23 11  1  0  0  0  0
 23 15  2  0  0  0  0
 24 22  1  0  0  0  0
 25 21  1  1  0  0  0
 26 27  1  0  0  0  0
 28 29  1  0  0  0  0
 29 31  1  6  0  0  0
 29 26  1  0  0  0  0
 30 28  1  1  0  0  0
 30 25  1  0  0  0  0
 30 27  1  0  0  0  0
 32 31  1  0  0  0  0
 33 32  1  0  0  0  0
 34 36  1  6  0  0  0
 34 35  1  0  0  0  0
 35 37  1  1  0  0  0
 36 35  1  0  0  0  0
 37 58  1  1  0  0  0
 38 37  1  0  0  0  0
 38 39  1  0  0  0  0
 39 45  1  0  0  0  0
 41 40  1  0  0  0  0
 42 45  2  0  0  0  0
 42 44  1  0  0  0  0
 43 42  1  0  0  0  0
 44 47  1  0  0  0  0
 44 40  2  0  0  0  0
 45 41  1  0  0  0  0
 46 47  1  0  0  0  0
 48 38  1  0  0  0  0
 49 48  1  0  0  0  0
 50 49  1  0  0  0  0
 51 52  1  0  0  0  0
 52 56  2  0  0  0  0
 52 54  1  0  0  0  0
 53 56  1  0  0  0  0
 55 57  1  0  0  0  0
 55 51  2  0  0  0  0
 56 50  1  0  0  0  0
 57 53  2  0  0  0  0
 58 59  1  0  0  0  0
 59 60  1  0  0  0  0
M  END
>  <MODEL>
4

>  <REMARK>
 VINA RESULT:      -5.9      2.327      8.973
  Name = 
  18 active torsions:
  status: ('A' for Active; 'I' for Inactive)
    1  A    between atoms: C_2  and  O_3
    2  A    between atoms: O_3  and  C_34
    3  A    between atoms: C_6  and  N_58
    4  A    between atoms: O_8  and  C_16
    5  A    between atoms: C_15  and  C_21
    6  A    between atoms: C_16  and  C_50
    7  A    between atoms: C_20  and  N_38
    8  A    between atoms: C_20  and  C_52
    9  A    between atoms: C_29  and  N_38
   10  A    between atoms: C_29  and  C_51
   11  A    between atoms: N_38  and  C_50
   12  A    between atoms: C_40  and  C_44
   13  A    between atoms: C_43  and  C_50
   14  A    between atoms: C_44  and  C_52
   15  A    between atoms: C_45  and  C_56
   16  A    between atoms: C_48  and  C_57
   17  A    between atoms: C_49  and  C_53
   18  A    between atoms: C_53  and  N_58
                            x       y       z     vdW  Elec       q    Type
                         _______ _______ _______ _____ _____    ______ ____

>  <TORSDO>
F 18

$$$$
=
 OpenBabel11072408543D

 60 67  0  0  1  0  0  0  0  0999 V2000
  188.9770  173.9960  138.9880 O   0  0  0  0  0  1  0  0  0  0  0  0
  189.7430  171.5540  140.7430 C   0  0  2  0  0  3  0  0  0  0  0  0
  190.7270  171.3210  139.6500 C   0  0  1  0  0  3  0  0  0  0  0  0
  189.1790  172.6210  138.8640 C   0  0  1  0  0  3  0  0  0  0  0  0
  190.5560  172.3590  138.7500 O   0  0  0  0  0  0  0  0  0  0  0  0
  188.6290  171.9640  140.0060 O   0  0  0  0  0  0  0  0  0  0  0  0
  191.6020  174.5770  141.6110 O   0  0  0  0  0  0  0  0  0  0  0  0
  191.3830  173.2330  141.8720 C   0  0  0  0  0  0  0  0  0  0  0  0
  190.0800  172.6550  141.6860 N   0  0  0  0  0  0  0  0  0  0  0  0
  192.2770  172.5760  142.4720 O   0  0  0  0  0  1  0  0  0  0  0  0
  189.0250  173.0330  142.6270 C   0  0  0  0  0  2  0  0  0  0  0  0
  191.3540  177.1610  145.7900 C   0  0  2  0  0  3  0  0  0  0  0  0
  188.1420  176.5470  141.5030 C   0  0  0  0  0  3  0  0  0  0  0  0
  191.7880  176.7580  144.3930 C   0  0  0  0  0  2  0  0  0  0  0  0
  189.0970  175.2750  143.8450 C   0  0  0  0  0  0  0  0  0  0  0  0
  188.8460  176.6770  143.8350 C   0  0  0  0  0  0  0  0  0  0  0  0
  191.9300  175.7370  145.5130 C   0  0  2  0  0  3  0  0  0  0  0  0
  188.3710  175.1660  141.5190 C   0  0  0  0  0  3  0  0  0  0  0  0
  188.3740  177.2970  142.6610 C   0  0  0  0  0  0  0  0  0  0  0  0
  188.1460  178.6710  142.6250 O   0  0  0  0  0  1  0  0  0  0  0  0
  189.8720  177.1110  146.1900 C   0  0  0  0  0  2  0  0  0  0  0  0
  191.1260  174.4820  145.0850 C   0  0  0  0  0  2  0  0  0  0  0  0
  188.8160  174.5210  142.6860 C   0  0  0  0  0  0  0  0  0  0  0  0
  189.5910  174.5630  145.0790 C   0  0  0  0  0  2  0  0  0  0  0  0
  188.8200  177.4900  145.1200 C   0  0  2  0  0  3  0  0  0  0  0  0
  185.9920  177.0630  147.6370 C   0  0  0  0  0  2  0  0  0  0  0  0
  187.1730  176.4530  146.8540 C   0  0  0  0  0  2  0  0  0  0  0  0
  186.6080  178.6620  145.9730 C   0  0  0  0  0  2  0  0  0  0  0  0
  185.3910  178.1110  146.6990 C   0  0  1  0  0  3  0  0  0  0  0  0
  187.3940  177.3960  145.6880 C   0  0  1  0  0  3  0  0  0  0  0  0
  184.4740  177.6640  145.7040 O   0  0  0  0  0  0  0  0  0  0  0  0
  184.1090  178.6650  144.7780 C   0  0  0  0  0  2  0  0  0  0  0  0
  184.4320  178.1880  143.4260 N   0  0  0  0  0  1  0  0  0  0  0  0
  192.1630  170.8550  139.8820 C   0  0  1  0  0  3  0  0  0  0  0  0
  192.9960  170.4490  138.7200 C   0  0  1  0  0  3  0  0  0  0  0  0
  192.9930  171.7570  139.1850 O   0  0  0  0  0  0  0  0  0  0  0  0
  194.3500  169.7790  139.1190 C   0  0  1  0  0  3  0  0  0  0  0  0
  194.7180  169.7710  140.5780 N   0  0  0  0  0  0  0  0  0  0  0  0
  194.8470  168.3930  141.0940 C   0  0  0  0  0  2  0  0  0  0  0  0
  196.2970  168.1660  144.3960 N   0  0  0  0  0  0  0  0  0  0  0  0
  196.3210  168.1660  143.0840 O   0  0  0  0  0  0  0  0  0  0  0  0
  194.2360  168.4490  143.6370 C   0  0  0  0  0  0  0  0  0  0  0  0
  192.8820  168.7290  143.6130 O   0  0  0  0  0  1  0  0  0  0  0  0
  195.0100  168.3070  144.7610 C   0  0  0  0  0  0  0  0  0  0  0  0
  195.1260  168.3360  142.5740 C   0  0  0  0  0  0  0  0  0  0  0  0
  195.1880  169.5300  146.8330 N   0  0  0  0  0  1  0  0  0  0  0  0
  194.5380  168.4010  146.1720 C   0  0  0  0  0  2  0  0  0  0  0  0
  195.9950  170.5300  140.7190 C   0  0  0  0  0  2  0  0  0  0  0  0
  195.9570  171.7020  141.7130 C   0  0  0  0  0  2  0  0  0  0  0  0
  195.8220  173.0000  140.9240 C   0  0  0  0  0  2  0  0  0  0  0  0
  196.3070  176.5030  142.3360 N   0  0  0  0  0  0  0  0  0  0  0  0
  196.3330  175.4590  141.4550 C   0  0  0  0  0  0  0  0  0  0  0  0
  195.2180  174.1080  143.1070 C   0  0  0  0  0  3  0  0  0  0  0  0
  196.9730  175.6610  140.1130 C   0  0  0  0  0  1  0  0  0  0  0  0
  195.7930  176.3920  143.5880 C   0  0  0  0  0  3  0  0  0  0  0  0
  195.7360  174.2240  141.8190 C   0  0  0  0  0  0  0  0  0  0  0  0
  195.2340  175.1860  144.0050 C   0  0  0  0  0  3  0  0  0  0  0  0
  194.6310  168.4430  138.3960 C   0  0  0  0  0  2  0  0  0  0  0  0
  195.0520  168.6740  137.0710 O   0  0  0  0  0  0  0  0  0  0  0  0
  196.4110  168.9100  137.1720 C   0  0  0  0  0  1  0  0  0  0  0  0
  2  9  1  1  0  0  0
  3  5  1  1  0  0  0
  3 34  1  0  0  0  0
  3  2  1  0  0  0  0
  4  1  1  1  0  0  0
  4  6  1  0  0  0  0
  5  4  1  0  0  0  0
  6  2  1  0  0  0  0
  7  8  2  0  0  0  0
  8 10  1  0  0  0  0
  9  8  1  0  0  0  0
  9 11  1  0  0  0  0
 11 23  1  0  0  0  0
 12 14  1  6  0  0  0
 12 21  1  0  0  0  0
 13 18  2  0  0  0  0
 13 19  1  0  0  0  0
 15 24  1  0  0  0  0
 16 15  1  0  0  0  0
 16 25  1  0  0  0  0
 17 14  1  6  0  0  0
 17 12  1  0  0  0  0
 18 23  1  0  0  0  0
 19 16  2  0  0  0  0
 20 19  1  0  0  0  0
 22 17  1  0  0  0  0
 23 15  2  0  0  0  0
 24 22  1  0  0  0  0
 25 30  1  0  0  0  0
 25 21  1  1  0  0  0
 27 26  1  0  0  0  0
 28 29  1  0  0  0  0
 29 31  1  6  0  0  0
 29 26  1  0  0  0  0
 30 28  1  1  0  0  0
 30 27  1  0  0  0  0
 32 31  1  0  0  0  0
 33 32  1  0  0  0  0
 34 36  1  6  0  0  0
 35 37  1  1  0  0  0
 35 36  1  0  0  0  0
 35 34  1  0  0  0  0
 37 58  1  1  0  0  0
 37 38  1  0  0  0  0
 38 48  1  0  0  0  0
 38 39  1  0  0  0  0
 39 45  1  0  0  0  0
 40 44  2  0  0  0  0
 41 40  1  0  0  0  0
 42 44  1  0  0  0  0
 43 42  1  0  0  0  0
 44 47  1  0  0  0  0
 45 41  1  0  0  0  0
 45 42  2  0  0  0  0
 47 46  1  0  0  0  0
 48 49  1  0  0  0  0
 50 49  1  0  0  0  0
 50 56  1  0  0  0  0
 51 55  1  0  0  0  0
 52 56  1  0  0  0  0
 52 51  2  0  0  0  0
 53 57  1  0  0  0  0
 54 52  1  0  0  0  0
 55 57  2  0  0  0  0
 56 53  2  0  0  0  0
 59 60  1  0  0  0  0
 59 58  1  0  0  0  0
M  END
>  <MODEL>
5

>  <REMARK>
 VINA RESULT:      -5.6      2.610      8.926
  Name = 
  18 active torsions:
  status: ('A' for Active; 'I' for Inactive)
    1  A    between atoms: C_2  and  O_3
    2  A    between atoms: O_3  and  C_34
    3  A    between atoms: C_6  and  N_58
    4  A    between atoms: O_8  and  C_16
    5  A    between atoms: C_15  and  C_21
    6  A    between atoms: C_16  and  C_50
    7  A    between atoms: C_20  and  N_38
    8  A    between atoms: C_20  and  C_52
    9  A    between atoms: C_29  and  N_38
   10  A    between atoms: C_29  and  C_51
   11  A    between atoms: N_38  and  C_50
   12  A    between atoms: C_40  and  C_44
   13  A    between atoms: C_43  and  C_50
   14  A    between atoms: C_44  and  C_52
   15  A    between atoms: C_45  and  C_56
   16  A    between atoms: C_48  and  C_57
   17  A    between atoms: C_49  and  C_53
   18  A    between atoms: C_53  and  N_58
                            x       y       z     vdW  Elec       q    Type
                         _______ _______ _______ _____ _____    ______ ____

>  <TORSDO>
F 18

$$$$
=
 OpenBabel11072408543D

 60 67  0  0  1  0  0  0  0  0999 V2000
  188.5370  174.4000  138.8580 O   0  0  0  0  0  1  0  0  0  0  0  0
  189.4710  171.9480  140.5170 C   0  0  2  0  0  3  0  0  0  0  0  0
  190.4350  171.7980  139.3910 C   0  0  1  0  0  3  0  0  0  0  0  0
  188.8030  173.0400  138.6860 C   0  0  1  0  0  3  0  0  0  0  0  0
  190.1880  172.8520  138.5280 O   0  0  0  0  0  0  0  0  0  0  0  0
  188.3180  172.3240  139.8210 O   0  0  0  0  0  0  0  0  0  0  0  0
  191.3070  174.9560  141.4820 O   0  0  0  0  0  0  0  0  0  0  0  0
  191.0770  173.6100  141.7190 C   0  0  0  0  0  0  0  0  0  0  0  0
  189.7790  173.0370  141.4830 N   0  0  0  0  0  0  0  0  0  0  0  0
  191.9490  172.9430  142.3400 O   0  0  0  0  0  1  0  0  0  0  0  0
  188.6950  173.4060  142.3940 C   0  0  0  0  0  2  0  0  0  0  0  0
  190.9590  177.5340  145.6040 C   0  0  2  0  0  3  0  0  0  0  0  0
  187.8130  176.9200  141.2680 C   0  0  0  0  0  3  0  0  0  0  0  0
  191.4150  177.1370  144.2130 C   0  0  0  0  0  2  0  0  0  0  0  0
  188.7390  175.6440  143.6200 C   0  0  0  0  0  0  0  0  0  0  0  0
  188.4820  177.0450  143.6110 C   0  0  0  0  0  0  0  0  0  0  0  0
  191.5440  176.1130  145.3320 C   0  0  2  0  0  3  0  0  0  0  0  0
  188.0480  175.5400  141.2830 C   0  0  0  0  0  3  0  0  0  0  0  0
  188.0250  177.6670  142.4320 C   0  0  0  0  0  0  0  0  0  0  0  0
  187.7910  179.0400  142.3970 O   0  0  0  0  0  1  0  0  0  0  0  0
  189.4700  177.4760  145.9820 C   0  0  0  0  0  2  0  0  0  0  0  0
  190.7520  174.8560  144.8880 C   0  0  0  0  0  2  0  0  0  0  0  0
  188.4790  174.8930  142.4550 C   0  0  0  0  0  0  0  0  0  0  0  0
  189.2180  174.9300  144.8590 C   0  0  0  0  0  2  0  0  0  0  0  0
  188.4330  177.8540  144.8980 C   0  0  2  0  0  3  0  0  0  0  0  0
  185.5700  177.3930  147.3680 C   0  0  0  0  0  2  0  0  0  0  0  0
  186.7620  176.7930  146.5940 C   0  0  0  0  0  2  0  0  0  0  0  0
  186.2090  179.0140  145.7350 C   0  0  0  0  0  2  0  0  0  0  0  0
  184.9810  178.4530  146.4360 C   0  0  1  0  0  3  0  0  0  0  0  0
  186.9990  177.7520  145.4440 C   0  0  1  0  0  3  0  0  0  0  0  0
  184.0790  178.0180  145.4220 O   0  0  0  0  0  0  0  0  0  0  0  0
  183.8990  178.9560  144.3820 C   0  0  0  0  0  2  0  0  0  0  0  0
  184.0930  178.2690  143.0970 N   0  0  0  0  0  1  0  0  0  0  0  0
  191.8980  171.3980  139.5710 C   0  0  1  0  0  3  0  0  0  0  0  0
  192.2260  170.0910  140.1980 C   0  0  1  0  0  3  0  0  0  0  0  0
  192.0840  170.2170  138.8230 O   0  0  0  0  0  0  0  0  0  0  0  0
  193.7430  169.9150  140.5290 C   0  0  1  0  0  3  0  0  0  0  0  0
  194.6410  171.1060  140.3300 N   0  0  0  0  0  0  0  0  0  0  0  0
  195.6990  171.1630  141.3600 C   0  0  0  0  0  2  0  0  0  0  0  0
  194.9990  173.5660  143.9660 N   0  0  0  0  0  0  0  0  0  0  0  0
  194.9210  172.3970  143.3740 O   0  0  0  0  0  0  0  0  0  0  0  0
  196.1590  173.6340  142.0810 C   0  0  0  0  0  0  0  0  0  0  0  0
  197.0280  174.0750  141.1000 O   0  0  0  0  0  1  0  0  0  0  0  0
  195.7350  174.3590  143.1660 C   0  0  0  0  0  0  0  0  0  0  0  0
  195.5960  172.3740  142.2500 C   0  0  0  0  0  0  0  0  0  0  0  0
  195.0190  176.4090  144.2160 N   0  0  0  0  0  1  0  0  0  0  0  0
  196.1070  175.7670  143.4850 C   0  0  0  0  0  2  0  0  0  0  0  0
  195.2180  171.0030  138.9580 C   0  0  0  0  0  2  0  0  0  0  0  0
  196.0190  172.2280  138.4880 C   0  0  0  0  0  2  0  0  0  0  0  0
  195.0420  173.3620  138.1960 C   0  0  0  0  0  2  0  0  0  0  0  0
  195.4840  176.2780  135.7880 N   0  0  0  0  0  0  0  0  0  0  0  0
  194.8720  175.3540  136.5870 C   0  0  0  0  0  0  0  0  0  0  0  0
  197.0460  174.5390  137.2200 C   0  0  0  0  0  3  0  0  0  0  0  0
  193.3720  175.3180  136.6320 C   0  0  0  0  0  1  0  0  0  0  0  0
  196.8330  176.3470  135.6510 C   0  0  0  0  0  3  0  0  0  0  0  0
  195.6630  174.4730  137.3690 C   0  0  0  0  0  0  0  0  0  0  0  0
  197.6500  175.4750  136.3660 C   0  0  0  0  0  3  0  0  0  0  0  0
  194.0180  169.1370  141.8360 C   0  0  0  0  0  2  0  0  0  0  0  0
  192.9610  169.3140  142.7510 O   0  0  0  0  0  0  0  0  0  0  0  0
  193.5540  169.2090  143.9950 C   0  0  0  0  0  1  0  0  0  0  0  0
  2  9  1  1  0  0  0
  3  5  1  1  0  0  0
  3 34  1  0  0  0  0
  3  2  1  0  0  0  0
  4  1  1  1  0  0  0
  4  6  1  0  0  0  0
  5  4  1  0  0  0  0
  6  2  1  0  0  0  0
  7  8  2  0  0  0  0
  8 10  1  0  0  0  0
  9  8  1  0  0  0  0
  9 11  1  0  0  0  0
 11 23  1  0  0  0  0
 12 14  1  6  0  0  0
 12 21  1  0  0  0  0
 13 18  2  0  0  0  0
 13 19  1  0  0  0  0
 15 24  1  0  0  0  0
 16 15  1  0  0  0  0
 16 25  1  0  0  0  0
 17 14  1  6  0  0  0
 17 12  1  0  0  0  0
 18 23  1  0  0  0  0
 19 16  2  0  0  0  0
 20 19  1  0  0  0  0
 22 17  1  0  0  0  0
 23 15  2  0  0  0  0
 24 22  1  0  0  0  0
 25 30  1  0  0  0  0
 25 21  1  1  0  0  0
 27 26  1  0  0  0  0
 28 29  1  0  0  0  0
 29 31  1  6  0  0  0
 29 26  1  0  0  0  0
 30 28  1  1  0  0  0
 30 27  1  0  0  0  0
 32 31  1  0  0  0  0
 33 32  1  0  0  0  0
 34 36  1  6  0  0  0
 34 35  1  0  0  0  0
 35 37  1  6  0  0  0
 36 35  1  0  0  0  0
 37 58  1  1  0  0  0
 38 37  1  0  0  0  0
 38 39  1  0  0  0  0
 39 45  1  0  0  0  0
 41 40  1  0  0  0  0
 42 45  2  0  0  0  0
 42 44  1  0  0  0  0
 43 42  1  0  0  0  0
 44 47  1  0  0  0  0
 44 40  2  0  0  0  0
 45 41  1  0  0  0  0
 47 46  1  0  0  0  0
 48 38  1  0  0  0  0
 49 48  1  0  0  0  0
 50 49  1  0  0  0  0
 51 52  1  0  0  0  0
 52 54  1  0  0  0  0
 52 56  2  0  0  0  0
 53 56  1  0  0  0  0
 55 51  2  0  0  0  0
 55 57  1  0  0  0  0
 56 50  1  0  0  0  0
 57 53  2  0  0  0  0
 58 59  1  0  0  0  0
 59 60  1  0  0  0  0
M  END
>  <MODEL>
6

>  <REMARK>
 VINA RESULT:      -5.5      2.439      8.769
  Name = 
  18 active torsions:
  status: ('A' for Active; 'I' for Inactive)
    1  A    between atoms: C_2  and  O_3
    2  A    between atoms: O_3  and  C_34
    3  A    between atoms: C_6  and  N_58
    4  A    between atoms: O_8  and  C_16
    5  A    between atoms: C_15  and  C_21
    6  A    between atoms: C_16  and  C_50
    7  A    between atoms: C_20  and  N_38
    8  A    between atoms: C_20  and  C_52
    9  A    between atoms: C_29  and  N_38
   10  A    between atoms: C_29  and  C_51
   11  A    between atoms: N_38  and  C_50
   12  A    between atoms: C_40  and  C_44
   13  A    between atoms: C_43  and  C_50
   14  A    between atoms: C_44  and  C_52
   15  A    between atoms: C_45  and  C_56
   16  A    between atoms: C_48  and  C_57
   17  A    between atoms: C_49  and  C_53
   18  A    between atoms: C_53  and  N_58
                            x       y       z     vdW  Elec       q    Type
                         _______ _______ _______ _____ _____    ______ ____

>  <TORSDO>
F 18

$$$$
=
 OpenBabel11072408543D

 60 67  0  0  1  0  0  0  0  0999 V2000
  197.7820  174.2720  143.6070 O   0  0  0  0  0  1  0  0  0  0  0  0
  194.8830  173.3960  142.9280 C   0  0  2  0  0  3  0  0  0  0  0  0
  194.5870  174.0420  144.2370 C   0  0  1  0  0  3  0  0  0  0  0  0
  196.7100  173.6000  144.1970 C   0  0  1  0  0  3  0  0  0  0  0  0
  195.7920  174.5380  144.7040 O   0  0  0  0  0  0  0  0  0  0  0  0
  196.0920  172.7610  143.2200 O   0  0  0  0  0  0  0  0  0  0  0  0
  194.8590  176.7430  141.4630 O   0  0  0  0  0  1  0  0  0  0  0  0
  194.3240  175.4640  141.4460 C   0  0  0  0  0  0  0  0  0  0  0  0
  195.1340  174.3280  141.7960 N   0  0  0  0  0  0  0  0  0  0  0  0
  193.1920  175.2850  140.9200 O   0  0  0  0  0  0  0  0  0  0  0  0
  196.1860  173.9260  140.8610 C   0  0  0  0  0  2  0  0  0  0  0  0
  196.9990  174.5520  135.2560 C   0  0  2  0  0  3  0  0  0  0  0  0
  194.7130  171.1400  138.7490 C   0  0  0  0  0  3  0  0  0  0  0  0
  197.7240  173.5690  136.1560 C   0  0  0  0  0  2  0  0  0  0  0  0
  195.5590  173.8180  138.3900 C   0  0  0  0  0  0  0  0  0  0  0  0
  195.0000  173.0840  137.3030 C   0  0  0  0  0  0  0  0  0  0  0  0
  197.9190  175.0570  136.4110 C   0  0  2  0  0  3  0  0  0  0  0  0
  195.2440  171.8670  139.8200 C   0  0  0  0  0  3  0  0  0  0  0  0
  194.5870  171.7500  137.4970 C   0  0  0  0  0  0  0  0  0  0  0  0
  194.0610  171.0090  136.4410 O   0  0  0  0  0  1  0  0  0  0  0  0
  195.5230  174.8960  135.5070 C   0  0  0  0  0  2  0  0  0  0  0  0
  197.4970  175.3230  137.8800 C   0  0  0  0  0  2  0  0  0  0  0  0
  195.6380  173.2070  139.6580 C   0  0  0  0  0  0  0  0  0  0  0  0
  196.0040  175.2500  138.2370 C   0  0  0  0  0  2  0  0  0  0  0  0
  194.5920  173.7660  136.0080 C   0  0  2  0  0  3  0  0  0  0  0  0
  191.4880  175.9430  135.6230 C   0  0  0  0  0  2  0  0  0  0  0  0
  192.9370  175.7770  136.1280 C   0  0  0  0  0  2  0  0  0  0  0  0
  192.0110  173.6190  135.4480 C   0  0  0  0  0  2  0  0  0  0  0  0
  190.8560  174.5570  135.7620 C   0  0  1  0  0  3  0  0  0  0  0  0
  193.1530  174.2780  136.1970 C   0  0  1  0  0  3  0  0  0  0  0  0
  190.3470  174.1850  137.0400 O   0  0  0  0  0  0  0  0  0  0  0  0
  190.5630  172.8290  137.3650 C   0  0  0  0  0  2  0  0  0  0  0  0
  189.2610  172.1490  137.4200 N   0  0  0  0  0  1  0  0  0  0  0  0
  193.3530  174.9010  144.5040 C   0  0  1  0  0  3  0  0  0  0  0  0
  192.5880  174.7110  145.7640 C   0  0  1  0  0  3  0  0  0  0  0  0
  193.6210  175.6330  145.6780 O   0  0  0  0  0  0  0  0  0  0  0  0
  191.2300  175.4830  145.7990 C   0  0  1  0  0  3  0  0  0  0  0  0
  190.2570  175.2290  144.6800 N   0  0  0  0  0  0  0  0  0  0  0  0
  189.8220  173.8180  144.6510 C   0  0  0  0  0  2  0  0  0  0  0  0
  189.4610  172.9160  141.1710 N   0  0  0  0  0  0  0  0  0  0  0  0
  189.2010  173.6130  142.2520 O   0  0  0  0  0  0  0  0  0  0  0  0
  190.6840  172.1350  142.8440 C   0  0  0  0  0  0  0  0  0  0  0  0
  191.6530  171.4270  143.5320 O   0  0  0  0  0  1  0  0  0  0  0  0
  190.3540  171.9730  141.5220 C   0  0  0  0  0  0  0  0  0  0  0  0
  189.9010  173.2000  143.2800 C   0  0  0  0  0  0  0  0  0  0  0  0
  190.7450  169.6340  141.0810 N   0  0  0  0  0  1  0  0  0  0  0  0
  190.9560  170.9880  140.5780 C   0  0  0  0  0  2  0  0  0  0  0  0
  189.1020  176.1540  144.8770 C   0  0  0  0  0  2  0  0  0  0  0  0
  188.3830  176.5930  143.5900 C   0  0  0  0  0  2  0  0  0  0  0  0
  186.8940  176.3030  143.7460 C   0  0  0  0  0  2  0  0  0  0  0  0
  185.3790  179.3930  145.3750 N   0  0  0  0  0  0  0  0  0  0  0  0
  185.9020  178.5740  144.4150 C   0  0  0  0  0  0  0  0  0  0  0  0
  186.0540  176.8270  146.0650 C   0  0  0  0  0  3  0  0  0  0  0  0
  186.1030  179.1190  143.0310 C   0  0  0  0  0  1  0  0  0  0  0  0
  185.2100  178.9970  146.6630 C   0  0  0  0  0  3  0  0  0  0  0  0
  186.2180  177.2300  144.7410 C   0  0  0  0  0  0  0  0  0  0  0  0
  185.5460  177.6990  147.0400 C   0  0  0  0  0  3  0  0  0  0  0  0
  190.5730  175.5420  147.1970 C   0  0  0  0  0  2  0  0  0  0  0  0
  190.4890  176.8750  147.6490 O   0  0  0  0  0  0  0  0  0  0  0  0
  191.7260  177.1320  148.2100 C   0  0  0  0  0  1  0  0  0  0  0  0
  2  9  1  6  0  0  0
  2  6  1  0  0  0  0
  2  3  1  0  0  0  0
  3 34  1  0  0  0  0
  3  5  1  6  0  0  0
  4  1  1  6  0  0  0
  4  5  1  0  0  0  0
  6  4  1  0  0  0  0
  8  7  1  0  0  0  0
  8  9  1  0  0  0  0
 10  8  2  0  0  0  0
 11  9  1  0  0  0  0
 12 21  1  1  0  0  0
 12 14  1  0  0  0  0
 12 17  1  0  0  0  0
 13 18  1  0  0  0  0
 15 23  1  0  0  0  0
 16 19  1  0  0  0  0
 16 15  2  0  0  0  0
 17 14  1  1  0  0  0
 17 22  1  0  0  0  0
 19 13  2  0  0  0  0
 20 19  1  0  0  0  0
 22 24  1  0  0  0  0
 23 18  2  0  0  0  0
 23 11  1  0  0  0  0
 24 15  1  0  0  0  0
 25 21  1  1  0  0  0
 25 30  1  0  0  0  0
 25 16  1  0  0  0  0
 26 29  1  0  0  0  0
 26 27  1  0  0  0  0
 27 30  1  0  0  0  0
 28 29  1  0  0  0  0
 29 31  1  1  0  0  0
 30 28  1  6  0  0  0
 31 32  1  0  0  0  0
 32 33  1  0  0  0  0
 34 36  1  1  0  0  0
 34 35  1  0  0  0  0
 35 37  1  6  0  0  0
 36 35  1  0  0  0  0
 37 58  1  1  0  0  0
 38 48  1  0  0  0  0
 38 37  1  0  0  0  0
 39 38  1  0  0  0  0
 40 44  2  0  0  0  0
 40 41  1  0  0  0  0
 41 45  1  0  0  0  0
 42 45  2  0  0  0  0
 42 43  1  0  0  0  0
 44 42  1  0  0  0  0
 45 39  1  0  0  0  0
 47 46  1  0  0  0  0
 47 44  1  0  0  0  0
 49 50  1  0  0  0  0
 49 48  1  0  0  0  0
 50 56  1  0  0  0  0
 51 55  1  0  0  0  0
 52 56  1  0  0  0  0
 52 51  2  0  0  0  0
 53 57  1  0  0  0  0
 54 52  1  0  0  0  0
 55 57  2  0  0  0  0
 56 53  2  0  0  0  0
 58 59  1  0  0  0  0
 59 60  1  0  0  0  0
M  END
>  <MODEL>
7

>  <REMARK>
 VINA RESULT:      -5.5      2.399      6.122
  Name = 
  18 active torsions:
  status: ('A' for Active; 'I' for Inactive)
    1  A    between atoms: C_2  and  O_3
    2  A    between atoms: O_3  and  C_34
    3  A    between atoms: C_6  and  N_58
    4  A    between atoms: O_8  and  C_16
    5  A    between atoms: C_15  and  C_21
    6  A    between atoms: C_16  and  C_50
    7  A    between atoms: C_20  and  N_38
    8  A    between atoms: C_20  and  C_52
    9  A    between atoms: C_29  and  N_38
   10  A    between atoms: C_29  and  C_51
   11  A    between atoms: N_38  and  C_50
   12  A    between atoms: C_40  and  C_44
   13  A    between atoms: C_43  and  C_50
   14  A    between atoms: C_44  and  C_52
   15  A    between atoms: C_45  and  C_56
   16  A    between atoms: C_48  and  C_57
   17  A    between atoms: C_49  and  C_53
   18  A    between atoms: C_53  and  N_58
                            x       y       z     vdW  Elec       q    Type
                         _______ _______ _______ _____ _____    ______ ____

>  <TORSDO>
F 18

$$$$
=
 OpenBabel11072408543D

 60 67  0  0  1  0  0  0  0  0999 V2000
  193.6580  176.0410  147.1710 O   0  0  0  0  0  1  0  0  0  0  0  0
  194.6360  176.7700  144.3170 C   0  0  2  0  0  3  0  0  0  0  0  0
  195.6300  175.6950  144.5920 C   0  0  1  0  0  3  0  0  0  0  0  0
  194.8420  176.3560  146.5020 C   0  0  1  0  0  3  0  0  0  0  0  0
  195.3310  175.2080  145.8530 O   0  0  0  0  0  0  0  0  0  0  0  0
  194.5840  177.4000  145.5630 O   0  0  0  0  0  0  0  0  0  0  0  0
  192.1020  174.1440  144.1300 O   0  0  0  0  0  1  0  0  0  0  0  0
  192.9130  175.0270  143.4340 C   0  0  0  0  0  0  0  0  0  0  0  0
  193.2590  176.3030  143.9990 N   0  0  0  0  0  0  0  0  0  0  0  0
  193.1680  174.7920  142.2210 O   0  0  0  0  0  0  0  0  0  0  0  0
  192.2050  177.3140  144.0970 C   0  0  0  0  0  2  0  0  0  0  0  0
  187.5910  174.4420  142.3840 C   0  0  2  0  0  3  0  0  0  0  0  0
  190.0230  176.0350  146.9250 C   0  0  0  0  0  3  0  0  0  0  0  0
  188.8410  173.8360  142.9930 C   0  0  0  0  0  2  0  0  0  0  0  0
  189.7610  176.5810  144.1590 C   0  0  0  0  0  0  0  0  0  0  0  0
  188.6430  176.1250  144.9150 C   0  0  0  0  0  0  0  0  0  0  0  0
  188.9670  174.5510  141.6550 C   0  0  2  0  0  3  0  0  0  0  0  0
  191.1160  176.5010  146.1860 C   0  0  0  0  0  3  0  0  0  0  0  0
  188.7900  175.8530  146.2900 C   0  0  0  0  0  0  0  0  0  0  0  0
  187.7140  175.3840  147.0410 O   0  0  0  0  0  1  0  0  0  0  0  0
  187.0820  175.8140  142.8530 C   0  0  0  0  0  2  0  0  0  0  0  0
  190.0250  175.6710  141.8390 C   0  0  0  0  0  2  0  0  0  0  0  0
  190.9880  176.8040  144.8180 C   0  0  0  0  0  0  0  0  0  0  0  0
  189.6530  176.8960  142.6880 C   0  0  0  0  0  2  0  0  0  0  0  0
  187.2310  176.1670  144.3520 C   0  0  2  0  0  3  0  0  0  0  0  0
  185.4800  179.5070  143.8140 C   0  0  0  0  0  2  0  0  0  0  0  0
  186.6700  178.5710  143.5160 C   0  0  0  0  0  2  0  0  0  0  0  0
  185.3400  177.7060  145.3760 C   0  0  0  0  0  2  0  0  0  0  0  0
  185.0830  179.2000  145.2590 C   0  0  1  0  0  3  0  0  0  0  0  0
  186.6640  177.5650  144.6510 C   0  0  1  0  0  3  0  0  0  0  0  0
  185.8180  179.8370  146.3000 O   0  0  0  0  0  0  0  0  0  0  0  0
  185.5870  179.2860  147.5780 C   0  0  0  0  0  2  0  0  0  0  0  0
  186.8510  178.7360  148.0850 N   0  0  0  0  0  1  0  0  0  0  0  0
  196.0800  174.6660  143.5570 C   0  0  1  0  0  3  0  0  0  0  0  0
  197.4960  174.6560  143.1060 C   0  0  1  0  0  3  0  0  0  0  0  0
  197.0740  173.8830  144.1790 O   0  0  0  0  0  0  0  0  0  0  0  0
  197.7610  173.7160  141.8870 C   0  0  1  0  0  3  0  0  0  0  0  0
  196.9760  172.4340  141.8130 N   0  0  0  0  0  0  0  0  0  0  0  0
  196.2410  172.3230  140.5360 C   0  0  0  0  0  2  0  0  0  0  0  0
  193.1170  170.8080  141.5350 N   0  0  0  0  0  0  0  0  0  0  0  0
  194.4160  170.9880  141.5700 O   0  0  0  0  0  0  0  0  0  0  0  0
  193.6730  172.3490  140.0440 C   0  0  0  0  0  0  0  0  0  0  0  0
  193.5570  173.3650  139.1130 O   0  0  0  0  0  1  0  0  0  0  0  0
  192.6390  171.6180  140.5720 C   0  0  0  0  0  0  0  0  0  0  0  0
  194.8070  171.8970  140.7110 C   0  0  0  0  0  0  0  0  0  0  0  0
  190.8670  170.8770  139.1130 N   0  0  0  0  0  1  0  0  0  0  0  0
  191.1950  171.7590  140.2290 C   0  0  0  0  0  2  0  0  0  0  0  0
  197.9410  171.3100  141.9880 C   0  0  0  0  0  2  0  0  0  0  0  0
  197.6980  170.4190  143.2180 C   0  0  0  0  0  2  0  0  0  0  0  0
  196.5080  170.9780  143.9910 C   0  0  0  0  0  2  0  0  0  0  0  0
  194.5700  169.4270  146.8780 N   0  0  0  0  0  0  0  0  0  0  0  0
  194.8290  170.1410  145.7420 C   0  0  0  0  0  0  0  0  0  0  0  0
  197.1260  169.4370  145.8890 C   0  0  0  0  0  3  0  0  0  0  0  0
  193.7090  170.9050  145.0980 C   0  0  0  0  0  1  0  0  0  0  0  0
  195.5340  168.7480  147.5520 C   0  0  0  0  0  3  0  0  0  0  0  0
  196.1360  170.1250  145.1910 C   0  0  0  0  0  0  0  0  0  0  0  0
  196.8410  168.7380  147.0720 C   0  0  0  0  0  3  0  0  0  0  0  0
  197.8810  174.4530  140.5340 C   0  0  0  0  0  2  0  0  0  0  0  0
  196.8460  175.4000  140.3910 O   0  0  0  0  0  0  0  0  0  0  0  0
  196.4390  175.2760  139.0760 C   0  0  0  0  0  1  0  0  0  0  0  0
  2  9  1  1  0  0  0
  2  3  1  0  0  0  0
  2  6  1  0  0  0  0
  3  5  1  1  0  0  0
  4  1  1  6  0  0  0
  5  4  1  0  0  0  0
  6  4  1  0  0  0  0
  8  9  1  0  0  0  0
  8  7  1  0  0  0  0
  9 11  1  0  0  0  0
 10  8  2  0  0  0  0
 11 23  1  0  0  0  0
 12 21  1  1  0  0  0
 12 14  1  0  0  0  0
 15 23  2  0  0  0  0
 15 16  1  0  0  0  0
 16 19  2  0  0  0  0
 17 22  1  1  0  0  0
 17 12  1  0  0  0  0
 17 14  1  0  0  0  0
 18 13  2  0  0  0  0
 19 13  1  0  0  0  0
 19 20  1  0  0  0  0
 22 24  1  0  0  0  0
 23 18  1  0  0  0  0
 24 15  1  0  0  0  0
 25 21  1  6  0  0  0
 25 30  1  0  0  0  0
 25 16  1  0  0  0  0
 26 29  1  0  0  0  0
 27 26  1  0  0  0  0
 29 28  1  0  0  0  0
 29 31  1  1  0  0  0
 30 27  1  6  0  0  0
 30 28  1  0  0  0  0
 31 32  1  0  0  0  0
 32 33  1  0  0  0  0
 34 36  1  1  0  0  0
 34  3  1  0  0  0  0
 35 37  1  6  0  0  0
 35 34  1  0  0  0  0
 35 36  1  0  0  0  0
 37 58  1  6  0  0  0
 38 37  1  0  0  0  0
 38 48  1  0  0  0  0
 39 45  1  0  0  0  0
 39 38  1  0  0  0  0
 40 41  1  0  0  0  0
 42 44  1  0  0  0  0
 42 45  2  0  0  0  0
 43 42  1  0  0  0  0
 44 40  2  0  0  0  0
 45 41  1  0  0  0  0
 46 47  1  0  0  0  0
 47 44  1  0  0  0  0
 48 49  1  0  0  0  0
 49 50  1  0  0  0  0
 50 56  1  0  0  0  0
 51 55  1  0  0  0  0
 52 51  2  0  0  0  0
 53 57  1  0  0  0  0
 54 52  1  0  0  0  0
 56 52  1  0  0  0  0
 56 53  2  0  0  0  0
 57 55  2  0  0  0  0
 59 58  1  0  0  0  0
 60 59  1  0  0  0  0
M  END
>  <MODEL>
8

>  <REMARK>
 VINA RESULT:      -5.5      2.505      8.734
  Name = 
  18 active torsions:
  status: ('A' for Active; 'I' for Inactive)
    1  A    between atoms: C_2  and  O_3
    2  A    between atoms: O_3  and  C_34
    3  A    between atoms: C_6  and  N_58
    4  A    between atoms: O_8  and  C_16
    5  A    between atoms: C_15  and  C_21
    6  A    between atoms: C_16  and  C_50
    7  A    between atoms: C_20  and  N_38
    8  A    between atoms: C_20  and  C_52
    9  A    between atoms: C_29  and  N_38
   10  A    between atoms: C_29  and  C_51
   11  A    between atoms: N_38  and  C_50
   12  A    between atoms: C_40  and  C_44
   13  A    between atoms: C_43  and  C_50
   14  A    between atoms: C_44  and  C_52
   15  A    between atoms: C_45  and  C_56
   16  A    between atoms: C_48  and  C_57
   17  A    between atoms: C_49  and  C_53
   18  A    between atoms: C_53  and  N_58
                            x       y       z     vdW  Elec       q    Type
                         _______ _______ _______ _____ _____    ______ ____

>  <TORSDO>
F 18

$$$$
=
 OpenBabel11072408543D

 60 67  0  0  1  0  0  0  0  0999 V2000
  188.7280  173.4270  141.2850 O   0  0  0  0  0  1  0  0  0  0  0  0
  190.6780  171.3910  142.5830 C   0  0  2  0  0  3  0  0  0  0  0  0
  191.3050  171.4240  141.2330 C   0  0  1  0  0  3  0  0  0  0  0  0
  189.2790  172.1710  141.0260 C   0  0  1  0  0  3  0  0  0  0  0  0
  190.5690  172.3300  140.4880 O   0  0  0  0  0  0  0  0  0  0  0  0
  189.3230  171.4220  142.2400 O   0  0  0  0  0  0  0  0  0  0  0  0
  192.5880  174.3970  143.4000 O   0  0  0  0  0  0  0  0  0  0  0  0
  192.2410  173.1060  143.7670 C   0  0  0  0  0  0  0  0  0  0  0  0
  190.9440  172.5760  143.4430 N   0  0  0  0  0  0  0  0  0  0  0  0
  192.9880  172.4790  144.5670 O   0  0  0  0  0  1  0  0  0  0  0  0
  189.7880  173.1150  144.1610 C   0  0  0  0  0  2  0  0  0  0  0  0
  190.2330  177.6050  147.6420 C   0  0  2  0  0  3  0  0  0  0  0  0
  189.7280  176.4720  142.3940 C   0  0  0  0  0  3  0  0  0  0  0  0
  191.3230  177.0750  146.7280 C   0  0  0  0  0  2  0  0  0  0  0  0
  189.2770  175.4690  145.0030 C   0  0  0  0  0  0  0  0  0  0  0  0
  189.1090  176.8560  144.7230 C   0  0  0  0  0  0  0  0  0  0  0  0
  190.8270  176.1770  147.8530 C   0  0  2  0  0  3  0  0  0  0  0  0
  189.8750  175.1070  142.6660 C   0  0  0  0  0  3  0  0  0  0  0  0
  189.3410  177.3410  143.4200 C   0  0  0  0  0  0  0  0  0  0  0  0
  189.2050  178.6980  143.1320 O   0  0  0  0  0  1  0  0  0  0  0  0
  188.7600  177.5540  147.2080 C   0  0  0  0  0  2  0  0  0  0  0  0
  190.3300  174.8630  147.1950 C   0  0  0  0  0  2  0  0  0  0  0  0
  189.6230  174.5950  143.9520 C   0  0  0  0  0  0  0  0  0  0  0  0
  189.0300  174.9000  146.3780 C   0  0  0  0  0  2  0  0  0  0  0  0
  188.4370  177.7930  145.7130 C   0  0  2  0  0  3  0  0  0  0  0  0
  184.6920  177.6730  146.4020 C   0  0  0  0  0  2  0  0  0  0  0  0
  186.0780  177.0030  146.4920 C   0  0  0  0  0  2  0  0  0  0  0  0
  186.1640  178.9600  145.0310 C   0  0  0  0  0  2  0  0  0  0  0  0
  184.7230  178.4800  145.1040 C   0  0  1  0  0  3  0  0  0  0  0  0
  186.9230  177.7170  145.4560 C   0  0  1  0  0  3  0  0  0  0  0  0
  184.4470  177.7910  143.8870 O   0  0  0  0  0  0  0  0  0  0  0  0
  184.7620  178.5350  142.7290 C   0  0  0  0  0  2  0  0  0  0  0  0
  185.4340  177.6440  141.7730 N   0  0  0  0  0  1  0  0  0  0  0  0
  192.8140  171.4180  140.9940 C   0  0  1  0  0  3  0  0  0  0  0  0
  193.6170  170.2460  141.4310 C   0  0  1  0  0  3  0  0  0  0  0  0
  193.0800  170.3180  140.1530 O   0  0  0  0  0  0  0  0  0  0  0  0
  195.1600  170.4720  141.3380 C   0  0  1  0  0  3  0  0  0  0  0  0
  195.9090  170.6990  142.6250 N   0  0  0  0  0  0  0  0  0  0  0  0
  196.4360  169.4320  143.1740 C   0  0  0  0  0  2  0  0  0  0  0  0
  194.2600  168.5590  145.9240 N   0  0  0  0  0  0  0  0  0  0  0  0
  194.5360  168.8930  144.6850 O   0  0  0  0  0  0  0  0  0  0  0  0
  196.4500  168.8230  145.7170 C   0  0  0  0  0  0  0  0  0  0  0  0
  197.8010  168.7860  146.0080 O   0  0  0  0  0  1  0  0  0  0  0  0
  195.4290  168.5420  146.5900 C   0  0  0  0  0  0  0  0  0  0  0  0
  195.8220  169.0590  144.4980 C   0  0  0  0  0  0  0  0  0  0  0  0
  196.9900  168.1760  148.3930 N   0  0  0  0  0  1  0  0  0  0  0  0
  195.5770  168.1660  148.0260 C   0  0  0  0  0  2  0  0  0  0  0  0
  197.0050  171.6680  142.3360 C   0  0  0  0  0  2  0  0  0  0  0  0
  196.5600  173.1290  142.1500 C   0  0  0  0  0  2  0  0  0  0  0  0
  197.2650  173.9850  143.1970 C   0  0  0  0  0  2  0  0  0  0  0  0
  195.1530  176.8310  144.5890 N   0  0  0  0  0  0  0  0  0  0  0  0
  195.9570  176.1260  143.7390 C   0  0  0  0  0  0  0  0  0  0  0  0
  195.8510  174.2680  145.2660 C   0  0  0  0  0  3  0  0  0  0  0  0
  196.4390  176.7910  142.4830 C   0  0  0  0  0  1  0  0  0  0  0  0
  194.7130  176.3240  145.7700 C   0  0  0  0  0  3  0  0  0  0  0  0
  196.2950  174.7840  144.0500 C   0  0  0  0  0  0  0  0  0  0  0  0
  195.0540  175.0250  146.1380 C   0  0  0  0  0  3  0  0  0  0  0  0
  195.8810  169.5190  140.3570 C   0  0  0  0  0  2  0  0  0  0  0  0
  196.3200  170.2220  139.2170 O   0  0  0  0  0  0  0  0  0  0  0  0
  197.2180  169.3660  138.6050 C   0  0  0  0  0  1  0  0  0  0  0  0
  2  9  1  1  0  0  0
  3  5  1  1  0  0  0
  3  2  1  0  0  0  0
  4  1  1  1  0  0  0
  4  6  1  0  0  0  0
  5  4  1  0  0  0  0
  6  2  1  0  0  0  0
  7  8  2  0  0  0  0
  8 10  1  0  0  0  0
  9  8  1  0  0  0  0
  9 11  1  0  0  0  0
 12 14  1  6  0  0  0
 12 17  1  0  0  0  0
 13 18  2  0  0  0  0
 13 19  1  0  0  0  0
 15 24  1  0  0  0  0
 16 15  1  0  0  0  0
 16 25  1  0  0  0  0
 17 14  1  6  0  0  0
 18 23  1  0  0  0  0
 19 16  2  0  0  0  0
 20 19  1  0  0  0  0
 21 12  1  0  0  0  0
 22 17  1  0  0  0  0
 23 11  1  0  0  0  0
 23 15  2  0  0  0  0
 24 22  1  0  0  0  0
 25 21  1  1  0  0  0
 26 27  1  0  0  0  0
 28 29  1  0  0  0  0
 29 31  1  6  0  0  0
 29 26  1  0  0  0  0
 30 28  1  1  0  0  0
 30 25  1  0  0  0  0
 30 27  1  0  0  0  0
 32 31  1  0  0  0  0
 33 32  1  0  0  0  0
 34 36  1  6  0  0  0
 34  3  1  0  0  0  0
 34 35  1  0  0  0  0
 35 37  1  6  0  0  0
 36 35  1  0  0  0  0
 37 58  1  1  0  0  0
 37 38  1  0  0  0  0
 38 39  1  0  0  0  0
 39 45  1  0  0  0  0
 40 44  2  0  0  0  0
 41 40  1  0  0  0  0
 42 43  1  0  0  0  0
 42 44  1  0  0  0  0
 44 47  1  0  0  0  0
 45 41  1  0  0  0  0
 45 42  2  0  0  0  0
 47 46  1  0  0  0  0
 48 38  1  0  0  0  0
 49 48  1  0  0  0  0
 49 50  1  0  0  0  0
 50 56  1  0  0  0  0
 51 55  1  0  0  0  0
 52 56  1  0  0  0  0
 52 51  2  0  0  0  0
 53 57  1  0  0  0  0
 54 52  1  0  0  0  0
 55 57  2  0  0  0  0
 56 53  2  0  0  0  0
 59 58  1  0  0  0  0
 60 59  1  0  0  0  0
M  END
>  <MODEL>
9

>  <REMARK>
 VINA RESULT:      -5.4      2.597      9.098
  Name = 
  18 active torsions:
  status: ('A' for Active; 'I' for Inactive)
    1  A    between atoms: C_2  and  O_3
    2  A    between atoms: O_3  and  C_34
    3  A    between atoms: C_6  and  N_58
    4  A    between atoms: O_8  and  C_16
    5  A    between atoms: C_15  and  C_21
    6  A    between atoms: C_16  and  C_50
    7  A    between atoms: C_20  and  N_38
    8  A    between atoms: C_20  and  C_52
    9  A    between atoms: C_29  and  N_38
   10  A    between atoms: C_29  and  C_51
   11  A    between atoms: N_38  and  C_50
   12  A    between atoms: C_40  and  C_44
   13  A    between atoms: C_43  and  C_50
   14  A    between atoms: C_44  and  C_52
   15  A    between atoms: C_45  and  C_56
   16  A    between atoms: C_48  and  C_57
   17  A    between atoms: C_49  and  C_53
   18  A    between atoms: C_53  and  N_58
                            x       y       z     vdW  Elec       q    Type
                         _______ _______ _______ _____ _____    ______ ____

>  <TORSDO>
F 18

$$$$
