=
 OpenBabel11062419063D

 32 35  0  0  1  0  0  0  0  0999 V2000
  189.1230  174.8230  143.8600 N   0  0  0  0  0  2  0  0  0  0  0  0
  188.0150  177.8490  142.2030 C   0  0  2  0  0  3  0  0  0  0  0  0
  185.5480  177.5640  142.4530 P   0  0  2  0  0  0  0  0  0  0  0  0
  190.0510  176.7480  142.6570 C   0  0  0  0  0  2  0  0  0  0  0  0
  184.8230  177.6700  141.1310 O   0  0  0  0  0  0  0  0  0  0  0  0
  189.4150  178.1440  142.6520 C   0  0  0  0  0  2  0  0  0  0  0  0
  186.8890  178.7780  142.5420 C   0  0  0  0  0  2  0  0  0  0  0  0
  188.8270  175.0080  141.5340 O   0  0  0  0  0  1  0  0  0  0  0  0
  187.6880  176.5940  142.9420 C   0  0  1  0  0  3  0  0  0  0  0  0
  186.4390  176.1180  142.5100 O   0  0  0  0  0  0  0  0  0  0  0  0
  188.9070  175.7240  142.7300 C   0  0  1  0  0  0  0  0  0  0  0  0
  184.4520  177.6930  143.7450 O   0  0  0  0  0  0  0  0  0  0  0  0
  184.4790  178.1990  146.6610 C   0  0  0  0  0  2  0  0  0  0  0  0
  185.4170  177.3180  145.8880 C   0  0  0  0  0  2  0  0  0  0  0  0
  185.1620  178.3070  144.7830 C   0  0  2  0  0  3  0  0  0  0  0  0
  184.2850  179.0650  145.5730 O   0  0  0  0  0  0  0  0  0  0  0  0
  191.6200  174.9500  146.6490 C   0  0  0  0  0  3  0  0  0  0  0  0
  191.0300  174.6370  145.4160 C   0  0  0  0  0  0  0  0  0  0  0  0
  190.9580  175.7680  147.5700 C   0  0  0  0  0  3  0  0  0  0  0  0
  189.7540  175.1610  145.1060 C   0  0  0  0  0  0  0  0  0  0  0  0
  189.0980  175.9780  146.0420 C   0  0  0  0  0  3  0  0  0  0  0  0
  189.6960  176.2820  147.2660 C   0  0  0  0  0  3  0  0  0  0  0  0
  192.7510  174.3210  143.5640 N   0  0  0  0  0  2  0  0  0  0  0  0
  191.5160  172.5470  144.4140 O   0  0  0  0  0  0  0  0  0  0  0  0
  191.7670  173.7800  144.4620 C   0  0  0  0  0  0  0  0  0  0  0  0
  193.3000  175.6650  143.6790 C   0  0  0  0  0  2  0  0  0  0  0  0
  194.7680  175.6020  144.0790 C   0  0  2  0  0  3  0  0  0  0  0  0
  194.9100  175.9240  145.5340 C   0  0  0  0  0  0  0  0  0  0  0  0
  195.3680  175.0680  146.3370 O   0  0  0  0  0  0  0  0  0  0  0  0
  194.5870  177.2300  146.0000 N   0  0  0  0  0  1  0  0  0  0  0  0
  195.5120  176.4930  143.3020 O   0  0  0  0  0  0  0  0  0  0  0  0
  196.7710  175.9040  143.1820 C   0  0  0  0  0  1  0  0  0  0  0  0
  1 20  1  0  0  0  0
  2  7  1  1  0  0  0
  2  6  1  0  0  0  0
  2  9  1  0  0  0  0
  3  5  2  6  0  0  0
  3 10  1  0  0  0  0
  3  7  1  0  0  0  0
  3 12  1  0  0  0  0
  4 11  1  0  0  0  0
  6  4  1  0  0  0  0
  9 10  1  6  0  0  0
 11  8  1  6  0  0  0
 11  9  1  0  0  0  0
 11  1  1  0  0  0  0
 14 13  1  0  0  0  0
 15 12  1  6  0  0  0
 15 16  1  0  0  0  0
 15 14  1  0  0  0  0
 16 13  1  0  0  0  0
 17 19  1  0  0  0  0
 18 17  2  0  0  0  0
 20 18  1  0  0  0  0
 20 21  2  0  0  0  0
 21 22  1  0  0  0  0
 22 19  2  0  0  0  0
 23 26  1  0  0  0  0
 23 25  1  0  0  0  0
 24 25  2  0  0  0  0
 25 18  1  0  0  0  0
 27 26  1  6  0  0  0
 27 28  1  0  0  0  0
 28 30  1  0  0  0  0
 28 29  2  0  0  0  0
 31 27  1  0  0  0  0
 32 31  1  0  0  0  0
M  END
>  <MODEL>
1

>  <REMARK>
 VINA RESULT:      -6.8      0.000      0.000
  Name = 
  9 active torsions:
  status: ('A' for Active; 'I' for Inactive)
    1  A    between atoms: N_1  and  C_16
    2  A    between atoms: N_1  and  C_29
    3  A    between atoms: O_3  and  C_13
    4  A    between atoms: C_7  and  C_31
    5  A    between atoms: C_8  and  C_13
    6  A    between atoms: P_10  and  O_23
    7  A    between atoms: C_13  and  C_26
    8  A    between atoms: N_15  and  C_26
    9  A    between atoms: O_23  and  C_28
                            x       y       z     vdW  Elec       q    Type
                         _______ _______ _______ _____ _____    ______ ____

>  <TORSDO>
F 9

$$$$
=
 OpenBabel11062419063D

 32 35  0  0  1  0  0  0  0  0999 V2000
  188.7890  174.7180  143.3860 N   0  0  0  0  0  2  0  0  0  0  0  0
  191.9480  173.1260  142.6020 C   0  0  2  0  0  3  0  0  0  0  0  0
  193.3890  175.1570  142.4270 P   0  0  2  0  0  0  0  0  0  0  0  0
  189.7070  172.4850  142.9610 C   0  0  0  0  0  2  0  0  0  0  0  0
  194.1420  175.2130  141.1180 O   0  0  0  0  0  0  0  0  0  0  0  0
  191.1440  172.0700  143.2990 C   0  0  0  0  0  2  0  0  0  0  0  0
  193.3360  173.4600  143.0570 C   0  0  0  0  0  2  0  0  0  0  0  0
  189.4440  174.1130  141.2100 O   0  0  0  0  0  1  0  0  0  0  0  0
  191.1660  174.3690  142.8730 C   0  0  1  0  0  3  0  0  0  0  0  0
  191.7350  175.4350  142.1560 O   0  0  0  0  0  0  0  0  0  0  0  0
  189.7400  173.9700  142.5670 C   0  0  1  0  0  0  0  0  0  0  0  0
  194.0500  176.2560  143.5410 O   0  0  0  0  0  0  0  0  0  0  0  0
  194.2700  176.5720  146.4760 C   0  0  0  0  0  2  0  0  0  0  0  0
  193.0830  176.0670  145.7080 C   0  0  0  0  0  2  0  0  0  0  0  0
  194.1310  175.5620  144.7550 C   0  0  2  0  0  3  0  0  0  0  0  0
  195.1810  176.0810  145.5270 O   0  0  0  0  0  0  0  0  0  0  0  0
  189.4820  177.5080  145.7870 C   0  0  0  0  0  3  0  0  0  0  0  0
  189.1590  176.8350  144.5990 C   0  0  0  0  0  0  0  0  0  0  0  0
  189.7330  176.7980  146.9650 C   0  0  0  0  0  3  0  0  0  0  0  0
  189.0870  175.4230  144.6020 C   0  0  0  0  0  0  0  0  0  0  0  0
  189.3460  174.7210  145.7910 C   0  0  0  0  0  3  0  0  0  0  0  0
  189.6650  175.4030  146.9660 C   0  0  0  0  0  3  0  0  0  0  0  0
  187.5450  177.9000  142.9420 N   0  0  0  0  0  2  0  0  0  0  0  0
  189.8490  178.0430  142.6820 O   0  0  0  0  0  0  0  0  0  0  0  0
  188.8860  177.6220  143.3770 C   0  0  0  0  0  0  0  0  0  0  0  0
  186.3650  177.6820  143.7660 C   0  0  0  0  0  2  0  0  0  0  0  0
  186.1520  178.8620  144.7050 C   0  0  2  0  0  3  0  0  0  0  0  0
  185.8770  178.3640  146.0890 C   0  0  0  0  0  0  0  0  0  0  0  0
  185.5310  179.1620  147.0010 O   0  0  0  0  0  0  0  0  0  0  0  0
  185.9440  176.9670  146.3600 N   0  0  0  0  0  1  0  0  0  0  0  0
  185.0960  179.6530  144.2470 O   0  0  0  0  0  0  0  0  0  0  0  0
  184.1650  178.7500  143.7320 C   0  0  0  0  0  1  0  0  0  0  0  0
  1 20  1  0  0  0  0
  2  9  1  0  0  0  0
  2  7  1  1  0  0  0
  2  6  1  0  0  0  0
  3  5  2  6  0  0  0
  3  7  1  0  0  0  0
  3 12  1  0  0  0  0
  4  6  1  0  0  0  0
  9 10  1  6  0  0  0
 10  3  1  0  0  0  0
 11  8  1  6  0  0  0
 11  9  1  0  0  0  0
 11  4  1  0  0  0  0
 11  1  1  0  0  0  0
 14 13  1  0  0  0  0
 15 12  1  6  0  0  0
 15 16  1  0  0  0  0
 15 14  1  0  0  0  0
 16 13  1  0  0  0  0
 17 19  1  0  0  0  0
 18 20  1  0  0  0  0
 18 17  2  0  0  0  0
 19 22  2  0  0  0  0
 20 21  2  0  0  0  0
 21 22  1  0  0  0  0
 23 25  1  0  0  0  0
 23 26  1  0  0  0  0
 24 25  2  0  0  0  0
 25 18  1  0  0  0  0
 27 26  1  6  0  0  0
 27 28  1  0  0  0  0
 28 30  1  0  0  0  0
 28 29  2  0  0  0  0
 31 27  1  0  0  0  0
 32 31  1  0  0  0  0
M  END
>  <MODEL>
2

>  <REMARK>
 VINA RESULT:      -6.7      2.702      7.235
  Name = 
  9 active torsions:
  status: ('A' for Active; 'I' for Inactive)
    1  A    between atoms: N_1  and  C_16
    2  A    between atoms: N_1  and  C_29
    3  A    between atoms: O_3  and  C_13
    4  A    between atoms: C_7  and  C_31
    5  A    between atoms: C_8  and  C_13
    6  A    between atoms: P_10  and  O_23
    7  A    between atoms: C_13  and  C_26
    8  A    between atoms: N_15  and  C_26
    9  A    between atoms: O_23  and  C_28
                            x       y       z     vdW  Elec       q    Type
                         _______ _______ _______ _____ _____    ______ ____

>  <TORSDO>
F 9

$$$$
=
 OpenBabel11062419063D

 32 35  0  0  1  0  0  0  0  0999 V2000
  189.4900  175.6980  145.4250 N   0  0  0  0  0  2  0  0  0  0  0  0
  186.4230  177.5250  146.0420 C   0  0  2  0  0  3  0  0  0  0  0  0
  185.9270  178.2770  143.7140 P   0  0  2  0  0  0  0  0  0  0  0  0
  188.0450  176.3560  147.2940 C   0  0  0  0  0  2  0  0  0  0  0  0
  185.7190  179.7710  143.6280 O   0  0  0  0  0  0  0  0  0  0  0  0
  186.5280  176.5510  147.1760 C   0  0  0  0  0  2  0  0  0  0  0  0
  185.1720  177.6170  145.2220 C   0  0  0  0  0  2  0  0  0  0  0  0
  189.4230  177.9430  146.1230 O   0  0  0  0  0  1  0  0  0  0  0  0
  187.4530  177.0290  145.0830 C   0  0  1  0  0  3  0  0  0  0  0  0
  187.5640  177.9370  144.0170 O   0  0  0  0  0  0  0  0  0  0  0  0
  188.6650  176.7820  145.9530 C   0  0  1  0  0  0  0  0  0  0  0  0
  185.3640  177.5150  142.3040 O   0  0  0  0  0  0  0  0  0  0  0  0
  186.5520  177.3050  139.6020 C   0  0  0  0  0  2  0  0  0  0  0  0
  185.2080  177.8710  139.9570 C   0  0  0  0  0  2  0  0  0  0  0  0
  185.8960  178.2500  141.2390 C   0  0  2  0  0  3  0  0  0  0  0  0
  187.1130  177.6800  140.8320 O   0  0  0  0  0  0  0  0  0  0  0  0
  193.0380  175.7180  144.2260 C   0  0  0  0  0  3  0  0  0  0  0  0
  191.6380  175.8020  144.2150 C   0  0  0  0  0  0  0  0  0  0  0  0
  193.7300  175.4800  145.4180 C   0  0  0  0  0  3  0  0  0  0  0  0
  190.9260  175.6460  145.4260 C   0  0  0  0  0  0  0  0  0  0  0  0
  191.6320  175.4040  146.6160 C   0  0  0  0  0  3  0  0  0  0  0  0
  193.0260  175.3230  146.6140 C   0  0  0  0  0  3  0  0  0  0  0  0
  190.7360  175.0350  141.9600 N   0  0  0  0  0  2  0  0  0  0  0  0
  190.5400  177.2330  142.6810 O   0  0  0  0  0  0  0  0  0  0  0  0
  190.9430  176.0680  142.9370 C   0  0  0  0  0  0  0  0  0  0  0  0
  190.9360  173.6170  142.2260 C   0  0  0  0  0  2  0  0  0  0  0  0
  189.7470  173.0520  142.9920 C   0  0  2  0  0  3  0  0  0  0  0  0
  190.2250  172.3640  144.2320 C   0  0  0  0  0  0  0  0  0  0  0  0
  189.4020  171.9080  145.0690 O   0  0  0  0  0  0  0  0  0  0  0  0
  191.6210  172.1660  144.4330 N   0  0  0  0  0  1  0  0  0  0  0  0
  189.0340  172.1670  142.1810 O   0  0  0  0  0  0  0  0  0  0  0  0
  187.8600  172.8440  141.8490 C   0  0  0  0  0  1  0  0  0  0  0  0
  1 20  1  0  0  0  0
  1 11  1  0  0  0  0
  2  7  1  6  0  0  0
  2  6  1  0  0  0  0
  3  5  2  6  0  0  0
  3 10  1  0  0  0  0
  3  7  1  0  0  0  0
  6  4  1  0  0  0  0
  9 10  1  6  0  0  0
  9 11  1  0  0  0  0
  9  2  1  0  0  0  0
 11  8  1  1  0  0  0
 11  4  1  0  0  0  0
 12  3  1  0  0  0  0
 13 14  1  0  0  0  0
 13 16  1  0  0  0  0
 14 15  1  0  0  0  0
 15 12  1  1  0  0  0
 16 15  1  0  0  0  0
 17 19  1  0  0  0  0
 18 17  2  0  0  0  0
 18 20  1  0  0  0  0
 19 22  2  0  0  0  0
 20 21  2  0  0  0  0
 22 21  1  0  0  0  0
 23 26  1  0  0  0  0
 23 25  1  0  0  0  0
 24 25  2  0  0  0  0
 25 18  1  0  0  0  0
 27 26  1  6  0  0  0
 27 28  1  0  0  0  0
 28 30  1  0  0  0  0
 28 29  2  0  0  0  0
 31 27  1  0  0  0  0
 32 31  1  0  0  0  0
M  END
>  <MODEL>
3

>  <REMARK>
 VINA RESULT:      -6.7      2.483      4.675
  Name = 
  9 active torsions:
  status: ('A' for Active; 'I' for Inactive)
    1  A    between atoms: N_1  and  C_16
    2  A    between atoms: N_1  and  C_29
    3  A    between atoms: O_3  and  C_13
    4  A    between atoms: C_7  and  C_31
    5  A    between atoms: C_8  and  C_13
    6  A    between atoms: P_10  and  O_23
    7  A    between atoms: C_13  and  C_26
    8  A    between atoms: N_15  and  C_26
    9  A    between atoms: O_23  and  C_28
                            x       y       z     vdW  Elec       q    Type
                         _______ _______ _______ _____ _____    ______ ____

>  <TORSDO>
F 9

$$$$
=
 OpenBabel11062419063D

 32 35  0  0  1  0  0  0  0  0999 V2000
  189.3630  177.3370  145.0650 N   0  0  0  0  0  2  0  0  0  0  0  0
  191.9990  175.3410  146.5470 C   0  0  2  0  0  3  0  0  0  0  0  0
  193.6220  175.3460  144.6510 P   0  0  2  0  0  0  0  0  0  0  0  0
  189.8400  176.0950  147.1250 C   0  0  0  0  0  2  0  0  0  0  0  0
  194.0440  173.9500  144.2560 O   0  0  0  0  0  0  0  0  0  0  0  0
  191.2460  175.9130  147.7100 C   0  0  0  0  0  2  0  0  0  0  0  0
  193.4880  175.4840  146.4510 C   0  0  0  0  0  2  0  0  0  0  0  0
  189.3960  174.9850  145.0370 O   0  0  0  0  0  1  0  0  0  0  0  0
  191.4810  176.1360  145.3940 C   0  0  1  0  0  3  0  0  0  0  0  0
  192.0040  175.6100  144.2010 O   0  0  0  0  0  0  0  0  0  0  0  0
  189.9820  176.1240  145.5950 C   0  0  1  0  0  0  0  0  0  0  0  0
  194.6710  176.4980  143.9750 O   0  0  0  0  0  0  0  0  0  0  0  0
  196.0420  176.7620  141.3650 C   0  0  0  0  0  2  0  0  0  0  0  0
  196.6840  176.5630  142.7080 C   0  0  0  0  0  2  0  0  0  0  0  0
  195.4180  175.8110  143.0110 C   0  0  2  0  0  3  0  0  0  0  0  0
  194.8860  176.0580  141.7360 O   0  0  0  0  0  0  0  0  0  0  0  0
  186.0900  177.8130  143.3080 C   0  0  0  0  0  3  0  0  0  0  0  0
  187.4570  177.5800  143.5160 C   0  0  0  0  0  0  0  0  0  0  0  0
  185.2260  178.0120  144.3890 C   0  0  0  0  0  3  0  0  0  0  0  0
  187.9590  177.5430  144.8370 C   0  0  0  0  0  0  0  0  0  0  0  0
  187.0820  177.7490  145.9150 C   0  0  0  0  0  3  0  0  0  0  0  0
  185.7230  177.9800  145.6940 C   0  0  0  0  0  3  0  0  0  0  0  0
  188.5550  176.0480  141.8020 N   0  0  0  0  0  2  0  0  0  0  0  0
  188.9300  178.3400  141.8250 O   0  0  0  0  0  0  0  0  0  0  0  0
  188.3360  177.3600  142.3470 C   0  0  0  0  0  0  0  0  0  0  0  0
  187.7570  174.8820  142.1530 C   0  0  0  0  0  2  0  0  0  0  0  0
  188.2600  173.6550  141.4070 C   0  0  2  0  0  3  0  0  0  0  0  0
  189.2620  172.9270  142.2480 C   0  0  0  0  0  0  0  0  0  0  0  0
  188.8950  172.0190  143.0400 O   0  0  0  0  0  0  0  0  0  0  0  0
  190.6480  173.2210  142.1020 N   0  0  0  0  0  1  0  0  0  0  0  0
  188.8240  174.0350  140.1870 O   0  0  0  0  0  0  0  0  0  0  0  0
  188.3600  173.0970  139.2650 C   0  0  0  0  0  1  0  0  0  0  0  0
  1 11  1  0  0  0  0
  2  7  1  1  0  0  0
  2  6  1  0  0  0  0
  3  5  2  6  0  0  0
  3  7  1  0  0  0  0
  4  6  1  0  0  0  0
  9 10  1  6  0  0  0
  9 11  1  0  0  0  0
  9  2  1  0  0  0  0
 10  3  1  0  0  0  0
 11  8  1  6  0  0  0
 11  4  1  0  0  0  0
 12  3  1  0  0  0  0
 13 16  1  0  0  0  0
 13 14  1  0  0  0  0
 14 15  1  0  0  0  0
 15 12  1  1  0  0  0
 16 15  1  0  0  0  0
 17 18  2  0  0  0  0
 17 19  1  0  0  0  0
 18 20  1  0  0  0  0
 19 22  2  0  0  0  0
 20  1  1  0  0  0  0
 20 21  2  0  0  0  0
 22 21  1  0  0  0  0
 23 26  1  0  0  0  0
 23 25  1  0  0  0  0
 24 25  2  0  0  0  0
 25 18  1  0  0  0  0
 27 26  1  1  0  0  0
 27 28  1  0  0  0  0
 28 29  2  0  0  0  0
 30 28  1  0  0  0  0
 31 27  1  0  0  0  0
 32 31  1  0  0  0  0
M  END
>  <MODEL>
4

>  <REMARK>
 VINA RESULT:      -6.7      2.868      7.402
  Name = 
  9 active torsions:
  status: ('A' for Active; 'I' for Inactive)
    1  A    between atoms: N_1  and  C_16
    2  A    between atoms: N_1  and  C_29
    3  A    between atoms: O_3  and  C_13
    4  A    between atoms: C_7  and  C_31
    5  A    between atoms: C_8  and  C_13
    6  A    between atoms: P_10  and  O_23
    7  A    between atoms: C_13  and  C_26
    8  A    between atoms: N_15  and  C_26
    9  A    between atoms: O_23  and  C_28
                            x       y       z     vdW  Elec       q    Type
                         _______ _______ _______ _____ _____    ______ ____

>  <TORSDO>
F 9

$$$$
=
 OpenBabel11062419063D

 32 35  0  0  1  0  0  0  0  0999 V2000
  189.5380  177.1900  145.9910 N   0  0  0  0  0  2  0  0  0  0  0  0
  192.8500  176.0190  146.8780 C   0  0  2  0  0  3  0  0  0  0  0  0
  193.6360  175.2900  144.6230 P   0  0  2  0  0  0  0  0  0  0  0  0
  190.9540  176.8980  147.9710 C   0  0  0  0  0  2  0  0  0  0  0  0
  194.1320  173.8630  144.6240 O   0  0  0  0  0  0  0  0  0  0  0  0
  192.4840  176.9970  147.9530 C   0  0  0  0  0  2  0  0  0  0  0  0
  194.1470  176.1420  146.1370 C   0  0  0  0  0  2  0  0  0  0  0  0
  189.9880  175.0290  146.8040 O   0  0  0  0  0  1  0  0  0  0  0  0
  191.8100  176.2690  145.8360 C   0  0  1  0  0  3  0  0  0  0  0  0
  191.9470  175.3160  144.8120 O   0  0  0  0  0  0  0  0  0  0  0  0
  190.5180  176.3080  146.6210 C   0  0  1  0  0  0  0  0  0  0  0  0
  194.1350  176.0930  143.2120 O   0  0  0  0  0  0  0  0  0  0  0  0
  196.5200  176.4580  141.4960 C   0  0  0  0  0  2  0  0  0  0  0  0
  196.4130  176.7400  142.9670 C   0  0  0  0  0  2  0  0  0  0  0  0
  195.4210  175.6100  142.9370 C   0  0  2  0  0  3  0  0  0  0  0  0
  195.5710  175.4250  141.5540 O   0  0  0  0  0  0  0  0  0  0  0  0
  186.0100  176.4110  145.0000 C   0  0  0  0  0  3  0  0  0  0  0  0
  187.4080  176.5150  144.9420 C   0  0  0  0  0  0  0  0  0  0  0  0
  185.3100  176.8330  146.1340 C   0  0  0  0  0  3  0  0  0  0  0  0
  188.1090  177.0480  146.0480 C   0  0  0  0  0  0  0  0  0  0  0  0
  187.3930  177.4720  147.1800 C   0  0  0  0  0  3  0  0  0  0  0  0
  186.0020  177.3630  147.2250 C   0  0  0  0  0  3  0  0  0  0  0  0
  188.1740  176.8410  142.5350 N   0  0  0  0  0  2  0  0  0  0  0  0
  188.6620  174.9110  143.7320 O   0  0  0  0  0  0  0  0  0  0  0  0
  188.1150  176.0450  143.7310 C   0  0  0  0  0  0  0  0  0  0  0  0
  187.7970  178.2460  142.4780 C   0  0  0  0  0  2  0  0  0  0  0  0
  186.4980  178.4110  141.7010 C   0  0  2  0  0  3  0  0  0  0  0  0
  185.3950  178.8000  142.6360 C   0  0  0  0  0  0  0  0  0  0  0  0
  185.5820  179.6840  143.5140 O   0  0  0  0  0  0  0  0  0  0  0  0
  184.1070  178.2110  142.4870 N   0  0  0  0  0  1  0  0  0  0  0  0
  186.1840  177.2240  141.0360 O   0  0  0  0  0  0  0  0  0  0  0  0
  186.3170  177.5220  139.6800 C   0  0  0  0  0  1  0  0  0  0  0  0
  1 20  1  0  0  0  0
  1 11  1  0  0  0  0
  2  7  1  6  0  0  0
  2  6  1  0  0  0  0
  3  5  2  1  0  0  0
  3 10  1  0  0  0  0
  3  7  1  0  0  0  0
  6  4  1  0  0  0  0
  9 10  1  6  0  0  0
  9 11  1  0  0  0  0
  9  2  1  0  0  0  0
 11  8  1  1  0  0  0
 11  4  1  0  0  0  0
 12  3  1  0  0  0  0
 13 16  1  0  0  0  0
 13 14  1  0  0  0  0
 15 14  1  0  0  0  0
 15 12  1  6  0  0  0
 16 15  1  0  0  0  0
 17 19  1  0  0  0  0
 18 17  2  0  0  0  0
 18 20  1  0  0  0  0
 19 22  2  0  0  0  0
 20 21  2  0  0  0  0
 21 22  1  0  0  0  0
 23 25  1  0  0  0  0
 25 24  2  0  0  0  0
 25 18  1  0  0  0  0
 26 23  1  0  0  0  0
 27 26  1  1  0  0  0
 27 28  1  0  0  0  0
 28 29  2  0  0  0  0
 30 28  1  0  0  0  0
 31 27  1  0  0  0  0
 32 31  1  0  0  0  0
M  END
>  <MODEL>
5

>  <REMARK>
 VINA RESULT:      -6.7      2.658      7.987
  Name = 
  9 active torsions:
  status: ('A' for Active; 'I' for Inactive)
    1  A    between atoms: N_1  and  C_16
    2  A    between atoms: N_1  and  C_29
    3  A    between atoms: O_3  and  C_13
    4  A    between atoms: C_7  and  C_31
    5  A    between atoms: C_8  and  C_13
    6  A    between atoms: P_10  and  O_23
    7  A    between atoms: C_13  and  C_26
    8  A    between atoms: N_15  and  C_26
    9  A    between atoms: O_23  and  C_28
                            x       y       z     vdW  Elec       q    Type
                         _______ _______ _______ _____ _____    ______ ____

>  <TORSDO>
F 9

$$$$
=
 OpenBabel11062419063D

 32 35  0  0  1  0  0  0  0  0999 V2000
  190.1850  175.6850  144.2250 N   0  0  0  0  0  2  0  0  0  0  0  0
  187.5220  176.7930  146.4180 C   0  0  2  0  0  3  0  0  0  0  0  0
  186.0630  177.9260  144.7390 P   0  0  2  0  0  0  0  0  0  0  0  0
  189.5920  175.6770  146.6040 C   0  0  0  0  0  2  0  0  0  0  0  0
  185.7340  179.3470  145.1330 O   0  0  0  0  0  0  0  0  0  0  0  0
  188.1510  175.6320  147.1280 C   0  0  0  0  0  2  0  0  0  0  0  0
  186.0420  176.8430  146.1900 C   0  0  0  0  0  2  0  0  0  0  0  0
  190.2530  177.6870  145.4580 O   0  0  0  0  0  1  0  0  0  0  0  0
  188.1000  176.6930  145.0450 C   0  0  1  0  0  3  0  0  0  0  0  0
  187.7000  177.8120  144.2950 O   0  0  0  0  0  0  0  0  0  0  0  0
  189.5760  176.4770  145.2910 C   0  0  1  0  0  0  0  0  0  0  0  0
  185.0260  177.3960  143.5020 O   0  0  0  0  0  0  0  0  0  0  0  0
  184.7830  178.2710  140.6850 C   0  0  0  0  0  2  0  0  0  0  0  0
  183.6950  178.2430  141.7200 C   0  0  0  0  0  2  0  0  0  0  0  0
  184.8300  178.5050  142.6710 C   0  0  2  0  0  3  0  0  0  0  0  0
  185.7840  178.5010  141.6420 O   0  0  0  0  0  0  0  0  0  0  0  0
  192.4370  172.7090  144.5400 C   0  0  0  0  0  3  0  0  0  0  0  0
  191.2710  173.4760  144.4020 C   0  0  0  0  0  0  0  0  0  0  0  0
  193.6910  173.3230  144.6140 C   0  0  0  0  0  3  0  0  0  0  0  0
  191.3730  174.8850  144.3340 C   0  0  0  0  0  0  0  0  0  0  0  0
  192.6380  175.4900  144.4140 C   0  0  0  0  0  3  0  0  0  0  0  0
  193.7910  174.7150  144.5510 C   0  0  0  0  0  3  0  0  0  0  0  0
  189.2270  172.7250  143.0810 N   0  0  0  0  0  2  0  0  0  0  0  0
  189.4680  172.2650  145.3450 O   0  0  0  0  0  0  0  0  0  0  0  0
  189.9640  172.7900  144.3130 C   0  0  0  0  0  0  0  0  0  0  0  0
  189.7870  173.0750  141.7830 C   0  0  0  0  0  2  0  0  0  0  0  0
  188.7080  173.6650  140.8850 C   0  0  2  0  0  3  0  0  0  0  0  0
  188.8230  173.0860  139.5090 C   0  0  0  0  0  0  0  0  0  0  0  0
  189.2400  171.9090  139.3420 O   0  0  0  0  0  0  0  0  0  0  0  0
  188.3970  173.8520  138.3870 N   0  0  0  0  0  1  0  0  0  0  0  0
  188.8270  175.0560  140.8460 O   0  0  0  0  0  0  0  0  0  0  0  0
  187.7260  175.5330  141.5580 C   0  0  0  0  0  1  0  0  0  0  0  0
  1 20  1  0  0  0  0
  1 11  1  0  0  0  0
  2  7  1  6  0  0  0
  2  6  1  0  0  0  0
  3  5  2  1  0  0  0
  3  7  1  0  0  0  0
  4  6  1  0  0  0  0
  9 10  1  6  0  0  0
  9 11  1  0  0  0  0
  9  2  1  0  0  0  0
 10  3  1  0  0  0  0
 11  8  1  1  0  0  0
 11  4  1  0  0  0  0
 12  3  1  0  0  0  0
 13 16  1  0  0  0  0
 13 14  1  0  0  0  0
 14 15  1  0  0  0  0
 15 12  1  1  0  0  0
 16 15  1  0  0  0  0
 17 19  1  0  0  0  0
 18 17  2  0  0  0  0
 20 18  1  0  0  0  0
 20 21  2  0  0  0  0
 21 22  1  0  0  0  0
 22 19  2  0  0  0  0
 23 25  1  0  0  0  0
 25 18  1  0  0  0  0
 25 24  2  0  0  0  0
 26 23  1  0  0  0  0
 27 26  1  1  0  0  0
 28 27  1  0  0  0  0
 29 28  2  0  0  0  0
 30 28  1  0  0  0  0
 31 27  1  0  0  0  0
 31 32  1  0  0  0  0
M  END
>  <MODEL>
6

>  <REMARK>
 VINA RESULT:      -6.5      2.486      5.107
  Name = 
  9 active torsions:
  status: ('A' for Active; 'I' for Inactive)
    1  A    between atoms: N_1  and  C_16
    2  A    between atoms: N_1  and  C_29
    3  A    between atoms: O_3  and  C_13
    4  A    between atoms: C_7  and  C_31
    5  A    between atoms: C_8  and  C_13
    6  A    between atoms: P_10  and  O_23
    7  A    between atoms: C_13  and  C_26
    8  A    between atoms: N_15  and  C_26
    9  A    between atoms: O_23  and  C_28
                            x       y       z     vdW  Elec       q    Type
                         _______ _______ _______ _____ _____    ______ ____

>  <TORSDO>
F 9

$$$$
=
 OpenBabel11062419063D

 32 35  0  0  1  0  0  0  0  0999 V2000
  188.9400  175.3220  145.1680 N   0  0  0  0  0  2  0  0  0  0  0  0
  186.3110  177.5120  146.3610 C   0  0  2  0  0  3  0  0  0  0  0  0
  185.5420  178.4430  144.1770 P   0  0  2  0  0  0  0  0  0  0  0  0
  187.9380  176.0700  147.2770 C   0  0  0  0  0  2  0  0  0  0  0  0
  185.5370  179.9540  144.1700 O   0  0  0  0  0  0  0  0  0  0  0  0
  186.4670  176.4740  147.4320 C   0  0  0  0  0  2  0  0  0  0  0  0
  184.9660  177.8130  145.7740 C   0  0  0  0  0  2  0  0  0  0  0  0
  189.3100  177.5160  145.9300 O   0  0  0  0  0  1  0  0  0  0  0  0
  187.0840  176.9310  145.2230 C   0  0  1  0  0  3  0  0  0  0  0  0
  187.1420  177.8710  144.1800 O   0  0  0  0  0  0  0  0  0  0  0  0
  188.3780  176.4780  145.8620 C   0  0  1  0  0  0  0  0  0  0  0  0
  184.6470  177.8390  142.8660 O   0  0  0  0  0  0  0  0  0  0  0  0
  185.4650  177.8620  140.0210 C   0  0  0  0  0  2  0  0  0  0  0  0
  184.1370  178.2790  140.5830 C   0  0  0  0  0  2  0  0  0  0  0  0
  184.9590  178.6670  141.7810 C   0  0  2  0  0  3  0  0  0  0  0  0
  186.1540  178.2370  141.1850 O   0  0  0  0  0  0  0  0  0  0  0  0
  192.1160  175.2460  143.1840 C   0  0  0  0  0  3  0  0  0  0  0  0
  190.7730  175.4670  143.5220 C   0  0  0  0  0  0  0  0  0  0  0  0
  193.0040  174.6950  144.1130 C   0  0  0  0  0  3  0  0  0  0  0  0
  190.3200  175.1300  144.8180 C   0  0  0  0  0  0  0  0  0  0  0  0
  191.2220  174.5730  145.7400 C   0  0  0  0  0  3  0  0  0  0  0  0
  192.5560  174.3580  145.3920 C   0  0  0  0  0  3  0  0  0  0  0  0
  189.0700  175.2520  141.6400 N   0  0  0  0  0  2  0  0  0  0  0  0
  189.8040  177.3180  142.4050 O   0  0  0  0  0  0  0  0  0  0  0  0
  189.8670  176.0650  142.5170 C   0  0  0  0  0  0  0  0  0  0  0  0
  188.8710  173.8210  141.8210 C   0  0  0  0  0  2  0  0  0  0  0  0
  189.6720  173.0420  140.7870 C   0  0  2  0  0  3  0  0  0  0  0  0
  188.9860  173.1100  139.4590 C   0  0  0  0  0  0  0  0  0  0  0  0
  187.8160  172.6650  139.3190 O   0  0  0  0  0  0  0  0  0  0  0  0
  189.6390  173.7410  138.3620 N   0  0  0  0  0  1  0  0  0  0  0  0
  189.8200  171.7150  141.1990 O   0  0  0  0  0  0  0  0  0  0  0  0
  190.1240  171.7890  142.5580 C   0  0  0  0  0  1  0  0  0  0  0  0
  1 11  1  0  0  0  0
  2  7  1  6  0  0  0
  2  6  1  0  0  0  0
  3  5  2  6  0  0  0
  3 10  1  0  0  0  0
  3  7  1  0  0  0  0
  4  6  1  0  0  0  0
  9 10  1  6  0  0  0
  9 11  1  0  0  0  0
  9  2  1  0  0  0  0
 11  8  1  1  0  0  0
 11  4  1  0  0  0  0
 12  3  1  0  0  0  0
 13 14  1  0  0  0  0
 13 16  1  0  0  0  0
 14 15  1  0  0  0  0
 15 12  1  1  0  0  0
 16 15  1  0  0  0  0
 17 18  2  0  0  0  0
 17 19  1  0  0  0  0
 18 20  1  0  0  0  0
 19 22  2  0  0  0  0
 20  1  1  0  0  0  0
 20 21  2  0  0  0  0
 22 21  1  0  0  0  0
 23 26  1  0  0  0  0
 23 25  1  0  0  0  0
 24 25  2  0  0  0  0
 25 18  1  0  0  0  0
 27 31  1  0  0  0  0
 27 26  1  1  0  0  0
 28 27  1  0  0  0  0
 29 28  2  0  0  0  0
 30 28  1  0  0  0  0
 31 32  1  0  0  0  0
M  END
>  <MODEL>
7

>  <REMARK>
 VINA RESULT:      -6.4      2.726      5.212
  Name = 
  9 active torsions:
  status: ('A' for Active; 'I' for Inactive)
    1  A    between atoms: N_1  and  C_16
    2  A    between atoms: N_1  and  C_29
    3  A    between atoms: O_3  and  C_13
    4  A    between atoms: C_7  and  C_31
    5  A    between atoms: C_8  and  C_13
    6  A    between atoms: P_10  and  O_23
    7  A    between atoms: C_13  and  C_26
    8  A    between atoms: N_15  and  C_26
    9  A    between atoms: O_23  and  C_28
                            x       y       z     vdW  Elec       q    Type
                         _______ _______ _______ _____ _____    ______ ____

>  <TORSDO>
F 9

$$$$
=
 OpenBabel11062419063D

 32 35  0  0  1  0  0  0  0  0999 V2000
  188.8760  174.9570  143.9140 N   0  0  0  0  0  2  0  0  0  0  0  0
  187.6070  177.9280  142.2730 C   0  0  2  0  0  3  0  0  0  0  0  0
  185.2360  177.8320  143.0460 P   0  0  2  0  0  0  0  0  0  0  0  0
  189.6320  176.7230  142.3910 C   0  0  0  0  0  2  0  0  0  0  0  0
  184.2570  177.8940  141.8960 O   0  0  0  0  0  0  0  0  0  0  0  0
  189.0840  178.1560  142.4010 C   0  0  0  0  0  2  0  0  0  0  0  0
  186.6280  178.9530  142.7570 C   0  0  0  0  0  2  0  0  0  0  0  0
  188.1100  174.9970  141.6910 O   0  0  0  0  0  1  0  0  0  0  0  0
  187.3760  176.7530  143.1660 C   0  0  1  0  0  3  0  0  0  0  0  0
  186.0410  176.3350  143.0390 O   0  0  0  0  0  0  0  0  0  0  0  0
  188.4760  175.7880  142.7820 C   0  0  1  0  0  0  0  0  0  0  0  0
  184.4430  178.1270  144.5190 O   0  0  0  0  0  0  0  0  0  0  0  0
  184.9920  178.2890  147.4230 C   0  0  0  0  0  2  0  0  0  0  0  0
  185.3220  177.1500  146.5030 C   0  0  0  0  0  2  0  0  0  0  0  0
  185.4570  178.2410  145.4770 C   0  0  2  0  0  3  0  0  0  0  0  0
  185.1240  179.2430  146.4010 O   0  0  0  0  0  0  0  0  0  0  0  0
  191.4740  175.2950  146.5910 C   0  0  0  0  0  3  0  0  0  0  0  0
  190.8310  174.8720  145.4190 C   0  0  0  0  0  0  0  0  0  0  0  0
  190.8710  176.2290  147.4390 C   0  0  0  0  0  3  0  0  0  0  0  0
  189.5610  175.4030  145.0950 C   0  0  0  0  0  0  0  0  0  0  0  0
  188.9650  176.3380  145.9580 C   0  0  0  0  0  3  0  0  0  0  0  0
  189.6150  176.7510  147.1220 C   0  0  0  0  0  3  0  0  0  0  0  0
  192.4550  174.3020  143.5410 N   0  0  0  0  0  2  0  0  0  0  0  0
  191.2310  172.6690  144.6490 O   0  0  0  0  0  0  0  0  0  0  0  0
  191.5060  173.8930  144.5400 C   0  0  0  0  0  0  0  0  0  0  0  0
  193.0330  175.6370  143.4730 C   0  0  0  0  0  2  0  0  0  0  0  0
  194.4660  175.6180  143.9870 C   0  0  2  0  0  3  0  0  0  0  0  0
  195.4190  175.6380  142.8330 C   0  0  0  0  0  0  0  0  0  0  0  0
  195.4600  174.6770  142.0200 O   0  0  0  0  0  0  0  0  0  0  0  0
  196.2370  176.7840  142.6160 N   0  0  0  0  0  1  0  0  0  0  0  0
  194.6750  174.4860  144.7780 O   0  0  0  0  0  0  0  0  0  0  0  0
  195.3140  174.9580  145.9250 C   0  0  0  0  0  1  0  0  0  0  0  0
  1 20  1  0  0  0  0
  2  6  1  1  0  0  0
  2  7  1  0  0  0  0
  2  9  1  0  0  0  0
  3  5  2  6  0  0  0
  3 12  1  0  0  0  0
  4  6  1  0  0  0  0
  4 11  1  0  0  0  0
  7  3  1  0  0  0  0
  9 10  1  6  0  0  0
 10  3  1  0  0  0  0
 11  8  1  6  0  0  0
 11  9  1  0  0  0  0
 11  1  1  0  0  0  0
 14 13  1  0  0  0  0
 15 12  1  6  0  0  0
 15 16  1  0  0  0  0
 15 14  1  0  0  0  0
 16 13  1  0  0  0  0
 17 19  1  0  0  0  0
 18 17  2  0  0  0  0
 20 18  1  0  0  0  0
 20 21  2  0  0  0  0
 21 22  1  0  0  0  0
 22 19  2  0  0  0  0
 23 25  1  0  0  0  0
 25 24  2  0  0  0  0
 25 18  1  0  0  0  0
 26 23  1  0  0  0  0
 27 26  1  6  0  0  0
 27 31  1  0  0  0  0
 28 27  1  0  0  0  0
 29 28  2  0  0  0  0
 30 28  1  0  0  0  0
 31 32  1  0  0  0  0
M  END
>  <MODEL>
8

>  <REMARK>
 VINA RESULT:      -6.4      1.047      1.452
  Name = 
  9 active torsions:
  status: ('A' for Active; 'I' for Inactive)
    1  A    between atoms: N_1  and  C_16
    2  A    between atoms: N_1  and  C_29
    3  A    between atoms: O_3  and  C_13
    4  A    between atoms: C_7  and  C_31
    5  A    between atoms: C_8  and  C_13
    6  A    between atoms: P_10  and  O_23
    7  A    between atoms: C_13  and  C_26
    8  A    between atoms: N_15  and  C_26
    9  A    between atoms: O_23  and  C_28
                            x       y       z     vdW  Elec       q    Type
                         _______ _______ _______ _____ _____    ______ ____

>  <TORSDO>
F 9

$$$$
=
 OpenBabel11062419063D

 32 35  0  0  1  0  0  0  0  0999 V2000
  190.2240  175.9790  144.1540 N   0  0  0  0  0  2  0  0  0  0  0  0
  187.5010  176.8240  146.3900 C   0  0  2  0  0  3  0  0  0  0  0  0
  185.9830  177.9580  144.7650 P   0  0  2  0  0  0  0  0  0  0  0  0
  189.6300  175.8170  146.5270 C   0  0  0  0  0  2  0  0  0  0  0  0
  185.5750  179.3360  145.2290 O   0  0  0  0  0  0  0  0  0  0  0  0
  188.1930  175.6660  147.0430 C   0  0  0  0  0  2  0  0  0  0  0  0
  186.0210  176.8030  146.1590 C   0  0  0  0  0  2  0  0  0  0  0  0
  190.1800  177.9160  145.4870 O   0  0  0  0  0  1  0  0  0  0  0  0
  188.0850  176.8270  145.0160 C   0  0  1  0  0  3  0  0  0  0  0  0
  187.6240  177.9590  144.3230 O   0  0  0  0  0  0  0  0  0  0  0  0
  189.5710  176.6800  145.2570 C   0  0  1  0  0  0  0  0  0  0  0  0
  184.9780  177.4350  143.4990 O   0  0  0  0  0  0  0  0  0  0  0  0
  184.8180  178.2880  140.6690 C   0  0  0  0  0  2  0  0  0  0  0  0
  183.7080  178.2960  141.6800 C   0  0  0  0  0  2  0  0  0  0  0  0
  184.8270  178.5400  142.6540 C   0  0  2  0  0  3  0  0  0  0  0  0
  185.8030  178.5030  141.6460 O   0  0  0  0  0  0  0  0  0  0  0  0
  189.0530  172.9150  142.3460 C   0  0  0  0  0  3  0  0  0  0  0  0
  189.6590  173.7280  143.3150 C   0  0  0  0  0  0  0  0  0  0  0  0
  188.3800  173.4810  141.2590 C   0  0  0  0  0  3  0  0  0  0  0  0
  189.5810  175.1340  143.1870 C   0  0  0  0  0  0  0  0  0  0  0  0
  188.9060  175.6900  142.0880 C   0  0  0  0  0  3  0  0  0  0  0  0
  188.3060  174.8700  141.1300 C   0  0  0  0  0  3  0  0  0  0  0  0
  191.7830  172.9770  144.5050 N   0  0  0  0  0  2  0  0  0  0  0  0
  189.6730  172.6170  145.4060 O   0  0  0  0  0  0  0  0  0  0  0  0
  190.3510  173.0930  144.4580 C   0  0  0  0  0  0  0  0  0  0  0  0
  192.6820  173.6850  143.6050 C   0  0  0  0  0  2  0  0  0  0  0  0
  193.9050  174.1810  144.3650 C   0  0  2  0  0  3  0  0  0  0  0  0
  193.5410  175.3830  145.1800 C   0  0  0  0  0  0  0  0  0  0  0  0
  193.3800  175.2870  146.4260 O   0  0  0  0  0  0  0  0  0  0  0  0
  193.4400  176.6560  144.5490 N   0  0  0  0  0  1  0  0  0  0  0  0
  194.9320  174.4870  143.4690 O   0  0  0  0  0  0  0  0  0  0  0  0
  196.0900  174.5250  144.2450 C   0  0  0  0  0  1  0  0  0  0  0  0
  1 11  1  0  0  0  0
  2  7  1  6  0  0  0
  2  6  1  0  0  0  0
  3  5  2  1  0  0  0
  3  7  1  0  0  0  0
  4  6  1  0  0  0  0
  9 10  1  1  0  0  0
  9 11  1  0  0  0  0
  9  2  1  0  0  0  0
 10  3  1  0  0  0  0
 11  8  1  1  0  0  0
 11  4  1  0  0  0  0
 12  3  1  0  0  0  0
 13 16  1  0  0  0  0
 13 14  1  0  0  0  0
 14 15  1  0  0  0  0
 15 12  1  1  0  0  0
 16 15  1  0  0  0  0
 17 18  1  0  0  0  0
 18 25  1  0  0  0  0
 19 17  2  0  0  0  0
 20 18  2  0  0  0  0
 20  1  1  0  0  0  0
 21 20  1  0  0  0  0
 22 19  1  0  0  0  0
 22 21  2  0  0  0  0
 25 23  1  0  0  0  0
 25 24  2  0  0  0  0
 26 23  1  0  0  0  0
 27 26  1  6  0  0  0
 27 28  1  0  0  0  0
 28 29  2  0  0  0  0
 30 28  1  0  0  0  0
 31 32  1  0  0  0  0
 31 27  1  0  0  0  0
M  END
>  <MODEL>
9

>  <REMARK>
 VINA RESULT:      -6.3      2.080      3.621
  Name = 
  9 active torsions:
  status: ('A' for Active; 'I' for Inactive)
    1  A    between atoms: N_1  and  C_16
    2  A    between atoms: N_1  and  C_29
    3  A    between atoms: O_3  and  C_13
    4  A    between atoms: C_7  and  C_31
    5  A    between atoms: C_8  and  C_13
    6  A    between atoms: P_10  and  O_23
    7  A    between atoms: C_13  and  C_26
    8  A    between atoms: N_15  and  C_26
    9  A    between atoms: O_23  and  C_28
                            x       y       z     vdW  Elec       q    Type
                         _______ _______ _______ _____ _____    ______ ____

>  <TORSDO>
F 9

$$$$
