=
 OpenBabel11062418423D

 43 48  0  0  1  0  0  0  0  0999 V2000
  189.8700  177.3180  145.2560 C   0  0  1  0  0  3  0  0  0  0  0  0
  188.7370  177.3870  144.2050 C   0  0  0  0  0  2  0  0  0  0  0  0
  190.6640  176.2190  142.4760 O   0  0  0  0  0  1  0  0  0  0  0  0
  190.2510  175.8660  145.7020 C   0  0  1  0  0  0  0  0  0  0  0  0
  188.0760  174.6540  141.6230 C   0  0  1  0  0  3  0  0  0  0  0  0
  189.0880  175.2700  146.4900 C   0  0  0  0  0  1  0  0  0  0  0  0
  188.5280  176.0320  143.5350 C   0  0  2  0  0  3  0  0  0  0  0  0
  188.1770  174.7780  140.0930 C   0  0  0  0  0  2  0  0  0  0  0  0
  189.3990  174.1780  142.3090 C   0  0  2  0  0  3  0  0  0  0  0  0
  188.7660  173.5120  139.5480 C   0  0  0  0  0  3  0  0  0  0  0  0
  191.2820  171.4220  140.9330 C   0  0  0  0  0  2  0  0  0  0  0  0
  189.8420  173.0300  140.1600 C   0  0  0  0  0  0  0  0  0  0  0  0
  190.3810  171.7940  139.9080 O   0  0  0  0  0  0  0  0  0  0  0  0
  191.4610  172.6600  141.8430 C   0  0  2  0  0  3  0  0  0  0  0  0
  189.8320  175.3490  143.1960 C   0  0  1  0  0  0  0  0  0  0  0  0
  191.0660  178.1100  144.7410 C   0  0  0  0  0  1  0  0  0  0  0  0
  187.7100  175.9950  142.2620 C   0  0  2  0  0  3  0  0  0  0  0  0
  190.4850  173.7200  141.3000 C   0  0  2  0  0  3  0  0  0  0  0  0
  190.5200  174.9250  144.4980 C   0  0  0  0  0  2  0  0  0  0  0  0
  192.9110  173.1720  141.7440 C   0  0  1  0  0  3  0  0  0  0  0  0
  192.9950  174.4760  140.9490 C   0  0  2  0  0  3  0  0  0  0  0  0
  193.6520  174.2570  139.5780 C   0  0  0  0  0  2  0  0  0  0  0  0
  196.1010  174.5320  139.2680 C   0  0  0  0  0  1  0  0  0  0  0  0
  194.7730  175.9280  140.7880 C   0  0  0  0  0  0  0  0  0  0  0  0
  193.7830  175.4490  141.6140 O   0  0  0  0  0  0  0  0  0  0  0  0
  195.5620  176.8450  141.1340 O   0  0  0  0  0  0  0  0  0  0  0  0
  194.7910  175.2710  139.4650 C   0  0  2  0  0  3  0  0  0  0  0  0
  193.5630  173.3380  143.1190 C   0  0  0  0  0  2  0  0  0  0  0  0
  193.0100  172.4330  144.0230 O   0  0  0  0  0  0  0  0  0  0  0  0
  193.5860  172.7650  145.2470 C   0  0  0  0  0  1  0  0  0  0  0  0
  186.3190  176.1750  142.4720 O   0  0  0  0  0  0  0  0  0  0  0  0
  185.8680  177.3160  141.7820 C   0  0  0  0  0  2  0  0  0  0  0  0
  185.3420  178.3470  142.7650 C   0  0  0  0  0  2  0  0  0  0  0  0
  184.7730  177.6950  143.8920 O   0  0  0  0  0  0  0  0  0  0  0  0
  185.7820  179.3100  147.2200 C   0  0  0  0  0  2  0  0  0  0  0  0
  186.0040  176.8480  147.3410 C   0  0  0  0  0  2  0  0  0  0  0  0
  186.6980  178.1710  147.6420 C   0  0  0  0  0  2  0  0  0  0  0  0
  185.5650  179.2650  145.7080 C   0  0  0  0  0  2  0  0  0  0  0  0
  185.5230  176.7840  145.9180 C   0  0  0  0  0  3  0  0  0  0  0  0
  185.2670  177.8740  145.1850 C   0  0  0  0  0  0  0  0  0  0  0  0
  191.5070  175.8430  146.5890 C   0  0  0  0  0  2  0  0  0  0  0  0
  191.4340  177.1840  148.5800 O   0  0  0  0  0  1  0  0  0  0  0  0
  191.2200  175.8970  148.0890 C   0  0  0  0  0  2  0  0  0  0  0  0
  1 16  1  6  0  0  0
  1  4  1  0  0  0  0
  2  1  1  0  0  0  0
  3 15  1  0  0  0  0
  4  6  1  1  0  0  0
  4 41  1  0  0  0  0
  5  8  1  6  0  0  0
  5 17  1  0  0  0  0
  5  9  1  0  0  0  0
  7  2  1  6  0  0  0
  9 15  1  0  0  0  0
 10  8  1  0  0  0  0
 10 12  2  0  0  0  0
 11 14  1  0  0  0  0
 12 18  1  0  0  0  0
 13 12  1  0  0  0  0
 13 11  1  0  0  0  0
 15  7  1  0  0  0  0
 15 19  1  0  0  0  0
 17 31  1  0  0  0  0
 17  7  1  0  0  0  0
 18 14  1  0  0  0  0
 18  9  1  0  0  0  0
 19  4  1  0  0  0  0
 20 14  1  0  0  0  0
 20 28  1  0  0  0  0
 21 25  1  0  0  0  0
 21 20  1  0  0  0  0
 22 21  1  0  0  0  0
 23 27  1  0  0  0  0
 24 26  2  0  0  0  0
 24 25  1  0  0  0  0
 27 22  1  0  0  0  0
 27 24  1  0  0  0  0
 28 29  1  0  0  0  0
 29 30  1  0  0  0  0
 32 31  1  0  0  0  0
 32 33  1  0  0  0  0
 33 34  1  0  0  0  0
 34 40  1  0  0  0  0
 35 37  1  0  0  0  0
 36 37  1  0  0  0  0
 38 35  1  0  0  0  0
 39 36  1  0  0  0  0
 40 38  1  0  0  0  0
 40 39  2  0  0  0  0
 41 43  1  0  0  0  0
 43 42  1  0  0  0  0
M  END
>  <MODEL>
1

>  <REMARK>
 VINA RESULT:      -7.7      0.000      0.000
  Name = 
  11 active torsions:
  status: ('A' for Active; 'I' for Inactive)
    1  A    between atoms: C_1  and  C_3
    2  A    between atoms: C_1  and  C_22
    3  A    between atoms: C_1  and  C_34
    4  A    between atoms: C_9  and  C_21
    5  A    between atoms: C_9  and  O_23
    6  A    between atoms: C_12  and  C_31
    7  A    between atoms: C_16  and  C_31
    8  A    between atoms: O_17  and  C_21
    9  A    between atoms: O_17  and  C_33
   10  A    between atoms: C_22  and  O_32
   11  A    between atoms: O_23  and  C_39
                            x       y       z     vdW  Elec       q    Type
                         _______ _______ _______ _____ _____    ______ ____

>  <TORSDO>
F 11

$$$$
=
 OpenBabel11062418423D

 43 48  0  0  1  0  0  0  0  0999 V2000
  189.8960  177.5650  145.0540 C   0  0  1  0  0  3  0  0  0  0  0  0
  188.7900  177.4920  143.9750 C   0  0  0  0  0  2  0  0  0  0  0  0
  190.7330  176.0460  142.4930 O   0  0  0  0  0  1  0  0  0  0  0  0
  190.2390  176.1910  145.7240 C   0  0  1  0  0  0  0  0  0  0  0  0
  188.1360  174.4100  141.8200 C   0  0  1  0  0  3  0  0  0  0  0  0
  189.0470  175.7390  146.5620 C   0  0  0  0  0  1  0  0  0  0  0  0
  188.5710  176.0540  143.5120 C   0  0  2  0  0  3  0  0  0  0  0  0
  188.2750  174.2990  140.2920 C   0  0  0  0  0  2  0  0  0  0  0  0
  189.4340  174.0220  142.6040 C   0  0  2  0  0  3  0  0  0  0  0  0
  188.8510  172.9570  139.9600 C   0  0  0  0  0  3  0  0  0  0  0  0
  191.2940  171.0610  141.7090 C   0  0  0  0  0  2  0  0  0  0  0  0
  189.9040  172.5550  140.6650 C   0  0  0  0  0  0  0  0  0  0  0  0
  190.4240  171.2880  140.6160 O   0  0  0  0  0  0  0  0  0  0  0  0
  191.4760  172.4200  142.4250 C   0  0  2  0  0  3  0  0  0  0  0  0
  189.8680  175.3070  143.3140 C   0  0  1  0  0  0  0  0  0  0  0  0
  191.1190  178.2510  144.4560 C   0  0  0  0  0  1  0  0  0  0  0  0
  187.7810  175.8380  142.2390 C   0  0  2  0  0  3  0  0  0  0  0  0
  190.5330  173.4000  141.7040 C   0  0  2  0  0  3  0  0  0  0  0  0
  190.5180  175.0750  144.6830 C   0  0  0  0  0  2  0  0  0  0  0  0
  192.9380  172.8880  142.2880 C   0  0  1  0  0  3  0  0  0  0  0  0
  193.8290  172.2760  143.3710 C   0  0  2  0  0  3  0  0  0  0  0  0
  193.4780  172.8240  144.7620 C   0  0  0  0  0  2  0  0  0  0  0  0
  194.6320  174.8190  145.6870 C   0  0  0  0  0  1  0  0  0  0  0  0
  195.7530  173.1470  144.2830 C   0  0  0  0  0  0  0  0  0  0  0  0
  195.1980  172.5800  143.1600 O   0  0  0  0  0  0  0  0  0  0  0  0
  196.9730  173.4470  144.3600 O   0  0  0  0  0  0  0  0  0  0  0  0
  194.7790  173.3410  145.3760 C   0  0  2  0  0  3  0  0  0  0  0  0
  193.5110  172.6030  140.8970 C   0  0  0  0  0  2  0  0  0  0  0  0
  193.9790  173.7840  140.3220 O   0  0  0  0  0  0  0  0  0  0  0  0
  193.1350  174.0020  139.2350 C   0  0  0  0  0  1  0  0  0  0  0  0
  186.3900  176.0690  142.3840 O   0  0  0  0  0  0  0  0  0  0  0  0
  186.0170  177.2340  141.6880 C   0  0  0  0  0  2  0  0  0  0  0  0
  185.4040  178.2410  142.6460 C   0  0  0  0  0  2  0  0  0  0  0  0
  184.8520  177.5670  143.7680 O   0  0  0  0  0  0  0  0  0  0  0  0
  185.7200  179.3700  147.0380 C   0  0  0  0  0  2  0  0  0  0  0  0
  185.8700  176.9170  147.3270 C   0  0  0  0  0  2  0  0  0  0  0  0
  186.5820  178.2410  147.5820 C   0  0  0  0  0  2  0  0  0  0  0  0
  185.5850  179.2330  145.5220 C   0  0  0  0  0  2  0  0  0  0  0  0
  185.4660  176.7730  145.8860 C   0  0  0  0  0  3  0  0  0  0  0  0
  185.2790  177.8190  145.0730 C   0  0  0  0  0  0  0  0  0  0  0  0
  191.4740  176.2830  146.6360 C   0  0  0  0  0  2  0  0  0  0  0  0
  191.5310  177.3380  148.7930 O   0  0  0  0  0  1  0  0  0  0  0  0
  191.1650  176.1690  148.1280 C   0  0  0  0  0  2  0  0  0  0  0  0
  1 16  1  6  0  0  0
  1  4  1  0  0  0  0
  2  1  1  0  0  0  0
  3 15  1  0  0  0  0
  4  6  1  1  0  0  0
  4 41  1  0  0  0  0
  5  8  1  6  0  0  0
  5 17  1  0  0  0  0
  5  9  1  0  0  0  0
  7  2  1  6  0  0  0
  9 15  1  0  0  0  0
 10  8  1  0  0  0  0
 10 12  2  0  0  0  0
 11 14  1  0  0  0  0
 12 18  1  0  0  0  0
 13 12  1  0  0  0  0
 13 11  1  0  0  0  0
 15  7  1  0  0  0  0
 15 19  1  0  0  0  0
 17 31  1  0  0  0  0
 17  7  1  0  0  0  0
 18 14  1  0  0  0  0
 18  9  1  0  0  0  0
 19  4  1  0  0  0  0
 20 14  1  0  0  0  0
 20 21  1  0  0  0  0
 21 22  1  0  0  0  0
 22 27  1  0  0  0  0
 24 26  2  0  0  0  0
 24 27  1  0  0  0  0
 25 21  1  0  0  0  0
 25 24  1  0  0  0  0
 27 23  1  0  0  0  0
 28 20  1  0  0  0  0
 29 28  1  0  0  0  0
 30 29  1  0  0  0  0
 32 31  1  0  0  0  0
 32 33  1  0  0  0  0
 33 34  1  0  0  0  0
 34 40  1  0  0  0  0
 35 37  1  0  0  0  0
 36 37  1  0  0  0  0
 38 35  1  0  0  0  0
 39 36  1  0  0  0  0
 40 38  1  0  0  0  0
 40 39  2  0  0  0  0
 41 43  1  0  0  0  0
 43 42  1  0  0  0  0
M  END
>  <MODEL>
2

>  <REMARK>
 VINA RESULT:      -7.6      1.135      2.388
  Name = 
  11 active torsions:
  status: ('A' for Active; 'I' for Inactive)
    1  A    between atoms: C_1  and  C_3
    2  A    between atoms: C_1  and  C_22
    3  A    between atoms: C_1  and  C_34
    4  A    between atoms: C_9  and  C_21
    5  A    between atoms: C_9  and  O_23
    6  A    between atoms: C_12  and  C_31
    7  A    between atoms: C_16  and  C_31
    8  A    between atoms: O_17  and  C_21
    9  A    between atoms: O_17  and  C_33
   10  A    between atoms: C_22  and  O_32
   11  A    between atoms: O_23  and  C_39
                            x       y       z     vdW  Elec       q    Type
                         _______ _______ _______ _____ _____    ______ ____

>  <TORSDO>
F 11

$$$$
=
 OpenBabel11062418423D

 43 48  0  0  1  0  0  0  0  0999 V2000
  190.1070  177.6810  144.5370 C   0  0  1  0  0  3  0  0  0  0  0  0
  189.1140  177.5920  143.3540 C   0  0  0  0  0  2  0  0  0  0  0  0
  191.0200  175.7890  142.2680 O   0  0  0  0  0  1  0  0  0  0  0  0
  190.2210  176.3700  145.3860 C   0  0  1  0  0  0  0  0  0  0  0  0
  188.3360  174.3550  141.4840 C   0  0  1  0  0  3  0  0  0  0  0  0
  188.9070  176.1460  146.1270 C   0  0  0  0  0  1  0  0  0  0  0  0
  188.7810  176.1390  143.0270 C   0  0  2  0  0  3  0  0  0  0  0  0
  188.6160  174.0480  140.0040 C   0  0  0  0  0  2  0  0  0  0  0  0
  189.4950  173.9350  142.4490 C   0  0  2  0  0  3  0  0  0  0  0  0
  189.0660  172.6250  139.8870 C   0  0  0  0  0  3  0  0  0  0  0  0
  191.0870  170.7150  142.0970 C   0  0  0  0  0  2  0  0  0  0  0  0
  189.9900  172.2060  140.7460 C   0  0  0  0  0  0  0  0  0  0  0  0
  190.3650  170.8950  140.8950 O   0  0  0  0  0  0  0  0  0  0  0  0
  191.3490  172.1240  142.6780 C   0  0  2  0  0  3  0  0  0  0  0  0
  189.9980  175.2460  143.0600 C   0  0  1  0  0  0  0  0  0  0  0  0
  191.4540  178.1630  144.0120 C   0  0  0  0  0  1  0  0  0  0  0  0
  188.1050  175.8520  141.7030 C   0  0  2  0  0  3  0  0  0  0  0  0
  190.6020  173.1010  141.7520 C   0  0  2  0  0  3  0  0  0  0  0  0
  190.4750  175.1140  144.5120 C   0  0  0  0  0  2  0  0  0  0  0  0
  192.8610  172.4220  142.6580 C   0  0  1  0  0  3  0  0  0  0  0  0
  193.5180  172.0920  144.0000 C   0  0  2  0  0  3  0  0  0  0  0  0
  193.1890  173.1510  145.0620 C   0  0  0  0  0  2  0  0  0  0  0  0
  194.6690  175.1120  145.4240 C   0  0  0  0  0  1  0  0  0  0  0  0
  195.5090  172.8820  144.8370 C   0  0  0  0  0  0  0  0  0  0  0  0
  194.9310  172.0580  143.9000 O   0  0  0  0  0  0  0  0  0  0  0  0
  196.7560  172.9730  144.9860 O   0  0  0  0  0  0  0  0  0  0  0  0
  194.5200  173.6190  145.6490 C   0  0  2  0  0  3  0  0  0  0  0  0
  193.5800  171.7000  141.5160 C   0  0  0  0  0  2  0  0  0  0  0  0
  193.9390  172.6110  140.5240 O   0  0  0  0  0  0  0  0  0  0  0  0
  193.4320  172.0640  139.3470 C   0  0  0  0  0  1  0  0  0  0  0  0
  186.7420  176.2380  141.6630 O   0  0  0  0  0  0  0  0  0  0  0  0
  186.6110  177.4870  141.0260 C   0  0  0  0  0  2  0  0  0  0  0  0
  185.4630  178.2690  141.6400 C   0  0  0  0  0  2  0  0  0  0  0  0
  185.9250  179.0080  142.7620 O   0  0  0  0  0  0  0  0  0  0  0  0
  185.4210  176.8160  145.8670 C   0  0  0  0  0  2  0  0  0  0  0  0
  185.5090  179.2080  146.4920 C   0  0  0  0  0  2  0  0  0  0  0  0
  184.7430  177.9050  146.6840 C   0  0  0  0  0  2  0  0  0  0  0  0
  185.3360  177.1570  144.3800 C   0  0  0  0  0  2  0  0  0  0  0  0
  185.7020  179.5310  145.0360 C   0  0  0  0  0  3  0  0  0  0  0  0
  185.6810  178.6000  144.0740 C   0  0  0  0  0  0  0  0  0  0  0  0
  191.3600  176.4460  146.4180 C   0  0  0  0  0  2  0  0  0  0  0  0
  191.5960  177.3230  148.6410 O   0  0  0  0  0  1  0  0  0  0  0  0
  190.8950  176.3950  147.8720 C   0  0  0  0  0  2  0  0  0  0  0  0
  1 16  1  6  0  0  0
  1  4  1  0  0  0  0
  2  1  1  0  0  0  0
  3 15  1  0  0  0  0
  4  6  1  1  0  0  0
  4 41  1  0  0  0  0
  5  8  1  6  0  0  0
  5 17  1  0  0  0  0
  5  9  1  0  0  0  0
  7 15  1  0  0  0  0
  7  2  1  6  0  0  0
  9 15  1  0  0  0  0
 10  8  1  0  0  0  0
 10 12  2  0  0  0  0
 11 14  1  0  0  0  0
 12 13  1  0  0  0  0
 12 18  1  0  0  0  0
 13 11  1  0  0  0  0
 15 19  1  0  0  0  0
 17  7  1  0  0  0  0
 18  9  1  0  0  0  0
 18 14  1  0  0  0  0
 19  4  1  0  0  0  0
 20 14  1  0  0  0  0
 20 21  1  0  0  0  0
 21 22  1  0  0  0  0
 22 27  1  0  0  0  0
 23 27  1  0  0  0  0
 24 26  2  0  0  0  0
 24 27  1  0  0  0  0
 25 21  1  0  0  0  0
 25 24  1  0  0  0  0
 28 20  1  0  0  0  0
 29 28  1  0  0  0  0
 30 29  1  0  0  0  0
 31 17  1  0  0  0  0
 32 33  1  0  0  0  0
 32 31  1  0  0  0  0
 33 34  1  0  0  0  0
 34 40  1  0  0  0  0
 35 37  1  0  0  0  0
 36 37  1  0  0  0  0
 38 35  1  0  0  0  0
 39 36  1  0  0  0  0
 40 38  1  0  0  0  0
 40 39  2  0  0  0  0
 41 43  1  0  0  0  0
 43 42  1  0  0  0  0
M  END
>  <MODEL>
3

>  <REMARK>
 VINA RESULT:      -7.4      1.684      2.713
  Name = 
  11 active torsions:
  status: ('A' for Active; 'I' for Inactive)
    1  A    between atoms: C_1  and  C_3
    2  A    between atoms: C_1  and  C_22
    3  A    between atoms: C_1  and  C_34
    4  A    between atoms: C_9  and  C_21
    5  A    between atoms: C_9  and  O_23
    6  A    between atoms: C_12  and  C_31
    7  A    between atoms: C_16  and  C_31
    8  A    between atoms: O_17  and  C_21
    9  A    between atoms: O_17  and  C_33
   10  A    between atoms: C_22  and  O_32
   11  A    between atoms: O_23  and  C_39
                            x       y       z     vdW  Elec       q    Type
                         _______ _______ _______ _____ _____    ______ ____

>  <TORSDO>
F 11

$$$$
=
 OpenBabel11062418423D

 43 48  0  0  1  0  0  0  0  0999 V2000
  189.9350  177.2390  145.3730 C   0  0  1  0  0  3  0  0  0  0  0  0
  188.9230  177.2230  144.2040 C   0  0  0  0  0  2  0  0  0  0  0  0
  190.8970  175.6530  142.8980 O   0  0  0  0  0  1  0  0  0  0  0  0
  190.1370  175.8530  146.0740 C   0  0  1  0  0  0  0  0  0  0  0  0
  188.2750  174.1670  142.0090 C   0  0  1  0  0  3  0  0  0  0  0  0
  188.8540  175.4790  146.8080 C   0  0  0  0  0  1  0  0  0  0  0  0
  188.6590  175.7970  143.7280 C   0  0  2  0  0  3  0  0  0  0  0  0
  188.5370  174.0370  140.4990 C   0  0  0  0  0  2  0  0  0  0  0  0
  189.4760  173.7110  142.9030 C   0  0  2  0  0  3  0  0  0  0  0  0
  189.0600  172.6600  140.2210 C   0  0  0  0  0  3  0  0  0  0  0  0
  191.2270  170.6380  142.1790 C   0  0  0  0  0  2  0  0  0  0  0  0
  190.0230  172.2030  141.0150 C   0  0  0  0  0  0  0  0  0  0  0  0
  190.4690  170.9070  141.0150 O   0  0  0  0  0  0  0  0  0  0  0  0
  191.4270  171.9890  142.9050 C   0  0  2  0  0  3  0  0  0  0  0  0
  189.9230  174.9740  143.6440 C   0  0  1  0  0  0  0  0  0  0  0  0
  191.2430  177.8480  144.8810 C   0  0  0  0  0  1  0  0  0  0  0  0
  187.9710  175.6170  142.3920 C   0  0  2  0  0  3  0  0  0  0  0  0
  190.6090  173.0180  142.1020 C   0  0  2  0  0  3  0  0  0  0  0  0
  190.4380  174.7140  145.0650 C   0  0  0  0  0  2  0  0  0  0  0  0
  192.9210  172.3700  142.8920 C   0  0  1  0  0  3  0  0  0  0  0  0
  193.4680  172.5460  144.3100 C   0  0  2  0  0  3  0  0  0  0  0  0
  194.9200  173.0470  144.2930 C   0  0  0  0  0  2  0  0  0  0  0  0
  196.8290  171.4590  144.3240 C   0  0  0  0  0  1  0  0  0  0  0  0
  194.7310  171.0650  145.5360 C   0  0  0  0  0  0  0  0  0  0  0  0
  193.4810  171.3210  145.0250 O   0  0  0  0  0  0  0  0  0  0  0  0
  194.9770  170.0660  146.2610 O   0  0  0  0  0  0  0  0  0  0  0  0
  195.7310  172.0860  145.1620 C   0  0  2  0  0  3  0  0  0  0  0  0
  193.7690  171.3650  142.1090 C   0  0  0  0  0  2  0  0  0  0  0  0
  194.0560  171.8670  140.8410 O   0  0  0  0  0  0  0  0  0  0  0  0
  195.4460  171.9600  140.8080 C   0  0  0  0  0  1  0  0  0  0  0  0
  186.5880  175.9310  142.4160 O   0  0  0  0  0  0  0  0  0  0  0  0
  186.3350  177.0660  141.6220 C   0  0  0  0  0  2  0  0  0  0  0  0
  185.7760  178.1880  142.4790 C   0  0  0  0  0  2  0  0  0  0  0  0
  185.0160  177.6470  143.5510 O   0  0  0  0  0  0  0  0  0  0  0  0
  185.6620  179.3700  146.9140 C   0  0  0  0  0  2  0  0  0  0  0  0
  185.7770  176.9110  147.1570 C   0  0  0  0  0  2  0  0  0  0  0  0
  186.4770  178.2230  147.4910 C   0  0  0  0  0  2  0  0  0  0  0  0
  185.6340  179.2680  145.3890 C   0  0  0  0  0  2  0  0  0  0  0  0
  185.4740  176.8010  145.6890 C   0  0  0  0  0  3  0  0  0  0  0  0
  185.3520  177.8660  144.8880 C   0  0  0  0  0  0  0  0  0  0  0  0
  191.2930  175.8800  147.0890 C   0  0  0  0  0  2  0  0  0  0  0  0
  193.6270  175.5900  146.6010 O   0  0  0  0  0  1  0  0  0  0  0  0
  192.4260  174.9040  146.7790 C   0  0  0  0  0  2  0  0  0  0  0  0
  1 16  1  6  0  0  0
  1  4  1  0  0  0  0
  2  1  1  0  0  0  0
  3 15  1  0  0  0  0
  4  6  1  1  0  0  0
  4 41  1  0  0  0  0
  5  8  1  6  0  0  0
  5 17  1  0  0  0  0
  5  9  1  0  0  0  0
  7  2  1  6  0  0  0
  9 15  1  0  0  0  0
 10  8  1  0  0  0  0
 10 12  2  0  0  0  0
 11 14  1  0  0  0  0
 12 18  1  0  0  0  0
 13 12  1  0  0  0  0
 13 11  1  0  0  0  0
 15  7  1  0  0  0  0
 15 19  1  0  0  0  0
 17 31  1  0  0  0  0
 17  7  1  0  0  0  0
 18  9  1  0  0  0  0
 18 14  1  0  0  0  0
 19  4  1  0  0  0  0
 20 14  1  0  0  0  0
 20 21  1  0  0  0  0
 21 25  1  0  0  0  0
 22 21  1  0  0  0  0
 22 27  1  0  0  0  0
 23 27  1  0  0  0  0
 24 26  2  0  0  0  0
 25 24  1  0  0  0  0
 27 24  1  0  0  0  0
 28 20  1  0  0  0  0
 29 28  1  0  0  0  0
 30 29  1  0  0  0  0
 32 31  1  0  0  0  0
 32 33  1  0  0  0  0
 33 34  1  0  0  0  0
 34 40  1  0  0  0  0
 35 37  1  0  0  0  0
 36 37  1  0  0  0  0
 38 35  1  0  0  0  0
 39 36  1  0  0  0  0
 40 38  1  0  0  0  0
 40 39  2  0  0  0  0
 42 43  1  0  0  0  0
 43 41  1  0  0  0  0
M  END
>  <MODEL>
4

>  <REMARK>
 VINA RESULT:      -7.3      1.714      2.813
  Name = 
  11 active torsions:
  status: ('A' for Active; 'I' for Inactive)
    1  A    between atoms: C_1  and  C_3
    2  A    between atoms: C_1  and  C_22
    3  A    between atoms: C_1  and  C_34
    4  A    between atoms: C_9  and  C_21
    5  A    between atoms: C_9  and  O_23
    6  A    between atoms: C_12  and  C_31
    7  A    between atoms: C_16  and  C_31
    8  A    between atoms: O_17  and  C_21
    9  A    between atoms: O_17  and  C_33
   10  A    between atoms: C_22  and  O_32
   11  A    between atoms: O_23  and  C_39
                            x       y       z     vdW  Elec       q    Type
                         _______ _______ _______ _____ _____    ______ ____

>  <TORSDO>
F 11

$$$$
=
 OpenBabel11062418423D

 43 48  0  0  1  0  0  0  0  0999 V2000
  192.7960  172.8980  141.6060 C   0  0  1  0  0  3  0  0  0  0  0  0
  193.8120  173.3020  142.7000 C   0  0  0  0  0  2  0  0  0  0  0  0
  191.9580  175.3820  143.2480 O   0  0  0  0  0  1  0  0  0  0  0  0
  191.4400  172.3420  142.1570 C   0  0  1  0  0  0  0  0  0  0  0  0
  192.8070  174.5640  146.1610 C   0  0  1  0  0  3  0  0  0  0  0  0
  191.6940  170.9950  142.8280 C   0  0  0  0  0  1  0  0  0  0  0  0
  193.1260  173.4590  144.0550 C   0  0  2  0  0  3  0  0  0  0  0  0
  193.0880  175.9520  146.7600 C   0  0  0  0  0  2  0  0  0  0  0  0
  191.4370  174.4630  145.4110 C   0  0  2  0  0  3  0  0  0  0  0  0
  191.8900  176.3850  147.5480 C   0  0  0  0  0  3  0  0  0  0  0  0
  188.4430  175.8400  146.8820 C   0  0  0  0  0  2  0  0  0  0  0  0
  190.6990  176.2340  146.9760 C   0  0  0  0  0  0  0  0  0  0  0  0
  189.5050  176.4000  147.6300 O   0  0  0  0  0  0  0  0  0  0  0  0
  189.0260  175.4370  145.5080 C   0  0  2  0  0  3  0  0  0  0  0  0
  191.8020  174.1790  143.9510 C   0  0  1  0  0  0  0  0  0  0  0  0
  192.6080  174.0720  140.6540 C   0  0  0  0  0  1  0  0  0  0  0  0
  193.8880  174.1700  145.1520 C   0  0  2  0  0  3  0  0  0  0  0  0
  190.5380  175.7120  145.6010 C   0  0  2  0  0  3  0  0  0  0  0  0
  190.8030  173.2720  143.2230 C   0  0  0  0  0  2  0  0  0  0  0  0
  188.3940  176.3030  144.4010 C   0  0  1  0  0  3  0  0  0  0  0  0
  187.0030  176.7980  144.7990 C   0  0  2  0  0  3  0  0  0  0  0  0
  185.9500  176.4220  143.7460 C   0  0  0  0  0  2  0  0  0  0  0  0
  185.3840  177.9650  141.8850 C   0  0  0  0  0  1  0  0  0  0  0  0
  185.9460  178.7350  144.1470 C   0  0  0  0  0  0  0  0  0  0  0  0
  186.9600  178.2110  144.9140 O   0  0  0  0  0  0  0  0  0  0  0  0
  185.6690  179.9630  144.1330 O   0  0  0  0  0  0  0  0  0  0  0  0
  185.2180  177.7100  143.3710 C   0  0  2  0  0  3  0  0  0  0  0  0
  189.2890  177.4790  144.0020 C   0  0  0  0  0  2  0  0  0  0  0  0
  189.6930  177.3430  142.6740 O   0  0  0  0  0  0  0  0  0  0  0  0
  188.9440  178.2910  141.9820 C   0  0  0  0  0  1  0  0  0  0  0  0
  194.9420  173.4010  145.7060 O   0  0  0  0  0  0  0  0  0  0  0  0
  196.0850  174.2030  145.8860 C   0  0  0  0  0  2  0  0  0  0  0  0
  197.1210  173.8820  144.8230 C   0  0  0  0  0  2  0  0  0  0  0  0
  197.5260  175.0750  144.1650 O   0  0  0  0  0  0  0  0  0  0  0  0
  195.6910  176.7810  141.2620 C   0  0  0  0  0  2  0  0  0  0  0  0
  197.4150  175.2250  140.4110 C   0  0  0  0  0  2  0  0  0  0  0  0
  195.9640  175.6660  140.2650 C   0  0  0  0  0  2  0  0  0  0  0  0
  195.8440  176.2490  142.6870 C   0  0  0  0  0  2  0  0  0  0  0  0
  197.7570  174.9000  141.8380 C   0  0  0  0  0  3  0  0  0  0  0  0
  197.0860  175.4040  142.8810 C   0  0  0  0  0  0  0  0  0  0  0  0
  190.3980  172.1460  141.0420 C   0  0  0  0  0  2  0  0  0  0  0  0
  189.1930  174.0600  140.2360 O   0  0  0  0  0  1  0  0  0  0  0  0
  189.1600  173.0300  141.1750 C   0  0  0  0  0  2  0  0  0  0  0  0
  1 16  1  1  0  0  0
  1  4  1  0  0  0  0
  1  2  1  0  0  0  0
  3 15  1  0  0  0  0
  4  6  1  1  0  0  0
  4 19  1  0  0  0  0
  5  8  1  6  0  0  0
  7  2  1  6  0  0  0
  7 17  1  0  0  0  0
  8 10  1  0  0  0  0
  9 18  1  0  0  0  0
  9  5  1  0  0  0  0
 11 13  1  0  0  0  0
 12 10  2  0  0  0  0
 12 13  1  0  0  0  0
 14 18  1  0  0  0  0
 14 11  1  0  0  0  0
 15  7  1  0  0  0  0
 15  9  1  0  0  0  0
 17 31  1  0  0  0  0
 17  5  1  0  0  0  0
 18 12  1  0  0  0  0
 19 15  1  0  0  0  0
 20 21  1  0  0  0  0
 20 14  1  0  0  0  0
 21 25  1  0  0  0  0
 22 21  1  0  0  0  0
 23 27  1  0  0  0  0
 24 25  1  0  0  0  0
 26 24  2  0  0  0  0
 27 22  1  0  0  0  0
 27 24  1  0  0  0  0
 28 20  1  0  0  0  0
 29 28  1  0  0  0  0
 30 29  1  0  0  0  0
 31 32  1  0  0  0  0
 33 32  1  0  0  0  0
 34 33  1  0  0  0  0
 35 38  1  0  0  0  0
 36 39  1  0  0  0  0
 37 36  1  0  0  0  0
 37 35  1  0  0  0  0
 38 40  1  0  0  0  0
 39 40  2  0  0  0  0
 40 34  1  0  0  0  0
 41 43  1  0  0  0  0
 41  4  1  0  0  0  0
 42 43  1  0  0  0  0
M  END
>  <MODEL>
5

>  <REMARK>
 VINA RESULT:      -7.0      1.890      8.670
  Name = 
  11 active torsions:
  status: ('A' for Active; 'I' for Inactive)
    1  A    between atoms: C_1  and  C_3
    2  A    between atoms: C_1  and  C_22
    3  A    between atoms: C_1  and  C_34
    4  A    between atoms: C_9  and  C_21
    5  A    between atoms: C_9  and  O_23
    6  A    between atoms: C_12  and  C_31
    7  A    between atoms: C_16  and  C_31
    8  A    between atoms: O_17  and  C_21
    9  A    between atoms: O_17  and  C_33
   10  A    between atoms: C_22  and  O_32
   11  A    between atoms: O_23  and  C_39
                            x       y       z     vdW  Elec       q    Type
                         _______ _______ _______ _____ _____    ______ ____

>  <TORSDO>
F 11

$$$$
=
 OpenBabel11062418423D

 43 48  0  0  1  0  0  0  0  0999 V2000
  190.2560  177.6190  144.8320 C   0  0  1  0  0  3  0  0  0  0  0  0
  189.2700  177.5480  143.6420 C   0  0  0  0  0  2  0  0  0  0  0  0
  191.1500  175.7100  142.5680 O   0  0  0  0  0  1  0  0  0  0  0  0
  190.3410  176.3060  145.6810 C   0  0  1  0  0  0  0  0  0  0  0  0
  188.4450  174.3260  141.7670 C   0  0  1  0  0  3  0  0  0  0  0  0
  189.0180  176.1050  146.4140 C   0  0  0  0  0  1  0  0  0  0  0  0
  188.9120  176.1010  143.3130 C   0  0  2  0  0  3  0  0  0  0  0  0
  188.7280  174.0150  140.2880 C   0  0  0  0  0  2  0  0  0  0  0  0
  189.5900  173.8850  142.7380 C   0  0  2  0  0  3  0  0  0  0  0  0
  189.1530  172.5830  140.1730 C   0  0  0  0  0  3  0  0  0  0  0  0
  191.1250  170.6360  142.3960 C   0  0  0  0  0  2  0  0  0  0  0  0
  190.0640  172.1480  141.0380 C   0  0  0  0  0  0  0  0  0  0  0  0
  190.4140  170.8300  141.1890 O   0  0  0  0  0  0  0  0  0  0  0  0
  191.4090  172.0400  142.9790 C   0  0  2  0  0  3  0  0  0  0  0  0
  190.1130  175.1860  143.3540 C   0  0  1  0  0  0  0  0  0  0  0  0
  191.6150  178.0760  144.3150 C   0  0  0  0  0  1  0  0  0  0  0  0
  188.2400  175.8270  141.9850 C   0  0  2  0  0  3  0  0  0  0  0  0
  190.6860  173.0310  142.0490 C   0  0  2  0  0  3  0  0  0  0  0  0
  190.5780  175.0460  144.8080 C   0  0  0  0  0  2  0  0  0  0  0  0
  192.9260  172.3110  142.9690 C   0  0  1  0  0  3  0  0  0  0  0  0
  193.3010  173.3740  141.9350 C   0  0  2  0  0  3  0  0  0  0  0  0
  194.1960  172.7940  140.8300 C   0  0  0  0  0  2  0  0  0  0  0  0
  196.6710  172.8590  141.0130 C   0  0  0  0  0  1  0  0  0  0  0  0
  195.2130  174.6500  141.8430 C   0  0  0  0  0  0  0  0  0  0  0  0
  194.0340  174.4390  142.5180 O   0  0  0  0  0  0  0  0  0  0  0  0
  196.0060  175.5830  142.1360 O   0  0  0  0  0  0  0  0  0  0  0  0
  195.4310  173.6900  140.7430 C   0  0  2  0  0  3  0  0  0  0  0  0
  193.4570  172.6950  144.3520 C   0  0  0  0  0  2  0  0  0  0  0  0
  194.5990  171.9520  144.6490 O   0  0  0  0  0  0  0  0  0  0  0  0
  195.4310  172.8450  145.3210 C   0  0  0  0  0  1  0  0  0  0  0  0
  186.8840  176.2380  141.9360 O   0  0  0  0  0  0  0  0  0  0  0  0
  186.7480  177.3600  141.0960 C   0  0  0  0  0  2  0  0  0  0  0  0
  185.6610  178.2790  141.6240 C   0  0  0  0  0  2  0  0  0  0  0  0
  186.1490  179.0190  142.7350 O   0  0  0  0  0  0  0  0  0  0  0  0
  185.9260  178.4860  146.5250 C   0  0  0  0  0  2  0  0  0  0  0  0
  183.7030  179.0350  145.5880 C   0  0  0  0  0  2  0  0  0  0  0  0
  184.4580  178.0870  146.5120 C   0  0  0  0  0  2  0  0  0  0  0  0
  186.5230  178.3040  145.1300 C   0  0  0  0  0  2  0  0  0  0  0  0
  184.3500  179.1250  144.2340 C   0  0  0  0  0  3  0  0  0  0  0  0
  185.6430  178.8500  144.0240 C   0  0  0  0  0  0  0  0  0  0  0  0
  191.4740  176.3600  146.7200 C   0  0  0  0  0  2  0  0  0  0  0  0
  193.7590  175.8130  146.2230 O   0  0  0  0  0  1  0  0  0  0  0  0
  192.5250  175.2620  146.5650 C   0  0  0  0  0  2  0  0  0  0  0  0
  1 16  1  6  0  0  0
  1  4  1  0  0  0  0
  2  1  1  0  0  0  0
  3 15  1  0  0  0  0
  4  6  1  1  0  0  0
  4 41  1  0  0  0  0
  5  8  1  6  0  0  0
  5 17  1  0  0  0  0
  5  9  1  0  0  0  0
  7 15  1  0  0  0  0
  7  2  1  6  0  0  0
  9 15  1  0  0  0  0
 10  8  1  0  0  0  0
 10 12  2  0  0  0  0
 11 14  1  0  0  0  0
 12 13  1  0  0  0  0
 12 18  1  0  0  0  0
 13 11  1  0  0  0  0
 15 19  1  0  0  0  0
 17  7  1  0  0  0  0
 18  9  1  0  0  0  0
 18 14  1  0  0  0  0
 19  4  1  0  0  0  0
 20 14  1  0  0  0  0
 20 28  1  0  0  0  0
 21 25  1  0  0  0  0
 21 20  1  0  0  0  0
 22 21  1  0  0  0  0
 24 26  2  0  0  0  0
 24 25  1  0  0  0  0
 27 22  1  0  0  0  0
 27 23  1  0  0  0  0
 27 24  1  0  0  0  0
 28 29  1  0  0  0  0
 29 30  1  0  0  0  0
 31 17  1  0  0  0  0
 32 33  1  0  0  0  0
 32 31  1  0  0  0  0
 33 34  1  0  0  0  0
 34 40  1  0  0  0  0
 36 37  1  0  0  0  0
 37 35  1  0  0  0  0
 38 35  1  0  0  0  0
 39 36  1  0  0  0  0
 40 39  2  0  0  0  0
 40 38  1  0  0  0  0
 42 43  1  0  0  0  0
 43 41  1  0  0  0  0
M  END
>  <MODEL>
6

>  <REMARK>
 VINA RESULT:      -6.9      1.369      1.617
  Name = 
  11 active torsions:
  status: ('A' for Active; 'I' for Inactive)
    1  A    between atoms: C_1  and  C_3
    2  A    between atoms: C_1  and  C_22
    3  A    between atoms: C_1  and  C_34
    4  A    between atoms: C_9  and  C_21
    5  A    between atoms: C_9  and  O_23
    6  A    between atoms: C_12  and  C_31
    7  A    between atoms: C_16  and  C_31
    8  A    between atoms: O_17  and  C_21
    9  A    between atoms: O_17  and  C_33
   10  A    between atoms: C_22  and  O_32
   11  A    between atoms: O_23  and  C_39
                            x       y       z     vdW  Elec       q    Type
                         _______ _______ _______ _____ _____    ______ ____

>  <TORSDO>
F 11

$$$$
=
 OpenBabel11062418423D

 43 48  0  0  1  0  0  0  0  0999 V2000
  189.3920  173.1690  143.7680 C   0  0  1  0  0  3  0  0  0  0  0  0
  189.5590  174.4240  144.6560 C   0  0  0  0  0  2  0  0  0  0  0  0
  192.2120  173.4710  145.0030 O   0  0  0  0  0  1  0  0  0  0  0  0
  190.2070  173.2090  142.4310 C   0  0  1  0  0  0  0  0  0  0  0  0
  192.7230  176.5600  144.7290 C   0  0  1  0  0  3  0  0  0  0  0  0
  189.6170  174.2850  141.5250 C   0  0  0  0  0  1  0  0  0  0  0  0
  190.7850  175.2310  144.2390 C   0  0  2  0  0  3  0  0  0  0  0  0
  193.6630  176.7850  145.9250 C   0  0  0  0  0  2  0  0  0  0  0  0
  193.1320  175.3540  143.8190 C   0  0  2  0  0  3  0  0  0  0  0  0
  195.0750  176.8060  145.4260 C   0  0  0  0  0  3  0  0  0  0  0  0
  196.5740  174.8970  142.8320 C   0  0  0  0  0  2  0  0  0  0  0  0
  195.4370  175.8450  144.5820 C   0  0  0  0  0  0  0  0  0  0  0  0
  196.6220  175.8330  143.8920 O   0  0  0  0  0  0  0  0  0  0  0  0
  195.2590  174.1000  142.9970 C   0  0  2  0  0  3  0  0  0  0  0  0
  191.9780  174.3550  143.9390 C   0  0  1  0  0  0  0  0  0  0  0  0
  189.6940  171.9320  144.6060 C   0  0  0  0  0  1  0  0  0  0  0  0
  191.2910  176.2890  145.1970 C   0  0  2  0  0  3  0  0  0  0  0  0
  194.5190  174.7580  144.1760 C   0  0  2  0  0  3  0  0  0  0  0  0
  191.7000  173.5650  142.6540 C   0  0  0  0  0  2  0  0  0  0  0  0
  195.5800  172.6290  143.3240 C   0  0  1  0  0  3  0  0  0  0  0  0
  195.3790  172.3260  144.8100 C   0  0  2  0  0  3  0  0  0  0  0  0
  196.7120  172.0090  145.5040 C   0  0  0  0  0  2  0  0  0  0  0  0
  197.5450  169.6770  145.6860 C   0  0  0  0  0  1  0  0  0  0  0  0
  195.1670  170.2710  145.8220 C   0  0  0  0  0  0  0  0  0  0  0  0
  194.5510  171.1920  145.0080 O   0  0  0  0  0  0  0  0  0  0  0  0
  194.6050  169.2070  146.1930 O   0  0  0  0  0  0  0  0  0  0  0  0
  196.5320  170.6710  146.2210 C   0  0  2  0  0  3  0  0  0  0  0  0
  194.7740  171.6530  142.4630 C   0  0  0  0  0  2  0  0  0  0  0  0
  194.7770  172.0740  141.1340 O   0  0  0  0  0  0  0  0  0  0  0  0
  195.7600  171.2980  140.5240 C   0  0  0  0  0  1  0  0  0  0  0  0
  190.4730  177.4450  145.2540 O   0  0  0  0  0  0  0  0  0  0  0  0
  190.1450  177.8710  143.9520 C   0  0  0  0  0  2  0  0  0  0  0  0
  188.6370  177.9500  143.7930 C   0  0  0  0  0  2  0  0  0  0  0  0
  188.0020  177.5670  145.0050 O   0  0  0  0  0  0  0  0  0  0  0  0
  184.4390  178.9510  144.6950 C   0  0  0  0  0  2  0  0  0  0  0  0
  184.5710  177.2780  146.5130 C   0  0  0  0  0  2  0  0  0  0  0  0
  184.0650  178.6670  146.1420 C   0  0  0  0  0  2  0  0  0  0  0  0
  185.9600  178.9880  144.5520 C   0  0  0  0  0  2  0  0  0  0  0  0
  186.0290  177.1120  146.1880 C   0  0  0  0  0  3  0  0  0  0  0  0
  186.6570  177.8450  145.2600 C   0  0  0  0  0  0  0  0  0  0  0  0
  190.1660  171.8630  141.6870 C   0  0  0  0  0  2  0  0  0  0  0  0
  191.8810  170.7920  140.3910 O   0  0  0  0  0  1  0  0  0  0  0  0
  190.9620  171.8400  140.3830 C   0  0  0  0  0  2  0  0  0  0  0  0
  1 16  1  1  0  0  0
  1  2  1  0  0  0  0
  4  6  1  6  0  0  0
  4 19  1  0  0  0  0
  4  1  1  0  0  0  0
  5 17  1  0  0  0  0
  5  8  1  1  0  0  0
  7  2  1  1  0  0  0
  7 17  1  0  0  0  0
  9 15  1  0  0  0  0
  9 18  1  0  0  0  0
  9  5  1  0  0  0  0
 10  8  1  0  0  0  0
 11 14  1  0  0  0  0
 11 13  1  0  0  0  0
 12 10  2  0  0  0  0
 13 12  1  0  0  0  0
 14 20  1  0  0  0  0
 14 18  1  0  0  0  0
 15  7  1  0  0  0  0
 15  3  1  0  0  0  0
 17 31  1  0  0  0  0
 18 12  1  0  0  0  0
 19 15  1  0  0  0  0
 20 21  1  0  0  0  0
 21 25  1  0  0  0  0
 21 22  1  0  0  0  0
 22 27  1  0  0  0  0
 23 27  1  0  0  0  0
 24 26  2  0  0  0  0
 24 27  1  0  0  0  0
 25 24  1  0  0  0  0
 28 20  1  0  0  0  0
 29 28  1  0  0  0  0
 30 29  1  0  0  0  0
 32 31  1  0  0  0  0
 33 32  1  0  0  0  0
 33 34  1  0  0  0  0
 34 40  1  0  0  0  0
 35 37  1  0  0  0  0
 37 36  1  0  0  0  0
 38 35  1  0  0  0  0
 38 40  1  0  0  0  0
 39 36  1  0  0  0  0
 40 39  2  0  0  0  0
 41  4  1  0  0  0  0
 43 42  1  0  0  0  0
 43 41  1  0  0  0  0
M  END
>  <MODEL>
7

>  <REMARK>
 VINA RESULT:      -6.8      2.414      5.616
  Name = 
  11 active torsions:
  status: ('A' for Active; 'I' for Inactive)
    1  A    between atoms: C_1  and  C_3
    2  A    between atoms: C_1  and  C_22
    3  A    between atoms: C_1  and  C_34
    4  A    between atoms: C_9  and  C_21
    5  A    between atoms: C_9  and  O_23
    6  A    between atoms: C_12  and  C_31
    7  A    between atoms: C_16  and  C_31
    8  A    between atoms: O_17  and  C_21
    9  A    between atoms: O_17  and  C_33
   10  A    between atoms: C_22  and  O_32
   11  A    between atoms: O_23  and  C_39
                            x       y       z     vdW  Elec       q    Type
                         _______ _______ _______ _____ _____    ______ ____

>  <TORSDO>
F 11

$$$$
=
 OpenBabel11062418423D

 43 48  0  0  1  0  0  0  0  0999 V2000
  190.9270  174.9170  146.6560 C   0  0  1  0  0  3  0  0  0  0  0  0
  191.1230  173.9310  145.4800 C   0  0  0  0  0  2  0  0  0  0  0  0
  188.5660  174.8550  144.6590 O   0  0  0  0  0  1  0  0  0  0  0  0
  190.9550  176.4280  146.2450 C   0  0  1  0  0  0  0  0  0  0  0  0
  190.0470  174.6740  141.8930 C   0  0  1  0  0  3  0  0  0  0  0  0
  192.3670  176.7910  145.7950 C   0  0  0  0  0  1  0  0  0  0  0  0
  190.8880  174.6230  144.1400 C   0  0  2  0  0  3  0  0  0  0  0  0
  188.9880  173.9240  141.0680 C   0  0  0  0  0  2  0  0  0  0  0  0
  189.4820  175.8960  142.6910 C   0  0  2  0  0  3  0  0  0  0  0  0
  188.2190  174.9220  140.2570 C   0  0  0  0  0  3  0  0  0  0  0  0
  187.2240  178.2250  141.1060 C   0  0  0  0  0  2  0  0  0  0  0  0
  187.7950  176.0160  140.8810 C   0  0  0  0  0  0  0  0  0  0  0  0
  187.2510  177.1020  140.2450 O   0  0  0  0  0  0  0  0  0  0  0  0
  187.6370  177.7220  142.5090 C   0  0  2  0  0  3  0  0  0  0  0  0
  189.6870  175.5380  144.1650 C   0  0  1  0  0  0  0  0  0  0  0  0
  189.6590  174.5350  147.4100 C   0  0  0  0  0  1  0  0  0  0  0  0
  190.7040  173.7480  142.9190 C   0  0  2  0  0  3  0  0  0  0  0  0
  188.0140  176.2410  142.3270 C   0  0  2  0  0  3  0  0  0  0  0  0
  190.0020  176.7420  145.0610 C   0  0  0  0  0  2  0  0  0  0  0  0
  186.4470  177.8540  143.4800 C   0  0  1  0  0  3  0  0  0  0  0  0
  186.8780  177.6350  144.9310 C   0  0  2  0  0  3  0  0  0  0  0  0
  185.8780  176.7460  145.6860 C   0  0  0  0  0  2  0  0  0  0  0  0
  183.9840  177.7320  146.9540 C   0  0  0  0  0  1  0  0  0  0  0  0
  186.1950  178.7870  146.8020 C   0  0  0  0  0  0  0  0  0  0  0  0
  186.9430  178.8550  145.6510 O   0  0  0  0  0  0  0  0  0  0  0  0
  186.1470  179.7260  147.6380 O   0  0  0  0  0  0  0  0  0  0  0  0
  185.4830  177.5010  146.9550 C   0  0  2  0  0  3  0  0  0  0  0  0
  185.7220  179.1930  143.3310 C   0  0  0  0  0  2  0  0  0  0  0  0
  184.3670  179.0390  143.6240 O   0  0  0  0  0  0  0  0  0  0  0  0
  183.8650  178.2820  142.5680 C   0  0  0  0  0  1  0  0  0  0  0  0
  191.9020  173.1410  142.4660 O   0  0  0  0  0  0  0  0  0  0  0  0
  191.8430  171.7470  142.6600 C   0  0  0  0  0  2  0  0  0  0  0  0
  192.8460  171.3230  143.7170 C   0  0  0  0  0  2  0  0  0  0  0  0
  194.1480  171.7620  143.3530 O   0  0  0  0  0  0  0  0  0  0  0  0
  196.8390  172.9790  145.7980 C   0  0  0  0  0  2  0  0  0  0  0  0
  195.5700  174.8910  144.8740 C   0  0  0  0  0  2  0  0  0  0  0  0
  196.1160  174.2680  146.1540 C   0  0  0  0  0  2  0  0  0  0  0  0
  195.8470  171.9740  145.2130 C   0  0  0  0  0  2  0  0  0  0  0  0
  194.7610  173.9060  144.0780 C   0  0  0  0  0  3  0  0  0  0  0  0
  194.9170  172.5810  144.1820 C   0  0  0  0  0  0  0  0  0  0  0  0
  190.5580  177.3530  147.4080 C   0  0  0  0  0  2  0  0  0  0  0  0
  191.1980  178.3460  149.4990 O   0  0  0  0  0  1  0  0  0  0  0  0
  191.5580  177.3790  148.5620 C   0  0  0  0  0  2  0  0  0  0  0  0
  1 16  1  6  0  0  0
  2  1  1  0  0  0  0
  4  6  1  6  0  0  0
  4  1  1  0  0  0  0
  4 41  1  0  0  0  0
  5  8  1  1  0  0  0
  5  9  1  0  0  0  0
  5 17  1  0  0  0  0
  7 15  1  0  0  0  0
  7  2  1  1  0  0  0
  9 15  1  0  0  0  0
 10 12  2  0  0  0  0
 10  8  1  0  0  0  0
 11 14  1  0  0  0  0
 12 18  1  0  0  0  0
 13 12  1  0  0  0  0
 13 11  1  0  0  0  0
 14 20  1  0  0  0  0
 15  3  1  0  0  0  0
 15 19  1  0  0  0  0
 17  7  1  0  0  0  0
 18 14  1  0  0  0  0
 18  9  1  0  0  0  0
 19  4  1  0  0  0  0
 20 21  1  0  0  0  0
 21 25  1  0  0  0  0
 21 22  1  0  0  0  0
 22 27  1  0  0  0  0
 23 27  1  0  0  0  0
 24 27  1  0  0  0  0
 24 26  2  0  0  0  0
 25 24  1  0  0  0  0
 28 20  1  0  0  0  0
 28 29  1  0  0  0  0
 30 29  1  0  0  0  0
 31 32  1  0  0  0  0
 31 17  1  0  0  0  0
 32 33  1  0  0  0  0
 34 33  1  0  0  0  0
 34 40  1  0  0  0  0
 35 37  1  0  0  0  0
 36 37  1  0  0  0  0
 38 35  1  0  0  0  0
 39 40  2  0  0  0  0
 39 36  1  0  0  0  0
 40 38  1  0  0  0  0
 41 43  1  0  0  0  0
 43 42  1  0  0  0  0
M  END
>  <MODEL>
8

>  <REMARK>
 VINA RESULT:      -6.6      2.234      7.860
  Name = 
  11 active torsions:
  status: ('A' for Active; 'I' for Inactive)
    1  A    between atoms: C_1  and  C_3
    2  A    between atoms: C_1  and  C_22
    3  A    between atoms: C_1  and  C_34
    4  A    between atoms: C_9  and  C_21
    5  A    between atoms: C_9  and  O_23
    6  A    between atoms: C_12  and  C_31
    7  A    between atoms: C_16  and  C_31
    8  A    between atoms: O_17  and  C_21
    9  A    between atoms: O_17  and  C_33
   10  A    between atoms: C_22  and  O_32
   11  A    between atoms: O_23  and  C_39
                            x       y       z     vdW  Elec       q    Type
                         _______ _______ _______ _____ _____    ______ ____

>  <TORSDO>
F 11

$$$$
=
 OpenBabel11062418423D

 43 48  0  0  1  0  0  0  0  0999 V2000
  192.6650  172.9930  141.7030 C   0  0  1  0  0  3  0  0  0  0  0  0
  193.6490  173.3910  142.8290 C   0  0  0  0  0  2  0  0  0  0  0  0
  191.8150  175.5120  143.2850 O   0  0  0  0  0  1  0  0  0  0  0  0
  191.2790  172.4690  142.2100 C   0  0  1  0  0  0  0  0  0  0  0  0
  192.5430  174.7130  146.2360 C   0  0  1  0  0  3  0  0  0  0  0  0
  191.4830  171.1260  142.9040 C   0  0  0  0  0  1  0  0  0  0  0  0
  192.9170  173.5770  144.1550 C   0  0  2  0  0  3  0  0  0  0  0  0
  192.8280  176.1030  146.8290 C   0  0  0  0  0  2  0  0  0  0  0  0
  191.1990  174.6280  145.4370 C   0  0  2  0  0  3  0  0  0  0  0  0
  191.6110  176.5670  147.5680 C   0  0  0  0  0  3  0  0  0  0  0  0
  188.1810  176.0790  146.7840 C   0  0  0  0  0  2  0  0  0  0  0  0
  190.4390  176.4320  146.9550 C   0  0  0  0  0  0  0  0  0  0  0  0
  189.2260  176.6280  147.5640 O   0  0  0  0  0  0  0  0  0  0  0  0
  188.8060  175.6490  145.4360 C   0  0  2  0  0  3  0  0  0  0  0  0
  191.6120  174.3200  143.9960 C   0  0  1  0  0  0  0  0  0  0  0  0
  192.5350  174.1600  140.7310 C   0  0  0  0  0  1  0  0  0  0  0  0
  193.6520  174.2870  145.2720 C   0  0  2  0  0  3  0  0  0  0  0  0
  190.3180  175.8970  145.5810 C   0  0  2  0  0  3  0  0  0  0  0  0
  190.6220  173.4240  143.2420 C   0  0  0  0  0  2  0  0  0  0  0  0
  188.2310  176.5130  144.2970 C   0  0  1  0  0  3  0  0  0  0  0  0
  186.8320  177.0330  144.6360 C   0  0  2  0  0  3  0  0  0  0  0  0
  185.8150  176.6570  143.5490 C   0  0  0  0  0  2  0  0  0  0  0  0
  185.3430  178.1830  141.6470 C   0  0  0  0  0  1  0  0  0  0  0  0
  185.8290  178.9750  143.9190 C   0  0  0  0  0  0  0  0  0  0  0  0
  186.8050  178.4470  144.7300 O   0  0  0  0  0  0  0  0  0  0  0  0
  185.5710  180.2060  143.8780 O   0  0  0  0  0  0  0  0  0  0  0  0
  185.1160  177.9500  143.1290 C   0  0  2  0  0  3  0  0  0  0  0  0
  189.1580  177.6720  143.9230 C   0  0  0  0  0  2  0  0  0  0  0  0
  189.1500  177.8640  142.5420 O   0  0  0  0  0  0  0  0  0  0  0  0
  188.9310  176.5930  142.0140 C   0  0  0  0  0  1  0  0  0  0  0  0
  194.6710  173.5040  145.8720 O   0  0  0  0  0  0  0  0  0  0  0  0
  195.9380  173.9870  145.4950 C   0  0  0  0  0  2  0  0  0  0  0  0
  196.9670  172.8740  145.5760 C   0  0  0  0  0  2  0  0  0  0  0  0
  196.4840  171.7190  144.9040 O   0  0  0  0  0  0  0  0  0  0  0  0
  194.2670  168.7690  145.9460 C   0  0  0  0  0  2  0  0  0  0  0  0
  196.3780  168.7740  147.2380 C   0  0  0  0  0  2  0  0  0  0  0  0
  194.8620  168.6480  147.3410 C   0  0  0  0  0  2  0  0  0  0  0  0
  194.5520  170.1610  145.3820 C   0  0  0  0  0  2  0  0  0  0  0  0
  196.7820  170.0060  146.4770 C   0  0  0  0  0  3  0  0  0  0  0  0
  195.9830  170.6120  145.5910 C   0  0  0  0  0  0  0  0  0  0  0  0
  190.2750  172.2790  141.0600 C   0  0  0  0  0  2  0  0  0  0  0  0
  191.0570  171.3020  139.0100 O   0  0  0  0  0  1  0  0  0  0  0  0
  190.4840  171.0040  140.2460 C   0  0  0  0  0  2  0  0  0  0  0  0
  1 16  1  6  0  0  0
  1  4  1  0  0  0  0
  1  2  1  0  0  0  0
  3 15  1  0  0  0  0
  4  6  1  1  0  0  0
  4 19  1  0  0  0  0
  5  8  1  6  0  0  0
  7  2  1  6  0  0  0
  7 17  1  0  0  0  0
  8 10  1  0  0  0  0
  9 18  1  0  0  0  0
  9  5  1  0  0  0  0
 11 13  1  0  0  0  0
 12 13  1  0  0  0  0
 12 10  2  0  0  0  0
 14 18  1  0  0  0  0
 14 11  1  0  0  0  0
 15  7  1  0  0  0  0
 15  9  1  0  0  0  0
 17 31  1  0  0  0  0
 17  5  1  0  0  0  0
 18 12  1  0  0  0  0
 19 15  1  0  0  0  0
 20 21  1  0  0  0  0
 20 14  1  0  0  0  0
 21 25  1  0  0  0  0
 22 21  1  0  0  0  0
 23 27  1  0  0  0  0
 24 25  1  0  0  0  0
 26 24  2  0  0  0  0
 27 22  1  0  0  0  0
 27 24  1  0  0  0  0
 28 20  1  0  0  0  0
 29 28  1  0  0  0  0
 30 29  1  0  0  0  0
 32 33  1  0  0  0  0
 32 31  1  0  0  0  0
 34 33  1  0  0  0  0
 34 40  1  0  0  0  0
 35 37  1  0  0  0  0
 36 37  1  0  0  0  0
 38 40  1  0  0  0  0
 38 35  1  0  0  0  0
 39 36  1  0  0  0  0
 40 39  2  0  0  0  0
 41  4  1  0  0  0  0
 42 43  1  0  0  0  0
 43 41  1  0  0  0  0
M  END
>  <MODEL>
9

>  <REMARK>
 VINA RESULT:      -6.6      2.222      8.903
  Name = 
  11 active torsions:
  status: ('A' for Active; 'I' for Inactive)
    1  A    between atoms: C_1  and  C_3
    2  A    between atoms: C_1  and  C_22
    3  A    between atoms: C_1  and  C_34
    4  A    between atoms: C_9  and  C_21
    5  A    between atoms: C_9  and  O_23
    6  A    between atoms: C_12  and  C_31
    7  A    between atoms: C_16  and  C_31
    8  A    between atoms: O_17  and  C_21
    9  A    between atoms: O_17  and  C_33
   10  A    between atoms: C_22  and  O_32
   11  A    between atoms: O_23  and  C_39
                            x       y       z     vdW  Elec       q    Type
                         _______ _______ _______ _____ _____    ______ ____

>  <TORSDO>
F 11

$$$$
