=
 OpenBabel11062421463D

 70 77  0  0  1  0  0  0  0  0999 V2000
  190.1220  174.9910  145.5430 C   0  0  0  0  0  2  0  0  0  0  0  0
  190.5590  176.0570  144.5690 C   0  0  1  0  0  0  0  0  0  0  0  0
  191.4360  174.7740  146.0100 O   0  0  0  0  0  0  0  0  0  0  0  0
  189.9860  177.4120  144.9960 C   0  0  0  0  0  1  0  0  0  0  0  0
  191.9430  175.6980  145.0790 C   0  0  2  0  0  3  0  0  0  0  0  0
  189.7410  174.3390  142.9530 C   0  0  0  0  0  2  0  0  0  0  0  0
  189.7740  173.8950  141.6330 O   0  0  0  0  0  0  0  0  0  0  0  0
  188.4640  174.0480  141.1790 C   0  0  1  0  0  3  0  0  0  0  0  0
  188.3050  176.4640  141.6160 N   0  0  0  0  0  0  0  0  0  0  0  0
  189.5220  176.7890  142.3110 C   0  0  0  0  0  0  0  0  0  0  0  0
  188.2730  175.4310  140.5810 C   0  0  0  0  0  2  0  0  0  0  0  0
  190.3320  175.7420  143.0680 C   0  0  1  0  0  3  0  0  0  0  0  0
  189.9340  177.9770  142.2910 O   0  0  0  0  0  0  0  0  0  0  0  0
  187.1330  177.3150  141.8090 C   0  0  0  0  0  2  0  0  0  0  0  0
  185.8400  178.0450  143.8490 C   0  0  0  0  0  0  0  0  0  0  0  0
  186.4750  177.0130  143.0780 N   0  0  0  0  0  0  0  0  0  0  0  0
  186.0540  179.2560  143.5820 O   0  0  0  0  0  0  0  0  0  0  0  0
  186.3900  175.6190  143.4850 C   0  0  0  0  0  1  0  0  0  0  0  0
  184.7270  177.6380  145.2010 S   0  0  0  0  0  0  0  0  0  0  0  0
  185.7540  178.4710  146.4550 C   0  0  1  0  0  3  0  0  0  0  0  0
  187.2100  177.5450  146.9760 P   0  0  0  0  0  0  0  0  0  0  0  0
  185.9150  179.9770  146.4240 C   0  0  0  0  0  1  0  0  0  0  0  0
  185.6630  177.9520  147.6880 O   0  0  0  0  0  0  0  0  0  0  0  0
  187.2490  176.0410  146.8420 O   0  0  0  0  0  0  0  0  0  0  0  0
  188.3890  178.2000  147.9910 O   0  0  0  0  0  0  0  0  0  0  0  0
  188.1170  173.0020  140.2150 N   0  0  0  0  0  2  0  0  0  0  0  0
  188.5350  173.3890  138.8720 C   0  0  0  0  0  2  0  0  0  0  0  0
  189.5210  172.3760  138.3250 C   0  0  2  0  0  3  0  0  0  0  0  0
  189.8830  171.4780  139.3330 O   0  0  0  0  0  1  0  0  0  0  0  0
  190.7550  173.1000  137.8170 C   0  0  0  0  0  2  0  0  0  0  0  0
  190.4930  173.6640  136.4960 N   0  0  0  0  0  0  0  0  0  0  0  0
  190.8790  172.7580  135.5620 O   0  0  0  0  0  1  0  0  0  0  0  0
  191.2520  174.8480  136.3310 N   0  0  0  0  0  2  0  0  0  0  0  0
  193.6700  174.9610  136.0980 C   0  0  0  0  0  1  0  0  0  0  0  0
  192.5220  174.7710  137.0640 C   0  0  0  0  0  2  0  0  0  0  0  0
  192.7840  176.8060  145.7280 C   0  0  0  0  0  2  0  0  0  0  0  0
  194.1050  177.1050  145.0310 C   0  0  0  0  0  2  0  0  0  0  0  0
  194.7830  175.9240  144.6930 O   0  0  0  0  0  0  0  0  0  0  0  0
  196.7880  176.4630  143.5800 O   0  0  0  0  0  1  0  0  0  0  0  0
  195.4460  176.0810  143.4440 C   0  0  1  0  0  3  0  0  0  0  0  0
  194.2960  173.9830  142.9690 C   0  0  1  0  0  3  0  0  0  0  0  0
  195.2840  174.9540  142.4990 N   0  0  0  0  0  0  0  0  0  0  0  0
  193.2420  173.8510  142.0440 O   0  0  0  0  0  0  0  0  0  0  0  0
  194.7780  175.4420  141.2350 C   0  0  2  0  0  3  0  0  0  0  0  0
  193.6390  174.5200  140.8810 C   0  0  0  0  0  2  0  0  0  0  0  0
  195.8730  171.9350  140.6190 C   0  0  1  0  0  3  0  0  0  0  0  0
  194.0570  171.4150  142.9930 C   0  0  0  0  0  0  0  0  0  0  0  0
  196.5730  171.4740  139.3440 C   0  0  0  0  0  2  0  0  0  0  0  0
  194.6590  171.1040  140.6060 C   0  0  0  0  0  0  0  0  0  0  0  0
  196.3550  172.5640  142.9340 N   0  0  0  0  0  0  0  0  0  0  0  0
  193.8430  170.8530  141.6370 C   0  0  0  0  0  0  0  0  0  0  0  0
  193.4350  170.8990  143.9590 O   0  0  0  0  0  0  0  0  0  0  0  0
  195.5620  170.8380  138.4820 N   0  0  2  0  0  0  0  0  0  0  0  0
  194.5220  170.4790  139.3500 N   0  0  0  0  0  2  0  0  0  0  0  0
  196.6960  171.6280  141.8560 C   0  0  0  0  0  2  0  0  0  0  0  0
  194.9220  172.6230  143.2900 C   0  0  1  0  0  3  0  0  0  0  0  0
  192.7760  169.9780  141.4470 O   0  0  0  0  0  1  0  0  0  0  0  0
  196.1370  169.6110  137.9570 C   0  0  2  0  0  3  0  0  0  0  0  0
  196.3250  169.7380  136.4970 C   0  0  0  0  0  2  0  0  0  0  0  0
  195.2380  169.0290  137.0440 O   0  0  0  0  0  0  0  0  0  0  0  0
  197.0310  172.1680  144.0410 O   0  0  0  0  0  0  0  0  0  0  0  0
  197.0280  170.7680  143.9830 C   0  0  0  0  0  2  0  0  0  0  0  0
  196.4330  168.8000  145.3480 C   0  0  0  0  0  2  0  0  0  0  0  0
  197.9290  168.9950  145.4440 C   0  0  0  0  0  2  0  0  0  0  0  0
  197.0130  170.1990  145.3890 C   0  0  0  0  0  3  0  0  0  0  0  0
  197.1970  175.6400  140.4170 C   0  0  0  0  0  3  0  0  0  0  0  0
  195.6740  175.1530  138.9210 O   0  0  0  0  0  0  0  0  0  0  0  0
  197.8200  175.5240  139.2280 N   0  0  0  0  0  0  0  0  0  0  0  0
  195.8580  175.3980  140.1970 C   0  0  0  0  0  0  0  0  0  0  0  0
  196.8460  175.2250  138.3390 C   0  0  0  0  0  3  0  0  0  0  0  0
  1  3  1  0  0  0  0
  2  4  1  1  0  0  0
  2  5  1  0  0  0  0
  2  1  1  0  0  0  0
  5 36  1  1  0  0  0
  5  3  1  0  0  0  0
  7  6  1  0  0  0  0
  8 26  1  6  0  0  0
  8  7  1  0  0  0  0
  9 14  1  0  0  0  0
  9 10  1  0  0  0  0
 10 12  1  0  0  0  0
 11  8  1  0  0  0  0
 11  9  1  0  0  0  0
 12  6  1  1  0  0  0
 12  2  1  0  0  0  0
 13 10  2  0  0  0  0
 14 16  1  0  0  0  0
 15 19  1  0  0  0  0
 16 18  1  0  0  0  0
 16 15  1  0  0  0  0
 17 15  2  0  0  0  0
 19 20  1  0  0  0  0
 20 22  1  1  0  0  0
 20 23  1  0  0  0  0
 21 23  1  0  0  0  0
 21 25  2  0  0  0  0
 24 21  2  0  0  0  0
 27 26  1  0  0  0  0
 28 27  1  0  0  0  0
 28 29  1  1  0  0  0
 30 28  1  0  0  0  0
 31 30  1  0  0  0  0
 32 31  1  0  0  0  0
 33 31  1  0  0  0  0
 33 35  1  0  0  0  0
 34 35  1  0  0  0  0
 37 36  1  0  0  0  0
 38 37  1  0  0  0  0
 40 39  1  1  0  0  0
 40 38  1  0  0  0  0
 41 43  1  6  0  0  0
 41 56  1  0  0  0  0
 42 41  1  0  0  0  0
 42 40  1  0  0  0  0
 44 69  1  6  0  0  0
 44 42  1  0  0  0  0
 45 44  1  0  0  0  0
 45 43  1  0  0  0  0
 46 48  1  6  0  0  0
 46 55  1  0  0  0  0
 47 52  2  0  0  0  0
 49 46  1  0  0  0  0
 49 51  2  0  0  0  0
 50 56  1  0  0  0  0
 50 61  1  0  0  0  0
 51 47  1  0  0  0  0
 53 48  1  1  0  0  0
 53 54  1  0  0  0  0
 54 49  1  0  0  0  0
 55 50  1  0  0  0  0
 56 47  1  6  0  0  0
 57 51  1  0  0  0  0
 58 59  1  6  0  0  0
 58 53  1  0  0  0  0
 59 60  1  0  0  0  0
 60 58  1  0  0  0  0
 62 61  1  0  0  0  0
 62 65  1  0  0  0  0
 63 65  1  0  0  0  0
 63 64  1  0  0  0  0
 65 64  1  0  0  0  0
 67 69  1  0  0  0  0
 68 66  1  0  0  0  0
 69 66  2  0  0  0  0
 70 67  1  0  0  0  0
 70 68  2  0  0  0  0
M  END
>  <MODEL>
1

>  <REMARK>
 VINA RESULT:      -5.4      0.000      0.000
  Name = 
  23 active torsions:
  status: ('A' for Active; 'I' for Inactive)
    1  A    between atoms: C_1  and  N_7
    2  A    between atoms: C_1  and  C_10
    3  A    between atoms: C_5  and  S_65
    4  A    between atoms: N_7  and  C_18
    5  A    between atoms: C_10  and  C_32
    6  A    between atoms: C_11  and  C_64
    7  A    between atoms: N_14  and  C_40
    8  A    between atoms: N_15  and  N_50
    9  A    between atoms: N_15  and  C_69
   10  A    between atoms: C_16  and  S_65
   11  A    between atoms: C_19  and  C_59
   12  A    between atoms: N_21  and  C_36
   13  A    between atoms: O_22  and  C_36
   14  A    between atoms: O_22  and  C_55
   15  A    between atoms: O_24  and  N_26
   16  A    between atoms: O_24  and  C_34
   17  A    between atoms: C_32  and  N_50
   18  A    between atoms: C_33  and  N_37
   19  A    between atoms: C_34  and  C_48
   20  A    between atoms: C_38  and  C_43
   21  A    between atoms: C_40  and  N_41
   22  A    between atoms: C_55  and  C_70
   23  A    between atoms: C_62  and  C_70
                            x       y       z     vdW  Elec       q    Type
                         _______ _______ _______ _____ _____    ______ ____

>  <TORSDO>
F 23

$$$$
=
 OpenBabel11062421463D

 70 77  0  0  1  0  0  0  0  0999 V2000
  190.2620  177.2920  147.3040 C   0  0  0  0  0  2  0  0  0  0  0  0
  190.5960  176.4770  146.0800 C   0  0  1  0  0  0  0  0  0  0  0  0
  190.9400  176.4060  148.1700 O   0  0  0  0  0  0  0  0  0  0  0  0
  191.5420  177.2710  145.1730 C   0  0  0  0  0  1  0  0  0  0  0  0
  191.2300  175.5440  147.0970 C   0  0  2  0  0  3  0  0  0  0  0  0
  188.7190  176.9700  144.5090 C   0  0  0  0  0  2  0  0  0  0  0  0
  187.4800  176.5490  144.0300 O   0  0  0  0  0  0  0  0  0  0  0  0
  187.7060  176.2550  142.6860 C   0  0  1  0  0  3  0  0  0  0  0  0
  189.4650  174.5770  143.0670 N   0  0  0  0  0  0  0  0  0  0  0  0
  189.7230  174.6350  144.4810 C   0  0  0  0  0  0  0  0  0  0  0  0
  188.1230  174.8030  142.5290 C   0  0  0  0  0  2  0  0  0  0  0  0
  189.3920  175.8640  145.3200 C   0  0  1  0  0  3  0  0  0  0  0  0
  190.2380  173.6360  145.0450 O   0  0  0  0  0  0  0  0  0  0  0  0
  190.5170  174.0900  142.1760 C   0  0  0  0  0  2  0  0  0  0  0  0
  190.4200  172.9060  139.9510 C   0  0  0  0  0  0  0  0  0  0  0  0
  190.0190  173.0120  141.3270 N   0  0  0  0  0  0  0  0  0  0  0  0
  190.9970  173.8700  139.3850 O   0  0  0  0  0  0  0  0  0  0  0  0
  189.1900  171.9870  141.9430 C   0  0  0  0  0  1  0  0  0  0  0  0
  190.1150  171.4030  139.0120 S   0  0  0  0  0  0  0  0  0  0  0  0
  189.5830  172.3020  137.5190 C   0  0  1  0  0  3  0  0  0  0  0  0
  189.5880  171.3240  136.0060 P   0  0  0  0  0  0  0  0  0  0  0  0
  188.4950  173.3520  137.6140 C   0  0  0  0  0  1  0  0  0  0  0  0
  190.5730  172.6110  136.6700 O   0  0  0  0  0  0  0  0  0  0  0  0
  190.4780  170.1100  135.8820 O   0  0  0  0  0  0  0  0  0  0  0  0
  188.9670  171.9020  134.5470 O   0  0  0  0  0  0  0  0  0  0  0  0
  186.5230  176.5560  141.8770 N   0  0  0  0  0  2  0  0  0  0  0  0
  185.4150  176.9680  142.7310 C   0  0  0  0  0  2  0  0  0  0  0  0
  184.8330  178.2750  142.2290 C   0  0  2  0  0  3  0  0  0  0  0  0
  185.7010  178.8500  141.2970 O   0  0  0  0  0  1  0  0  0  0  0  0
  184.6410  179.2210  143.4000 C   0  0  0  0  0  2  0  0  0  0  0  0
  184.9340  178.5290  144.6530 N   0  0  0  0  0  0  0  0  0  0  0  0
  183.8170  178.5530  145.4240 O   0  0  0  0  0  1  0  0  0  0  0  0
  185.9760  179.2060  145.3320 N   0  0  0  0  0  2  0  0  0  0  0  0
  185.7890  179.3470  147.7520 C   0  0  0  0  0  1  0  0  0  0  0  0
  186.3140  178.5320  146.5920 C   0  0  0  0  0  2  0  0  0  0  0  0
  192.7280  175.2380  146.9610 C   0  0  0  0  0  2  0  0  0  0  0  0
  193.0590  173.9760  146.1740 C   0  0  0  0  0  2  0  0  0  0  0  0
  193.8910  174.2590  145.0810 O   0  0  0  0  0  0  0  0  0  0  0  0
  193.0830  172.1850  144.3130 O   0  0  0  0  0  1  0  0  0  0  0  0
  194.1720  173.0670  144.3580 C   0  0  1  0  0  3  0  0  0  0  0  0
  194.1610  172.4140  142.0090 C   0  0  1  0  0  3  0  0  0  0  0  0
  194.7780  173.2670  143.0240 N   0  0  0  0  0  0  0  0  0  0  0  0
  193.5990  173.1880  140.9750 O   0  0  0  0  0  0  0  0  0  0  0  0
  194.5520  174.6250  142.5800 C   0  0  2  0  0  3  0  0  0  0  0  0
  194.0470  174.5010  141.1650 C   0  0  0  0  0  2  0  0  0  0  0  0
  196.2440  172.9410  139.2550 C   0  0  1  0  0  3  0  0  0  0  0  0
  194.6350  170.5740  140.2630 C   0  0  0  0  0  0  0  0  0  0  0  0
  197.0460  173.6470  138.1650 C   0  0  0  0  0  2  0  0  0  0  0  0
  195.3050  172.1380  138.4560 C   0  0  0  0  0  0  0  0  0  0  0  0
  196.5300  171.8600  141.4300 N   0  0  0  0  0  0  0  0  0  0  0  0
  194.5860  171.0880  138.8730 C   0  0  0  0  0  0  0  0  0  0  0  0
  194.1770  169.4250  140.4920 O   0  0  0  0  0  0  0  0  0  0  0  0
  196.2500  173.6080  136.9260 N   0  0  2  0  0  0  0  0  0  0  0  0
  195.3470  172.5530  137.1090 N   0  0  0  0  0  2  0  0  0  0  0  0
  197.1170  172.0290  140.0960 C   0  0  0  0  0  2  0  0  0  0  0  0
  195.1350  171.3720  141.4510 C   0  0  1  0  0  3  0  0  0  0  0  0
  193.8000  170.4060  137.9450 O   0  0  0  0  0  1  0  0  0  0  0  0
  197.1410  173.2380  135.8390 C   0  0  2  0  0  3  0  0  0  0  0  0
  196.7390  173.9490  134.6070 C   0  0  0  0  0  2  0  0  0  0  0  0
  196.4000  172.5990  134.8270 O   0  0  0  0  0  0  0  0  0  0  0  0
  197.2870  170.9480  142.0910 O   0  0  0  0  0  0  0  0  0  0  0  0
  196.5450  170.6290  143.2370 C   0  0  0  0  0  2  0  0  0  0  0  0
  196.6240  170.5530  145.7030 C   0  0  0  0  0  2  0  0  0  0  0  0
  197.9410  170.0250  145.1800 C   0  0  0  0  0  2  0  0  0  0  0  0
  197.2500  171.1680  144.4670 C   0  0  0  0  0  3  0  0  0  0  0  0
  196.9330  175.2040  141.8340 C   0  0  0  0  0  3  0  0  0  0  0  0
  196.0910  176.3720  143.4840 O   0  0  0  0  0  0  0  0  0  0  0  0
  197.8690  176.0930  142.2220 N   0  0  0  0  0  0  0  0  0  0  0  0
  195.8300  175.4050  142.6370 C   0  0  0  0  0  0  0  0  0  0  0  0
  197.3090  176.7870  143.2370 C   0  0  0  0  0  3  0  0  0  0  0  0
  1  3  1  0  0  0  0
  2  4  1  6  0  0  0
  2  5  1  0  0  0  0
  2  1  1  0  0  0  0
  5 36  1  6  0  0  0
  5  3  1  0  0  0  0
  7  6  1  0  0  0  0
  8 26  1  6  0  0  0
  8  7  1  0  0  0  0
  9 10  1  0  0  0  0
 10 13  2  0  0  0  0
 10 12  1  0  0  0  0
 11  8  1  0  0  0  0
 11  9  1  0  0  0  0
 12  6  1  6  0  0  0
 12  2  1  0  0  0  0
 14  9  1  0  0  0  0
 15 16  1  0  0  0  0
 16 18  1  0  0  0  0
 16 14  1  0  0  0  0
 17 15  2  0  0  0  0
 19 15  1  0  0  0  0
 20 22  1  1  0  0  0
 20 19  1  0  0  0  0
 21 23  1  0  0  0  0
 23 20  1  0  0  0  0
 24 21  2  0  0  0  0
 25 21  2  0  0  0  0
 26 27  1  0  0  0  0
 28 29  1  6  0  0  0
 28 27  1  0  0  0  0
 28 30  1  0  0  0  0
 30 31  1  0  0  0  0
 31 33  1  0  0  0  0
 31 32  1  0  0  0  0
 33 35  1  0  0  0  0
 35 34  1  0  0  0  0
 37 36  1  0  0  0  0
 38 37  1  0  0  0  0
 40 39  1  6  0  0  0
 40 38  1  0  0  0  0
 41 43  1  6  0  0  0
 41 42  1  0  0  0  0
 42 40  1  0  0  0  0
 43 45  1  0  0  0  0
 44 69  1  6  0  0  0
 44 42  1  0  0  0  0
 45 44  1  0  0  0  0
 46 48  1  6  0  0  0
 46 55  1  0  0  0  0
 47 52  2  0  0  0  0
 49 51  2  0  0  0  0
 49 46  1  0  0  0  0
 50 56  1  0  0  0  0
 50 61  1  0  0  0  0
 51 47  1  0  0  0  0
 53 54  1  0  0  0  0
 53 48  1  1  0  0  0
 54 49  1  0  0  0  0
 55 50  1  0  0  0  0
 56 47  1  6  0  0  0
 56 41  1  0  0  0  0
 57 51  1  0  0  0  0
 58 59  1  6  0  0  0
 58 53  1  0  0  0  0
 59 60  1  0  0  0  0
 60 58  1  0  0  0  0
 61 62  1  0  0  0  0
 62 65  1  0  0  0  0
 64 63  1  0  0  0  0
 65 64  1  0  0  0  0
 65 63  1  0  0  0  0
 66 68  1  0  0  0  0
 66 69  2  0  0  0  0
 68 70  2  0  0  0  0
 69 67  1  0  0  0  0
 70 67  1  0  0  0  0
M  END
>  <MODEL>
2

>  <REMARK>
 VINA RESULT:      -5.2      2.858      6.350
  Name = 
  23 active torsions:
  status: ('A' for Active; 'I' for Inactive)
    1  A    between atoms: C_1  and  N_7
    2  A    between atoms: C_1  and  C_10
    3  A    between atoms: C_5  and  S_65
    4  A    between atoms: N_7  and  C_18
    5  A    between atoms: C_10  and  C_32
    6  A    between atoms: C_11  and  C_64
    7  A    between atoms: N_14  and  C_40
    8  A    between atoms: N_15  and  N_50
    9  A    between atoms: N_15  and  C_69
   10  A    between atoms: C_16  and  S_65
   11  A    between atoms: C_19  and  C_59
   12  A    between atoms: N_21  and  C_36
   13  A    between atoms: O_22  and  C_36
   14  A    between atoms: O_22  and  C_55
   15  A    between atoms: O_24  and  N_26
   16  A    between atoms: O_24  and  C_34
   17  A    between atoms: C_32  and  N_50
   18  A    between atoms: C_33  and  N_37
   19  A    between atoms: C_34  and  C_48
   20  A    between atoms: C_38  and  C_43
   21  A    between atoms: C_40  and  N_41
   22  A    between atoms: C_55  and  C_70
   23  A    between atoms: C_62  and  C_70
                            x       y       z     vdW  Elec       q    Type
                         _______ _______ _______ _____ _____    ______ ____

>  <TORSDO>
F 23

$$$$
=
 OpenBabel11062421463D

 70 77  0  0  1  0  0  0  0  0999 V2000
  194.5590  170.6130  140.2660 C   0  0  0  0  0  2  0  0  0  0  0  0
  193.5130  169.7920  140.9790 C   0  0  1  0  0  0  0  0  0  0  0  0
  195.2750  170.8700  141.4560 O   0  0  0  0  0  0  0  0  0  0  0  0
  193.6070  168.3320  140.5250 C   0  0  0  0  0  1  0  0  0  0  0  0
  194.3070  170.1870  142.2130 C   0  0  2  0  0  3  0  0  0  0  0  0
  192.1360  171.8720  141.0790 C   0  0  0  0  0  2  0  0  0  0  0  0
  190.8740  172.4030  141.3330 O   0  0  0  0  0  0  0  0  0  0  0  0
  190.4630  172.9310  140.1090 C   0  0  1  0  0  3  0  0  0  0  0  0
  190.6340  170.8320  138.8370 N   0  0  0  0  0  0  0  0  0  0  0  0
  191.2350  169.9000  139.7530 C   0  0  0  0  0  0  0  0  0  0  0  0
  189.7230  171.8770  139.3050 C   0  0  0  0  0  2  0  0  0  0  0  0
  192.0690  170.3520  140.9470 C   0  0  1  0  0  3  0  0  0  0  0  0
  191.0650  168.6680  139.5630 O   0  0  0  0  0  0  0  0  0  0  0  0
  190.7810  170.6060  137.4010 C   0  0  0  0  0  2  0  0  0  0  0  0
  192.4820  172.3790  136.8280 C   0  0  0  0  0  0  0  0  0  0  0  0
  192.1140  170.9950  136.9480 N   0  0  0  0  0  0  0  0  0  0  0  0
  191.5970  173.2730  136.8610 O   0  0  0  0  0  0  0  0  0  0  0  0
  193.0930  169.9420  136.7270 C   0  0  0  0  0  1  0  0  0  0  0  0
  194.2020  172.8650  136.6330 S   0  0  0  0  0  0  0  0  0  0  0  0
  193.7890  174.4140  135.7670 C   0  0  1  0  0  3  0  0  0  0  0  0
  195.0970  175.6540  135.7720 P   0  0  0  0  0  0  0  0  0  0  0  0
  192.9280  174.3810  134.5210 C   0  0  0  0  0  1  0  0  0  0  0  0
  193.5510  175.4590  136.5720 O   0  0  0  0  0  0  0  0  0  0  0  0
  196.1530  175.6490  136.8510 O   0  0  0  0  0  0  0  0  0  0  0  0
  194.9970  177.0860  134.8830 O   0  0  0  0  0  0  0  0  0  0  0  0
  189.6370  174.1250  140.3040 N   0  0  0  0  0  2  0  0  0  0  0  0
  189.2770  174.2700  141.7100 C   0  0  0  0  0  2  0  0  0  0  0  0
  188.3870  175.4830  141.8940 C   0  0  2  0  0  3  0  0  0  0  0  0
  187.5270  175.2780  142.9760 O   0  0  0  0  0  1  0  0  0  0  0  0
  187.5750  175.7060  140.6310 C   0  0  0  0  0  2  0  0  0  0  0  0
  186.8220  176.9530  140.7370 N   0  0  0  0  0  0  0  0  0  0  0  0
  187.4030  177.8720  139.9240 O   0  0  0  0  0  1  0  0  0  0  0  0
  186.8720  177.4210  142.0720 N   0  0  0  0  0  2  0  0  0  0  0  0
  185.9590  178.9660  143.7130 C   0  0  0  0  0  1  0  0  0  0  0  0
  186.0510  178.6270  142.2430 C   0  0  0  0  0  2  0  0  0  0  0  0
  194.9010  169.0670  143.0790 C   0  0  0  0  0  2  0  0  0  0  0  0
  194.9720  169.3740  144.5690 C   0  0  0  0  0  2  0  0  0  0  0  0
  194.1180  170.4320  144.9150 O   0  0  0  0  0  0  0  0  0  0  0  0
  196.2070  171.1420  145.7370 O   0  0  0  0  0  1  0  0  0  0  0  0
  194.8530  171.4630  145.5610 C   0  0  1  0  0  3  0  0  0  0  0  0
  193.4610  173.4640  145.4880 C   0  0  1  0  0  3  0  0  0  0  0  0
  194.6750  172.8160  144.9900 N   0  0  0  0  0  0  0  0  0  0  0  0
  193.7710  174.6670  146.1520 O   0  0  0  0  0  0  0  0  0  0  0  0
  195.7670  173.6710  145.4020 C   0  0  2  0  0  3  0  0  0  0  0  0
  195.1180  174.9400  145.8870 C   0  0  0  0  0  2  0  0  0  0  0  0
  191.0220  175.9640  145.5590 C   0  0  1  0  0  3  0  0  0  0  0  0
  191.0640  173.0800  144.6180 C   0  0  0  0  0  0  0  0  0  0  0  0
  190.2700  177.2380  145.9340 C   0  0  0  0  0  2  0  0  0  0  0  0
  190.0440  174.9270  145.9250 C   0  0  0  0  0  0  0  0  0  0  0  0
  192.4930  175.0630  143.8250 N   0  0  0  0  0  0  0  0  0  0  0  0
  190.0350  173.6500  145.5220 C   0  0  0  0  0  0  0  0  0  0  0  0
  190.8200  171.9810  144.0530 O   0  0  0  0  0  0  0  0  0  0  0  0
  189.2110  176.8690  146.8880 N   0  0  2  0  0  0  0  0  0  0  0  0
  189.0050  175.4980  146.6880 N   0  0  0  0  0  2  0  0  0  0  0  0
  191.3130  175.8980  144.0720 C   0  0  0  0  0  2  0  0  0  0  0  0
  192.4280  173.6950  144.3810 C   0  0  1  0  0  3  0  0  0  0  0  0
  188.9790  172.8310  145.9190 O   0  0  0  0  0  1  0  0  0  0  0  0
  187.9950  177.5560  146.4850 C   0  0  2  0  0  3  0  0  0  0  0  0
  187.1850  177.8700  147.6810 C   0  0  0  0  0  2  0  0  0  0  0  0
  186.8780  176.7780  146.8460 O   0  0  0  0  0  0  0  0  0  0  0  0
  192.6320  174.9460  142.4810 O   0  0  0  0  0  0  0  0  0  0  0  0
  193.9970  175.1560  142.2410 C   0  0  0  0  0  2  0  0  0  0  0  0
  195.6520  176.1920  140.7300 C   0  0  0  0  0  2  0  0  0  0  0  0
  194.8650  175.1770  139.9320 C   0  0  0  0  0  2  0  0  0  0  0  0
  194.1710  176.0030  140.9940 C   0  0  0  0  0  3  0  0  0  0  0  0
  197.1930  175.1610  143.8830 C   0  0  0  0  0  3  0  0  0  0  0  0
  197.0920  173.0310  143.3830 O   0  0  0  0  0  0  0  0  0  0  0  0
  197.9410  174.9680  142.7780 N   0  0  0  0  0  0  0  0  0  0  0  0
  196.6790  173.9340  144.2410 C   0  0  0  0  0  0  0  0  0  0  0  0
  197.8500  173.6470  142.5070 C   0  0  0  0  0  3  0  0  0  0  0  0
  1  2  1  0  0  0  0
  1  3  1  0  0  0  0
  2  4  1  6  0  0  0
  2  5  1  0  0  0  0
  3  5  1  0  0  0  0
  5 36  1  6  0  0  0
  6  7  1  0  0  0  0
  8 26  1  1  0  0  0
  8  7  1  0  0  0  0
  9 11  1  0  0  0  0
  9 10  1  0  0  0  0
 10 12  1  0  0  0  0
 11  8  1  0  0  0  0
 12  2  1  0  0  0  0
 12  6  1  6  0  0  0
 13 10  2  0  0  0  0
 14  9  1  0  0  0  0
 15 17  2  0  0  0  0
 15 16  1  0  0  0  0
 16 14  1  0  0  0  0
 18 16  1  0  0  0  0
 19 15  1  0  0  0  0
 20 22  1  1  0  0  0
 20 23  1  0  0  0  0
 20 19  1  0  0  0  0
 21 23  1  0  0  0  0
 21 24  2  0  0  0  0
 25 21  2  0  0  0  0
 26 27  1  0  0  0  0
 27 28  1  0  0  0  0
 28 29  1  1  0  0  0
 30 31  1  0  0  0  0
 30 28  1  0  0  0  0
 31 33  1  0  0  0  0
 32 31  1  0  0  0  0
 33 35  1  0  0  0  0
 35 34  1  0  0  0  0
 36 37  1  0  0  0  0
 37 38  1  0  0  0  0
 38 40  1  0  0  0  0
 40 39  1  6  0  0  0
 41 43  1  6  0  0  0
 42 44  1  0  0  0  0
 42 41  1  0  0  0  0
 42 40  1  0  0  0  0
 44 69  1  6  0  0  0
 44 45  1  0  0  0  0
 45 43  1  0  0  0  0
 46 55  1  6  0  0  0
 46 49  1  0  0  0  0
 46 48  1  0  0  0  0
 47 51  1  0  0  0  0
 49 54  1  0  0  0  0
 50 55  1  0  0  0  0
 50 56  1  0  0  0  0
 51 57  1  0  0  0  0
 51 49  2  0  0  0  0
 52 47  2  0  0  0  0
 53 48  1  6  0  0  0
 54 53  1  0  0  0  0
 56 47  1  1  0  0  0
 56 41  1  0  0  0  0
 58 60  1  0  0  0  0
 58 53  1  0  0  0  0
 58 59  1  1  0  0  0
 60 59  1  0  0  0  0
 61 50  1  0  0  0  0
 62 61  1  0  0  0  0
 63 65  1  0  0  0  0
 64 63  1  0  0  0  0
 64 65  1  0  0  0  0
 65 62  1  0  0  0  0
 66 69  2  0  0  0  0
 67 69  1  0  0  0  0
 68 66  1  0  0  0  0
 70 68  2  0  0  0  0
 70 67  1  0  0  0  0
M  END
>  <MODEL>
3

>  <REMARK>
 VINA RESULT:      -4.8      3.237      8.514
  Name = 
  23 active torsions:
  status: ('A' for Active; 'I' for Inactive)
    1  A    between atoms: C_1  and  N_7
    2  A    between atoms: C_1  and  C_10
    3  A    between atoms: C_5  and  S_65
    4  A    between atoms: N_7  and  C_18
    5  A    between atoms: C_10  and  C_32
    6  A    between atoms: C_11  and  C_64
    7  A    between atoms: N_14  and  C_40
    8  A    between atoms: N_15  and  N_50
    9  A    between atoms: N_15  and  C_69
   10  A    between atoms: C_16  and  S_65
   11  A    between atoms: C_19  and  C_59
   12  A    between atoms: N_21  and  C_36
   13  A    between atoms: O_22  and  C_36
   14  A    between atoms: O_22  and  C_55
   15  A    between atoms: O_24  and  N_26
   16  A    between atoms: O_24  and  C_34
   17  A    between atoms: C_32  and  N_50
   18  A    between atoms: C_33  and  N_37
   19  A    between atoms: C_34  and  C_48
   20  A    between atoms: C_38  and  C_43
   21  A    between atoms: C_40  and  N_41
   22  A    between atoms: C_55  and  C_70
   23  A    between atoms: C_62  and  C_70
                            x       y       z     vdW  Elec       q    Type
                         _______ _______ _______ _____ _____    ______ ____

>  <TORSDO>
F 23

$$$$
=
 OpenBabel11062421463D

 70 77  0  0  1  0  0  0  0  0999 V2000
  189.5910  174.4140  145.6600 C   0  0  0  0  0  2  0  0  0  0  0  0
  189.9320  174.1200  144.2210 C   0  0  1  0  0  0  0  0  0  0  0  0
  189.8100  173.0780  146.0620 O   0  0  0  0  0  0  0  0  0  0  0  0
  191.2230  174.8500  143.8370 C   0  0  0  0  0  1  0  0  0  0  0  0
  190.0670  172.6970  144.7330 C   0  0  2  0  0  3  0  0  0  0  0  0
  188.5250  175.8180  143.0510 C   0  0  0  0  0  2  0  0  0  0  0  0
  187.3360  176.0480  142.3630 O   0  0  0  0  0  0  0  0  0  0  0  0
  187.7400  176.4050  141.0760 C   0  0  1  0  0  3  0  0  0  0  0  0
  189.0050  174.3480  140.6080 N   0  0  0  0  0  0  0  0  0  0  0  0
  189.0030  173.6280  141.8540 C   0  0  0  0  0  0  0  0  0  0  0  0
  187.8640  175.1690  140.2030 C   0  0  0  0  0  2  0  0  0  0  0  0
  188.7880  174.3210  143.1950 C   0  0  1  0  0  3  0  0  0  0  0  0
  189.1830  172.3830  141.8360 O   0  0  0  0  0  0  0  0  0  0  0  0
  190.0770  174.0940  139.6470 C   0  0  0  0  0  2  0  0  0  0  0  0
  190.2470  173.5360  137.1930 C   0  0  0  0  0  0  0  0  0  0  0  0
  189.5560  173.4420  138.4490 N   0  0  0  0  0  0  0  0  0  0  0  0
  191.1660  174.3810  137.0390 O   0  0  0  0  0  0  0  0  0  0  0  0
  188.3740  172.6050  138.5880 C   0  0  0  0  0  1  0  0  0  0  0  0
  189.8250  172.4520  135.8220 S   0  0  0  0  0  0  0  0  0  0  0  0
  191.2920  171.3950  136.0500 C   0  0  1  0  0  3  0  0  0  0  0  0
  190.9540  169.7800  136.7720 P   0  0  0  0  0  0  0  0  0  0  0  0
  192.4200  171.4350  135.0400 C   0  0  0  0  0  1  0  0  0  0  0  0
  191.6970  171.2670  137.3220 O   0  0  0  0  0  0  0  0  0  0  0  0
  189.7250  169.5630  137.6230 O   0  0  0  0  0  0  0  0  0  0  0  0
  192.1330  168.5790  136.9080 O   0  0  0  0  0  0  0  0  0  0  0  0
  186.8170  177.3780  140.4880 N   0  0  0  0  0  2  0  0  0  0  0  0
  185.4400  177.0480  140.8370 C   0  0  0  0  0  2  0  0  0  0  0  0
  184.7440  178.2680  141.4070 C   0  0  2  0  0  3  0  0  0  0  0  0
  184.2510  179.0590  140.3650 O   0  0  0  0  0  1  0  0  0  0  0  0
  185.7320  179.0700  142.2330 C   0  0  0  0  0  2  0  0  0  0  0  0
  185.2690  179.1590  143.6150 N   0  0  0  0  0  0  0  0  0  0  0  0
  185.5920  180.3870  144.0940 O   0  0  0  0  0  1  0  0  0  0  0  0
  185.9240  178.1740  144.3950 N   0  0  0  0  0  2  0  0  0  0  0  0
  185.8650  176.8120  146.4090 C   0  0  0  0  0  1  0  0  0  0  0  0
  185.0650  177.7080  145.4910 C   0  0  0  0  0  2  0  0  0  0  0  0
  191.4200  171.9920  144.5610 C   0  0  0  0  0  2  0  0  0  0  0  0
  191.5840  171.2230  143.2570 C   0  0  0  0  0  2  0  0  0  0  0  0
  192.9200  170.8450  143.0510 O   0  0  0  0  0  0  0  0  0  0  0  0
  193.1370  172.5470  141.4390 O   0  0  0  0  0  1  0  0  0  0  0  0
  193.3290  171.1900  141.7340 C   0  0  1  0  0  3  0  0  0  0  0  0
  195.3650  170.0630  142.4620 C   0  0  1  0  0  3  0  0  0  0  0  0
  194.6810  170.7270  141.3520 N   0  0  0  0  0  0  0  0  0  0  0  0
  195.6990  168.7360  142.1250 O   0  0  0  0  0  0  0  0  0  0  0  0
  194.5830  169.7320  140.3070 C   0  0  2  0  0  3  0  0  0  0  0  0
  195.4710  168.5990  140.7510 C   0  0  0  0  0  2  0  0  0  0  0  0
  195.2420  173.0100  144.3340 C   0  0  1  0  0  3  0  0  0  0  0  0
  197.0040  172.0170  142.0710 C   0  0  0  0  0  0  0  0  0  0  0  0
  194.7260  174.1280  145.2350 C   0  0  0  0  0  2  0  0  0  0  0  0
  195.5500  173.7470  143.0980 C   0  0  0  0  0  0  0  0  0  0  0  0
  196.6350  171.0000  144.4030 N   0  0  0  0  0  0  0  0  0  0  0  0
  196.3260  173.3360  142.0870 C   0  0  0  0  0  0  0  0  0  0  0  0
  197.9390  171.8350  141.2480 O   0  0  0  0  0  0  0  0  0  0  0  0
  194.3160  175.2480  144.3710 N   0  0  2  0  0  0  0  0  0  0  0  0
  195.0010  175.0440  143.1650 N   0  0  0  0  0  2  0  0  0  0  0  0
  196.5060  172.3790  144.8860 C   0  0  0  0  0  2  0  0  0  0  0  0
  196.5980  170.8380  142.9340 C   0  0  1  0  0  3  0  0  0  0  0  0
  196.5580  174.2090  141.0250 O   0  0  0  0  0  1  0  0  0  0  0  0
  194.8290  176.4730  144.9620 C   0  0  2  0  0  3  0  0  0  0  0  0
  194.3800  176.5690  146.3670 C   0  0  0  0  0  2  0  0  0  0  0  0
  193.7500  177.2960  145.3370 O   0  0  0  0  0  0  0  0  0  0  0  0
  197.8330  170.5310  144.8310 O   0  0  0  0  0  0  0  0  0  0  0  0
  197.5910  169.1980  145.1880 C   0  0  0  0  0  2  0  0  0  0  0  0
  196.7150  168.1730  147.2550 C   0  0  0  0  0  2  0  0  0  0  0  0
  196.8030  169.6660  147.4790 C   0  0  0  0  0  2  0  0  0  0  0  0
  196.3980  169.1290  146.1220 C   0  0  0  0  0  3  0  0  0  0  0  0
  195.4660  171.6060  138.8000 C   0  0  0  0  0  3  0  0  0  0  0  0
  195.0850  169.6650  137.8610 O   0  0  0  0  0  0  0  0  0  0  0  0
  195.7700  171.7220  137.4930 N   0  0  0  0  0  0  0  0  0  0  0  0
  195.0450  170.3100  139.0030 C   0  0  0  0  0  0  0  0  0  0  0  0
  195.5200  170.5070  136.9550 C   0  0  0  0  0  3  0  0  0  0  0  0
  1  3  1  0  0  0  0
  2  4  1  6  0  0  0
  2  5  1  0  0  0  0
  2  1  1  0  0  0  0
  5 36  1  1  0  0  0
  5  3  1  0  0  0  0
  7  6  1  0  0  0  0
  8 26  1  6  0  0  0
  8  7  1  0  0  0  0
  9 10  1  0  0  0  0
 10 12  1  0  0  0  0
 11  9  1  0  0  0  0
 11  8  1  0  0  0  0
 12  6  1  6  0  0  0
 12  2  1  0  0  0  0
 13 10  2  0  0  0  0
 14  9  1  0  0  0  0
 15 16  1  0  0  0  0
 16 18  1  0  0  0  0
 16 14  1  0  0  0  0
 17 15  2  0  0  0  0
 19 20  1  0  0  0  0
 19 15  1  0  0  0  0
 20 22  1  6  0  0  0
 20 23  1  0  0  0  0
 21 25  2  0  0  0  0
 21 23  1  0  0  0  0
 21 24  2  0  0  0  0
 26 27  1  0  0  0  0
 27 28  1  0  0  0  0
 28 29  1  6  0  0  0
 28 30  1  0  0  0  0
 30 31  1  0  0  0  0
 31 32  1  0  0  0  0
 31 33  1  0  0  0  0
 33 35  1  0  0  0  0
 35 34  1  0  0  0  0
 37 36  1  0  0  0  0
 38 37  1  0  0  0  0
 40 39  1  1  0  0  0
 40 38  1  0  0  0  0
 41 43  1  6  0  0  0
 41 56  1  0  0  0  0
 42 40  1  0  0  0  0
 42 41  1  0  0  0  0
 44 69  1  6  0  0  0
 44 45  1  0  0  0  0
 44 42  1  0  0  0  0
 45 43  1  0  0  0  0
 46 55  1  1  0  0  0
 46 48  1  0  0  0  0
 47 51  1  0  0  0  0
 49 54  1  0  0  0  0
 49 46  1  0  0  0  0
 50 61  1  0  0  0  0
 50 55  1  0  0  0  0
 51 49  2  0  0  0  0
 52 47  2  0  0  0  0
 53 58  1  0  0  0  0
 53 48  1  1  0  0  0
 54 53  1  0  0  0  0
 56 47  1  6  0  0  0
 56 50  1  0  0  0  0
 57 51  1  0  0  0  0
 58 60  1  0  0  0  0
 58 59  1  1  0  0  0
 60 59  1  0  0  0  0
 61 62  1  0  0  0  0
 62 65  1  0  0  0  0
 63 64  1  0  0  0  0
 65 63  1  0  0  0  0
 65 64  1  0  0  0  0
 66 69  2  0  0  0  0
 67 69  1  0  0  0  0
 68 66  1  0  0  0  0
 70 68  2  0  0  0  0
 70 67  1  0  0  0  0
M  END
>  <MODEL>
4

>  <REMARK>
 VINA RESULT:      -4.8      3.032      7.335
  Name = 
  23 active torsions:
  status: ('A' for Active; 'I' for Inactive)
    1  A    between atoms: C_1  and  N_7
    2  A    between atoms: C_1  and  C_10
    3  A    between atoms: C_5  and  S_65
    4  A    between atoms: N_7  and  C_18
    5  A    between atoms: C_10  and  C_32
    6  A    between atoms: C_11  and  C_64
    7  A    between atoms: N_14  and  C_40
    8  A    between atoms: N_15  and  N_50
    9  A    between atoms: N_15  and  C_69
   10  A    between atoms: C_16  and  S_65
   11  A    between atoms: C_19  and  C_59
   12  A    between atoms: N_21  and  C_36
   13  A    between atoms: O_22  and  C_36
   14  A    between atoms: O_22  and  C_55
   15  A    between atoms: O_24  and  N_26
   16  A    between atoms: O_24  and  C_34
   17  A    between atoms: C_32  and  N_50
   18  A    between atoms: C_33  and  N_37
   19  A    between atoms: C_34  and  C_48
   20  A    between atoms: C_38  and  C_43
   21  A    between atoms: C_40  and  N_41
   22  A    between atoms: C_55  and  C_70
   23  A    between atoms: C_62  and  C_70
                            x       y       z     vdW  Elec       q    Type
                         _______ _______ _______ _____ _____    ______ ____

>  <TORSDO>
F 23

$$$$
=
 OpenBabel11062421463D

 70 77  0  0  1  0  0  0  0  0999 V2000
  188.5080  174.6090  142.9820 C   0  0  0  0  0  2  0  0  0  0  0  0
  189.2580  175.4770  142.0020 C   0  0  1  0  0  0  0  0  0  0  0  0
  188.4440  173.5220  142.0830 O   0  0  0  0  0  0  0  0  0  0  0  0
  190.6740  175.7400  142.5250 C   0  0  0  0  0  1  0  0  0  0  0  0
  189.0700  174.2850  141.0810 C   0  0  2  0  0  3  0  0  0  0  0  0
  187.1500  176.3720  141.0080 C   0  0  0  0  0  2  0  0  0  0  0  0
  186.5620  177.4340  140.3250 O   0  0  0  0  0  0  0  0  0  0  0  0
  185.6280  177.9530  141.2210 C   0  0  1  0  0  3  0  0  0  0  0  0
  187.2260  178.4420  143.0260 N   0  0  0  0  0  0  0  0  0  0  0  0
  188.4700  177.8770  142.5740 C   0  0  0  0  0  0  0  0  0  0  0  0
  186.2690  179.0240  142.0850 C   0  0  0  0  0  2  0  0  0  0  0  0
  188.5290  176.7630  141.5350 C   0  0  1  0  0  3  0  0  0  0  0  0
  189.5460  178.3200  143.0500 O   0  0  0  0  0  0  0  0  0  0  0  0
  187.0090  178.6130  144.4620 C   0  0  0  0  0  2  0  0  0  0  0  0
  188.4080  177.1000  145.9170 C   0  0  0  0  0  0  0  0  0  0  0  0
  187.2070  177.3510  145.1700 N   0  0  0  0  0  0  0  0  0  0  0  0
  189.4120  177.8450  145.7690 O   0  0  0  0  0  0  0  0  0  0  0  0
  186.1070  176.3990  145.1870 C   0  0  0  0  0  1  0  0  0  0  0  0
  188.5080  175.7300  147.0770 S   0  0  0  0  0  0  0  0  0  0  0  0
  190.2640  176.0280  147.4620 C   0  0  1  0  0  3  0  0  0  0  0  0
  191.4280  175.2360  146.3380 P   0  0  0  0  0  0  0  0  0  0  0  0
  190.7020  177.3680  148.0160 C   0  0  0  0  0  1  0  0  0  0  0  0
  190.9070  174.9770  147.9900 O   0  0  0  0  0  0  0  0  0  0  0  0
  191.0230  174.0110  145.5530 O   0  0  0  0  0  0  0  0  0  0  0  0
  193.0910  175.5200  146.4020 O   0  0  0  0  0  0  0  0  0  0  0  0
  184.4570  178.4750  140.5140 N   0  0  0  0  0  2  0  0  0  0  0  0
  183.2520  177.7690  140.9360 C   0  0  0  0  0  2  0  0  0  0  0  0
  182.3390  178.7120  141.6940 C   0  0  2  0  0  3  0  0  0  0  0  0
  182.7690  178.8220  143.0190 O   0  0  0  0  0  1  0  0  0  0  0  0
  180.9200  178.1730  141.6600 C   0  0  0  0  0  2  0  0  0  0  0  0
  179.9670  179.2790  141.6290 N   0  0  0  0  0  0  0  0  0  0  0  0
  178.8300  178.8780  142.2530 O   0  0  0  0  0  1  0  0  0  0  0  0
  179.6640  179.6020  140.2840 N   0  0  0  0  0  2  0  0  0  0  0  0
  177.6940  179.3390  138.8830 C   0  0  0  0  0  1  0  0  0  0  0  0
  178.7450  178.6190  139.6960 C   0  0  0  0  0  2  0  0  0  0  0  0
  190.3240  173.6100  140.5070 C   0  0  0  0  0  2  0  0  0  0  0  0
  190.0700  172.6670  139.3380 C   0  0  0  0  0  2  0  0  0  0  0  0
  191.2360  171.9770  138.9760 O   0  0  0  0  0  0  0  0  0  0  0  0
  191.3900  170.2210  140.5380 O   0  0  0  0  0  1  0  0  0  0  0  0
  191.8850  171.4700  140.1350 C   0  0  1  0  0  3  0  0  0  0  0  0
  193.9390  170.1890  140.4300 C   0  0  1  0  0  3  0  0  0  0  0  0
  193.3640  171.4900  140.0900 N   0  0  0  0  0  0  0  0  0  0  0  0
  194.7210  169.6930  139.3690 O   0  0  0  0  0  0  0  0  0  0  0  0
  193.8100  171.7720  138.7440 C   0  0  2  0  0  3  0  0  0  0  0  0
  194.8690  170.7400  138.4520 C   0  0  0  0  0  2  0  0  0  0  0  0
  194.2120  172.9960  142.4910 C   0  0  1  0  0  3  0  0  0  0  0  0
  196.1360  170.8140  141.6300 C   0  0  0  0  0  0  0  0  0  0  0  0
  193.9270  174.3540  143.1280 C   0  0  0  0  0  2  0  0  0  0  0  0
  195.5590  173.2080  141.9370 C   0  0  0  0  0  0  0  0  0  0  0  0
  193.9090  170.6030  142.8970 N   0  0  0  0  0  0  0  0  0  0  0  0
  196.4290  172.2650  141.5540 C   0  0  0  0  0  0  0  0  0  0  0  0
  197.0960  170.0040  141.5420 O   0  0  0  0  0  0  0  0  0  0  0  0
  194.8300  175.3380  142.5080 N   0  0  2  0  0  0  0  0  0  0  0  0
  195.8810  174.5800  141.9740 N   0  0  0  0  0  2  0  0  0  0  0  0
  194.2470  171.8860  143.5240 C   0  0  0  0  0  2  0  0  0  0  0  0
  194.7410  170.2290  141.7340 C   0  0  1  0  0  3  0  0  0  0  0  0
  197.6930  172.6610  141.1190 O   0  0  0  0  0  1  0  0  0  0  0  0
  195.3820  176.1630  143.5700 C   0  0  2  0  0  3  0  0  0  0  0  0
  196.8280  176.3650  143.3380 C   0  0  0  0  0  2  0  0  0  0  0  0
  196.3530  175.4260  144.2750 O   0  0  0  0  0  0  0  0  0  0  0  0
  194.0710  169.6390  143.8370 O   0  0  0  0  0  0  0  0  0  0  0  0
  194.7200  170.2800  144.9010 C   0  0  0  0  0  2  0  0  0  0  0  0
  197.1390  170.2830  145.3930 C   0  0  0  0  0  2  0  0  0  0  0  0
  196.4030  169.9880  146.6810 C   0  0  0  0  0  2  0  0  0  0  0  0
  195.8850  169.4310  145.3720 C   0  0  0  0  0  3  0  0  0  0  0  0
  193.6920  174.3190  138.9880 C   0  0  0  0  0  3  0  0  0  0  0  0
  195.5720  173.4730  138.2520 O   0  0  0  0  0  0  0  0  0  0  0  0
  194.5350  175.3450  138.7600 N   0  0  0  0  0  0  0  0  0  0  0  0
  194.3670  173.1620  138.6670 C   0  0  0  0  0  0  0  0  0  0  0  0
  195.6770  174.7780  138.3090 C   0  0  0  0  0  3  0  0  0  0  0  0
  2  4  1  1  0  0  0
  2  1  1  0  0  0  0
  3  1  1  0  0  0  0
  5 36  1  1  0  0  0
  5  2  1  0  0  0  0
  5  3  1  0  0  0  0
  7  6  1  0  0  0  0
  7  8  1  0  0  0  0
  8 26  1  6  0  0  0
  8 11  1  0  0  0  0
  9 14  1  0  0  0  0
 10  9  1  0  0  0  0
 10 13  2  0  0  0  0
 11  9  1  0  0  0  0
 12  6  1  1  0  0  0
 12  2  1  0  0  0  0
 12 10  1  0  0  0  0
 14 16  1  0  0  0  0
 15 19  1  0  0  0  0
 16 18  1  0  0  0  0
 16 15  1  0  0  0  0
 17 15  2  0  0  0  0
 19 20  1  0  0  0  0
 20 23  1  0  0  0  0
 20 22  1  1  0  0  0
 21 25  2  0  0  0  0
 21 23  1  0  0  0  0
 24 21  2  0  0  0  0
 26 27  1  0  0  0  0
 27 28  1  0  0  0  0
 28 29  1  1  0  0  0
 30 28  1  0  0  0  0
 31 30  1  0  0  0  0
 31 32  1  0  0  0  0
 33 31  1  0  0  0  0
 34 35  1  0  0  0  0
 35 33  1  0  0  0  0
 37 36  1  0  0  0  0
 38 37  1  0  0  0  0
 38 40  1  0  0  0  0
 40 39  1  6  0  0  0
 41 43  1  6  0  0  0
 41 56  1  0  0  0  0
 42 40  1  0  0  0  0
 42 41  1  0  0  0  0
 44 69  1  1  0  0  0
 44 42  1  0  0  0  0
 45 44  1  0  0  0  0
 45 43  1  0  0  0  0
 46 48  1  1  0  0  0
 46 55  1  0  0  0  0
 49 54  1  0  0  0  0
 49 46  1  0  0  0  0
 50 55  1  0  0  0  0
 50 61  1  0  0  0  0
 51 47  1  0  0  0  0
 51 49  2  0  0  0  0
 52 47  2  0  0  0  0
 53 48  1  1  0  0  0
 53 58  1  0  0  0  0
 54 53  1  0  0  0  0
 56 47  1  6  0  0  0
 56 50  1  0  0  0  0
 57 51  1  0  0  0  0
 58 59  1  6  0  0  0
 58 60  1  0  0  0  0
 59 60  1  0  0  0  0
 61 62  1  0  0  0  0
 62 65  1  0  0  0  0
 63 64  1  0  0  0  0
 65 63  1  0  0  0  0
 65 64  1  0  0  0  0
 67 70  1  0  0  0  0
 67 69  1  0  0  0  0
 68 66  1  0  0  0  0
 69 66  2  0  0  0  0
 70 68  2  0  0  0  0
M  END
>  <MODEL>
5

>  <REMARK>
 VINA RESULT:      -4.7      3.047      6.407
  Name = 
  23 active torsions:
  status: ('A' for Active; 'I' for Inactive)
    1  A    between atoms: C_1  and  N_7
    2  A    between atoms: C_1  and  C_10
    3  A    between atoms: C_5  and  S_65
    4  A    between atoms: N_7  and  C_18
    5  A    between atoms: C_10  and  C_32
    6  A    between atoms: C_11  and  C_64
    7  A    between atoms: N_14  and  C_40
    8  A    between atoms: N_15  and  N_50
    9  A    between atoms: N_15  and  C_69
   10  A    between atoms: C_16  and  S_65
   11  A    between atoms: C_19  and  C_59
   12  A    between atoms: N_21  and  C_36
   13  A    between atoms: O_22  and  C_36
   14  A    between atoms: O_22  and  C_55
   15  A    between atoms: O_24  and  N_26
   16  A    between atoms: O_24  and  C_34
   17  A    between atoms: C_32  and  N_50
   18  A    between atoms: C_33  and  N_37
   19  A    between atoms: C_34  and  C_48
   20  A    between atoms: C_38  and  C_43
   21  A    between atoms: C_40  and  N_41
   22  A    between atoms: C_55  and  C_70
   23  A    between atoms: C_62  and  C_70
                            x       y       z     vdW  Elec       q    Type
                         _______ _______ _______ _____ _____    ______ ____

>  <TORSDO>
F 23

$$$$
=
 OpenBabel11062421463D

 70 77  0  0  1  0  0  0  0  0999 V2000
  187.9540  176.0690  144.3930 C   0  0  0  0  0  2  0  0  0  0  0  0
  188.7950  177.0960  143.6770 C   0  0  1  0  0  0  0  0  0  0  0  0
  188.8670  175.0260  144.1250 O   0  0  0  0  0  0  0  0  0  0  0  0
  189.3300  178.1180  144.6860 C   0  0  0  0  0  1  0  0  0  0  0  0
  189.6750  175.8960  143.3720 C   0  0  2  0  0  3  0  0  0  0  0  0
  188.2420  176.7590  141.2660 C   0  0  0  0  0  2  0  0  0  0  0  0
  187.9390  177.3840  140.0580 O   0  0  0  0  0  0  0  0  0  0  0  0
  186.6340  176.9820  139.7740 C   0  0  1  0  0  3  0  0  0  0  0  0
  185.6260  177.8470  141.8450 N   0  0  0  0  0  0  0  0  0  0  0  0
  186.7430  178.2860  142.6370 C   0  0  0  0  0  0  0  0  0  0  0  0
  185.6400  177.9530  140.3860 C   0  0  0  0  0  2  0  0  0  0  0  0
  188.1540  177.7490  142.4260 C   0  0  1  0  0  3  0  0  0  0  0  0
  186.5490  179.1460  143.5350 O   0  0  0  0  0  0  0  0  0  0  0  0
  184.3840  177.4740  142.5200 C   0  0  0  0  0  2  0  0  0  0  0  0
  182.5550  178.6370  141.2290 C   0  0  0  0  0  0  0  0  0  0  0  0
  183.3880  178.5340  142.3950 N   0  0  0  0  0  0  0  0  0  0  0  0
  182.8360  177.9830  140.1920 O   0  0  0  0  0  0  0  0  0  0  0  0
  183.1890  179.4190  143.5340 C   0  0  0  0  0  1  0  0  0  0  0  0
  181.0990  179.6920  141.2230 S   0  0  0  0  0  0  0  0  0  0  0  0
  179.9410  178.2960  141.4000 C   0  0  1  0  0  3  0  0  0  0  0  0
  178.9540  178.3200  142.9070 P   0  0  0  0  0  0  0  0  0  0  0  0
  179.2530  177.7230  140.1790 C   0  0  0  0  0  1  0  0  0  0  0  0
  180.3040  177.3790  142.3080 O   0  0  0  0  0  0  0  0  0  0  0  0
  179.4420  179.0580  144.1310 O   0  0  0  0  0  0  0  0  0  0  0  0
  177.7000  177.2260  143.1910 O   0  0  0  0  0  0  0  0  0  0  0  0
  186.4280  176.8530  138.3300 N   0  0  0  0  0  2  0  0  0  0  0  0
  187.1910  175.7250  137.8060 C   0  0  0  0  0  2  0  0  0  0  0  0
  187.6260  176.0110  136.3830 C   0  0  2  0  0  3  0  0  0  0  0  0
  186.5060  176.0610  135.5480 O   0  0  0  0  0  1  0  0  0  0  0  0
  188.5640  174.9140  135.9140 C   0  0  0  0  0  2  0  0  0  0  0  0
  189.1900  174.2690  137.0660 N   0  0  0  0  0  0  0  0  0  0  0  0
  190.5370  174.3490  136.9170 O   0  0  0  0  0  1  0  0  0  0  0  0
  188.8110  172.9050  137.1050 N   0  0  0  0  0  2  0  0  0  0  0  0
  190.0840  170.8540  137.3960 C   0  0  0  0  0  1  0  0  0  0  0  0
  189.8440  172.0500  136.5050 C   0  0  0  0  0  2  0  0  0  0  0  0
  191.1320  175.9290  143.8520 C   0  0  0  0  0  2  0  0  0  0  0  0
  192.1670  176.1440  142.7550 C   0  0  0  0  0  2  0  0  0  0  0  0
  193.4360  175.6980  143.1550 O   0  0  0  0  0  0  0  0  0  0  0  0
  194.9350  176.9490  141.8390 O   0  0  0  0  0  1  0  0  0  0  0  0
  194.3270  175.7030  142.0470 C   0  0  1  0  0  3  0  0  0  0  0  0
  195.6860  174.2280  140.6580 C   0  0  1  0  0  3  0  0  0  0  0  0
  195.3100  174.5970  142.0230 N   0  0  0  0  0  0  0  0  0  0  0  0
  197.0710  174.3840  140.4600 O   0  0  0  0  0  0  0  0  0  0  0  0
  196.5370  175.0160  142.6640 C   0  0  2  0  0  3  0  0  0  0  0  0
  197.6380  174.6060  141.7200 C   0  0  0  0  0  2  0  0  0  0  0  0
  192.3480  173.2590  140.3030 C   0  0  1  0  0  3  0  0  0  0  0  0
  194.8210  171.9310  141.4540 C   0  0  0  0  0  0  0  0  0  0  0  0
  190.8360  173.3320  140.1080 C   0  0  0  0  0  2  0  0  0  0  0  0
  192.4450  172.6260  141.6270 C   0  0  0  0  0  0  0  0  0  0  0  0
  194.4050  172.7860  139.0660 N   0  0  0  0  0  0  0  0  0  0  0  0
  193.5200  172.0290  142.1580 C   0  0  0  0  0  0  0  0  0  0  0  0
  195.6720  171.1080  141.8820 O   0  0  0  0  0  0  0  0  0  0  0  0
  190.2080  173.2210  141.4360 N   0  0  2  0  0  0  0  0  0  0  0  0
  191.1780  172.6160  142.2460 N   0  0  0  0  0  2  0  0  0  0  0  0
  193.0090  172.3790  139.2590 C   0  0  0  0  0  2  0  0  0  0  0  0
  195.2310  172.8120  140.2910 C   0  0  1  0  0  3  0  0  0  0  0  0
  193.3970  171.4180  143.4050 O   0  0  0  0  0  1  0  0  0  0  0  0
  189.0950  172.2930  141.3220 C   0  0  2  0  0  3  0  0  0  0  0  0
  187.8220  173.0450  141.3140 C   0  0  0  0  0  2  0  0  0  0  0  0
  188.2880  172.3900  142.4710 O   0  0  0  0  0  0  0  0  0  0  0  0
  194.9720  171.8940  138.2160 O   0  0  0  0  0  0  0  0  0  0  0  0
  193.8920  171.2270  137.6220 C   0  0  0  0  0  2  0  0  0  0  0  0
  193.7960  168.8510  136.9600 C   0  0  0  0  0  2  0  0  0  0  0  0
  193.2490  169.6740  135.8160 C   0  0  0  0  0  2  0  0  0  0  0  0
  194.4090  170.1980  136.6340 C   0  0  0  0  0  3  0  0  0  0  0  0
  197.1990  173.0830  144.2070 C   0  0  0  0  0  3  0  0  0  0  0  0
  196.2980  174.8450  145.1440 O   0  0  0  0  0  0  0  0  0  0  0  0
  197.1260  172.8450  145.5320 N   0  0  0  0  0  0  0  0  0  0  0  0
  196.6790  174.3410  143.9940 C   0  0  0  0  0  0  0  0  0  0  0  0
  196.5660  173.9530  146.0670 C   0  0  0  0  0  3  0  0  0  0  0  0
  2  1  1  0  0  0  0
  2  4  1  1  0  0  0
  3  1  1  0  0  0  0
  5  2  1  0  0  0  0
  5 36  1  1  0  0  0
  5  3  1  0  0  0  0
  7  6  1  0  0  0  0
  8 26  1  6  0  0  0
  8  7  1  0  0  0  0
  8 11  1  0  0  0  0
  9 14  1  0  0  0  0
  9 10  1  0  0  0  0
 10 13  2  0  0  0  0
 11  9  1  0  0  0  0
 12  6  1  6  0  0  0
 12 10  1  0  0  0  0
 12  2  1  0  0  0  0
 15 16  1  0  0  0  0
 16 14  1  0  0  0  0
 16 18  1  0  0  0  0
 17 15  2  0  0  0  0
 19 15  1  0  0  0  0
 19 20  1  0  0  0  0
 20 22  1  6  0  0  0
 20 23  1  0  0  0  0
 21 25  2  0  0  0  0
 21 24  2  0  0  0  0
 23 21  1  0  0  0  0
 27 26  1  0  0  0  0
 28 29  1  6  0  0  0
 28 27  1  0  0  0  0
 30 28  1  0  0  0  0
 30 31  1  0  0  0  0
 31 33  1  0  0  0  0
 32 31  1  0  0  0  0
 35 33  1  0  0  0  0
 35 34  1  0  0  0  0
 37 38  1  0  0  0  0
 37 36  1  0  0  0  0
 40 39  1  1  0  0  0
 40 38  1  0  0  0  0
 41 43  1  1  0  0  0
 41 42  1  0  0  0  0
 42 40  1  0  0  0  0
 42 44  1  0  0  0  0
 43 45  1  0  0  0  0
 44 69  1  1  0  0  0
 45 44  1  0  0  0  0
 46 55  1  6  0  0  0
 46 49  1  0  0  0  0
 47 52  2  0  0  0  0
 47 51  1  0  0  0  0
 48 46  1  0  0  0  0
 49 51  2  0  0  0  0
 49 54  1  0  0  0  0
 50 55  1  0  0  0  0
 50 56  1  0  0  0  0
 51 57  1  0  0  0  0
 53 48  1  6  0  0  0
 53 54  1  0  0  0  0
 56 41  1  0  0  0  0
 56 47  1  1  0  0  0
 58 59  1  6  0  0  0
 58 53  1  0  0  0  0
 58 60  1  0  0  0  0
 59 60  1  0  0  0  0
 61 50  1  0  0  0  0
 62 61  1  0  0  0  0
 64 65  1  0  0  0  0
 64 63  1  0  0  0  0
 65 63  1  0  0  0  0
 65 62  1  0  0  0  0
 66 68  1  0  0  0  0
 67 70  1  0  0  0  0
 68 70  2  0  0  0  0
 69 66  2  0  0  0  0
 69 67  1  0  0  0  0
M  END
>  <MODEL>
6

>  <REMARK>
 VINA RESULT:      -4.6      3.266      5.368
  Name = 
  23 active torsions:
  status: ('A' for Active; 'I' for Inactive)
    1  A    between atoms: C_1  and  N_7
    2  A    between atoms: C_1  and  C_10
    3  A    between atoms: C_5  and  S_65
    4  A    between atoms: N_7  and  C_18
    5  A    between atoms: C_10  and  C_32
    6  A    between atoms: C_11  and  C_64
    7  A    between atoms: N_14  and  C_40
    8  A    between atoms: N_15  and  N_50
    9  A    between atoms: N_15  and  C_69
   10  A    between atoms: C_16  and  S_65
   11  A    between atoms: C_19  and  C_59
   12  A    between atoms: N_21  and  C_36
   13  A    between atoms: O_22  and  C_36
   14  A    between atoms: O_22  and  C_55
   15  A    between atoms: O_24  and  N_26
   16  A    between atoms: O_24  and  C_34
   17  A    between atoms: C_32  and  N_50
   18  A    between atoms: C_33  and  N_37
   19  A    between atoms: C_34  and  C_48
   20  A    between atoms: C_38  and  C_43
   21  A    between atoms: C_40  and  N_41
   22  A    between atoms: C_55  and  C_70
   23  A    between atoms: C_62  and  C_70
                            x       y       z     vdW  Elec       q    Type
                         _______ _______ _______ _____ _____    ______ ____

>  <TORSDO>
F 23

$$$$
=
 OpenBabel11062421463D

 70 77  0  0  1  0  0  0  0  0999 V2000
  189.2100  175.1800  146.1220 C   0  0  0  0  0  2  0  0  0  0  0  0
  189.5270  175.0920  144.6510 C   0  0  1  0  0  0  0  0  0  0  0  0
  189.6160  173.8500  146.3660 O   0  0  0  0  0  0  0  0  0  0  0  0
  190.6960  176.0250  144.3190 C   0  0  0  0  0  1  0  0  0  0  0  0
  189.8660  173.6530  144.9960 C   0  0  2  0  0  3  0  0  0  0  0  0
  188.0460  176.7380  143.4980 C   0  0  0  0  0  2  0  0  0  0  0  0
  186.8180  176.9360  142.8700 O   0  0  0  0  0  0  0  0  0  0  0  0
  187.1470  177.2450  141.5490 C   0  0  1  0  0  3  0  0  0  0  0  0
  188.3960  175.1760  141.0900 N   0  0  0  0  0  0  0  0  0  0  0  0
  188.4690  174.5050  142.3610 C   0  0  0  0  0  0  0  0  0  0  0  0
  187.2290  175.9760  140.7190 C   0  0  0  0  0  2  0  0  0  0  0  0
  188.3260  175.2480  143.6840 C   0  0  1  0  0  3  0  0  0  0  0  0
  188.6550  173.2610  142.3810 O   0  0  0  0  0  0  0  0  0  0  0  0
  189.4140  174.8890  140.0810 C   0  0  0  0  0  2  0  0  0  0  0  0
  189.6970  172.4940  139.3430 C   0  0  0  0  0  0  0  0  0  0  0  0
  189.0170  173.7550  139.2510 N   0  0  0  0  0  0  0  0  0  0  0  0
  190.8000  172.4130  139.9450 O   0  0  0  0  0  0  0  0  0  0  0  0
  187.8420  173.9080  138.4060 C   0  0  0  0  0  1  0  0  0  0  0  0
  188.9960  171.0080  138.6120 S   0  0  0  0  0  0  0  0  0  0  0  0
  190.1160  171.0440  137.1750 C   0  0  1  0  0  3  0  0  0  0  0  0
  190.8670  169.4600  136.7630 P   0  0  0  0  0  0  0  0  0  0  0  0
  189.8090  171.9460  135.9970 C   0  0  0  0  0  1  0  0  0  0  0  0
  191.4190  170.9600  137.4780 O   0  0  0  0  0  0  0  0  0  0  0  0
  191.0220  168.3890  137.8160 O   0  0  0  0  0  0  0  0  0  0  0  0
  191.7930  169.2260  135.3710 O   0  0  0  0  0  0  0  0  0  0  0  0
  186.1870  178.1910  140.9780 N   0  0  0  0  0  2  0  0  0  0  0  0
  184.9030  177.5370  140.7500 C   0  0  0  0  0  2  0  0  0  0  0  0
  183.7790  178.4030  141.2840 C   0  0  2  0  0  3  0  0  0  0  0  0
  183.5690  178.1210  142.6360 O   0  0  0  0  0  1  0  0  0  0  0  0
  182.5110  178.1190  140.5000 C   0  0  0  0  0  2  0  0  0  0  0  0
  181.3830  178.8210  141.1060 N   0  0  0  0  0  0  0  0  0  0  0  0
  180.7160  177.9470  141.9030 O   0  0  0  0  0  1  0  0  0  0  0  0
  180.5090  179.2740  140.0880 N   0  0  0  0  0  2  0  0  0  0  0  0
  179.3730  181.2530  139.2470 C   0  0  0  0  0  1  0  0  0  0  0  0
  179.8320  180.5150  140.4840 C   0  0  0  0  0  2  0  0  0  0  0  0
  191.2900  173.1570  144.7100 C   0  0  0  0  0  2  0  0  0  0  0  0
  191.3850  172.0020  143.7220 C   0  0  0  0  0  2  0  0  0  0  0  0
  192.6810  171.4660  143.6850 O   0  0  0  0  0  0  0  0  0  0  0  0
  193.1110  172.6390  141.6880 O   0  0  0  0  0  1  0  0  0  0  0  0
  193.1430  171.3990  142.3410 C   0  0  1  0  0  3  0  0  0  0  0  0
  194.9120  170.0890  143.3920 C   0  0  1  0  0  3  0  0  0  0  0  0
  194.4380  170.7080  142.1550 N   0  0  0  0  0  0  0  0  0  0  0  0
  195.0690  168.6980  143.2300 O   0  0  0  0  0  0  0  0  0  0  0  0
  194.2840  169.6220  141.2120 C   0  0  2  0  0  3  0  0  0  0  0  0
  194.9470  168.4350  141.8610 C   0  0  0  0  0  2  0  0  0  0  0  0
  195.0400  173.1080  145.1460 C   0  0  1  0  0  3  0  0  0  0  0  0
  196.7930  171.8170  143.0330 C   0  0  0  0  0  0  0  0  0  0  0  0
  194.6120  174.3170  145.9730 C   0  0  0  0  0  2  0  0  0  0  0  0
  195.5030  173.7490  143.9050 C   0  0  0  0  0  0  0  0  0  0  0  0
  196.1730  170.9520  145.3720 N   0  0  0  0  0  0  0  0  0  0  0  0
  196.2790  173.2060  142.9590 C   0  0  0  0  0  0  0  0  0  0  0  0
  197.7440  171.4900  142.2750 O   0  0  0  0  0  0  0  0  0  0  0  0
  194.3900  175.4380  145.0460 N   0  0  2  0  0  0  0  0  0  0  0  0
  195.1110  175.1030  143.8920 N   0  0  0  0  0  2  0  0  0  0  0  0
  196.1850  172.3560  145.7970 C   0  0  0  0  0  2  0  0  0  0  0  0
  196.2010  170.7330  143.9110 C   0  0  1  0  0  3  0  0  0  0  0  0
  196.6740  173.9990  141.8830 O   0  0  0  0  0  1  0  0  0  0  0  0
  195.0120  176.6190  145.6220 C   0  0  2  0  0  3  0  0  0  0  0  0
  194.1730  177.1300  146.7280 C   0  0  0  0  0  2  0  0  0  0  0  0
  194.1590  177.7260  145.4510 O   0  0  0  0  0  0  0  0  0  0  0  0
  197.2810  170.3640  145.8900 O   0  0  0  0  0  0  0  0  0  0  0  0
  196.8320  169.1350  146.3940 C   0  0  0  0  0  2  0  0  0  0  0  0
  194.5690  168.1890  146.6700 C   0  0  0  0  0  2  0  0  0  0  0  0
  195.2490  168.1660  148.0200 C   0  0  0  0  0  2  0  0  0  0  0  0
  195.4890  169.3240  147.0750 C   0  0  0  0  0  3  0  0  0  0  0  0
  194.6390  169.4310  138.6820 C   0  0  0  0  0  3  0  0  0  0  0  0
  195.9310  170.8260  139.7690 O   0  0  0  0  0  0  0  0  0  0  0  0
  195.4720  169.9950  137.7850 N   0  0  0  0  0  0  0  0  0  0  0  0
  194.9440  169.9730  139.9120 C   0  0  0  0  0  0  0  0  0  0  0  0
  196.2470  170.8430  138.4970 C   0  0  0  0  0  3  0  0  0  0  0  0
  1  3  1  0  0  0  0
  2  4  1  6  0  0  0
  2  5  1  0  0  0  0
  2  1  1  0  0  0  0
  5 36  1  1  0  0  0
  5  3  1  0  0  0  0
  7  6  1  0  0  0  0
  8 26  1  6  0  0  0
  8  7  1  0  0  0  0
  9 10  1  0  0  0  0
 10 13  2  0  0  0  0
 10 12  1  0  0  0  0
 11  9  1  0  0  0  0
 11  8  1  0  0  0  0
 12  6  1  6  0  0  0
 12  2  1  0  0  0  0
 14  9  1  0  0  0  0
 15 17  2  0  0  0  0
 16 15  1  0  0  0  0
 16 14  1  0  0  0  0
 18 16  1  0  0  0  0
 19 15  1  0  0  0  0
 20 22  1  1  0  0  0
 20 23  1  0  0  0  0
 20 19  1  0  0  0  0
 21 23  1  0  0  0  0
 21 24  2  0  0  0  0
 25 21  2  0  0  0  0
 27 26  1  0  0  0  0
 27 28  1  0  0  0  0
 28 29  1  1  0  0  0
 30 31  1  0  0  0  0
 30 28  1  0  0  0  0
 31 32  1  0  0  0  0
 33 35  1  0  0  0  0
 33 31  1  0  0  0  0
 34 35  1  0  0  0  0
 37 36  1  0  0  0  0
 38 37  1  0  0  0  0
 40 39  1  1  0  0  0
 40 38  1  0  0  0  0
 41 43  1  6  0  0  0
 41 56  1  0  0  0  0
 42 40  1  0  0  0  0
 42 41  1  0  0  0  0
 44 69  1  6  0  0  0
 44 45  1  0  0  0  0
 44 42  1  0  0  0  0
 45 43  1  0  0  0  0
 46 55  1  1  0  0  0
 46 48  1  0  0  0  0
 49 46  1  0  0  0  0
 50 55  1  0  0  0  0
 50 61  1  0  0  0  0
 51 47  1  0  0  0  0
 51 49  2  0  0  0  0
 52 47  2  0  0  0  0
 53 58  1  0  0  0  0
 53 48  1  1  0  0  0
 54 49  1  0  0  0  0
 54 53  1  0  0  0  0
 56 47  1  6  0  0  0
 56 50  1  0  0  0  0
 57 51  1  0  0  0  0
 58 59  1  1  0  0  0
 60 58  1  0  0  0  0
 60 59  1  0  0  0  0
 61 62  1  0  0  0  0
 62 65  1  0  0  0  0
 63 65  1  0  0  0  0
 63 64  1  0  0  0  0
 65 64  1  0  0  0  0
 66 69  2  0  0  0  0
 67 69  1  0  0  0  0
 68 70  2  0  0  0  0
 68 66  1  0  0  0  0
 70 67  1  0  0  0  0
M  END
>  <MODEL>
7

>  <REMARK>
 VINA RESULT:      -4.5      3.417      7.564
  Name = 
  23 active torsions:
  status: ('A' for Active; 'I' for Inactive)
    1  A    between atoms: C_1  and  N_7
    2  A    between atoms: C_1  and  C_10
    3  A    between atoms: C_5  and  S_65
    4  A    between atoms: N_7  and  C_18
    5  A    between atoms: C_10  and  C_32
    6  A    between atoms: C_11  and  C_64
    7  A    between atoms: N_14  and  C_40
    8  A    between atoms: N_15  and  N_50
    9  A    between atoms: N_15  and  C_69
   10  A    between atoms: C_16  and  S_65
   11  A    between atoms: C_19  and  C_59
   12  A    between atoms: N_21  and  C_36
   13  A    between atoms: O_22  and  C_36
   14  A    between atoms: O_22  and  C_55
   15  A    between atoms: O_24  and  N_26
   16  A    between atoms: O_24  and  C_34
   17  A    between atoms: C_32  and  N_50
   18  A    between atoms: C_33  and  N_37
   19  A    between atoms: C_34  and  C_48
   20  A    between atoms: C_38  and  C_43
   21  A    between atoms: C_40  and  N_41
   22  A    between atoms: C_55  and  C_70
   23  A    between atoms: C_62  and  C_70
                            x       y       z     vdW  Elec       q    Type
                         _______ _______ _______ _____ _____    ______ ____

>  <TORSDO>
F 23

$$$$
=
 OpenBabel11062421463D

 70 77  0  0  1  0  0  0  0  0999 V2000
  187.9570  172.7460  139.3680 C   0  0  0  0  0  2  0  0  0  0  0  0
  188.6570  172.9980  140.6800 C   0  0  1  0  0  0  0  0  0  0  0  0
  188.9980  171.9230  138.8860 O   0  0  0  0  0  0  0  0  0  0  0  0
  187.8630  172.3520  141.8210 C   0  0  0  0  0  1  0  0  0  0  0  0
  189.7570  172.1660  140.0440 C   0  0  2  0  0  3  0  0  0  0  0  0
  187.8110  175.3400  140.8420 C   0  0  0  0  0  2  0  0  0  0  0  0
  188.1530  176.6900  140.8150 O   0  0  0  0  0  0  0  0  0  0  0  0
  187.8560  177.1530  142.0970 C   0  0  1  0  0  3  0  0  0  0  0  0
  189.3180  175.5800  143.2980 N   0  0  0  0  0  0  0  0  0  0  0  0
  189.7990  174.6820  142.2820 C   0  0  0  0  0  0  0  0  0  0  0  0
  189.0620  176.9910  143.0050 C   0  0  0  0  0  2  0  0  0  0  0  0
  189.0570  174.4670  140.9680 C   0  0  1  0  0  3  0  0  0  0  0  0
  190.8690  174.0530  142.4850 O   0  0  0  0  0  0  0  0  0  0  0  0
  189.2770  175.1220  144.6850 C   0  0  0  0  0  2  0  0  0  0  0  0
  190.9540  176.4850  145.9860 C   0  0  0  0  0  0  0  0  0  0  0  0
  190.5850  175.2670  145.3190 N   0  0  0  0  0  0  0  0  0  0  0  0
  190.2720  177.5290  145.8210 O   0  0  0  0  0  0  0  0  0  0  0  0
  191.4610  174.1060  145.3480 C   0  0  0  0  0  1  0  0  0  0  0  0
  192.3880  176.5480  147.0700 S   0  0  0  0  0  0  0  0  0  0  0  0
  193.5410  176.9500  145.7180 C   0  0  1  0  0  3  0  0  0  0  0  0
  194.9130  175.7970  145.5270 P   0  0  0  0  0  0  0  0  0  0  0  0
  193.0200  177.5630  144.4340 C   0  0  0  0  0  1  0  0  0  0  0  0
  194.7250  177.4350  146.1180 O   0  0  0  0  0  0  0  0  0  0  0  0
  195.3780  174.9600  146.6940 O   0  0  0  0  0  0  0  0  0  0  0  0
  195.9960  175.8780  144.2340 O   0  0  0  0  0  0  0  0  0  0  0  0
  187.4040  178.5450  142.0610 N   0  0  0  0  0  2  0  0  0  0  0  0
  186.3630  178.7680  143.0570 C   0  0  0  0  0  2  0  0  0  0  0  0
  185.3830  177.6110  143.0500 C   0  0  2  0  0  3  0  0  0  0  0  0
  184.0770  178.1000  142.9690 O   0  0  0  0  0  1  0  0  0  0  0  0
  185.5490  176.8060  144.3260 C   0  0  0  0  0  2  0  0  0  0  0  0
  186.2860  177.5870  145.3160 N   0  0  0  0  0  0  0  0  0  0  0  0
  187.0720  176.7390  146.0270 O   0  0  0  0  0  1  0  0  0  0  0  0
  185.3720  178.2150  146.1960 N   0  0  0  0  0  2  0  0  0  0  0  0
  186.0110  179.1970  148.3270 C   0  0  0  0  0  1  0  0  0  0  0  0
  185.6910  177.9120  147.5970 C   0  0  0  0  0  2  0  0  0  0  0  0
  190.1930  170.8780  140.7580 C   0  0  0  0  0  2  0  0  0  0  0  0
  191.4830  170.2570  140.2370 C   0  0  0  0  0  2  0  0  0  0  0  0
  192.2650  169.7490  141.2840 O   0  0  0  0  0  0  0  0  0  0  0  0
  192.4400  170.3630  143.5510 O   0  0  0  0  0  1  0  0  0  0  0  0
  192.5620  170.7800  142.2180 C   0  0  1  0  0  3  0  0  0  0  0  0
  193.8780  172.0950  140.6420 C   0  0  1  0  0  3  0  0  0  0  0  0
  193.8300  171.5020  141.9780 N   0  0  0  0  0  0  0  0  0  0  0  0
  194.0380  173.4930  140.7180 O   0  0  0  0  0  0  0  0  0  0  0  0
  193.9470  172.6100  142.8990 C   0  0  2  0  0  3  0  0  0  0  0  0
  194.3410  173.7920  142.0520 C   0  0  0  0  0  2  0  0  0  0  0  0
  195.7680  173.8450  138.2810 C   0  0  1  0  0  3  0  0  0  0  0  0
  194.5240  171.0780  138.3610 C   0  0  0  0  0  0  0  0  0  0  0  0
  196.4280  174.9940  137.5240 C   0  0  0  0  0  2  0  0  0  0  0  0
  194.9130  173.2570  137.2380 C   0  0  0  0  0  0  0  0  0  0  0  0
  196.2760  172.1120  139.9320 N   0  0  0  0  0  0  0  0  0  0  0  0
  194.3560  172.0390  137.2440 C   0  0  0  0  0  0  0  0  0  0  0  0
  194.2310  169.8710  138.1600 O   0  0  0  0  0  0  0  0  0  0  0  0
  195.5980  175.2880  136.3440 N   0  0  2  0  0  0  0  0  0  0  0  0
  194.8490  174.1240  136.1280 N   0  0  0  0  0  2  0  0  0  0  0  0
  196.7840  172.8220  138.7530 C   0  0  0  0  0  2  0  0  0  0  0  0
  194.9590  171.4630  139.7610 C   0  0  1  0  0  3  0  0  0  0  0  0
  193.6320  171.6300  136.1250 O   0  0  0  0  0  1  0  0  0  0  0  0
  196.4880  175.4530  135.2070 C   0  0  2  0  0  3  0  0  0  0  0  0
  197.7850  175.9910  135.6680 C   0  0  0  0  0  2  0  0  0  0  0  0
  196.8150  176.8150  135.0640 O   0  0  0  0  0  0  0  0  0  0  0  0
  197.1700  171.1380  140.2340 O   0  0  0  0  0  0  0  0  0  0  0  0
  196.7380  170.6220  141.4630 C   0  0  0  0  0  2  0  0  0  0  0  0
  195.9460  168.3050  141.7720 C   0  0  0  0  0  2  0  0  0  0  0  0
  196.6180  168.3890  140.4200 C   0  0  0  0  0  2  0  0  0  0  0  0
  197.1740  169.1740  141.5890 C   0  0  0  0  0  3  0  0  0  0  0  0
  194.7650  171.6840  145.1430 C   0  0  0  0  0  3  0  0  0  0  0  0
  196.2570  172.6330  143.8500 O   0  0  0  0  0  0  0  0  0  0  0  0
  195.9500  171.6300  145.7830 N   0  0  0  0  0  0  0  0  0  0  0  0
  194.9880  172.3110  143.9360 C   0  0  0  0  0  0  0  0  0  0  0  0
  196.8360  172.2250  144.9530 C   0  0  0  0  0  3  0  0  0  0  0  0
  1  2  1  0  0  0  0
  2 12  1  0  0  0  0
  2  4  1  1  0  0  0
  3  1  1  0  0  0  0
  3  5  1  0  0  0  0
  5  2  1  0  0  0  0
  5 36  1  1  0  0  0
  7  6  1  0  0  0  0
  7  8  1  0  0  0  0
  8 26  1  6  0  0  0
  8 11  1  0  0  0  0
  9 14  1  0  0  0  0
 10 13  2  0  0  0  0
 10  9  1  0  0  0  0
 11  9  1  0  0  0  0
 12  6  1  1  0  0  0
 12 10  1  0  0  0  0
 14 16  1  0  0  0  0
 15 19  1  0  0  0  0
 16 18  1  0  0  0  0
 16 15  1  0  0  0  0
 17 15  2  0  0  0  0
 20 22  1  6  0  0  0
 20 23  1  0  0  0  0
 20 19  1  0  0  0  0
 21 23  1  0  0  0  0
 21 24  2  0  0  0  0
 25 21  2  0  0  0  0
 26 27  1  0  0  0  0
 28 29  1  1  0  0  0
 28 27  1  0  0  0  0
 28 30  1  0  0  0  0
 30 31  1  0  0  0  0
 31 32  1  0  0  0  0
 31 33  1  0  0  0  0
 33 35  1  0  0  0  0
 35 34  1  0  0  0  0
 37 36  1  0  0  0  0
 37 38  1  0  0  0  0
 38 40  1  0  0  0  0
 40 39  1  1  0  0  0
 41 43  1  1  0  0  0
 41 42  1  0  0  0  0
 42 40  1  0  0  0  0
 42 44  1  0  0  0  0
 43 45  1  0  0  0  0
 44 69  1  1  0  0  0
 45 44  1  0  0  0  0
 46 48  1  6  0  0  0
 46 55  1  0  0  0  0
 49 51  2  0  0  0  0
 49 46  1  0  0  0  0
 50 61  1  0  0  0  0
 51 47  1  0  0  0  0
 52 47  2  0  0  0  0
 53 48  1  1  0  0  0
 54 53  1  0  0  0  0
 54 49  1  0  0  0  0
 55 50  1  0  0  0  0
 56 47  1  6  0  0  0
 56 50  1  0  0  0  0
 56 41  1  0  0  0  0
 57 51  1  0  0  0  0
 58 59  1  1  0  0  0
 58 53  1  0  0  0  0
 60 58  1  0  0  0  0
 60 59  1  0  0  0  0
 61 62  1  0  0  0  0
 62 65  1  0  0  0  0
 64 65  1  0  0  0  0
 64 63  1  0  0  0  0
 65 63  1  0  0  0  0
 66 68  1  0  0  0  0
 67 69  1  0  0  0  0
 67 70  1  0  0  0  0
 69 66  2  0  0  0  0
 70 68  2  0  0  0  0
M  END
>  <MODEL>
8

>  <REMARK>
 VINA RESULT:      -4.0      2.518      6.583
  Name = 
  23 active torsions:
  status: ('A' for Active; 'I' for Inactive)
    1  A    between atoms: C_1  and  N_7
    2  A    between atoms: C_1  and  C_10
    3  A    between atoms: C_5  and  S_65
    4  A    between atoms: N_7  and  C_18
    5  A    between atoms: C_10  and  C_32
    6  A    between atoms: C_11  and  C_64
    7  A    between atoms: N_14  and  C_40
    8  A    between atoms: N_15  and  N_50
    9  A    between atoms: N_15  and  C_69
   10  A    between atoms: C_16  and  S_65
   11  A    between atoms: C_19  and  C_59
   12  A    between atoms: N_21  and  C_36
   13  A    between atoms: O_22  and  C_36
   14  A    between atoms: O_22  and  C_55
   15  A    between atoms: O_24  and  N_26
   16  A    between atoms: O_24  and  C_34
   17  A    between atoms: C_32  and  N_50
   18  A    between atoms: C_33  and  N_37
   19  A    between atoms: C_34  and  C_48
   20  A    between atoms: C_38  and  C_43
   21  A    between atoms: C_40  and  N_41
   22  A    between atoms: C_55  and  C_70
   23  A    between atoms: C_62  and  C_70
                            x       y       z     vdW  Elec       q    Type
                         _______ _______ _______ _____ _____    ______ ____

>  <TORSDO>
F 23

$$$$
=
 OpenBabel11062421463D

 70 77  0  0  1  0  0  0  0  0999 V2000
  189.1110  174.0330  144.2850 C   0  0  0  0  0  2  0  0  0  0  0  0
  189.5250  175.4570  144.0080 C   0  0  1  0  0  0  0  0  0  0  0  0
  190.4120  173.6530  144.6790 O   0  0  0  0  0  0  0  0  0  0  0  0
  188.8450  176.3960  145.0110 C   0  0  0  0  0  1  0  0  0  0  0  0
  190.9040  174.9350  144.3740 C   0  0  2  0  0  3  0  0  0  0  0  0
  188.6010  174.8830  141.7620 C   0  0  0  0  0  2  0  0  0  0  0  0
  188.6870  175.1140  140.3910 O   0  0  0  0  0  0  0  0  0  0  0  0
  187.4660  175.7000  140.0570 C   0  0  1  0  0  3  0  0  0  0  0  0
  187.6530  177.6100  141.5960 N   0  0  0  0  0  0  0  0  0  0  0  0
  188.8350  177.3400  142.3700 C   0  0  0  0  0  0  0  0  0  0  0  0
  187.5550  177.2100  140.1920 C   0  0  0  0  0  2  0  0  0  0  0  0
  189.3940  175.9320  142.5390 C   0  0  1  0  0  3  0  0  0  0  0  0
  189.4300  178.3000  142.9240 O   0  0  0  0  0  0  0  0  0  0  0  0
  186.6170  178.4710  142.1650 C   0  0  0  0  0  2  0  0  0  0  0  0
  185.6090  178.7000  144.4660 C   0  0  0  0  0  0  0  0  0  0  0  0
  186.0590  177.8780  143.3770 N   0  0  0  0  0  0  0  0  0  0  0  0
  185.9180  179.9190  144.5080 O   0  0  0  0  0  0  0  0  0  0  0  0
  185.8710  176.4350  143.4060 C   0  0  0  0  0  1  0  0  0  0  0  0
  184.5960  178.0160  145.7850 S   0  0  0  0  0  0  0  0  0  0  0  0
  186.0110  177.7770  146.9090 C   0  0  1  0  0  3  0  0  0  0  0  0
  186.3550  179.1710  147.9970 P   0  0  0  0  0  0  0  0  0  0  0  0
  186.2920  176.4080  147.4930 C   0  0  0  0  0  1  0  0  0  0  0  0
  187.1100  178.4720  146.5810 O   0  0  0  0  0  0  0  0  0  0  0  0
  185.9170  180.5660  147.6170 O   0  0  0  0  0  0  0  0  0  0  0  0
  187.5020  179.0990  149.2340 O   0  0  0  0  0  0  0  0  0  0  0  0
  187.0510  175.3140  138.7070 N   0  0  0  0  0  2  0  0  0  0  0  0
  187.0330  176.4770  137.8270 C   0  0  0  0  0  2  0  0  0  0  0  0
  187.4290  176.0690  136.4220 C   0  0  2  0  0  3  0  0  0  0  0  0
  186.3080  176.1040  135.5880 O   0  0  0  0  0  1  0  0  0  0  0  0
  188.0020  174.6640  136.4500 C   0  0  0  0  0  2  0  0  0  0  0  0
  189.2880  174.6370  135.7580 N   0  0  0  0  0  0  0  0  0  0  0  0
  189.2800  175.6070  134.8080 O   0  0  0  0  0  1  0  0  0  0  0  0
  189.4580  173.3790  135.1300 N   0  0  0  0  0  2  0  0  0  0  0  0
  191.6220  173.8720  136.1240 C   0  0  0  0  0  1  0  0  0  0  0  0
  190.8290  172.8830  135.3000 C   0  0  0  0  0  2  0  0  0  0  0  0
  191.6370  175.5930  145.5510 C   0  0  0  0  0  2  0  0  0  0  0  0
  193.1030  175.2040  145.6950 C   0  0  0  0  0  2  0  0  0  0  0  0
  193.3090  173.8570  145.3630 O   0  0  0  0  0  0  0  0  0  0  0  0
  195.4070  172.7870  145.3710 O   0  0  0  0  0  1  0  0  0  0  0  0
  194.5670  173.6990  144.7170 C   0  0  1  0  0  3  0  0  0  0  0  0
  193.3360  172.6390  142.8990 C   0  0  1  0  0  3  0  0  0  0  0  0
  194.5000  173.4460  143.2610 N   0  0  0  0  0  0  0  0  0  0  0  0
  192.5050  173.3310  141.9960 O   0  0  0  0  0  0  0  0  0  0  0  0
  194.3410  174.6970  142.5520 C   0  0  2  0  0  3  0  0  0  0  0  0
  193.2190  174.4590  141.5750 C   0  0  0  0  0  2  0  0  0  0  0  0
  195.3460  172.1490  140.0850 C   0  0  1  0  0  3  0  0  0  0  0  0
  192.8870  170.7590  141.1900 C   0  0  0  0  0  0  0  0  0  0  0  0
  196.3430  172.4100  138.9590 C   0  0  0  0  0  2  0  0  0  0  0  0
  194.1230  171.8380  139.3280 C   0  0  0  0  0  0  0  0  0  0  0  0
  195.1920  171.0810  142.2800 N   0  0  0  0  0  0  0  0  0  0  0  0
  193.0260  171.2220  139.7890 C   0  0  0  0  0  0  0  0  0  0  0  0
  191.9720  169.9360  141.4590 O   0  0  0  0  0  0  0  0  0  0  0  0
  195.5740  172.7140  137.7400 N   0  0  2  0  0  0  0  0  0  0  0  0
  194.3020  172.1730  137.9710 N   0  0  0  0  0  2  0  0  0  0  0  0
  195.7490  170.9550  140.9290 C   0  0  0  0  0  2  0  0  0  0  0  0
  193.7270  171.2660  142.3450 C   0  0  1  0  0  3  0  0  0  0  0  0
  191.9900  170.9500  138.8970 O   0  0  0  0  0  1  0  0  0  0  0  0
  196.1710  171.9720  136.6430 C   0  0  2  0  0  3  0  0  0  0  0  0
  197.3410  172.7130  136.1240 C   0  0  0  0  0  2  0  0  0  0  0  0
  196.0950  172.7390  135.4650 O   0  0  0  0  0  0  0  0  0  0  0  0
  195.4850  169.9370  142.9470 O   0  0  0  0  0  0  0  0  0  0  0  0
  196.2350  170.3490  144.0560 C   0  0  0  0  0  2  0  0  0  0  0  0
  195.4360  169.5610  146.2540 C   0  0  0  0  0  2  0  0  0  0  0  0
  194.9450  168.5880  145.2060 C   0  0  0  0  0  2  0  0  0  0  0  0
  196.3140  169.2200  145.0660 C   0  0  0  0  0  3  0  0  0  0  0  0
  195.7760  176.0870  140.9490 C   0  0  0  0  0  3  0  0  0  0  0  0
  196.7500  174.4040  141.9580 O   0  0  0  0  0  0  0  0  0  0  0  0
  197.0560  176.0480  140.5290 N   0  0  0  0  0  0  0  0  0  0  0  0
  195.6140  175.0520  141.8450 C   0  0  0  0  0  0  0  0  0  0  0  0
  197.6150  174.9990  141.1730 C   0  0  0  0  0  3  0  0  0  0  0  0
  1  3  1  0  0  0  0
  2  1  1  0  0  0  0
  2  5  1  0  0  0  0
  2  4  1  1  0  0  0
  5  3  1  0  0  0  0
  5 36  1  1  0  0  0
  7  6  1  0  0  0  0
  8 26  1  6  0  0  0
  8 11  1  0  0  0  0
  8  7  1  0  0  0  0
  9 14  1  0  0  0  0
  9 10  1  0  0  0  0
 10 12  1  0  0  0  0
 10 13  2  0  0  0  0
 11  9  1  0  0  0  0
 12  6  1  6  0  0  0
 12  2  1  0  0  0  0
 14 16  1  0  0  0  0
 15 17  2  0  0  0  0
 15 19  1  0  0  0  0
 16 18  1  0  0  0  0
 16 15  1  0  0  0  0
 19 20  1  0  0  0  0
 20 22  1  6  0  0  0
 21 25  2  0  0  0  0
 23 20  1  0  0  0  0
 23 21  1  0  0  0  0
 24 21  2  0  0  0  0
 27 26  1  0  0  0  0
 28 29  1  6  0  0  0
 28 30  1  0  0  0  0
 28 27  1  0  0  0  0
 31 30  1  0  0  0  0
 32 31  1  0  0  0  0
 33 35  1  0  0  0  0
 33 31  1  0  0  0  0
 35 34  1  0  0  0  0
 36 37  1  0  0  0  0
 38 37  1  0  0  0  0
 40 38  1  0  0  0  0
 40 39  1  1  0  0  0
 41 43  1  6  0  0  0
 41 42  1  0  0  0  0
 42 40  1  0  0  0  0
 44 69  1  6  0  0  0
 44 42  1  0  0  0  0
 45 43  1  0  0  0  0
 45 44  1  0  0  0  0
 46 48  1  6  0  0  0
 46 55  1  0  0  0  0
 47 52  2  0  0  0  0
 49 51  2  0  0  0  0
 49 46  1  0  0  0  0
 50 56  1  0  0  0  0
 50 61  1  0  0  0  0
 51 47  1  0  0  0  0
 53 54  1  0  0  0  0
 53 48  1  1  0  0  0
 54 49  1  0  0  0  0
 55 50  1  0  0  0  0
 56 47  1  6  0  0  0
 56 41  1  0  0  0  0
 57 51  1  0  0  0  0
 58 59  1  1  0  0  0
 58 53  1  0  0  0  0
 60 59  1  0  0  0  0
 60 58  1  0  0  0  0
 61 62  1  0  0  0  0
 62 65  1  0  0  0  0
 64 63  1  0  0  0  0
 65 64  1  0  0  0  0
 65 63  1  0  0  0  0
 66 69  2  0  0  0  0
 68 66  1  0  0  0  0
 68 70  2  0  0  0  0
 69 67  1  0  0  0  0
 70 67  1  0  0  0  0
M  END
>  <MODEL>
9

>  <REMARK>
 VINA RESULT:      -3.7      1.935      2.434
  Name = 
  23 active torsions:
  status: ('A' for Active; 'I' for Inactive)
    1  A    between atoms: C_1  and  N_7
    2  A    between atoms: C_1  and  C_10
    3  A    between atoms: C_5  and  S_65
    4  A    between atoms: N_7  and  C_18
    5  A    between atoms: C_10  and  C_32
    6  A    between atoms: C_11  and  C_64
    7  A    between atoms: N_14  and  C_40
    8  A    between atoms: N_15  and  N_50
    9  A    between atoms: N_15  and  C_69
   10  A    between atoms: C_16  and  S_65
   11  A    between atoms: C_19  and  C_59
   12  A    between atoms: N_21  and  C_36
   13  A    between atoms: O_22  and  C_36
   14  A    between atoms: O_22  and  C_55
   15  A    between atoms: O_24  and  N_26
   16  A    between atoms: O_24  and  C_34
   17  A    between atoms: C_32  and  N_50
   18  A    between atoms: C_33  and  N_37
   19  A    between atoms: C_34  and  C_48
   20  A    between atoms: C_38  and  C_43
   21  A    between atoms: C_40  and  N_41
   22  A    between atoms: C_55  and  C_70
   23  A    between atoms: C_62  and  C_70
                            x       y       z     vdW  Elec       q    Type
                         _______ _______ _______ _____ _____    ______ ____

>  <TORSDO>
F 23

$$$$
