=
 OpenBabel11062422093D

 27 29  0  0  0  0  0  0  0  0999 V2000
  191.2000  176.3620  146.8280 C   0  0  0  0  0  3  0  0  0  0  0  0
  187.9630  176.8450  142.9400 N   0  0  0  0  0  0  0  0  0  0  0  0
  187.8880  175.5680  140.9810 O   0  0  0  0  0  0  0  0  0  0  0  0
  187.8290  178.1680  143.5590 C   0  0  0  0  0  2  0  0  0  0  0  0
  185.8070  178.1370  147.3240 N   0  0  0  0  0  0  0  0  0  0  0  0
  185.1550  179.3800  143.8580 C   0  0  0  0  0  1  0  0  0  0  0  0
  187.0930  178.1030  144.8690 C   0  0  0  0  0  0  0  0  0  0  0  0
  187.0200  177.5320  147.2210 C   0  0  0  0  0  3  0  0  0  0  0  0
  187.7530  176.6960  141.5270 C   0  0  0  0  0  0  0  0  0  0  0  0
  185.8340  178.7140  145.0060 C   0  0  0  0  0  0  0  0  0  0  0  0
  189.9510  176.9800  146.9110 C   0  0  0  0  0  3  0  0  0  0  0  0
  189.3150  175.9690  144.7990 C   0  0  0  0  0  0  0  0  0  0  0  0
  185.2070  178.7170  146.2520 C   0  0  0  0  0  3  0  0  0  0  0  0
  190.5680  175.3550  144.7280 C   0  0  0  0  0  3  0  0  0  0  0  0
  188.3050  175.6620  143.7350 C   0  0  0  0  0  2  0  0  0  0  0  0
  188.9990  176.7980  145.8980 C   0  0  0  0  0  0  0  0  0  0  0  0
  191.5220  175.5410  145.7390 C   0  0  0  0  0  0  0  0  0  0  0  0
  187.6910  177.4890  145.9920 C   0  0  0  0  0  0  0  0  0  0  0  0
  192.9540  173.6680  145.8530 O   0  0  0  0  0  0  0  0  0  0  0  0
  194.1330  177.0830  145.3850 C   0  0  0  0  0  1  0  0  0  0  0  0
  192.8550  174.9040  145.6160 C   0  0  0  0  0  0  0  0  0  0  0  0
  194.0330  175.6390  145.2290 N   0  0  0  0  0  0  0  0  0  0  0  0
  195.2110  174.9420  144.7320 C   0  0  0  0  0  2  0  0  0  0  0  0
  196.1000  175.8550  144.1610 O   0  0  0  0  0  1  0  0  0  0  0  0
  187.3430  177.8580  140.6800 C   0  0  0  0  0  2  0  0  0  0  0  0
  185.8860  177.8780  140.5300 C   0  0  0  0  0  0  0  0  0  0  0  0
  184.7350  177.8950  140.4120 N   0  0  0  0  0  0  0  0  0  0  0  0
  1 11  1  0  0  0  0
  2  4  1  0  0  0  0
  2 15  1  0  0  0  0
  3  9  2  0  0  0  0
  4  7  1  0  0  0  0
  6 10  1  0  0  0  0
  7 10  2  0  0  0  0
  7 18  1  0  0  0  0
  8  5  1  0  0  0  0
  9  2  1  0  0  0  0
 10 13  1  0  0  0  0
 12 16  1  0  0  0  0
 13  5  2  0  0  0  0
 14 12  2  0  0  0  0
 14 17  1  0  0  0  0
 15 12  1  0  0  0  0
 16 18  1  0  0  0  0
 16 11  2  0  0  0  0
 17  1  2  0  0  0  0
 18  8  2  0  0  0  0
 21 17  1  0  0  0  0
 21 19  2  0  0  0  0
 22 20  1  0  0  0  0
 22 21  1  0  0  0  0
 23 22  1  0  0  0  0
 24 23  1  0  0  0  0
 25  9  1  0  0  0  0
 26 25  1  0  0  0  0
 27 26  3  0  0  0  0
M  END
>  <MODEL>
1

>  <REMARK>
 VINA RESULT:      -7.4      0.000      0.000
  Name = 
  4 active torsions:
  status: ('A' for Active; 'I' for Inactive)
    1  A    between atoms: C_4  and  C_23
    2  A    between atoms: C_6  and  N_21
    3  A    between atoms: C_13  and  C_23
    4  A    between atoms: C_17  and  C_26
                            x       y       z     vdW  Elec       q    Type
                         _______ _______ _______ _____ _____    ______ ____

>  <TORSDO>
F 4

$$$$
=
 OpenBabel11062422093D

 27 29  0  0  0  0  0  0  0  0999 V2000
  189.3740  174.0760  140.5460 C   0  0  0  0  0  3  0  0  0  0  0  0
  187.7920  176.7990  144.5350 N   0  0  0  0  0  0  0  0  0  0  0  0
  189.0280  177.4060  146.4270 O   0  0  0  0  0  0  0  0  0  0  0  0
  186.5040  176.3620  143.9890 C   0  0  0  0  0  2  0  0  0  0  0  0
  185.4620  178.2120  140.2800 N   0  0  0  0  0  0  0  0  0  0  0  0
  184.2610  178.2730  143.8210 C   0  0  0  0  0  1  0  0  0  0  0  0
  186.1760  177.0580  142.6960 C   0  0  0  0  0  0  0  0  0  0  0  0
  186.5270  177.3690  140.3210 C   0  0  0  0  0  3  0  0  0  0  0  0
  187.9200  177.0520  145.9430 C   0  0  0  0  0  0  0  0  0  0  0  0
  185.0840  177.9400  142.6230 C   0  0  0  0  0  0  0  0  0  0  0  0
  188.2820  174.9470  140.5280 C   0  0  0  0  0  3  0  0  0  0  0  0
  189.0500  175.9480  142.6000 C   0  0  0  0  0  0  0  0  0  0  0  0
  184.7450  178.5090  141.3950 C   0  0  0  0  0  3  0  0  0  0  0  0
  190.1380  175.0720  142.6080 C   0  0  0  0  0  3  0  0  0  0  0  0
  188.9620  176.9920  143.6720 C   0  0  0  0  0  2  0  0  0  0  0  0
  188.1030  175.8850  141.5540 C   0  0  0  0  0  0  0  0  0  0  0  0
  190.3150  174.1310  141.5830 C   0  0  0  0  0  0  0  0  0  0  0  0
  186.9200  176.7770  141.5280 C   0  0  0  0  0  0  0  0  0  0  0  0
  192.5310  173.5160  141.0540 O   0  0  0  0  0  0  0  0  0  0  0  0
  190.1400  171.2710  142.6370 C   0  0  0  0  0  1  0  0  0  0  0  0
  191.4610  173.1920  141.6390 C   0  0  0  0  0  0  0  0  0  0  0  0
  191.4010  171.9350  142.3430 N   0  0  0  0  0  0  0  0  0  0  0  0
  192.6220  171.2380  142.7200 C   0  0  0  0  0  2  0  0  0  0  0  0
  192.5260  170.7860  144.0370 O   0  0  0  0  0  1  0  0  0  0  0  0
  186.7440  176.9310  146.8590 C   0  0  0  0  0  2  0  0  0  0  0  0
  186.2200  178.2610  147.1790 C   0  0  0  0  0  0  0  0  0  0  0  0
  185.8060  179.3110  147.4320 N   0  0  0  0  0  0  0  0  0  0  0  0
  1 17  1  0  0  0  0
  2  9  1  0  0  0  0
  4  2  1  0  0  0  0
  5  8  2  0  0  0  0
  5 13  1  0  0  0  0
  7  4  1  0  0  0  0
  8 18  1  0  0  0  0
  9  3  2  0  0  0  0
  9 25  1  0  0  0  0
 10  7  1  0  0  0  0
 10  6  1  0  0  0  0
 11  1  2  0  0  0  0
 11 16  1  0  0  0  0
 12 14  1  0  0  0  0
 12 15  1  0  0  0  0
 13 10  2  0  0  0  0
 15  2  1  0  0  0  0
 16 12  2  0  0  0  0
 17 21  1  0  0  0  0
 17 14  2  0  0  0  0
 18 16  1  0  0  0  0
 18  7  2  0  0  0  0
 19 21  2  0  0  0  0
 21 22  1  0  0  0  0
 22 20  1  0  0  0  0
 22 23  1  0  0  0  0
 23 24  1  0  0  0  0
 25 26  1  0  0  0  0
 26 27  3  0  0  0  0
M  END
>  <MODEL>
2

>  <REMARK>
 VINA RESULT:      -6.8      2.881      5.084
  Name = 
  4 active torsions:
  status: ('A' for Active; 'I' for Inactive)
    1  A    between atoms: C_4  and  C_23
    2  A    between atoms: C_6  and  N_21
    3  A    between atoms: C_13  and  C_23
    4  A    between atoms: C_17  and  C_26
                            x       y       z     vdW  Elec       q    Type
                         _______ _______ _______ _____ _____    ______ ____

>  <TORSDO>
F 4

$$$$
=
 OpenBabel11062422093D

 27 29  0  0  0  0  0  0  0  0999 V2000
  188.1340  177.2450  146.7540 C   0  0  0  0  0  3  0  0  0  0  0  0
  190.3300  173.7960  143.7370 N   0  0  0  0  0  0  0  0  0  0  0  0
  189.6160  173.0900  141.6230 O   0  0  0  0  0  0  0  0  0  0  0  0
  190.9220  173.4300  145.0270 C   0  0  0  0  0  2  0  0  0  0  0  0
  193.7440  176.2690  146.5230 N   0  0  0  0  0  0  0  0  0  0  0  0
  193.7950  172.7760  145.1880 C   0  0  0  0  0  1  0  0  0  0  0  0
  191.9220  174.4510  145.4970 C   0  0  0  0  0  0  0  0  0  0  0  0
  192.4360  176.6250  146.4290 C   0  0  0  0  0  3  0  0  0  0  0  0
  190.1440  172.7910  142.7280 C   0  0  0  0  0  0  0  0  0  0  0  0
  193.2830  174.1150  145.6000 C   0  0  0  0  0  0  0  0  0  0  0  0
  189.4740  176.8630  146.8340 C   0  0  0  0  0  3  0  0  0  0  0  0
  189.3110  175.8460  144.6380 C   0  0  0  0  0  0  0  0  0  0  0  0
  194.1800  175.0480  146.1190 C   0  0  0  0  0  3  0  0  0  0  0  0
  187.9710  176.2340  144.5690 C   0  0  0  0  0  3  0  0  0  0  0  0
  189.9260  175.1750  143.4460 C   0  0  0  0  0  2  0  0  0  0  0  0
  190.0760  176.1550  145.7840 C   0  0  0  0  0  0  0  0  0  0  0  0
  187.3690  176.9390  145.6210 C   0  0  0  0  0  0  0  0  0  0  0  0
  191.4910  175.7330  145.9050 C   0  0  0  0  0  0  0  0  0  0  0  0
  185.1010  176.6300  146.1980 O   0  0  0  0  0  0  0  0  0  0  0  0
  186.2270  178.9270  143.6050 C   0  0  0  0  0  1  0  0  0  0  0  0
  185.9350  177.3050  145.5320 C   0  0  0  0  0  0  0  0  0  0  0  0
  185.4630  178.4040  144.7270 N   0  0  0  0  0  0  0  0  0  0  0  0
  184.1490  178.9860  144.9650 C   0  0  0  0  0  2  0  0  0  0  0  0
  183.4080  178.9910  143.7820 O   0  0  0  0  0  1  0  0  0  0  0  0
  190.5950  171.3820  142.9490 C   0  0  0  0  0  2  0  0  0  0  0  0
  190.7080  170.6860  141.6650 C   0  0  0  0  0  0  0  0  0  0  0  0
  190.7970  170.1360  140.6510 N   0  0  0  0  0  0  0  0  0  0  0  0
  1 11  1  0  0  0  0
  2  4  1  0  0  0  0
  3  9  2  0  0  0  0
  4  7  1  0  0  0  0
  6 10  1  0  0  0  0
  7 10  2  0  0  0  0
  7 18  1  0  0  0  0
  8  5  1  0  0  0  0
  9 25  1  0  0  0  0
  9  2  1  0  0  0  0
 10 13  1  0  0  0  0
 12 16  1  0  0  0  0
 13  5  2  0  0  0  0
 14 12  2  0  0  0  0
 14 17  1  0  0  0  0
 15  2  1  0  0  0  0
 15 12  1  0  0  0  0
 16 18  1  0  0  0  0
 16 11  2  0  0  0  0
 17  1  2  0  0  0  0
 18  8  2  0  0  0  0
 20 22  1  0  0  0  0
 21 17  1  0  0  0  0
 21 19  2  0  0  0  0
 22 23  1  0  0  0  0
 22 21  1  0  0  0  0
 24 23  1  0  0  0  0
 26 25  1  0  0  0  0
 27 26  3  0  0  0  0
M  END
>  <MODEL>
3

>  <REMARK>
 VINA RESULT:      -6.6      3.085      7.155
  Name = 
  4 active torsions:
  status: ('A' for Active; 'I' for Inactive)
    1  A    between atoms: C_4  and  C_23
    2  A    between atoms: C_6  and  N_21
    3  A    between atoms: C_13  and  C_23
    4  A    between atoms: C_17  and  C_26
                            x       y       z     vdW  Elec       q    Type
                         _______ _______ _______ _____ _____    ______ ____

>  <TORSDO>
F 4

$$$$
=
 OpenBabel11062422093D

 27 29  0  0  0  0  0  0  0  0999 V2000
  187.3600  175.8420  142.5780 C   0  0  0  0  0  3  0  0  0  0  0  0
  191.4420  174.6330  145.3540 N   0  0  0  0  0  0  0  0  0  0  0  0
  191.9190  175.2910  147.5480 O   0  0  0  0  0  0  0  0  0  0  0  0
  191.9530  174.3640  144.0070 C   0  0  0  0  0  2  0  0  0  0  0  0
  190.2210  170.9320  142.1370 N   0  0  0  0  0  0  0  0  0  0  0  0
  193.5540  171.9360  143.5060 C   0  0  0  0  0  1  0  0  0  0  0  0
  191.3270  173.1360  143.4040 C   0  0  0  0  0  0  0  0  0  0  0  0
  189.4380  172.0150  142.3860 C   0  0  0  0  0  3  0  0  0  0  0  0
  192.3500  175.0350  146.3920 C   0  0  0  0  0  0  0  0  0  0  0  0
  192.1100  171.9980  143.1400 C   0  0  0  0  0  0  0  0  0  0  0  0
  188.1800  174.7360  142.3410 C   0  0  0  0  0  3  0  0  0  0  0  0
  189.1420  174.9790  144.5550 C   0  0  0  0  0  0  0  0  0  0  0  0
  191.5290  170.9010  142.5020 C   0  0  0  0  0  3  0  0  0  0  0  0
  188.3170  176.0830  144.7810 C   0  0  0  0  0  3  0  0  0  0  0  0
  190.0180  174.4970  145.6720 C   0  0  0  0  0  2  0  0  0  0  0  0
  189.0820  174.2970  143.3200 C   0  0  0  0  0  0  0  0  0  0  0  0
  187.4170  176.5250  143.8010 C   0  0  0  0  0  0  0  0  0  0  0  0
  189.9640  173.1410  143.0330 C   0  0  0  0  0  0  0  0  0  0  0  0
  186.8060  178.7670  143.3870 O   0  0  0  0  0  0  0  0  0  0  0  0
  185.4770  176.7910  146.1430 C   0  0  0  0  0  1  0  0  0  0  0  0
  186.5800  177.7220  144.0580 C   0  0  0  0  0  0  0  0  0  0  0  0
  185.5190  177.7310  145.0340 N   0  0  0  0  0  0  0  0  0  0  0  0
  184.4780  178.7480  144.9850 C   0  0  0  0  0  2  0  0  0  0  0  0
  183.6910  178.6810  146.1370 O   0  0  0  0  0  1  0  0  0  0  0  0
  193.8210  175.1290  146.1380 C   0  0  0  0  0  2  0  0  0  0  0  0
  194.2400  176.5330  146.1380 C   0  0  0  0  0  0  0  0  0  0  0  0
  194.5700  177.6410  146.1380 N   0  0  0  0  0  0  0  0  0  0  0  0
  1 17  1  0  0  0  0
  2 15  1  0  0  0  0
  2  9  1  0  0  0  0
  4  2  1  0  0  0  0
  5  8  2  0  0  0  0
  5 13  1  0  0  0  0
  7  4  1  0  0  0  0
  8 18  1  0  0  0  0
  9  3  2  0  0  0  0
 10  7  1  0  0  0  0
 10  6  1  0  0  0  0
 11  1  2  0  0  0  0
 11 16  1  0  0  0  0
 12 14  1  0  0  0  0
 12 15  1  0  0  0  0
 13 10  2  0  0  0  0
 16 12  2  0  0  0  0
 17 21  1  0  0  0  0
 17 14  2  0  0  0  0
 18 16  1  0  0  0  0
 18  7  2  0  0  0  0
 19 21  2  0  0  0  0
 21 22  1  0  0  0  0
 22 20  1  0  0  0  0
 23 22  1  0  0  0  0
 23 24  1  0  0  0  0
 25 26  1  0  0  0  0
 25  9  1  0  0  0  0
 26 27  3  0  0  0  0
M  END
>  <MODEL>
4

>  <REMARK>
 VINA RESULT:      -6.6      3.035      7.975
  Name = 
  4 active torsions:
  status: ('A' for Active; 'I' for Inactive)
    1  A    between atoms: C_4  and  C_23
    2  A    between atoms: C_6  and  N_21
    3  A    between atoms: C_13  and  C_23
    4  A    between atoms: C_17  and  C_26
                            x       y       z     vdW  Elec       q    Type
                         _______ _______ _______ _____ _____    ______ ____

>  <TORSDO>
F 4

$$$$
=
 OpenBabel11062422093D

 27 29  0  0  0  0  0  0  0  0999 V2000
  190.3480  174.1070  141.9250 C   0  0  0  0  0  3  0  0  0  0  0  0
  187.1400  176.8480  144.7570 N   0  0  0  0  0  0  0  0  0  0  0  0
  187.5060  177.7020  146.9050 O   0  0  0  0  0  0  0  0  0  0  0  0
  186.1980  176.2330  143.8170 C   0  0  0  0  0  2  0  0  0  0  0  0
  186.4860  177.7340  139.8260 N   0  0  0  0  0  0  0  0  0  0  0  0
  184.0300  177.8550  142.6430 C   0  0  0  0  0  1  0  0  0  0  0  0
  186.3270  176.8120  142.4340 C   0  0  0  0  0  0  0  0  0  0  0  0
  187.5250  177.0260  140.3410 C   0  0  0  0  0  3  0  0  0  0  0  0
  186.7000  177.1930  146.0810 C   0  0  0  0  0  0  0  0  0  0  0  0
  185.2720  177.5540  141.8750 C   0  0  0  0  0  0  0  0  0  0  0  0
  189.2740  174.8420  141.4180 C   0  0  0  0  0  3  0  0  0  0  0  0
  189.1060  176.0420  143.5200 C   0  0  0  0  0  0  0  0  0  0  0  0
  185.3770  178.0080  140.5600 C   0  0  0  0  0  3  0  0  0  0  0  0
  190.1820  175.3010  144.0170 C   0  0  0  0  0  3  0  0  0  0  0  0
  188.5270  177.1270  144.3760 C   0  0  0  0  0  2  0  0  0  0  0  0
  188.6380  175.8090  142.2080 C   0  0  0  0  0  0  0  0  0  0  0  0
  190.8160  174.3310  143.2270 C   0  0  0  0  0  0  0  0  0  0  0  0
  187.4800  176.5540  141.6590 C   0  0  0  0  0  0  0  0  0  0  0  0
  191.6520  172.5350  144.5100 O   0  0  0  0  0  0  0  0  0  0  0  0
  193.7430  175.1960  143.1640 C   0  0  0  0  0  1  0  0  0  0  0  0
  191.9320  173.5370  143.7960 C   0  0  0  0  0  0  0  0  0  0  0  0
  193.3160  173.8610  143.5550 N   0  0  0  0  0  0  0  0  0  0  0  0
  194.3580  172.8670  143.7740 C   0  0  0  0  0  2  0  0  0  0  0  0
  195.5610  173.3090  143.2210 O   0  0  0  0  0  1  0  0  0  0  0  0
  185.2800  176.9870  146.5010 C   0  0  0  0  0  2  0  0  0  0  0  0
  184.4870  178.1780  146.1860 C   0  0  0  0  0  0  0  0  0  0  0  0
  183.8610  179.1190  145.9370 N   0  0  0  0  0  0  0  0  0  0  0  0
  1 17  1  0  0  0  0
  2  9  1  0  0  0  0
  4  2  1  0  0  0  0
  5  8  2  0  0  0  0
  5 13  1  0  0  0  0
  7  4  1  0  0  0  0
  8 18  1  0  0  0  0
  9 25  1  0  0  0  0
  9  3  2  0  0  0  0
 10  7  1  0  0  0  0
 10  6  1  0  0  0  0
 11  1  2  0  0  0  0
 11 16  1  0  0  0  0
 12 14  1  0  0  0  0
 12 15  1  0  0  0  0
 13 10  2  0  0  0  0
 15  2  1  0  0  0  0
 16 12  2  0  0  0  0
 17 21  1  0  0  0  0
 17 14  2  0  0  0  0
 18 16  1  0  0  0  0
 18  7  2  0  0  0  0
 20 22  1  0  0  0  0
 21 19  2  0  0  0  0
 22 23  1  0  0  0  0
 22 21  1  0  0  0  0
 24 23  1  0  0  0  0
 26 25  1  0  0  0  0
 27 26  3  0  0  0  0
M  END
>  <MODEL>
5

>  <REMARK>
 VINA RESULT:      -6.5      2.238      4.271
  Name = 
  4 active torsions:
  status: ('A' for Active; 'I' for Inactive)
    1  A    between atoms: C_4  and  C_23
    2  A    between atoms: C_6  and  N_21
    3  A    between atoms: C_13  and  C_23
    4  A    between atoms: C_17  and  C_26
                            x       y       z     vdW  Elec       q    Type
                         _______ _______ _______ _____ _____    ______ ____

>  <TORSDO>
F 4

$$$$
=
 OpenBabel11062422093D

 27 29  0  0  0  0  0  0  0  0999 V2000
  192.5910  175.1840  146.3950 C   0  0  0  0  0  3  0  0  0  0  0  0
  189.0960  174.4910  142.7720 N   0  0  0  0  0  0  0  0  0  0  0  0
  189.0380  172.8040  141.1510 O   0  0  0  0  0  0  0  0  0  0  0  0
  188.8610  175.9010  143.0960 C   0  0  0  0  0  2  0  0  0  0  0  0
  187.0810  176.5380  146.9290 N   0  0  0  0  0  0  0  0  0  0  0  0
  186.0960  176.9050  143.3400 C   0  0  0  0  0  1  0  0  0  0  0  0
  188.2150  176.0670  144.4450 C   0  0  0  0  0  0  0  0  0  0  0  0
  188.3420  176.0360  146.8620 C   0  0  0  0  0  3  0  0  0  0  0  0
  188.8190  174.0090  141.4470 C   0  0  0  0  0  0  0  0  0  0  0  0
  186.9090  176.5790  144.5470 C   0  0  0  0  0  0  0  0  0  0  0  0
  191.2910  175.6910  146.4420 C   0  0  0  0  0  3  0  0  0  0  0  0
  190.6400  174.1790  144.6610 C   0  0  0  0  0  0  0  0  0  0  0  0
  186.3600  176.8060  145.8090 C   0  0  0  0  0  3  0  0  0  0  0  0
  191.9450  173.6790  144.6230 C   0  0  0  0  0  3  0  0  0  0  0  0
  189.6070  173.5510  143.7750 C   0  0  0  0  0  2  0  0  0  0  0  0
  190.3050  175.2020  145.5740 C   0  0  0  0  0  0  0  0  0  0  0  0
  192.9320  174.1720  145.4890 C   0  0  0  0  0  0  0  0  0  0  0  0
  188.9400  175.7770  145.6220 C   0  0  0  0  0  0  0  0  0  0  0  0
  194.5610  172.5180  145.9100 O   0  0  0  0  0  0  0  0  0  0  0  0
  195.3320  175.8070  144.5490 C   0  0  0  0  0  1  0  0  0  0  0  0
  194.3150  173.6450  145.4000 C   0  0  0  0  0  0  0  0  0  0  0  0
  195.3790  174.3660  144.7460 N   0  0  0  0  0  0  0  0  0  0  0  0
  196.5900  173.6760  144.3230 C   0  0  0  0  0  2  0  0  0  0  0  0
  197.6460  174.0000  145.1760 O   0  0  0  0  0  1  0  0  0  0  0  0
  188.2390  174.9100  140.4040 C   0  0  0  0  0  2  0  0  0  0  0  0
  188.3180  174.2680  139.0890 C   0  0  0  0  0  0  0  0  0  0  0  0
  188.3800  173.7620  138.0510 N   0  0  0  0  0  0  0  0  0  0  0  0
  1 11  1  0  0  0  0
  2  4  1  0  0  0  0
  2 15  1  0  0  0  0
  3  9  2  0  0  0  0
  4  7  1  0  0  0  0
  6 10  1  0  0  0  0
  7 10  2  0  0  0  0
  7 18  1  0  0  0  0
  8  5  1  0  0  0  0
  9  2  1  0  0  0  0
 10 13  1  0  0  0  0
 12 16  1  0  0  0  0
 13  5  2  0  0  0  0
 14 12  2  0  0  0  0
 14 17  1  0  0  0  0
 15 12  1  0  0  0  0
 16 18  1  0  0  0  0
 16 11  2  0  0  0  0
 17  1  2  0  0  0  0
 18  8  2  0  0  0  0
 20 22  1  0  0  0  0
 21 17  1  0  0  0  0
 21 19  2  0  0  0  0
 22 21  1  0  0  0  0
 23 22  1  0  0  0  0
 23 24  1  0  0  0  0
 25  9  1  0  0  0  0
 26 25  1  0  0  0  0
 27 26  3  0  0  0  0
M  END
>  <MODEL>
6

>  <REMARK>
 VINA RESULT:      -6.4      2.241      2.661
  Name = 
  4 active torsions:
  status: ('A' for Active; 'I' for Inactive)
    1  A    between atoms: C_4  and  C_23
    2  A    between atoms: C_6  and  N_21
    3  A    between atoms: C_13  and  C_23
    4  A    between atoms: C_17  and  C_26
                            x       y       z     vdW  Elec       q    Type
                         _______ _______ _______ _____ _____    ______ ____

>  <TORSDO>
F 4

$$$$
=
 OpenBabel11062422093D

 27 29  0  0  0  0  0  0  0  0999 V2000
  186.7960  176.3670  143.1790 C   0  0  0  0  0  3  0  0  0  0  0  0
  191.6060  175.9300  144.7590 N   0  0  0  0  0  0  0  0  0  0  0  0
  192.3860  175.9120  146.9650 O   0  0  0  0  0  0  0  0  0  0  0  0
  191.8230  176.3630  143.3760 C   0  0  0  0  0  2  0  0  0  0  0  0
  190.8320  173.4140  140.4460 N   0  0  0  0  0  0  0  0  0  0  0  0
  193.9200  175.0720  141.7490 C   0  0  0  0  0  1  0  0  0  0  0  0
  191.4790  175.2820  142.3880 C   0  0  0  0  0  0  0  0  0  0  0  0
  189.8400  173.9540  141.2010 C   0  0  0  0  0  3  0  0  0  0  0  0
  192.5730  176.2600  145.7690 C   0  0  0  0  0  0  0  0  0  0  0  0
  192.4840  174.7000  141.5950 C   0  0  0  0  0  0  0  0  0  0  0  0
  187.8310  175.8170  142.4210 C   0  0  0  0  0  3  0  0  0  0  0  0
  189.1890  175.6220  144.4220 C   0  0  0  0  0  0  0  0  0  0  0  0
  192.1330  173.7610  140.6250 C   0  0  0  0  0  3  0  0  0  0  0  0
  188.1460  176.1730  145.1710 C   0  0  0  0  0  3  0  0  0  0  0  0
  190.4200  175.1570  145.1400 C   0  0  0  0  0  2  0  0  0  0  0  0
  189.0390  175.4460  143.0290 C   0  0  0  0  0  0  0  0  0  0  0  0
  186.9400  176.5480  144.5620 C   0  0  0  0  0  0  0  0  0  0  0  0
  190.1340  174.8940  142.1980 C   0  0  0  0  0  0  0  0  0  0  0  0
  185.1910  176.4160  146.1410 O   0  0  0  0  0  0  0  0  0  0  0  0
  185.9410  179.4110  144.2090 C   0  0  0  0  0  1  0  0  0  0  0  0
  185.8660  177.1620  145.3780 C   0  0  0  0  0  0  0  0  0  0  0  0
  185.5720  178.5730  145.3400 N   0  0  0  0  0  0  0  0  0  0  0  0
  184.8160  179.2010  146.4140 C   0  0  0  0  0  2  0  0  0  0  0  0
  185.6400  179.4020  147.5240 O   0  0  0  0  0  1  0  0  0  0  0  0
  193.8310  176.9920  145.4240 C   0  0  0  0  0  2  0  0  0  0  0  0
  194.9310  176.0410  145.2460 C   0  0  0  0  0  0  0  0  0  0  0  0
  195.8000  175.2910  145.1060 N   0  0  0  0  0  0  0  0  0  0  0  0
  1 17  1  0  0  0  0
  2 15  1  0  0  0  0
  2  9  1  0  0  0  0
  4  2  1  0  0  0  0
  5 13  2  0  0  0  0
  5  8  1  0  0  0  0
  7  4  1  0  0  0  0
  8 18  2  0  0  0  0
  9  3  2  0  0  0  0
 10  6  1  0  0  0  0
 10  7  2  0  0  0  0
 11 16  1  0  0  0  0
 11  1  2  0  0  0  0
 12 15  1  0  0  0  0
 12 14  1  0  0  0  0
 13 10  1  0  0  0  0
 16 12  2  0  0  0  0
 17 14  2  0  0  0  0
 17 21  1  0  0  0  0
 18  7  1  0  0  0  0
 18 16  1  0  0  0  0
 20 22  1  0  0  0  0
 21 19  2  0  0  0  0
 22 21  1  0  0  0  0
 22 23  1  0  0  0  0
 23 24  1  0  0  0  0
 25  9  1  0  0  0  0
 26 25  1  0  0  0  0
 27 26  3  0  0  0  0
M  END
>  <MODEL>
7

>  <REMARK>
 VINA RESULT:      -6.4      2.956      7.676
  Name = 
  4 active torsions:
  status: ('A' for Active; 'I' for Inactive)
    1  A    between atoms: C_4  and  C_23
    2  A    between atoms: C_6  and  N_21
    3  A    between atoms: C_13  and  C_23
    4  A    between atoms: C_17  and  C_26
                            x       y       z     vdW  Elec       q    Type
                         _______ _______ _______ _____ _____    ______ ____

>  <TORSDO>
F 4

$$$$
=
 OpenBabel11062422093D

 27 29  0  0  0  0  0  0  0  0999 V2000
  190.1310  177.2560  145.6700 C   0  0  0  0  0  3  0  0  0  0  0  0
  188.0890  175.1940  141.4980 N   0  0  0  0  0  0  0  0  0  0  0  0
  188.3860  173.0180  140.6920 O   0  0  0  0  0  0  0  0  0  0  0  0
  187.9440  176.6190  141.1840 C   0  0  0  0  0  2  0  0  0  0  0  0
  185.0220  178.6420  143.5580 N   0  0  0  0  0  0  0  0  0  0  0  0
  185.4330  177.6060  139.9880 C   0  0  0  0  0  1  0  0  0  0  0  0
  186.8900  177.2770  142.0320 C   0  0  0  0  0  0  0  0  0  0  0  0
  186.1470  178.1680  144.1560 C   0  0  0  0  0  3  0  0  0  0  0  0
  188.2390  174.2420  140.4330 C   0  0  0  0  0  0  0  0  0  0  0  0
  185.7140  177.7730  141.4430 C   0  0  0  0  0  0  0  0  0  0  0  0
  188.9790  177.7260  145.0370 C   0  0  0  0  0  3  0  0  0  0  0  0
  188.8070  175.6430  143.8070 C   0  0  0  0  0  0  0  0  0  0  0  0
  184.7890  178.4550  142.2330 C   0  0  0  0  0  3  0  0  0  0  0  0
  189.9610  175.1820  144.4470 C   0  0  0  0  0  3  0  0  0  0  0  0
  188.0810  174.7130  142.8820 C   0  0  0  0  0  2  0  0  0  0  0  0
  188.3090  176.9320  144.0970 C   0  0  0  0  0  0  0  0  0  0  0  0
  190.6330  175.9790  145.3850 C   0  0  0  0  0  0  0  0  0  0  0  0
  187.1060  177.4650  143.4160 C   0  0  0  0  0  0  0  0  0  0  0  0
  191.8110  175.0480  147.2060 O   0  0  0  0  0  0  0  0  0  0  0  0
  193.4240  176.3070  144.1930 C   0  0  0  0  0  1  0  0  0  0  0  0
  191.8750  175.4760  146.0200 C   0  0  0  0  0  0  0  0  0  0  0  0
  193.1420  175.4470  145.3320 N   0  0  0  0  0  0  0  0  0  0  0  0
  194.2250  174.6000  145.8110 C   0  0  0  0  0  2  0  0  0  0  0  0
  195.4200  175.3220  145.8350 O   0  0  0  0  0  1  0  0  0  0  0  0
  188.1920  174.6720  139.0010 C   0  0  0  0  0  2  0  0  0  0  0  0
  189.1540  173.8960  138.2140 C   0  0  0  0  0  0  0  0  0  0  0  0
  189.9140  173.2840  137.5930 N   0  0  0  0  0  0  0  0  0  0  0  0
  2 15  1  0  0  0  0
  4  2  1  0  0  0  0
  4  7  1  0  0  0  0
  5  8  1  0  0  0  0
  6 10  1  0  0  0  0
  7 18  1  0  0  0  0
  9  3  2  0  0  0  0
  9  2  1  0  0  0  0
 10  7  2  0  0  0  0
 10 13  1  0  0  0  0
 11  1  2  0  0  0  0
 12 16  2  0  0  0  0
 12 14  1  0  0  0  0
 13  5  2  0  0  0  0
 14 17  2  0  0  0  0
 15 12  1  0  0  0  0
 16 11  1  0  0  0  0
 17  1  1  0  0  0  0
 17 21  1  0  0  0  0
 18 16  1  0  0  0  0
 18  8  2  0  0  0  0
 20 22  1  0  0  0  0
 21 19  2  0  0  0  0
 22 23  1  0  0  0  0
 22 21  1  0  0  0  0
 23 24  1  0  0  0  0
 25  9  1  0  0  0  0
 26 25  1  0  0  0  0
 27 26  3  0  0  0  0
M  END
>  <MODEL>
8

>  <REMARK>
 VINA RESULT:      -6.4      2.254      3.047
  Name = 
  4 active torsions:
  status: ('A' for Active; 'I' for Inactive)
    1  A    between atoms: C_4  and  C_23
    2  A    between atoms: C_6  and  N_21
    3  A    between atoms: C_13  and  C_23
    4  A    between atoms: C_17  and  C_26
                            x       y       z     vdW  Elec       q    Type
                         _______ _______ _______ _____ _____    ______ ____

>  <TORSDO>
F 4

$$$$
=
 OpenBabel11062422093D

 27 29  0  0  0  0  0  0  0  0999 V2000
  188.5630  174.1660  140.8680 C   0  0  0  0  0  3  0  0  0  0  0  0
  190.2690  176.0880  145.2520 N   0  0  0  0  0  0  0  0  0  0  0  0
  192.4930  176.2780  145.9560 O   0  0  0  0  0  0  0  0  0  0  0  0
  188.8790  175.8000  145.6170 C   0  0  0  0  0  2  0  0  0  0  0  0
  186.0170  178.3700  143.7540 N   0  0  0  0  0  0  0  0  0  0  0  0
  187.3430  177.7620  147.1980 C   0  0  0  0  0  1  0  0  0  0  0  0
  187.9160  176.7450  144.9510 C   0  0  0  0  0  0  0  0  0  0  0  0
  186.7320  177.5090  142.9830 C   0  0  0  0  0  3  0  0  0  0  0  0
  191.2910  176.0540  146.2620 C   0  0  0  0  0  0  0  0  0  0  0  0
  187.1660  177.6520  145.7210 C   0  0  0  0  0  0  0  0  0  0  0  0
  187.8460  175.0510  141.6770 C   0  0  0  0  0  3  0  0  0  0  0  0
  189.8840  175.6040  142.8720 C   0  0  0  0  0  0  0  0  0  0  0  0
  186.2170  178.4590  145.0940 C   0  0  0  0  0  3  0  0  0  0  0  0
  190.5910  174.7160  142.0560 C   0  0  0  0  0  3  0  0  0  0  0  0
  190.6450  176.4170  143.8740 C   0  0  0  0  0  2  0  0  0  0  0  0
  188.4940  175.7720  142.6900 C   0  0  0  0  0  0  0  0  0  0  0  0
  189.9420  173.9920  141.0460 C   0  0  0  0  0  0  0  0  0  0  0  0
  187.7060  176.6810  143.5550 C   0  0  0  0  0  0  0  0  0  0  0  0
  191.0540  173.3800  139.0560 O   0  0  0  0  0  0  0  0  0  0  0  0
  190.3900  171.0640  141.7880 C   0  0  0  0  0  1  0  0  0  0  0  0
  190.7130  173.0310  140.2210 C   0  0  0  0  0  0  0  0  0  0  0  0
  191.0950  171.7270  140.7010 N   0  0  0  0  0  0  0  0  0  0  0  0
  192.1660  170.9830  140.0530 C   0  0  0  0  0  2  0  0  0  0  0  0
  193.4040  171.4050  140.5420 O   0  0  0  0  0  1  0  0  0  0  0  0
  190.9540  175.7850  147.6930 C   0  0  0  0  0  2  0  0  0  0  0  0
  191.3100  176.9420  148.5180 C   0  0  0  0  0  0  0  0  0  0  0  0
  191.5910  177.8550  149.1700 N   0  0  0  0  0  0  0  0  0  0  0  0
  1 17  2  0  0  0  0
  1 11  1  0  0  0  0
  2  4  1  0  0  0  0
  2  9  1  0  0  0  0
  3  9  2  0  0  0  0
  5 13  1  0  0  0  0
  7  4  1  0  0  0  0
  7 10  1  0  0  0  0
  8 18  1  0  0  0  0
  8  5  2  0  0  0  0
  9 25  1  0  0  0  0
 10  6  1  0  0  0  0
 11 16  2  0  0  0  0
 12 15  1  0  0  0  0
 13 10  2  0  0  0  0
 14 12  2  0  0  0  0
 15  2  1  0  0  0  0
 16 12  1  0  0  0  0
 16 18  1  0  0  0  0
 17 14  1  0  0  0  0
 18  7  2  0  0  0  0
 19 21  2  0  0  0  0
 21 22  1  0  0  0  0
 21 17  1  0  0  0  0
 22 20  1  0  0  0  0
 23 24  1  0  0  0  0
 23 22  1  0  0  0  0
 25 26  1  0  0  0  0
 26 27  3  0  0  0  0
M  END
>  <MODEL>
9

>  <REMARK>
 VINA RESULT:      -6.4      3.260      5.688
  Name = 
  4 active torsions:
  status: ('A' for Active; 'I' for Inactive)
    1  A    between atoms: C_4  and  C_23
    2  A    between atoms: C_6  and  N_21
    3  A    between atoms: C_13  and  C_23
    4  A    between atoms: C_17  and  C_26
                            x       y       z     vdW  Elec       q    Type
                         _______ _______ _______ _____ _____    ______ ____

>  <TORSDO>
F 4

$$$$
