=
 OpenBabel11072409063D

 47 53  0  0  1  0  0  0  0  0999 V2000
  191.1380  176.4490  145.7810 C   0  0  0  0  0  0  0  0  0  0  0  0
  189.8340  176.4920  143.7660 C   0  0  0  0  0  0  0  0  0  0  0  0
  190.1190  177.0420  146.4740 C   0  0  0  0  0  0  0  0  0  0  0  0
  190.4320  177.1760  147.7410 O   0  0  0  0  0  0  0  0  0  0  0  0
  192.1320  176.2230  146.7110 C   0  0  0  0  0  0  0  0  0  0  0  0
  188.9250  177.4060  145.8580 C   0  0  0  0  0  3  0  0  0  0  0  0
  191.0260  176.1420  144.4250 C   0  0  0  0  0  3  0  0  0  0  0  0
  191.6430  176.6780  147.9300 C   0  0  0  0  0  3  0  0  0  0  0  0
  188.7900  177.1280  144.4870 C   0  0  0  0  0  3  0  0  0  0  0  0
  194.6750  177.3200  145.7210 O   0  0  0  0  0  0  0  0  0  0  0  0
  194.5500  176.0790  145.9100 C   0  0  0  0  0  0  0  0  0  0  0  0
  193.3820  175.5450  146.5380 N   0  0  0  0  0  2  0  0  0  0  0  0
  196.5810  174.1190  143.6760 C   0  0  1  0  0  3  0  0  0  0  0  0
  196.1060  175.4030  144.1790 N   0  0  0  0  0  2  0  0  0  0  0  0
  195.9850  173.0110  144.5280 C   0  0  0  0  0  2  0  0  0  0  0  0
  195.2090  173.7100  145.6180 C   0  0  0  0  0  2  0  0  0  0  0  0
  195.6590  175.1510  145.5410 C   0  0  2  0  0  3  0  0  0  0  0  0
  196.1970  173.9480  142.2440 C   0  0  0  0  0  0  0  0  0  0  0  0
  196.0600  172.7900  141.7620 O   0  0  0  0  0  0  0  0  0  0  0  0
  196.0040  175.1120  141.4340 N   0  0  0  0  0  2  0  0  0  0  0  0
  194.3340  175.1390  139.5980 C   0  0  0  0  0  3  0  0  0  0  0  0
  194.4860  175.1250  138.2220 C   0  0  0  0  0  0  0  0  0  0  0  0
  195.6350  175.1090  140.0510 C   0  0  0  0  0  0  0  0  0  0  0  0
  195.7540  175.0960  137.8840 O   0  0  0  0  0  0  0  0  0  0  0  0
  196.4930  175.0850  138.9680 C   0  0  0  0  0  3  0  0  0  0  0  0
  193.8430  174.8800  135.9390 O   0  0  0  0  0  1  0  0  0  0  0  0
  193.3720  175.1730  137.2210 C   0  0  1  0  0  3  0  0  0  0  0  0
  192.2390  174.2270  137.6060 C   0  0  0  0  0  2  0  0  0  0  0  0
  191.3520  174.0580  136.5390 O   0  0  0  0  0  1  0  0  0  0  0  0
  189.7050  176.1980  142.4030 O   0  0  0  0  0  0  0  0  0  0  0  0
  188.8380  173.8280  142.2700 C   0  0  1  0  0  3  0  0  0  0  0  0
  188.7250  175.2940  141.8880 C   0  0  2  0  0  0  0  0  0  0  0  0
  189.2560  174.2930  140.8740 C   0  0  2  0  0  3  0  0  0  0  0  0
  189.9790  173.6090  143.0440 O   0  0  0  0  0  1  0  0  0  0  0  0
  188.4740  174.4420  138.6300 O   0  0  0  0  0  1  0  0  0  0  0  0
  188.1990  173.8650  139.8680 C   0  0  0  0  0  2  0  0  0  0  0  0
  187.4330  175.7970  141.6500 O   0  0  0  0  0  0  0  0  0  0  0  0
  187.5950  177.0340  141.0070 C   0  0  1  0  0  3  0  0  0  0  0  0
  186.5540  177.2200  140.0750 O   0  0  0  0  0  0  0  0  0  0  0  0
  186.4580  177.9680  141.2630 C   0  0  1  0  0  3  0  0  0  0  0  0
  185.3430  177.3880  142.1380 C   0  0  0  0  0  2  0  0  0  0  0  0
  185.5390  179.8680  144.8940 C   0  0  0  0  0  3  0  0  0  0  0  0
  184.7760  177.7210  145.8970 C   0  0  0  0  0  2  0  0  0  0  0  0
  185.3600  177.0080  144.6790 C   0  0  0  0  0  2  0  0  0  0  0  0
  185.4810  179.3200  143.6770 C   0  0  0  0  0  3  0  0  0  0  0  0
  185.5490  179.0150  146.1290 C   0  0  0  0  0  2  0  0  0  0  0  0
  185.3690  177.8990  143.5100 N   0  0  0  0  0  0  0  0  0  0  0  0
  1  3  1  0  0  0  0
  1  5  1  0  0  0  0
  2  7  1  0  0  0  0
  2  9  2  0  0  0  0
  3  4  1  0  0  0  0
  4  8  1  0  0  0  0
  5  8  2  0  0  0  0
  6  3  2  0  0  0  0
  7  1  2  0  0  0  0
  9  6  1  0  0  0  0
 10 11  2  0  0  0  0
 11 12  1  0  0  0  0
 12  5  1  0  0  0  0
 13 18  1  6  0  0  0
 13 14  1  0  0  0  0
 13 15  1  0  0  0  0
 14 17  1  0  0  0  0
 15 16  1  0  0  0  0
 17 16  1  0  0  0  0
 17 11  1  6  0  0  0
 19 18  2  0  0  0  0
 20 18  1  0  0  0  0
 21 23  1  0  0  0  0
 22 21  2  0  0  0  0
 23 20  1  0  0  0  0
 24 22  1  0  0  0  0
 24 25  1  0  0  0  0
 25 23  2  0  0  0  0
 27 26  1  6  0  0  0
 27 28  1  0  0  0  0
 27 22  1  0  0  0  0
 29 28  1  0  0  0  0
 30  2  1  0  0  0  0
 31 34  1  1  0  0  0
 32 37  1  6  0  0  0
 32 31  1  0  0  0  0
 32 30  1  0  0  0  0
 33 36  1  6  0  0  0
 33 32  1  0  0  0  0
 33 31  1  0  0  0  0
 35 36  1  0  0  0  0
 38 40  1  0  0  0  0
 38 37  1  1  0  0  0
 39 38  1  0  0  0  0
 39 40  1  0  0  0  0
 40 41  1  1  0  0  0
 41 47  1  0  0  0  0
 42 46  1  0  0  0  0
 43 46  1  0  0  0  0
 44 43  1  0  0  0  0
 45 42  2  0  0  0  0
 47 45  1  0  0  0  0
 47 44  1  0  0  0  0
M  END
>  <MODEL>
1

>  <REMARK>
 VINA RESULT:      -7.5      0.000      0.000
  Name = 
  13 active torsions:
  status: ('A' for Active; 'I' for Inactive)
    1  A    between atoms: C_6  and  C_26
    2  A    between atoms: O_7  and  C_9
    3  A    between atoms: O_7  and  C_25
    4  A    between atoms: C_8  and  N_45
    5  A    between atoms: C_11  and  O_28
    6  A    between atoms: C_12  and  C_26
    7  A    between atoms: C_15  and  C_39
    8  A    between atoms: C_17  and  C_23
    9  A    between atoms: C_18  and  N_44
   10  A    between atoms: C_25  and  O_28
   11  A    between atoms: C_27  and  C_35
   12  A    between atoms: C_34  and  C_36
   13  A    between atoms: C_35  and  N_46
                            x       y       z     vdW  Elec       q    Type
                         _______ _______ _______ _____ _____    ______ ____

>  <TORSDO>
F 13

$$$$
=
 OpenBabel11072409063D

 47 53  0  0  1  0  0  0  0  0999 V2000
  191.2520  176.4080  145.6500 C   0  0  0  0  0  0  0  0  0  0  0  0
  189.8510  176.4740  143.7020 C   0  0  0  0  0  0  0  0  0  0  0  0
  190.2610  176.9780  146.4030 C   0  0  0  0  0  0  0  0  0  0  0  0
  190.6350  177.0920  147.6560 O   0  0  0  0  0  0  0  0  0  0  0  0
  192.2910  176.1740  146.5270 C   0  0  0  0  0  0  0  0  0  0  0  0
  189.0360  177.3410  145.8520 C   0  0  0  0  0  3  0  0  0  0  0  0
  191.0770  176.1240  144.2970 C   0  0  0  0  0  3  0  0  0  0  0  0
  191.8580  176.6020  147.7770 C   0  0  0  0  0  3  0  0  0  0  0  0
  188.8380  177.0860  144.4830 C   0  0  0  0  0  3  0  0  0  0  0  0
  194.7970  177.3310  145.5100 O   0  0  0  0  0  0  0  0  0  0  0  0
  194.6830  176.0820  145.6430 C   0  0  0  0  0  0  0  0  0  0  0  0
  193.5370  175.5120  146.2820 N   0  0  0  0  0  2  0  0  0  0  0  0
  196.1420  173.3560  143.8020 C   0  0  1  0  0  3  0  0  0  0  0  0
  195.5150  174.6710  143.8580 N   0  0  0  0  0  2  0  0  0  0  0  0
  196.3620  172.8600  145.2210 C   0  0  0  0  0  2  0  0  0  0  0  0
  195.9180  173.9890  146.1190 C   0  0  0  0  0  2  0  0  0  0  0  0
  195.7820  175.1780  145.1950 C   0  0  2  0  0  3  0  0  0  0  0  0
  195.2850  172.4030  143.0370 C   0  0  0  0  0  0  0  0  0  0  0  0
  195.8130  171.5780  142.2420 O   0  0  0  0  0  0  0  0  0  0  0  0
  193.8650  172.4530  143.2110 N   0  0  0  0  0  2  0  0  0  0  0  0
  192.3420  171.8920  141.3320 C   0  0  0  0  0  3  0  0  0  0  0  0
  191.5180  170.8020  141.1170 C   0  0  0  0  0  0  0  0  0  0  0  0
  192.9170  171.6070  142.5520 C   0  0  0  0  0  0  0  0  0  0  0  0
  191.5960  169.9440  142.1080 O   0  0  0  0  0  0  0  0  0  0  0  0
  192.4380  170.3940  143.0080 C   0  0  0  0  0  3  0  0  0  0  0  0
  190.8780  171.5840  138.9580 O   0  0  0  0  0  1  0  0  0  0  0  0
  190.6640  170.5800  139.9060 C   0  0  1  0  0  3  0  0  0  0  0  0
  190.9120  169.2040  139.2960 C   0  0  0  0  0  2  0  0  0  0  0  0
  190.2910  169.0960  138.0500 O   0  0  0  0  0  1  0  0  0  0  0  0
  189.6600  176.2030  142.3420 O   0  0  0  0  0  0  0  0  0  0  0  0
  188.8290  173.8170  142.3090 C   0  0  1  0  0  3  0  0  0  0  0  0
  188.6980  175.2630  141.8600 C   0  0  2  0  0  0  0  0  0  0  0  0
  189.2510  174.2250  140.8970 C   0  0  2  0  0  3  0  0  0  0  0  0
  189.9660  173.6500  143.1010 O   0  0  0  0  0  1  0  0  0  0  0  0
  188.4380  174.3270  138.6610 O   0  0  0  0  0  1  0  0  0  0  0  0
  188.2100  173.7360  139.9030 C   0  0  0  0  0  2  0  0  0  0  0  0
  187.4000  175.7350  141.5890 O   0  0  0  0  0  0  0  0  0  0  0  0
  187.5450  177.0210  141.0460 C   0  0  1  0  0  3  0  0  0  0  0  0
  186.4450  177.3070  140.2130 O   0  0  0  0  0  0  0  0  0  0  0  0
  186.4530  177.9490  141.4650 C   0  0  1  0  0  3  0  0  0  0  0  0
  185.3890  177.3140  142.3650 C   0  0  0  0  0  2  0  0  0  0  0  0
  185.6260  179.8370  145.0790 C   0  0  0  0  0  3  0  0  0  0  0  0
  184.7290  177.7520  146.0980 C   0  0  0  0  0  2  0  0  0  0  0  0
  185.3120  176.9850  144.9130 C   0  0  0  0  0  2  0  0  0  0  0  0
  185.5770  179.2680  143.8720 C   0  0  0  0  0  3  0  0  0  0  0  0
  185.5570  179.0100  146.3300 C   0  0  0  0  0  2  0  0  0  0  0  0
  185.4000  177.8510  143.7280 N   0  0  0  0  0  0  0  0  0  0  0  0
  1  3  1  0  0  0  0
  1  5  1  0  0  0  0
  2  7  1  0  0  0  0
  2  9  2  0  0  0  0
  3  4  1  0  0  0  0
  4  8  1  0  0  0  0
  5  8  2  0  0  0  0
  6  3  2  0  0  0  0
  7  1  2  0  0  0  0
  9  6  1  0  0  0  0
 10 11  2  0  0  0  0
 11 12  1  0  0  0  0
 12  5  1  0  0  0  0
 13 18  1  6  0  0  0
 13 14  1  0  0  0  0
 13 15  1  0  0  0  0
 14 17  1  0  0  0  0
 15 16  1  0  0  0  0
 17 11  1  1  0  0  0
 17 16  1  0  0  0  0
 18 20  1  0  0  0  0
 19 18  2  0  0  0  0
 21 23  1  0  0  0  0
 22 21  2  0  0  0  0
 22 24  1  0  0  0  0
 23 25  2  0  0  0  0
 23 20  1  0  0  0  0
 24 25  1  0  0  0  0
 27 26  1  6  0  0  0
 27 22  1  0  0  0  0
 28 27  1  0  0  0  0
 29 28  1  0  0  0  0
 30  2  1  0  0  0  0
 31 34  1  1  0  0  0
 32 37  1  6  0  0  0
 32 31  1  0  0  0  0
 32 30  1  0  0  0  0
 33 36  1  6  0  0  0
 33 32  1  0  0  0  0
 33 31  1  0  0  0  0
 35 36  1  0  0  0  0
 38 40  1  0  0  0  0
 38 37  1  1  0  0  0
 39 38  1  0  0  0  0
 39 40  1  0  0  0  0
 40 41  1  1  0  0  0
 41 47  1  0  0  0  0
 42 46  1  0  0  0  0
 43 46  1  0  0  0  0
 44 43  1  0  0  0  0
 45 42  2  0  0  0  0
 47 45  1  0  0  0  0
 47 44  1  0  0  0  0
M  END
>  <MODEL>
2

>  <REMARK>
 VINA RESULT:      -7.4      2.161      2.701
  Name = 
  13 active torsions:
  status: ('A' for Active; 'I' for Inactive)
    1  A    between atoms: C_6  and  C_26
    2  A    between atoms: O_7  and  C_9
    3  A    between atoms: O_7  and  C_25
    4  A    between atoms: C_8  and  N_45
    5  A    between atoms: C_11  and  O_28
    6  A    between atoms: C_12  and  C_26
    7  A    between atoms: C_15  and  C_39
    8  A    between atoms: C_17  and  C_23
    9  A    between atoms: C_18  and  N_44
   10  A    between atoms: C_25  and  O_28
   11  A    between atoms: C_27  and  C_35
   12  A    between atoms: C_34  and  C_36
   13  A    between atoms: C_35  and  N_46
                            x       y       z     vdW  Elec       q    Type
                         _______ _______ _______ _____ _____    ______ ____

>  <TORSDO>
F 13

$$$$
=
 OpenBabel11072409063D

 47 53  0  0  1  0  0  0  0  0999 V2000
  191.6420  175.4930  146.2960 C   0  0  0  0  0  0  0  0  0  0  0  0
  190.2030  174.1030  144.9690 C   0  0  0  0  0  0  0  0  0  0  0  0
  190.5840  175.8750  147.0740 C   0  0  0  0  0  0  0  0  0  0  0  0
  190.9780  176.6770  148.0350 O   0  0  0  0  0  0  0  0  0  0  0  0
  192.7430  176.1240  146.8370 C   0  0  0  0  0  0  0  0  0  0  0  0
  189.2920  175.4160  146.8360 C   0  0  0  0  0  3  0  0  0  0  0  0
  191.4930  174.5930  145.2420 C   0  0  0  0  0  3  0  0  0  0  0  0
  192.2860  176.8430  147.9360 C   0  0  0  0  0  3  0  0  0  0  0  0
  189.1070  174.5230  145.7660 C   0  0  0  0  0  3  0  0  0  0  0  0
  193.9940  176.7790  144.2560 O   0  0  0  0  0  0  0  0  0  0  0  0
  194.6570  176.1850  145.1500 C   0  0  0  0  0  0  0  0  0  0  0  0
  194.1200  176.0000  146.4630 N   0  0  0  0  0  2  0  0  0  0  0  0
  197.3650  174.9920  143.1020 C   0  0  1  0  0  3  0  0  0  0  0  0
  196.4190  176.0300  143.4940 N   0  0  0  0  0  2  0  0  0  0  0  0
  197.2000  173.8040  144.0350 C   0  0  0  0  0  2  0  0  0  0  0  0
  196.1750  174.2300  145.0570 C   0  0  0  0  0  2  0  0  0  0  0  0
  196.0480  175.7250  144.8680 C   0  0  2  0  0  3  0  0  0  0  0  0
  197.1320  174.5860  141.6840 C   0  0  0  0  0  0  0  0  0  0  0  0
  196.9710  173.3690  141.3950 O   0  0  0  0  0  0  0  0  0  0  0  0
  197.1080  175.5950  140.6690 N   0  0  0  0  0  2  0  0  0  0  0  0
  197.8800  175.4520  138.3140 C   0  0  0  0  0  3  0  0  0  0  0  0
  197.2040  175.1450  137.1460 C   0  0  0  0  0  0  0  0  0  0  0  0
  196.8950  175.3620  139.2720 C   0  0  0  0  0  0  0  0  0  0  0  0
  195.9380  174.8890  137.3830 O   0  0  0  0  0  0  0  0  0  0  0  0
  195.7030  175.0100  138.6680 C   0  0  0  0  0  3  0  0  0  0  0  0
  197.8130  173.7530  135.3090 O   0  0  0  0  0  1  0  0  0  0  0  0
  197.8140  175.0680  135.7790 C   0  0  1  0  0  3  0  0  0  0  0  0
  197.0960  175.9890  134.7980 C   0  0  0  0  0  2  0  0  0  0  0  0
  196.7460  177.1930  135.4150 O   0  0  0  0  0  1  0  0  0  0  0  0
  190.0330  173.2040  143.9100 O   0  0  0  0  0  0  0  0  0  0  0  0
  190.2640  172.4310  141.5150 C   0  0  1  0  0  3  0  0  0  0  0  0
  190.2830  173.5470  142.5450 C   0  0  2  0  0  0  0  0  0  0  0  0
  191.5950  173.0170  141.9890 C   0  0  2  0  0  3  0  0  0  0  0  0
  190.0580  171.1960  142.1330 O   0  0  0  0  0  1  0  0  0  0  0  0
  193.2190  174.6600  141.4100 O   0  0  0  0  0  1  0  0  0  0  0  0
  192.1670  173.9050  140.8950 C   0  0  0  0  0  2  0  0  0  0  0  0
  189.8940  174.8280  142.1110 O   0  0  0  0  0  0  0  0  0  0  0  0
  188.6590  174.6750  141.4630 C   0  0  1  0  0  3  0  0  0  0  0  0
  187.6140  174.9100  142.3790 O   0  0  0  0  0  0  0  0  0  0  0  0
  187.8580  175.9340  141.4460 C   0  0  1  0  0  3  0  0  0  0  0  0
  188.5200  177.1190  142.1560 C   0  0  0  0  0  2  0  0  0  0  0  0
  185.6690  179.2040  143.3000 C   0  0  0  0  0  3  0  0  0  0  0  0
  186.5470  178.0090  145.2990 C   0  0  0  0  0  2  0  0  0  0  0  0
  187.8580  177.8140  144.5400 C   0  0  0  0  0  2  0  0  0  0  0  0
  186.5220  178.5310  142.5230 C   0  0  0  0  0  3  0  0  0  0  0  0
  185.8620  179.2710  144.7870 C   0  0  0  0  0  2  0  0  0  0  0  0
  187.6200  177.8010  143.0890 N   0  0  0  0  0  0  0  0  0  0  0  0
  1  5  1  0  0  0  0
  1  3  1  0  0  0  0
  2  7  1  0  0  0  0
  2  9  2  0  0  0  0
  3  4  1  0  0  0  0
  5  8  2  0  0  0  0
  6  3  2  0  0  0  0
  7  1  2  0  0  0  0
  8  4  1  0  0  0  0
  9  6  1  0  0  0  0
 10 11  2  0  0  0  0
 11 12  1  0  0  0  0
 12  5  1  0  0  0  0
 13 18  1  6  0  0  0
 13 14  1  0  0  0  0
 13 15  1  0  0  0  0
 14 17  1  0  0  0  0
 15 16  1  0  0  0  0
 17 16  1  0  0  0  0
 17 11  1  6  0  0  0
 19 18  2  0  0  0  0
 20 18  1  0  0  0  0
 21 23  1  0  0  0  0
 22 24  1  0  0  0  0
 22 21  2  0  0  0  0
 23 20  1  0  0  0  0
 24 25  1  0  0  0  0
 25 23  2  0  0  0  0
 27 26  1  6  0  0  0
 27 22  1  0  0  0  0
 28 29  1  0  0  0  0
 28 27  1  0  0  0  0
 30  2  1  0  0  0  0
 31 33  1  0  0  0  0
 31 34  1  1  0  0  0
 31 32  1  0  0  0  0
 32 37  1  6  0  0  0
 32 30  1  0  0  0  0
 33 36  1  6  0  0  0
 33 32  1  0  0  0  0
 36 35  1  0  0  0  0
 38 37  1  1  0  0  0
 38 39  1  0  0  0  0
 40 38  1  0  0  0  0
 40 41  1  1  0  0  0
 40 39  1  0  0  0  0
 41 47  1  0  0  0  0
 42 46  1  0  0  0  0
 44 43  1  0  0  0  0
 45 47  1  0  0  0  0
 45 42  2  0  0  0  0
 46 43  1  0  0  0  0
 47 44  1  0  0  0  0
M  END
>  <MODEL>
3

>  <REMARK>
 VINA RESULT:      -7.3      1.861      2.672
  Name = 
  13 active torsions:
  status: ('A' for Active; 'I' for Inactive)
    1  A    between atoms: C_6  and  C_26
    2  A    between atoms: O_7  and  C_9
    3  A    between atoms: O_7  and  C_25
    4  A    between atoms: C_8  and  N_45
    5  A    between atoms: C_11  and  O_28
    6  A    between atoms: C_12  and  C_26
    7  A    between atoms: C_15  and  C_39
    8  A    between atoms: C_17  and  C_23
    9  A    between atoms: C_18  and  N_44
   10  A    between atoms: C_25  and  O_28
   11  A    between atoms: C_27  and  C_35
   12  A    between atoms: C_34  and  C_36
   13  A    between atoms: C_35  and  N_46
                            x       y       z     vdW  Elec       q    Type
                         _______ _______ _______ _____ _____    ______ ____

>  <TORSDO>
F 13

$$$$
=
 OpenBabel11072409063D

 47 53  0  0  1  0  0  0  0  0999 V2000
  189.7050  173.4940  140.1750 C   0  0  0  0  0  0  0  0  0  0  0  0
  190.1230  174.0620  142.4700 C   0  0  0  0  0  0  0  0  0  0  0  0
  188.4740  172.9960  140.5050 C   0  0  0  0  0  0  0  0  0  0  0  0
  187.8370  172.5820  139.4350 O   0  0  0  0  0  0  0  0  0  0  0  0
  189.8020  173.3560  138.8060 C   0  0  0  0  0  0  0  0  0  0  0  0
  188.0130  172.9850  141.8180 C   0  0  0  0  0  3  0  0  0  0  0  0
  190.5530  174.0530  141.1300 C   0  0  0  0  0  3  0  0  0  0  0  0
  188.6040  172.7950  138.3780 C   0  0  0  0  0  3  0  0  0  0  0  0
  188.8550  173.5220  142.8070 C   0  0  0  0  0  3  0  0  0  0  0  0
  191.8330  171.7340  137.4280 O   0  0  0  0  0  0  0  0  0  0  0  0
  191.9060  172.9930  137.4080 C   0  0  0  0  0  0  0  0  0  0  0  0
  190.8480  173.8000  137.9330 N   0  0  0  0  0  2  0  0  0  0  0  0
  195.1340  174.5820  137.3260 C   0  0  1  0  0  3  0  0  0  0  0  0
  194.2900  173.4110  137.5290 N   0  0  0  0  0  2  0  0  0  0  0  0
  194.2630  175.7360  136.8600 C   0  0  0  0  0  2  0  0  0  0  0  0
  192.8760  175.1620  136.7080 C   0  0  0  0  0  2  0  0  0  0  0  0
  193.0750  173.6640  136.7690 C   0  0  2  0  0  3  0  0  0  0  0  0
  195.8470  174.9350  138.5890 C   0  0  0  0  0  0  0  0  0  0  0  0
  197.1070  174.9290  138.6250 O   0  0  0  0  0  0  0  0  0  0  0  0
  195.0770  175.2640  139.7500 N   0  0  0  0  0  2  0  0  0  0  0  0
  195.7080  174.7630  142.0980 C   0  0  0  0  0  3  0  0  0  0  0  0
  196.2810  175.5510  143.0800 C   0  0  0  0  0  0  0  0  0  0  0  0
  195.6150  175.6240  141.0280 C   0  0  0  0  0  0  0  0  0  0  0  0
  196.5150  176.7660  142.6390 O   0  0  0  0  0  0  0  0  0  0  0  0
  196.1230  176.8570  141.3900 C   0  0  0  0  0  3  0  0  0  0  0  0
  195.4880  174.7920  145.1960 O   0  0  0  0  0  1  0  0  0  0  0  0
  196.6370  175.0990  144.4640 C   0  0  1  0  0  3  0  0  0  0  0  0
  197.5870  173.9070  144.4310 C   0  0  0  0  0  2  0  0  0  0  0  0
  197.3620  173.0640  145.5230 O   0  0  0  0  0  1  0  0  0  0  0  0
  190.9640  174.6120  143.4440 O   0  0  0  0  0  0  0  0  0  0  0  0
  191.7390  176.8590  144.3000 C   0  0  1  0  0  3  0  0  0  0  0  0
  190.6520  175.8080  144.1610 C   0  0  2  0  0  0  0  0  0  0  0  0
  191.3800  175.9630  145.4860 C   0  0  2  0  0  3  0  0  0  0  0  0
  192.9310  176.4120  143.7270 O   0  0  0  0  0  1  0  0  0  0  0  0
  191.2370  176.7440  147.7310 O   0  0  0  0  0  1  0  0  0  0  0  0
  190.5850  176.7700  146.4990 C   0  0  0  0  0  2  0  0  0  0  0  0
  189.3210  176.2640  144.1250 O   0  0  0  0  0  0  0  0  0  0  0  0
  189.3200  177.4460  143.3680 C   0  0  1  0  0  3  0  0  0  0  0  0
  188.9090  177.1610  142.0500 O   0  0  0  0  0  0  0  0  0  0  0  0
  187.9610  177.8060  142.8660 C   0  0  1  0  0  3  0  0  0  0  0  0
  186.8580  176.8120  143.2430 C   0  0  0  0  0  2  0  0  0  0  0  0
  184.1310  178.7210  144.8870 C   0  0  0  0  0  3  0  0  0  0  0  0
  184.9240  177.0250  146.5260 C   0  0  0  0  0  2  0  0  0  0  0  0
  186.2260  176.9440  145.7300 C   0  0  0  0  0  2  0  0  0  0  0  0
  184.9460  178.2080  143.9610 C   0  0  0  0  0  3  0  0  0  0  0  0
  184.3190  178.4120  146.3430 C   0  0  0  0  0  2  0  0  0  0  0  0
  185.9960  177.2980  144.3230 N   0  0  0  0  0  0  0  0  0  0  0  0
  1  3  2  0  0  0  0
  1  7  1  0  0  0  0
  2  9  1  0  0  0  0
  2 30  1  0  0  0  0
  3  6  1  0  0  0  0
  4  3  1  0  0  0  0
  5  1  1  0  0  0  0
  6  9  2  0  0  0  0
  7  2  2  0  0  0  0
  8  5  2  0  0  0  0
  8  4  1  0  0  0  0
 11 10  2  0  0  0  0
 11 12  1  0  0  0  0
 12  5  1  0  0  0  0
 13 14  1  0  0  0  0
 13 18  1  1  0  0  0
 15 13  1  0  0  0  0
 16 17  1  0  0  0  0
 16 15  1  0  0  0  0
 17 11  1  1  0  0  0
 17 14  1  0  0  0  0
 18 19  2  0  0  0  0
 18 20  1  0  0  0  0
 20 23  1  0  0  0  0
 21 22  2  0  0  0  0
 22 27  1  0  0  0  0
 23 25  2  0  0  0  0
 23 21  1  0  0  0  0
 24 22  1  0  0  0  0
 25 24  1  0  0  0  0
 27 26  1  6  0  0  0
 28 27  1  0  0  0  0
 28 29  1  0  0  0  0
 31 34  1  6  0  0  0
 31 33  1  0  0  0  0
 32 30  1  6  0  0  0
 32 31  1  0  0  0  0
 32 33  1  0  0  0  0
 33 36  1  1  0  0  0
 36 35  1  0  0  0  0
 37 32  1  0  0  0  0
 38 37  1  1  0  0  0
 39 40  1  0  0  0  0
 39 38  1  0  0  0  0
 40 41  1  1  0  0  0
 40 38  1  0  0  0  0
 41 47  1  0  0  0  0
 42 46  1  0  0  0  0
 44 43  1  0  0  0  0
 45 47  1  0  0  0  0
 45 42  2  0  0  0  0
 46 43  1  0  0  0  0
 47 44  1  0  0  0  0
M  END
>  <MODEL>
4

>  <REMARK>
 VINA RESULT:      -7.2      2.149      6.207
  Name = 
  13 active torsions:
  status: ('A' for Active; 'I' for Inactive)
    1  A    between atoms: C_6  and  C_26
    2  A    between atoms: O_7  and  C_9
    3  A    between atoms: O_7  and  C_25
    4  A    between atoms: C_8  and  N_45
    5  A    between atoms: C_11  and  O_28
    6  A    between atoms: C_12  and  C_26
    7  A    between atoms: C_15  and  C_39
    8  A    between atoms: C_17  and  C_23
    9  A    between atoms: C_18  and  N_44
   10  A    between atoms: C_25  and  O_28
   11  A    between atoms: C_27  and  C_35
   12  A    between atoms: C_34  and  C_36
   13  A    between atoms: C_35  and  N_46
                            x       y       z     vdW  Elec       q    Type
                         _______ _______ _______ _____ _____    ______ ____

>  <TORSDO>
F 13

$$$$
=
 OpenBabel11072409063D

 47 53  0  0  1  0  0  0  0  0999 V2000
  195.5230  174.7100  142.3910 C   0  0  0  0  0  0  0  0  0  0  0  0
  195.1830  173.5910  140.2940 C   0  0  0  0  0  0  0  0  0  0  0  0
  196.6170  175.3590  141.8870 C   0  0  0  0  0  0  0  0  0  0  0  0
  197.1250  176.1780  142.7780 O   0  0  0  0  0  0  0  0  0  0  0  0
  195.3800  175.1770  143.6810 C   0  0  0  0  0  0  0  0  0  0  0  0
  197.0610  175.1500  140.5850 C   0  0  0  0  0  3  0  0  0  0  0  0
  194.7690  173.8290  141.6170 C   0  0  0  0  0  3  0  0  0  0  0  0
  196.3940  176.1080  143.8790 C   0  0  0  0  0  3  0  0  0  0  0  0
  196.3320  174.2510  139.7860 C   0  0  0  0  0  3  0  0  0  0  0  0
  193.0850  176.8600  144.4240 O   0  0  0  0  0  0  0  0  0  0  0  0
  193.3330  175.8040  145.0680 C   0  0  0  0  0  0  0  0  0  0  0  0
  194.3430  174.8930  144.6270 N   0  0  0  0  0  2  0  0  0  0  0  0
  190.3080  175.3580  146.9660 C   0  0  1  0  0  3  0  0  0  0  0  0
  191.2010  174.9840  145.8770 N   0  0  0  0  0  2  0  0  0  0  0  0
  190.9640  176.4630  147.7770 C   0  0  0  0  0  2  0  0  0  0  0  0
  192.3310  176.6560  147.1670 C   0  0  0  0  0  2  0  0  0  0  0  0
  192.5210  175.4540  146.2700 C   0  0  2  0  0  3  0  0  0  0  0  0
  188.9920  175.8110  146.4270 C   0  0  0  0  0  0  0  0  0  0  0  0
  188.4960  175.2440  145.4150 O   0  0  0  0  0  0  0  0  0  0  0  0
  188.3160  176.8990  147.0680 N   0  0  0  0  0  2  0  0  0  0  0  0
  186.8880  178.3450  145.6430 C   0  0  0  0  0  3  0  0  0  0  0  0
  185.5210  178.5630  145.6410 C   0  0  0  0  0  0  0  0  0  0  0  0
  187.0530  177.4420  146.6700 C   0  0  0  0  0  0  0  0  0  0  0  0
  184.9240  177.8540  146.5710 O   0  0  0  0  0  0  0  0  0  0  0  0
  185.8210  177.1540  147.2260 C   0  0  0  0  0  3  0  0  0  0  0  0
  185.6740  180.1740  143.8900 O   0  0  0  0  0  1  0  0  0  0  0  0
  184.7830  179.4550  144.6900 C   0  0  1  0  0  3  0  0  0  0  0  0
  183.8080  178.6610  143.8270 C   0  0  0  0  0  2  0  0  0  0  0  0
  184.4230  178.2390  142.6460 O   0  0  0  0  0  1  0  0  0  0  0  0
  194.4430  172.7040  139.5040 O   0  0  0  0  0  0  0  0  0  0  0  0
  192.7150  172.1880  137.7350 C   0  0  1  0  0  3  0  0  0  0  0  0
  193.2100  173.0610  138.8750 C   0  0  2  0  0  0  0  0  0  0  0  0
  193.3470  173.5490  137.4420 C   0  0  2  0  0  3  0  0  0  0  0  0
  193.6370  171.1800  137.4510 O   0  0  0  0  0  1  0  0  0  0  0  0
  192.8290  175.7690  136.7520 O   0  0  0  0  0  1  0  0  0  0  0  0
  192.2560  174.5350  137.0540 C   0  0  0  0  0  2  0  0  0  0  0  0
  192.2360  173.7030  139.6610 O   0  0  0  0  0  0  0  0  0  0  0  0
  191.3080  172.7190  140.0360 C   0  0  1  0  0  3  0  0  0  0  0  0
  191.6840  172.1640  141.2760 O   0  0  0  0  0  0  0  0  0  0  0  0
  190.5940  173.0540  141.3030 C   0  0  1  0  0  3  0  0  0  0  0  0
  191.0320  174.3700  141.9520 C   0  0  0  0  0  2  0  0  0  0  0  0
  189.3130  177.5420  142.8290 C   0  0  0  0  0  3  0  0  0  0  0  0
  187.8170  176.3090  141.2680 C   0  0  0  0  0  2  0  0  0  0  0  0
  188.5690  175.0330  141.6420 C   0  0  0  0  0  2  0  0  0  0  0  0
  190.2530  176.6070  142.6660 C   0  0  0  0  0  3  0  0  0  0  0  0
  187.8870  177.2840  142.4370 C   0  0  0  0  0  2  0  0  0  0  0  0
  189.9430  175.3440  142.0590 N   0  0  0  0  0  0  0  0  0  0  0  0
  1  5  1  0  0  0  0
  2  7  1  0  0  0  0
  3  1  1  0  0  0  0
  3  4  1  0  0  0  0
  4  8  1  0  0  0  0
  5  8  2  0  0  0  0
  5 12  1  0  0  0  0
  6  3  2  0  0  0  0
  7  1  2  0  0  0  0
  9  2  2  0  0  0  0
  9  6  1  0  0  0  0
 10 11  2  0  0  0  0
 12 11  1  0  0  0  0
 13 18  1  6  0  0  0
 13 15  1  0  0  0  0
 14 17  1  0  0  0  0
 14 13  1  0  0  0  0
 16 15  1  0  0  0  0
 17 11  1  6  0  0  0
 17 16  1  0  0  0  0
 18 20  1  0  0  0  0
 19 18  2  0  0  0  0
 21 23  1  0  0  0  0
 22 21  2  0  0  0  0
 22 24  1  0  0  0  0
 23 20  1  0  0  0  0
 23 25  2  0  0  0  0
 24 25  1  0  0  0  0
 27 26  1  6  0  0  0
 27 22  1  0  0  0  0
 28 27  1  0  0  0  0
 29 28  1  0  0  0  0
 30  2  1  0  0  0  0
 31 34  1  6  0  0  0
 31 32  1  0  0  0  0
 32 30  1  1  0  0  0
 32 37  1  0  0  0  0
 33 36  1  1  0  0  0
 33 31  1  0  0  0  0
 33 32  1  0  0  0  0
 35 36  1  0  0  0  0
 38 37  1  1  0  0  0
 38 39  1  0  0  0  0
 38 40  1  0  0  0  0
 39 40  1  0  0  0  0
 40 41  1  1  0  0  0
 41 47  1  0  0  0  0
 43 44  1  0  0  0  0
 43 46  1  0  0  0  0
 44 47  1  0  0  0  0
 45 42  2  0  0  0  0
 46 42  1  0  0  0  0
 47 45  1  0  0  0  0
M  END
>  <MODEL>
5

>  <REMARK>
 VINA RESULT:      -7.0      2.426      7.732
  Name = 
  13 active torsions:
  status: ('A' for Active; 'I' for Inactive)
    1  A    between atoms: C_6  and  C_26
    2  A    between atoms: O_7  and  C_9
    3  A    between atoms: O_7  and  C_25
    4  A    between atoms: C_8  and  N_45
    5  A    between atoms: C_11  and  O_28
    6  A    between atoms: C_12  and  C_26
    7  A    between atoms: C_15  and  C_39
    8  A    between atoms: C_17  and  C_23
    9  A    between atoms: C_18  and  N_44
   10  A    between atoms: C_25  and  O_28
   11  A    between atoms: C_27  and  C_35
   12  A    between atoms: C_34  and  C_36
   13  A    between atoms: C_35  and  N_46
                            x       y       z     vdW  Elec       q    Type
                         _______ _______ _______ _____ _____    ______ ____

>  <TORSDO>
F 13

$$$$
=
 OpenBabel11072409063D

 47 53  0  0  1  0  0  0  0  0999 V2000
  193.0600  170.4570  144.0990 C   0  0  0  0  0  0  0  0  0  0  0  0
  191.5040  169.8420  142.3770 C   0  0  0  0  0  0  0  0  0  0  0  0
  193.5680  169.1870  144.1180 C   0  0  0  0  0  0  0  0  0  0  0  0
  194.5600  169.0940  144.9720 O   0  0  0  0  0  0  0  0  0  0  0  0
  193.8070  171.1650  145.0180 C   0  0  0  0  0  0  0  0  0  0  0  0
  193.0680  168.1830  143.2950 C   0  0  0  0  0  3  0  0  0  0  0  0
  192.0370  170.8280  143.2270 C   0  0  0  0  0  3  0  0  0  0  0  0
  194.7470  170.2780  145.5310 C   0  0  0  0  0  3  0  0  0  0  0  0
  192.0200  168.5210  142.4200 C   0  0  0  0  0  3  0  0  0  0  0  0
  194.9760  173.4090  143.5180 O   0  0  0  0  0  0  0  0  0  0  0  0
  194.4660  173.6040  144.6550 C   0  0  0  0  0  0  0  0  0  0  0  0
  193.7540  172.5620  145.3290 N   0  0  0  0  0  2  0  0  0  0  0  0
  193.2450  176.4040  146.5560 C   0  0  1  0  0  3  0  0  0  0  0  0
  193.6790  175.0160  146.4600 N   0  0  0  0  0  2  0  0  0  0  0  0
  193.4300  177.0680  145.2030 C   0  0  0  0  0  2  0  0  0  0  0  0
  194.0840  176.0280  144.3260 C   0  0  0  0  0  2  0  0  0  0  0  0
  194.5390  174.9530  145.2870 C   0  0  2  0  0  3  0  0  0  0  0  0
  191.8180  176.4730  146.9870 C   0  0  0  0  0  0  0  0  0  0  0  0
  191.5300  176.5070  148.2140 O   0  0  0  0  0  0  0  0  0  0  0  0
  190.7920  176.4880  145.9880 N   0  0  0  0  0  2  0  0  0  0  0  0
  188.7790  177.5460  146.9830 C   0  0  0  0  0  3  0  0  0  0  0  0
  187.4430  177.1860  146.9470 C   0  0  0  0  0  0  0  0  0  0  0  0
  189.3850  176.5540  146.2440 C   0  0  0  0  0  0  0  0  0  0  0  0
  187.2650  176.0890  146.2490 O   0  0  0  0  0  0  0  0  0  0  0  0
  188.4240  175.6660  145.8000 C   0  0  0  0  0  3  0  0  0  0  0  0
  186.8020  179.0430  148.2980 O   0  0  0  0  0  1  0  0  0  0  0  0
  186.3170  177.9470  147.5790 C   0  0  1  0  0  3  0  0  0  0  0  0
  185.2980  178.3970  146.5370 C   0  0  0  0  0  2  0  0  0  0  0  0
  185.7830  179.4860  145.8080 O   0  0  0  0  0  1  0  0  0  0  0  0
  190.4710  170.1930  141.5010 O   0  0  0  0  0  0  0  0  0  0  0  0
  190.5080  170.8330  139.0570 C   0  0  1  0  0  3  0  0  0  0  0  0
  190.5950  171.2270  140.5210 C   0  0  2  0  0  0  0  0  0  0  0  0
  191.8630  171.1600  139.6860 C   0  0  2  0  0  3  0  0  0  0  0  0
  190.3820  169.4490  138.9270 O   0  0  0  0  0  1  0  0  0  0  0  0
  193.3880  172.9640  139.9890 O   0  0  0  0  0  1  0  0  0  0  0  0
  192.3200  172.5290  139.2070 C   0  0  0  0  0  2  0  0  0  0  0  0
  190.1440  172.5130  140.8680 O   0  0  0  0  0  0  0  0  0  0  0  0
  188.8780  172.6680  140.2810 C   0  0  1  0  0  3  0  0  0  0  0  0
  187.8900  172.6650  141.2850 O   0  0  0  0  0  0  0  0  0  0  0  0
  188.1900  173.9180  140.7190 C   0  0  1  0  0  3  0  0  0  0  0  0
  188.9750  174.7560  141.7320 C   0  0  0  0  0  2  0  0  0  0  0  0
  186.1300  176.8560  142.8630 C   0  0  0  0  0  3  0  0  0  0  0  0
  188.2020  178.1910  143.2030 C   0  0  0  0  0  2  0  0  0  0  0  0
  188.8890  177.2840  142.1840 C   0  0  0  0  0  2  0  0  0  0  0  0
  186.8670  175.8070  142.4900 C   0  0  0  0  0  3  0  0  0  0  0  0
  186.7100  178.2400  142.8950 C   0  0  0  0  0  2  0  0  0  0  0  0
  188.2560  175.9580  142.1600 N   0  0  0  0  0  0  0  0  0  0  0  0
  1  3  1  0  0  0  0
  1  5  1  0  0  0  0
  2  9  2  0  0  0  0
  2  7  1  0  0  0  0
  3  4  1  0  0  0  0
  4  8  1  0  0  0  0
  5 12  1  0  0  0  0
  5  8  2  0  0  0  0
  6  3  2  0  0  0  0
  7  1  2  0  0  0  0
  9  6  1  0  0  0  0
 10 11  2  0  0  0  0
 11 12  1  0  0  0  0
 13 18  1  6  0  0  0
 14 13  1  0  0  0  0
 15 13  1  0  0  0  0
 16 15  1  0  0  0  0
 16 17  1  0  0  0  0
 17 11  1  6  0  0  0
 17 14  1  0  0  0  0
 18 19  2  0  0  0  0
 20 23  1  0  0  0  0
 20 18  1  0  0  0  0
 22 21  2  0  0  0  0
 22 27  1  0  0  0  0
 23 21  1  0  0  0  0
 24 22  1  0  0  0  0
 25 23  2  0  0  0  0
 25 24  1  0  0  0  0
 27 26  1  6  0  0  0
 28 27  1  0  0  0  0
 29 28  1  0  0  0  0
 30  2  1  0  0  0  0
 31 34  1  1  0  0  0
 31 33  1  0  0  0  0
 31 32  1  0  0  0  0
 32 37  1  1  0  0  0
 32 30  1  0  0  0  0
 33 36  1  6  0  0  0
 33 32  1  0  0  0  0
 36 35  1  0  0  0  0
 38 40  1  0  0  0  0
 38 37  1  1  0  0  0
 38 39  1  0  0  0  0
 40 39  1  0  0  0  0
 40 41  1  1  0  0  0
 41 47  1  0  0  0  0
 42 46  1  0  0  0  0
 44 43  1  0  0  0  0
 45 42  2  0  0  0  0
 46 43  1  0  0  0  0
 47 44  1  0  0  0  0
 47 45  1  0  0  0  0
M  END
>  <MODEL>
6

>  <REMARK>
 VINA RESULT:      -7.0      3.091      7.247
  Name = 
  13 active torsions:
  status: ('A' for Active; 'I' for Inactive)
    1  A    between atoms: C_6  and  C_26
    2  A    between atoms: O_7  and  C_9
    3  A    between atoms: O_7  and  C_25
    4  A    between atoms: C_8  and  N_45
    5  A    between atoms: C_11  and  O_28
    6  A    between atoms: C_12  and  C_26
    7  A    between atoms: C_15  and  C_39
    8  A    between atoms: C_17  and  C_23
    9  A    between atoms: C_18  and  N_44
   10  A    between atoms: C_25  and  O_28
   11  A    between atoms: C_27  and  C_35
   12  A    between atoms: C_34  and  C_36
   13  A    between atoms: C_35  and  N_46
                            x       y       z     vdW  Elec       q    Type
                         _______ _______ _______ _____ _____    ______ ____

>  <TORSDO>
F 13

$$$$
=
 OpenBabel11072409063D

 47 53  0  0  1  0  0  0  0  0999 V2000
  192.6220  176.0100  145.3800 C   0  0  0  0  0  0  0  0  0  0  0  0
  190.4720  174.9750  145.1160 C   0  0  0  0  0  0  0  0  0  0  0  0
  192.3790  176.2170  146.7100 C   0  0  0  0  0  0  0  0  0  0  0  0
  193.4140  176.7740  147.2930 O   0  0  0  0  0  0  0  0  0  0  0  0
  193.8970  176.4890  145.1610 C   0  0  0  0  0  0  0  0  0  0  0  0
  191.1800  175.8380  147.3060 C   0  0  0  0  0  3  0  0  0  0  0  0
  191.6970  175.3750  144.5520 C   0  0  0  0  0  3  0  0  0  0  0  0
  194.3650  176.9440  146.3890 C   0  0  0  0  0  3  0  0  0  0  0  0
  190.2180  175.2140  146.4910 C   0  0  0  0  0  3  0  0  0  0  0  0
  195.1770  174.1480  143.9220 O   0  0  0  0  0  0  0  0  0  0  0  0
  195.4100  175.3070  143.4800 C   0  0  0  0  0  0  0  0  0  0  0  0
  194.6790  176.4380  143.9620 N   0  0  0  0  0  2  0  0  0  0  0  0
  196.5780  175.3860  140.0770 C   0  0  1  0  0  3  0  0  0  0  0  0
  195.7480  175.9060  141.1570 N   0  0  0  0  0  2  0  0  0  0  0  0
  197.4550  174.2740  140.6290 C   0  0  0  0  0  2  0  0  0  0  0  0
  197.1680  174.2270  142.1090 C   0  0  0  0  0  2  0  0  0  0  0  0
  196.4090  175.5050  142.3900 C   0  0  2  0  0  3  0  0  0  0  0  0
  195.7240  174.8800  138.9620 C   0  0  0  0  0  0  0  0  0  0  0  0
  196.2120  174.1040  138.0960 O   0  0  0  0  0  0  0  0  0  0  0  0
  194.3580  175.3010  138.8900 N   0  0  0  0  0  2  0  0  0  0  0  0
  192.7010  173.7260  137.9210 C   0  0  0  0  0  3  0  0  0  0  0  0
  191.9450  173.7910  136.7640 C   0  0  0  0  0  0  0  0  0  0  0  0
  193.4180  174.9020  137.8860 C   0  0  0  0  0  0  0  0  0  0  0  0
  192.1810  174.9000  136.1030 O   0  0  0  0  0  0  0  0  0  0  0  0
  193.0750  175.6100  136.7500 C   0  0  0  0  0  3  0  0  0  0  0  0
  191.5970  171.6470  135.7800 O   0  0  0  0  0  1  0  0  0  0  0  0
  190.9500  172.7640  136.3140 C   0  0  1  0  0  3  0  0  0  0  0  0
  190.0230  172.3540  137.4530 C   0  0  0  0  0  2  0  0  0  0  0  0
  189.7010  170.9970  137.3650 O   0  0  0  0  0  1  0  0  0  0  0  0
  189.5280  174.3430  144.2990 O   0  0  0  0  0  0  0  0  0  0  0  0
  189.3780  172.6870  142.3960 C   0  0  1  0  0  3  0  0  0  0  0  0
  189.7540  174.0640  142.9160 C   0  0  2  0  0  0  0  0  0  0  0  0
  190.8450  173.0400  142.6440 C   0  0  2  0  0  3  0  0  0  0  0  0
  188.9150  171.8790  143.4370 O   0  0  0  0  0  1  0  0  0  0  0  0
  192.7440  173.9300  141.5170 O   0  0  0  0  0  1  0  0  0  0  0  0
  191.5370  173.2640  141.3100 C   0  0  0  0  0  2  0  0  0  0  0  0
  189.6670  175.1370  142.0100 O   0  0  0  0  0  0  0  0  0  0  0  0
  188.4510  174.9880  141.3250 C   0  0  1  0  0  3  0  0  0  0  0  0
  187.3800  175.2380  142.2070 O   0  0  0  0  0  0  0  0  0  0  0  0
  187.6610  176.2540  141.2750 C   0  0  1  0  0  3  0  0  0  0  0  0
  188.3090  177.4380  141.9970 C   0  0  0  0  0  2  0  0  0  0  0  0
  185.5680  179.2000  143.7760 C   0  0  0  0  0  3  0  0  0  0  0  0
  186.7010  177.7430  145.4450 C   0  0  0  0  0  2  0  0  0  0  0  0
  187.9180  177.7230  144.5210 C   0  0  0  0  0  2  0  0  0  0  0  0
  186.3370  178.6920  142.8100 C   0  0  0  0  0  3  0  0  0  0  0  0
  185.9330  179.0400  145.2230 C   0  0  0  0  0  2  0  0  0  0  0  0
  187.5110  177.9280  143.1230 N   0  0  0  0  0  0  0  0  0  0  0  0
  1  3  1  0  0  0  0
  2  9  2  0  0  0  0
  3  4  1  0  0  0  0
  3  6  2  0  0  0  0
  5  1  1  0  0  0  0
  5  8  2  0  0  0  0
  7  2  1  0  0  0  0
  7  1  2  0  0  0  0
  8  4  1  0  0  0  0
  9  6  1  0  0  0  0
 11 10  2  0  0  0  0
 11 12  1  0  0  0  0
 12  5  1  0  0  0  0
 13 18  1  6  0  0  0
 13 15  1  0  0  0  0
 13 14  1  0  0  0  0
 14 17  1  0  0  0  0
 15 16  1  0  0  0  0
 16 17  1  0  0  0  0
 17 11  1  1  0  0  0
 19 18  2  0  0  0  0
 20 18  1  0  0  0  0
 22 21  2  0  0  0  0
 23 21  1  0  0  0  0
 23 20  1  0  0  0  0
 24 25  1  0  0  0  0
 24 22  1  0  0  0  0
 25 23  2  0  0  0  0
 27 26  1  1  0  0  0
 27 22  1  0  0  0  0
 27 28  1  0  0  0  0
 29 28  1  0  0  0  0
 30  2  1  0  0  0  0
 31 33  1  0  0  0  0
 31 32  1  0  0  0  0
 31 34  1  1  0  0  0
 32 37  1  6  0  0  0
 32 30  1  0  0  0  0
 33 36  1  6  0  0  0
 33 32  1  0  0  0  0
 36 35  1  0  0  0  0
 38 37  1  1  0  0  0
 38 39  1  0  0  0  0
 40 38  1  0  0  0  0
 40 41  1  1  0  0  0
 40 39  1  0  0  0  0
 41 47  1  0  0  0  0
 42 46  1  0  0  0  0
 44 43  1  0  0  0  0
 45 47  1  0  0  0  0
 45 42  2  0  0  0  0
 46 43  1  0  0  0  0
 47 44  1  0  0  0  0
M  END
>  <MODEL>
7

>  <REMARK>
 VINA RESULT:      -6.9      1.719      2.994
  Name = 
  13 active torsions:
  status: ('A' for Active; 'I' for Inactive)
    1  A    between atoms: C_6  and  C_26
    2  A    between atoms: O_7  and  C_9
    3  A    between atoms: O_7  and  C_25
    4  A    between atoms: C_8  and  N_45
    5  A    between atoms: C_11  and  O_28
    6  A    between atoms: C_12  and  C_26
    7  A    between atoms: C_15  and  C_39
    8  A    between atoms: C_17  and  C_23
    9  A    between atoms: C_18  and  N_44
   10  A    between atoms: C_25  and  O_28
   11  A    between atoms: C_27  and  C_35
   12  A    between atoms: C_34  and  C_36
   13  A    between atoms: C_35  and  N_46
                            x       y       z     vdW  Elec       q    Type
                         _______ _______ _______ _____ _____    ______ ____

>  <TORSDO>
F 13

$$$$
=
 OpenBabel11072409063D

 47 53  0  0  1  0  0  0  0  0999 V2000
  193.2510  171.1300  142.9130 C   0  0  0  0  0  0  0  0  0  0  0  0
  194.9320  172.6320  143.7400 C   0  0  0  0  0  0  0  0  0  0  0  0
  193.7350  170.1260  143.7070 C   0  0  0  0  0  0  0  0  0  0  0  0
  193.0080  169.0400  143.5790 O   0  0  0  0  0  0  0  0  0  0  0  0
  192.1600  170.5920  142.2630 C   0  0  0  0  0  0  0  0  0  0  0  0
  194.8390  170.3080  144.5340 C   0  0  0  0  0  3  0  0  0  0  0  0
  193.8150  172.4050  142.9160 C   0  0  0  0  0  3  0  0  0  0  0  0
  192.0320  169.2850  142.7200 C   0  0  0  0  0  3  0  0  0  0  0  0
  195.4420  171.5790  144.5420 C   0  0  0  0  0  3  0  0  0  0  0  0
  192.5810  171.4240  139.4730 O   0  0  0  0  0  0  0  0  0  0  0  0
  191.5310  171.7630  140.0850 C   0  0  0  0  0  0  0  0  0  0  0  0
  191.2340  171.2390  141.3830 N   0  0  0  0  0  2  0  0  0  0  0  0
  188.8940  174.2100  139.9770 C   0  0  1  0  0  3  0  0  0  0  0  0
  190.2680  173.8230  140.2720 N   0  0  0  0  0  2  0  0  0  0  0  0
  188.1810  173.0290  139.3400 C   0  0  0  0  0  2  0  0  0  0  0  0
  189.2300  171.9550  139.1890 C   0  0  0  0  0  2  0  0  0  0  0  0
  190.5420  172.6670  139.4300 C   0  0  2  0  0  3  0  0  0  0  0  0
  188.1950  174.6380  141.2240 C   0  0  0  0  0  0  0  0  0  0  0  0
  188.0310  173.8190  142.1680 O   0  0  0  0  0  0  0  0  0  0  0  0
  187.7080  175.9810  141.3200 N   0  0  0  0  0  2  0  0  0  0  0  0
  187.1400  177.8480  142.8530 C   0  0  0  0  0  3  0  0  0  0  0  0
  186.3060  177.9050  143.9570 C   0  0  0  0  0  0  0  0  0  0  0  0
  187.0230  176.5370  142.4470 C   0  0  0  0  0  0  0  0  0  0  0  0
  185.7400  176.7430  144.1850 O   0  0  0  0  0  0  0  0  0  0  0  0
  186.1490  175.8760  143.2880 C   0  0  0  0  0  3  0  0  0  0  0  0
  185.5670  180.1720  143.9810 O   0  0  0  0  0  1  0  0  0  0  0  0
  186.0340  179.1260  144.7810 C   0  0  1  0  0  3  0  0  0  0  0  0
  185.0460  178.8280  145.9050 C   0  0  0  0  0  2  0  0  0  0  0  0
  185.7200  178.5170  147.0880 O   0  0  0  0  0  1  0  0  0  0  0  0
  195.5160  173.9040  143.7500 O   0  0  0  0  0  0  0  0  0  0  0  0
  195.5800  176.3950  144.1680 C   0  0  1  0  0  3  0  0  0  0  0  0
  194.8260  175.0770  144.1870 C   0  0  2  0  0  0  0  0  0  0  0  0
  195.3390  175.6660  145.4900 C   0  0  2  0  0  3  0  0  0  0  0  0
  196.9030  176.1990  143.7670 O   0  0  0  0  0  1  0  0  0  0  0  0
  193.4340  175.4610  146.9050 O   0  0  0  0  0  1  0  0  0  0  0  0
  194.2550  176.3920  146.2710 C   0  0  0  0  0  2  0  0  0  0  0  0
  193.4350  175.1310  143.9840 O   0  0  0  0  0  0  0  0  0  0  0  0
  193.1990  176.1860  143.0890 C   0  0  1  0  0  3  0  0  0  0  0  0
  192.6180  175.6810  141.9080 O   0  0  0  0  0  0  0  0  0  0  0  0
  191.7490  176.3650  142.7790 C   0  0  1  0  0  3  0  0  0  0  0  0
  190.8230  175.3560  143.4640 C   0  0  0  0  0  2  0  0  0  0  0  0
  188.5760  175.4730  146.4180 C   0  0  0  0  0  3  0  0  0  0  0  0
  189.8690  177.5990  146.4010 C   0  0  0  0  0  2  0  0  0  0  0  0
  190.1350  177.3620  144.9150 C   0  0  0  0  0  2  0  0  0  0  0  0
  189.2890  175.0310  145.3780 C   0  0  0  0  0  3  0  0  0  0  0  0
  188.5540  176.9290  146.7810 C   0  0  0  0  0  2  0  0  0  0  0  0
  190.1020  175.9260  144.6050 N   0  0  0  0  0  0  0  0  0  0  0  0
  1  7  2  0  0  0  0
  1  3  1  0  0  0  0
  2 30  1  0  0  0  0
  2  9  2  0  0  0  0
  3  6  2  0  0  0  0
  4  3  1  0  0  0  0
  5  8  2  0  0  0  0
  5  1  1  0  0  0  0
  6  9  1  0  0  0  0
  7  2  1  0  0  0  0
  8  4  1  0  0  0  0
 10 11  2  0  0  0  0
 11 12  1  0  0  0  0
 12  5  1  0  0  0  0
 13 14  1  0  0  0  0
 13 18  1  1  0  0  0
 15 13  1  0  0  0  0
 16 15  1  0  0  0  0
 16 17  1  0  0  0  0
 17 11  1  1  0  0  0
 17 14  1  0  0  0  0
 18 20  1  0  0  0  0
 18 19  2  0  0  0  0
 20 23  1  0  0  0  0
 21 22  2  0  0  0  0
 22 24  1  0  0  0  0
 22 27  1  0  0  0  0
 23 21  1  0  0  0  0
 23 25  2  0  0  0  0
 25 24  1  0  0  0  0
 27 26  1  6  0  0  0
 27 28  1  0  0  0  0
 28 29  1  0  0  0  0
 31 34  1  6  0  0  0
 31 32  1  0  0  0  0
 31 33  1  0  0  0  0
 32 30  1  6  0  0  0
 32 33  1  0  0  0  0
 33 36  1  1  0  0  0
 36 35  1  0  0  0  0
 37 32  1  0  0  0  0
 38 37  1  1  0  0  0
 39 40  1  0  0  0  0
 39 38  1  0  0  0  0
 40 38  1  0  0  0  0
 40 41  1  1  0  0  0
 41 47  1  0  0  0  0
 42 46  1  0  0  0  0
 43 46  1  0  0  0  0
 44 43  1  0  0  0  0
 45 42  2  0  0  0  0
 47 44  1  0  0  0  0
 47 45  1  0  0  0  0
M  END
>  <MODEL>
8

>  <REMARK>
 VINA RESULT:      -6.9      2.994      8.268
  Name = 
  13 active torsions:
  status: ('A' for Active; 'I' for Inactive)
    1  A    between atoms: C_6  and  C_26
    2  A    between atoms: O_7  and  C_9
    3  A    between atoms: O_7  and  C_25
    4  A    between atoms: C_8  and  N_45
    5  A    between atoms: C_11  and  O_28
    6  A    between atoms: C_12  and  C_26
    7  A    between atoms: C_15  and  C_39
    8  A    between atoms: C_17  and  C_23
    9  A    between atoms: C_18  and  N_44
   10  A    between atoms: C_25  and  O_28
   11  A    between atoms: C_27  and  C_35
   12  A    between atoms: C_34  and  C_36
   13  A    between atoms: C_35  and  N_46
                            x       y       z     vdW  Elec       q    Type
                         _______ _______ _______ _____ _____    ______ ____

>  <TORSDO>
F 13

$$$$
=
 OpenBabel11072409063D

 47 53  0  0  1  0  0  0  0  0999 V2000
  189.3090  175.7240  142.0790 C   0  0  0  0  0  0  0  0  0  0  0  0
  190.8390  177.0680  143.3500 C   0  0  0  0  0  0  0  0  0  0  0  0
  188.6140  176.8410  141.7030 C   0  0  0  0  0  0  0  0  0  0  0  0
  187.6290  176.5260  140.8940 O   0  0  0  0  0  0  0  0  0  0  0  0
  188.6810  174.6700  141.4480 C   0  0  0  0  0  0  0  0  0  0  0  0
  188.9740  178.1120  142.1380 C   0  0  0  0  0  3  0  0  0  0  0  0
  190.4410  175.7990  142.8900 C   0  0  0  0  0  3  0  0  0  0  0  0
  187.6430  175.2180  140.7020 C   0  0  0  0  0  3  0  0  0  0  0  0
  190.0990  178.2180  142.9750 C   0  0  0  0  0  3  0  0  0  0  0  0
  190.9170  173.4120  140.0090 O   0  0  0  0  0  0  0  0  0  0  0  0
  190.0550  172.6980  140.5920 C   0  0  0  0  0  0  0  0  0  0  0  0
  189.0550  173.2880  141.4270 N   0  0  0  0  0  2  0  0  0  0  0  0
  191.2930  169.3960  141.3100 C   0  0  1  0  0  3  0  0  0  0  0  0
  190.6060  170.6190  141.7080 N   0  0  0  0  0  2  0  0  0  0  0  0
  191.6400  169.4900  139.8340 C   0  0  0  0  0  2  0  0  0  0  0  0
  191.0400  170.7900  139.3580 C   0  0  0  0  0  2  0  0  0  0  0  0
  190.1110  171.2120  140.4740 C   0  0  2  0  0  3  0  0  0  0  0  0
  192.5250  169.2010  142.1300 C   0  0  0  0  0  0  0  0  0  0  0  0
  193.4230  168.4070  141.7390 O   0  0  0  0  0  0  0  0  0  0  0  0
  192.6580  169.9170  143.3620 N   0  0  0  0  0  2  0  0  0  0  0  0
  194.8640  170.6820  144.2050 C   0  0  0  0  0  3  0  0  0  0  0  0
  195.6580  170.2210  145.2410 C   0  0  0  0  0  0  0  0  0  0  0  0
  193.7770  169.8370  144.2520 C   0  0  0  0  0  0  0  0  0  0  0  0
  195.0980  169.2040  145.8530 O   0  0  0  0  0  0  0  0  0  0  0  0
  193.9460  168.9330  145.2830 C   0  0  0  0  0  3  0  0  0  0  0  0
  197.9010  170.7350  144.6190 O   0  0  0  0  0  1  0  0  0  0  0  0
  196.9720  170.8070  145.6600 C   0  0  1  0  0  3  0  0  0  0  0  0
  196.8110  172.2460  146.1370 C   0  0  0  0  0  2  0  0  0  0  0  0
  197.1300  173.1450  145.1160 O   0  0  0  0  0  1  0  0  0  0  0  0
  191.9690  177.1630  144.1720 O   0  0  0  0  0  0  0  0  0  0  0  0
  193.5040  176.4580  146.0500 C   0  0  1  0  0  3  0  0  0  0  0  0
  192.2290  176.2610  145.2500 C   0  0  2  0  0  0  0  0  0  0  0  0
  193.4070  175.3270  145.0260 C   0  0  2  0  0  3  0  0  0  0  0  0
  194.2640  177.5010  145.5160 O   0  0  0  0  0  1  0  0  0  0  0  0
  192.5190  173.1180  144.9660 O   0  0  0  0  0  1  0  0  0  0  0  0
  193.2500  174.0030  145.7560 C   0  0  0  0  0  2  0  0  0  0  0  0
  191.1230  175.7170  145.9290 O   0  0  0  0  0  0  0  0  0  0  0  0
  190.8960  176.5340  147.0480 C   0  0  1  0  0  3  0  0  0  0  0  0
  190.0860  177.6260  146.6770 O   0  0  0  0  0  0  0  0  0  0  0  0
  189.4530  176.6120  147.4200 C   0  0  1  0  0  3  0  0  0  0  0  0
  188.5150  175.8230  146.5010 C   0  0  0  0  0  2  0  0  0  0  0  0
  185.8810  177.4400  144.4440 C   0  0  0  0  0  3  0  0  0  0  0  0
  184.9660  177.2030  146.7460 C   0  0  0  0  0  2  0  0  0  0  0  0
  186.4040  177.0830  147.2470 C   0  0  0  0  0  2  0  0  0  0  0  0
  186.9760  176.7690  144.8100 C   0  0  0  0  0  3  0  0  0  0  0  0
  184.9550  178.0310  145.4670 C   0  0  0  0  0  2  0  0  0  0  0  0
  187.2760  176.5420  146.1950 N   0  0  0  0  0  0  0  0  0  0  0  0
  1  7  1  0  0  0  0
  2 30  1  0  0  0  0
  3  1  2  0  0  0  0
  3  6  1  0  0  0  0
  4  3  1  0  0  0  0
  5  1  1  0  0  0  0
  6  9  2  0  0  0  0
  7  2  2  0  0  0  0
  8  4  1  0  0  0  0
  8  5  2  0  0  0  0
  9  2  1  0  0  0  0
 10 11  2  0  0  0  0
 11 12  1  0  0  0  0
 12  5  1  0  0  0  0
 13 14  1  0  0  0  0
 13 18  1  1  0  0  0
 15 13  1  0  0  0  0
 16 15  1  0  0  0  0
 16 17  1  0  0  0  0
 17 11  1  1  0  0  0
 17 14  1  0  0  0  0
 18 20  1  0  0  0  0
 19 18  2  0  0  0  0
 20 23  1  0  0  0  0
 21 23  1  0  0  0  0
 21 22  2  0  0  0  0
 22 27  1  0  0  0  0
 22 24  1  0  0  0  0
 23 25  2  0  0  0  0
 25 24  1  0  0  0  0
 27 26  1  6  0  0  0
 27 28  1  0  0  0  0
 29 28  1  0  0  0  0
 31 34  1  6  0  0  0
 32 30  1  6  0  0  0
 32 37  1  0  0  0  0
 32 31  1  0  0  0  0
 33 32  1  0  0  0  0
 33 36  1  1  0  0  0
 33 31  1  0  0  0  0
 35 36  1  0  0  0  0
 38 37  1  6  0  0  0
 38 40  1  0  0  0  0
 39 38  1  0  0  0  0
 39 40  1  0  0  0  0
 40 41  1  6  0  0  0
 42 45  2  0  0  0  0
 42 46  1  0  0  0  0
 43 44  1  0  0  0  0
 45 47  1  0  0  0  0
 46 43  1  0  0  0  0
 47 41  1  0  0  0  0
 47 44  1  0  0  0  0
M  END
>  <MODEL>
9

>  <REMARK>
 VINA RESULT:      -6.9      3.303      6.695
  Name = 
  13 active torsions:
  status: ('A' for Active; 'I' for Inactive)
    1  A    between atoms: C_6  and  C_26
    2  A    between atoms: O_7  and  C_9
    3  A    between atoms: O_7  and  C_25
    4  A    between atoms: C_8  and  N_45
    5  A    between atoms: C_11  and  O_28
    6  A    between atoms: C_12  and  C_26
    7  A    between atoms: C_15  and  C_39
    8  A    between atoms: C_17  and  C_23
    9  A    between atoms: C_18  and  N_44
   10  A    between atoms: C_25  and  O_28
   11  A    between atoms: C_27  and  C_35
   12  A    between atoms: C_34  and  C_36
   13  A    between atoms: C_35  and  N_46
                            x       y       z     vdW  Elec       q    Type
                         _______ _______ _______ _____ _____    ______ ____

>  <TORSDO>
F 13

$$$$
