=
 OpenBabel11062421263D

 31 34  0  0  1  0  0  0  0  0999 V2000
  187.4140  177.5650  141.9980 C   0  0  0  0  0  0  0  0  0  0  0  0
  189.7120  177.6740  142.8510 C   0  0  0  0  0  2  0  0  0  0  0  0
  189.7400  176.1650  142.8420 C   0  0  0  0  0  0  0  0  0  0  0  0
  187.5950  173.2930  141.8110 N   0  0  0  0  0  1  0  0  0  0  0  0
  188.6430  175.4440  142.3500 C   0  0  0  0  0  0  0  0  0  0  0  0
  188.6990  174.0450  142.3050 C   0  0  0  0  0  0  0  0  0  0  0  0
  189.8120  173.3980  142.7380 N   0  0  0  0  0  0  0  0  0  0  0  0
  190.8820  175.4750  143.2800 C   0  0  0  0  0  0  0  0  0  0  0  0
  188.4210  178.2470  142.4510 N   0  0  0  0  0  0  0  0  0  0  0  0
  190.8900  174.0740  143.2180 C   0  0  0  0  0  3  0  0  0  0  0  0
  187.4780  176.1420  141.9120 N   0  0  0  0  0  2  0  0  0  0  0  0
  186.1590  178.2680  141.6190 C   0  0  0  0  0  2  0  0  0  0  0  0
  184.3490  178.1580  143.4260 C   0  0  2  0  0  3  0  0  0  0  0  0
  184.9530  177.5390  142.2040 C   0  0  1  0  0  3  0  0  0  0  0  0
  183.8270  178.3800  142.1370 O   0  0  0  0  0  0  0  0  0  0  0  0
  185.0230  179.4360  143.9220 C   0  0  0  0  0  2  0  0  0  0  0  0
  185.6660  179.2050  145.2770 C   0  0  0  0  0  2  0  0  0  0  0  0
  185.1270  177.9360  145.9140 C   0  0  0  0  0  2  0  0  0  0  0  0
  187.1460  176.5720  145.4010 O   0  0  0  0  0  0  0  0  0  0  0  0
  186.2540  177.0650  146.3420 C   0  0  0  0  0  0  0  0  0  0  0  0
  186.4160  176.7990  147.5620 O   0  0  0  0  0  1  0  0  0  0  0  0
  192.0190  176.2010  143.7720 N   0  0  0  0  0  2  0  0  0  0  0  0
  193.1660  175.9770  145.8820 N   0  0  0  0  0  0  0  0  0  0  0  0
  194.4990  175.9390  146.5100 C   0  0  0  0  0  2  0  0  0  0  0  0
  195.6720  175.2940  144.3810 C   0  0  0  0  0  2  0  0  0  0  0  0
  195.4390  174.9300  145.8480 C   0  0  0  0  0  2  0  0  0  0  0  0
  194.4700  175.9930  143.7420 C   0  0  0  0  0  2  0  0  0  0  0  0
  193.1680  175.6080  144.4530 C   0  0  2  0  0  3  0  0  0  0  0  0
  192.3270  175.0120  146.5800 C   0  0  0  0  0  2  0  0  0  0  0  0
  191.1920  175.7250  147.2960 C   0  0  0  0  0  2  0  0  0  0  0  0
  189.8760  175.0210  147.0240 C   0  0  0  0  0  1  0  0  0  0  0  0
  1  9  2  0  0  0  0
  3  2  1  0  0  0  0
  3  8  1  0  0  0  0
  4  6  1  0  0  0  0
  5  3  2  0  0  0  0
  6  5  1  0  0  0  0
  6  7  2  0  0  0  0
  7 10  1  0  0  0  0
  8 22  1  0  0  0  0
  9  2  1  0  0  0  0
 10  8  2  0  0  0  0
 11  1  1  0  0  0  0
 11  5  1  0  0  0  0
 12  1  1  0  0  0  0
 13 16  1  6  0  0  0
 14 12  1  6  0  0  0
 14 13  1  0  0  0  0
 15 14  1  0  0  0  0
 15 13  1  0  0  0  0
 16 17  1  0  0  0  0
 17 18  1  0  0  0  0
 18 20  1  0  0  0  0
 19 20  2  0  0  0  0
 20 21  1  0  0  0  0
 23 24  1  0  0  0  0
 23 29  1  0  0  0  0
 25 26  1  0  0  0  0
 26 24  1  0  0  0  0
 27 25  1  0  0  0  0
 27 28  1  0  0  0  0
 28 22  1  6  0  0  0
 28 23  1  0  0  0  0
 29 30  1  0  0  0  0
 31 30  1  0  0  0  0
M  END
>  <MODEL>
1

>  <REMARK>
 VINA RESULT:      -6.7      0.000      0.000
  Name = 
  10 active torsions:
  status: ('A' for Active; 'I' for Inactive)
    1  A    between atoms: C_1  and  C_18
    2  A    between atoms: C_2  and  C_10
    3  A    between atoms: C_3  and  C_21
    4  A    between atoms: C_3  and  C_26
    5  A    between atoms: C_6  and  C_26
    6  A    between atoms: C_10  and  N_15
    7  A    between atoms: C_11  and  C_18
    8  A    between atoms: C_16  and  C_21
    9  A    between atoms: C_22  and  N_31
   10  A    between atoms: C_28  and  N_31
                            x       y       z     vdW  Elec       q    Type
                         _______ _______ _______ _____ _____    ______ ____

>  <TORSDO>
F 10

$$$$
=
 OpenBabel11062421263D

 31 34  0  0  1  0  0  0  0  0999 V2000
  192.0790  176.3950  143.7200 C   0  0  0  0  0  0  0  0  0  0  0  0
  190.0350  177.7510  143.7920 C   0  0  0  0  0  2  0  0  0  0  0  0
  189.4050  176.7730  142.8300 C   0  0  0  0  0  0  0  0  0  0  0  0
  190.1990  173.5460  141.1390 N   0  0  0  0  0  1  0  0  0  0  0  0
  190.1110  175.6330  142.4240 C   0  0  0  0  0  0  0  0  0  0  0  0
  189.4990  174.7100  141.5660 C   0  0  0  0  0  0  0  0  0  0  0  0
  188.2290  174.9260  141.1350 N   0  0  0  0  0  0  0  0  0  0  0  0
  188.0920  176.9730  142.3750 C   0  0  0  0  0  0  0  0  0  0  0  0
  191.4380  177.4570  144.1050 N   0  0  0  0  0  0  0  0  0  0  0  0
  187.5230  176.0230  141.5150 C   0  0  0  0  0  3  0  0  0  0  0  0
  191.4490  175.4300  142.8780 N   0  0  0  0  0  2  0  0  0  0  0  0
  193.5020  176.2110  144.1120 C   0  0  0  0  0  2  0  0  0  0  0  0
  193.4880  176.5740  146.6460 C   0  0  2  0  0  3  0  0  0  0  0  0
  193.8400  177.1130  145.2950 C   0  0  1  0  0  3  0  0  0  0  0  0
  194.7870  176.4680  146.1120 O   0  0  0  0  0  0  0  0  0  0  0  0
  192.8350  175.1930  146.6570 C   0  0  0  0  0  2  0  0  0  0  0  0
  191.5750  175.2080  147.5020 C   0  0  0  0  0  2  0  0  0  0  0  0
  190.3480  174.9880  146.6340 C   0  0  0  0  0  2  0  0  0  0  0  0
  189.7650  177.3310  147.2450 O   0  0  0  0  0  1  0  0  0  0  0  0
  189.3450  176.0550  146.8940 C   0  0  0  0  0  0  0  0  0  0  0  0
  188.1180  175.8100  146.7670 O   0  0  0  0  0  0  0  0  0  0  0  0
  187.3510  178.1300  142.7950 N   0  0  0  0  0  2  0  0  0  0  0  0
  185.0870  178.8440  143.2210 N   0  0  0  0  0  0  0  0  0  0  0  0
  184.1890  179.3880  144.2560 C   0  0  0  0  0  2  0  0  0  0  0  0
  185.6220  178.5890  146.1620 C   0  0  0  0  0  2  0  0  0  0  0  0
  184.2190  178.5790  145.5540 C   0  0  0  0  0  2  0  0  0  0  0  0
  186.7280  178.6860  145.1090 C   0  0  0  0  0  2  0  0  0  0  0  0
  186.2570  178.1250  143.7630 C   0  0  2  0  0  3  0  0  0  0  0  0
  184.3180  177.8910  142.4320 C   0  0  0  0  0  2  0  0  0  0  0  0
  184.2250  178.3600  140.9890 C   0  0  0  0  0  2  0  0  0  0  0  0
  182.8320  178.1070  140.4440 C   0  0  0  0  0  1  0  0  0  0  0  0
  1  9  2  0  0  0  0
  1 12  1  0  0  0  0
  2  9  1  0  0  0  0
  3  2  1  0  0  0  0
  4  6  1  0  0  0  0
  5  3  1  0  0  0  0
  5 11  1  0  0  0  0
  6  5  2  0  0  0  0
  7 10  2  0  0  0  0
  7  6  1  0  0  0  0
  8 22  1  0  0  0  0
  8  3  2  0  0  0  0
 10  8  1  0  0  0  0
 11  1  1  0  0  0  0
 13 16  1  6  0  0  0
 14 12  1  6  0  0  0
 14 15  1  0  0  0  0
 14 13  1  0  0  0  0
 15 13  1  0  0  0  0
 16 17  1  0  0  0  0
 18 20  1  0  0  0  0
 18 17  1  0  0  0  0
 20 19  1  0  0  0  0
 21 20  2  0  0  0  0
 23 28  1  0  0  0  0
 23 24  1  0  0  0  0
 24 26  1  0  0  0  0
 26 25  1  0  0  0  0
 27 25  1  0  0  0  0
 28 22  1  6  0  0  0
 28 27  1  0  0  0  0
 29 23  1  0  0  0  0
 30 29  1  0  0  0  0
 31 30  1  0  0  0  0
M  END
>  <MODEL>
2

>  <REMARK>
 VINA RESULT:      -6.6      2.059      7.171
  Name = 
  10 active torsions:
  status: ('A' for Active; 'I' for Inactive)
    1  A    between atoms: C_1  and  C_18
    2  A    between atoms: C_2  and  C_10
    3  A    between atoms: C_3  and  C_21
    4  A    between atoms: C_3  and  C_26
    5  A    between atoms: C_6  and  C_26
    6  A    between atoms: C_10  and  N_15
    7  A    between atoms: C_11  and  C_18
    8  A    between atoms: C_16  and  C_21
    9  A    between atoms: C_22  and  N_31
   10  A    between atoms: C_28  and  N_31
                            x       y       z     vdW  Elec       q    Type
                         _______ _______ _______ _____ _____    ______ ____

>  <TORSDO>
F 10

$$$$
=
 OpenBabel11062421263D

 31 34  0  0  1  0  0  0  0  0999 V2000
  192.3030  175.3180  142.5220 C   0  0  0  0  0  0  0  0  0  0  0  0
  190.7560  177.0070  143.4040 C   0  0  0  0  0  2  0  0  0  0  0  0
  189.6140  176.1540  142.9090 C   0  0  0  0  0  0  0  0  0  0  0  0
  189.0350  172.8420  141.2950 N   0  0  0  0  0  1  0  0  0  0  0  0
  189.8690  174.9100  142.3170 C   0  0  0  0  0  0  0  0  0  0  0  0
  188.7980  174.1090  141.9010 C   0  0  0  0  0  0  0  0  0  0  0  0
  187.5220  174.5420  142.0740 N   0  0  0  0  0  0  0  0  0  0  0  0
  188.2870  176.5790  143.0810 C   0  0  0  0  0  0  0  0  0  0  0  0
  192.0830  176.4740  143.0710 N   0  0  0  0  0  0  0  0  0  0  0  0
  187.2470  175.7440  142.6470 C   0  0  0  0  0  3  0  0  0  0  0  0
  191.2170  174.4790  142.1320 N   0  0  0  0  0  2  0  0  0  0  0  0
  193.7000  174.8900  142.2420 C   0  0  0  0  0  2  0  0  0  0  0  0
  195.6610  175.9290  143.5180 C   0  0  2  0  0  3  0  0  0  0  0  0
  194.6540  176.0680  142.4190 C   0  0  1  0  0  3  0  0  0  0  0  0
  195.9710  175.6370  142.1750 O   0  0  0  0  0  0  0  0  0  0  0  0
  195.5970  174.6270  144.3140 C   0  0  0  0  0  2  0  0  0  0  0  0
  195.3130  174.9130  145.7770 C   0  0  0  0  0  2  0  0  0  0  0  0
  193.8160  174.9490  146.0320 C   0  0  0  0  0  2  0  0  0  0  0  0
  194.3800  177.2740  146.7210 O   0  0  0  0  0  1  0  0  0  0  0  0
  193.4170  176.2970  146.5160 C   0  0  0  0  0  0  0  0  0  0  0  0
  192.2020  176.5610  146.7130 O   0  0  0  0  0  0  0  0  0  0  0  0
  188.0090  177.8450  143.7000 N   0  0  0  0  0  2  0  0  0  0  0  0
  187.3880  176.7580  145.7610 N   0  0  0  0  0  0  0  0  0  0  0  0
  186.3260  176.6620  146.7800 C   0  0  0  0  0  2  0  0  0  0  0  0
  185.3420  178.9060  146.2100 C   0  0  0  0  0  2  0  0  0  0  0  0
  185.9050  178.0270  147.3280 C   0  0  0  0  0  2  0  0  0  0  0  0
  185.9720  178.6130  144.8470 C   0  0  0  0  0  2  0  0  0  0  0  0
  187.3790  178.0260  145.0060 C   0  0  2  0  0  3  0  0  0  0  0  0
  188.6670  176.6710  146.4530 C   0  0  0  0  0  2  0  0  0  0  0  0
  188.8350  175.2940  147.0740 C   0  0  0  0  0  2  0  0  0  0  0  0
  189.5230  174.3590  146.0990 C   0  0  0  0  0  1  0  0  0  0  0  0
  1  9  2  0  0  0  0
  3  8  1  0  0  0  0
  3  2  1  0  0  0  0
  4  6  1  0  0  0  0
  5  3  2  0  0  0  0
  6  7  2  0  0  0  0
  6  5  1  0  0  0  0
  7 10  1  0  0  0  0
  8 22  1  0  0  0  0
  9  2  1  0  0  0  0
 10  8  2  0  0  0  0
 11  5  1  0  0  0  0
 11  1  1  0  0  0  0
 12  1  1  0  0  0  0
 13 16  1  1  0  0  0
 14 12  1  1  0  0  0
 14 13  1  0  0  0  0
 15 14  1  0  0  0  0
 15 13  1  0  0  0  0
 16 17  1  0  0  0  0
 17 18  1  0  0  0  0
 18 20  1  0  0  0  0
 20 21  2  0  0  0  0
 20 19  1  0  0  0  0
 23 29  1  0  0  0  0
 23 24  1  0  0  0  0
 24 26  1  0  0  0  0
 25 26  1  0  0  0  0
 27 28  1  0  0  0  0
 27 25  1  0  0  0  0
 28 22  1  6  0  0  0
 28 23  1  0  0  0  0
 29 30  1  0  0  0  0
 31 30  1  0  0  0  0
M  END
>  <MODEL>
3

>  <REMARK>
 VINA RESULT:      -6.5      2.733      6.991
  Name = 
  10 active torsions:
  status: ('A' for Active; 'I' for Inactive)
    1  A    between atoms: C_1  and  C_18
    2  A    between atoms: C_2  and  C_10
    3  A    between atoms: C_3  and  C_21
    4  A    between atoms: C_3  and  C_26
    5  A    between atoms: C_6  and  C_26
    6  A    between atoms: C_10  and  N_15
    7  A    between atoms: C_11  and  C_18
    8  A    between atoms: C_16  and  C_21
    9  A    between atoms: C_22  and  N_31
   10  A    between atoms: C_28  and  N_31
                            x       y       z     vdW  Elec       q    Type
                         _______ _______ _______ _____ _____    ______ ____

>  <TORSDO>
F 10

$$$$
=
 OpenBabel11062421263D

 31 34  0  0  1  0  0  0  0  0999 V2000
  187.9520  176.9450  146.3250 C   0  0  0  0  0  0  0  0  0  0  0  0
  189.3150  174.9060  146.2390 C   0  0  0  0  0  2  0  0  0  0  0  0
  189.5980  175.2090  144.7880 C   0  0  0  0  0  0  0  0  0  0  0  0
  188.9270  177.8690  142.2620 N   0  0  0  0  0  1  0  0  0  0  0  0
  189.1090  176.3870  144.2080 C   0  0  0  0  0  0  0  0  0  0  0  0
  189.4160  176.6790  142.8720 C   0  0  0  0  0  0  0  0  0  0  0  0
  190.1830  175.8210  142.1510 N   0  0  0  0  0  0  0  0  0  0  0  0
  190.3930  174.3390  144.0250 C   0  0  0  0  0  0  0  0  0  0  0  0
  188.3970  175.8570  146.8780 N   0  0  0  0  0  0  0  0  0  0  0  0
  190.6710  174.6730  142.6920 C   0  0  0  0  0  3  0  0  0  0  0  0
  188.2940  177.2700  144.9780 N   0  0  0  0  0  2  0  0  0  0  0  0
  187.0300  177.8330  147.0840 C   0  0  0  0  0  2  0  0  0  0  0  0
  184.5150  177.8310  146.6100 C   0  0  2  0  0  3  0  0  0  0  0  0
  185.6770  177.1510  147.2630 C   0  0  1  0  0  3  0  0  0  0  0  0
  185.1900  176.7540  146.0040 O   0  0  0  0  0  0  0  0  0  0  0  0
  184.8400  179.1170  145.8530 C   0  0  0  0  0  2  0  0  0  0  0  0
  184.3120  179.0460  144.4320 C   0  0  0  0  0  2  0  0  0  0  0  0
  185.4500  179.1600  143.4340 C   0  0  0  0  0  2  0  0  0  0  0  0
  185.6870  176.7910  142.7060 O   0  0  0  0  0  1  0  0  0  0  0  0
  185.3280  178.0960  142.4020 C   0  0  0  0  0  0  0  0  0  0  0  0
  184.8710  178.3740  141.2620 O   0  0  0  0  0  0  0  0  0  0  0  0
  190.9130  173.1360  144.6110 N   0  0  0  0  0  2  0  0  0  0  0  0
  193.1140  174.0950  144.8460 N   0  0  0  0  0  0  0  0  0  0  0  0
  194.5320  173.9170  144.4810 C   0  0  0  0  0  2  0  0  0  0  0  0
  194.2870  171.4520  144.0470 C   0  0  0  0  0  2  0  0  0  0  0  0
  195.0610  172.5220  144.8180 C   0  0  0  0  0  2  0  0  0  0  0  0
  192.8340  171.8470  143.7750 C   0  0  0  0  0  2  0  0  0  0  0  0
  192.3290  172.8450  144.8220 C   0  0  2  0  0  3  0  0  0  0  0  0
  193.0750  174.6080  146.2080 C   0  0  0  0  0  2  0  0  0  0  0  0
  192.8880  176.1160  146.1960 C   0  0  0  0  0  2  0  0  0  0  0  0
  194.1580  176.8060  146.6570 C   0  0  0  0  0  1  0  0  0  0  0  0
  1  9  2  0  0  0  0
  1 12  1  0  0  0  0
  2  9  1  0  0  0  0
  3  2  1  0  0  0  0
  4  6  1  0  0  0  0
  5  3  1  0  0  0  0
  5 11  1  0  0  0  0
  6  5  2  0  0  0  0
  7 10  2  0  0  0  0
  7  6  1  0  0  0  0
  8 22  1  0  0  0  0
  8  3  2  0  0  0  0
 10  8  1  0  0  0  0
 11  1  1  0  0  0  0
 13 16  1  6  0  0  0
 13 14  1  0  0  0  0
 14 12  1  6  0  0  0
 15 13  1  0  0  0  0
 15 14  1  0  0  0  0
 17 16  1  0  0  0  0
 18 17  1  0  0  0  0
 20 19  1  0  0  0  0
 20 18  1  0  0  0  0
 21 20  2  0  0  0  0
 23 29  1  0  0  0  0
 24 26  1  0  0  0  0
 24 23  1  0  0  0  0
 25 26  1  0  0  0  0
 27 25  1  0  0  0  0
 27 28  1  0  0  0  0
 28 22  1  6  0  0  0
 28 23  1  0  0  0  0
 30 29  1  0  0  0  0
 30 31  1  0  0  0  0
M  END
>  <MODEL>
4

>  <REMARK>
 VINA RESULT:      -6.5      1.990      3.592
  Name = 
  10 active torsions:
  status: ('A' for Active; 'I' for Inactive)
    1  A    between atoms: C_1  and  C_18
    2  A    between atoms: C_2  and  C_10
    3  A    between atoms: C_3  and  C_21
    4  A    between atoms: C_3  and  C_26
    5  A    between atoms: C_6  and  C_26
    6  A    between atoms: C_10  and  N_15
    7  A    between atoms: C_11  and  C_18
    8  A    between atoms: C_16  and  C_21
    9  A    between atoms: C_22  and  N_31
   10  A    between atoms: C_28  and  N_31
                            x       y       z     vdW  Elec       q    Type
                         _______ _______ _______ _____ _____    ______ ____

>  <TORSDO>
F 10

$$$$
=
 OpenBabel11062421263D

 31 34  0  0  1  0  0  0  0  0999 V2000
  188.8560  177.5290  143.2800 C   0  0  0  0  0  0  0  0  0  0  0  0
  191.3070  177.3930  143.2930 C   0  0  0  0  0  2  0  0  0  0  0  0
  191.2150  176.6720  144.6160 C   0  0  0  0  0  0  0  0  0  0  0  0
  188.6300  175.3220  146.9400 N   0  0  0  0  0  1  0  0  0  0  0  0
  189.9630  176.3580  145.1610 C   0  0  0  0  0  0  0  0  0  0  0  0
  189.8920  175.6500  146.3680 C   0  0  0  0  0  0  0  0  0  0  0  0
  191.0350  175.2740  147.0000 N   0  0  0  0  0  0  0  0  0  0  0  0
  192.3820  176.2700  145.2850 C   0  0  0  0  0  0  0  0  0  0  0  0
  190.0090  177.8280  142.7630 N   0  0  0  0  0  0  0  0  0  0  0  0
  192.2610  175.5650  146.4910 C   0  0  0  0  0  3  0  0  0  0  0  0
  188.7750  176.7730  144.4890 N   0  0  0  0  0  2  0  0  0  0  0  0
  187.6090  178.0270  142.6400 C   0  0  0  0  0  2  0  0  0  0  0  0
  185.2050  177.5830  143.4010 C   0  0  2  0  0  3  0  0  0  0  0  0
  186.4780  177.0240  142.8460 C   0  0  1  0  0  3  0  0  0  0  0  0
  185.3940  177.3750  142.0210 O   0  0  0  0  0  0  0  0  0  0  0  0
  185.2120  179.0840  143.6870 C   0  0  0  0  0  2  0  0  0  0  0  0
  184.8430  179.3490  145.1360 C   0  0  0  0  0  2  0  0  0  0  0  0
  184.8520  178.0570  145.9340 C   0  0  0  0  0  2  0  0  0  0  0  0
  185.9090  179.5270  147.6430 O   0  0  0  0  0  0  0  0  0  0  0  0
  185.6130  178.2470  147.1970 C   0  0  0  0  0  0  0  0  0  0  0  0
  185.9640  177.2480  147.8780 O   0  0  0  0  0  1  0  0  0  0  0  0
  193.6730  176.5720  144.7310 N   0  0  0  0  0  2  0  0  0  0  0  0
  195.8100  175.4560  144.6780 N   0  0  0  0  0  0  0  0  0  0  0  0
  196.9030  175.0250  143.7860 C   0  0  0  0  0  2  0  0  0  0  0  0
  195.4610  175.0540  141.7250 C   0  0  0  0  0  2  0  0  0  0  0  0
  196.4060  174.2160  142.5870 C   0  0  0  0  0  2  0  0  0  0  0  0
  194.6700  176.0830  142.5360 C   0  0  0  0  0  2  0  0  0  0  0  0
  194.5140  175.6330  143.9930 C   0  0  2  0  0  3  0  0  0  0  0  0
  195.6320  174.4170  145.6840 C   0  0  0  0  0  2  0  0  0  0  0  0
  196.9690  173.7760  146.0170 C   0  0  0  0  0  2  0  0  0  0  0  0
  196.8350  172.2650  146.0390 C   0  0  0  0  0  1  0  0  0  0  0  0
  1 11  1  0  0  0  0
  2  3  1  0  0  0  0
  3  5  2  0  0  0  0
  3  8  1  0  0  0  0
  5  6  1  0  0  0  0
  6  4  1  0  0  0  0
  6  7  2  0  0  0  0
  8 10  2  0  0  0  0
  9  1  2  0  0  0  0
  9  2  1  0  0  0  0
 10  7  1  0  0  0  0
 11  5  1  0  0  0  0
 12  1  1  0  0  0  0
 13 16  1  6  0  0  0
 14 12  1  6  0  0  0
 14 13  1  0  0  0  0
 15 14  1  0  0  0  0
 15 13  1  0  0  0  0
 16 17  1  0  0  0  0
 17 18  1  0  0  0  0
 18 20  1  0  0  0  0
 20 19  2  0  0  0  0
 20 21  1  0  0  0  0
 22  8  1  0  0  0  0
 23 29  1  0  0  0  0
 24 23  1  0  0  0  0
 25 27  1  0  0  0  0
 25 26  1  0  0  0  0
 26 24  1  0  0  0  0
 27 28  1  0  0  0  0
 28 23  1  0  0  0  0
 28 22  1  1  0  0  0
 29 30  1  0  0  0  0
 30 31  1  0  0  0  0
M  END
>  <MODEL>
5

>  <REMARK>
 VINA RESULT:      -6.4      1.974      3.204
  Name = 
  10 active torsions:
  status: ('A' for Active; 'I' for Inactive)
    1  A    between atoms: C_1  and  C_18
    2  A    between atoms: C_2  and  C_10
    3  A    between atoms: C_3  and  C_21
    4  A    between atoms: C_3  and  C_26
    5  A    between atoms: C_6  and  C_26
    6  A    between atoms: C_10  and  N_15
    7  A    between atoms: C_11  and  C_18
    8  A    between atoms: C_16  and  C_21
    9  A    between atoms: C_22  and  N_31
   10  A    between atoms: C_28  and  N_31
                            x       y       z     vdW  Elec       q    Type
                         _______ _______ _______ _____ _____    ______ ____

>  <TORSDO>
F 10

$$$$
=
 OpenBabel11062421263D

 31 34  0  0  1  0  0  0  0  0999 V2000
  192.0360  176.4630  143.6390 C   0  0  0  0  0  0  0  0  0  0  0  0
  190.1160  177.9350  144.0520 C   0  0  0  0  0  2  0  0  0  0  0  0
  189.2720  176.9890  143.2340 C   0  0  0  0  0  0  0  0  0  0  0  0
  189.5700  173.7110  141.4800 N   0  0  0  0  0  1  0  0  0  0  0  0
  189.8300  175.8080  142.7260 C   0  0  0  0  0  0  0  0  0  0  0  0
  189.0240  174.9160  142.0060 C   0  0  0  0  0  0  0  0  0  0  0  0
  187.7110  175.2030  141.8040 N   0  0  0  0  0  0  0  0  0  0  0  0
  187.9120  177.2620  143.0160 C   0  0  0  0  0  0  0  0  0  0  0  0
  191.5350  177.5630  144.1140 N   0  0  0  0  0  0  0  0  0  0  0  0
  187.1460  176.3410  142.2870 C   0  0  0  0  0  3  0  0  0  0  0  0
  191.2130  175.5310  142.9380 N   0  0  0  0  0  2  0  0  0  0  0  0
  193.4940  176.2000  143.7740 C   0  0  0  0  0  2  0  0  0  0  0  0
  195.2680  175.6140  145.5240 C   0  0  2  0  0  3  0  0  0  0  0  0
  193.8660  176.0590  145.2470 C   0  0  1  0  0  3  0  0  0  0  0  0
  194.8930  176.9700  145.5530 O   0  0  0  0  0  0  0  0  0  0  0  0
  196.1370  175.3590  144.2940 C   0  0  0  0  0  2  0  0  0  0  0  0
  197.2360  174.3640  144.6160 C   0  0  0  0  0  2  0  0  0  0  0  0
  196.9270  173.6290  145.9090 C   0  0  0  0  0  2  0  0  0  0  0  0
  195.3410  171.7160  145.7590 O   0  0  0  0  0  1  0  0  0  0  0  0
  196.6340  172.2000  145.6220 C   0  0  0  0  0  0  0  0  0  0  0  0
  197.5520  171.4350  145.2260 O   0  0  0  0  0  0  0  0  0  0  0  0
  187.3230  178.4610  143.5430 N   0  0  0  0  0  2  0  0  0  0  0  0
  186.4270  177.2640  145.4340 N   0  0  0  0  0  0  0  0  0  0  0  0
  185.1870  176.9800  146.1820 C   0  0  0  0  0  2  0  0  0  0  0  0
  184.0040  179.0300  145.3310 C   0  0  0  0  0  2  0  0  0  0  0  0
  184.4280  178.2490  146.5750 C   0  0  0  0  0  2  0  0  0  0  0  0
  184.9760  178.8620  144.1610 C   0  0  0  0  0  2  0  0  0  0  0  0
  186.3840  178.5200  144.6600 C   0  0  2  0  0  3  0  0  0  0  0  0
  187.5040  177.3880  146.4070 C   0  0  0  0  0  2  0  0  0  0  0  0
  187.7630  176.0490  147.0770 C   0  0  0  0  0  2  0  0  0  0  0  0
  189.1220  175.5120  146.6700 C   0  0  0  0  0  1  0  0  0  0  0  0
  1 12  1  0  0  0  0
  1  9  2  0  0  0  0
  2  9  1  0  0  0  0
  3  2  1  0  0  0  0
  4  6  1  0  0  0  0
  5 11  1  0  0  0  0
  5  3  2  0  0  0  0
  6  5  1  0  0  0  0
  7  6  2  0  0  0  0
  7 10  1  0  0  0  0
  8  3  1  0  0  0  0
  8 22  1  0  0  0  0
 10  8  2  0  0  0  0
 11  1  1  0  0  0  0
 13 16  1  6  0  0  0
 13 15  1  0  0  0  0
 14 12  1  6  0  0  0
 14 13  1  0  0  0  0
 14 15  1  0  0  0  0
 16 17  1  0  0  0  0
 17 18  1  0  0  0  0
 20 19  1  0  0  0  0
 20 18  1  0  0  0  0
 21 20  2  0  0  0  0
 23 24  1  0  0  0  0
 23 29  1  0  0  0  0
 24 26  1  0  0  0  0
 25 26  1  0  0  0  0
 27 28  1  0  0  0  0
 27 25  1  0  0  0  0
 28 22  1  6  0  0  0
 28 23  1  0  0  0  0
 29 30  1  0  0  0  0
 31 30  1  0  0  0  0
M  END
>  <MODEL>
6

>  <REMARK>
 VINA RESULT:      -6.3      3.358      8.035
  Name = 
  10 active torsions:
  status: ('A' for Active; 'I' for Inactive)
    1  A    between atoms: C_1  and  C_18
    2  A    between atoms: C_2  and  C_10
    3  A    between atoms: C_3  and  C_21
    4  A    between atoms: C_3  and  C_26
    5  A    between atoms: C_6  and  C_26
    6  A    between atoms: C_10  and  N_15
    7  A    between atoms: C_11  and  C_18
    8  A    between atoms: C_16  and  C_21
    9  A    between atoms: C_22  and  N_31
   10  A    between atoms: C_28  and  N_31
                            x       y       z     vdW  Elec       q    Type
                         _______ _______ _______ _____ _____    ______ ____

>  <TORSDO>
F 10

$$$$
=
 OpenBabel11062421263D

 31 34  0  0  1  0  0  0  0  0999 V2000
  189.1420  177.3950  144.4880 C   0  0  0  0  0  0  0  0  0  0  0  0
  191.4930  177.5920  143.8100 C   0  0  0  0  0  2  0  0  0  0  0  0
  191.3410  176.2880  143.0650 C   0  0  0  0  0  0  0  0  0  0  0  0
  188.7000  173.7960  142.2140 N   0  0  0  0  0  1  0  0  0  0  0  0
  190.0940  175.6490  143.0120 C   0  0  0  0  0  0  0  0  0  0  0  0
  189.9560  174.4630  142.2800 C   0  0  0  0  0  0  0  0  0  0  0  0
  191.0290  173.9400  141.6300 N   0  0  0  0  0  0  0  0  0  0  0  0
  192.4340  175.7310  142.3820 C   0  0  0  0  0  0  0  0  0  0  0  0
  190.2900  177.9980  144.5480 N   0  0  0  0  0  0  0  0  0  0  0  0
  192.2470  174.5410  141.6650 C   0  0  0  0  0  3  0  0  0  0  0  0
  188.9830  176.2070  143.7120 N   0  0  0  0  0  2  0  0  0  0  0  0
  187.9950  177.9130  145.2820 C   0  0  0  0  0  2  0  0  0  0  0  0
  186.6490  177.4510  147.4100 C   0  0  2  0  0  3  0  0  0  0  0  0
  187.7960  177.0600  146.5310 C   0  0  1  0  0  3  0  0  0  0  0  0
  186.5460  176.4180  146.4580 O   0  0  0  0  0  0  0  0  0  0  0  0
  185.8330  178.6520  146.9370 C   0  0  0  0  0  2  0  0  0  0  0  0
  184.4300  178.2230  146.5500 C   0  0  0  0  0  2  0  0  0  0  0  0
  183.9320  179.0320  145.3650 C   0  0  0  0  0  2  0  0  0  0  0  0
  185.5630  179.7880  143.6420 O   0  0  0  0  0  0  0  0  0  0  0  0
  184.7870  178.7700  144.1770 C   0  0  0  0  0  0  0  0  0  0  0  0
  184.8290  177.6170  143.6740 O   0  0  0  0  0  1  0  0  0  0  0  0
  193.7130  176.3830  142.4150 N   0  0  0  0  0  2  0  0  0  0  0  0
  195.6830  175.7840  143.6710 N   0  0  0  0  0  0  0  0  0  0  0  0
  197.1510  175.6660  143.5930 C   0  0  0  0  0  2  0  0  0  0  0  0
  197.1740  175.4930  141.0840 C   0  0  0  0  0  2  0  0  0  0  0  0
  197.6170  174.8400  142.3930 C   0  0  0  0  0  2  0  0  0  0  0  0
  195.8590  176.2650  141.2180 C   0  0  0  0  0  2  0  0  0  0  0  0
  195.0060  175.7050  142.3620 C   0  0  2  0  0  3  0  0  0  0  0  0
  195.1980  174.6740  144.4800 C   0  0  0  0  0  2  0  0  0  0  0  0
  195.0360  175.1100  145.9270 C   0  0  0  0  0  2  0  0  0  0  0  0
  194.4290  176.4980  145.9910 C   0  0  0  0  0  1  0  0  0  0  0  0
  1  9  2  0  0  0  0
  1 12  1  0  0  0  0
  2  9  1  0  0  0  0
  3  2  1  0  0  0  0
  4  6  1  0  0  0  0
  5  3  1  0  0  0  0
  5 11  1  0  0  0  0
  6  5  2  0  0  0  0
  7 10  2  0  0  0  0
  7  6  1  0  0  0  0
  8 22  1  0  0  0  0
  8  3  2  0  0  0  0
 10  8  1  0  0  0  0
 11  1  1  0  0  0  0
 13 16  1  6  0  0  0
 14 12  1  6  0  0  0
 14 13  1  0  0  0  0
 15 14  1  0  0  0  0
 15 13  1  0  0  0  0
 17 16  1  0  0  0  0
 18 17  1  0  0  0  0
 19 20  2  0  0  0  0
 20 18  1  0  0  0  0
 21 20  1  0  0  0  0
 23 29  1  0  0  0  0
 24 23  1  0  0  0  0
 25 27  1  0  0  0  0
 25 26  1  0  0  0  0
 26 24  1  0  0  0  0
 27 28  1  0  0  0  0
 28 22  1  1  0  0  0
 28 23  1  0  0  0  0
 29 30  1  0  0  0  0
 30 31  1  0  0  0  0
M  END
>  <MODEL>
7

>  <REMARK>
 VINA RESULT:      -6.3      1.926      3.285
  Name = 
  10 active torsions:
  status: ('A' for Active; 'I' for Inactive)
    1  A    between atoms: C_1  and  C_18
    2  A    between atoms: C_2  and  C_10
    3  A    between atoms: C_3  and  C_21
    4  A    between atoms: C_3  and  C_26
    5  A    between atoms: C_6  and  C_26
    6  A    between atoms: C_10  and  N_15
    7  A    between atoms: C_11  and  C_18
    8  A    between atoms: C_16  and  C_21
    9  A    between atoms: C_22  and  N_31
   10  A    between atoms: C_28  and  N_31
                            x       y       z     vdW  Elec       q    Type
                         _______ _______ _______ _____ _____    ______ ____

>  <TORSDO>
F 10

$$$$
=
 OpenBabel11062421263D

 31 34  0  0  1  0  0  0  0  0999 V2000
  189.2290  177.4900  143.1570 C   0  0  0  0  0  0  0  0  0  0  0  0
  191.6590  177.4110  143.4920 C   0  0  0  0  0  2  0  0  0  0  0  0
  191.4080  176.7680  144.8340 C   0  0  0  0  0  0  0  0  0  0  0  0
  188.5650  175.4980  146.8860 N   0  0  0  0  0  1  0  0  0  0  0  0
  190.1010  176.4580  145.2320 C   0  0  0  0  0  0  0  0  0  0  0  0
  189.8850  175.8210  146.4610 C   0  0  0  0  0  0  0  0  0  0  0  0
  190.9420  175.5090  147.2560 N   0  0  0  0  0  0  0  0  0  0  0  0
  192.4850  176.4320  145.6700 C   0  0  0  0  0  0  0  0  0  0  0  0
  190.4340  177.7850  142.7740 N   0  0  0  0  0  0  0  0  0  0  0  0
  192.2190  175.7970  146.8920 C   0  0  0  0  0  3  0  0  0  0  0  0
  189.0040  176.8050  144.3890 N   0  0  0  0  0  2  0  0  0  0  0  0
  188.0680  177.9220  142.3330 C   0  0  0  0  0  2  0  0  0  0  0  0
  185.6200  177.5370  142.9770 C   0  0  2  0  0  3  0  0  0  0  0  0
  186.9110  176.9420  142.5060 C   0  0  1  0  0  3  0  0  0  0  0  0
  185.8780  177.2860  141.6150 O   0  0  0  0  0  0  0  0  0  0  0  0
  185.6370  179.0440  143.2220 C   0  0  0  0  0  2  0  0  0  0  0  0
  185.2190  179.3540  144.6480 C   0  0  0  0  0  2  0  0  0  0  0  0
  186.1200  178.6330  145.6360 C   0  0  0  0  0  2  0  0  0  0  0  0
  185.9770  177.7080  147.9430 O   0  0  0  0  0  1  0  0  0  0  0  0
  185.3290  178.1960  146.8170 C   0  0  0  0  0  0  0  0  0  0  0  0
  184.0750  178.2950  146.8070 O   0  0  0  0  0  0  0  0  0  0  0  0
  193.8310  176.7300  145.2680 N   0  0  0  0  0  2  0  0  0  0  0  0
  194.3200  174.8460  143.8440 N   0  0  0  0  0  0  0  0  0  0  0  0
  194.9750  173.5260  143.8050 C   0  0  0  0  0  2  0  0  0  0  0  0
  196.4570  174.0130  145.7780 C   0  0  0  0  0  2  0  0  0  0  0  0
  196.4160  173.5620  144.3180 C   0  0  0  0  0  2  0  0  0  0  0  0
  195.3250  174.9790  146.1360 C   0  0  0  0  0  2  0  0  0  0  0  0
  194.8400  175.7400  144.8980 C   0  0  2  0  0  3  0  0  0  0  0  0
  194.5670  175.4940  142.5630 C   0  0  0  0  0  2  0  0  0  0  0  0
  195.7910  176.3890  142.6540 C   0  0  0  0  0  2  0  0  0  0  0  0
  196.7500  176.0840  141.5200 C   0  0  0  0  0  1  0  0  0  0  0  0
  1 11  1  0  0  0  0
  2  3  1  0  0  0  0
  3  5  2  0  0  0  0
  3  8  1  0  0  0  0
  5  6  1  0  0  0  0
  6  4  1  0  0  0  0
  6  7  2  0  0  0  0
  8 10  2  0  0  0  0
  9  1  2  0  0  0  0
  9  2  1  0  0  0  0
 10  7  1  0  0  0  0
 11  5  1  0  0  0  0
 12  1  1  0  0  0  0
 13 16  1  6  0  0  0
 14 12  1  6  0  0  0
 14 13  1  0  0  0  0
 15 14  1  0  0  0  0
 15 13  1  0  0  0  0
 16 17  1  0  0  0  0
 17 18  1  0  0  0  0
 18 20  1  0  0  0  0
 20 19  1  0  0  0  0
 21 20  2  0  0  0  0
 22  8  1  0  0  0  0
 23 28  1  0  0  0  0
 24 23  1  0  0  0  0
 24 26  1  0  0  0  0
 25 27  1  0  0  0  0
 26 25  1  0  0  0  0
 28 22  1  1  0  0  0
 28 27  1  0  0  0  0
 29 30  1  0  0  0  0
 29 23  1  0  0  0  0
 31 30  1  0  0  0  0
M  END
>  <MODEL>
8

>  <REMARK>
 VINA RESULT:      -6.3      2.026      3.483
  Name = 
  10 active torsions:
  status: ('A' for Active; 'I' for Inactive)
    1  A    between atoms: C_1  and  C_18
    2  A    between atoms: C_2  and  C_10
    3  A    between atoms: C_3  and  C_21
    4  A    between atoms: C_3  and  C_26
    5  A    between atoms: C_6  and  C_26
    6  A    between atoms: C_10  and  N_15
    7  A    between atoms: C_11  and  C_18
    8  A    between atoms: C_16  and  C_21
    9  A    between atoms: C_22  and  N_31
   10  A    between atoms: C_28  and  N_31
                            x       y       z     vdW  Elec       q    Type
                         _______ _______ _______ _____ _____    ______ ____

>  <TORSDO>
F 10

$$$$
=
 OpenBabel11062421263D

 31 34  0  0  1  0  0  0  0  0999 V2000
  187.2730  177.0200  142.9690 C   0  0  0  0  0  0  0  0  0  0  0  0
  189.6880  177.4550  143.0510 C   0  0  0  0  0  2  0  0  0  0  0  0
  189.9160  175.9880  142.7790 C   0  0  0  0  0  0  0  0  0  0  0  0
  187.9610  172.9050  142.0190 N   0  0  0  0  0  1  0  0  0  0  0  0
  188.8260  175.1380  142.5490 C   0  0  0  0  0  0  0  0  0  0  0  0
  189.0540  173.7870  142.2540 C   0  0  0  0  0  0  0  0  0  0  0  0
  190.3250  173.3120  142.1950 N   0  0  0  0  0  0  0  0  0  0  0  0
  191.2210  175.4760  142.7080 C   0  0  0  0  0  0  0  0  0  0  0  0
  188.2730  177.8210  143.1860 N   0  0  0  0  0  0  0  0  0  0  0  0
  191.3990  174.1170  142.4130 C   0  0  0  0  0  3  0  0  0  0  0  0
  187.4980  175.6520  142.6290 N   0  0  0  0  0  2  0  0  0  0  0  0
  185.8810  177.5180  143.1330 C   0  0  0  0  0  2  0  0  0  0  0  0
  184.9120  179.6520  144.1630 C   0  0  2  0  0  3  0  0  0  0  0  0
  185.8740  179.0430  143.1920 C   0  0  1  0  0  3  0  0  0  0  0  0
  186.2710  179.4570  144.4760 O   0  0  0  0  0  0  0  0  0  0  0  0
  184.0650  178.6640  144.9640 C   0  0  0  0  0  2  0  0  0  0  0  0
  184.4920  178.6590  146.4210 C   0  0  0  0  0  2  0  0  0  0  0  0
  185.0230  177.2920  146.8150 C   0  0  0  0  0  2  0  0  0  0  0  0
  187.3060  176.3900  146.3960 O   0  0  0  0  0  0  0  0  0  0  0  0
  186.4990  177.3520  146.9880 C   0  0  0  0  0  0  0  0  0  0  0  0
  187.0180  178.2910  147.6450 O   0  0  0  0  0  1  0  0  0  0  0  0
  192.3480  176.3390  142.9270 N   0  0  0  0  0  2  0  0  0  0  0  0
  194.3090  175.5400  144.0820 N   0  0  0  0  0  0  0  0  0  0  0  0
  194.8170  175.1010  145.3950 C   0  0  0  0  0  2  0  0  0  0  0  0
  193.0110  176.2870  146.6820 C   0  0  0  0  0  2  0  0  0  0  0  0
  194.5190  176.1020  146.5120 C   0  0  0  0  0  2  0  0  0  0  0  0
  192.2370  176.1060  145.3740 C   0  0  0  0  0  2  0  0  0  0  0  0
  193.1240  176.4170  144.1630 C   0  0  2  0  0  3  0  0  0  0  0  0
  195.3700  176.3010  143.4350 C   0  0  0  0  0  2  0  0  0  0  0  0
  196.6120  175.4390  143.2780 C   0  0  0  0  0  2  0  0  0  0  0  0
  197.2180  175.6380  141.9020 C   0  0  0  0  0  1  0  0  0  0  0  0
  1 12  1  0  0  0  0
  1  9  2  0  0  0  0
  2  9  1  0  0  0  0
  3  2  1  0  0  0  0
  4  6  1  0  0  0  0
  5 11  1  0  0  0  0
  5  3  2  0  0  0  0
  6  5  1  0  0  0  0
  7  6  2  0  0  0  0
  7 10  1  0  0  0  0
  8  3  1  0  0  0  0
  8 22  1  0  0  0  0
 10  8  2  0  0  0  0
 11  1  1  0  0  0  0
 13 15  1  0  0  0  0
 13 16  1  1  0  0  0
 14 12  1  1  0  0  0
 14 13  1  0  0  0  0
 14 15  1  0  0  0  0
 16 17  1  0  0  0  0
 17 18  1  0  0  0  0
 18 20  1  0  0  0  0
 19 20  2  0  0  0  0
 20 21  1  0  0  0  0
 23 28  1  0  0  0  0
 23 24  1  0  0  0  0
 24 26  1  0  0  0  0
 26 25  1  0  0  0  0
 27 25  1  0  0  0  0
 28 22  1  6  0  0  0
 28 27  1  0  0  0  0
 29 23  1  0  0  0  0
 30 29  1  0  0  0  0
 31 30  1  0  0  0  0
M  END
>  <MODEL>
9

>  <REMARK>
 VINA RESULT:      -6.2      1.369      2.653
  Name = 
  10 active torsions:
  status: ('A' for Active; 'I' for Inactive)
    1  A    between atoms: C_1  and  C_18
    2  A    between atoms: C_2  and  C_10
    3  A    between atoms: C_3  and  C_21
    4  A    between atoms: C_3  and  C_26
    5  A    between atoms: C_6  and  C_26
    6  A    between atoms: C_10  and  N_15
    7  A    between atoms: C_11  and  C_18
    8  A    between atoms: C_16  and  C_21
    9  A    between atoms: C_22  and  N_31
   10  A    between atoms: C_28  and  N_31
                            x       y       z     vdW  Elec       q    Type
                         _______ _______ _______ _____ _____    ______ ____

>  <TORSDO>
F 10

$$$$
