=
 OpenBabel11072409393D

 25 29  0  0  1  0  0  0  0  0999 V2000
  191.2810  175.2250  143.9980 C   0  0  0  0  0  0  0  0  0  0  0  0
  191.6430  174.6280  142.9520 O   0  0  0  0  0  0  0  0  0  0  0  0
  185.2270  177.3630  145.3780 C   0  0  0  0  0  3  0  0  0  0  0  0
  185.9530  177.7490  147.6470 C   0  0  0  0  0  0  0  0  0  0  0  0
  190.8070  175.1300  146.4800 C   0  0  0  0  0  2  0  0  0  0  0  0
  187.6650  177.2470  146.0560 C   0  0  0  0  0  0  0  0  0  0  0  0
  189.3260  175.4530  146.3810 C   0  0  0  0  0  2  0  0  0  0  0  0
  186.4680  176.9600  142.4060 C   0  0  1  0  0  0  0  0  0  0  0  0
  190.8750  176.6640  143.9160 C   0  0  0  0  0  2  0  0  0  0  0  0
  187.8170  177.7500  140.5980 O   0  0  0  0  0  1  0  0  0  0  0  0
  189.0890  176.8360  145.7730 C   0  0  1  0  0  3  0  0  0  0  0  0
  186.6650  177.4450  144.9250 C   0  0  1  0  0  3  0  0  0  0  0  0
  184.8920  177.5630  146.6510 C   0  0  0  0  0  3  0  0  0  0  0  0
  187.0000  176.5670  143.7020 C   0  0  1  0  0  0  0  0  0  0  0  0
  187.5270  176.6310  141.3800 C   0  0  1  0  0  3  0  0  0  0  0  0
  187.3110  177.4680  147.2900 N   0  0  0  0  0  0  0  0  0  0  0  0
  185.9580  175.8390  143.0930 O   0  0  0  0  0  0  0  0  0  0  0  0
  189.3990  176.8930  144.2610 C   0  0  2  0  0  3  0  0  0  0  0  0
  188.4060  176.0750  143.4210 C   0  0  2  0  0  3  0  0  0  0  0  0
  191.2670  174.5230  145.2400 N   0  0  0  0  0  2  0  0  0  0  0  0
  188.6970  176.2100  142.0440 O   0  0  0  0  0  0  0  0  0  0  0  0
  185.6650  178.0820  148.8260 O   0  0  0  0  0  0  0  0  0  0  0  0
  185.8970  179.3930  142.5260 O   0  0  0  0  0  1  0  0  0  0  0  0
  185.4930  178.0900  142.2680 C   0  0  0  0  0  0  0  0  0  0  0  0
  184.2990  177.8590  141.9430 O   0  0  0  0  0  0  0  0  0  0  0  0
  1 20  1  0  0  0  0
  2  1  2  0  0  0  0
  3 13  2  0  0  0  0
  4 22  2  0  0  0  0
  6 16  2  0  0  0  0
  7  5  1  0  0  0  0
  8 24  1  6  0  0  0
  8 17  1  0  0  0  0
  8 14  1  0  0  0  0
  9  1  1  0  0  0  0
 11  6  1  0  0  0  0
 11  7  1  6  0  0  0
 12  3  1  1  0  0  0
 12  6  1  0  0  0  0
 13  4  1  0  0  0  0
 14 17  1  1  0  0  0
 14 12  1  0  0  0  0
 15 10  1  1  0  0  0
 15 21  1  0  0  0  0
 15  8  1  0  0  0  0
 16  4  1  0  0  0  0
 18  9  1  1  0  0  0
 18 11  1  0  0  0  0
 19 21  1  6  0  0  0
 19 14  1  0  0  0  0
 19 18  1  0  0  0  0
 20  5  1  0  0  0  0
 24 23  1  0  0  0  0
 25 24  2  0  0  0  0
M  END
>  <MODEL>
1

>  <REMARK>
 VINA RESULT:      -7.4      0.000      0.000
  Name = 
  1 active torsions:
  status: ('A' for Active; 'I' for Inactive)
    1  A    between atoms: C_8  and  C_12
                            x       y       z     vdW  Elec       q    Type
                         _______ _______ _______ _____ _____    ______ ____

>  <TORSDO>
F 1

$$$$
=
 OpenBabel11072409393D

 25 29  0  0  1  0  0  0  0  0999 V2000
  187.1570  176.9320  140.5570 C   0  0  0  0  0  0  0  0  0  0  0  0
  186.1430  177.1660  139.8510 O   0  0  0  0  0  0  0  0  0  0  0  0
  187.2910  176.2310  147.0850 C   0  0  0  0  0  3  0  0  0  0  0  0
  189.5520  175.4110  146.8830 C   0  0  0  0  0  0  0  0  0  0  0  0
  188.9540  175.3070  141.2780 C   0  0  0  0  0  2  0  0  0  0  0  0
  188.5950  176.3800  144.9190 C   0  0  0  0  0  0  0  0  0  0  0  0
  188.5360  175.2310  142.7370 C   0  0  0  0  0  2  0  0  0  0  0  0
  185.1120  177.9510  145.4040 C   0  0  1  0  0  0  0  0  0  0  0  0
  187.6570  177.9910  141.4920 C   0  0  0  0  0  2  0  0  0  0  0  0
  184.4900  179.9540  144.2570 O   0  0  0  0  0  1  0  0  0  0  0  0
  188.6420  176.5930  143.4260 C   0  0  1  0  0  3  0  0  0  0  0  0
  187.4460  176.9280  145.7540 C   0  0  1  0  0  3  0  0  0  0  0  0
  188.3030  175.5660  147.6380 C   0  0  0  0  0  3  0  0  0  0  0  0
  186.1430  177.0370  144.9370 C   0  0  1  0  0  0  0  0  0  0  0  0
  184.4780  178.5610  144.1760 C   0  0  1  0  0  3  0  0  0  0  0  0
  189.5810  175.7500  145.4920 N   0  0  0  0  0  0  0  0  0  0  0  0
  184.9480  176.5540  145.5080 O   0  0  0  0  0  0  0  0  0  0  0  0
  187.5540  177.5880  142.9670 C   0  0  2  0  0  3  0  0  0  0  0  0
  186.1460  177.1810  143.4270 C   0  0  2  0  0  3  0  0  0  0  0  0
  187.8120  175.6690  140.4540 N   0  0  0  0  0  2  0  0  0  0  0  0
  185.1990  178.1540  143.0340 O   0  0  0  0  0  0  0  0  0  0  0  0
  190.5690  174.9160  147.4350 O   0  0  0  0  0  0  0  0  0  0  0  0
  186.1340  179.6930  146.8800 O   0  0  0  0  0  0  0  0  0  0  0  0
  185.2260  178.6550  146.7220 C   0  0  0  0  0  0  0  0  0  0  0  0
  184.5180  178.2910  147.6970 O   0  0  0  0  0  1  0  0  0  0  0  0
  1  9  1  0  0  0  0
  2  1  2  0  0  0  0
  3 13  2  0  0  0  0
  4 22  2  0  0  0  0
  4 13  1  0  0  0  0
  5  7  1  0  0  0  0
  6 16  2  0  0  0  0
  6 12  1  0  0  0  0
  8 17  1  0  0  0  0
  8 24  1  1  0  0  0
 11  7  1  6  0  0  0
 11  6  1  0  0  0  0
 12  3  1  1  0  0  0
 14  8  1  0  0  0  0
 14 17  1  1  0  0  0
 14 12  1  0  0  0  0
 15 10  1  1  0  0  0
 15  8  1  0  0  0  0
 16  4  1  0  0  0  0
 18  9  1  6  0  0  0
 18 11  1  0  0  0  0
 18 19  1  0  0  0  0
 19 21  1  1  0  0  0
 19 14  1  0  0  0  0
 20  1  1  0  0  0  0
 20  5  1  0  0  0  0
 21 15  1  0  0  0  0
 24 23  2  0  0  0  0
 24 25  1  0  0  0  0
M  END
>  <MODEL>
2

>  <REMARK>
 VINA RESULT:      -7.3      2.125      4.251
  Name = 
  1 active torsions:
  status: ('A' for Active; 'I' for Inactive)
    1  A    between atoms: C_8  and  C_12
                            x       y       z     vdW  Elec       q    Type
                         _______ _______ _______ _____ _____    ______ ____

>  <TORSDO>
F 1

$$$$
=
 OpenBabel11072409393D

 25 29  0  0  1  0  0  0  0  0999 V2000
  185.2220  178.5140  145.2930 C   0  0  0  0  0  0  0  0  0  0  0  0
  184.6930  179.1900  144.3730 O   0  0  0  0  0  0  0  0  0  0  0  0
  191.2410  175.8890  145.2420 C   0  0  0  0  0  3  0  0  0  0  0  0
  190.9890  175.4340  147.5990 C   0  0  0  0  0  0  0  0  0  0  0  0
  186.2220  178.4430  147.6140 C   0  0  0  0  0  2  0  0  0  0  0  0
  189.0220  176.1380  146.4380 C   0  0  0  0  0  0  0  0  0  0  0  0
  187.6170  178.0240  147.1830 C   0  0  0  0  0  2  0  0  0  0  0  0
  189.4280  176.5360  142.6290 C   0  0  1  0  0  0  0  0  0  0  0  0
  185.4850  177.0560  145.0710 C   0  0  0  0  0  2  0  0  0  0  0  0
  187.6650  175.9390  141.1300 O   0  0  0  0  0  1  0  0  0  0  0  0
  187.6080  176.6620  146.4870 C   0  0  1  0  0  3  0  0  0  0  0  0
  189.7370  175.9310  145.1100 C   0  0  1  0  0  3  0  0  0  0  0  0
  191.8230  175.5990  146.4030 C   0  0  0  0  0  3  0  0  0  0  0  0
  189.2200  176.8950  144.0230 C   0  0  1  0  0  0  0  0  0  0  0  0
  188.2040  176.9920  141.8710 C   0  0  1  0  0  3  0  0  0  0  0  0
  189.6130  175.8270  147.5570 N   0  0  0  0  0  0  0  0  0  0  0  0
  190.1610  177.5800  143.2290 O   0  0  0  0  0  0  0  0  0  0  0  0
  186.9780  176.7070  145.0780 C   0  0  2  0  0  3  0  0  0  0  0  0
  187.8290  177.4980  144.0740 C   0  0  2  0  0  3  0  0  0  0  0  0
  185.5570  179.1460  146.5280 N   0  0  0  0  0  2  0  0  0  0  0  0
  187.2400  177.4570  142.7890 O   0  0  0  0  0  0  0  0  0  0  0  0
  191.4960  175.0180  148.6740 O   0  0  0  0  0  0  0  0  0  0  0  0
  189.6990  174.0790  142.2400 O   0  0  0  0  0  1  0  0  0  0  0  0
  190.2580  175.3500  142.2400 C   0  0  0  0  0  0  0  0  0  0  0  0
  191.4710  175.4980  141.9370 O   0  0  0  0  0  0  0  0  0  0  0  0
  1 20  1  0  0  0  0
  2  1  2  0  0  0  0
  3 13  2  0  0  0  0
  4 22  2  0  0  0  0
  6 11  1  0  0  0  0
  6 16  2  0  0  0  0
  7  5  1  0  0  0  0
  8 24  1  6  0  0  0
  8 17  1  0  0  0  0
  8 14  1  0  0  0  0
  9  1  1  0  0  0  0
 11  7  1  6  0  0  0
 12  3  1  1  0  0  0
 12  6  1  0  0  0  0
 13  4  1  0  0  0  0
 14 17  1  1  0  0  0
 14 19  1  0  0  0  0
 14 12  1  0  0  0  0
 15 10  1  1  0  0  0
 15  8  1  0  0  0  0
 15 21  1  0  0  0  0
 16  4  1  0  0  0  0
 18  9  1  1  0  0  0
 18 11  1  0  0  0  0
 19 21  1  6  0  0  0
 19 18  1  0  0  0  0
 20  5  1  0  0  0  0
 24 23  1  0  0  0  0
 25 24  2  0  0  0  0
M  END
>  <MODEL>
3

>  <REMARK>
 VINA RESULT:      -7.2      1.910      4.992
  Name = 
  1 active torsions:
  status: ('A' for Active; 'I' for Inactive)
    1  A    between atoms: C_8  and  C_12
                            x       y       z     vdW  Elec       q    Type
                         _______ _______ _______ _____ _____    ______ ____

>  <TORSDO>
F 1

$$$$
=
 OpenBabel11072409393D

 25 29  0  0  1  0  0  0  0  0999 V2000
  191.1120  176.3940  145.3890 C   0  0  0  0  0  0  0  0  0  0  0  0
  191.6140  176.6980  146.5020 O   0  0  0  0  0  0  0  0  0  0  0  0
  185.3440  178.4490  143.0160 C   0  0  0  0  0  3  0  0  0  0  0  0
  185.9810  177.5440  140.8700 C   0  0  0  0  0  0  0  0  0  0  0  0
  191.1680  176.6030  142.8700 C   0  0  0  0  0  2  0  0  0  0  0  0
  187.3750  176.9630  142.7230 C   0  0  0  0  0  0  0  0  0  0  0  0
  189.8200  177.2900  142.7290 C   0  0  0  0  0  2  0  0  0  0  0  0
  186.1180  178.1750  146.1560 C   0  0  1  0  0  0  0  0  0  0  0  0
  189.8830  175.5390  145.3510 C   0  0  0  0  0  2  0  0  0  0  0  0
  186.3890  176.8340  148.1150 O   0  0  0  0  0  1  0  0  0  0  0  0
  188.6790  176.4060  143.2370 C   0  0  1  0  0  3  0  0  0  0  0  0
  186.3240  177.5110  143.6800 C   0  0  1  0  0  3  0  0  0  0  0  0
  185.1460  178.4200  141.7000 C   0  0  0  0  0  3  0  0  0  0  0  0
  186.9570  178.0620  144.9730 C   0  0  1  0  0  0  0  0  0  0  0  0
  186.9850  177.8330  147.3440 C   0  0  1  0  0  3  0  0  0  0  0  0
  187.1430  176.9330  141.4420 N   0  0  0  0  0  0  0  0  0  0  0  0
  186.5330  179.3210  145.4460 O   0  0  0  0  0  0  0  0  0  0  0  0
  188.6630  176.2660  144.7750 C   0  0  2  0  0  3  0  0  0  0  0  0
  188.3000  177.5780  145.4850 C   0  0  2  0  0  3  0  0  0  0  0  0
  191.7230  176.8660  144.1890 N   0  0  0  0  0  2  0  0  0  0  0  0
  188.2390  177.3810  146.8840 O   0  0  0  0  0  0  0  0  0  0  0  0
  185.7210  177.3900  139.6490 O   0  0  0  0  0  0  0  0  0  0  0  0
  183.7700  178.9540  145.7800 O   0  0  0  0  0  0  0  0  0  0  0  0
  184.6420  177.9210  146.0980 C   0  0  0  0  0  0  0  0  0  0  0  0
  184.1850  176.7780  146.3630 O   0  0  0  0  0  1  0  0  0  0  0  0
  1  2  2  0  0  0  0
  4 16  1  0  0  0  0
  4 13  1  0  0  0  0
  5 20  1  0  0  0  0
  6 11  1  0  0  0  0
  6 12  1  0  0  0  0
  7  5  1  0  0  0  0
  8 24  1  6  0  0  0
  8 15  1  0  0  0  0
  9  1  1  0  0  0  0
 11  7  1  1  0  0  0
 11 18  1  0  0  0  0
 12  3  1  6  0  0  0
 12 14  1  0  0  0  0
 13  3  2  0  0  0  0
 14 17  1  6  0  0  0
 14 19  1  0  0  0  0
 14  8  1  0  0  0  0
 15 10  1  6  0  0  0
 16  6  2  0  0  0  0
 17  8  1  0  0  0  0
 18  9  1  1  0  0  0
 18 19  1  0  0  0  0
 19 21  1  1  0  0  0
 20  1  1  0  0  0  0
 21 15  1  0  0  0  0
 22  4  2  0  0  0  0
 23 24  2  0  0  0  0
 24 25  1  0  0  0  0
M  END
>  <MODEL>
4

>  <REMARK>
 VINA RESULT:      -7.1      2.277      4.468
  Name = 
  1 active torsions:
  status: ('A' for Active; 'I' for Inactive)
    1  A    between atoms: C_8  and  C_12
                            x       y       z     vdW  Elec       q    Type
                         _______ _______ _______ _____ _____    ______ ____

>  <TORSDO>
F 1

$$$$
=
 OpenBabel11072409393D

 25 29  0  0  1  0  0  0  0  0999 V2000
  185.4850  178.3470  147.5220 C   0  0  0  0  0  0  0  0  0  0  0  0
  185.6290  177.8840  148.6820 O   0  0  0  0  0  0  0  0  0  0  0  0
  188.3760  176.1410  142.0540 C   0  0  0  0  0  3  0  0  0  0  0  0
  186.8750  177.5350  140.7780 C   0  0  0  0  0  0  0  0  0  0  0  0
  184.0050  178.6660  145.4970 C   0  0  0  0  0  2  0  0  0  0  0  0
  186.9010  177.8890  143.1420 C   0  0  0  0  0  0  0  0  0  0  0  0
  184.8640  177.8650  144.5330 C   0  0  0  0  0  2  0  0  0  0  0  0
  189.5450  175.8570  145.0680 C   0  0  1  0  0  0  0  0  0  0  0  0
  186.6380  179.0370  146.8610 C   0  0  0  0  0  2  0  0  0  0  0  0
  190.6980  176.7920  146.9420 O   0  0  0  0  0  1  0  0  0  0  0  0
  186.2540  178.4820  144.3690 C   0  0  1  0  0  3  0  0  0  0  0  0
  188.1560  177.0340  143.2520 C   0  0  1  0  0  3  0  0  0  0  0  0
  187.8160  176.4140  140.8770 C   0  0  0  0  0  3  0  0  0  0  0  0
  188.2410  176.3110  144.6100 C   0  0  1  0  0  0  0  0  0  0  0  0
  189.5770  176.0510  146.5660 C   0  0  1  0  0  3  0  0  0  0  0  0
  186.3870  178.1520  141.9740 N   0  0  0  0  0  0  0  0  0  0  0  0
  188.5710  174.9400  144.6230 O   0  0  0  0  0  0  0  0  0  0  0  0
  187.1470  178.3020  145.6160 C   0  0  2  0  0  3  0  0  0  0  0  0
  187.5470  176.8370  145.8510 C   0  0  2  0  0  3  0  0  0  0  0  0
  184.2290  178.2080  146.8590 N   0  0  0  0  0  2  0  0  0  0  0  0
  188.4110  176.7360  146.9660 O   0  0  0  0  0  0  0  0  0  0  0  0
  186.4440  177.9040  139.6540 O   0  0  0  0  0  0  0  0  0  0  0  0
  191.3590  177.1650  143.9450 O   0  0  0  0  0  1  0  0  0  0  0  0
  190.7570  175.9380  144.1900 C   0  0  0  0  0  0  0  0  0  0  0  0
  191.2180  174.8980  143.6500 O   0  0  0  0  0  0  0  0  0  0  0  0
  1  2  2  0  0  0  0
  4 13  1  0  0  0  0
  4 16  1  0  0  0  0
  5 20  1  0  0  0  0
  6 12  1  0  0  0  0
  6 11  1  0  0  0  0
  7  5  1  0  0  0  0
  8 24  1  6  0  0  0
  8 15  1  0  0  0  0
  9  1  1  0  0  0  0
 11  7  1  1  0  0  0
 11 18  1  0  0  0  0
 12  3  1  6  0  0  0
 12 14  1  0  0  0  0
 13  3  2  0  0  0  0
 14 17  1  6  0  0  0
 14  8  1  0  0  0  0
 14 19  1  0  0  0  0
 15 10  1  6  0  0  0
 15 21  1  0  0  0  0
 16  6  2  0  0  0  0
 17  8  1  0  0  0  0
 18 19  1  0  0  0  0
 18  9  1  1  0  0  0
 19 21  1  1  0  0  0
 20  1  1  0  0  0  0
 22  4  2  0  0  0  0
 23 24  1  0  0  0  0
 25 24  2  0  0  0  0
M  END
>  <MODEL>
5

>  <REMARK>
 VINA RESULT:      -7.0      2.195      5.872
  Name = 
  1 active torsions:
  status: ('A' for Active; 'I' for Inactive)
    1  A    between atoms: C_8  and  C_12
                            x       y       z     vdW  Elec       q    Type
                         _______ _______ _______ _____ _____    ______ ____

>  <TORSDO>
F 1

$$$$
=
 OpenBabel11072409393D

 25 29  0  0  1  0  0  0  0  0999 V2000
  190.4460  173.2430  141.1490 C   0  0  0  0  0  0  0  0  0  0  0  0
  191.6750  172.9780  141.1840 O   0  0  0  0  0  0  0  0  0  0  0  0
  187.3700  177.9550  144.5330 C   0  0  0  0  0  3  0  0  0  0  0  0
  185.4230  177.5790  143.1580 C   0  0  0  0  0  0  0  0  0  0  0  0
  188.4780  174.1730  139.8630 C   0  0  0  0  0  2  0  0  0  0  0  0
  187.1850  175.9750  142.9640 C   0  0  0  0  0  0  0  0  0  0  0  0
  188.1910  175.3290  140.8080 C   0  0  0  0  0  2  0  0  0  0  0  0
  190.1140  176.4640  145.4170 C   0  0  1  0  0  0  0  0  0  0  0  0
  189.6050  172.9750  142.3590 C   0  0  0  0  0  2  0  0  0  0  0  0
  191.2350  174.5910  146.3920 O   0  0  0  0  0  1  0  0  0  0  0  0
  187.8210  174.8360  142.2070 C   0  0  1  0  0  3  0  0  0  0  0  0
  187.8480  176.5610  144.2040 C   0  0  1  0  0  3  0  0  0  0  0  0
  186.2020  178.4080  144.0850 C   0  0  0  0  0  3  0  0  0  0  0  0
  189.3820  176.4060  144.1610 C   0  0  1  0  0  0  0  0  0  0  0  0
  191.2480  175.4720  145.3100 C   0  0  1  0  0  3  0  0  0  0  0  0
  186.0320  176.4290  142.5620 N   0  0  0  0  0  0  0  0  0  0  0  0
  190.1790  177.5220  144.4870 O   0  0  0  0  0  0  0  0  0  0  0  0
  189.0220  174.2500  142.9800 C   0  0  2  0  0  3  0  0  0  0  0  0
  190.0620  175.3170  143.3550 C   0  0  2  0  0  3  0  0  0  0  0  0
  189.8770  173.7890  139.9590 N   0  0  0  0  0  2  0  0  0  0  0  0
  191.1090  174.7400  144.1120 O   0  0  0  0  0  0  0  0  0  0  0  0
  184.2550  177.9160  142.8340 O   0  0  0  0  0  0  0  0  0  0  0  0
  188.5030  175.9570  147.2630 O   0  0  0  0  0  0  0  0  0  0  0  0
  189.4360  176.8210  146.7060 C   0  0  0  0  0  0  0  0  0  0  0  0
  189.6910  177.9160  147.2720 O   0  0  0  0  0  1  0  0  0  0  0  0
  1  2  2  0  0  0  0
  1  9  1  0  0  0  0
  4 13  1  0  0  0  0
  5 20  1  0  0  0  0
  5  7  1  0  0  0  0
  6 12  1  0  0  0  0
  8 24  1  1  0  0  0
 11  7  1  6  0  0  0
 11  6  1  0  0  0  0
 11 18  1  0  0  0  0
 12  3  1  6  0  0  0
 13  3  2  0  0  0  0
 14 12  1  0  0  0  0
 14 17  1  6  0  0  0
 14  8  1  0  0  0  0
 15  8  1  0  0  0  0
 15 10  1  1  0  0  0
 16  6  2  0  0  0  0
 16  4  1  0  0  0  0
 17  8  1  0  0  0  0
 18  9  1  6  0  0  0
 18 19  1  0  0  0  0
 19 21  1  1  0  0  0
 19 14  1  0  0  0  0
 20  1  1  0  0  0  0
 21 15  1  0  0  0  0
 22  4  2  0  0  0  0
 24 23  2  0  0  0  0
 24 25  1  0  0  0  0
M  END
>  <MODEL>
6

>  <REMARK>
 VINA RESULT:      -6.9      2.634      4.801
  Name = 
  1 active torsions:
  status: ('A' for Active; 'I' for Inactive)
    1  A    between atoms: C_8  and  C_12
                            x       y       z     vdW  Elec       q    Type
                         _______ _______ _______ _____ _____    ______ ____

>  <TORSDO>
F 1

$$$$
=
 OpenBabel11072409393D

 25 29  0  0  1  0  0  0  0  0999 V2000
  191.4950  176.2230  147.4080 C   0  0  0  0  0  0  0  0  0  0  0  0
  191.6150  176.9700  148.4130 O   0  0  0  0  0  0  0  0  0  0  0  0
  187.0240  176.7900  142.6320 C   0  0  0  0  0  3  0  0  0  0  0  0
  188.2770  175.1670  141.3580 C   0  0  0  0  0  0  0  0  0  0  0  0
  192.4080  175.4370  145.1860 C   0  0  0  0  0  2  0  0  0  0  0  0
  188.9220  175.4510  143.6430 C   0  0  0  0  0  0  0  0  0  0  0  0
  191.2390  175.9200  144.3430 C   0  0  0  0  0  2  0  0  0  0  0  0
  186.6760  177.8160  145.6920 C   0  0  1  0  0  0  0  0  0  0  0  0
  190.2920  175.3380  147.2940 C   0  0  0  0  0  2  0  0  0  0  0  0
  186.1760  177.3660  147.9850 O   0  0  0  0  0  1  0  0  0  0  0  0
  189.9340  175.2280  144.7390 C   0  0  1  0  0  3  0  0  0  0  0  0
  187.6540  176.2550  143.8960 C   0  0  1  0  0  3  0  0  0  0  0  0
  187.2780  176.2380  141.4480 C   0  0  0  0  0  3  0  0  0  0  0  0
  187.8540  177.3080  145.0040 C   0  0  1  0  0  0  0  0  0  0  0  0
  187.0670  178.0240  147.1360 C   0  0  1  0  0  3  0  0  0  0  0  0
  189.1320  174.9080  142.4770 N   0  0  0  0  0  0  0  0  0  0  0  0
  187.3880  178.6190  144.7770 O   0  0  0  0  0  0  0  0  0  0  0  0
  189.3920  175.6980  146.1070 C   0  0  2  0  0  3  0  0  0  0  0  0
  188.9080  177.1560  146.0840 C   0  0  2  0  0  3  0  0  0  0  0  0
  192.5060  176.2300  146.4010 N   0  0  0  0  0  2  0  0  0  0  0  0
  188.3660  177.5150  147.3400 O   0  0  0  0  0  0  0  0  0  0  0  0
  188.4310  174.5320  140.2830 O   0  0  0  0  0  0  0  0  0  0  0  0
  184.5680  178.3390  144.4500 O   0  0  0  0  0  0  0  0  0  0  0  0
  185.2910  177.4590  145.2440 C   0  0  0  0  0  0  0  0  0  0  0  0
  184.7690  176.3730  145.6080 O   0  0  0  0  0  1  0  0  0  0  0  0
  1  2  2  0  0  0  0
  4 13  1  0  0  0  0
  4 16  1  0  0  0  0
  5 20  1  0  0  0  0
  6 12  1  0  0  0  0
  6 11  1  0  0  0  0
  7  5  1  0  0  0  0
  8 24  1  6  0  0  0
  8 15  1  0  0  0  0
  9  1  1  0  0  0  0
 11  7  1  6  0  0  0
 11 18  1  0  0  0  0
 12  3  1  6  0  0  0
 12 14  1  0  0  0  0
 13  3  2  0  0  0  0
 14 17  1  6  0  0  0
 14  8  1  0  0  0  0
 14 19  1  0  0  0  0
 15 21  1  0  0  0  0
 15 10  1  1  0  0  0
 16  6  2  0  0  0  0
 17  8  1  0  0  0  0
 18  9  1  1  0  0  0
 19 18  1  0  0  0  0
 19 21  1  1  0  0  0
 20  1  1  0  0  0  0
 22  4  2  0  0  0  0
 23 24  2  0  0  0  0
 24 25  1  0  0  0  0
M  END
>  <MODEL>
7

>  <REMARK>
 VINA RESULT:      -6.8      2.106      4.545
  Name = 
  1 active torsions:
  status: ('A' for Active; 'I' for Inactive)
    1  A    between atoms: C_8  and  C_12
                            x       y       z     vdW  Elec       q    Type
                         _______ _______ _______ _____ _____    ______ ____

>  <TORSDO>
F 1

$$$$
=
 OpenBabel11072409393D

 25 29  0  0  1  0  0  0  0  0999 V2000
  187.8160  175.6260  140.8840 C   0  0  0  0  0  0  0  0  0  0  0  0
  188.8270  175.3080  140.2060 O   0  0  0  0  0  0  0  0  0  0  0  0
  187.7770  177.5810  147.1520 C   0  0  0  0  0  3  0  0  0  0  0  0
  185.4710  178.2360  146.8640 C   0  0  0  0  0  0  0  0  0  0  0  0
  185.9500  177.2730  141.3290 C   0  0  0  0  0  2  0  0  0  0  0  0
  186.4380  176.9490  145.0960 C   0  0  0  0  0  0  0  0  0  0  0  0
  186.3920  177.6510  142.7330 C   0  0  0  0  0  2  0  0  0  0  0  0
  190.0090  175.6720  145.7720 C   0  0  1  0  0  0  0  0  0  0  0  0
  187.3920  174.7470  142.0200 C   0  0  0  0  0  2  0  0  0  0  0  0
  190.7130  173.5160  145.0170 O   0  0  0  0  0  1  0  0  0  0  0  0
  186.3730  176.4470  143.6750 C   0  0  1  0  0  3  0  0  0  0  0  0
  187.6320  176.6310  145.9870 C   0  0  1  0  0  3  0  0  0  0  0  0
  186.7420  178.2910  147.5960 C   0  0  0  0  0  3  0  0  0  0  0  0
  188.9220  176.4270  145.1680 C   0  0  1  0  0  0  0  0  0  0  0  0
  190.6500  174.8660  144.6670 C   0  0  1  0  0  3  0  0  0  0  0  0
  185.4330  177.6310  145.5660 N   0  0  0  0  0  0  0  0  0  0  0  0
  190.1010  177.0690  145.5980 O   0  0  0  0  0  0  0  0  0  0  0  0
  187.5030  175.4350  143.3850 C   0  0  2  0  0  3  0  0  0  0  0  0
  188.8960  175.9910  143.7150 C   0  0  2  0  0  3  0  0  0  0  0  0
  187.0930  176.8120  140.5560 N   0  0  0  0  0  2  0  0  0  0  0  0
  189.8860  175.0060  143.4900 O   0  0  0  0  0  0  0  0  0  0  0  0
  184.4410  178.7790  147.3390 O   0  0  0  0  0  0  0  0  0  0  0  0
  188.9500  174.3850  147.6380 O   0  0  0  0  0  0  0  0  0  0  0  0
  189.9590  175.2350  147.2040 C   0  0  0  0  0  0  0  0  0  0  0  0
  190.8160  175.6560  148.0250 O   0  0  0  0  0  1  0  0  0  0  0  0
  1  9  1  0  0  0  0
  2  1  2  0  0  0  0
  3 13  2  0  0  0  0
  4 22  2  0  0  0  0
  4 13  1  0  0  0  0
  5  7  1  0  0  0  0
  6 16  2  0  0  0  0
  6 12  1  0  0  0  0
  8 24  1  1  0  0  0
 11  7  1  6  0  0  0
 11  6  1  0  0  0  0
 12  3  1  1  0  0  0
 14 17  1  6  0  0  0
 14  8  1  0  0  0  0
 14 12  1  0  0  0  0
 15 10  1  1  0  0  0
 15  8  1  0  0  0  0
 16  4  1  0  0  0  0
 17  8  1  0  0  0  0
 18  9  1  6  0  0  0
 18 11  1  0  0  0  0
 18 19  1  0  0  0  0
 19 21  1  1  0  0  0
 19 14  1  0  0  0  0
 20  1  1  0  0  0  0
 20  5  1  0  0  0  0
 21 15  1  0  0  0  0
 24 23  2  0  0  0  0
 24 25  1  0  0  0  0
M  END
>  <MODEL>
8

>  <REMARK>
 VINA RESULT:      -6.8      2.515      4.740
  Name = 
  1 active torsions:
  status: ('A' for Active; 'I' for Inactive)
    1  A    between atoms: C_8  and  C_12
                            x       y       z     vdW  Elec       q    Type
                         _______ _______ _______ _____ _____    ______ ____

>  <TORSDO>
F 1

$$$$
=
 OpenBabel11072409393D

 25 29  0  0  1  0  0  0  0  0999 V2000
  186.3200  177.8770  146.7540 C   0  0  0  0  0  0  0  0  0  0  0  0
  186.3070  177.8330  148.0110 O   0  0  0  0  0  0  0  0  0  0  0  0
  189.7480  173.9640  142.7460 C   0  0  0  0  0  3  0  0  0  0  0  0
  188.4650  174.8430  140.9000 C   0  0  0  0  0  0  0  0  0  0  0  0
  185.1040  177.4910  144.5720 C   0  0  0  0  0  2  0  0  0  0  0  0
  188.2240  175.9730  142.9930 C   0  0  0  0  0  0  0  0  0  0  0  0
  186.0380  176.4140  144.0460 C   0  0  0  0  0  2  0  0  0  0  0  0
  190.5400  174.7160  145.8020 C   0  0  1  0  0  0  0  0  0  0  0  0
  187.5700  178.3070  146.0500 C   0  0  0  0  0  2  0  0  0  0  0  0
  191.4990  176.2310  147.3830 O   0  0  0  0  0  1  0  0  0  0  0  0
  187.4610  176.9440  143.8600 C   0  0  1  0  0  3  0  0  0  0  0  0
  189.4230  175.2080  143.5380 C   0  0  1  0  0  3  0  0  0  0  0  0
  189.3420  173.8230  141.4860 C   0  0  0  0  0  3  0  0  0  0  0  0
  189.3180  174.9860  145.0600 C   0  0  1  0  0  0  0  0  0  0  0  0
  190.4020  175.4040  147.1400 C   0  0  1  0  0  3  0  0  0  0  0  0
  187.8630  175.8260  141.7500 N   0  0  0  0  0  0  0  0  0  0  0  0
  189.5890  173.7000  145.5720 O   0  0  0  0  0  0  0  0  0  0  0  0
  188.1920  177.1960  145.1960 C   0  0  2  0  0  3  0  0  0  0  0  0
  188.5030  175.8980  145.9560 C   0  0  2  0  0  3  0  0  0  0  0  0
  185.1470  177.5200  146.0250 N   0  0  0  0  0  2  0  0  0  0  0  0
  189.2250  176.1800  147.1390 O   0  0  0  0  0  0  0  0  0  0  0  0
  188.1840  174.8100  139.6740 O   0  0  0  0  0  0  0  0  0  0  0  0
  192.5260  175.5750  144.5460 O   0  0  0  0  0  0  0  0  0  0  0  0
  191.8500  174.4990  145.1060 C   0  0  0  0  0  0  0  0  0  0  0  0
  192.3280  173.3390  145.0040 O   0  0  0  0  0  1  0  0  0  0  0  0
  1  2  2  0  0  0  0
  4 13  1  0  0  0  0
  4 16  1  0  0  0  0
  5 20  1  0  0  0  0
  6 12  1  0  0  0  0
  6 11  1  0  0  0  0
  7  5  1  0  0  0  0
  8 24  1  6  0  0  0
  8 15  1  0  0  0  0
  9  1  1  0  0  0  0
 11  7  1  1  0  0  0
 11 18  1  0  0  0  0
 12  3  1  6  0  0  0
 12 14  1  0  0  0  0
 13  3  2  0  0  0  0
 14 17  1  1  0  0  0
 14  8  1  0  0  0  0
 14 19  1  0  0  0  0
 15 10  1  6  0  0  0
 16  6  2  0  0  0  0
 17  8  1  0  0  0  0
 18 19  1  0  0  0  0
 18  9  1  1  0  0  0
 19 21  1  1  0  0  0
 20  1  1  0  0  0  0
 21 15  1  0  0  0  0
 22  4  2  0  0  0  0
 23 24  2  0  0  0  0
 25 24  1  0  0  0  0
M  END
>  <MODEL>
9

>  <REMARK>
 VINA RESULT:      -6.8      2.579      6.258
  Name = 
  1 active torsions:
  status: ('A' for Active; 'I' for Inactive)
    1  A    between atoms: C_8  and  C_12
                            x       y       z     vdW  Elec       q    Type
                         _______ _______ _______ _____ _____    ______ ____

>  <TORSDO>
F 1

$$$$
