=
 OpenBabel11062422263D

 36 40  0  0  1  0  0  0  0  0999 V2000
  195.2200  174.5030  143.0940 N   0  0  0  0  0  2  0  0  0  0  0  0
  191.4510  175.7800  145.3560 C   0  0  2  0  0  3  0  0  0  0  0  0
  192.8140  174.9000  143.3660 C   0  0  1  0  0  3  0  0  0  0  0  0
  191.9950  176.0170  146.7790 C   0  0  0  0  0  3  0  0  0  0  0  0
  194.0700  175.2620  142.5620 C   0  0  1  0  0  3  0  0  0  0  0  0
  193.7170  176.2480  145.2110 C   0  0  0  0  0  0  0  0  0  0  0  0
  193.4400  176.4900  146.6390 C   0  0  0  0  0  3  0  0  0  0  0  0
  194.9040  176.2670  144.6970 N   0  0  0  0  0  0  0  0  0  0  0  0
  195.1680  175.9650  143.2850 C   0  0  1  0  0  3  0  0  0  0  0  0
  192.6000  175.8360  144.4670 N   0  0  0  0  0  0  0  0  0  0  0  0
  191.0060  178.0380  144.2130 C   0  0  0  0  0  1  0  0  0  0  0  0
  190.4140  176.8370  144.9380 C   0  0  2  0  0  3  0  0  0  0  0  0
  189.4690  177.2550  146.0640 C   0  0  0  0  0  2  0  0  0  0  0  0
  188.2400  176.3500  146.1730 C   0  0  0  0  0  2  0  0  0  0  0  0
  183.9530  178.2460  146.3490 O   0  0  0  0  0  1  0  0  0  0  0  0
  185.9700  178.9810  145.2010 C   0  0  2  0  0  3  0  0  0  0  0  0
  187.2470  178.2510  144.8200 C   0  0  0  0  0  2  0  0  0  0  0  0
  187.0360  175.9790  144.1680 F   0  0  0  0  0  0  0  0  0  0  0  0
  187.0840  176.8020  145.2790 C   0  0  1  0  0  0  0  0  0  0  0  0
  185.3450  178.1340  146.3060 C   0  0  2  0  0  3  0  0  0  0  0  0
  185.7600  176.7060  146.0240 C   0  0  0  0  0  2  0  0  0  0  0  0
  183.9720  179.6470  144.0990 O   0  0  0  0  0  0  0  0  0  0  0  0
  185.0800  179.1420  143.9890 C   0  0  0  0  0  0  0  0  0  0  0  0
  185.5280  178.6890  142.6380 C   0  0  0  0  0  2  0  0  0  0  0  0
  184.9200  177.4800  142.2810 O   0  0  0  0  0  1  0  0  0  0  0  0
  191.6160  174.8830  142.4220 C   0  0  0  0  0  2  0  0  0  0  0  0
  188.7410  174.3950  140.7020 O   0  0  0  0  0  0  0  0  0  0  0  0
  189.3600  173.8720  142.9630 C   0  0  0  0  0  2  0  0  0  0  0  0
  189.2510  173.4220  139.8280 C   0  0  2  0  0  3  0  0  0  0  0  0
  191.0310  172.6090  141.4150 C   0  0  0  0  0  2  0  0  0  0  0  0
  188.3470  173.6860  141.8370 C   0  0  0  0  0  2  0  0  0  0  0  0
  190.7510  173.2410  140.0530 C   0  0  0  0  0  2  0  0  0  0  0  0
  190.8230  173.5890  142.5840 C   0  0  1  0  0  3  0  0  0  0  0  0
  189.9610  173.6120  137.4370 O   0  0  0  0  0  0  0  0  0  0  0  0
  187.8940  174.3370  138.1000 O   0  0  0  0  0  1  0  0  0  0  0  0
  189.0000  173.8240  138.4140 C   0  0  0  0  0  0  0  0  0  0  0  0
  2 12  1  6  0  0  0
  2  4  1  0  0  0  0
  3 26  1  6  0  0  0
  3 10  1  0  0  0  0
  5  1  1  1  0  0  0
  5  9  1  0  0  0  0
  5  3  1  0  0  0  0
  6  7  1  0  0  0  0
  7  4  2  0  0  0  0
  8  6  2  0  0  0  0
  9  1  1  1  0  0  0
  9  8  1  0  0  0  0
 10  6  1  0  0  0  0
 10  2  1  0  0  0  0
 12 11  1  1  0  0  0
 12 13  1  0  0  0  0
 13 14  1  0  0  0  0
 16 23  1  6  0  0  0
 16 20  1  0  0  0  0
 17 16  1  0  0  0  0
 17 19  1  0  0  0  0
 19 18  1  6  0  0  0
 19 21  1  0  0  0  0
 19 14  1  0  0  0  0
 20 15  1  6  0  0  0
 21 20  1  0  0  0  0
 23 22  2  0  0  0  0
 24 23  1  0  0  0  0
 25 24  1  0  0  0  0
 27 31  1  0  0  0  0
 29 36  1  6  0  0  0
 29 32  1  0  0  0  0
 29 27  1  0  0  0  0
 30 33  1  0  0  0  0
 31 28  1  0  0  0  0
 32 30  1  0  0  0  0
 33 26  1  6  0  0  0
 33 28  1  0  0  0  0
 34 36  2  0  0  0  0
 35 36  1  0  0  0  0
M  END
>  <MODEL>
1

>  <REMARK>
 VINA RESULT:      -7.6      0.000      0.000
  Name = 
  9 active torsions:
  status: ('A' for Active; 'I' for Inactive)
    1  A    between atoms: C_3  and  C_14
    2  A    between atoms: C_3  and  C_33
    3  A    between atoms: C_4  and  C_10
    4  A    between atoms: C_4  and  C_36
    5  A    between atoms: C_8  and  C_20
    6  A    between atoms: C_18  and  C_30
    7  A    between atoms: C_19  and  C_31
    8  A    between atoms: C_20  and  C_22
    9  A    between atoms: C_31  and  C_36
                            x       y       z     vdW  Elec       q    Type
                         _______ _______ _______ _____ _____    ______ ____

>  <TORSDO>
F 9

$$$$
=
 OpenBabel11062422263D

 36 40  0  0  1  0  0  0  0  0999 V2000
  185.8540  177.7370  148.0520 N   0  0  0  0  0  2  0  0  0  0  0  0
  186.3680  176.8280  143.5960 C   0  0  2  0  0  3  0  0  0  0  0  0
  187.0240  176.8700  146.0780 C   0  0  1  0  0  3  0  0  0  0  0  0
  184.9870  177.2100  143.0290 C   0  0  0  0  0  3  0  0  0  0  0  0
  187.0880  177.8590  147.2510 C   0  0  1  0  0  3  0  0  0  0  0  0
  185.3840  178.3660  145.0240 C   0  0  0  0  0  0  0  0  0  0  0  0
  184.4410  178.3460  143.8910 C   0  0  0  0  0  3  0  0  0  0  0  0
  185.1650  179.0040  146.1280 N   0  0  0  0  0  0  0  0  0  0  0  0
  186.0880  178.9650  147.2690 C   0  0  1  0  0  3  0  0  0  0  0  0
  186.4820  177.5040  144.8780 N   0  0  0  0  0  0  0  0  0  0  0  0
  187.3610  178.6480  142.0770 C   0  0  0  0  0  1  0  0  0  0  0  0
  187.5230  177.2560  142.6740 C   0  0  2  0  0  3  0  0  0  0  0  0
  187.8870  176.2160  141.6150 C   0  0  0  0  0  2  0  0  0  0  0  0
  187.8450  174.7840  142.1510 C   0  0  0  0  0  2  0  0  0  0  0  0
  190.4640  171.6480  144.4570 O   0  0  0  0  0  1  0  0  0  0  0  0
  189.7140  171.6970  142.1410 C   0  0  2  0  0  3  0  0  0  0  0  0
  189.1870  172.8220  141.2670 C   0  0  0  0  0  2  0  0  0  0  0  0
  190.1370  174.9730  141.5850 F   0  0  0  0  0  0  0  0  0  0  0  0
  189.2100  174.0930  142.1150 C   0  0  1  0  0  0  0  0  0  0  0  0
  189.5260  172.1890  143.5730 C   0  0  2  0  0  3  0  0  0  0  0  0
  189.6470  173.6960  143.5180 C   0  0  0  0  0  2  0  0  0  0  0  0
  191.9550  172.3100  141.6340 O   0  0  0  0  0  0  0  0  0  0  0  0
  191.1550  171.3980  141.7910 C   0  0  0  0  0  0  0  0  0  0  0  0
  191.6320  169.9930  141.6280 C   0  0  0  0  0  2  0  0  0  0  0  0
  190.5960  169.0770  141.8420 O   0  0  0  0  0  1  0  0  0  0  0  0
  188.4250  176.3230  145.8220 C   0  0  0  0  0  2  0  0  0  0  0  0
  191.7100  175.5100  145.7460 O   0  0  0  0  0  0  0  0  0  0  0  0
  190.3950  176.7020  147.3640 C   0  0  0  0  0  2  0  0  0  0  0  0
  192.0530  176.3620  144.6840 C   0  0  2  0  0  3  0  0  0  0  0  0
  190.2050  178.0170  145.1240 C   0  0  0  0  0  2  0  0  0  0  0  0
  191.7900  176.3080  146.8870 C   0  0  0  0  0  2  0  0  0  0  0  0
  190.8020  177.0340  144.1200 C   0  0  0  0  0  2  0  0  0  0  0  0
  189.4830  177.3170  146.2900 C   0  0  1  0  0  3  0  0  0  0  0  0
  192.9510  176.1510  142.3590 O   0  0  0  0  0  0  0  0  0  0  0  0
  193.1460  174.4210  143.8460 O   0  0  0  0  0  1  0  0  0  0  0  0
  192.7370  175.5870  143.6080 C   0  0  0  0  0  0  0  0  0  0  0  0
  2 12  1  6  0  0  0
  2 10  1  0  0  0  0
  3 26  1  6  0  0  0
  3  5  1  0  0  0  0
  4  2  1  0  0  0  0
  4  7  2  0  0  0  0
  5  9  1  0  0  0  0
  5  1  1  1  0  0  0
  6  8  2  0  0  0  0
  7  6  1  0  0  0  0
  9  8  1  6  0  0  0
  9  1  1  0  0  0  0
 10  6  1  0  0  0  0
 10  3  1  0  0  0  0
 12 11  1  6  0  0  0
 13 14  1  0  0  0  0
 13 12  1  0  0  0  0
 16 23  1  6  0  0  0
 16 20  1  0  0  0  0
 17 19  1  0  0  0  0
 17 16  1  0  0  0  0
 19 18  1  6  0  0  0
 19 14  1  0  0  0  0
 19 21  1  0  0  0  0
 20 15  1  1  0  0  0
 21 20  1  0  0  0  0
 22 23  2  0  0  0  0
 24 23  1  0  0  0  0
 24 25  1  0  0  0  0
 27 31  1  0  0  0  0
 29 36  1  6  0  0  0
 29 27  1  0  0  0  0
 30 33  1  0  0  0  0
 31 28  1  0  0  0  0
 32 29  1  0  0  0  0
 32 30  1  0  0  0  0
 33 26  1  6  0  0  0
 33 28  1  0  0  0  0
 34 36  2  0  0  0  0
 36 35  1  0  0  0  0
M  END
>  <MODEL>
2

>  <REMARK>
 VINA RESULT:      -7.6      3.928      7.520
  Name = 
  9 active torsions:
  status: ('A' for Active; 'I' for Inactive)
    1  A    between atoms: C_3  and  C_14
    2  A    between atoms: C_3  and  C_33
    3  A    between atoms: C_4  and  C_10
    4  A    between atoms: C_4  and  C_36
    5  A    between atoms: C_8  and  C_20
    6  A    between atoms: C_18  and  C_30
    7  A    between atoms: C_19  and  C_31
    8  A    between atoms: C_20  and  C_22
    9  A    between atoms: C_31  and  C_36
                            x       y       z     vdW  Elec       q    Type
                         _______ _______ _______ _____ _____    ______ ____

>  <TORSDO>
F 9

$$$$
=
 OpenBabel11062422263D

 36 40  0  0  1  0  0  0  0  0999 V2000
  189.3300  173.7450  140.7420 N   0  0  0  0  0  2  0  0  0  0  0  0
  190.7950  176.5100  144.0820 C   0  0  2  0  0  3  0  0  0  0  0  0
  190.3530  174.2700  142.9090 C   0  0  1  0  0  3  0  0  0  0  0  0
  190.6190  177.9030  143.4460 C   0  0  0  0  0  3  0  0  0  0  0  0
  189.2100  173.5310  142.1970 C   0  0  1  0  0  3  0  0  0  0  0  0
  189.1690  176.3700  142.4360 C   0  0  0  0  0  0  0  0  0  0  0  0
  189.4290  177.8200  142.4930 C   0  0  0  0  0  3  0  0  0  0  0  0
  188.4070  175.8120  141.5510 N   0  0  0  0  0  0  0  0  0  0  0  0
  188.2050  174.3600  141.4710 C   0  0  1  0  0  3  0  0  0  0  0  0
  189.9410  175.6080  143.3260 N   0  0  0  0  0  0  0  0  0  0  0  0
  191.5560  176.2170  146.5190 C   0  0  0  0  0  1  0  0  0  0  0  0
  190.3960  176.4860  145.5680 C   0  0  2  0  0  3  0  0  0  0  0  0
  189.1900  175.5980  145.8700 C   0  0  0  0  0  2  0  0  0  0  0  0
  188.0500  176.3580  146.5510 C   0  0  0  0  0  2  0  0  0  0  0  0
  183.8180  178.3770  146.3980 O   0  0  0  0  0  1  0  0  0  0  0  0
  185.9180  179.0060  145.3400 C   0  0  2  0  0  3  0  0  0  0  0  0
  187.1920  178.2260  145.0650 C   0  0  0  0  0  2  0  0  0  0  0  0
  186.9520  175.9350  144.4960 F   0  0  0  0  0  0  0  0  0  0  0  0
  186.9610  176.8030  145.5730 C   0  0  1  0  0  0  0  0  0  0  0  0
  185.2070  178.2250  146.4400 C   0  0  2  0  0  3  0  0  0  0  0  0
  185.5940  176.7750  146.2430 C   0  0  0  0  0  2  0  0  0  0  0  0
  184.0080  179.6800  144.0960 O   0  0  0  0  0  0  0  0  0  0  0  0
  185.1050  179.1390  144.0720 C   0  0  0  0  0  0  0  0  0  0  0  0
  185.6140  178.6150  142.7710 C   0  0  0  0  0  2  0  0  0  0  0  0
  185.0680  177.3590  142.4810 O   0  0  0  0  0  1  0  0  0  0  0  0
  190.8020  173.4380  144.1060 C   0  0  0  0  0  2  0  0  0  0  0  0
  193.8230  174.7650  143.3480 O   0  0  0  0  0  0  0  0  0  0  0  0
  192.5830  172.9520  142.3750 C   0  0  0  0  0  2  0  0  0  0  0  0
  194.4760  174.3300  144.5110 C   0  0  2  0  0  3  0  0  0  0  0  0
  192.9760  172.3380  144.8760 C   0  0  0  0  0  2  0  0  0  0  0  0
  193.9150  173.6920  142.4610 C   0  0  0  0  0  2  0  0  0  0  0  0
  193.4830  173.6570  145.4570 C   0  0  0  0  0  2  0  0  0  0  0  0
  191.9730  172.5370  143.7250 C   0  0  1  0  0  3  0  0  0  0  0  0
  195.7420  176.4860  144.4660 O   0  0  0  0  0  0  0  0  0  0  0  0
  195.0750  175.5680  146.4540 O   0  0  0  0  0  1  0  0  0  0  0  0
  195.1200  175.4860  145.1980 C   0  0  0  0  0  0  0  0  0  0  0  0
  2 12  1  1  0  0  0
  3 10  1  0  0  0  0
  3 26  1  1  0  0  0
  4  2  1  0  0  0  0
  5  1  1  6  0  0  0
  5  3  1  0  0  0  0
  6  7  1  0  0  0  0
  6 10  1  0  0  0  0
  7  4  2  0  0  0  0
  8  6  2  0  0  0  0
  9  1  1  6  0  0  0
  9  8  1  0  0  0  0
  9  5  1  0  0  0  0
 10  2  1  0  0  0  0
 12 13  1  0  0  0  0
 12 11  1  1  0  0  0
 13 14  1  0  0  0  0
 16 23  1  6  0  0  0
 16 20  1  0  0  0  0
 17 16  1  0  0  0  0
 17 19  1  0  0  0  0
 19 18  1  6  0  0  0
 19 21  1  0  0  0  0
 19 14  1  0  0  0  0
 20 15  1  6  0  0  0
 21 20  1  0  0  0  0
 23 22  2  0  0  0  0
 24 23  1  0  0  0  0
 25 24  1  0  0  0  0
 27 29  1  0  0  0  0
 28 31  1  0  0  0  0
 28 33  1  0  0  0  0
 29 36  1  1  0  0  0
 29 32  1  0  0  0  0
 30 32  1  0  0  0  0
 31 27  1  0  0  0  0
 33 26  1  1  0  0  0
 33 30  1  0  0  0  0
 34 36  2  0  0  0  0
 36 35  1  0  0  0  0
M  END
>  <MODEL>
3

>  <REMARK>
 VINA RESULT:      -7.6      2.847      4.634
  Name = 
  9 active torsions:
  status: ('A' for Active; 'I' for Inactive)
    1  A    between atoms: C_3  and  C_14
    2  A    between atoms: C_3  and  C_33
    3  A    between atoms: C_4  and  C_10
    4  A    between atoms: C_4  and  C_36
    5  A    between atoms: C_8  and  C_20
    6  A    between atoms: C_18  and  C_30
    7  A    between atoms: C_19  and  C_31
    8  A    between atoms: C_20  and  C_22
    9  A    between atoms: C_31  and  C_36
                            x       y       z     vdW  Elec       q    Type
                         _______ _______ _______ _____ _____    ______ ____

>  <TORSDO>
F 9

$$$$
=
 OpenBabel11062422263D

 36 40  0  0  1  0  0  0  0  0999 V2000
  193.5480  171.4540  144.6640 N   0  0  0  0  0  2  0  0  0  0  0  0
  192.0210  175.5980  145.8670 C   0  0  2  0  0  3  0  0  0  0  0  0
  191.8820  173.2470  144.8460 C   0  0  1  0  0  3  0  0  0  0  0  0
  193.1950  176.1420  146.7040 C   0  0  0  0  0  3  0  0  0  0  0  0
  192.6680  172.3450  143.8820 C   0  0  1  0  0  3  0  0  0  0  0  0
  193.9590  174.5060  145.2170 C   0  0  0  0  0  0  0  0  0  0  0  0
  194.4760  175.5350  146.1380 C   0  0  0  0  0  3  0  0  0  0  0  0
  194.6910  173.5690  144.7050 N   0  0  0  0  0  0  0  0  0  0  0  0
  194.1480  172.5180  143.8360 C   0  0  1  0  0  3  0  0  0  0  0  0
  192.5650  174.5210  145.0560 N   0  0  0  0  0  0  0  0  0  0  0  0
  192.3980  177.3940  144.0670 C   0  0  0  0  0  1  0  0  0  0  0  0
  191.3960  176.6720  144.9590 C   0  0  2  0  0  3  0  0  0  0  0  0
  190.4780  177.6470  145.6960 C   0  0  0  0  0  2  0  0  0  0  0  0
  189.4860  176.9410  146.6230 C   0  0  0  0  0  2  0  0  0  0  0  0
  184.9140  177.8160  147.2100 O   0  0  0  0  0  1  0  0  0  0  0  0
  186.4130  178.3610  145.3710 C   0  0  2  0  0  3  0  0  0  0  0  0
  187.7710  177.8110  144.9690 C   0  0  0  0  0  2  0  0  0  0  0  0
  188.1420  175.4940  145.3150 F   0  0  0  0  0  0  0  0  0  0  0  0
  188.1210  176.7120  145.9710 C   0  0  1  0  0  0  0  0  0  0  0  0
  186.2520  177.9790  146.8390 C   0  0  2  0  0  3  0  0  0  0  0  0
  187.0210  176.6890  147.0230 C   0  0  0  0  0  2  0  0  0  0  0  0
  185.3260  176.5980  144.2040 O   0  0  0  0  0  0  0  0  0  0  0  0
  185.3350  177.7900  144.4770 C   0  0  0  0  0  0  0  0  0  0  0  0
  184.2640  178.6610  143.9090 C   0  0  0  0  0  2  0  0  0  0  0  0
  184.4600  180.0010  144.2600 O   0  0  0  0  0  1  0  0  0  0  0  0
  190.4820  173.4630  144.2820 C   0  0  0  0  0  2  0  0  0  0  0  0
  187.8630  174.3390  142.3230 O   0  0  0  0  0  0  0  0  0  0  0  0
  189.0920  172.2850  142.5250 C   0  0  0  0  0  2  0  0  0  0  0  0
  188.5710  175.2450  141.5190 C   0  0  2  0  0  3  0  0  0  0  0  0
  190.8050  174.1220  141.8340 C   0  0  0  0  0  2  0  0  0  0  0  0
  188.0710  173.0940  141.7300 C   0  0  0  0  0  2  0  0  0  0  0  0
  190.0010  175.4050  142.0340 C   0  0  0  0  0  2  0  0  0  0  0  0
  190.4140  173.0110  142.8260 C   0  0  1  0  0  3  0  0  0  0  0  0
  188.6160  177.7430  141.6380 O   0  0  0  0  0  1  0  0  0  0  0  0
  186.6360  176.6240  141.3780 O   0  0  0  0  0  0  0  0  0  0  0  0
  187.8860  176.5700  141.5170 C   0  0  0  0  0  0  0  0  0  0  0  0
  2 12  1  6  0  0  0
  2  4  1  0  0  0  0
  3 26  1  6  0  0  0
  3 10  1  0  0  0  0
  5  1  1  1  0  0  0
  5  3  1  0  0  0  0
  6  7  1  0  0  0  0
  7  4  2  0  0  0  0
  8  6  2  0  0  0  0
  9  5  1  0  0  0  0
  9  1  1  1  0  0  0
  9  8  1  0  0  0  0
 10  6  1  0  0  0  0
 10  2  1  0  0  0  0
 12 11  1  1  0  0  0
 12 13  1  0  0  0  0
 13 14  1  0  0  0  0
 16 23  1  6  0  0  0
 16 20  1  0  0  0  0
 17 16  1  0  0  0  0
 17 19  1  0  0  0  0
 19 18  1  6  0  0  0
 19 14  1  0  0  0  0
 19 21  1  0  0  0  0
 20 21  1  0  0  0  0
 20 15  1  6  0  0  0
 22 23  2  0  0  0  0
 24 25  1  0  0  0  0
 24 23  1  0  0  0  0
 28 33  1  0  0  0  0
 29 36  1  1  0  0  0
 29 32  1  0  0  0  0
 29 27  1  0  0  0  0
 30 32  1  0  0  0  0
 30 33  1  0  0  0  0
 31 27  1  0  0  0  0
 31 28  1  0  0  0  0
 33 26  1  1  0  0  0
 35 36  2  0  0  0  0
 36 34  1  0  0  0  0
M  END
>  <MODEL>
4

>  <REMARK>
 VINA RESULT:      -7.5      1.960      2.427
  Name = 
  9 active torsions:
  status: ('A' for Active; 'I' for Inactive)
    1  A    between atoms: C_3  and  C_14
    2  A    between atoms: C_3  and  C_33
    3  A    between atoms: C_4  and  C_10
    4  A    between atoms: C_4  and  C_36
    5  A    between atoms: C_8  and  C_20
    6  A    between atoms: C_18  and  C_30
    7  A    between atoms: C_19  and  C_31
    8  A    between atoms: C_20  and  C_22
    9  A    between atoms: C_31  and  C_36
                            x       y       z     vdW  Elec       q    Type
                         _______ _______ _______ _____ _____    ______ ____

>  <TORSDO>
F 9

$$$$
=
 OpenBabel11062422263D

 36 40  0  0  1  0  0  0  0  0999 V2000
  186.0580  177.5890  148.0480 N   0  0  0  0  0  2  0  0  0  0  0  0
  187.0580  176.6530  143.6810 C   0  0  2  0  0  3  0  0  0  0  0  0
  187.5100  176.8930  146.1970 C   0  0  1  0  0  3  0  0  0  0  0  0
  185.6760  176.7540  143.0060 C   0  0  0  0  0  3  0  0  0  0  0  0
  187.3040  177.9130  147.3270 C   0  0  1  0  0  3  0  0  0  0  0  0
  185.7060  178.0250  144.9700 C   0  0  0  0  0  0  0  0  0  0  0  0
  184.8690  177.7940  143.7790 C   0  0  0  0  0  3  0  0  0  0  0  0
  185.2930  178.6450  146.0280 N   0  0  0  0  0  0  0  0  0  0  0  0
  186.1200  178.8140  147.2290 C   0  0  1  0  0  3  0  0  0  0  0  0
  186.9510  177.3770  144.9370 N   0  0  0  0  0  0  0  0  0  0  0  0
  187.6910  178.2170  141.7420 C   0  0  0  0  0  1  0  0  0  0  0  0
  188.1810  177.2590  142.8210 C   0  0  2  0  0  3  0  0  0  0  0  0
  189.1620  176.2260  142.2670 C   0  0  0  0  0  2  0  0  0  0  0  0
  188.5300  175.3120  141.2160 C   0  0  0  0  0  2  0  0  0  0  0  0
  189.4920  171.3690  138.8630 O   0  0  0  0  0  1  0  0  0  0  0  0
  190.7740  172.5640  140.5520 C   0  0  2  0  0  3  0  0  0  0  0  0
  190.3760  173.6110  141.5790 C   0  0  0  0  0  2  0  0  0  0  0  0
  188.2300  173.3910  142.5680 F   0  0  0  0  0  0  0  0  0  0  0  0
  188.8720  173.8360  141.4260 C   0  0  1  0  0  0  0  0  0  0  0  0
  189.6660  172.5990  139.5050 C   0  0  2  0  0  3  0  0  0  0  0  0
  188.4060  173.0030  140.2390 C   0  0  0  0  0  2  0  0  0  0  0  0
  190.1590  170.8670  142.0980 O   0  0  0  0  0  0  0  0  0  0  0  0
  190.9330  171.2160  141.2180 C   0  0  0  0  0  0  0  0  0  0  0  0
  192.0320  170.2860  140.8220 C   0  0  0  0  0  2  0  0  0  0  0  0
  192.9060  170.8920  139.9130 O   0  0  0  0  0  1  0  0  0  0  0  0
  189.0020  176.6080  146.0600 C   0  0  0  0  0  2  0  0  0  0  0  0
  191.9060  175.1100  145.1770 O   0  0  0  0  0  0  0  0  0  0  0  0
  189.6630  174.2690  145.3570 C   0  0  0  0  0  2  0  0  0  0  0  0
  192.5000  175.1690  146.4480 C   0  0  2  0  0  3  0  0  0  0  0  0
  190.3200  175.1700  147.7110 C   0  0  0  0  0  2  0  0  0  0  0  0
  191.1440  173.9410  145.1910 C   0  0  0  0  0  2  0  0  0  0  0  0
  191.6050  175.9410  147.4150 C   0  0  0  0  0  2  0  0  0  0  0  0
  189.3240  175.1950  146.5370 C   0  0  1  0  0  3  0  0  0  0  0  0
  194.8500  175.2730  145.5980 O   0  0  0  0  0  0  0  0  0  0  0  0
  194.0280  176.9210  146.9570 O   0  0  0  0  0  1  0  0  0  0  0  0
  193.8330  175.8310  146.3580 C   0  0  0  0  0  0  0  0  0  0  0  0
  2 12  1  6  0  0  0
  2 10  1  0  0  0  0
  3 26  1  6  0  0  0
  3  5  1  0  0  0  0
  4  2  1  0  0  0  0
  4  7  2  0  0  0  0
  5  1  1  1  0  0  0
  6  8  2  0  0  0  0
  7  6  1  0  0  0  0
  9  8  1  6  0  0  0
  9  5  1  0  0  0  0
  9  1  1  0  0  0  0
 10  6  1  0  0  0  0
 10  3  1  0  0  0  0
 12 11  1  6  0  0  0
 13 12  1  0  0  0  0
 14 19  1  0  0  0  0
 14 13  1  0  0  0  0
 16 23  1  1  0  0  0
 16 17  1  0  0  0  0
 19 17  1  0  0  0  0
 19 18  1  1  0  0  0
 20 15  1  1  0  0  0
 20 21  1  0  0  0  0
 20 16  1  0  0  0  0
 21 19  1  0  0  0  0
 23 22  2  0  0  0  0
 24 23  1  0  0  0  0
 25 24  1  0  0  0  0
 27 31  1  0  0  0  0
 27 29  1  0  0  0  0
 28 33  1  0  0  0  0
 29 36  1  6  0  0  0
 29 32  1  0  0  0  0
 31 28  1  0  0  0  0
 32 30  1  0  0  0  0
 33 26  1  6  0  0  0
 33 30  1  0  0  0  0
 34 36  2  0  0  0  0
 36 35  1  0  0  0  0
M  END
>  <MODEL>
5

>  <REMARK>
 VINA RESULT:      -7.5      3.815      7.895
  Name = 
  9 active torsions:
  status: ('A' for Active; 'I' for Inactive)
    1  A    between atoms: C_3  and  C_14
    2  A    between atoms: C_3  and  C_33
    3  A    between atoms: C_4  and  C_10
    4  A    between atoms: C_4  and  C_36
    5  A    between atoms: C_8  and  C_20
    6  A    between atoms: C_18  and  C_30
    7  A    between atoms: C_19  and  C_31
    8  A    between atoms: C_20  and  C_22
    9  A    between atoms: C_31  and  C_36
                            x       y       z     vdW  Elec       q    Type
                         _______ _______ _______ _____ _____    ______ ____

>  <TORSDO>
F 9

$$$$
=
 OpenBabel11062422263D

 36 40  0  0  1  0  0  0  0  0999 V2000
  194.3820  174.6980  142.2370 N   0  0  0  0  0  2  0  0  0  0  0  0
  191.4980  175.2790  145.7440 C   0  0  2  0  0  3  0  0  0  0  0  0
  192.1780  174.8700  143.3030 C   0  0  1  0  0  3  0  0  0  0  0  0
  192.4580  175.2910  146.9500 C   0  0  0  0  0  3  0  0  0  0  0  0
  193.1170  175.4590  142.2390 C   0  0  1  0  0  3  0  0  0  0  0  0
  193.6000  175.9220  145.0080 C   0  0  0  0  0  0  0  0  0  0  0  0
  193.7810  175.8820  146.4710 C   0  0  0  0  0  3  0  0  0  0  0  0
  194.5670  176.1160  144.1710 N   0  0  0  0  0  0  0  0  0  0  0  0
  194.3790  176.0940  142.7150 C   0  0  1  0  0  3  0  0  0  0  0  0
  192.3110  175.5750  144.5750 N   0  0  0  0  0  0  0  0  0  0  0  0
  190.4510  177.1660  147.1390 C   0  0  0  0  0  1  0  0  0  0  0  0
  190.3720  176.3190  145.8750 C   0  0  2  0  0  3  0  0  0  0  0  0
  188.9720  175.7450  145.6560 C   0  0  0  0  0  2  0  0  0  0  0  0
  187.8940  176.4970  146.4380 C   0  0  0  0  0  2  0  0  0  0  0  0
  187.3070  177.8240  141.9770 O   0  0  0  0  0  1  0  0  0  0  0  0
  185.7430  176.8380  143.5610 C   0  0  2  0  0  3  0  0  0  0  0  0
  185.7670  176.7220  145.0760 C   0  0  0  0  0  2  0  0  0  0  0  0
  186.7030  178.5390  146.2820 F   0  0  0  0  0  0  0  0  0  0  0  0
  187.0440  177.4120  145.5550 C   0  0  1  0  0  0  0  0  0  0  0  0
  187.1940  177.0900  143.1610 C   0  0  2  0  0  3  0  0  0  0  0  0
  187.8230  177.8370  144.3170 C   0  0  0  0  0  2  0  0  0  0  0  0
  184.3300  177.9540  142.0090 O   0  0  0  0  0  0  0  0  0  0  0  0
  184.8000  177.9420  143.1380 C   0  0  0  0  0  0  0  0  0  0  0  0
  184.4240  179.0380  144.0800 C   0  0  0  0  0  2  0  0  0  0  0  0
  185.2770  180.1390  143.9420 O   0  0  0  0  0  1  0  0  0  0  0  0
  190.7450  174.9410  142.7840 C   0  0  0  0  0  2  0  0  0  0  0  0
  188.2870  174.2430  140.5640 O   0  0  0  0  0  0  0  0  0  0  0  0
  188.5980  173.6050  142.8580 C   0  0  0  0  0  2  0  0  0  0  0  0
  189.0650  173.4260  139.7290 C   0  0  2  0  0  3  0  0  0  0  0  0
  190.6600  172.7100  141.5430 C   0  0  0  0  0  2  0  0  0  0  0  0
  187.8180  173.3920  141.5640 C   0  0  0  0  0  2  0  0  0  0  0  0
  190.5180  173.4190  140.1980 C   0  0  0  0  0  2  0  0  0  0  0  0
  190.1280  173.5470  142.7200 C   0  0  1  0  0  3  0  0  0  0  0  0
  190.0410  173.6960  137.4420 O   0  0  0  0  0  0  0  0  0  0  0  0
  187.9590  174.5140  137.9240 O   0  0  0  0  0  1  0  0  0  0  0  0
  188.9920  173.9170  138.3220 C   0  0  0  0  0  0  0  0  0  0  0  0
  2 12  1  1  0  0  0
  2  4  1  0  0  0  0
  3 26  1  6  0  0  0
  3 10  1  0  0  0  0
  5  1  1  6  0  0  0
  5  9  1  0  0  0  0
  5  3  1  0  0  0  0
  6  7  1  0  0  0  0
  7  4  2  0  0  0  0
  8  6  2  0  0  0  0
  9  1  1  6  0  0  0
  9  8  1  0  0  0  0
 10  6  1  0  0  0  0
 10  2  1  0  0  0  0
 12 11  1  1  0  0  0
 13 12  1  0  0  0  0
 13 14  1  0  0  0  0
 16 23  1  1  0  0  0
 16 17  1  0  0  0  0
 17 19  1  0  0  0  0
 19 18  1  1  0  0  0
 19 14  1  0  0  0  0
 20 15  1  6  0  0  0
 20 16  1  0  0  0  0
 20 21  1  0  0  0  0
 21 19  1  0  0  0  0
 22 23  2  0  0  0  0
 23 24  1  0  0  0  0
 25 24  1  0  0  0  0
 27 31  1  0  0  0  0
 29 36  1  6  0  0  0
 29 32  1  0  0  0  0
 29 27  1  0  0  0  0
 30 33  1  0  0  0  0
 31 28  1  0  0  0  0
 32 30  1  0  0  0  0
 33 26  1  6  0  0  0
 33 28  1  0  0  0  0
 34 36  2  0  0  0  0
 35 36  1  0  0  0  0
M  END
>  <MODEL>
6

>  <REMARK>
 VINA RESULT:      -7.4      1.231      1.849
  Name = 
  9 active torsions:
  status: ('A' for Active; 'I' for Inactive)
    1  A    between atoms: C_3  and  C_14
    2  A    between atoms: C_3  and  C_33
    3  A    between atoms: C_4  and  C_10
    4  A    between atoms: C_4  and  C_36
    5  A    between atoms: C_8  and  C_20
    6  A    between atoms: C_18  and  C_30
    7  A    between atoms: C_19  and  C_31
    8  A    between atoms: C_20  and  C_22
    9  A    between atoms: C_31  and  C_36
                            x       y       z     vdW  Elec       q    Type
                         _______ _______ _______ _____ _____    ______ ____

>  <TORSDO>
F 9

$$$$
=
 OpenBabel11062422263D

 36 40  0  0  1  0  0  0  0  0999 V2000
  194.8810  174.6050  143.5860 N   0  0  0  0  0  2  0  0  0  0  0  0
  190.6470  174.3680  141.8630 C   0  0  2  0  0  3  0  0  0  0  0  0
  192.4880  175.1370  143.4790 C   0  0  1  0  0  3  0  0  0  0  0  0
  190.8720  173.5630  140.5690 C   0  0  0  0  0  3  0  0  0  0  0  0
  193.6130  174.5370  144.3370 C   0  0  1  0  0  3  0  0  0  0  0  0
  192.5710  173.0990  142.1080 C   0  0  0  0  0  0  0  0  0  0  0  0
  192.0390  172.6130  140.8220 C   0  0  0  0  0  3  0  0  0  0  0  0
  193.7220  172.7510  142.5860 N   0  0  0  0  0  0  0  0  0  0  0  0
  194.2630  173.2900  143.8400 C   0  0  1  0  0  3  0  0  0  0  0  0
  191.7980  174.1030  142.7120 N   0  0  0  0  0  0  0  0  0  0  0  0
  188.9260  172.5220  142.3490 C   0  0  0  0  0  1  0  0  0  0  0  0
  189.3540  173.9640  142.5930 C   0  0  2  0  0  3  0  0  0  0  0  0
  188.2000  174.9460  142.3970 C   0  0  0  0  0  2  0  0  0  0  0  0
  188.6710  176.3950  142.2600 C   0  0  0  0  0  2  0  0  0  0  0  0
  184.9590  178.6770  140.5220 O   0  0  0  0  0  1  0  0  0  0  0  0
  185.1610  177.2080  142.4530 C   0  0  2  0  0  3  0  0  0  0  0  0
  186.3640  176.7410  143.2540 C   0  0  0  0  0  2  0  0  0  0  0  0
  188.1280  178.2990  143.5590 F   0  0  0  0  0  0  0  0  0  0  0  0
  187.5940  177.4110  142.6420 C   0  0  1  0  0  0  0  0  0  0  0  0
  185.7330  177.6780  141.1190 C   0  0  2  0  0  3  0  0  0  0  0  0
  187.1270  178.1850  141.4160 C   0  0  0  0  0  2  0  0  0  0  0  0
  183.3260  178.6740  142.8210 O   0  0  0  0  0  0  0  0  0  0  0  0
  184.4220  178.2900  143.2070 C   0  0  0  0  0  0  0  0  0  0  0  0
  185.0070  178.9150  144.4300 C   0  0  0  0  0  2  0  0  0  0  0  0
  185.4980  180.1970  144.1600 O   0  0  0  0  0  1  0  0  0  0  0  0
  191.5190  175.8790  144.3930 C   0  0  0  0  0  2  0  0  0  0  0  0
  189.8220  177.3320  146.9360 O   0  0  0  0  0  0  0  0  0  0  0  0
  191.9350  176.1920  146.8690 C   0  0  0  0  0  2  0  0  0  0  0  0
  188.7740  176.3990  146.9730 C   0  0  2  0  0  3  0  0  0  0  0  0
  190.1400  174.4970  146.0410 C   0  0  0  0  0  2  0  0  0  0  0  0
  190.8240  176.7790  147.7350 C   0  0  0  0  0  2  0  0  0  0  0  0
  188.9210  175.3940  145.8320 C   0  0  0  0  0  2  0  0  0  0  0  0
  191.4700  175.2230  145.7700 C   0  0  1  0  0  3  0  0  0  0  0  0
  186.2790  176.3790  146.8000 O   0  0  0  0  0  0  0  0  0  0  0  0
  187.4280  178.3580  146.8460 O   0  0  0  0  0  1  0  0  0  0  0  0
  187.4630  177.1000  146.8600 C   0  0  0  0  0  0  0  0  0  0  0  0
  1  9  1  0  0  0  0
  2 12  1  1  0  0  0
  2 10  1  0  0  0  0
  3  5  1  0  0  0  0
  3 26  1  1  0  0  0
  4  7  2  0  0  0  0
  4  2  1  0  0  0  0
  5  1  1  6  0  0  0
  6  8  2  0  0  0  0
  6 10  1  0  0  0  0
  7  6  1  0  0  0  0
  9  8  1  6  0  0  0
  9  5  1  0  0  0  0
 10  3  1  0  0  0  0
 12 11  1  6  0  0  0
 13 12  1  0  0  0  0
 14 13  1  0  0  0  0
 14 19  1  0  0  0  0
 16 23  1  1  0  0  0
 16 17  1  0  0  0  0
 19 17  1  0  0  0  0
 19 18  1  1  0  0  0
 20 15  1  1  0  0  0
 20 21  1  0  0  0  0
 20 16  1  0  0  0  0
 21 19  1  0  0  0  0
 22 23  2  0  0  0  0
 23 24  1  0  0  0  0
 25 24  1  0  0  0  0
 27 29  1  0  0  0  0
 27 31  1  0  0  0  0
 28 31  1  0  0  0  0
 29 36  1  6  0  0  0
 32 30  1  0  0  0  0
 32 29  1  0  0  0  0
 33 26  1  6  0  0  0
 33 30  1  0  0  0  0
 33 28  1  0  0  0  0
 34 36  2  0  0  0  0
 35 36  1  0  0  0  0
M  END
>  <MODEL>
7

>  <REMARK>
 VINA RESULT:      -7.3      2.493      5.152
  Name = 
  9 active torsions:
  status: ('A' for Active; 'I' for Inactive)
    1  A    between atoms: C_3  and  C_14
    2  A    between atoms: C_3  and  C_33
    3  A    between atoms: C_4  and  C_10
    4  A    between atoms: C_4  and  C_36
    5  A    between atoms: C_8  and  C_20
    6  A    between atoms: C_18  and  C_30
    7  A    between atoms: C_19  and  C_31
    8  A    between atoms: C_20  and  C_22
    9  A    between atoms: C_31  and  C_36
                            x       y       z     vdW  Elec       q    Type
                         _______ _______ _______ _____ _____    ______ ____

>  <TORSDO>
F 9

$$$$
=
 OpenBabel11062422263D

 36 40  0  0  1  0  0  0  0  0999 V2000
  195.7830  174.4780  143.2880 N   0  0  0  0  0  2  0  0  0  0  0  0
  191.8970  175.8070  145.3110 C   0  0  2  0  0  3  0  0  0  0  0  0
  193.3530  174.7760  143.4640 C   0  0  1  0  0  3  0  0  0  0  0  0
  192.3910  176.2330  146.7070 C   0  0  0  0  0  3  0  0  0  0  0  0
  194.6110  175.1100  142.6490 C   0  0  1  0  0  3  0  0  0  0  0  0
  194.1400  176.3740  145.1580 C   0  0  0  0  0  0  0  0  0  0  0  0
  193.8130  176.7630  146.5420 C   0  0  0  0  0  3  0  0  0  0  0  0
  195.3380  176.3950  144.6700 N   0  0  0  0  0  0  0  0  0  0  0  0
  195.6540  175.9480  143.3080 C   0  0  1  0  0  3  0  0  0  0  0  0
  193.0650  175.8210  144.4440 N   0  0  0  0  0  0  0  0  0  0  0  0
  191.3760  177.9930  144.0650 C   0  0  0  0  0  1  0  0  0  0  0  0
  190.8200  176.7520  144.7520 C   0  0  2  0  0  3  0  0  0  0  0  0
  189.7180  177.0960  145.7540 C   0  0  0  0  0  2  0  0  0  0  0  0
  188.3950  176.3940  145.4440 C   0  0  0  0  0  2  0  0  0  0  0  0
  186.6390  178.2480  141.5080 O   0  0  0  0  0  1  0  0  0  0  0  0
  185.5690  176.9530  143.2700 C   0  0  2  0  0  3  0  0  0  0  0  0
  185.9840  176.6420  144.6980 C   0  0  0  0  0  2  0  0  0  0  0  0
  187.1300  178.3480  145.8850 F   0  0  0  0  0  0  0  0  0  0  0  0
  187.3140  177.3530  144.9410 C   0  0  1  0  0  0  0  0  0  0  0  0
  186.8590  177.3600  142.5650 C   0  0  2  0  0  3  0  0  0  0  0  0
  187.7350  177.9920  143.6240 C   0  0  0  0  0  2  0  0  0  0  0  0
  183.8090  178.1990  142.2700 O   0  0  0  0  0  0  0  0  0  0  0  0
  184.5100  178.0320  143.2590 C   0  0  0  0  0  0  0  0  0  0  0  0
  184.2960  178.9150  144.4430 C   0  0  0  0  0  2  0  0  0  0  0  0
  184.9050  180.1620  144.2630 O   0  0  0  0  0  1  0  0  0  0  0  0
  192.1830  174.5880  142.5040 C   0  0  0  0  0  2  0  0  0  0  0  0
  188.9820  173.9860  141.5830 O   0  0  0  0  0  0  0  0  0  0  0  0
  190.2690  173.2440  143.4700 C   0  0  0  0  0  2  0  0  0  0  0  0
  189.2920  173.2100  140.4560 C   0  0  2  0  0  3  0  0  0  0  0  0
  191.5150  172.4160  141.3380 C   0  0  0  0  0  2  0  0  0  0  0  0
  188.9910  173.0880  142.6510 C   0  0  0  0  0  2  0  0  0  0  0  0
  190.8020  173.1860  140.2280 C   0  0  0  0  0  2  0  0  0  0  0  0
  191.5770  173.1970  142.6630 C   0  0  1  0  0  3  0  0  0  0  0  0
  188.5630  173.0400  138.0690 O   0  0  0  0  0  0  0  0  0  0  0  0
  188.0510  174.8900  139.3150 O   0  0  0  0  0  1  0  0  0  0  0  0
  188.6100  173.7640  139.2510 C   0  0  0  0  0  0  0  0  0  0  0  0
  2 12  1  6  0  0  0
  2  4  1  0  0  0  0
  3 26  1  6  0  0  0
  3 10  1  0  0  0  0
  5  1  1  1  0  0  0
  5  9  1  0  0  0  0
  5  3  1  0  0  0  0
  6  7  1  0  0  0  0
  7  4  2  0  0  0  0
  8  6  2  0  0  0  0
  9  1  1  1  0  0  0
  9  8  1  0  0  0  0
 10  6  1  0  0  0  0
 10  2  1  0  0  0  0
 12 11  1  1  0  0  0
 12 13  1  0  0  0  0
 14 13  1  0  0  0  0
 16 23  1  1  0  0  0
 16 17  1  0  0  0  0
 17 19  1  0  0  0  0
 19 14  1  0  0  0  0
 19 18  1  1  0  0  0
 20 15  1  6  0  0  0
 20 16  1  0  0  0  0
 20 21  1  0  0  0  0
 21 19  1  0  0  0  0
 22 23  2  0  0  0  0
 23 24  1  0  0  0  0
 25 24  1  0  0  0  0
 27 31  1  0  0  0  0
 29 36  1  6  0  0  0
 29 27  1  0  0  0  0
 30 33  1  0  0  0  0
 31 28  1  0  0  0  0
 32 29  1  0  0  0  0
 32 30  1  0  0  0  0
 33 26  1  6  0  0  0
 33 28  1  0  0  0  0
 34 36  2  0  0  0  0
 36 35  1  0  0  0  0
M  END
>  <MODEL>
8

>  <REMARK>
 VINA RESULT:      -7.3      1.166      1.813
  Name = 
  9 active torsions:
  status: ('A' for Active; 'I' for Inactive)
    1  A    between atoms: C_3  and  C_14
    2  A    between atoms: C_3  and  C_33
    3  A    between atoms: C_4  and  C_10
    4  A    between atoms: C_4  and  C_36
    5  A    between atoms: C_8  and  C_20
    6  A    between atoms: C_18  and  C_30
    7  A    between atoms: C_19  and  C_31
    8  A    between atoms: C_20  and  C_22
    9  A    between atoms: C_31  and  C_36
                            x       y       z     vdW  Elec       q    Type
                         _______ _______ _______ _____ _____    ______ ____

>  <TORSDO>
F 9

$$$$
=
 OpenBabel11062422263D

 36 40  0  0  1  0  0  0  0  0999 V2000
  196.9470  174.6340  143.1630 N   0  0  0  0  0  2  0  0  0  0  0  0
  193.2320  175.7610  145.5880 C   0  0  2  0  0  3  0  0  0  0  0  0
  194.6070  174.4330  143.8740 C   0  0  1  0  0  3  0  0  0  0  0  0
  193.7960  176.8030  146.5730 C   0  0  0  0  0  3  0  0  0  0  0  0
  195.5500  174.6850  142.6880 C   0  0  1  0  0  3  0  0  0  0  0  0
  195.1360  176.7010  144.6590 C   0  0  0  0  0  0  0  0  0  0  0  0
  194.9400  177.5240  145.8660 C   0  0  0  0  0  3  0  0  0  0  0  0
  196.1720  176.7910  143.8890 N   0  0  0  0  0  0  0  0  0  0  0  0
  196.3800  175.9230  142.7240 C   0  0  1  0  0  3  0  0  0  0  0  0
  194.1790  175.6880  144.4870 N   0  0  0  0  0  0  0  0  0  0  0  0
  191.8070  177.4630  144.2920 C   0  0  0  0  0  1  0  0  0  0  0  0
  191.8400  176.1440  145.0550 C   0  0  2  0  0  3  0  0  0  0  0  0
  190.7320  176.0610  146.1050 C   0  0  0  0  0  2  0  0  0  0  0  0
  189.7360  177.2170  146.0070 C   0  0  0  0  0  2  0  0  0  0  0  0
  185.0760  177.4230  146.5100 O   0  0  0  0  0  1  0  0  0  0  0  0
  186.5200  178.2390  144.7280 C   0  0  2  0  0  3  0  0  0  0  0  0
  187.9490  177.9000  144.3420 C   0  0  0  0  0  2  0  0  0  0  0  0
  188.6350  175.6450  144.6190 F   0  0  0  0  0  0  0  0  0  0  0  0
  188.4300  176.8230  145.3150 C   0  0  1  0  0  0  0  0  0  0  0  0
  186.3840  177.7840  146.1780 C   0  0  2  0  0  3  0  0  0  0  0  0
  187.3230  176.6080  146.3380 C   0  0  0  0  0  2  0  0  0  0  0  0
  185.7080  176.3820  143.4860 O   0  0  0  0  0  0  0  0  0  0  0  0
  185.5500  177.5570  143.7890 C   0  0  0  0  0  0  0  0  0  0  0  0
  184.3880  178.2940  143.2120 C   0  0  0  0  0  2  0  0  0  0  0  0
  183.7540  179.0800  144.1810 O   0  0  0  0  0  1  0  0  0  0  0  0
  193.4090  173.6270  143.3840 C   0  0  0  0  0  2  0  0  0  0  0  0
  190.7840  172.2050  141.7880 O   0  0  0  0  0  0  0  0  0  0  0  0
  193.1000  172.4130  141.1860 C   0  0  0  0  0  2  0  0  0  0  0  0
  190.1060  173.4030  141.5120 C   0  0  2  0  0  3  0  0  0  0  0  0
  192.1820  174.8310  141.4930 C   0  0  0  0  0  2  0  0  0  0  0  0
  191.6870  172.0520  140.7360 C   0  0  0  0  0  2  0  0  0  0  0  0
  190.8310  174.5820  142.1590 C   0  0  0  0  0  2  0  0  0  0  0  0
  193.2400  173.7800  141.8750 C   0  0  1  0  0  3  0  0  0  0  0  0
  187.8270  174.3820  141.8300 O   0  0  0  0  0  0  0  0  0  0  0  0
  188.3170  172.2900  142.6180 O   0  0  0  0  0  1  0  0  0  0  0  0
  188.7080  173.3290  142.0250 C   0  0  0  0  0  0  0  0  0  0  0  0
  2 12  1  6  0  0  0
  2  4  1  0  0  0  0
  3 26  1  6  0  0  0
  3 10  1  0  0  0  0
  5  9  1  0  0  0  0
  5  1  1  1  0  0  0
  5  3  1  0  0  0  0
  6  7  1  0  0  0  0
  7  4  2  0  0  0  0
  8  6  2  0  0  0  0
  9  1  1  1  0  0  0
  9  8  1  0  0  0  0
 10  6  1  0  0  0  0
 10  2  1  0  0  0  0
 12 11  1  1  0  0  0
 12 13  1  0  0  0  0
 14 13  1  0  0  0  0
 16 23  1  6  0  0  0
 16 20  1  0  0  0  0
 17 16  1  0  0  0  0
 17 19  1  0  0  0  0
 19 18  1  6  0  0  0
 19 14  1  0  0  0  0
 19 21  1  0  0  0  0
 20 21  1  0  0  0  0
 20 15  1  6  0  0  0
 22 23  2  0  0  0  0
 24 23  1  0  0  0  0
 24 25  1  0  0  0  0
 28 33  1  0  0  0  0
 29 27  1  0  0  0  0
 29 36  1  1  0  0  0
 29 32  1  0  0  0  0
 30 33  1  0  0  0  0
 30 32  1  0  0  0  0
 31 28  1  0  0  0  0
 31 27  1  0  0  0  0
 33 26  1  1  0  0  0
 34 36  2  0  0  0  0
 36 35  1  0  0  0  0
M  END
>  <MODEL>
9

>  <REMARK>
 VINA RESULT:      -7.2      1.643      2.432
  Name = 
  9 active torsions:
  status: ('A' for Active; 'I' for Inactive)
    1  A    between atoms: C_3  and  C_14
    2  A    between atoms: C_3  and  C_33
    3  A    between atoms: C_4  and  C_10
    4  A    between atoms: C_4  and  C_36
    5  A    between atoms: C_8  and  C_20
    6  A    between atoms: C_18  and  C_30
    7  A    between atoms: C_19  and  C_31
    8  A    between atoms: C_20  and  C_22
    9  A    between atoms: C_31  and  C_36
                            x       y       z     vdW  Elec       q    Type
                         _______ _______ _______ _____ _____    ______ ____

>  <TORSDO>
F 9

$$$$
