=
 OpenBabel11062422443D

 29 32  0  0  1  0  0  0  0  0999 V2000
  189.0220  176.7250  144.4210 C   0  0  0  0  0  3  0  0  0  0  0  0
  187.1680  177.0810  142.7620 C   0  0  1  0  0  3  0  0  0  0  0  0
  187.5040  175.8440  140.7730 O   0  0  0  0  0  0  0  0  0  0  0  0
  191.7070  174.8640  142.9060 N   0  0  0  0  0  0  0  0  0  0  0  0
  187.8360  176.0030  141.9380 C   0  0  0  0  0  0  0  0  0  0  0  0
  191.0770  175.5430  143.8180 C   0  0  0  0  0  0  0  0  0  0  0  0
  185.7810  176.9800  142.6390 O   0  0  0  0  0  1  0  0  0  0  0  0
  187.5540  176.9930  144.2460 C   0  0  2  0  0  3  0  0  0  0  0  0
  191.0610  174.4040  141.7110 C   0  0  0  0  0  3  0  0  0  0  0  0
  191.7730  176.0160  144.9780 N   0  0  0  0  0  2  0  0  0  0  0  0
  189.7790  174.5480  141.5400 N   0  0  0  0  0  0  0  0  0  0  0  0
  188.8840  175.1070  142.5600 C   0  0  1  0  0  3  0  0  0  0  0  0
  189.6460  175.8400  143.6400 C   0  0  0  0  0  0  0  0  0  0  0  0
  195.8220  174.3280  146.4470 O   0  0  0  0  0  1  0  0  0  0  0  0
  194.7870  174.0400  142.9250 C   0  0  0  0  0  1  0  0  0  0  0  0
  196.7880  175.0170  143.9730 C   0  0  0  0  0  1  0  0  0  0  0  0
  193.5010  174.4500  145.8370 C   0  0  2  0  0  3  0  0  0  0  0  0
  193.1810  175.7480  145.2230 C   0  0  1  0  0  0  0  0  0  0  0  0
  194.4620  176.4420  144.1490 S   0  0  0  0  0  0  0  0  0  0  0  0
  193.5120  175.6620  146.5800 O   0  0  0  0  0  0  0  0  0  0  0  0
  194.9180  174.0690  145.4080 C   0  0  1  0  0  3  0  0  0  0  0  0
  195.2870  174.8260  144.1240 C   0  0  0  0  0  0  0  0  0  0  0  0
  187.1620  178.2790  144.9720 C   0  0  0  0  0  2  0  0  0  0  0  0
  185.5890  176.6460  146.0530 C   0  0  0  0  0  1  0  0  0  0  0  0
  186.3600  178.6220  147.2770 C   0  0  0  0  0  1  0  0  0  0  0  0
  185.9560  178.1170  145.9040 C   0  0  0  0  0  0  0  0  0  0  0  0
  184.7880  178.9300  145.4030 C   0  0  0  0  0  0  0  0  0  0  0  0
  184.9570  179.8020  144.3320 O   0  0  0  0  0  0  0  0  0  0  0  0
  183.6390  178.7820  145.8980 O   0  0  0  0  0  1  0  0  0  0  0  0
  2  7  1  1  0  0  0
  2  8  1  0  0  0  0
  3  5  2  0  0  0  0
  4  6  2  0  0  0  0
  5 12  1  0  0  0  0
  5  2  1  0  0  0  0
  6 10  1  0  0  0  0
  8  1  1  0  0  0  0
  8 23  1  1  0  0  0
  9  4  1  0  0  0  0
 11  9  2  0  0  0  0
 12 11  1  6  0  0  0
 12 13  1  0  0  0  0
 13  6  1  0  0  0  0
 13  1  2  0  0  0  0
 15 22  1  0  0  0  0
 16 22  1  0  0  0  0
 17 20  1  1  0  0  0
 18 10  1  6  0  0  0
 18 17  1  0  0  0  0
 18 20  1  0  0  0  0
 19 18  1  0  0  0  0
 21 17  1  0  0  0  0
 21 14  1  1  0  0  0
 22 19  1  0  0  0  0
 22 21  1  0  0  0  0
 23 26  1  0  0  0  0
 26 24  1  0  0  0  0
 26 25  1  0  0  0  0
 27 29  1  0  0  0  0
 27 26  1  0  0  0  0
 28 27  2  0  0  0  0
M  END
>  <MODEL>
1

>  <REMARK>
 VINA RESULT:      -7.2      0.000      0.000
  Name = 
  4 active torsions:
  status: ('A' for Active; 'I' for Inactive)
    1  A    between atoms: C_2  and  C_28
    2  A    between atoms: C_15  and  N_20
    3  A    between atoms: C_17  and  C_18
    4  A    between atoms: C_18  and  C_28
                            x       y       z     vdW  Elec       q    Type
                         _______ _______ _______ _____ _____    ______ ____

>  <TORSDO>
F 4

$$$$
=
 OpenBabel11062422443D

 29 32  0  0  1  0  0  0  0  0999 V2000
  188.0520  176.7290  144.1440 C   0  0  0  0  0  3  0  0  0  0  0  0
  186.0520  176.7910  145.6640 C   0  0  1  0  0  3  0  0  0  0  0  0
  186.6580  176.5660  147.9410 O   0  0  0  0  0  0  0  0  0  0  0  0
  190.9990  175.8160  146.0010 N   0  0  0  0  0  0  0  0  0  0  0  0
  187.0460  176.7900  146.8040 C   0  0  0  0  0  0  0  0  0  0  0  0
  190.2730  176.1110  144.9650 C   0  0  0  0  0  0  0  0  0  0  0  0
  184.9570  177.5930  145.9920 O   0  0  0  0  0  1  0  0  0  0  0  0
  186.6780  177.2970  144.3560 C   0  0  2  0  0  3  0  0  0  0  0  0
  190.5160  175.9660  147.3430 C   0  0  0  0  0  3  0  0  0  0  0  0
  190.7830  175.9090  143.6420 N   0  0  0  0  0  2  0  0  0  0  0  0
  189.3620  176.5170  147.5860 N   0  0  0  0  0  0  0  0  0  0  0  0
  188.5050  177.0930  146.5440 C   0  0  1  0  0  3  0  0  0  0  0  0
  188.9120  176.6380  145.1610 C   0  0  0  0  0  0  0  0  0  0  0  0
  195.2100  175.3920  142.4050 O   0  0  0  0  0  1  0  0  0  0  0  0
  194.1710  175.2200  145.9330 C   0  0  0  0  0  1  0  0  0  0  0  0
  195.3910  173.6320  144.5020 C   0  0  0  0  0  1  0  0  0  0  0  0
  193.1620  176.4160  143.1310 C   0  0  2  0  0  3  0  0  0  0  0  0
  192.1220  175.4050  143.3760 C   0  0  1  0  0  0  0  0  0  0  0  0
  192.6960  173.8520  144.1090 S   0  0  0  0  0  0  0  0  0  0  0  0
  192.5740  175.6640  142.0770 O   0  0  0  0  0  0  0  0  0  0  0  0
  194.5040  175.8100  143.5400 C   0  0  1  0  0  3  0  0  0  0  0  0
  194.2680  174.6570  144.5270 C   0  0  0  0  0  0  0  0  0  0  0  0
  185.7770  176.9550  143.1710 C   0  0  0  0  0  2  0  0  0  0  0  0
  183.6960  178.2910  142.7290 C   0  0  0  0  0  1  0  0  0  0  0  0
  185.8450  179.4160  143.0620 C   0  0  0  0  0  1  0  0  0  0  0  0
  185.1930  178.1830  142.4650 C   0  0  0  0  0  0  0  0  0  0  0  0
  185.4900  178.1340  140.9870 C   0  0  0  0  0  0  0  0  0  0  0  0
  186.7660  177.7980  140.5450 O   0  0  0  0  0  1  0  0  0  0  0  0
  184.5790  178.3290  140.1380 O   0  0  0  0  0  0  0  0  0  0  0  0
  1  8  1  0  0  0  0
  1 13  2  0  0  0  0
  2  7  1  1  0  0  0
  2  5  1  0  0  0  0
  4  9  1  0  0  0  0
  5  3  2  0  0  0  0
  6 13  1  0  0  0  0
  6  4  2  0  0  0  0
  8 23  1  6  0  0  0
  8  2  1  0  0  0  0
  9 11  2  0  0  0  0
 10  6  1  0  0  0  0
 12 13  1  6  0  0  0
 12  5  1  0  0  0  0
 12 11  1  0  0  0  0
 16 22  1  0  0  0  0
 17 20  1  6  0  0  0
 17 18  1  0  0  0  0
 17 21  1  0  0  0  0
 18 10  1  1  0  0  0
 18 19  1  0  0  0  0
 19 22  1  0  0  0  0
 20 18  1  0  0  0  0
 21 14  1  6  0  0  0
 21 22  1  0  0  0  0
 22 15  1  0  0  0  0
 26 24  1  0  0  0  0
 26 25  1  0  0  0  0
 26 23  1  0  0  0  0
 27 26  1  0  0  0  0
 28 27  1  0  0  0  0
 29 27  2  0  0  0  0
M  END
>  <MODEL>
2

>  <REMARK>
 VINA RESULT:      -7.1      2.392      3.875
  Name = 
  4 active torsions:
  status: ('A' for Active; 'I' for Inactive)
    1  A    between atoms: C_2  and  C_28
    2  A    between atoms: C_15  and  N_20
    3  A    between atoms: C_17  and  C_18
    4  A    between atoms: C_18  and  C_28
                            x       y       z     vdW  Elec       q    Type
                         _______ _______ _______ _____ _____    ______ ____

>  <TORSDO>
F 4

$$$$
=
 OpenBabel11062422443D

 29 32  0  0  1  0  0  0  0  0999 V2000
  188.1220  176.1210  144.2150 C   0  0  0  0  0  3  0  0  0  0  0  0
  187.9160  177.1120  146.5150 C   0  0  1  0  0  3  0  0  0  0  0  0
  189.9620  177.0450  147.7010 O   0  0  0  0  0  0  0  0  0  0  0  0
  191.3320  174.5320  143.8290 N   0  0  0  0  0  0  0  0  0  0  0  0
  189.4150  176.9400  146.6130 C   0  0  0  0  0  0  0  0  0  0  0  0
  190.1250  174.9000  143.5170 C   0  0  0  0  0  0  0  0  0  0  0  0
  187.5310  178.2870  147.1650 O   0  0  0  0  0  1  0  0  0  0  0  0
  187.4370  177.1590  145.0570 C   0  0  2  0  0  3  0  0  0  0  0  0
  192.0150  175.0470  144.9800 C   0  0  0  0  0  3  0  0  0  0  0  0
  189.4660  174.3290  142.3800 N   0  0  0  0  0  2  0  0  0  0  0  0
  191.4970  175.9980  145.7030 N   0  0  0  0  0  0  0  0  0  0  0  0
  190.2350  176.6690  145.3720 C   0  0  1  0  0  3  0  0  0  0  0  0
  189.4310  175.8930  144.3540 C   0  0  0  0  0  0  0  0  0  0  0  0
  190.5370  170.5930  139.8720 O   0  0  0  0  0  1  0  0  0  0  0  0
  189.7240  173.8090  138.2730 C   0  0  0  0  0  1  0  0  0  0  0  0
  191.6970  172.3460  138.1080 C   0  0  0  0  0  1  0  0  0  0  0  0
  189.2450  172.2490  141.0370 C   0  0  2  0  0  3  0  0  0  0  0  0
  190.0970  173.3550  141.5030 C   0  0  1  0  0  0  0  0  0  0  0  0
  191.4340  173.8380  140.3830 S   0  0  0  0  0  0  0  0  0  0  0  0
  190.2110  172.0790  142.0660 O   0  0  0  0  0  0  0  0  0  0  0  0
  189.7980  171.7700  139.6960 C   0  0  1  0  0  3  0  0  0  0  0  0
  190.6390  172.8860  139.0580 C   0  0  0  0  0  0  0  0  0  0  0  0
  185.9220  176.9750  144.9910 C   0  0  0  0  0  2  0  0  0  0  0  0
  184.0710  178.6290  145.3750 C   0  0  0  0  0  1  0  0  0  0  0  0
  186.1660  179.3350  144.3240 C   0  0  0  0  0  1  0  0  0  0  0  0
  185.1770  178.1890  144.4240 C   0  0  0  0  0  0  0  0  0  0  0  0
  184.6350  177.8830  143.0500 C   0  0  0  0  0  0  0  0  0  0  0  0
  185.3900  177.1300  142.1570 O   0  0  0  0  0  0  0  0  0  0  0  0
  183.4730  178.2430  142.7190 O   0  0  0  0  0  1  0  0  0  0  0  0
  1 13  2  0  0  0  0
  1  8  1  0  0  0  0
  2  5  1  0  0  0  0
  2  7  1  6  0  0  0
  4  9  1  0  0  0  0
  5  3  2  0  0  0  0
  6  4  2  0  0  0  0
  6 13  1  0  0  0  0
  8 23  1  1  0  0  0
  8  2  1  0  0  0  0
  9 11  2  0  0  0  0
 10  6  1  0  0  0  0
 12 13  1  6  0  0  0
 12 11  1  0  0  0  0
 12  5  1  0  0  0  0
 15 22  1  0  0  0  0
 16 22  1  0  0  0  0
 17 18  1  0  0  0  0
 17 20  1  1  0  0  0
 18 20  1  0  0  0  0
 18 10  1  1  0  0  0
 19 18  1  0  0  0  0
 21 14  1  1  0  0  0
 21 17  1  0  0  0  0
 22 21  1  0  0  0  0
 22 19  1  0  0  0  0
 25 26  1  0  0  0  0
 26 23  1  0  0  0  0
 26 24  1  0  0  0  0
 27 26  1  0  0  0  0
 28 27  2  0  0  0  0
 29 27  1  0  0  0  0
M  END
>  <MODEL>
3

>  <REMARK>
 VINA RESULT:      -6.9      2.801      4.922
  Name = 
  4 active torsions:
  status: ('A' for Active; 'I' for Inactive)
    1  A    between atoms: C_2  and  C_28
    2  A    between atoms: C_15  and  N_20
    3  A    between atoms: C_17  and  C_18
    4  A    between atoms: C_18  and  C_28
                            x       y       z     vdW  Elec       q    Type
                         _______ _______ _______ _____ _____    ______ ____

>  <TORSDO>
F 4

$$$$
=
 OpenBabel11062422443D

 29 32  0  0  1  0  0  0  0  0999 V2000
  188.1050  175.6920  143.3830 C   0  0  0  0  0  3  0  0  0  0  0  0
  187.5460  176.4200  145.7220 C   0  0  1  0  0  3  0  0  0  0  0  0
  189.2470  175.8450  147.2630 O   0  0  0  0  0  0  0  0  0  0  0  0
  191.0480  173.6170  143.3950 N   0  0  0  0  0  0  0  0  0  0  0  0
  188.9440  175.9720  146.0870 C   0  0  0  0  0  0  0  0  0  0  0  0
  190.0080  174.2280  142.9120 C   0  0  0  0  0  0  0  0  0  0  0  0
  187.2060  177.5570  146.4580 O   0  0  0  0  0  1  0  0  0  0  0  0
  187.4130  176.7270  144.2240 C   0  0  2  0  0  3  0  0  0  0  0  0
  191.5290  173.8590  144.7240 C   0  0  0  0  0  3  0  0  0  0  0  0
  189.5390  173.9260  141.5930 N   0  0  0  0  0  2  0  0  0  0  0  0
  191.0110  174.7920  145.4690 N   0  0  0  0  0  0  0  0  0  0  0  0
  189.9680  175.7120  145.0040 C   0  0  1  0  0  3  0  0  0  0  0  0
  189.3020  175.2200  143.7400 C   0  0  0  0  0  0  0  0  0  0  0  0
  190.5910  170.3500  138.8530 O   0  0  0  0  0  1  0  0  0  0  0  0
  190.4490  173.7910  137.5480 C   0  0  0  0  0  1  0  0  0  0  0  0
  192.2370  172.0990  137.5260 C   0  0  0  0  0  1  0  0  0  0  0  0
  189.3170  172.0410  139.9890 C   0  0  2  0  0  3  0  0  0  0  0  0
  190.1960  172.9680  140.7160 C   0  0  1  0  0  0  0  0  0  0  0  0
  191.7560  173.3770  139.8930 S   0  0  0  0  0  0  0  0  0  0  0  0
  190.0620  171.6390  141.1310 O   0  0  0  0  0  0  0  0  0  0  0  0
  190.0360  171.6280  138.7050 C   0  0  1  0  0  3  0  0  0  0  0  0
  191.1000  172.6780  138.3510 C   0  0  0  0  0  0  0  0  0  0  0  0
  185.9400  176.8250  143.8320 C   0  0  0  0  0  2  0  0  0  0  0  0
  186.7180  178.7150  142.3720 C   0  0  0  0  0  1  0  0  0  0  0  0
  184.4070  177.9150  142.2400 C   0  0  0  0  0  1  0  0  0  0  0  0
  185.5590  178.1660  143.1950 C   0  0  0  0  0  0  0  0  0  0  0  0
  185.1190  179.1480  144.2520 C   0  0  0  0  0  0  0  0  0  0  0  0
  184.2690  178.7360  145.2730 O   0  0  0  0  0  1  0  0  0  0  0  0
  185.5660  180.3270  144.2640 O   0  0  0  0  0  0  0  0  0  0  0  0
  1 13  2  0  0  0  0
  1  8  1  0  0  0  0
  2  5  1  0  0  0  0
  2  7  1  1  0  0  0
  4  9  1  0  0  0  0
  5  3  2  0  0  0  0
  6  4  2  0  0  0  0
  6 13  1  0  0  0  0
  8 23  1  6  0  0  0
  8  2  1  0  0  0  0
  9 11  2  0  0  0  0
 10  6  1  0  0  0  0
 12 13  1  6  0  0  0
 12 11  1  0  0  0  0
 12  5  1  0  0  0  0
 15 22  1  0  0  0  0
 16 22  1  0  0  0  0
 17 18  1  0  0  0  0
 17 20  1  1  0  0  0
 18 20  1  0  0  0  0
 18 10  1  1  0  0  0
 19 18  1  0  0  0  0
 21 14  1  1  0  0  0
 21 17  1  0  0  0  0
 22 21  1  0  0  0  0
 22 19  1  0  0  0  0
 24 26  1  0  0  0  0
 25 26  1  0  0  0  0
 26 23  1  0  0  0  0
 26 27  1  0  0  0  0
 27 29  2  0  0  0  0
 27 28  1  0  0  0  0
M  END
>  <MODEL>
4

>  <REMARK>
 VINA RESULT:      -6.8      3.039      5.136
  Name = 
  4 active torsions:
  status: ('A' for Active; 'I' for Inactive)
    1  A    between atoms: C_2  and  C_28
    2  A    between atoms: C_15  and  N_20
    3  A    between atoms: C_17  and  C_18
    4  A    between atoms: C_18  and  C_28
                            x       y       z     vdW  Elec       q    Type
                         _______ _______ _______ _____ _____    ______ ____

>  <TORSDO>
F 4

$$$$
=
 OpenBabel11062422443D

 29 32  0  0  1  0  0  0  0  0999 V2000
  187.7620  175.9360  144.0890 C   0  0  0  0  0  3  0  0  0  0  0  0
  187.9240  176.7380  146.4650 C   0  0  1  0  0  3  0  0  0  0  0  0
  190.0760  176.3790  147.3820 O   0  0  0  0  0  0  0  0  0  0  0  0
  190.7280  174.1000  143.1920 N   0  0  0  0  0  0  0  0  0  0  0  0
  189.3990  176.4210  146.3650 C   0  0  0  0  0  0  0  0  0  0  0  0
  189.5370  174.6030  143.0600 C   0  0  0  0  0  0  0  0  0  0  0  0
  187.7380  177.8820  147.2450 O   0  0  0  0  0  1  0  0  0  0  0  0
  187.2870  176.9560  145.0850 C   0  0  2  0  0  3  0  0  0  0  0  0
  191.5880  174.4470  144.2860 C   0  0  0  0  0  3  0  0  0  0  0  0
  188.6970  174.1970  141.9720 N   0  0  0  0  0  2  0  0  0  0  0  0
  191.2550  175.3740  145.1370 N   0  0  0  0  0  0  0  0  0  0  0  0
  190.0390  176.1860  145.0150 C   0  0  1  0  0  3  0  0  0  0  0  0
  189.0480  175.5780  144.0490 C   0  0  0  0  0  0  0  0  0  0  0  0
  189.7380  172.0460  138.0110 O   0  0  0  0  0  1  0  0  0  0  0  0
  192.3500  172.9730  140.4360 C   0  0  0  0  0  1  0  0  0  0  0  0
  191.7370  170.8120  139.4310 C   0  0  0  0  0  1  0  0  0  0  0  0
  189.3600  173.7980  139.6100 C   0  0  2  0  0  3  0  0  0  0  0  0
  189.1200  173.2490  140.9530 C   0  0  1  0  0  0  0  0  0  0  0  0
  190.1000  171.7890  141.3880 S   0  0  0  0  0  0  0  0  0  0  0  0
  188.1850  173.0650  139.9290 O   0  0  0  0  0  0  0  0  0  0  0  0
  190.3830  172.8990  138.9160 C   0  0  1  0  0  3  0  0  0  0  0  0
  191.1830  172.1210  139.9700 C   0  0  0  0  0  0  0  0  0  0  0  0
  185.7640  176.9180  145.1920 C   0  0  0  0  0  2  0  0  0  0  0  0
  184.0580  178.6680  145.7750 C   0  0  0  0  0  1  0  0  0  0  0  0
  186.1450  179.2940  144.6570 C   0  0  0  0  0  1  0  0  0  0  0  0
  185.0820  178.2150  144.7410 C   0  0  0  0  0  0  0  0  0  0  0  0
  184.4510  178.0350  143.3820 C   0  0  0  0  0  0  0  0  0  0  0  0
  183.2460  178.6650  143.0870 O   0  0  0  0  0  1  0  0  0  0  0  0
  185.0350  177.3750  142.4810 O   0  0  0  0  0  0  0  0  0  0  0  0
  1  8  1  0  0  0  0
  2  7  1  1  0  0  0
  4  9  1  0  0  0  0
  5  2  1  0  0  0  0
  5  3  2  0  0  0  0
  6  4  2  0  0  0  0
  6 13  1  0  0  0  0
  8 23  1  1  0  0  0
  8  2  1  0  0  0  0
  9 11  2  0  0  0  0
 10  6  1  0  0  0  0
 12 13  1  6  0  0  0
 12 11  1  0  0  0  0
 12  5  1  0  0  0  0
 13  1  2  0  0  0  0
 16 22  1  0  0  0  0
 17 20  1  6  0  0  0
 17 18  1  0  0  0  0
 18 19  1  0  0  0  0
 18 10  1  1  0  0  0
 20 18  1  0  0  0  0
 21 14  1  6  0  0  0
 21 17  1  0  0  0  0
 21 22  1  0  0  0  0
 22 15  1  0  0  0  0
 22 19  1  0  0  0  0
 25 26  1  0  0  0  0
 26 23  1  0  0  0  0
 26 24  1  0  0  0  0
 27 26  1  0  0  0  0
 28 27  1  0  0  0  0
 29 27  2  0  0  0  0
M  END
>  <MODEL>
5

>  <REMARK>
 VINA RESULT:      -6.8      2.838      5.060
  Name = 
  4 active torsions:
  status: ('A' for Active; 'I' for Inactive)
    1  A    between atoms: C_2  and  C_28
    2  A    between atoms: C_15  and  N_20
    3  A    between atoms: C_17  and  C_18
    4  A    between atoms: C_18  and  C_28
                            x       y       z     vdW  Elec       q    Type
                         _______ _______ _______ _____ _____    ______ ____

>  <TORSDO>
F 4

$$$$
=
 OpenBabel11062422443D

 29 32  0  0  1  0  0  0  0  0999 V2000
  188.4750  176.3870  144.0020 C   0  0  0  0  0  3  0  0  0  0  0  0
  186.3290  176.5390  145.3000 C   0  0  1  0  0  3  0  0  0  0  0  0
  186.6920  176.4170  147.6360 O   0  0  0  0  0  0  0  0  0  0  0  0
  191.2010  175.5370  146.1970 N   0  0  0  0  0  0  0  0  0  0  0  0
  187.1990  176.5830  146.5370 C   0  0  0  0  0  0  0  0  0  0  0  0
  190.5900  175.7900  145.0780 C   0  0  0  0  0  0  0  0  0  0  0  0
  185.2170  177.3650  145.4750 O   0  0  0  0  0  1  0  0  0  0  0  0
  187.0940  176.9770  144.0430 C   0  0  2  0  0  3  0  0  0  0  0  0
  190.5830  175.7540  147.4720 C   0  0  0  0  0  3  0  0  0  0  0  0
  191.2320  175.5200  143.8260 N   0  0  0  0  0  2  0  0  0  0  0  0
  189.4180  176.3260  147.5680 N   0  0  0  0  0  0  0  0  0  0  0  0
  188.6810  176.8610  146.4170 C   0  0  1  0  0  3  0  0  0  0  0  0
  189.2230  176.3360  145.1060 C   0  0  0  0  0  0  0  0  0  0  0  0
  195.0030  173.0150  142.8750 O   0  0  0  0  0  1  0  0  0  0  0  0
  194.5650  176.4140  141.5260 C   0  0  0  0  0  1  0  0  0  0  0  0
  196.3550  175.4030  142.8810 C   0  0  0  0  0  1  0  0  0  0  0  0
  192.8130  173.9840  142.6790 C   0  0  2  0  0  3  0  0  0  0  0  0
  192.5840  174.9930  143.7240 C   0  0  1  0  0  0  0  0  0  0  0  0
  194.0160  176.0130  144.1550 S   0  0  0  0  0  0  0  0  0  0  0  0
  192.6880  173.6370  144.0510 O   0  0  0  0  0  0  0  0  0  0  0  0
  194.2860  174.0590  142.2760 C   0  0  1  0  0  3  0  0  0  0  0  0
  194.8530  175.4360  142.6520 C   0  0  0  0  0  0  0  0  0  0  0  0
  186.3160  176.5870  142.7880 C   0  0  0  0  0  2  0  0  0  0  0  0
  186.6600  179.0430  142.3890 C   0  0  0  0  0  1  0  0  0  0  0  0
  186.7400  177.4600  140.5220 C   0  0  0  0  0  1  0  0  0  0  0  0
  186.0480  177.7600  141.8390 C   0  0  0  0  0  0  0  0  0  0  0  0
  184.5680  177.9160  141.5950 C   0  0  0  0  0  0  0  0  0  0  0  0
  184.0770  177.9400  140.2930 O   0  0  0  0  0  0  0  0  0  0  0  0
  183.7550  177.9570  142.5580 O   0  0  0  0  0  1  0  0  0  0  0  0
  1  8  1  0  0  0  0
  1 13  2  0  0  0  0
  2  7  1  1  0  0  0
  2  5  1  0  0  0  0
  4  9  1  0  0  0  0
  5  3  2  0  0  0  0
  6 13  1  0  0  0  0
  6  4  2  0  0  0  0
  8 23  1  6  0  0  0
  8  2  1  0  0  0  0
  9 11  2  0  0  0  0
 10  6  1  0  0  0  0
 12 13  1  6  0  0  0
 12  5  1  0  0  0  0
 12 11  1  0  0  0  0
 15 22  1  0  0  0  0
 17 18  1  0  0  0  0
 17 20  1  1  0  0  0
 18 10  1  1  0  0  0
 18 20  1  0  0  0  0
 18 19  1  0  0  0  0
 21 22  1  0  0  0  0
 21 17  1  0  0  0  0
 21 14  1  1  0  0  0
 22 16  1  0  0  0  0
 22 19  1  0  0  0  0
 25 26  1  0  0  0  0
 26 24  1  0  0  0  0
 26 23  1  0  0  0  0
 27 26  1  0  0  0  0
 27 29  1  0  0  0  0
 28 27  2  0  0  0  0
M  END
>  <MODEL>
6

>  <REMARK>
 VINA RESULT:      -6.8      2.222      3.717
  Name = 
  4 active torsions:
  status: ('A' for Active; 'I' for Inactive)
    1  A    between atoms: C_2  and  C_28
    2  A    between atoms: C_15  and  N_20
    3  A    between atoms: C_17  and  C_18
    4  A    between atoms: C_18  and  C_28
                            x       y       z     vdW  Elec       q    Type
                         _______ _______ _______ _____ _____    ______ ____

>  <TORSDO>
F 4

$$$$
=
 OpenBabel11062422443D

 29 32  0  0  1  0  0  0  0  0999 V2000
  190.4360  175.9050  143.7750 C   0  0  0  0  0  3  0  0  0  0  0  0
  188.1800  176.3310  142.7540 C   0  0  1  0  0  3  0  0  0  0  0  0
  187.9130  175.2090  140.6870 O   0  0  0  0  0  0  0  0  0  0  0  0
  192.5510  174.1610  141.4390 N   0  0  0  0  0  0  0  0  0  0  0  0
  188.5710  175.3070  141.7120 C   0  0  0  0  0  0  0  0  0  0  0  0
  192.2190  174.7810  142.5320 C   0  0  0  0  0  0  0  0  0  0  0  0
  186.8170  176.2210  143.0370 O   0  0  0  0  0  1  0  0  0  0  0  0
  188.9830  176.1650  144.0520 C   0  0  2  0  0  3  0  0  0  0  0  0
  191.5800  173.7600  140.4610 C   0  0  0  0  0  3  0  0  0  0  0  0
  193.2260  175.1970  143.4610 N   0  0  0  0  0  2  0  0  0  0  0  0
  190.3050  173.8990  140.6810 N   0  0  0  0  0  0  0  0  0  0  0  0
  189.7510  174.3900  141.9480 C   0  0  1  0  0  3  0  0  0  0  0  0
  190.8000  175.0710  142.7970 C   0  0  0  0  0  0  0  0  0  0  0  0
  197.8080  175.5140  142.9120 O   0  0  0  0  0  1  0  0  0  0  0  0
  196.3380  173.9480  145.9030 C   0  0  0  0  0  1  0  0  0  0  0  0
  197.9390  173.1120  144.2320 C   0  0  0  0  0  1  0  0  0  0  0  0
  195.5630  176.0340  143.5890 C   0  0  2  0  0  3  0  0  0  0  0  0
  194.6430  174.9320  143.2690 C   0  0  1  0  0  0  0  0  0  0  0  0
  195.3160  173.2640  143.4820 S   0  0  0  0  0  0  0  0  0  0  0  0
  195.2270  175.6930  142.2510 O   0  0  0  0  0  0  0  0  0  0  0  0
  196.9070  175.4200  143.9800 C   0  0  1  0  0  3  0  0  0  0  0  0
  196.6970  173.9650  144.4280 C   0  0  0  0  0  0  0  0  0  0  0  0
  188.8280  177.4040  144.9320 C   0  0  0  0  0  2  0  0  0  0  0  0
  188.4850  175.6010  146.6470 C   0  0  0  0  0  1  0  0  0  0  0  0
  189.2960  177.8130  147.3170 C   0  0  0  0  0  1  0  0  0  0  0  0
  188.3650  177.0930  146.3600 C   0  0  0  0  0  0  0  0  0  0  0  0
  186.9550  177.5840  146.5770 C   0  0  0  0  0  0  0  0  0  0  0  0
  186.2370  177.1630  147.6920 O   0  0  0  0  0  1  0  0  0  0  0  0
  186.4380  178.4290  145.7980 O   0  0  0  0  0  0  0  0  0  0  0  0
  1  8  1  0  0  0  0
  2  7  1  1  0  0  0
  2  8  1  0  0  0  0
  3  5  2  0  0  0  0
  4  6  2  0  0  0  0
  5 12  1  0  0  0  0
  5  2  1  0  0  0  0
  6 13  1  0  0  0  0
  6 10  1  0  0  0  0
  8 23  1  1  0  0  0
  9 11  2  0  0  0  0
  9  4  1  0  0  0  0
 12 11  1  6  0  0  0
 12 13  1  0  0  0  0
 13  1  2  0  0  0  0
 16 22  1  0  0  0  0
 17 20  1  6  0  0  0
 17 21  1  0  0  0  0
 18 10  1  1  0  0  0
 18 19  1  0  0  0  0
 18 17  1  0  0  0  0
 19 22  1  0  0  0  0
 20 18  1  0  0  0  0
 21 14  1  6  0  0  0
 21 22  1  0  0  0  0
 22 15  1  0  0  0  0
 23 26  1  0  0  0  0
 26 27  1  0  0  0  0
 26 24  1  0  0  0  0
 26 25  1  0  0  0  0
 27 28  1  0  0  0  0
 29 27  2  0  0  0  0
M  END
>  <MODEL>
7

>  <REMARK>
 VINA RESULT:      -6.7      2.056      2.576
  Name = 
  4 active torsions:
  status: ('A' for Active; 'I' for Inactive)
    1  A    between atoms: C_2  and  C_28
    2  A    between atoms: C_15  and  N_20
    3  A    between atoms: C_17  and  C_18
    4  A    between atoms: C_18  and  C_28
                            x       y       z     vdW  Elec       q    Type
                         _______ _______ _______ _____ _____    ______ ____

>  <TORSDO>
F 4

$$$$
=
 OpenBabel11062422443D

 29 32  0  0  1  0  0  0  0  0999 V2000
  188.5490  176.6660  144.1920 C   0  0  0  0  0  3  0  0  0  0  0  0
  186.8050  177.3290  142.5080 C   0  0  1  0  0  3  0  0  0  0  0  0
  187.1390  176.2710  140.4180 O   0  0  0  0  0  0  0  0  0  0  0  0
  191.1550  174.7590  142.5980 N   0  0  0  0  0  0  0  0  0  0  0  0
  187.4270  176.2870  141.6050 C   0  0  0  0  0  0  0  0  0  0  0  0
  190.5360  175.3910  143.5500 C   0  0  0  0  0  0  0  0  0  0  0  0
  185.4210  177.3490  142.3230 O   0  0  0  0  0  1  0  0  0  0  0  0
  187.1150  177.0640  143.9890 C   0  0  2  0  0  3  0  0  0  0  0  0
  190.5320  174.4710  141.3390 C   0  0  0  0  0  3  0  0  0  0  0  0
  191.2110  175.6910  144.7770 N   0  0  0  0  0  2  0  0  0  0  0  0
  189.2730  174.7310  141.1350 N   0  0  0  0  0  0  0  0  0  0  0  0
  188.3770  175.2550  142.1710 C   0  0  1  0  0  3  0  0  0  0  0  0
  189.1410  175.8160  143.3490 C   0  0  0  0  0  0  0  0  0  0  0  0
  195.0870  173.3670  145.7630 O   0  0  0  0  0  1  0  0  0  0  0  0
  194.5450  174.8770  142.4490 C   0  0  0  0  0  1  0  0  0  0  0  0
  196.3500  175.1480  144.1000 C   0  0  0  0  0  1  0  0  0  0  0  0
  192.8670  173.8490  144.9840 C   0  0  2  0  0  3  0  0  0  0  0  0
  192.5830  175.2910  145.0480 C   0  0  1  0  0  0  0  0  0  0  0  0
  193.9700  176.3800  144.6360 S   0  0  0  0  0  0  0  0  0  0  0  0
  192.7320  174.5400  146.2190 O   0  0  0  0  0  0  0  0  0  0  0  0
  194.3420  173.6810  144.6200 C   0  0  1  0  0  3  0  0  0  0  0  0
  194.8510  174.9570  143.9340 C   0  0  0  0  0  0  0  0  0  0  0  0
  186.7870  178.2990  144.8260 C   0  0  0  0  0  2  0  0  0  0  0  0
  184.6890  179.0410  145.9910 C   0  0  0  0  0  1  0  0  0  0  0  0
  185.1960  176.6580  145.7490 C   0  0  0  0  0  1  0  0  0  0  0  0
  185.8200  178.0200  145.9830 C   0  0  0  0  0  0  0  0  0  0  0  0
  186.5590  178.0060  147.2980 C   0  0  0  0  0  0  0  0  0  0  0  0
  187.9470  177.9150  147.3140 O   0  0  0  0  0  0  0  0  0  0  0  0
  185.9410  178.1430  148.3880 O   0  0  0  0  0  1  0  0  0  0  0  0
  2  7  1  1  0  0  0
  2  8  1  0  0  0  0
  3  5  2  0  0  0  0
  4  6  2  0  0  0  0
  5 12  1  0  0  0  0
  5  2  1  0  0  0  0
  6 10  1  0  0  0  0
  8  1  1  0  0  0  0
  8 23  1  1  0  0  0
  9  4  1  0  0  0  0
 11  9  2  0  0  0  0
 12 11  1  6  0  0  0
 12 13  1  0  0  0  0
 13  6  1  0  0  0  0
 13  1  2  0  0  0  0
 15 22  1  0  0  0  0
 17 18  1  0  0  0  0
 17 20  1  1  0  0  0
 18 10  1  6  0  0  0
 18 20  1  0  0  0  0
 19 18  1  0  0  0  0
 21 17  1  0  0  0  0
 21 14  1  1  0  0  0
 22 16  1  0  0  0  0
 22 21  1  0  0  0  0
 22 19  1  0  0  0  0
 23 26  1  0  0  0  0
 25 26  1  0  0  0  0
 26 24  1  0  0  0  0
 26 27  1  0  0  0  0
 27 28  2  0  0  0  0
 27 29  1  0  0  0  0
M  END
>  <MODEL>
8

>  <REMARK>
 VINA RESULT:      -6.7      1.292      1.544
  Name = 
  4 active torsions:
  status: ('A' for Active; 'I' for Inactive)
    1  A    between atoms: C_2  and  C_28
    2  A    between atoms: C_15  and  N_20
    3  A    between atoms: C_17  and  C_18
    4  A    between atoms: C_18  and  C_28
                            x       y       z     vdW  Elec       q    Type
                         _______ _______ _______ _____ _____    ______ ____

>  <TORSDO>
F 4

$$$$
=
 OpenBabel11062422443D

 29 32  0  0  1  0  0  0  0  0999 V2000
  190.8610  175.1350  144.0880 C   0  0  0  0  0  3  0  0  0  0  0  0
  192.2660  173.3380  143.0350 C   0  0  1  0  0  3  0  0  0  0  0  0
  191.2340  172.4090  141.1190 O   0  0  0  0  0  0  0  0  0  0  0  0
  187.6050  175.2290  142.5510 N   0  0  0  0  0  0  0  0  0  0  0  0
  191.2400  173.3280  141.9240 C   0  0  0  0  0  0  0  0  0  0  0  0
  188.5510  175.5350  143.3890 C   0  0  0  0  0  0  0  0  0  0  0  0
  193.5400  173.1210  142.5040 O   0  0  0  0  0  1  0  0  0  0  0  0
  192.2600  174.6620  143.8120 C   0  0  2  0  0  3  0  0  0  0  0  0
  187.8410  174.4120  141.3960 C   0  0  0  0  0  3  0  0  0  0  0  0
  188.2610  176.3220  144.5500 N   0  0  0  0  0  2  0  0  0  0  0  0
  189.0430  174.0340  141.0720 N   0  0  0  0  0  0  0  0  0  0  0  0
  190.2480  174.4620  141.7920 C   0  0  1  0  0  3  0  0  0  0  0  0
  189.9190  175.0490  143.1460 C   0  0  0  0  0  0  0  0  0  0  0  0
  184.5520  178.2900  146.4930 O   0  0  0  0  0  1  0  0  0  0  0  0
  186.1610  179.7460  143.5170 C   0  0  0  0  0  1  0  0  0  0  0  0
  183.8470  179.0250  143.9440 C   0  0  0  0  0  1  0  0  0  0  0  0
  186.8430  177.7900  145.9690 C   0  0  2  0  0  3  0  0  0  0  0  0
  186.9360  176.8460  144.8450 C   0  0  1  0  0  0  0  0  0  0  0  0
  185.7100  177.0680  143.5310 S   0  0  0  0  0  0  0  0  0  0  0  0
  186.4290  176.4350  146.0820 O   0  0  0  0  0  0  0  0  0  0  0  0
  185.6420  178.7000  145.7130 C   0  0  1  0  0  3  0  0  0  0  0  0
  185.3070  178.7020  144.2140 C   0  0  0  0  0  0  0  0  0  0  0  0
  193.0330  174.5120  145.1210 C   0  0  0  0  0  2  0  0  0  0  0  0
  195.4630  174.8000  145.6880 C   0  0  0  0  0  1  0  0  0  0  0  0
  194.4340  176.1470  143.9210 C   0  0  0  0  0  1  0  0  0  0  0  0
  194.1820  175.5150  145.2770 C   0  0  0  0  0  0  0  0  0  0  0  0
  193.8110  176.5930  146.2640 C   0  0  0  0  0  0  0  0  0  0  0  0
  194.6560  177.6830  146.4520 O   0  0  0  0  0  0  0  0  0  0  0  0
  192.7100  176.5580  146.8760 O   0  0  0  0  0  1  0  0  0  0  0  0
  2  7  1  6  0  0  0
  2  8  1  0  0  0  0
  3  5  2  0  0  0  0
  4  6  2  0  0  0  0
  5  2  1  0  0  0  0
  6 10  1  0  0  0  0
  8  1  1  0  0  0  0
  8 23  1  1  0  0  0
  9  4  1  0  0  0  0
 11  9  2  0  0  0  0
 12 11  1  1  0  0  0
 12  5  1  0  0  0  0
 12 13  1  0  0  0  0
 13  6  1  0  0  0  0
 13  1  2  0  0  0  0
 15 22  1  0  0  0  0
 16 22  1  0  0  0  0
 17 20  1  1  0  0  0
 18 10  1  6  0  0  0
 18 17  1  0  0  0  0
 18 20  1  0  0  0  0
 19 22  1  0  0  0  0
 19 18  1  0  0  0  0
 21 17  1  0  0  0  0
 21 14  1  1  0  0  0
 22 21  1  0  0  0  0
 23 26  1  0  0  0  0
 25 26  1  0  0  0  0
 26 24  1  0  0  0  0
 26 27  1  0  0  0  0
 27 28  2  0  0  0  0
 27 29  1  0  0  0  0
M  END
>  <MODEL>
9

>  <REMARK>
 VINA RESULT:      -6.5      2.630      7.681
  Name = 
  4 active torsions:
  status: ('A' for Active; 'I' for Inactive)
    1  A    between atoms: C_2  and  C_28
    2  A    between atoms: C_15  and  N_20
    3  A    between atoms: C_17  and  C_18
    4  A    between atoms: C_18  and  C_28
                            x       y       z     vdW  Elec       q    Type
                         _______ _______ _______ _____ _____    ______ ____

>  <TORSDO>
F 4

$$$$
