=
 OpenBabel11062422593D

 61 69  0  0  1  0  0  0  0  0999 V2000
  193.2220  171.9080  140.3810 C   0  0  1  0  0  3  0  0  0  0  0  0
  192.3060  169.6070  139.9510 C   0  0  0  0  0  3  0  0  0  0  0  0
  191.1460  169.1480  140.3910 C   0  0  0  0  0  3  0  0  0  0  0  0
  192.9090  170.5210  140.9700 C   0  0  2  0  0  3  0  0  0  0  0  0
  191.8630  170.5300  142.0380 C   0  0  0  0  0  3  0  0  0  0  0  0
  190.8670  169.7260  141.6970 C   0  0  0  0  0  3  0  0  0  0  0  0
  193.1990  174.8490  140.5220 O   0  0  0  0  0  0  0  0  0  0  0  0
  193.9650  172.7810  141.3000 N   0  0  0  0  0  2  0  0  0  0  0  0
  193.7830  174.1960  141.4340 C   0  0  0  0  0  0  0  0  0  0  0  0
  197.2640  177.0380  143.1200 C   0  0  0  0  0  1  0  0  0  0  0  0
  193.1400  175.9420  143.0930 C   0  0  0  0  0  2  0  0  0  0  0  0
  194.5970  173.9460  143.8210 C   0  0  1  0  0  3  0  0  0  0  0  0
  190.6960  176.7020  145.4670 C   0  0  0  0  0  0  0  0  0  0  0  0
  188.7000  176.8880  146.7910 C   0  0  0  0  0  3  0  0  0  0  0  0
  193.8480  176.3300  145.3620 O   0  0  0  0  0  1  0  0  0  0  0  0
  196.3110  176.0390  143.5540 N   0  0  0  0  0  0  0  0  0  0  0  0
  193.4320  172.6630  145.2750 C   0  0  0  0  0  2  0  0  0  0  0  0
  193.7250  172.8530  143.9080 O   0  0  0  0  0  0  0  0  0  0  0  0
  196.7730  173.3280  144.8650 C   0  0  0  0  0  1  0  0  0  0  0  0
  191.9590  174.7770  145.0530 C   0  0  1  0  0  3  0  0  0  0  0  0
  189.8110  174.7330  146.5360 C   0  0  0  0  0  3  0  0  0  0  0  0
  191.7820  177.1590  144.6930 N   0  0  0  0  0  2  0  0  0  0  0  0
  196.6460  174.7880  142.8430 C   0  0  1  0  0  3  0  0  0  0  0  0
  189.6700  177.4970  145.9760 C   0  0  0  0  0  3  0  0  0  0  0  0
  190.7780  175.3650  145.7470 C   0  0  0  0  0  0  0  0  0  0  0  0
  196.0400  173.5760  143.5610 C   0  0  2  0  0  3  0  0  0  0  0  0
  192.7310  176.0510  144.5630 C   0  0  2  0  0  0  0  0  0  0  0  0
  188.7680  175.5090  147.0700 C   0  0  0  0  0  3  0  0  0  0  0  0
  195.5450  175.6360  142.3590 C   0  0  1  0  0  3  0  0  0  0  0  0
  192.7780  173.8720  145.9850 C   0  0  0  0  0  2  0  0  0  0  0  0
  194.2280  174.9160  142.6980 C   0  0  1  0  0  0  0  0  0  0  0  0
  193.8810  171.8230  139.0010 C   0  0  0  0  0  2  0  0  0  0  0  0
  193.2350  172.7840  137.9990 C   0  0  1  0  0  3  0  0  0  0  0  0
  195.3750  172.4930  136.6520 O   0  0  0  0  0  1  0  0  0  0  0  0
  193.7750  174.0360  135.9570 O   0  0  0  0  0  0  0  0  0  0  0  0
  194.5150  174.7560  136.9230 C   0  0  0  0  0  2  0  0  0  0  0  0
  194.3010  173.3030  137.0330 C   0  0  1  0  0  0  0  0  0  0  0  0
  192.0780  172.0870  137.2770 C   0  0  0  0  0  2  0  0  0  0  0  0
  190.9590  173.0190  136.8030 C   0  0  1  0  0  3  0  0  0  0  0  0
  190.2680  172.5510  135.5450 C   0  0  0  0  0  3  0  0  0  0  0  0
  189.5860  171.4040  135.5170 C   0  0  0  0  0  2  0  0  0  0  0  0
  189.9760  173.3820  137.9110 C   0  0  0  0  0  2  0  0  0  0  0  0
  189.6970  172.1320  138.7360 C   0  0  0  0  0  2  0  0  0  0  0  0
  189.2940  172.4720  140.1300 C   0  0  0  0  0  3  0  0  0  0  0  0
  189.9390  173.4130  140.8230 C   0  0  0  0  0  3  0  0  0  0  0  0
  189.5900  173.6800  142.2540 C   0  0  0  0  0  2  0  0  0  0  0  0
  187.3430  177.3300  142.2620 N   0  0  0  0  0  0  0  0  0  0  0  0
  189.4760  176.2450  142.3040 C   0  0  0  0  0  3  0  0  0  0  0  0
  188.7920  174.9370  142.3560 C   0  0  0  0  0  0  0  0  0  0  0  0
  189.4360  178.5750  142.2330 F   0  0  0  0  0  0  0  0  0  0  0  0
  187.4510  174.8800  142.3980 C   0  0  0  0  0  3  0  0  0  0  0  0
  186.6910  176.0930  142.3850 N   0  0  0  0  0  2  0  0  0  0  0  0
  188.7820  177.3800  142.2600 C   0  0  0  0  0  0  0  0  0  0  0  0
  186.5650  178.5500  142.1070 C   0  0  0  0  0  2  0  0  0  0  0  0
  185.8680  178.5040  144.6010 C   0  0  0  0  0  2  0  0  0  0  0  0
  185.7420  179.7720  143.9920 O   0  0  0  0  0  0  0  0  0  0  0  0
  185.4910  178.6550  143.1770 C   0  0  1  0  0  0  0  0  0  0  0  0
  184.0190  178.6130  142.7920 C   0  0  0  0  0  2  0  0  0  0  0  0
  183.8050  177.9820  141.4220 C   0  0  0  0  0  2  0  0  0  0  0  0
  182.4920  178.4190  140.8530 C   0  0  0  0  0  3  0  0  0  0  0  0
  181.3900  178.0800  141.4210 N   0  0  0  0  0  2  0  0  0  0  0  0
  1 32  1  6  0  0  0
  1  8  1  0  0  0  0
  2  3  2  0  0  0  0
  2  4  1  0  0  0  0
  3  6  1  0  0  0  0
  4  1  1  6  0  0  0
  4  5  1  0  0  0  0
  6  5  2  0  0  0  0
  7  9  2  0  0  0  0
  8  9  1  0  0  0  0
 10 16  1  0  0  0  0
 11 27  1  0  0  0  0
 12 18  1  6  0  0  0
 13 25  2  0  0  0  0
 13 24  1  0  0  0  0
 14 28  1  0  0  0  0
 17 30  1  0  0  0  0
 18 17  1  0  0  0  0
 20 25  1  0  0  0  0
 20 30  1  1  0  0  0
 21 28  2  0  0  0  0
 22 13  1  0  0  0  0
 23 16  1  1  0  0  0
 23 26  1  0  0  0  0
 24 14  2  0  0  0  0
 25 21  1  0  0  0  0
 26 12  1  0  0  0  0
 26 19  1  1  0  0  0
 27 22  1  0  0  0  0
 27 20  1  0  0  0  0
 27 15  1  1  0  0  0
 29 31  1  0  0  0  0
 29 23  1  0  0  0  0
 29 16  1  1  0  0  0
 31  9  1  6  0  0  0
 31 11  1  0  0  0  0
 31 12  1  0  0  0  0
 33 38  1  6  0  0  0
 33 32  1  0  0  0  0
 35 36  1  0  0  0  0
 35 37  1  0  0  0  0
 36 37  1  0  0  0  0
 37 34  1  6  0  0  0
 37 33  1  0  0  0  0
 39 40  1  6  0  0  0
 39 38  1  0  0  0  0
 39 42  1  0  0  0  0
 41 40  2  0  0  0  0
 42 43  1  0  0  0  0
 43 44  1  0  0  0  0
 44 45  2  0  0  0  0
 45 46  1  0  0  0  0
 46 49  1  0  0  0  0
 47 52  1  0  0  0  0
 48 49  1  0  0  0  0
 49 51  2  0  0  0  0
 50 53  1  0  0  0  0
 52 51  1  0  0  0  0
 53 47  1  0  0  0  0
 53 48  2  0  0  0  0
 54 47  1  0  0  0  0
 56 55  1  0  0  0  0
 57 54  1  6  0  0  0
 57 56  1  0  0  0  0
 57 55  1  0  0  0  0
 58 57  1  0  0  0  0
 59 58  1  0  0  0  0
 60 61  2  0  0  0  0
 60 59  1  0  0  0  0
M  END
>  <MODEL>
1

>  <REMARK>
 VINA RESULT:      -6.9      0.000      0.000
  Name = 
  19 active torsions:
  status: ('A' for Active; 'I' for Inactive)
    1  A    between atoms: C_1  and  C_34
    2  A    between atoms: C_1  and  C_40
    3  A    between atoms: N_3  and  C_58
    4  A    between atoms: C_6  and  C_23
    5  A    between atoms: C_6  and  C_43
    6  A    between atoms: C_13  and  C_22
    7  A    between atoms: C_13  and  C_50
    8  A    between atoms: C_19  and  C_48
    9  A    between atoms: C_21  and  C_56
   10  A    between atoms: C_21  and  C_57
   11  A    between atoms: C_22  and  C_29
   12  A    between atoms: C_25  and  C_57
   13  A    between atoms: C_29  and  C_58
   14  A    between atoms: C_31  and  C_48
   15  A    between atoms: C_31  and  C_56
   16  A    between atoms: N_38  and  C_48
   17  A    between atoms: C_40  and  C_57
   18  A    between atoms: C_45  and  C_61
   19  A    between atoms: C_54  and  C_56
                            x       y       z     vdW  Elec       q    Type
                         _______ _______ _______ _____ _____    ______ ____

>  <TORSDO>
F 19

$$$$
=
 OpenBabel11062422593D

 61 69  0  0  1  0  0  0  0  0999 V2000
  194.1460  172.4520  139.3950 C   0  0  1  0  0  3  0  0  0  0  0  0
  194.7440  174.3930  137.9150 C   0  0  0  0  0  3  0  0  0  0  0  0
  193.9070  175.3330  137.5050 C   0  0  0  0  0  3  0  0  0  0  0  0
  194.0330  173.0800  137.9950 C   0  0  2  0  0  3  0  0  0  0  0  0
  192.6400  173.4560  137.6020 C   0  0  0  0  0  3  0  0  0  0  0  0
  192.5900  174.7470  137.3090 C   0  0  0  0  0  3  0  0  0  0  0  0
  192.6940  174.5850  140.8130 O   0  0  0  0  0  0  0  0  0  0  0  0
  194.6570  173.3800  140.4140 N   0  0  0  0  0  2  0  0  0  0  0  0
  193.8610  174.2830  141.1910 C   0  0  0  0  0  0  0  0  0  0  0  0
  197.5610  176.7050  143.0560 C   0  0  0  0  0  1  0  0  0  0  0  0
  193.3750  175.8780  143.0450 C   0  0  0  0  0  2  0  0  0  0  0  0
  194.7160  173.7290  143.5120 C   0  0  1  0  0  3  0  0  0  0  0  0
  191.0460  176.5310  145.5610 C   0  0  0  0  0  0  0  0  0  0  0  0
  189.1000  176.6990  146.9590 C   0  0  0  0  0  3  0  0  0  0  0  0
  194.1630  175.9760  145.3180 O   0  0  0  0  0  1  0  0  0  0  0  0
  196.5560  175.7270  143.4130 N   0  0  0  0  0  0  0  0  0  0  0  0
  193.5050  172.3730  144.8590 C   0  0  0  0  0  2  0  0  0  0  0  0
  193.7760  172.6900  143.5110 O   0  0  0  0  0  0  0  0  0  0  0  0
  196.8710  172.8680  144.4160 C   0  0  0  0  0  1  0  0  0  0  0  0
  192.1690  174.5870  144.9070 C   0  0  1  0  0  3  0  0  0  0  0  0
  190.0600  174.5180  146.4440 C   0  0  0  0  0  3  0  0  0  0  0  0
  192.1400  176.9990  144.8050 N   0  0  0  0  0  2  0  0  0  0  0  0
  196.7910  174.5400  142.5630 C   0  0  1  0  0  3  0  0  0  0  0  0
  190.0870  177.3300  146.1830 C   0  0  0  0  0  3  0  0  0  0  0  0
  191.0470  175.1700  145.6960 C   0  0  0  0  0  0  0  0  0  0  0  0
  196.1250  173.2990  143.1690 C   0  0  2  0  0  3  0  0  0  0  0  0
  193.0110  175.8550  144.5290 C   0  0  2  0  0  0  0  0  0  0  0  0
  189.0840  175.2960  147.0900 C   0  0  0  0  0  3  0  0  0  0  0  0
  195.7370  175.5030  142.2070 C   0  0  1  0  0  3  0  0  0  0  0  0
  192.9500  173.5370  145.7120 C   0  0  0  0  0  2  0  0  0  0  0  0
  194.3830  174.8350  142.5100 C   0  0  1  0  0  0  0  0  0  0  0  0
  192.8490  171.7660  139.8350 C   0  0  0  0  0  2  0  0  0  0  0  0
  193.0050  170.2440  139.9100 C   0  0  1  0  0  3  0  0  0  0  0  0
  192.2270  170.0940  142.3290 O   0  0  0  0  0  1  0  0  0  0  0  0
  193.7600  168.5440  141.5110 O   0  0  0  0  0  0  0  0  0  0  0  0
  194.5760  169.6410  141.8730 C   0  0  0  0  0  2  0  0  0  0  0  0
  193.2050  169.8250  141.3670 C   0  0  1  0  0  0  0  0  0  0  0  0
  191.7970  169.5620  139.2630 C   0  0  0  0  0  2  0  0  0  0  0  0
  191.2890  170.2290  137.9810 C   0  0  1  0  0  3  0  0  0  0  0  0
  191.8950  169.6650  136.7180 C   0  0  0  0  0  3  0  0  0  0  0  0
  191.8290  170.3310  135.5640 C   0  0  0  0  0  2  0  0  0  0  0  0
  189.7680  170.3120  137.9150 C   0  0  0  0  0  2  0  0  0  0  0  0
  189.3590  171.7740  138.0480 C   0  0  0  0  0  2  0  0  0  0  0  0
  189.2520  172.1880  139.4760 C   0  0  0  0  0  3  0  0  0  0  0  0
  189.5100  173.4420  139.8490 C   0  0  0  0  0  3  0  0  0  0  0  0
  189.4950  173.8260  141.2970 C   0  0  0  0  0  2  0  0  0  0  0  0
  187.2440  177.4340  141.8280 N   0  0  0  0  0  0  0  0  0  0  0  0
  188.7180  175.7930  142.7540 C   0  0  0  0  0  3  0  0  0  0  0  0
  188.6290  175.0250  141.4960 C   0  0  0  0  0  0  0  0  0  0  0  0
  188.1390  177.6160  144.0860 F   0  0  0  0  0  0  0  0  0  0  0  0
  187.8430  175.4600  140.4970 C   0  0  0  0  0  3  0  0  0  0  0  0
  187.1000  176.6720  140.6590 N   0  0  0  0  0  2  0  0  0  0  0  0
  188.0570  176.9380  142.9070 C   0  0  0  0  0  0  0  0  0  0  0  0
  186.5990  178.7350  141.9330 C   0  0  0  0  0  2  0  0  0  0  0  0
  184.0730  178.2070  142.1570 C   0  0  0  0  0  2  0  0  0  0  0  0
  184.9110  177.3200  142.8670 O   0  0  0  0  0  0  0  0  0  0  0  0
  185.3390  178.6550  142.7800 C   0  0  1  0  0  0  0  0  0  0  0  0
  185.2990  179.3040  144.1570 C   0  0  0  0  0  2  0  0  0  0  0  0
  184.9710  178.2990  145.2530 C   0  0  0  0  0  2  0  0  0  0  0  0
  185.8840  178.4950  146.4220 C   0  0  0  0  0  3  0  0  0  0  0  0
  185.4540  179.0490  147.5000 N   0  0  0  0  0  2  0  0  0  0  0  0
  1 32  1  1  0  0  0
  1  8  1  0  0  0  0
  2  4  1  0  0  0  0
  3  2  2  0  0  0  0
  4  1  1  1  0  0  0
  5  4  1  0  0  0  0
  6  3  1  0  0  0  0
  6  5  2  0  0  0  0
  7  9  2  0  0  0  0
  8  9  1  0  0  0  0
 10 16  1  0  0  0  0
 11 27  1  0  0  0  0
 12 18  1  6  0  0  0
 13 25  2  0  0  0  0
 13 24  1  0  0  0  0
 14 28  1  0  0  0  0
 17 30  1  0  0  0  0
 18 17  1  0  0  0  0
 20 25  1  0  0  0  0
 20 30  1  1  0  0  0
 21 28  2  0  0  0  0
 22 13  1  0  0  0  0
 23 26  1  0  0  0  0
 23 16  1  1  0  0  0
 24 14  2  0  0  0  0
 25 21  1  0  0  0  0
 26 12  1  0  0  0  0
 26 19  1  1  0  0  0
 27 22  1  0  0  0  0
 27 20  1  0  0  0  0
 27 15  1  1  0  0  0
 29 31  1  0  0  0  0
 29 23  1  0  0  0  0
 29 16  1  1  0  0  0
 31  9  1  6  0  0  0
 31 11  1  0  0  0  0
 31 12  1  0  0  0  0
 32 33  1  0  0  0  0
 33 38  1  1  0  0  0
 33 37  1  0  0  0  0
 35 36  1  0  0  0  0
 37 35  1  0  0  0  0
 37 36  1  0  0  0  0
 37 34  1  1  0  0  0
 39 40  1  6  0  0  0
 39 38  1  0  0  0  0
 41 40  2  0  0  0  0
 42 39  1  0  0  0  0
 42 43  1  0  0  0  0
 43 44  1  0  0  0  0
 44 45  2  0  0  0  0
 45 46  1  0  0  0  0
 46 49  1  0  0  0  0
 47 54  1  0  0  0  0
 47 53  1  0  0  0  0
 48 53  2  0  0  0  0
 49 48  1  0  0  0  0
 51 52  1  0  0  0  0
 51 49  2  0  0  0  0
 52 47  1  0  0  0  0
 53 50  1  0  0  0  0
 55 57  1  0  0  0  0
 55 56  1  0  0  0  0
 57 54  1  6  0  0  0
 57 56  1  0  0  0  0
 57 58  1  0  0  0  0
 58 59  1  0  0  0  0
 59 60  1  0  0  0  0
 60 61  2  0  0  0  0
M  END
>  <MODEL>
2

>  <REMARK>
 VINA RESULT:      -6.7      1.641      3.121
  Name = 
  19 active torsions:
  status: ('A' for Active; 'I' for Inactive)
    1  A    between atoms: C_1  and  C_34
    2  A    between atoms: C_1  and  C_40
    3  A    between atoms: N_3  and  C_58
    4  A    between atoms: C_6  and  C_23
    5  A    between atoms: C_6  and  C_43
    6  A    between atoms: C_13  and  C_22
    7  A    between atoms: C_13  and  C_50
    8  A    between atoms: C_19  and  C_48
    9  A    between atoms: C_21  and  C_56
   10  A    between atoms: C_21  and  C_57
   11  A    between atoms: C_22  and  C_29
   12  A    between atoms: C_25  and  C_57
   13  A    between atoms: C_29  and  C_58
   14  A    between atoms: C_31  and  C_48
   15  A    between atoms: C_31  and  C_56
   16  A    between atoms: N_38  and  C_48
   17  A    between atoms: C_40  and  C_57
   18  A    between atoms: C_45  and  C_61
   19  A    between atoms: C_54  and  C_56
                            x       y       z     vdW  Elec       q    Type
                         _______ _______ _______ _____ _____    ______ ____

>  <TORSDO>
F 19

$$$$
=
 OpenBabel11062422593D

 61 69  0  0  1  0  0  0  0  0999 V2000
  192.5610  171.8350  142.9470 C   0  0  1  0  0  3  0  0  0  0  0  0
  190.9590  169.9980  142.3390 C   0  0  0  0  0  3  0  0  0  0  0  0
  191.2640  168.9090  141.6510 C   0  0  0  0  0  3  0  0  0  0  0  0
  191.7510  171.1580  141.8280 C   0  0  2  0  0  3  0  0  0  0  0  0
  192.5870  170.5210  140.7650 C   0  0  0  0  0  3  0  0  0  0  0  0
  192.2840  169.2360  140.6660 C   0  0  0  0  0  3  0  0  0  0  0  0
  190.2710  172.8960  144.4630 O   0  0  0  0  0  0  0  0  0  0  0  0
  192.1900  173.2390  143.1720 N   0  0  0  0  0  2  0  0  0  0  0  0
  191.1630  173.6960  144.0610 C   0  0  0  0  0  0  0  0  0  0  0  0
  194.1530  177.2850  145.1590 C   0  0  0  0  0  1  0  0  0  0  0  0
  190.3940  176.0200  143.5870 C   0  0  0  0  0  2  0  0  0  0  0  0
  190.6650  175.2230  146.0210 C   0  0  1  0  0  3  0  0  0  0  0  0
  187.4940  177.9140  143.1550 C   0  0  0  0  0  0  0  0  0  0  0  0
  185.2770  178.7290  142.7180 C   0  0  0  0  0  3  0  0  0  0  0  0
  190.0570  177.9180  145.0300 O   0  0  0  0  0  1  0  0  0  0  0  0
  192.8540  176.7500  145.5070 N   0  0  0  0  0  0  0  0  0  0  0  0
  188.6340  175.1490  147.0130 C   0  0  0  0  0  2  0  0  0  0  0  0
  189.5650  174.3920  146.2720 O   0  0  0  0  0  0  0  0  0  0  0  0
  191.8110  175.7200  148.1770 C   0  0  0  0  0  1  0  0  0  0  0  0
  188.1510  176.3740  144.7870 C   0  0  1  0  0  3  0  0  0  0  0  0
  185.6650  177.1120  144.5010 C   0  0  0  0  0  3  0  0  0  0  0  0
  188.8950  177.8400  143.0180 N   0  0  0  0  0  2  0  0  0  0  0  0
  193.0810  175.3950  146.0520 C   0  0  1  0  0  3  0  0  0  0  0  0
  186.6460  178.7250  142.4020 C   0  0  0  0  0  3  0  0  0  0  0  0
  187.0260  177.1420  144.1830 C   0  0  0  0  0  0  0  0  0  0  0  0
  191.8760  174.9350  146.8820 C   0  0  2  0  0  3  0  0  0  0  0  0
  189.4090  177.0510  144.1400 C   0  0  2  0  0  0  0  0  0  0  0  0
  184.7850  177.9240  143.7640 C   0  0  0  0  0  3  0  0  0  0  0  0
  192.6440  175.5630  144.6570 C   0  0  1  0  0  3  0  0  0  0  0  0
  188.1290  176.4370  146.3210 C   0  0  0  0  0  2  0  0  0  0  0  0
  191.1710  175.1260  144.5810 C   0  0  1  0  0  0  0  0  0  0  0  0
  192.5620  171.0210  144.2440 C   0  0  0  0  0  2  0  0  0  0  0  0
  193.9740  170.8520  144.8120 C   0  0  1  0  0  3  0  0  0  0  0  0
  193.7070  168.4030  144.1700 O   0  0  0  0  0  1  0  0  0  0  0  0
  195.6040  169.0920  145.3320 O   0  0  0  0  0  0  0  0  0  0  0  0
  194.6540  168.8950  146.3610 C   0  0  0  0  0  2  0  0  0  0  0  0
  194.2630  169.3640  145.0200 C   0  0  1  0  0  0  0  0  0  0  0  0
  194.9930  171.5250  143.8900 C   0  0  0  0  0  2  0  0  0  0  0  0
  195.7060  172.7390  144.4930 C   0  0  1  0  0  3  0  0  0  0  0  0
  196.4730  172.4310  145.7570 C   0  0  0  0  0  3  0  0  0  0  0  0
  197.0300  173.4040  146.4800 C   0  0  0  0  0  2  0  0  0  0  0  0
  196.5410  173.5070  143.4740 C   0  0  0  0  0  2  0  0  0  0  0  0
  195.7310  174.7040  142.9900 C   0  0  0  0  0  2  0  0  0  0  0  0
  195.9250  174.9460  141.5320 C   0  0  0  0  0  3  0  0  0  0  0  0
  195.6180  174.0090  140.6330 C   0  0  0  0  0  3  0  0  0  0  0  0
  195.9070  174.2230  139.1790 C   0  0  0  0  0  2  0  0  0  0  0  0
  192.2750  173.2930  137.1020 N   0  0  0  0  0  0  0  0  0  0  0  0
  194.3310  172.5320  138.0610 C   0  0  0  0  0  3  0  0  0  0  0  0
  194.6860  173.9310  138.3710 C   0  0  0  0  0  0  0  0  0  0  0  0
  192.8870  170.9360  137.1630 F   0  0  0  0  0  0  0  0  0  0  0  0
  193.8640  174.9300  138.0090 C   0  0  0  0  0  3  0  0  0  0  0  0
  192.6410  174.6280  137.3300 N   0  0  0  0  0  2  0  0  0  0  0  0
  193.1820  172.2340  137.4570 C   0  0  0  0  0  0  0  0  0  0  0  0
  190.9690  172.9830  136.5400 C   0  0  0  0  0  2  0  0  0  0  0  0
  188.7880  174.1790  137.2640 C   0  0  0  0  0  2  0  0  0  0  0  0
  188.6330  172.7960  137.0250 O   0  0  0  0  0  0  0  0  0  0  0  0
  189.8650  173.2070  137.5610 C   0  0  1  0  0  0  0  0  0  0  0  0
  190.0160  172.6790  138.9800 C   0  0  0  0  0  2  0  0  0  0  0  0
  190.3360  173.7890  139.9730 C   0  0  0  0  0  2  0  0  0  0  0  0
  189.2270  173.9260  140.9680 C   0  0  0  0  0  3  0  0  0  0  0  0
  188.2840  173.0540  141.0180 N   0  0  0  0  0  2  0  0  0  0  0  0
  1  8  1  0  0  0  0
  1 32  1  1  0  0  0
  3  2  2  0  0  0  0
  4  2  1  0  0  0  0
  4  1  1  1  0  0  0
  5  4  1  0  0  0  0
  6  5  2  0  0  0  0
  6  3  1  0  0  0  0
  8  9  1  0  0  0  0
  9  7  2  0  0  0  0
 10 16  1  0  0  0  0
 11 27  1  0  0  0  0
 11 31  1  0  0  0  0
 12 18  1  6  0  0  0
 12 26  1  0  0  0  0
 13 25  1  0  0  0  0
 14 28  2  0  0  0  0
 18 17  1  0  0  0  0
 20 30  1  1  0  0  0
 22 13  1  0  0  0  0
 22 27  1  0  0  0  0
 23 16  1  1  0  0  0
 23 26  1  0  0  0  0
 24 14  1  0  0  0  0
 24 13  2  0  0  0  0
 25 21  2  0  0  0  0
 25 20  1  0  0  0  0
 26 19  1  1  0  0  0
 27 20  1  0  0  0  0
 27 15  1  1  0  0  0
 28 21  1  0  0  0  0
 29 16  1  1  0  0  0
 29 23  1  0  0  0  0
 30 17  1  0  0  0  0
 31  9  1  6  0  0  0
 31 29  1  0  0  0  0
 31 12  1  0  0  0  0
 32 33  1  0  0  0  0
 33 38  1  6  0  0  0
 33 37  1  0  0  0  0
 35 36  1  0  0  0  0
 37 34  1  6  0  0  0
 37 35  1  0  0  0  0
 37 36  1  0  0  0  0
 38 39  1  0  0  0  0
 39 42  1  6  0  0  0
 39 40  1  0  0  0  0
 40 41  2  0  0  0  0
 43 42  1  0  0  0  0
 44 43  1  0  0  0  0
 45 44  2  0  0  0  0
 46 45  1  0  0  0  0
 47 52  1  0  0  0  0
 47 53  1  0  0  0  0
 48 49  1  0  0  0  0
 49 46  1  0  0  0  0
 50 53  1  0  0  0  0
 51 49  2  0  0  0  0
 52 51  1  0  0  0  0
 53 48  2  0  0  0  0
 54 47  1  0  0  0  0
 55 57  1  0  0  0  0
 56 55  1  0  0  0  0
 56 57  1  0  0  0  0
 57 54  1  6  0  0  0
 57 58  1  0  0  0  0
 58 59  1  0  0  0  0
 59 60  1  0  0  0  0
 60 61  2  0  0  0  0
M  END
>  <MODEL>
3

>  <REMARK>
 VINA RESULT:      -6.5      2.701      6.834
  Name = 
  19 active torsions:
  status: ('A' for Active; 'I' for Inactive)
    1  A    between atoms: C_1  and  C_34
    2  A    between atoms: C_1  and  C_40
    3  A    between atoms: N_3  and  C_58
    4  A    between atoms: C_6  and  C_23
    5  A    between atoms: C_6  and  C_43
    6  A    between atoms: C_13  and  C_22
    7  A    between atoms: C_13  and  C_50
    8  A    between atoms: C_19  and  C_48
    9  A    between atoms: C_21  and  C_56
   10  A    between atoms: C_21  and  C_57
   11  A    between atoms: C_22  and  C_29
   12  A    between atoms: C_25  and  C_57
   13  A    between atoms: C_29  and  C_58
   14  A    between atoms: C_31  and  C_48
   15  A    between atoms: C_31  and  C_56
   16  A    between atoms: N_38  and  C_48
   17  A    between atoms: C_40  and  C_57
   18  A    between atoms: C_45  and  C_61
   19  A    between atoms: C_54  and  C_56
                            x       y       z     vdW  Elec       q    Type
                         _______ _______ _______ _____ _____    ______ ____

>  <TORSDO>
F 19

$$$$
=
 OpenBabel11062422593D

 61 69  0  0  1  0  0  0  0  0999 V2000
  190.6710  175.1600  142.7750 C   0  0  1  0  0  3  0  0  0  0  0  0
  191.0460  174.1470  145.0440 C   0  0  0  0  0  3  0  0  0  0  0  0
  190.1160  173.9650  145.9670 C   0  0  0  0  0  3  0  0  0  0  0  0
  190.7730  175.4090  144.2900 C   0  0  2  0  0  3  0  0  0  0  0  0
  189.5020  175.8790  144.9210 C   0  0  0  0  0  3  0  0  0  0  0  0
  189.1480  175.0490  145.8900 C   0  0  0  0  0  3  0  0  0  0  0  0
  193.3320  176.4060  142.9640 O   0  0  0  0  0  0  0  0  0  0  0  0
  191.9320  174.7110  142.1690 N   0  0  0  0  0  2  0  0  0  0  0  0
  193.2270  175.2620  142.4360 C   0  0  0  0  0  0  0  0  0  0  0  0
  197.5240  174.2080  144.2970 C   0  0  0  0  0  1  0  0  0  0  0  0
  194.1060  172.9580  142.0700 C   0  0  0  0  0  2  0  0  0  0  0  0
  195.2400  174.9680  140.9250 C   0  0  1  0  0  3  0  0  0  0  0  0
  193.8220  170.2260  139.9160 C   0  0  0  0  0  0  0  0  0  0  0  0
  193.1270  168.5620  138.3280 C   0  0  0  0  0  3  0  0  0  0  0  0
  196.1020  172.1620  140.9830 O   0  0  0  0  0  1  0  0  0  0  0  0
  196.8410  174.3280  143.0260 N   0  0  0  0  0  0  0  0  0  0  0  0
  194.9500  174.8140  138.6870 C   0  0  0  0  0  2  0  0  0  0  0  0
  194.3900  175.3330  139.8730 O   0  0  0  0  0  0  0  0  0  0  0  0
  197.4110  176.1610  140.6620 C   0  0  0  0  0  1  0  0  0  0  0  0
  194.1340  172.5130  139.5410 C   0  0  1  0  0  3  0  0  0  0  0  0
  193.3690  170.8900  137.6460 C   0  0  0  0  0  3  0  0  0  0  0  0
  194.2860  170.7200  141.1520 N   0  0  0  0  0  2  0  0  0  0  0  0
  196.4040  175.7350  142.9060 C   0  0  1  0  0  3  0  0  0  0  0  0
  193.5100  168.8950  139.6390 C   0  0  0  0  0  3  0  0  0  0  0  0
  193.7700  171.1930  138.9510 C   0  0  0  0  0  0  0  0  0  0  0  0
  196.1140  176.0890  141.4430 C   0  0  2  0  0  3  0  0  0  0  0  0
  194.7020  172.1090  140.9460 C   0  0  2  0  0  0  0  0  0  0  0  0
  193.0550  169.5560  137.3330 C   0  0  0  0  0  3  0  0  0  0  0  0
  195.4460  174.7010  143.3290 C   0  0  1  0  0  3  0  0  0  0  0  0
  195.1330  173.2780  138.6600 C   0  0  0  0  0  2  0  0  0  0  0  0
  194.4850  174.4550  142.1520 C   0  0  1  0  0  0  0  0  0  0  0  0
  189.4950  174.2490  142.4090 C   0  0  0  0  0  2  0  0  0  0  0  0
  189.9550  172.9970  141.6560 C   0  0  1  0  0  3  0  0  0  0  0  0
  188.8680  171.6710  143.5380 O   0  0  0  0  0  1  0  0  0  0  0  0
  190.1830  170.5720  141.9610 O   0  0  0  0  0  0  0  0  0  0  0  0
  191.1340  171.0540  142.8900 C   0  0  0  0  0  2  0  0  0  0  0  0
  189.8930  171.7900  142.5950 C   0  0  1  0  0  0  0  0  0  0  0  0
  189.1100  172.8040  140.3950 C   0  0  0  0  0  2  0  0  0  0  0  0
  189.9060  172.4720  139.1290 C   0  0  1  0  0  3  0  0  0  0  0  0
  189.3540  171.3040  138.3490 C   0  0  0  0  0  3  0  0  0  0  0  0
  189.8270  170.0690  138.5270 C   0  0  0  0  0  2  0  0  0  0  0  0
  190.1660  173.6920  138.2520 C   0  0  0  0  0  2  0  0  0  0  0  0
  189.3300  173.5610  136.9840 C   0  0  0  0  0  2  0  0  0  0  0  0
  188.3170  174.6490  136.8790 C   0  0  0  0  0  3  0  0  0  0  0  0
  187.7520  175.1710  137.9700 C   0  0  0  0  0  3  0  0  0  0  0  0
  186.6650  176.1940  137.8500 C   0  0  0  0  0  2  0  0  0  0  0  0
  186.1890  178.2660  141.5720 N   0  0  0  0  0  0  0  0  0  0  0  0
  187.4690  176.7620  140.2230 C   0  0  0  0  0  3  0  0  0  0  0  0
  186.4330  176.8440  139.1740 C   0  0  0  0  0  0  0  0  0  0  0  0
  188.3080  177.3290  142.3220 F   0  0  0  0  0  0  0  0  0  0  0  0
  185.3290  177.5820  139.3760 C   0  0  0  0  0  3  0  0  0  0  0  0
  185.1680  178.2900  140.6090 N   0  0  0  0  0  2  0  0  0  0  0  0
  187.3480  177.4390  141.3620 C   0  0  0  0  0  0  0  0  0  0  0  0
  186.0860  179.0980  142.7620 C   0  0  0  0  0  2  0  0  0  0  0  0
  183.9860  179.0090  144.2760 C   0  0  0  0  0  2  0  0  0  0  0  0
  184.0430  177.9810  143.3100 O   0  0  0  0  0  0  0  0  0  0  0  0
  185.2690  178.4100  143.8440 C   0  0  1  0  0  0  0  0  0  0  0  0
  185.8880  177.3000  144.6810 C   0  0  0  0  0  2  0  0  0  0  0  0
  186.6380  177.8460  145.8900 C   0  0  0  0  0  2  0  0  0  0  0  0
  186.2900  177.0560  147.1120 C   0  0  0  0  0  3  0  0  0  0  0  0
  185.9450  177.6530  148.1980 N   0  0  0  0  0  2  0  0  0  0  0  0
  1 32  1  1  0  0  0
  2  3  2  0  0  0  0
  4  1  1  6  0  0  0
  4  5  1  0  0  0  0
  4  2  1  0  0  0  0
  5  6  2  0  0  0  0
  6  3  1  0  0  0  0
  8  9  1  0  0  0  0
  8  1  1  0  0  0  0
  9  7  2  0  0  0  0
 11 31  1  0  0  0  0
 12 18  1  6  0  0  0
 12 26  1  0  0  0  0
 12 31  1  0  0  0  0
 13 22  1  0  0  0  0
 14 24  2  0  0  0  0
 16 10  1  0  0  0  0
 17 18  1  0  0  0  0
 20 30  1  6  0  0  0
 20 27  1  0  0  0  0
 21 25  1  0  0  0  0
 23 16  1  6  0  0  0
 23 29  1  0  0  0  0
 24 13  1  0  0  0  0
 25 20  1  0  0  0  0
 25 13  2  0  0  0  0
 26 19  1  6  0  0  0
 26 23  1  0  0  0  0
 27 15  1  1  0  0  0
 27 22  1  0  0  0  0
 27 11  1  0  0  0  0
 28 21  2  0  0  0  0
 28 14  1  0  0  0  0
 29 16  1  6  0  0  0
 30 17  1  0  0  0  0
 31  9  1  1  0  0  0
 31 29  1  0  0  0  0
 33 38  1  6  0  0  0
 33 32  1  0  0  0  0
 33 37  1  0  0  0  0
 35 37  1  0  0  0  0
 35 36  1  0  0  0  0
 37 36  1  0  0  0  0
 37 34  1  1  0  0  0
 39 42  1  6  0  0  0
 39 38  1  0  0  0  0
 40 41  2  0  0  0  0
 40 39  1  0  0  0  0
 43 42  1  0  0  0  0
 44 43  1  0  0  0  0
 44 45  2  0  0  0  0
 46 45  1  0  0  0  0
 46 49  1  0  0  0  0
 47 54  1  0  0  0  0
 48 53  2  0  0  0  0
 49 51  2  0  0  0  0
 49 48  1  0  0  0  0
 51 52  1  0  0  0  0
 52 47  1  0  0  0  0
 53 47  1  0  0  0  0
 53 50  1  0  0  0  0
 56 57  1  0  0  0  0
 56 55  1  0  0  0  0
 57 54  1  6  0  0  0
 57 55  1  0  0  0  0
 57 58  1  0  0  0  0
 58 59  1  0  0  0  0
 59 60  1  0  0  0  0
 60 61  2  0  0  0  0
M  END
>  <MODEL>
4

>  <REMARK>
 VINA RESULT:      -6.4      2.173      5.784
  Name = 
  19 active torsions:
  status: ('A' for Active; 'I' for Inactive)
    1  A    between atoms: C_1  and  C_34
    2  A    between atoms: C_1  and  C_40
    3  A    between atoms: N_3  and  C_58
    4  A    between atoms: C_6  and  C_23
    5  A    between atoms: C_6  and  C_43
    6  A    between atoms: C_13  and  C_22
    7  A    between atoms: C_13  and  C_50
    8  A    between atoms: C_19  and  C_48
    9  A    between atoms: C_21  and  C_56
   10  A    between atoms: C_21  and  C_57
   11  A    between atoms: C_22  and  C_29
   12  A    between atoms: C_25  and  C_57
   13  A    between atoms: C_29  and  C_58
   14  A    between atoms: C_31  and  C_48
   15  A    between atoms: C_31  and  C_56
   16  A    between atoms: N_38  and  C_48
   17  A    between atoms: C_40  and  C_57
   18  A    between atoms: C_45  and  C_61
   19  A    between atoms: C_54  and  C_56
                            x       y       z     vdW  Elec       q    Type
                         _______ _______ _______ _____ _____    ______ ____

>  <TORSDO>
F 19

$$$$
=
 OpenBabel11062422593D

 61 69  0  0  1  0  0  0  0  0999 V2000
  191.9520  173.5050  139.7710 C   0  0  1  0  0  3  0  0  0  0  0  0
  189.9250  174.2470  141.0590 C   0  0  0  0  0  3  0  0  0  0  0  0
  189.4920  173.7060  142.1870 C   0  0  0  0  0  3  0  0  0  0  0  0
  190.5020  173.1860  140.1770 C   0  0  2  0  0  3  0  0  0  0  0  0
  190.3590  171.9640  141.0270 C   0  0  0  0  0  3  0  0  0  0  0  0
  189.7640  172.2780  142.1680 C   0  0  0  0  0  3  0  0  0  0  0  0
  194.1470  175.4530  140.0090 O   0  0  0  0  0  0  0  0  0  0  0  0
  192.8440  173.7360  140.9150 N   0  0  0  0  0  2  0  0  0  0  0  0
  193.7820  174.8130  141.0360 C   0  0  0  0  0  0  0  0  0  0  0  0
  197.4130  177.1520  143.1280 C   0  0  0  0  0  1  0  0  0  0  0  0
  193.2570  176.1880  143.0480 C   0  0  0  0  0  2  0  0  0  0  0  0
  194.6730  174.0490  143.2820 C   0  0  1  0  0  3  0  0  0  0  0  0
  190.9270  176.4930  145.6300 C   0  0  0  0  0  0  0  0  0  0  0  0
  188.9880  176.4470  147.0470 C   0  0  0  0  0  3  0  0  0  0  0  0
  194.0590  176.0750  145.3160 O   0  0  0  0  0  1  0  0  0  0  0  0
  196.4440  176.1080  143.3840 N   0  0  0  0  0  0  0  0  0  0  0  0
  193.5200  172.5190  144.4840 C   0  0  0  0  0  2  0  0  0  0  0  0
  193.7690  172.9840  143.1760 O   0  0  0  0  0  0  0  0  0  0  0  0
  196.8640  173.1730  144.0810 C   0  0  0  0  0  1  0  0  0  0  0  0
  192.1100  174.6680  144.7710 C   0  0  1  0  0  3  0  0  0  0  0  0
  190.0170  174.3660  146.3010 C   0  0  0  0  0  3  0  0  0  0  0  0
  191.9980  177.0760  144.9230 N   0  0  0  0  0  2  0  0  0  0  0  0
  196.7120  175.0260  142.4140 C   0  0  1  0  0  3  0  0  0  0  0  0
  189.9470  177.1890  146.3360 C   0  0  0  0  0  3  0  0  0  0  0  0
  190.9750  175.1260  145.6210 C   0  0  0  0  0  0  0  0  0  0  0  0
  196.0930  173.7060  142.8890 C   0  0  2  0  0  3  0  0  0  0  0  0
  192.9050  175.9970  144.5240 C   0  0  2  0  0  0  0  0  0  0  0  0
  189.0210  175.0390  147.0300 C   0  0  0  0  0  3  0  0  0  0  0  0
  195.6230  175.9840  142.1650 C   0  0  1  0  0  3  0  0  0  0  0  0
  192.9320  173.5670  145.4580 C   0  0  0  0  0  2  0  0  0  0  0  0
  194.2950  175.2420  142.4020 C   0  0  1  0  0  0  0  0  0  0  0  0
  192.5240  172.4800  138.7880 C   0  0  0  0  0  2  0  0  0  0  0  0
  192.4360  172.9670  137.3380 C   0  0  1  0  0  3  0  0  0  0  0  0
  194.9240  172.4730  137.1220 O   0  0  0  0  0  1  0  0  0  0  0  0
  193.8600  173.7680  135.5060 O   0  0  0  0  0  0  0  0  0  0  0  0
  194.1640  174.7080  136.5180 C   0  0  0  0  0  2  0  0  0  0  0  0
  193.8390  173.3050  136.8310 C   0  0  1  0  0  0  0  0  0  0  0  0
  191.7370  171.9150  136.4740 C   0  0  0  0  0  2  0  0  0  0  0  0
  190.2250  172.1090  136.3190 C   0  0  1  0  0  3  0  0  0  0  0  0
  189.4000  171.2030  137.2010 C   0  0  0  0  0  3  0  0  0  0  0  0
  189.8740  170.0270  137.6180 C   0  0  0  0  0  2  0  0  0  0  0  0
  189.7990  173.5690  136.4180 C   0  0  0  0  0  2  0  0  0  0  0  0
  188.4850  173.6370  137.1890 C   0  0  0  0  0  2  0  0  0  0  0  0
  188.0280  175.0430  137.3750 C   0  0  0  0  0  3  0  0  0  0  0  0
  187.6290  175.4840  138.5690 C   0  0  0  0  0  3  0  0  0  0  0  0
  187.0800  176.8690  138.7270 C   0  0  0  0  0  2  0  0  0  0  0  0
  185.3300  177.4340  142.5980 N   0  0  0  0  0  0  0  0  0  0  0  0
  187.0200  176.4070  141.2530 C   0  0  0  0  0  3  0  0  0  0  0  0
  186.4000  176.9980  140.0500 C   0  0  0  0  0  0  0  0  0  0  0  0
  187.0850  176.0430  143.5540 F   0  0  0  0  0  0  0  0  0  0  0  0
  185.2800  177.7300  140.1610 C   0  0  0  0  0  3  0  0  0  0  0  0
  184.6970  177.9380  141.4510 N   0  0  0  0  0  2  0  0  0  0  0  0
  186.5060  176.6170  142.4620 C   0  0  0  0  0  0  0  0  0  0  0  0
  184.8140  177.7660  143.9180 C   0  0  0  0  0  2  0  0  0  0  0  0
  185.5190  180.2580  143.8880 C   0  0  0  0  0  2  0  0  0  0  0  0
  184.6810  179.9100  144.9700 O   0  0  0  0  0  0  0  0  0  0  0  0
  185.5820  178.9260  144.5310 C   0  0  1  0  0  0  0  0  0  0  0  0
  186.6330  178.6680  145.6020 C   0  0  0  0  0  2  0  0  0  0  0  0
  186.1210  179.0000  146.9970 C   0  0  0  0  0  2  0  0  0  0  0  0
  185.3020  177.8660  147.5290 C   0  0  0  0  0  3  0  0  0  0  0  0
  185.8540  176.9250  148.2080 N   0  0  0  0  0  2  0  0  0  0  0  0
  1 32  1  1  0  0  0
  1  8  1  0  0  0  0
  2  3  2  0  0  0  0
  4  1  1  1  0  0  0
  4  5  1  0  0  0  0
  4  2  1  0  0  0  0
  5  6  2  0  0  0  0
  6  3  1  0  0  0  0
  7  9  2  0  0  0  0
  8  9  1  0  0  0  0
 10 16  1  0  0  0  0
 11 27  1  0  0  0  0
 12 18  1  6  0  0  0
 13 24  1  0  0  0  0
 17 30  1  0  0  0  0
 18 17  1  0  0  0  0
 20 30  1  1  0  0  0
 20 25  1  0  0  0  0
 21 28  2  0  0  0  0
 22 13  1  0  0  0  0
 23 26  1  0  0  0  0
 23 16  1  1  0  0  0
 24 14  2  0  0  0  0
 25 13  2  0  0  0  0
 25 21  1  0  0  0  0
 26 12  1  0  0  0  0
 26 19  1  1  0  0  0
 27 20  1  0  0  0  0
 27 22  1  0  0  0  0
 27 15  1  1  0  0  0
 28 14  1  0  0  0  0
 29 31  1  0  0  0  0
 29 23  1  0  0  0  0
 29 16  1  1  0  0  0
 31  9  1  6  0  0  0
 31 11  1  0  0  0  0
 31 12  1  0  0  0  0
 33 38  1  6  0  0  0
 33 32  1  0  0  0  0
 35 36  1  0  0  0  0
 35 37  1  0  0  0  0
 36 37  1  0  0  0  0
 37 34  1  1  0  0  0
 37 33  1  0  0  0  0
 39 42  1  1  0  0  0
 39 38  1  0  0  0  0
 39 40  1  0  0  0  0
 40 41  2  0  0  0  0
 42 43  1  0  0  0  0
 43 44  1  0  0  0  0
 44 45  2  0  0  0  0
 45 46  1  0  0  0  0
 46 49  1  0  0  0  0
 47 54  1  0  0  0  0
 48 53  2  0  0  0  0
 49 51  2  0  0  0  0
 49 48  1  0  0  0  0
 51 52  1  0  0  0  0
 52 47  1  0  0  0  0
 53 47  1  0  0  0  0
 53 50  1  0  0  0  0
 55 57  1  0  0  0  0
 55 56  1  0  0  0  0
 57 54  1  6  0  0  0
 57 56  1  0  0  0  0
 57 58  1  0  0  0  0
 58 59  1  0  0  0  0
 59 60  1  0  0  0  0
 60 61  2  0  0  0  0
M  END
>  <MODEL>
5

>  <REMARK>
 VINA RESULT:      -6.2      1.685      2.693
  Name = 
  19 active torsions:
  status: ('A' for Active; 'I' for Inactive)
    1  A    between atoms: C_1  and  C_34
    2  A    between atoms: C_1  and  C_40
    3  A    between atoms: N_3  and  C_58
    4  A    between atoms: C_6  and  C_23
    5  A    between atoms: C_6  and  C_43
    6  A    between atoms: C_13  and  C_22
    7  A    between atoms: C_13  and  C_50
    8  A    between atoms: C_19  and  C_48
    9  A    between atoms: C_21  and  C_56
   10  A    between atoms: C_21  and  C_57
   11  A    between atoms: C_22  and  C_29
   12  A    between atoms: C_25  and  C_57
   13  A    between atoms: C_29  and  C_58
   14  A    between atoms: C_31  and  C_48
   15  A    between atoms: C_31  and  C_56
   16  A    between atoms: N_38  and  C_48
   17  A    between atoms: C_40  and  C_57
   18  A    between atoms: C_45  and  C_61
   19  A    between atoms: C_54  and  C_56
                            x       y       z     vdW  Elec       q    Type
                         _______ _______ _______ _____ _____    ______ ____

>  <TORSDO>
F 19

$$$$
=
 OpenBabel11062422593D

 61 69  0  0  1  0  0  0  0  0999 V2000
  193.2530  171.4960  140.1700 C   0  0  1  0  0  3  0  0  0  0  0  0
  192.0090  169.4450  139.4200 C   0  0  0  0  0  3  0  0  0  0  0  0
  191.0270  168.8570  140.0840 C   0  0  0  0  0  3  0  0  0  0  0  0
  193.0160  169.9900  140.3810 C   0  0  2  0  0  3  0  0  0  0  0  0
  192.4040  169.6450  141.7010 C   0  0  0  0  0  3  0  0  0  0  0  0
  191.2730  168.9820  141.5120 C   0  0  0  0  0  3  0  0  0  0  0  0
  193.0660  174.2910  141.0760 O   0  0  0  0  0  0  0  0  0  0  0  0
  193.9590  172.1400  141.2860 N   0  0  0  0  0  2  0  0  0  0  0  0
  193.6990  173.4580  141.7860 C   0  0  0  0  0  0  0  0  0  0  0  0
  192.5890  176.4770  145.3470 C   0  0  0  0  0  1  0  0  0  0  0  0
  193.9460  172.6220  144.1210 C   0  0  0  0  0  2  0  0  0  0  0  0
  195.5240  174.4550  143.2340 C   0  0  1  0  0  3  0  0  0  0  0  0
  195.6560  170.2400  146.0150 C   0  0  0  0  0  0  0  0  0  0  0  0
  196.8650  168.3320  146.8340 C   0  0  0  0  0  3  0  0  0  0  0  0
  195.2930  173.3940  145.9620 O   0  0  0  0  0  1  0  0  0  0  0  0
  193.7090  175.7480  144.7920 N   0  0  0  0  0  0  0  0  0  0  0  0
  197.6280  173.6330  143.1120 C   0  0  0  0  0  2  0  0  0  0  0  0
  196.4280  173.7990  142.3890 O   0  0  0  0  0  0  0  0  0  0  0  0
  196.3450  176.7690  143.6560 C   0  0  0  0  0  1  0  0  0  0  0  0
  196.3600  171.7960  144.4180 C   0  0  1  0  0  3  0  0  0  0  0  0
  197.8600  169.7910  145.1530 C   0  0  0  0  0  3  0  0  0  0  0  0
  194.6030  171.1750  145.9540 N   0  0  0  0  0  2  0  0  0  0  0  0
  193.9130  176.2550  143.4180 C   0  0  1  0  0  3  0  0  0  0  0  0
  195.7030  169.1240  146.8490 C   0  0  0  0  0  3  0  0  0  0  0  0
  196.7030  170.5760  145.2020 C   0  0  0  0  0  0  0  0  0  0  0  0
  195.3250  175.9220  142.9210 C   0  0  2  0  0  3  0  0  0  0  0  0
  195.0520  172.2960  145.1260 C   0  0  2  0  0  0  0  0  0  0  0  0
  197.9410  168.6630  145.9880 C   0  0  0  0  0  3  0  0  0  0  0  0
  193.1910  174.9910  143.6360 C   0  0  1  0  0  3  0  0  0  0  0  0
  197.5030  172.8220  144.4230 C   0  0  0  0  0  2  0  0  0  0  0  0
  194.1210  173.8470  143.1940 C   0  0  1  0  0  0  0  0  0  0  0  0
  193.9040  171.8020  138.8180 C   0  0  0  0  0  2  0  0  0  0  0  0
  193.3140  173.0580  138.1710 C   0  0  1  0  0  3  0  0  0  0  0  0
  194.5120  175.2890  137.9050 O   0  0  0  0  0  1  0  0  0  0  0  0
  195.7050  173.3020  137.6700 O   0  0  0  0  0  0  0  0  0  0  0  0
  195.1380  173.4880  136.3880 C   0  0  0  0  0  2  0  0  0  0  0  0
  194.4470  173.9230  137.6140 C   0  0  1  0  0  0  0  0  0  0  0  0
  192.2950  172.6650  137.0990 C   0  0  0  0  0  2  0  0  0  0  0  0
  191.2920  173.7620  136.7290 C   0  0  1  0  0  3  0  0  0  0  0  0
  190.9180  173.7800  135.2660 C   0  0  0  0  0  3  0  0  0  0  0  0
  189.6540  173.9600  134.8790 C   0  0  0  0  0  2  0  0  0  0  0  0
  190.0740  173.7900  137.6450 C   0  0  0  0  0  2  0  0  0  0  0  0
  189.5920  172.3580  137.8500 C   0  0  0  0  0  2  0  0  0  0  0  0
  189.5420  171.9960  139.2950 C   0  0  0  0  0  3  0  0  0  0  0  0
  189.9470  172.8550  140.2330 C   0  0  0  0  0  3  0  0  0  0  0  0
  189.9850  172.4480  141.6740 C   0  0  0  0  0  2  0  0  0  0  0  0
  189.0870  175.8020  144.1870 N   0  0  0  0  0  0  0  0  0  0  0  0
  189.7510  173.5110  144.0000 C   0  0  0  0  0  3  0  0  0  0  0  0
  189.5740  173.5950  142.5360 C   0  0  0  0  0  0  0  0  0  0  0  0
  189.6670  174.4540  146.1300 F   0  0  0  0  0  0  0  0  0  0  0  0
  189.1360  174.7340  141.9760 C   0  0  0  0  0  3  0  0  0  0  0  0
  188.8490  175.8650  142.8050 N   0  0  0  0  0  2  0  0  0  0  0  0
  189.5170  174.5640  144.7800 C   0  0  0  0  0  0  0  0  0  0  0  0
  188.9290  176.9940  145.0070 C   0  0  0  0  0  2  0  0  0  0  0  0
  187.0930  176.5510  146.7780 C   0  0  0  0  0  2  0  0  0  0  0  0
  187.4640  177.9080  146.6630 O   0  0  0  0  0  0  0  0  0  0  0  0
  187.4930  177.1460  145.4830 C   0  0  1  0  0  0  0  0  0  0  0  0
  186.4150  177.6300  144.5240 C   0  0  0  0  0  2  0  0  0  0  0  0
  185.8990  179.0140  144.8960 C   0  0  0  0  0  2  0  0  0  0  0  0
  184.4390  178.9500  145.2170 C   0  0  0  0  0  3  0  0  0  0  0  0
  184.0420  178.5440  146.3700 N   0  0  0  0  0  2  0  0  0  0  0  0
  1 32  1  6  0  0  0
  1  8  1  0  0  0  0
  2  3  2  0  0  0  0
  2  4  1  0  0  0  0
  3  6  1  0  0  0  0
  4  1  1  1  0  0  0
  4  5  1  0  0  0  0
  6  5  2  0  0  0  0
  7  9  2  0  0  0  0
  8  9  1  0  0  0  0
 11 27  1  0  0  0  0
 12 18  1  6  0  0  0
 13 24  1  0  0  0  0
 14 24  2  0  0  0  0
 16 10  1  0  0  0  0
 17 30  1  0  0  0  0
 18 17  1  0  0  0  0
 20 30  1  1  0  0  0
 20 27  1  0  0  0  0
 20 25  1  0  0  0  0
 21 25  1  0  0  0  0
 21 28  2  0  0  0  0
 22 13  1  0  0  0  0
 23 29  1  0  0  0  0
 23 16  1  1  0  0  0
 25 13  2  0  0  0  0
 26 12  1  0  0  0  0
 26 23  1  0  0  0  0
 26 19  1  1  0  0  0
 27 22  1  0  0  0  0
 27 15  1  1  0  0  0
 28 14  1  0  0  0  0
 29 16  1  1  0  0  0
 31  9  1  6  0  0  0
 31 12  1  0  0  0  0
 31 29  1  0  0  0  0
 31 11  1  0  0  0  0
 33 38  1  6  0  0  0
 33 32  1  0  0  0  0
 36 37  1  0  0  0  0
 36 35  1  0  0  0  0
 37 35  1  0  0  0  0
 37 34  1  1  0  0  0
 37 33  1  0  0  0  0
 39 40  1  6  0  0  0
 39 38  1  0  0  0  0
 39 42  1  0  0  0  0
 41 40  2  0  0  0  0
 42 43  1  0  0  0  0
 43 44  1  0  0  0  0
 44 45  2  0  0  0  0
 45 46  1  0  0  0  0
 46 49  1  0  0  0  0
 47 53  1  0  0  0  0
 47 54  1  0  0  0  0
 48 53  2  0  0  0  0
 49 48  1  0  0  0  0
 51 49  2  0  0  0  0
 51 52  1  0  0  0  0
 52 47  1  0  0  0  0
 53 50  1  0  0  0  0
 54 57  1  0  0  0  0
 56 55  1  0  0  0  0
 57 58  1  6  0  0  0
 57 56  1  0  0  0  0
 57 55  1  0  0  0  0
 58 59  1  0  0  0  0
 59 60  1  0  0  0  0
 60 61  2  0  0  0  0
M  END
>  <MODEL>
6

>  <REMARK>
 VINA RESULT:      -6.1      2.225      4.246
  Name = 
  19 active torsions:
  status: ('A' for Active; 'I' for Inactive)
    1  A    between atoms: C_1  and  C_34
    2  A    between atoms: C_1  and  C_40
    3  A    between atoms: N_3  and  C_58
    4  A    between atoms: C_6  and  C_23
    5  A    between atoms: C_6  and  C_43
    6  A    between atoms: C_13  and  C_22
    7  A    between atoms: C_13  and  C_50
    8  A    between atoms: C_19  and  C_48
    9  A    between atoms: C_21  and  C_56
   10  A    between atoms: C_21  and  C_57
   11  A    between atoms: C_22  and  C_29
   12  A    between atoms: C_25  and  C_57
   13  A    between atoms: C_29  and  C_58
   14  A    between atoms: C_31  and  C_48
   15  A    between atoms: C_31  and  C_56
   16  A    between atoms: N_38  and  C_48
   17  A    between atoms: C_40  and  C_57
   18  A    between atoms: C_45  and  C_61
   19  A    between atoms: C_54  and  C_56
                            x       y       z     vdW  Elec       q    Type
                         _______ _______ _______ _____ _____    ______ ____

>  <TORSDO>
F 19

$$$$
=
 OpenBabel11062422593D

 61 69  0  0  1  0  0  0  0  0999 V2000
  189.4860  173.4540  140.6870 C   0  0  1  0  0  3  0  0  0  0  0  0
  189.0640  172.4050  138.4420 C   0  0  0  0  0  3  0  0  0  0  0  0
  189.0350  173.0500  137.2870 C   0  0  0  0  0  3  0  0  0  0  0  0
  188.4980  173.2730  139.5200 C   0  0  2  0  0  3  0  0  0  0  0  0
  188.1900  174.5330  138.7770 C   0  0  0  0  0  3  0  0  0  0  0  0
  188.4890  174.3820  137.4960 C   0  0  0  0  0  3  0  0  0  0  0  0
  187.0520  173.9890  142.2550 O   0  0  0  0  0  0  0  0  0  0  0  0
  189.1860  174.6160  141.5340 N   0  0  0  0  0  2  0  0  0  0  0  0
  188.0570  174.7410  142.4070 C   0  0  0  0  0  0  0  0  0  0  0  0
  185.2660  176.5470  145.8680 C   0  0  0  0  0  1  0  0  0  0  0  0
  189.1300  175.2570  144.5970 C   0  0  0  0  0  2  0  0  0  0  0  0
  188.2800  177.1700  143.0950 C   0  0  1  0  0  3  0  0  0  0  0  0
  192.2260  176.0040  146.0260 C   0  0  0  0  0  0  0  0  0  0  0  0
  194.5540  176.2500  146.5650 C   0  0  0  0  0  3  0  0  0  0  0  0
  189.3410  177.3160  145.8280 O   0  0  0  0  0  1  0  0  0  0  0  0
  186.4060  176.8870  145.0430 N   0  0  0  0  0  0  0  0  0  0  0  0
  190.0430  178.3840  142.3660 C   0  0  0  0  0  2  0  0  0  0  0  0
  189.2180  177.2820  142.0600 O   0  0  0  0  0  0  0  0  0  0  0  0
  186.7650  179.1450  143.0310 C   0  0  0  0  0  1  0  0  0  0  0  0
  191.0960  176.8500  144.1620 C   0  0  1  0  0  3  0  0  0  0  0  0
  193.6480  177.2510  144.5350 C   0  0  0  0  0  3  0  0  0  0  0  0
  190.8840  175.6250  146.2320 N   0  0  0  0  0  2  0  0  0  0  0  0
  185.9390  176.8690  143.6400 C   0  0  1  0  0  3  0  0  0  0  0  0
  193.2870  175.7360  146.8900 C   0  0  0  0  0  3  0  0  0  0  0  0
  192.3910  176.7490  144.8920 C   0  0  0  0  0  0  0  0  0  0  0  0
  186.8950  177.6630  142.7410 C   0  0  2  0  0  3  0  0  0  0  0  0
  190.0730  176.2920  145.2110 C   0  0  2  0  0  0  0  0  0  0  0  0
  194.7360  177.0050  145.3900 C   0  0  0  0  0  3  0  0  0  0  0  0
  186.6720  175.7150  144.1860 C   0  0  1  0  0  3  0  0  0  0  0  0
  190.8040  178.2880  143.7090 C   0  0  0  0  0  2  0  0  0  0  0  0
  188.0790  175.7280  143.5640 C   0  0  1  0  0  0  0  0  0  0  0  0
  189.6660  172.1710  141.5050 C   0  0  0  0  0  2  0  0  0  0  0  0
  191.1380  171.7620  141.6080 C   0  0  1  0  0  3  0  0  0  0  0  0
  190.8200  170.0080  139.7910 O   0  0  0  0  0  1  0  0  0  0  0  0
  192.5800  169.7990  141.3010 O   0  0  0  0  0  0  0  0  0  0  0  0
  191.4900  169.2300  142.0000 C   0  0  0  0  0  2  0  0  0  0  0  0
  191.3110  170.3460  141.0550 C   0  0  1  0  0  0  0  0  0  0  0  0
  192.0180  172.7850  140.8860 C   0  0  0  0  0  2  0  0  0  0  0  0
  192.9770  173.5640  141.7920 C   0  0  1  0  0  3  0  0  0  0  0  0
  192.8590  175.0640  141.6600 C   0  0  0  0  0  3  0  0  0  0  0  0
  193.8490  175.7910  141.1380 C   0  0  0  0  0  2  0  0  0  0  0  0
  192.9360  173.1000  143.2440 C   0  0  0  0  0  2  0  0  0  0  0  0
  194.1800  173.6210  143.9530 C   0  0  0  0  0  2  0  0  0  0  0  0
  195.4280  173.1980  143.2560 C   0  0  0  0  0  3  0  0  0  0  0  0
  196.4300  174.0570  143.0580 C   0  0  0  0  0  3  0  0  0  0  0  0
  197.6380  173.6520  142.2720 C   0  0  0  0  0  2  0  0  0  0  0  0
  196.5580  173.9810  138.1370 N   0  0  0  0  0  0  0  0  0  0  0  0
  197.0040  172.5810  140.0250 C   0  0  0  0  0  3  0  0  0  0  0  0
  197.3600  173.7790  140.8110 C   0  0  0  0  0  0  0  0  0  0  0  0
  196.3200  171.5590  138.0440 F   0  0  0  0  0  0  0  0  0  0  0  0
  197.3400  174.9920  140.2340 C   0  0  0  0  0  3  0  0  0  0  0  0
  196.9650  175.1140  138.8580 N   0  0  0  0  0  2  0  0  0  0  0  0
  196.6240  172.6820  138.7540 C   0  0  0  0  0  0  0  0  0  0  0  0
  196.0440  174.1260  136.7840 C   0  0  0  0  0  2  0  0  0  0  0  0
  194.5680  176.1070  136.0040 C   0  0  0  0  0  2  0  0  0  0  0  0
  194.1740  174.8560  135.4810 O   0  0  0  0  0  0  0  0  0  0  0  0
  194.7090  174.8550  136.7800 C   0  0  1  0  0  0  0  0  0  0  0  0
  193.6300  174.4810  137.7870 C   0  0  0  0  0  2  0  0  0  0  0  0
  192.5760  173.5630  137.1810 C   0  0  0  0  0  2  0  0  0  0  0  0
  192.9260  172.1320  137.4410 C   0  0  0  0  0  3  0  0  0  0  0  0
  193.4560  171.4120  136.5170 N   0  0  0  0  0  2  0  0  0  0  0  0
  1 32  1  1  0  0  0
  1  8  1  0  0  0  0
  2  4  1  0  0  0  0
  3  6  1  0  0  0  0
  3  2  2  0  0  0  0
  4  1  1  1  0  0  0
  5  4  1  0  0  0  0
  6  5  2  0  0  0  0
  7  9  2  0  0  0  0
  8  9  1  0  0  0  0
 11 27  1  0  0  0  0
 12 18  1  6  0  0  0
 12 31  1  0  0  0  0
 13 22  1  0  0  0  0
 13 24  1  0  0  0  0
 14 24  2  0  0  0  0
 16 10  1  0  0  0  0
 17 30  1  0  0  0  0
 18 17  1  0  0  0  0
 20 30  1  1  0  0  0
 20 25  1  0  0  0  0
 20 27  1  0  0  0  0
 21 25  1  0  0  0  0
 21 28  2  0  0  0  0
 23 29  1  0  0  0  0
 23 16  1  1  0  0  0
 25 13  2  0  0  0  0
 26 19  1  1  0  0  0
 26 12  1  0  0  0  0
 26 23  1  0  0  0  0
 27 15  1  1  0  0  0
 27 22  1  0  0  0  0
 28 14  1  0  0  0  0
 29 16  1  1  0  0  0
 31  9  1  6  0  0  0
 31 29  1  0  0  0  0
 31 11  1  0  0  0  0
 32 33  1  0  0  0  0
 33 38  1  6  0  0  0
 35 36  1  0  0  0  0
 37 34  1  6  0  0  0
 37 35  1  0  0  0  0
 37 33  1  0  0  0  0
 37 36  1  0  0  0  0
 39 38  1  6  0  0  0
 39 42  1  0  0  0  0
 40 39  1  0  0  0  0
 41 40  2  0  0  0  0
 42 43  1  0  0  0  0
 44 43  1  0  0  0  0
 45 44  2  0  0  0  0
 46 45  1  0  0  0  0
 47 53  1  0  0  0  0
 47 52  1  0  0  0  0
 48 49  1  0  0  0  0
 49 46  1  0  0  0  0
 50 53  1  0  0  0  0
 51 49  2  0  0  0  0
 52 51  1  0  0  0  0
 53 48  2  0  0  0  0
 54 47  1  0  0  0  0
 55 57  1  0  0  0  0
 56 55  1  0  0  0  0
 56 57  1  0  0  0  0
 57 54  1  1  0  0  0
 57 58  1  0  0  0  0
 59 60  1  0  0  0  0
 59 58  1  0  0  0  0
 61 60  2  0  0  0  0
M  END
>  <MODEL>
7

>  <REMARK>
 VINA RESULT:      -6.1      2.760      8.029
  Name = 
  19 active torsions:
  status: ('A' for Active; 'I' for Inactive)
    1  A    between atoms: C_1  and  C_34
    2  A    between atoms: C_1  and  C_40
    3  A    between atoms: N_3  and  C_58
    4  A    between atoms: C_6  and  C_23
    5  A    between atoms: C_6  and  C_43
    6  A    between atoms: C_13  and  C_22
    7  A    between atoms: C_13  and  C_50
    8  A    between atoms: C_19  and  C_48
    9  A    between atoms: C_21  and  C_56
   10  A    between atoms: C_21  and  C_57
   11  A    between atoms: C_22  and  C_29
   12  A    between atoms: C_25  and  C_57
   13  A    between atoms: C_29  and  C_58
   14  A    between atoms: C_31  and  C_48
   15  A    between atoms: C_31  and  C_56
   16  A    between atoms: N_38  and  C_48
   17  A    between atoms: C_40  and  C_57
   18  A    between atoms: C_45  and  C_61
   19  A    between atoms: C_54  and  C_56
                            x       y       z     vdW  Elec       q    Type
                         _______ _______ _______ _____ _____    ______ ____

>  <TORSDO>
F 19

$$$$
=
 OpenBabel11062422593D

 61 69  0  0  1  0  0  0  0  0999 V2000
  193.1860  172.3500  140.4010 C   0  0  1  0  0  3  0  0  0  0  0  0
  191.2650  172.5150  142.0140 C   0  0  0  0  0  3  0  0  0  0  0  0
  191.0770  171.7350  143.0670 C   0  0  0  0  0  3  0  0  0  0  0  0
  191.8710  171.7240  140.8990 C   0  0  2  0  0  3  0  0  0  0  0  0
  192.0330  170.3760  141.5260 C   0  0  0  0  0  3  0  0  0  0  0  0
  191.5590  170.3970  142.7620 C   0  0  0  0  0  3  0  0  0  0  0  0
  194.2430  175.0970  140.3520 O   0  0  0  0  0  0  0  0  0  0  0  0
  193.9320  173.0570  141.4510 N   0  0  0  0  0  2  0  0  0  0  0  0
  194.2720  174.4490  141.4370 C   0  0  0  0  0  0  0  0  0  0  0  0
  197.4300  177.5360  143.3140 C   0  0  0  0  0  1  0  0  0  0  0  0
  193.4190  176.1000  143.1000 C   0  0  0  0  0  2  0  0  0  0  0  0
  195.0100  174.2180  143.8500 C   0  0  1  0  0  3  0  0  0  0  0  0
  190.8280  176.6010  145.3850 C   0  0  0  0  0  0  0  0  0  0  0  0
  188.7730  176.5900  146.6290 C   0  0  0  0  0  3  0  0  0  0  0  0
  194.0020  176.4970  145.4020 O   0  0  0  0  0  1  0  0  0  0  0  0
  196.5490  176.4520  143.6910 N   0  0  0  0  0  0  0  0  0  0  0  0
  193.9010  172.8110  145.2320 C   0  0  0  0  0  2  0  0  0  0  0  0
  194.2300  173.0540  143.8820 O   0  0  0  0  0  0  0  0  0  0  0  0
  197.1870  173.7630  144.9710 C   0  0  0  0  0  1  0  0  0  0  0  0
  192.2650  174.7980  144.9890 C   0  0  1  0  0  3  0  0  0  0  0  0
  190.0720  174.5420  146.3810 C   0  0  0  0  0  3  0  0  0  0  0  0
  191.9010  177.1640  144.6640 N   0  0  0  0  0  2  0  0  0  0  0  0
  197.0170  175.2490  142.9710 C   0  0  1  0  0  3  0  0  0  0  0  0
  189.7190  177.2960  145.8660 C   0  0  0  0  0  3  0  0  0  0  0  0
  191.0120  175.2700  145.6440 C   0  0  0  0  0  0  0  0  0  0  0  0
  196.4880  173.9760  143.6430 C   0  0  2  0  0  3  0  0  0  0  0  0
  192.9440  176.1420  144.5530 C   0  0  2  0  0  0  0  0  0  0  0  0
  188.9470  175.2160  146.8860 C   0  0  0  0  0  3  0  0  0  0  0  0
  195.8680  176.0120  142.4590 C   0  0  1  0  0  3  0  0  0  0  0  0
  193.1200  173.9450  145.9360 C   0  0  0  0  0  2  0  0  0  0  0  0
  194.6040  175.1770  142.7310 C   0  0  1  0  0  0  0  0  0  0  0  0
  194.0610  171.3480  139.6420 C   0  0  0  0  0  2  0  0  0  0  0  0
  195.0240  172.0470  138.6780 C   0  0  1  0  0  3  0  0  0  0  0  0
  196.2310  169.8140  138.8720 O   0  0  0  0  0  1  0  0  0  0  0  0
  196.6940  171.2250  137.0780 O   0  0  0  0  0  0  0  0  0  0  0  0
  197.5260  171.7300  138.1040 C   0  0  0  0  0  2  0  0  0  0  0  0
  196.2130  171.1270  138.3930 C   0  0  1  0  0  0  0  0  0  0  0  0
  194.2820  172.4600  137.4050 C   0  0  0  0  0  2  0  0  0  0  0  0
  194.2120  173.9700  137.1590 C   0  0  1  0  0  3  0  0  0  0  0  0
  194.9790  174.4270  135.9420 C   0  0  0  0  0  3  0  0  0  0  0  0
  195.9610  175.3250  136.0420 C   0  0  0  0  0  2  0  0  0  0  0  0
  192.7870  174.5130  137.1920 C   0  0  0  0  0  2  0  0  0  0  0  0
  191.8260  173.3370  137.3170 C   0  0  0  0  0  2  0  0  0  0  0  0
  190.4110  173.7930  137.4270 C   0  0  0  0  0  3  0  0  0  0  0  0
  189.6420  173.4090  138.4480 C   0  0  0  0  0  3  0  0  0  0  0  0
  188.1950  173.7920  138.4990 C   0  0  0  0  0  2  0  0  0  0  0  0
  187.8330  176.6870  141.6390 N   0  0  0  0  0  0  0  0  0  0  0  0
  188.4300  174.4700  140.9650 C   0  0  0  0  0  3  0  0  0  0  0  0
  187.9700  174.7790  139.5960 C   0  0  0  0  0  0  0  0  0  0  0  0
  188.7730  175.0650  143.1930 F   0  0  0  0  0  0  0  0  0  0  0  0
  187.4390  175.9810  139.3200 C   0  0  0  0  0  3  0  0  0  0  0  0
  187.3290  176.9600  140.3580 N   0  0  0  0  0  2  0  0  0  0  0  0
  188.3620  175.3810  141.9330 C   0  0  0  0  0  0  0  0  0  0  0  0
  187.8480  177.7310  142.6530 C   0  0  0  0  0  2  0  0  0  0  0  0
  185.2850  177.9200  142.3320 C   0  0  0  0  0  2  0  0  0  0  0  0
  185.6900  176.7890  143.0750 O   0  0  0  0  0  0  0  0  0  0  0  0
  186.4600  177.9530  143.2320 C   0  0  1  0  0  0  0  0  0  0  0  0
  186.2980  178.4970  144.6440 C   0  0  0  0  0  2  0  0  0  0  0  0
  185.7360  177.4520  145.5990 C   0  0  0  0  0  2  0  0  0  0  0  0
  184.4390  177.9250  146.1760 C   0  0  0  0  0  3  0  0  0  0  0  0
  183.9200  179.0360  145.7910 N   0  0  0  0  0  2  0  0  0  0  0  0
  1 32  1  1  0  0  0
  1  8  1  0  0  0  0
  2  3  2  0  0  0  0
  4  1  1  1  0  0  0
  4  5  1  0  0  0  0
  4  2  1  0  0  0  0
  5  6  2  0  0  0  0
  6  3  1  0  0  0  0
  7  9  2  0  0  0  0
  9  8  1  0  0  0  0
 10 16  1  0  0  0  0
 11 27  1  0  0  0  0
 12 18  1  6  0  0  0
 13 25  2  0  0  0  0
 13 24  1  0  0  0  0
 14 28  1  0  0  0  0
 17 30  1  0  0  0  0
 18 17  1  0  0  0  0
 20 25  1  0  0  0  0
 20 30  1  1  0  0  0
 21 28  2  0  0  0  0
 22 13  1  0  0  0  0
 23 26  1  0  0  0  0
 23 16  1  1  0  0  0
 24 14  2  0  0  0  0
 25 21  1  0  0  0  0
 26 12  1  0  0  0  0
 26 19  1  1  0  0  0
 27 22  1  0  0  0  0
 27 20  1  0  0  0  0
 27 15  1  1  0  0  0
 29 31  1  0  0  0  0
 29 23  1  0  0  0  0
 29 16  1  1  0  0  0
 31  9  1  6  0  0  0
 31 11  1  0  0  0  0
 31 12  1  0  0  0  0
 33 38  1  6  0  0  0
 33 32  1  0  0  0  0
 35 36  1  0  0  0  0
 35 37  1  0  0  0  0
 36 37  1  0  0  0  0
 37 33  1  0  0  0  0
 37 34  1  1  0  0  0
 39 40  1  6  0  0  0
 39 42  1  0  0  0  0
 39 38  1  0  0  0  0
 40 41  2  0  0  0  0
 42 43  1  0  0  0  0
 43 44  1  0  0  0  0
 44 45  2  0  0  0  0
 45 46  1  0  0  0  0
 46 49  1  0  0  0  0
 47 53  1  0  0  0  0
 47 54  1  0  0  0  0
 48 53  2  0  0  0  0
 49 48  1  0  0  0  0
 51 49  2  0  0  0  0
 51 52  1  0  0  0  0
 52 47  1  0  0  0  0
 53 50  1  0  0  0  0
 55 56  1  0  0  0  0
 55 57  1  0  0  0  0
 56 57  1  0  0  0  0
 57 54  1  6  0  0  0
 57 58  1  0  0  0  0
 58 59  1  0  0  0  0
 59 60  1  0  0  0  0
 61 60  2  0  0  0  0
M  END
>  <MODEL>
8

>  <REMARK>
 VINA RESULT:      -5.9      1.599      2.592
  Name = 
  19 active torsions:
  status: ('A' for Active; 'I' for Inactive)
    1  A    between atoms: C_1  and  C_34
    2  A    between atoms: C_1  and  C_40
    3  A    between atoms: N_3  and  C_58
    4  A    between atoms: C_6  and  C_23
    5  A    between atoms: C_6  and  C_43
    6  A    between atoms: C_13  and  C_22
    7  A    between atoms: C_13  and  C_50
    8  A    between atoms: C_19  and  C_48
    9  A    between atoms: C_21  and  C_56
   10  A    between atoms: C_21  and  C_57
   11  A    between atoms: C_22  and  C_29
   12  A    between atoms: C_25  and  C_57
   13  A    between atoms: C_29  and  C_58
   14  A    between atoms: C_31  and  C_48
   15  A    between atoms: C_31  and  C_56
   16  A    between atoms: N_38  and  C_48
   17  A    between atoms: C_40  and  C_57
   18  A    between atoms: C_45  and  C_61
   19  A    between atoms: C_54  and  C_56
                            x       y       z     vdW  Elec       q    Type
                         _______ _______ _______ _____ _____    ______ ____

>  <TORSDO>
F 19

$$$$
=
 OpenBabel11062422593D

 61 69  0  0  1  0  0  0  0  0999 V2000
  191.4200  173.3580  142.0500 C   0  0  1  0  0  3  0  0  0  0  0  0
  189.0850  172.4360  141.9470 C   0  0  0  0  0  3  0  0  0  0  0  0
  188.1080  172.9030  141.1850 C   0  0  0  0  0  3  0  0  0  0  0  0
  189.9410  173.5660  142.4210 C   0  0  2  0  0  3  0  0  0  0  0  0
  189.3020  174.7420  141.7550 C   0  0  0  0  0  3  0  0  0  0  0  0
  188.2440  174.3460  141.0640 C   0  0  0  0  0  3  0  0  0  0  0  0
  191.7540  171.5170  139.7770 O   0  0  0  0  0  0  0  0  0  0  0  0
  191.7250  173.6860  140.6510 N   0  0  0  0  0  2  0  0  0  0  0  0
  191.7070  172.7610  139.5560 C   0  0  0  0  0  0  0  0  0  0  0  0
  188.5520  174.8350  136.5930 C   0  0  0  0  0  1  0  0  0  0  0  0
  192.5930  174.3860  137.8870 C   0  0  0  0  0  2  0  0  0  0  0  0
  191.6420  172.1230  137.1040 C   0  0  1  0  0  3  0  0  0  0  0  0
  195.5100  175.2340  136.1670 C   0  0  0  0  0  0  0  0  0  0  0  0
  197.7670  175.5700  135.4140 C   0  0  0  0  0  3  0  0  0  0  0  0
  192.5230  174.4040  135.4800 O   0  0  0  0  0  1  0  0  0  0  0  0
  189.6970  173.9490  136.5850 N   0  0  0  0  0  0  0  0  0  0  0  0
  193.3120  170.8760  136.2260 C   0  0  0  0  0  2  0  0  0  0  0  0
  192.6220  171.1720  137.4190 O   0  0  0  0  0  0  0  0  0  0  0  0
  189.9400  171.0700  135.6220 C   0  0  0  0  0  1  0  0  0  0  0  0
  194.4100  173.2000  136.5130 C   0  0  1  0  0  3  0  0  0  0  0  0
  196.8820  173.3140  135.6830 C   0  0  0  0  0  3  0  0  0  0  0  0
  194.2040  175.6060  136.5450 N   0  0  0  0  0  2  0  0  0  0  0  0
  189.3170  172.7500  137.3610 C   0  0  1  0  0  3  0  0  0  0  0  0
  196.5410  176.1130  135.8380 C   0  0  0  0  0  3  0  0  0  0  0  0
  195.6650  173.8780  136.0800 C   0  0  0  0  0  0  0  0  0  0  0  0
  190.2370  171.5710  137.0220 C   0  0  2  0  0  3  0  0  0  0  0  0
  193.3900  174.3890  136.5810 C   0  0  2  0  0  0  0  0  0  0  0  0
  197.9380  174.1740  135.3370 C   0  0  0  0  0  3  0  0  0  0  0  0
  190.1300  173.8040  137.9880 C   0  0  1  0  0  3  0  0  0  0  0  0
  194.0000  172.0820  135.5430 C   0  0  0  0  0  2  0  0  0  0  0  0
  191.5620  173.2580  138.1260 C   0  0  1  0  0  0  0  0  0  0  0  0
  192.3730  174.0520  143.0290 C   0  0  0  0  0  2  0  0  0  0  0  0
  193.6520  173.2410  143.2540 C   0  0  1  0  0  3  0  0  0  0  0  0
  192.0430  171.8040  144.6050 O   0  0  0  0  0  1  0  0  0  0  0  0
  193.8810  170.8170  143.5710 O   0  0  0  0  0  0  0  0  0  0  0  0
  194.4200  171.3030  144.7840 C   0  0  0  0  0  2  0  0  0  0  0  0
  193.3260  171.9990  144.0860 C   0  0  1  0  0  0  0  0  0  0  0  0
  194.2950  172.8940  141.9090 C   0  0  0  0  0  2  0  0  0  0  0  0
  195.6430  173.5720  141.6440 C   0  0  1  0  0  3  0  0  0  0  0  0
  196.0500  173.5770  140.1910 C   0  0  0  0  0  3  0  0  0  0  0  0
  196.7360  174.5950  139.6680 C   0  0  0  0  0  2  0  0  0  0  0  0
  195.7530  174.9510  142.2870 C   0  0  0  0  0  2  0  0  0  0  0  0
  196.3500  174.7870  143.6800 C   0  0  0  0  0  2  0  0  0  0  0  0
  195.7410  175.7360  144.6540 C   0  0  0  0  0  3  0  0  0  0  0  0
  194.8820  175.3110  145.5840 C   0  0  0  0  0  3  0  0  0  0  0  0
  194.2010  176.2850  146.4950 C   0  0  0  0  0  2  0  0  0  0  0  0
  190.0100  175.9520  145.6590 N   0  0  0  0  0  0  0  0  0  0  0  0
  192.1470  176.8460  145.0590 C   0  0  0  0  0  3  0  0  0  0  0  0
  192.7250  176.2390  146.2750 C   0  0  0  0  0  0  0  0  0  0  0  0
  190.3420  177.2940  143.6540 F   0  0  0  0  0  0  0  0  0  0  0  0
  191.9380  175.5660  147.1300 C   0  0  0  0  0  3  0  0  0  0  0  0
  190.5410  175.4360  146.8510 N   0  0  0  0  0  2  0  0  0  0  0  0
  190.8550  176.7070  144.7710 C   0  0  0  0  0  0  0  0  0  0  0  0
  188.6210  175.6970  145.3100 C   0  0  0  0  0  2  0  0  0  0  0  0
  187.0310  176.9050  146.9600 C   0  0  0  0  0  2  0  0  0  0  0  0
  188.2710  177.5550  146.7760 O   0  0  0  0  0  0  0  0  0  0  0  0
  187.7400  176.8860  145.6610 C   0  0  1  0  0  0  0  0  0  0  0  0
  187.3490  177.8920  144.5880 C   0  0  0  0  0  2  0  0  0  0  0  0
  187.0570  177.2200  143.2530 C   0  0  0  0  0  2  0  0  0  0  0  0
  185.5950  177.3010  142.9430 C   0  0  0  0  0  3  0  0  0  0  0  0
  185.0110  178.4420  142.8510 N   0  0  0  0  0  2  0  0  0  0  0  0
  1 32  1  1  0  0  0
  2  4  1  0  0  0  0
  3  2  2  0  0  0  0
  4  1  1  6  0  0  0
  5  4  1  0  0  0  0
  6  3  1  0  0  0  0
  6  5  2  0  0  0  0
  8  1  1  0  0  0  0
  9  7  2  0  0  0  0
  9  8  1  0  0  0  0
 11 31  1  0  0  0  0
 12 18  1  1  0  0  0
 12 31  1  0  0  0  0
 13 22  1  0  0  0  0
 14 24  1  0  0  0  0
 16 10  1  0  0  0  0
 17 18  1  0  0  0  0
 20 30  1  6  0  0  0
 20 27  1  0  0  0  0
 21 25  2  0  0  0  0
 22 27  1  0  0  0  0
 23 16  1  6  0  0  0
 23 29  1  0  0  0  0
 24 13  2  0  0  0  0
 25 13  1  0  0  0  0
 25 20  1  0  0  0  0
 26 19  1  6  0  0  0
 26 12  1  0  0  0  0
 26 23  1  0  0  0  0
 27 15  1  6  0  0  0
 27 11  1  0  0  0  0
 28 14  2  0  0  0  0
 28 21  1  0  0  0  0
 29 16  1  6  0  0  0
 29 31  1  0  0  0  0
 30 17  1  0  0  0  0
 31  9  1  1  0  0  0
 32 33  1  0  0  0  0
 33 38  1  6  0  0  0
 33 37  1  0  0  0  0
 35 37  1  0  0  0  0
 35 36  1  0  0  0  0
 37 34  1  1  0  0  0
 37 36  1  0  0  0  0
 39 40  1  6  0  0  0
 39 38  1  0  0  0  0
 39 42  1  0  0  0  0
 41 40  2  0  0  0  0
 42 43  1  0  0  0  0
 43 44  1  0  0  0  0
 44 45  2  0  0  0  0
 45 46  1  0  0  0  0
 47 52  1  0  0  0  0
 48 49  1  0  0  0  0
 49 46  1  0  0  0  0
 49 51  2  0  0  0  0
 50 53  1  0  0  0  0
 52 51  1  0  0  0  0
 53 48  2  0  0  0  0
 53 47  1  0  0  0  0
 54 47  1  0  0  0  0
 54 57  1  0  0  0  0
 56 55  1  0  0  0  0
 57 58  1  6  0  0  0
 57 56  1  0  0  0  0
 57 55  1  0  0  0  0
 59 58  1  0  0  0  0
 60 59  1  0  0  0  0
 61 60  2  0  0  0  0
M  END
>  <MODEL>
9

>  <REMARK>
 VINA RESULT:      -5.8      2.320      7.606
  Name = 
  19 active torsions:
  status: ('A' for Active; 'I' for Inactive)
    1  A    between atoms: C_1  and  C_34
    2  A    between atoms: C_1  and  C_40
    3  A    between atoms: N_3  and  C_58
    4  A    between atoms: C_6  and  C_23
    5  A    between atoms: C_6  and  C_43
    6  A    between atoms: C_13  and  C_22
    7  A    between atoms: C_13  and  C_50
    8  A    between atoms: C_19  and  C_48
    9  A    between atoms: C_21  and  C_56
   10  A    between atoms: C_21  and  C_57
   11  A    between atoms: C_22  and  C_29
   12  A    between atoms: C_25  and  C_57
   13  A    between atoms: C_29  and  C_58
   14  A    between atoms: C_31  and  C_48
   15  A    between atoms: C_31  and  C_56
   16  A    between atoms: N_38  and  C_48
   17  A    between atoms: C_40  and  C_57
   18  A    between atoms: C_45  and  C_61
   19  A    between atoms: C_54  and  C_56
                            x       y       z     vdW  Elec       q    Type
                         _______ _______ _______ _____ _____    ______ ____

>  <TORSDO>
F 19

$$$$
