=
 OpenBabel11072409083D

 57 61  0  0  1  0  0  0  0  0999 V2000
  188.3120  174.9790  142.0010 C   0  0  0  0  0  3  0  0  0  0  0  0
  187.6700  176.0010  142.5740 C   0  0  0  0  0  0  0  0  0  0  0  0
  184.5870  178.0200  141.3810 C   0  0  0  0  0  0  0  0  0  0  0  0
  186.8740  176.9810  141.7920 C   0  0  0  0  0  0  0  0  0  0  0  0
  185.4910  177.1790  142.1060 N   0  0  0  0  0  2  0  0  0  0  0  0
  187.4140  177.6310  140.8560 O   0  0  0  0  0  0  0  0  0  0  0  0
  184.9650  178.6340  140.3450 O   0  0  0  0  0  0  0  0  0  0  0  0
  183.2070  178.1410  141.8540 C   0  0  0  0  0  3  0  0  0  0  0  0
  182.1850  178.2710  141.0180 C   0  0  0  0  0  3  0  0  0  0  0  0
  180.7860  178.3970  141.5230 C   0  0  0  0  0  2  0  0  0  0  0  0
  178.9420  178.5540  139.8280 C   0  0  0  0  0  3  0  0  0  0  0  0
  180.1260  180.5690  140.4650 C   0  0  0  0  0  3  0  0  0  0  0  0
  179.3280  181.3140  139.5920 C   0  0  0  0  0  3  0  0  0  0  0  0
  178.1440  179.2990  138.9550 C   0  0  0  0  0  3  0  0  0  0  0  0
  179.9370  179.1880  140.5830 C   0  0  0  0  0  0  0  0  0  0  0  0
  178.3380  180.6780  138.8360 C   0  0  0  0  0  3  0  0  0  0  0  0
  187.8030  176.1180  144.0340 C   0  0  0  0  0  3  0  0  0  0  0  0
  188.3280  177.1800  144.6330 C   0  0  0  0  0  3  0  0  0  0  0  0
  188.4560  177.2320  146.1190 C   0  0  2  0  0  3  0  0  0  0  0  0
  189.9150  177.0790  146.5270 C   0  0  0  0  0  2  0  0  0  0  0  0
  190.6370  176.2580  145.5660 N   0  0  0  0  0  2  0  0  0  0  0  0
  191.9120  176.3290  147.5030 O   0  0  0  0  0  1  0  0  0  0  0  0
  191.9120  175.9180  146.1710 C   0  0  2  0  0  3  0  0  0  0  0  0
  194.2400  176.7910  146.3110 C   0  0  0  0  0  1  0  0  0  0  0  0
  193.0300  176.6100  145.4160 C   0  0  0  0  0  2  0  0  0  0  0  0
  187.6840  176.2250  146.7120 O   0  0  0  0  0  0  0  0  0  0  0  0
  185.2970  176.5120  146.5940 C   0  0  0  0  0  2  0  0  0  0  0  0
  186.6040  176.8810  147.3130 C   0  0  0  0  0  3  0  0  0  0  0  0
  186.8840  178.3900  147.3430 C   0  0  0  0  0  2  0  0  0  0  0  0
  184.6290  178.9300  146.3180 C   0  0  0  0  0  2  0  0  0  0  0  0
  184.8690  177.5910  145.6040 C   0  0  0  0  0  2  0  0  0  0  0  0
  185.5890  179.1830  147.4910 C   0  0  0  0  0  2  0  0  0  0  0  0
  188.3880  174.7300  140.5250 C   0  0  0  0  0  2  0  0  0  0  0  0
  190.6420  173.9250  141.2220 C   0  0  0  0  0  3  0  0  0  0  0  0
  190.9890  172.5580  138.6600 C   0  0  1  0  0  3  0  0  0  0  0  0
  189.6500  174.0790  140.1980 N   0  0  0  0  0  0  0  0  0  0  0  0
  189.8730  173.5390  138.8850 C   0  0  0  0  0  0  0  0  0  0  0  0
  191.8240  173.3650  140.9640 C   0  0  0  0  0  3  0  0  0  0  0  0
  189.1210  173.8570  137.9270 O   0  0  0  0  0  0  0  0  0  0  0  0
  192.1810  172.8860  139.5810 C   0  0  2  0  0  3  0  0  0  0  0  0
  190.0620  168.8890  137.8690 C   0  0  0  0  0  2  0  0  0  0  0  0
  190.4740  170.3310  137.5900 C   0  0  0  0  0  2  0  0  0  0  0  0
  190.8130  169.1930  140.1630 N   0  0  0  0  0  2  0  0  0  0  0  0
  190.5040  171.1220  138.8980 C   0  0  1  0  0  3  0  0  0  0  0  0
  191.3920  170.4340  139.8380 N   0  0  0  0  0  2  0  0  0  0  0  0
  190.9170  168.3230  138.9940 C   0  0  0  0  0  2  0  0  0  0  0  0
  193.3770  173.6090  138.9300 C   0  0  1  0  0  3  0  0  0  0  0  0
  194.6060  173.1350  139.4530 O   0  0  0  0  0  0  0  0  0  0  0  0
  194.0840  171.3940  138.0230 O   0  0  0  0  0  1  0  0  0  0  0  0
  194.3100  172.7690  138.1320 C   0  0  1  0  0  0  0  0  0  0  0  0
  195.2020  172.7500  135.9200 O   0  0  0  0  0  1  0  0  0  0  0  0
  195.2290  173.4450  137.1280 C   0  0  2  0  0  3  0  0  0  0  0  0
  196.6530  173.5030  137.6610 C   0  0  0  0  0  2  0  0  0  0  0  0
  197.0910  174.9200  137.8100 C   0  0  0  0  0  0  0  0  0  0  0  0
  196.8980  175.5280  138.8960 O   0  0  0  0  0  0  0  0  0  0  0  0
  197.1170  176.2070  135.8170 O   0  0  0  0  0  0  0  0  0  0  0  0
  197.7700  175.5840  136.6960 C   0  0  0  0  0  3  0  0  0  0  0  0
  1  2  2  0  0  0  0
  2 17  1  0  0  0  0
  3  8  1  0  0  0  0
  3  5  1  0  0  0  0
  4  5  1  0  0  0  0
  4  2  1  0  0  0  0
  6  4  2  0  0  0  0
  7  3  2  0  0  0  0
  9 10  1  0  0  0  0
  9  8  2  0  0  0  0
 11 15  1  0  0  0  0
 12 15  2  0  0  0  0
 13 12  1  0  0  0  0
 14 11  2  0  0  0  0
 15 10  1  0  0  0  0
 16 14  1  0  0  0  0
 16 13  2  0  0  0  0
 17 18  2  0  0  0  0
 19 18  1  6  0  0  0
 19 20  1  0  0  0  0
 19 26  1  0  0  0  0
 21 23  1  0  0  0  0
 21 20  1  0  0  0  0
 23 22  1  1  0  0  0
 25 23  1  0  0  0  0
 25 24  1  0  0  0  0
 26 28  1  0  0  0  0
 27 28  1  0  0  0  0
 28 29  1  0  0  0  0
 29 32  1  0  0  0  0
 30 32  1  0  0  0  0
 31 30  1  0  0  0  0
 31 27  1  0  0  0  0
 33  1  1  0  0  0  0
 35 37  1  1  0  0  0
 35 44  1  0  0  0  0
 35 40  1  0  0  0  0
 36 33  1  0  0  0  0
 36 34  1  0  0  0  0
 37 36  1  0  0  0  0
 38 34  2  0  0  0  0
 39 37  2  0  0  0  0
 40 38  1  1  0  0  0
 41 46  1  0  0  0  0
 42 41  1  0  0  0  0
 44 42  1  6  0  0  0
 44 45  1  0  0  0  0
 45 43  1  0  0  0  0
 46 43  1  0  0  0  0
 47 48  1  1  0  0  0
 47 40  1  0  0  0  0
 50 49  1  6  0  0  0
 50 47  1  0  0  0  0
 50 48  1  0  0  0  0
 52 51  1  6  0  0  0
 52 53  1  0  0  0  0
 52 50  1  0  0  0  0
 53 54  1  0  0  0  0
 54 55  2  0  0  0  0
 56 57  2  0  0  0  0
 57 54  1  0  0  0  0
M  END
>  <MODEL>
1

>  <REMARK>
 VINA RESULT:      -7.4      0.000      0.000
  Name = 
  20 active torsions:
  status: ('A' for Active; 'I' for Inactive)
    1  A    between atoms: C_6  and  C_46
    2  A    between atoms: C_7  and  O_10
    3  A    between atoms: C_9  and  C_23
    4  A    between atoms: C_9  and  C_47
    5  A    between atoms: O_10  and  C_38
    6  A    between atoms: C_16  and  C_21
    7  A    between atoms: C_17  and  C_38
    8  A    between atoms: C_17  and  N_49
    9  A    between atoms: C_19  and  C_50
   10  A    between atoms: N_22  and  C_29
   11  A    between atoms: C_23  and  C_42
   12  A    between atoms: C_24  and  C_31
   13  A    between atoms: C_25  and  C_44
   14  A    between atoms: C_29  and  C_40
   15  A    between atoms: C_31  and  C_54
   16  A    between atoms: C_34  and  C_46
   17  A    between atoms: C_38  and  C_52
   18  A    between atoms: C_42  and  C_56
   19  A    between atoms: N_49  and  C_53
   20  A    between atoms: C_51  and  C_53
                            x       y       z     vdW  Elec       q    Type
                         _______ _______ _______ _____ _____    ______ ____

>  <TORSDO>
F 20

$$$$
=
 OpenBabel11072409083D

 57 61  0  0  1  0  0  0  0  0999 V2000
  193.1500  174.8300  146.1030 C   0  0  0  0  0  3  0  0  0  0  0  0
  194.2440  174.5150  145.4030 C   0  0  0  0  0  0  0  0  0  0  0  0
  196.2990  176.2560  142.6210 C   0  0  0  0  0  0  0  0  0  0  0  0
  195.0900  175.5410  144.7430 C   0  0  0  0  0  0  0  0  0  0  0  0
  195.4240  175.3970  143.3580 N   0  0  0  0  0  2  0  0  0  0  0  0
  195.5130  176.5310  145.4000 O   0  0  0  0  0  0  0  0  0  0  0  0
  196.8920  177.2160  143.1870 O   0  0  0  0  0  0  0  0  0  0  0  0
  196.5110  175.9910  141.1960 C   0  0  0  0  0  3  0  0  0  0  0  0
  195.6180  175.3400  140.4620 C   0  0  0  0  0  3  0  0  0  0  0  0
  195.8560  175.0780  139.0110 C   0  0  0  0  0  2  0  0  0  0  0  0
  194.8570  173.6560  137.2000 C   0  0  0  0  0  3  0  0  0  0  0  0
  193.4320  174.4490  138.9920 C   0  0  0  0  0  3  0  0  0  0  0  0
  192.3410  173.7940  138.4130 C   0  0  0  0  0  3  0  0  0  0  0  0
  193.7660  173.0020  136.6220 C   0  0  0  0  0  3  0  0  0  0  0  0
  194.6910  174.3840  138.3860 C   0  0  0  0  0  0  0  0  0  0  0  0
  192.5080  173.0720  137.2270 C   0  0  0  0  0  3  0  0  0  0  0  0
  194.5660  173.0830  145.3080 C   0  0  0  0  0  3  0  0  0  0  0  0
  193.8740  172.2320  144.5600 C   0  0  0  0  0  3  0  0  0  0  0  0
  194.2360  170.7840  144.5190 C   0  0  2  0  0  3  0  0  0  0  0  0
  193.2180  170.0100  143.6930 C   0  0  0  0  0  2  0  0  0  0  0  0
  193.7520  169.6980  142.3750 N   0  0  0  0  0  2  0  0  0  0  0  0
  192.1620  169.8830  140.6950 O   0  0  0  0  0  1  0  0  0  0  0  0
  193.1060  170.5940  141.4330 C   0  0  2  0  0  3  0  0  0  0  0  0
  194.2510  170.3670  139.2330 C   0  0  0  0  0  1  0  0  0  0  0  0
  194.1490  171.1870  140.5040 C   0  0  0  0  0  2  0  0  0  0  0  0
  194.3000  170.2590  145.8160 O   0  0  0  0  0  0  0  0  0  0  0  0
  194.9780  168.1680  146.7970 C   0  0  0  0  0  2  0  0  0  0  0  0
  195.2910  169.2720  145.7760 C   0  0  0  0  0  3  0  0  0  0  0  0
  196.6640  169.9280  145.9820 C   0  0  0  0  0  2  0  0  0  0  0  0
  197.2880  168.2800  147.8030 C   0  0  0  0  0  2  0  0  0  0  0  0
  195.7790  168.3380  148.0840 C   0  0  0  0  0  2  0  0  0  0  0  0
  197.6920  168.9060  146.4600 C   0  0  0  0  0  2  0  0  0  0  0  0
  192.5890  176.2120  146.2450 C   0  0  0  0  0  2  0  0  0  0  0  0
  191.4410  177.4160  144.3880 C   0  0  0  0  0  3  0  0  0  0  0  0
  189.3390  175.3840  144.3180 C   0  0  1  0  0  3  0  0  0  0  0  0
  191.4340  176.3710  145.3700 N   0  0  0  0  0  0  0  0  0  0  0  0
  190.3320  175.4520  145.4440 C   0  0  0  0  0  0  0  0  0  0  0  0
  190.3960  177.6200  143.5870 C   0  0  0  0  0  3  0  0  0  0  0  0
  190.2080  174.6800  146.4310 O   0  0  0  0  0  0  0  0  0  0  0  0
  189.1510  176.7780  143.6880 C   0  0  2  0  0  3  0  0  0  0  0  0
  189.7260  171.9870  142.5130 C   0  0  0  0  0  2  0  0  0  0  0  0
  189.3300  172.9580  143.6200 C   0  0  0  0  0  2  0  0  0  0  0  0
  189.8150  173.8770  140.9840 N   0  0  0  0  0  2  0  0  0  0  0  0
  189.7910  174.3700  143.2580 C   0  0  1  0  0  3  0  0  0  0  0  0
  189.2340  174.7210  141.9490 N   0  0  0  0  0  2  0  0  0  0  0  0
  189.2710  172.5340  141.1670 C   0  0  0  0  0  2  0  0  0  0  0  0
  187.8750  177.5470  144.0820 C   0  0  1  0  0  3  0  0  0  0  0  0
  187.3660  178.2870  142.9850 O   0  0  0  0  0  0  0  0  0  0  0  0
  186.6540  176.1670  142.3970 O   0  0  0  0  0  1  0  0  0  0  0  0
  186.6220  177.1640  143.3750 C   0  0  1  0  0  0  0  0  0  0  0  0
  184.3900  177.9140  142.9920 O   0  0  0  0  0  1  0  0  0  0  0  0
  185.2870  177.5450  143.9930 C   0  0  2  0  0  3  0  0  0  0  0  0
  185.4610  178.6910  144.9800 C   0  0  0  0  0  2  0  0  0  0  0  0
  184.9900  178.2820  146.3340 C   0  0  0  0  0  0  0  0  0  0  0  0
  183.7590  178.1250  146.5520 O   0  0  0  0  0  0  0  0  0  0  0  0
  186.5740  178.9900  147.9520 O   0  0  0  0  0  0  0  0  0  0  0  0
  185.9700  178.0360  147.3930 C   0  0  0  0  0  3  0  0  0  0  0  0
  1 33  1  0  0  0  0
  2  1  2  0  0  0  0
  3  7  2  0  0  0  0
  3  5  1  0  0  0  0
  4  6  2  0  0  0  0
  4  2  1  0  0  0  0
  5  4  1  0  0  0  0
  8  3  1  0  0  0  0
  9  8  2  0  0  0  0
 10  9  1  0  0  0  0
 11 15  1  0  0  0  0
 13 12  1  0  0  0  0
 14 11  2  0  0  0  0
 14 16  1  0  0  0  0
 15 12  2  0  0  0  0
 15 10  1  0  0  0  0
 16 13  2  0  0  0  0
 17  2  1  0  0  0  0
 18 17  2  0  0  0  0
 19 20  1  6  0  0  0
 19 18  1  0  0  0  0
 19 26  1  0  0  0  0
 21 20  1  0  0  0  0
 23 22  1  6  0  0  0
 23 21  1  0  0  0  0
 24 25  1  0  0  0  0
 25 23  1  0  0  0  0
 27 31  1  0  0  0  0
 28 26  1  0  0  0  0
 28 29  1  0  0  0  0
 28 27  1  0  0  0  0
 29 32  1  0  0  0  0
 30 31  1  0  0  0  0
 32 30  1  0  0  0  0
 34 36  1  0  0  0  0
 35 37  1  1  0  0  0
 36 37  1  0  0  0  0
 36 33  1  0  0  0  0
 37 39  2  0  0  0  0
 38 34  2  0  0  0  0
 40 38  1  1  0  0  0
 40 47  1  0  0  0  0
 40 35  1  0  0  0  0
 41 42  1  0  0  0  0
 43 46  1  0  0  0  0
 43 45  1  0  0  0  0
 44 42  1  1  0  0  0
 44 35  1  0  0  0  0
 45 44  1  0  0  0  0
 46 41  1  0  0  0  0
 47 48  1  6  0  0  0
 48 50  1  0  0  0  0
 50 49  1  6  0  0  0
 50 52  1  0  0  0  0
 50 47  1  0  0  0  0
 52 51  1  6  0  0  0
 52 53  1  0  0  0  0
 53 54  1  0  0  0  0
 54 55  2  0  0  0  0
 54 57  1  0  0  0  0
 57 56  2  0  0  0  0
M  END
>  <MODEL>
2

>  <REMARK>
 VINA RESULT:      -7.3      3.842     11.193
  Name = 
  20 active torsions:
  status: ('A' for Active; 'I' for Inactive)
    1  A    between atoms: C_6  and  C_46
    2  A    between atoms: C_7  and  O_10
    3  A    between atoms: C_9  and  C_23
    4  A    between atoms: C_9  and  C_47
    5  A    between atoms: O_10  and  C_38
    6  A    between atoms: C_16  and  C_21
    7  A    between atoms: C_17  and  C_38
    8  A    between atoms: C_17  and  N_49
    9  A    between atoms: C_19  and  C_50
   10  A    between atoms: N_22  and  C_29
   11  A    between atoms: C_23  and  C_42
   12  A    between atoms: C_24  and  C_31
   13  A    between atoms: C_25  and  C_44
   14  A    between atoms: C_29  and  C_40
   15  A    between atoms: C_31  and  C_54
   16  A    between atoms: C_34  and  C_46
   17  A    between atoms: C_38  and  C_52
   18  A    between atoms: C_42  and  C_56
   19  A    between atoms: N_49  and  C_53
   20  A    between atoms: C_51  and  C_53
                            x       y       z     vdW  Elec       q    Type
                         _______ _______ _______ _____ _____    ______ ____

>  <TORSDO>
F 20

$$$$
=
 OpenBabel11072409083D

 57 61  0  0  1  0  0  0  0  0999 V2000
  188.3270  174.7600  142.5670 C   0  0  0  0  0  3  0  0  0  0  0  0
  187.7130  175.9410  142.6990 C   0  0  0  0  0  0  0  0  0  0  0  0
  184.9660  177.9170  140.8170 C   0  0  0  0  0  0  0  0  0  0  0  0
  187.0110  176.6030  141.5720 C   0  0  0  0  0  0  0  0  0  0  0  0
  185.7900  177.3120  141.8170 N   0  0  0  0  0  2  0  0  0  0  0  0
  187.4860  176.5390  140.4040 O   0  0  0  0  0  0  0  0  0  0  0  0
  185.2580  177.8210  139.5930 O   0  0  0  0  0  0  0  0  0  0  0  0
  183.7630  178.6380  141.2380 C   0  0  0  0  0  3  0  0  0  0  0  0
  182.6280  178.0100  141.5180 C   0  0  0  0  0  3  0  0  0  0  0  0
  181.4120  178.7650  141.9430 C   0  0  0  0  0  2  0  0  0  0  0  0
  179.1750  177.6540  142.1830 C   0  0  0  0  0  3  0  0  0  0  0  0
  180.0000  178.1660  139.9640 C   0  0  0  0  0  3  0  0  0  0  0  0
  178.8370  177.6250  139.4070 C   0  0  0  0  0  3  0  0  0  0  0  0
  178.0120  177.1130  141.6260 C   0  0  0  0  0  3  0  0  0  0  0  0
  180.1730  178.1790  141.3510 C   0  0  0  0  0  0  0  0  0  0  0  0
  177.8450  177.0970  140.2390 C   0  0  0  0  0  3  0  0  0  0  0  0
  187.7810  176.5650  144.0290 C   0  0  0  0  0  3  0  0  0  0  0  0
  188.1210  175.8990  145.1270 C   0  0  0  0  0  3  0  0  0  0  0  0
  188.1520  176.5830  146.4540 C   0  0  2  0  0  3  0  0  0  0  0  0
  189.5480  176.4980  147.0560 C   0  0  0  0  0  2  0  0  0  0  0  0
  190.1850  175.2360  146.7080 N   0  0  0  0  0  2  0  0  0  0  0  0
  191.9550  176.7150  146.9650 O   0  0  0  0  0  1  0  0  0  0  0  0
  191.5940  175.3710  147.0300 C   0  0  2  0  0  3  0  0  0  0  0  0
  191.6640  174.4060  144.7350 C   0  0  0  0  0  1  0  0  0  0  0  0
  192.4170  174.5660  146.0410 C   0  0  0  0  0  2  0  0  0  0  0  0
  187.2190  176.0050  147.3240 O   0  0  0  0  0  0  0  0  0  0  0  0
  185.0060  176.7290  146.7120 C   0  0  0  0  0  2  0  0  0  0  0  0
  186.2590  176.9960  147.5610 C   0  0  0  0  0  3  0  0  0  0  0  0
  186.8860  178.3750  147.3130 C   0  0  0  0  0  2  0  0  0  0  0  0
  184.9790  179.0820  145.8020 C   0  0  0  0  0  2  0  0  0  0  0  0
  184.9800  177.5870  145.4500 C   0  0  0  0  0  2  0  0  0  0  0  0
  185.8120  179.4250  147.0470 C   0  0  0  0  0  2  0  0  0  0  0  0
  188.4620  174.0010  141.2830 C   0  0  0  0  0  2  0  0  0  0  0  0
  189.5790  172.1820  142.5700 C   0  0  0  0  0  3  0  0  0  0  0  0
  191.3140  171.5830  140.2930 C   0  0  1  0  0  3  0  0  0  0  0  0
  189.5260  173.0130  141.4020 N   0  0  0  0  0  0  0  0  0  0  0  0
  190.4710  172.8260  140.3360 C   0  0  0  0  0  0  0  0  0  0  0  0
  190.5520  171.2860  142.7390 C   0  0  0  0  0  3  0  0  0  0  0  0
  190.5770  173.6820  139.4190 O   0  0  0  0  0  0  0  0  0  0  0  0
  191.6520  171.1180  141.7240 C   0  0  2  0  0  3  0  0  0  0  0  0
  190.1060  169.4940  137.2720 C   0  0  0  0  0  2  0  0  0  0  0  0
  190.7630  170.6550  138.0110 C   0  0  0  0  0  2  0  0  0  0  0  0
  190.3400  168.1660  139.2970 N   0  0  0  0  0  2  0  0  0  0  0  0
  190.5970  170.4680  139.5190 C   0  0  1  0  0  3  0  0  0  0  0  0
  191.1420  169.1600  139.8900 N   0  0  0  0  0  2  0  0  0  0  0  0
  190.5920  168.1760  137.8590 C   0  0  0  0  0  2  0  0  0  0  0  0
  193.0680  171.4400  142.2380 C   0  0  1  0  0  3  0  0  0  0  0  0
  193.2110  171.0760  143.6010 O   0  0  0  0  0  0  0  0  0  0  0  0
  193.3710  168.9910  142.6140 O   0  0  0  0  0  1  0  0  0  0  0  0
  193.8990  170.2830  142.6700 C   0  0  1  0  0  0  0  0  0  0  0  0
  195.9900  170.2260  141.5230 O   0  0  0  0  0  1  0  0  0  0  0  0
  195.4060  170.4590  142.7670 C   0  0  2  0  0  3  0  0  0  0  0  0
  195.9900  169.5080  143.8020 C   0  0  0  0  0  2  0  0  0  0  0  0
  196.2400  170.2280  145.0820 C   0  0  0  0  0  0  0  0  0  0  0  0
  197.2530  170.9680  145.2010 O   0  0  0  0  0  0  0  0  0  0  0  0
  194.6610  169.0150  146.3710 O   0  0  0  0  0  0  0  0  0  0  0  0
  195.2850  170.0930  146.1830 C   0  0  0  0  0  3  0  0  0  0  0  0
  1  2  2  0  0  0  0
  2 17  1  0  0  0  0
  3  8  1  0  0  0  0
  3  5  1  0  0  0  0
  4  5  1  0  0  0  0
  4  2  1  0  0  0  0
  6  4  2  0  0  0  0
  7  3  2  0  0  0  0
  8  9  2  0  0  0  0
  9 10  1  0  0  0  0
 12 15  1  0  0  0  0
 13 12  2  0  0  0  0
 13 16  1  0  0  0  0
 14 11  1  0  0  0  0
 15 10  1  0  0  0  0
 15 11  2  0  0  0  0
 16 14  2  0  0  0  0
 17 18  2  0  0  0  0
 19 18  1  6  0  0  0
 19 20  1  0  0  0  0
 19 26  1  0  0  0  0
 21 23  1  0  0  0  0
 21 20  1  0  0  0  0
 23 22  1  6  0  0  0
 24 25  1  0  0  0  0
 25 23  1  0  0  0  0
 26 28  1  0  0  0  0
 27 28  1  0  0  0  0
 29 28  1  0  0  0  0
 30 32  1  0  0  0  0
 31 30  1  0  0  0  0
 31 27  1  0  0  0  0
 32 29  1  0  0  0  0
 33 36  1  0  0  0  0
 33  1  1  0  0  0  0
 34 38  2  0  0  0  0
 35 37  1  1  0  0  0
 35 40  1  0  0  0  0
 36 34  1  0  0  0  0
 37 36  1  0  0  0  0
 39 37  2  0  0  0  0
 40 47  1  0  0  0  0
 40 38  1  1  0  0  0
 41 46  1  0  0  0  0
 41 42  1  0  0  0  0
 43 45  1  0  0  0  0
 44 42  1  6  0  0  0
 44 45  1  0  0  0  0
 44 35  1  0  0  0  0
 46 43  1  0  0  0  0
 47 50  1  0  0  0  0
 47 48  1  1  0  0  0
 50 49  1  6  0  0  0
 50 52  1  0  0  0  0
 50 48  1  0  0  0  0
 52 51  1  6  0  0  0
 52 53  1  0  0  0  0
 53 54  1  0  0  0  0
 54 55  2  0  0  0  0
 54 57  1  0  0  0  0
 57 56  2  0  0  0  0
M  END
>  <MODEL>
3

>  <REMARK>
 VINA RESULT:      -7.1      2.833      3.731
  Name = 
  20 active torsions:
  status: ('A' for Active; 'I' for Inactive)
    1  A    between atoms: C_6  and  C_46
    2  A    between atoms: C_7  and  O_10
    3  A    between atoms: C_9  and  C_23
    4  A    between atoms: C_9  and  C_47
    5  A    between atoms: O_10  and  C_38
    6  A    between atoms: C_16  and  C_21
    7  A    between atoms: C_17  and  C_38
    8  A    between atoms: C_17  and  N_49
    9  A    between atoms: C_19  and  C_50
   10  A    between atoms: N_22  and  C_29
   11  A    between atoms: C_23  and  C_42
   12  A    between atoms: C_24  and  C_31
   13  A    between atoms: C_25  and  C_44
   14  A    between atoms: C_29  and  C_40
   15  A    between atoms: C_31  and  C_54
   16  A    between atoms: C_34  and  C_46
   17  A    between atoms: C_38  and  C_52
   18  A    between atoms: C_42  and  C_56
   19  A    between atoms: N_49  and  C_53
   20  A    between atoms: C_51  and  C_53
                            x       y       z     vdW  Elec       q    Type
                         _______ _______ _______ _____ _____    ______ ____

>  <TORSDO>
F 20

$$$$
=
 OpenBabel11072409083D

 57 61  0  0  1  0  0  0  0  0999 V2000
  191.6250  170.2580  141.4210 C   0  0  0  0  0  3  0  0  0  0  0  0
  192.9190  170.1900  141.7490 C   0  0  0  0  0  0  0  0  0  0  0  0
  193.9050  171.7410  145.1580 C   0  0  0  0  0  0  0  0  0  0  0  0
  193.3890  170.2570  143.1550 C   0  0  0  0  0  0  0  0  0  0  0  0
  193.3970  171.5160  143.8390 N   0  0  0  0  0  2  0  0  0  0  0  0
  193.7810  169.2110  143.7420 O   0  0  0  0  0  0  0  0  0  0  0  0
  194.4420  170.8060  145.8130 O   0  0  0  0  0  0  0  0  0  0  0  0
  193.8080  173.0860  145.7290 C   0  0  0  0  0  3  0  0  0  0  0  0
  192.7340  173.8460  145.5590 C   0  0  0  0  0  3  0  0  0  0  0  0
  192.6570  175.2160  146.1480 C   0  0  0  0  0  2  0  0  0  0  0  0
  190.3210  174.9540  147.0260 C   0  0  0  0  0  3  0  0  0  0  0  0
  190.8400  176.8540  145.6150 C   0  0  0  0  0  3  0  0  0  0  0  0
  189.5180  177.2970  145.7260 C   0  0  0  0  0  3  0  0  0  0  0  0
  189.0000  175.3970  147.1370 C   0  0  0  0  0  3  0  0  0  0  0  0
  191.2430  175.6810  146.2620 C   0  0  0  0  0  0  0  0  0  0  0  0
  188.5980  176.5670  146.4860 C   0  0  0  0  0  3  0  0  0  0  0  0
  193.8670  170.0580  140.6320 C   0  0  0  0  0  3  0  0  0  0  0  0
  193.8870  170.8870  139.5950 C   0  0  0  0  0  3  0  0  0  0  0  0
  194.8600  170.6900  138.4800 C   0  0  2  0  0  3  0  0  0  0  0  0
  195.7680  171.9060  138.3540 C   0  0  0  0  0  2  0  0  0  0  0  0
  196.2990  172.2920  139.6540 N   0  0  0  0  0  2  0  0  0  0  0  0
  197.9260  173.6400  140.6120 O   0  0  0  0  0  1  0  0  0  0  0  0
  197.2640  173.3500  139.4200 C   0  0  2  0  0  3  0  0  0  0  0  0
  197.3890  175.2980  137.8740 C   0  0  0  0  0  1  0  0  0  0  0  0
  196.5460  174.5860  138.9140 C   0  0  0  0  0  2  0  0  0  0  0  0
  194.1850  170.4690  137.2740 O   0  0  0  0  0  0  0  0  0  0  0  0
  191.9660  169.5340  137.3140 C   0  0  0  0  0  2  0  0  0  0  0  0
  192.8440  170.7780  137.5290 C   0  0  0  0  0  3  0  0  0  0  0  0
  192.4290  171.9780  136.6670 C   0  0  0  0  0  2  0  0  0  0  0  0
  190.3690  170.7770  135.8080 C   0  0  0  0  0  2  0  0  0  0  0  0
  191.2820  169.5500  135.9510 C   0  0  0  0  0  2  0  0  0  0  0  0
  190.9140  172.0360  136.5020 C   0  0  0  0  0  2  0  0  0  0  0  0
  190.5040  170.4880  142.3890 C   0  0  0  0  0  2  0  0  0  0  0  0
  189.8440  172.5410  143.6390 C   0  0  0  0  0  3  0  0  0  0  0  0
  190.1160  174.1530  141.2140 C   0  0  1  0  0  3  0  0  0  0  0  0
  190.1350  171.8980  142.3910 N   0  0  0  0  0  0  0  0  0  0  0  0
  190.1250  172.6510  141.1670 C   0  0  0  0  0  0  0  0  0  0  0  0
  189.4710  173.8200  143.6890 C   0  0  0  0  0  3  0  0  0  0  0  0
  190.1560  172.0640  140.0540 O   0  0  0  0  0  0  0  0  0  0  0  0
  189.3160  174.6440  142.4380 C   0  0  2  0  0  3  0  0  0  0  0  0
  193.1830  176.1360  142.4820 C   0  0  0  0  0  2  0  0  0  0  0  0
  191.7340  175.6660  142.4260 C   0  0  0  0  0  2  0  0  0  0  0  0
  193.8060  174.1400  141.2390 N   0  0  0  0  0  2  0  0  0  0  0  0
  191.5480  174.7040  141.2520 C   0  0  1  0  0  3  0  0  0  0  0  0
  192.5110  173.6080  141.3890 N   0  0  0  0  0  2  0  0  0  0  0  0
  194.1130  174.9320  142.4270 C   0  0  0  0  0  2  0  0  0  0  0  0
  187.8880  175.1570  142.1680 C   0  0  1  0  0  3  0  0  0  0  0  0
  187.4160  175.9440  143.2480 O   0  0  0  0  0  0  0  0  0  0  0  0
  188.8240  177.4700  142.2300 O   0  0  0  0  0  1  0  0  0  0  0  0
  187.7190  176.6310  142.0640 C   0  0  1  0  0  0  0  0  0  0  0  0
  186.7030  177.3080  140.0140 O   0  0  0  0  0  1  0  0  0  0  0  0
  186.4750  177.1800  141.3830 C   0  0  2  0  0  3  0  0  0  0  0  0
  186.0930  178.5300  141.9740 C   0  0  0  0  0  2  0  0  0  0  0  0
  184.7940  178.4270  142.6960 C   0  0  0  0  0  0  0  0  0  0  0  0
  183.8030  177.8870  142.1360 O   0  0  0  0  0  0  0  0  0  0  0  0
  185.4910  179.8010  144.5010 O   0  0  0  0  0  0  0  0  0  0  0  0
  184.6890  178.9310  144.0660 C   0  0  0  0  0  3  0  0  0  0  0  0
  1  2  2  0  0  0  0
  1 33  1  0  0  0  0
  2  4  1  0  0  0  0
  3  8  1  0  0  0  0
  3  7  2  0  0  0  0
  4  6  2  0  0  0  0
  4  5  1  0  0  0  0
  5  3  1  0  0  0  0
  9  8  2  0  0  0  0
  9 10  1  0  0  0  0
 10 15  1  0  0  0  0
 11 14  1  0  0  0  0
 12 13  2  0  0  0  0
 12 15  1  0  0  0  0
 13 16  1  0  0  0  0
 15 11  2  0  0  0  0
 16 14  2  0  0  0  0
 17  2  1  0  0  0  0
 18 17  2  0  0  0  0
 19 20  1  6  0  0  0
 19 18  1  0  0  0  0
 20 21  1  0  0  0  0
 23 21  1  0  0  0  0
 23 22  1  1  0  0  0
 24 25  1  0  0  0  0
 25 23  1  0  0  0  0
 26 28  1  0  0  0  0
 26 19  1  0  0  0  0
 27 28  1  0  0  0  0
 29 28  1  0  0  0  0
 30 31  1  0  0  0  0
 30 32  1  0  0  0  0
 31 27  1  0  0  0  0
 32 29  1  0  0  0  0
 33 36  1  0  0  0  0
 34 38  2  0  0  0  0
 35 37  1  1  0  0  0
 35 44  1  0  0  0  0
 35 40  1  0  0  0  0
 36 34  1  0  0  0  0
 37 36  1  0  0  0  0
 39 37  2  0  0  0  0
 40 38  1  1  0  0  0
 42 41  1  0  0  0  0
 43 45  1  0  0  0  0
 43 46  1  0  0  0  0
 44 45  1  0  0  0  0
 44 42  1  1  0  0  0
 46 41  1  0  0  0  0
 47 40  1  0  0  0  0
 47 48  1  1  0  0  0
 50 47  1  0  0  0  0
 50 49  1  6  0  0  0
 50 48  1  0  0  0  0
 52 51  1  6  0  0  0
 52 53  1  0  0  0  0
 52 50  1  0  0  0  0
 53 54  1  0  0  0  0
 54 57  1  0  0  0  0
 55 54  2  0  0  0  0
 57 56  2  0  0  0  0
M  END
>  <MODEL>
4

>  <REMARK>
 VINA RESULT:      -7.0      3.409     10.491
  Name = 
  20 active torsions:
  status: ('A' for Active; 'I' for Inactive)
    1  A    between atoms: C_6  and  C_46
    2  A    between atoms: C_7  and  O_10
    3  A    between atoms: C_9  and  C_23
    4  A    between atoms: C_9  and  C_47
    5  A    between atoms: O_10  and  C_38
    6  A    between atoms: C_16  and  C_21
    7  A    between atoms: C_17  and  C_38
    8  A    between atoms: C_17  and  N_49
    9  A    between atoms: C_19  and  C_50
   10  A    between atoms: N_22  and  C_29
   11  A    between atoms: C_23  and  C_42
   12  A    between atoms: C_24  and  C_31
   13  A    between atoms: C_25  and  C_44
   14  A    between atoms: C_29  and  C_40
   15  A    between atoms: C_31  and  C_54
   16  A    between atoms: C_34  and  C_46
   17  A    between atoms: C_38  and  C_52
   18  A    between atoms: C_42  and  C_56
   19  A    between atoms: N_49  and  C_53
   20  A    between atoms: C_51  and  C_53
                            x       y       z     vdW  Elec       q    Type
                         _______ _______ _______ _____ _____    ______ ____

>  <TORSDO>
F 20

$$$$
=
 OpenBabel11072409083D

 57 61  0  0  1  0  0  0  0  0999 V2000
  193.1010  172.1370  142.6880 C   0  0  0  0  0  3  0  0  0  0  0  0
  194.3960  172.4260  142.5260 C   0  0  0  0  0  0  0  0  0  0  0  0
  195.1090  174.8000  145.5020 C   0  0  0  0  0  0  0  0  0  0  0  0
  195.1750  173.1820  143.5380 C   0  0  0  0  0  0  0  0  0  0  0  0
  194.4880  173.9560  144.5280 N   0  0  0  0  0  2  0  0  0  0  0  0
  196.4370  173.1440  143.5230 O   0  0  0  0  0  0  0  0  0  0  0  0
  196.3620  174.9530  145.5200 O   0  0  0  0  0  0  0  0  0  0  0  0
  194.2620  175.5010  146.4690 C   0  0  0  0  0  3  0  0  0  0  0  0
  193.1840  176.1790  146.0990 C   0  0  0  0  0  3  0  0  0  0  0  0
  192.3370  176.8890  147.1020 C   0  0  0  0  0  2  0  0  0  0  0  0
  190.5950  175.0870  146.9700 C   0  0  0  0  0  3  0  0  0  0  0  0
  189.8880  177.4030  147.0020 C   0  0  0  0  0  3  0  0  0  0  0  0
  188.5520  176.9960  146.9320 C   0  0  0  0  0  3  0  0  0  0  0  0
  189.2600  174.6800  146.9000 C   0  0  0  0  0  3  0  0  0  0  0  0
  190.9120  176.4500  147.0180 C   0  0  0  0  0  0  0  0  0  0  0  0
  188.2390  175.6350  146.8790 C   0  0  0  0  0  3  0  0  0  0  0  0
  195.0140  171.9650  141.2740 C   0  0  0  0  0  3  0  0  0  0  0  0
  194.4560  172.1380  140.0820 C   0  0  0  0  0  3  0  0  0  0  0  0
  195.1230  171.6280  138.8470 C   0  0  2  0  0  3  0  0  0  0  0  0
  194.8300  172.5520  137.6720 C   0  0  0  0  0  2  0  0  0  0  0  0
  196.0230  173.2920  137.2860 N   0  0  0  0  0  2  0  0  0  0  0  0
  196.0360  175.4780  136.5080 O   0  0  0  0  0  1  0  0  0  0  0  0
  195.7880  174.6830  137.6260 C   0  0  2  0  0  3  0  0  0  0  0  0
  195.9060  175.3360  140.0260 C   0  0  0  0  0  1  0  0  0  0  0  0
  196.7060  175.0880  138.7630 C   0  0  0  0  0  2  0  0  0  0  0  0
  194.6870  170.3300  138.5550 O   0  0  0  0  0  0  0  0  0  0  0  0
  192.7500  169.5390  139.7480 C   0  0  0  0  0  2  0  0  0  0  0  0
  193.2890  170.3850  138.5840 C   0  0  0  0  0  3  0  0  0  0  0  0
  192.7400  169.9650  137.2130 C   0  0  0  0  0  2  0  0  0  0  0  0
  191.1400  168.2970  138.2550 C   0  0  0  0  0  2  0  0  0  0  0  0
  192.2750  168.1660  139.2810 C   0  0  0  0  0  2  0  0  0  0  0  0
  191.2870  169.5090  137.3220 C   0  0  0  0  0  2  0  0  0  0  0  0
  192.2560  172.5930  143.8380 C   0  0  0  0  0  2  0  0  0  0  0  0
  191.5780  174.9190  143.2520 C   0  0  0  0  0  3  0  0  0  0  0  0
  189.0540  173.9450  142.1400 C   0  0  1  0  0  3  0  0  0  0  0  0
  191.2430  173.5290  143.3680 N   0  0  0  0  0  0  0  0  0  0  0  0
  189.9480  173.0590  142.9620 C   0  0  0  0  0  0  0  0  0  0  0  0
  190.6760  175.8180  142.8570 C   0  0  0  0  0  3  0  0  0  0  0  0
  189.5660  171.8980  143.2630 O   0  0  0  0  0  0  0  0  0  0  0  0
  189.2590  175.4220  142.5330 C   0  0  2  0  0  3  0  0  0  0  0  0
  189.5600  172.0920  138.7840 C   0  0  0  0  0  2  0  0  0  0  0  0
  189.3680  172.2580  140.2880 C   0  0  0  0  0  2  0  0  0  0  0  0
  188.6480  174.3280  138.4920 N   0  0  0  0  0  2  0  0  0  0  0  0
  189.3220  173.7450  140.6420 C   0  0  1  0  0  3  0  0  0  0  0  0
  188.2690  174.3810  139.8470 N   0  0  0  0  0  2  0  0  0  0  0  0
  188.5390  172.9430  138.0430 C   0  0  0  0  0  2  0  0  0  0  0  0
  188.1840  176.0490  143.4400 C   0  0  1  0  0  3  0  0  0  0  0  0
  188.2790  177.4640  143.4410 O   0  0  0  0  0  0  0  0  0  0  0  0
  187.2490  177.1370  141.3970 O   0  0  0  0  0  1  0  0  0  0  0  0
  187.1740  176.9160  142.7740 C   0  0  1  0  0  0  0  0  0  0  0  0
  184.8510  177.4180  142.5640 O   0  0  0  0  0  1  0  0  0  0  0  0
  185.8670  177.2040  143.4950 C   0  0  2  0  0  3  0  0  0  0  0  0
  186.0090  178.4230  144.3950 C   0  0  0  0  0  2  0  0  0  0  0  0
  184.8070  178.5660  145.2640 C   0  0  0  0  0  0  0  0  0  0  0  0
  183.7810  179.1540  144.8280 O   0  0  0  0  0  0  0  0  0  0  0  0
  184.6150  176.7630  146.7930 O   0  0  0  0  0  0  0  0  0  0  0  0
  184.8180  177.9930  146.6100 C   0  0  0  0  0  3  0  0  0  0  0  0
  1 33  1  0  0  0  0
  2  1  2  0  0  0  0
  2  4  1  0  0  0  0
  3  7  2  0  0  0  0
  3  8  1  0  0  0  0
  4  5  1  0  0  0  0
  5  3  1  0  0  0  0
  6  4  2  0  0  0  0
  9  8  2  0  0  0  0
  9 10  1  0  0  0  0
 11 15  1  0  0  0  0
 12 15  2  0  0  0  0
 13 12  1  0  0  0  0
 14 11  2  0  0  0  0
 15 10  1  0  0  0  0
 16 14  1  0  0  0  0
 16 13  2  0  0  0  0
 17  2  1  0  0  0  0
 18 17  2  0  0  0  0
 19 20  1  6  0  0  0
 19 18  1  0  0  0  0
 21 23  1  0  0  0  0
 21 20  1  0  0  0  0
 23 22  1  6  0  0  0
 23 25  1  0  0  0  0
 25 24  1  0  0  0  0
 26 28  1  0  0  0  0
 26 19  1  0  0  0  0
 28 27  1  0  0  0  0
 29 32  1  0  0  0  0
 29 28  1  0  0  0  0
 30 31  1  0  0  0  0
 31 27  1  0  0  0  0
 32 30  1  0  0  0  0
 34 36  1  0  0  0  0
 35 40  1  0  0  0  0
 35 37  1  1  0  0  0
 36 33  1  0  0  0  0
 37 39  2  0  0  0  0
 37 36  1  0  0  0  0
 38 34  2  0  0  0  0
 40 38  1  1  0  0  0
 40 47  1  0  0  0  0
 41 42  1  0  0  0  0
 43 45  1  0  0  0  0
 44 42  1  1  0  0  0
 44 35  1  0  0  0  0
 45 44  1  0  0  0  0
 46 43  1  0  0  0  0
 46 41  1  0  0  0  0
 47 48  1  1  0  0  0
 50 49  1  6  0  0  0
 50 47  1  0  0  0  0
 50 48  1  0  0  0  0
 50 52  1  0  0  0  0
 52 51  1  6  0  0  0
 52 53  1  0  0  0  0
 53 54  1  0  0  0  0
 54 57  1  0  0  0  0
 55 54  2  0  0  0  0
 57 56  2  0  0  0  0
M  END
>  <MODEL>
5

>  <REMARK>
 VINA RESULT:      -6.9      3.556     10.642
  Name = 
  20 active torsions:
  status: ('A' for Active; 'I' for Inactive)
    1  A    between atoms: C_6  and  C_46
    2  A    between atoms: C_7  and  O_10
    3  A    between atoms: C_9  and  C_23
    4  A    between atoms: C_9  and  C_47
    5  A    between atoms: O_10  and  C_38
    6  A    between atoms: C_16  and  C_21
    7  A    between atoms: C_17  and  C_38
    8  A    between atoms: C_17  and  N_49
    9  A    between atoms: C_19  and  C_50
   10  A    between atoms: N_22  and  C_29
   11  A    between atoms: C_23  and  C_42
   12  A    between atoms: C_24  and  C_31
   13  A    between atoms: C_25  and  C_44
   14  A    between atoms: C_29  and  C_40
   15  A    between atoms: C_31  and  C_54
   16  A    between atoms: C_34  and  C_46
   17  A    between atoms: C_38  and  C_52
   18  A    between atoms: C_42  and  C_56
   19  A    between atoms: N_49  and  C_53
   20  A    between atoms: C_51  and  C_53
                            x       y       z     vdW  Elec       q    Type
                         _______ _______ _______ _____ _____    ______ ____

>  <TORSDO>
F 20

$$$$
=
 OpenBabel11072409083D

 57 61  0  0  1  0  0  0  0  0999 V2000
  189.3090  172.7160  141.9190 C   0  0  0  0  0  3  0  0  0  0  0  0
  188.7310  173.5400  141.0410 C   0  0  0  0  0  0  0  0  0  0  0  0
  189.9380  173.6990  137.3640 C   0  0  0  0  0  0  0  0  0  0  0  0
  188.7510  173.2880  139.5790 C   0  0  0  0  0  0  0  0  0  0  0  0
  189.8360  173.7900  138.7890 N   0  0  0  0  0  2  0  0  0  0  0  0
  187.8160  172.6370  139.0350 O   0  0  0  0  0  0  0  0  0  0  0  0
  189.0110  173.1820  136.6810 O   0  0  0  0  0  0  0  0  0  0  0  0
  191.1330  174.2340  136.7090 C   0  0  0  0  0  3  0  0  0  0  0  0
  192.2800  174.3910  137.3570 C   0  0  0  0  0  3  0  0  0  0  0  0
  193.4850  174.9420  136.6690 C   0  0  0  0  0  2  0  0  0  0  0  0
  194.7820  174.9910  138.8170 C   0  0  0  0  0  3  0  0  0  0  0  0
  195.8370  174.0970  136.8280 C   0  0  0  0  0  3  0  0  0  0  0  0
  197.0000  173.8400  137.5610 C   0  0  0  0  0  3  0  0  0  0  0  0
  195.9440  174.7340  139.5500 C   0  0  0  0  0  3  0  0  0  0  0  0
  194.7280  174.6760  137.4530 C   0  0  0  0  0  0  0  0  0  0  0  0
  197.0530  174.1590  138.9220 C   0  0  0  0  0  3  0  0  0  0  0  0
  188.0760  174.7330  141.6010 C   0  0  0  0  0  3  0  0  0  0  0  0
  188.6600  175.5340  142.4840 C   0  0  0  0  0  3  0  0  0  0  0  0
  187.9370  176.7190  143.0320 C   0  0  2  0  0  3  0  0  0  0  0  0
  188.1530  177.9290  142.1330 C   0  0  0  0  0  2  0  0  0  0  0  0
  186.9040  178.6510  141.9310 N   0  0  0  0  0  2  0  0  0  0  0  0
  186.6950  177.5410  139.9040 O   0  0  0  0  0  1  0  0  0  0  0  0
  186.0540  177.8060  141.1130 C   0  0  2  0  0  3  0  0  0  0  0  0
  183.7790  178.2840  142.0070 C   0  0  0  0  0  1  0  0  0  0  0  0
  184.7370  178.5140  140.8550 C   0  0  0  0  0  2  0  0  0  0  0  0
  188.3780  177.0040  144.3310 O   0  0  0  0  0  0  0  0  0  0  0  0
  186.0030  176.7880  144.6590 C   0  0  0  0  0  2  0  0  0  0  0  0
  187.4100  176.4640  145.1850 C   0  0  0  0  0  3  0  0  0  0  0  0
  187.6620  176.9670  146.6140 C   0  0  0  0  0  2  0  0  0  0  0  0
  185.2510  177.7000  146.8880 C   0  0  0  0  0  2  0  0  0  0  0  0
  185.3840  177.9800  145.3840 C   0  0  0  0  0  2  0  0  0  0  0  0
  186.3990  176.8560  147.4630 C   0  0  0  0  0  2  0  0  0  0  0  0
  190.1090  171.5010  141.5600 C   0  0  0  0  0  2  0  0  0  0  0  0
  191.7970  170.8200  143.2620 C   0  0  0  0  0  3  0  0  0  0  0  0
  193.8900  172.2700  141.8250 C   0  0  1  0  0  3  0  0  0  0  0  0
  191.4510  171.6090  142.1160 N   0  0  0  0  0  0  0  0  0  0  0  0
  192.4370  172.4450  141.4870 C   0  0  0  0  0  0  0  0  0  0  0  0
  193.0020  170.9080  143.8270 C   0  0  0  0  0  3  0  0  0  0  0  0
  192.0950  173.3020  140.6310 O   0  0  0  0  0  0  0  0  0  0  0  0
  194.0490  171.8540  143.3010 C   0  0  2  0  0  3  0  0  0  0  0  0
  194.8690  170.4780  138.5410 C   0  0  0  0  0  2  0  0  0  0  0  0
  194.1490  171.4760  139.4420 C   0  0  0  0  0  2  0  0  0  0  0  0
  196.5440  170.2170  140.2870 N   0  0  0  0  0  2  0  0  0  0  0  0
  194.5410  171.2320  140.9000 C   0  0  1  0  0  3  0  0  0  0  0  0
  196.0000  171.2970  141.0080 N   0  0  0  0  0  2  0  0  0  0  0  0
  196.3570  170.4820  138.8630 C   0  0  0  0  0  2  0  0  0  0  0  0
  194.4830  172.9570  144.2860 C   0  0  1  0  0  3  0  0  0  0  0  0
  195.0610  172.3990  145.4540 O   0  0  0  0  0  0  0  0  0  0  0  0
  196.8280  172.1540  143.9820 O   0  0  0  0  0  1  0  0  0  0  0  0
  195.9390  173.0530  144.5780 C   0  0  1  0  0  0  0  0  0  0  0  0
  196.7630  174.1650  146.5210 O   0  0  0  0  0  1  0  0  0  0  0  0
  196.4850  174.3440  145.1670 C   0  0  2  0  0  3  0  0  0  0  0  0
  195.4850  175.4780  144.9880 C   0  0  0  0  0  2  0  0  0  0  0  0
  195.7310  176.1830  143.6980 C   0  0  0  0  0  0  0  0  0  0  0  0
  196.8150  176.7970  143.5130 O   0  0  0  0  0  0  0  0  0  0  0  0
  193.4930  176.0310  142.9250 O   0  0  0  0  0  0  0  0  0  0  0  0
  194.7180  176.1290  142.6440 C   0  0  0  0  0  3  0  0  0  0  0  0
  2 17  1  0  0  0  0
  2  1  2  0  0  0  0
  3  5  1  0  0  0  0
  4  2  1  0  0  0  0
  5  4  1  0  0  0  0
  6  4  2  0  0  0  0
  7  3  2  0  0  0  0
  8  9  2  0  0  0  0
  8  3  1  0  0  0  0
 10  9  1  0  0  0  0
 10 15  1  0  0  0  0
 11 14  1  0  0  0  0
 12 15  1  0  0  0  0
 12 13  2  0  0  0  0
 13 16  1  0  0  0  0
 15 11  2  0  0  0  0
 16 14  2  0  0  0  0
 17 18  2  0  0  0  0
 18 19  1  0  0  0  0
 19 20  1  6  0  0  0
 19 26  1  0  0  0  0
 21 20  1  0  0  0  0
 23 22  1  6  0  0  0
 23 21  1  0  0  0  0
 25 23  1  0  0  0  0
 25 24  1  0  0  0  0
 26 28  1  0  0  0  0
 27 28  1  0  0  0  0
 27 31  1  0  0  0  0
 28 29  1  0  0  0  0
 29 32  1  0  0  0  0
 30 32  1  0  0  0  0
 31 30  1  0  0  0  0
 33  1  1  0  0  0  0
 33 36  1  0  0  0  0
 34 38  2  0  0  0  0
 35 37  1  6  0  0  0
 35 40  1  0  0  0  0
 36 34  1  0  0  0  0
 37 36  1  0  0  0  0
 39 37  2  0  0  0  0
 40 38  1  1  0  0  0
 40 47  1  0  0  0  0
 41 46  1  0  0  0  0
 41 42  1  0  0  0  0
 43 45  1  0  0  0  0
 44 42  1  6  0  0  0
 44 45  1  0  0  0  0
 44 35  1  0  0  0  0
 46 43  1  0  0  0  0
 47 50  1  0  0  0  0
 47 48  1  1  0  0  0
 50 49  1  6  0  0  0
 50 52  1  0  0  0  0
 50 48  1  0  0  0  0
 52 51  1  1  0  0  0
 53 52  1  0  0  0  0
 54 53  1  0  0  0  0
 55 54  2  0  0  0  0
 57 56  2  0  0  0  0
 57 54  1  0  0  0  0
M  END
>  <MODEL>
6

>  <REMARK>
 VINA RESULT:      -6.8      3.150      8.286
  Name = 
  20 active torsions:
  status: ('A' for Active; 'I' for Inactive)
    1  A    between atoms: C_6  and  C_46
    2  A    between atoms: C_7  and  O_10
    3  A    between atoms: C_9  and  C_23
    4  A    between atoms: C_9  and  C_47
    5  A    between atoms: O_10  and  C_38
    6  A    between atoms: C_16  and  C_21
    7  A    between atoms: C_17  and  C_38
    8  A    between atoms: C_17  and  N_49
    9  A    between atoms: C_19  and  C_50
   10  A    between atoms: N_22  and  C_29
   11  A    between atoms: C_23  and  C_42
   12  A    between atoms: C_24  and  C_31
   13  A    between atoms: C_25  and  C_44
   14  A    between atoms: C_29  and  C_40
   15  A    between atoms: C_31  and  C_54
   16  A    between atoms: C_34  and  C_46
   17  A    between atoms: C_38  and  C_52
   18  A    between atoms: C_42  and  C_56
   19  A    between atoms: N_49  and  C_53
   20  A    between atoms: C_51  and  C_53
                            x       y       z     vdW  Elec       q    Type
                         _______ _______ _______ _____ _____    ______ ____

>  <TORSDO>
F 20

$$$$
=
 OpenBabel11072409083D

 57 61  0  0  1  0  0  0  0  0999 V2000
  190.7110  171.5470  140.1350 C   0  0  0  0  0  3  0  0  0  0  0  0
  191.9680  171.0950  140.1060 C   0  0  0  0  0  0  0  0  0  0  0  0
  193.9810  170.3190  143.3220 C   0  0  0  0  0  0  0  0  0  0  0  0
  192.5550  170.3010  141.2140 C   0  0  0  0  0  0  0  0  0  0  0  0
  193.2890  170.9650  142.2490 N   0  0  0  0  0  2  0  0  0  0  0  0
  192.4100  169.0470  141.2400 O   0  0  0  0  0  0  0  0  0  0  0  0
  194.0230  169.0600  143.4000 O   0  0  0  0  0  0  0  0  0  0  0  0
  194.6560  171.1480  144.3230 C   0  0  0  0  0  3  0  0  0  0  0  0
  194.5480  172.4700  144.3310 C   0  0  0  0  0  3  0  0  0  0  0  0
  195.2490  173.2950  145.3590 C   0  0  0  0  0  2  0  0  0  0  0  0
  194.8900  175.6500  146.1490 C   0  0  0  0  0  3  0  0  0  0  0  0
  193.0050  174.1290  146.0930 C   0  0  0  0  0  3  0  0  0  0  0  0
  192.1730  175.1440  146.5750 C   0  0  0  0  0  3  0  0  0  0  0  0
  194.0580  176.6640  146.6310 C   0  0  0  0  0  3  0  0  0  0  0  0
  194.3650  174.3790  145.8820 C   0  0  0  0  0  0  0  0  0  0  0  0
  192.7000  176.4110  146.8450 C   0  0  0  0  0  3  0  0  0  0  0  0
  192.7560  171.4400  138.9120 C   0  0  0  0  0  3  0  0  0  0  0  0
  192.9390  172.6880  138.4990 C   0  0  0  0  0  3  0  0  0  0  0  0
  193.7330  172.9750  137.2670 C   0  0  2  0  0  3  0  0  0  0  0  0
  192.8310  172.9370  136.0400 C   0  0  0  0  0  2  0  0  0  0  0  0
  192.7960  171.6000  135.4650 N   0  0  0  0  0  2  0  0  0  0  0  0
  190.6650  172.4950  135.2600 O   0  0  0  0  0  1  0  0  0  0  0  0
  191.4180  171.3330  135.0970 C   0  0  2  0  0  3  0  0  0  0  0  0
  189.6090  170.7010  136.6890 C   0  0  0  0  0  1  0  0  0  0  0  0
  190.8640  170.2310  135.9800 C   0  0  0  0  0  2  0  0  0  0  0  0
  194.7710  172.0450  137.1270 O   0  0  0  0  0  0  0  0  0  0  0  0
  196.5550  172.1100  138.7410 C   0  0  0  0  0  2  0  0  0  0  0  0
  195.9400  172.7290  137.4770 C   0  0  0  0  0  3  0  0  0  0  0  0
  195.6270  174.2250  137.6170 C   0  0  0  0  0  2  0  0  0  0  0  0
  196.7320  174.3470  139.8940 C   0  0  0  0  0  2  0  0  0  0  0  0
  196.2050  172.9070  139.9940 C   0  0  0  0  0  2  0  0  0  0  0  0
  196.6770  174.9270  138.4720 C   0  0  0  0  0  2  0  0  0  0  0  0
  189.7700  171.3940  141.2910 C   0  0  0  0  0  2  0  0  0  0  0  0
  189.8820  172.6160  143.4600 C   0  0  0  0  0  3  0  0  0  0  0  0
  189.8080  175.1840  142.0630 C   0  0  1  0  0  3  0  0  0  0  0  0
  189.6970  172.6430  142.0390 N   0  0  0  0  0  0  0  0  0  0  0  0
  189.5100  173.8930  141.3550 C   0  0  0  0  0  0  0  0  0  0  0  0
  189.7930  173.7270  144.1920 C   0  0  0  0  0  3  0  0  0  0  0  0
  189.1280  173.9150  140.1560 O   0  0  0  0  0  0  0  0  0  0  0  0
  189.4750  175.0580  143.5640 C   0  0  2  0  0  3  0  0  0  0  0  0
  193.3320  176.5050  142.9510 C   0  0  0  0  0  2  0  0  0  0  0  0
  191.8530  176.1900  143.1490 C   0  0  0  0  0  2  0  0  0  0  0  0
  193.3720  174.8510  141.1670 N   0  0  0  0  0  2  0  0  0  0  0  0
  191.2780  175.5820  141.8700 C   0  0  1  0  0  3  0  0  0  0  0  0
  192.0790  174.4110  141.5080 N   0  0  0  0  0  2  0  0  0  0  0  0
  194.0430  175.2810  142.3910 C   0  0  0  0  0  2  0  0  0  0  0  0
  188.1560  175.7020  144.0340 C   0  0  1  0  0  3  0  0  0  0  0  0
  188.3990  176.7300  144.9800 O   0  0  0  0  0  0  0  0  0  0  0  0
  188.9690  177.8400  143.0330 O   0  0  0  0  0  1  0  0  0  0  0  0
  187.9660  177.1420  143.7120 C   0  0  1  0  0  0  0  0  0  0  0  0
  186.2950  178.3840  142.5470 O   0  0  0  0  0  1  0  0  0  0  0  0
  186.5610  177.7210  143.7440 C   0  0  2  0  0  3  0  0  0  0  0  0
  186.4040  178.6810  144.9140 C   0  0  0  0  0  2  0  0  0  0  0  0
  185.2800  178.2460  145.7910 C   0  0  0  0  0  0  0  0  0  0  0  0
  184.2800  178.9960  145.9520 O   0  0  0  0  0  0  0  0  0  0  0  0
  185.9780  176.7610  147.5040 O   0  0  0  0  0  0  0  0  0  0  0  0
  185.3350  176.9320  146.4340 C   0  0  0  0  0  3  0  0  0  0  0  0
  1 33  1  0  0  0  0
  2  1  2  0  0  0  0
  2  4  1  0  0  0  0
  3  7  2  0  0  0  0
  3  8  1  0  0  0  0
  4  6  2  0  0  0  0
  4  5  1  0  0  0  0
  5  3  1  0  0  0  0
  8  9  2  0  0  0  0
  9 10  1  0  0  0  0
 10 15  1  0  0  0  0
 11 14  1  0  0  0  0
 12 13  2  0  0  0  0
 13 16  1  0  0  0  0
 14 16  2  0  0  0  0
 15 12  1  0  0  0  0
 15 11  2  0  0  0  0
 17  2  1  0  0  0  0
 18 17  2  0  0  0  0
 19 20  1  6  0  0  0
 19 18  1  0  0  0  0
 21 20  1  0  0  0  0
 23 22  1  1  0  0  0
 23 21  1  0  0  0  0
 23 25  1  0  0  0  0
 25 24  1  0  0  0  0
 26 19  1  0  0  0  0
 26 28  1  0  0  0  0
 27 31  1  0  0  0  0
 28 29  1  0  0  0  0
 28 27  1  0  0  0  0
 29 32  1  0  0  0  0
 30 31  1  0  0  0  0
 32 30  1  0  0  0  0
 33 36  1  0  0  0  0
 34 38  2  0  0  0  0
 35 37  1  6  0  0  0
 35 40  1  0  0  0  0
 36 34  1  0  0  0  0
 37 36  1  0  0  0  0
 39 37  2  0  0  0  0
 40 47  1  0  0  0  0
 40 38  1  6  0  0  0
 41 42  1  0  0  0  0
 43 45  1  0  0  0  0
 43 46  1  0  0  0  0
 44 35  1  0  0  0  0
 44 42  1  1  0  0  0
 45 44  1  0  0  0  0
 46 41  1  0  0  0  0
 47 48  1  1  0  0  0
 50 49  1  6  0  0  0
 50 52  1  0  0  0  0
 50 47  1  0  0  0  0
 50 48  1  0  0  0  0
 52 51  1  6  0  0  0
 52 53  1  0  0  0  0
 53 54  1  0  0  0  0
 54 55  2  0  0  0  0
 54 57  1  0  0  0  0
 57 56  2  0  0  0  0
M  END
>  <MODEL>
7

>  <REMARK>
 VINA RESULT:      -6.7      3.821     11.582
  Name = 
  20 active torsions:
  status: ('A' for Active; 'I' for Inactive)
    1  A    between atoms: C_6  and  C_46
    2  A    between atoms: C_7  and  O_10
    3  A    between atoms: C_9  and  C_23
    4  A    between atoms: C_9  and  C_47
    5  A    between atoms: O_10  and  C_38
    6  A    between atoms: C_16  and  C_21
    7  A    between atoms: C_17  and  C_38
    8  A    between atoms: C_17  and  N_49
    9  A    between atoms: C_19  and  C_50
   10  A    between atoms: N_22  and  C_29
   11  A    between atoms: C_23  and  C_42
   12  A    between atoms: C_24  and  C_31
   13  A    between atoms: C_25  and  C_44
   14  A    between atoms: C_29  and  C_40
   15  A    between atoms: C_31  and  C_54
   16  A    between atoms: C_34  and  C_46
   17  A    between atoms: C_38  and  C_52
   18  A    between atoms: C_42  and  C_56
   19  A    between atoms: N_49  and  C_53
   20  A    between atoms: C_51  and  C_53
                            x       y       z     vdW  Elec       q    Type
                         _______ _______ _______ _____ _____    ______ ____

>  <TORSDO>
F 20

$$$$
=
 OpenBabel11072409083D

 57 61  0  0  1  0  0  0  0  0999 V2000
  194.4330  174.9860  145.3400 C   0  0  0  0  0  3  0  0  0  0  0  0
  195.2280  174.3950  144.4420 C   0  0  0  0  0  0  0  0  0  0  0  0
  195.2380  175.6140  140.7660 C   0  0  0  0  0  0  0  0  0  0  0  0
  195.6940  175.0860  143.2150 C   0  0  0  0  0  0  0  0  0  0  0  0
  194.8750  175.0700  142.0390 N   0  0  0  0  0  2  0  0  0  0  0  0
  196.8070  175.6810  143.2070 O   0  0  0  0  0  0  0  0  0  0  0  0
  196.3750  176.1290  140.5840 O   0  0  0  0  0  0  0  0  0  0  0  0
  194.2690  175.5470  139.6710 C   0  0  0  0  0  3  0  0  0  0  0  0
  194.1030  174.4490  138.9450 C   0  0  0  0  0  3  0  0  0  0  0  0
  193.1110  174.4040  137.8300 C   0  0  0  0  0  2  0  0  0  0  0  0
  190.7520  173.5500  137.7800 C   0  0  0  0  0  3  0  0  0  0  0  0
  192.5270  172.0550  138.4740 C   0  0  0  0  0  3  0  0  0  0  0  0
  191.5930  171.0320  138.6610 C   0  0  0  0  0  3  0  0  0  0  0  0
  189.8170  172.5270  137.9670 C   0  0  0  0  0  3  0  0  0  0  0  0
  192.1090  173.3160  138.0370 C   0  0  0  0  0  0  0  0  0  0  0  0
  190.2380  171.2690  138.4080 C   0  0  0  0  0  3  0  0  0  0  0  0
  195.6120  173.0040  144.7280 C   0  0  0  0  0  3  0  0  0  0  0  0
  195.7960  172.0930  143.7800 C   0  0  0  0  0  3  0  0  0  0  0  0
  196.1650  170.6900  144.1330 C   0  0  2  0  0  3  0  0  0  0  0  0
  196.5160  169.9060  142.8750 C   0  0  0  0  0  2  0  0  0  0  0  0
  195.4910  170.0800  141.8550 N   0  0  0  0  0  2  0  0  0  0  0  0
  196.5780  168.8300  140.2310 O   0  0  0  0  0  1  0  0  0  0  0  0
  196.1710  170.1180  140.5730 C   0  0  2  0  0  3  0  0  0  0  0  0
  197.0950  172.3500  139.9690 C   0  0  0  0  0  1  0  0  0  0  0  0
  197.3760  171.0340  140.6670 C   0  0  0  0  0  2  0  0  0  0  0  0
  195.1120  170.0630  144.8100 O   0  0  0  0  0  0  0  0  0  0  0  0
  194.6010  168.1760  146.2160 C   0  0  0  0  0  2  0  0  0  0  0  0
  195.6830  168.9620  145.4590 C   0  0  0  0  0  3  0  0  0  0  0  0
  196.8310  169.4450  146.3550 C   0  0  0  0  0  2  0  0  0  0  0  0
  195.9290  168.1850  148.3610 C   0  0  0  0  0  2  0  0  0  0  0  0
  194.5820  168.5200  147.7020 C   0  0  0  0  0  2  0  0  0  0  0  0
  197.1400  168.4240  147.4460 C   0  0  0  0  0  2  0  0  0  0  0  0
  193.8490  176.3580  145.1990 C   0  0  0  0  0  2  0  0  0  0  0  0
  192.1710  177.1540  143.5360 C   0  0  0  0  0  3  0  0  0  0  0  0
  190.3870  174.9390  144.2170 C   0  0  1  0  0  3  0  0  0  0  0  0
  192.5180  176.2710  144.6110 N   0  0  0  0  0  0  0  0  0  0  0  0
  191.5880  175.2710  145.0570 C   0  0  0  0  0  0  0  0  0  0  0  0
  190.9560  177.1340  142.9870 C   0  0  0  0  0  3  0  0  0  0  0  0
  191.7870  174.6460  146.1320 O   0  0  0  0  0  0  0  0  0  0  0  0
  189.8850  176.1990  143.4840 C   0  0  2  0  0  3  0  0  0  0  0  0
  192.0030  171.7250  142.7990 C   0  0  0  0  0  2  0  0  0  0  0  0
  191.7510  172.8580  143.7880 C   0  0  0  0  0  2  0  0  0  0  0  0
  189.8260  172.1910  141.8180 N   0  0  0  0  0  2  0  0  0  0  0  0
  190.7190  173.8280  143.2110 C   0  0  1  0  0  3  0  0  0  0  0  0
  189.5110  173.0740  142.8690 N   0  0  0  0  0  2  0  0  0  0  0  0
  190.6750  171.1310  142.3540 C   0  0  0  0  0  2  0  0  0  0  0  0
  188.6390  176.8890  144.0730 C   0  0  1  0  0  3  0  0  0  0  0  0
  188.4660  178.1850  143.5240 O   0  0  0  0  0  0  0  0  0  0  0  0
  187.6870  176.9000  141.7660 O   0  0  0  0  0  1  0  0  0  0  0  0
  187.5420  177.2100  143.1210 C   0  0  1  0  0  0  0  0  0  0  0  0
  185.1930  177.1610  142.7060 O   0  0  0  0  0  1  0  0  0  0  0  0
  186.1500  177.4750  143.6700 C   0  0  2  0  0  3  0  0  0  0  0  0
  186.0070  178.9330  144.0850 C   0  0  0  0  0  2  0  0  0  0  0  0
  185.0010  179.0610  145.1770 C   0  0  0  0  0  0  0  0  0  0  0  0
  183.8240  179.4230  144.9090 O   0  0  0  0  0  0  0  0  0  0  0  0
  184.5520  178.2300  147.3530 O   0  0  0  0  0  0  0  0  0  0  0  0
  185.3830  178.7350  146.5510 C   0  0  0  0  0  3  0  0  0  0  0  0
  2 17  1  0  0  0  0
  2  1  2  0  0  0  0
  3  5  1  0  0  0  0
  4  2  1  0  0  0  0
  5  4  1  0  0  0  0
  6  4  2  0  0  0  0
  7  3  2  0  0  0  0
  8  3  1  0  0  0  0
  9  8  2  0  0  0  0
 10 15  1  0  0  0  0
 10  9  1  0  0  0  0
 11 14  2  0  0  0  0
 11 15  1  0  0  0  0
 12 13  1  0  0  0  0
 14 16  1  0  0  0  0
 15 12  2  0  0  0  0
 16 13  2  0  0  0  0
 18 19  1  0  0  0  0
 18 17  2  0  0  0  0
 19 20  1  6  0  0  0
 19 26  1  0  0  0  0
 21 20  1  0  0  0  0
 23 22  1  1  0  0  0
 23 25  1  0  0  0  0
 23 21  1  0  0  0  0
 24 25  1  0  0  0  0
 26 28  1  0  0  0  0
 27 31  1  0  0  0  0
 28 27  1  0  0  0  0
 28 29  1  0  0  0  0
 29 32  1  0  0  0  0
 31 30  1  0  0  0  0
 32 30  1  0  0  0  0
 33  1  1  0  0  0  0
 34 36  1  0  0  0  0
 35 37  1  6  0  0  0
 36 37  1  0  0  0  0
 36 33  1  0  0  0  0
 37 39  2  0  0  0  0
 38 34  2  0  0  0  0
 40 38  1  1  0  0  0
 40 47  1  0  0  0  0
 40 35  1  0  0  0  0
 41 42  1  0  0  0  0
 43 46  1  0  0  0  0
 43 45  1  0  0  0  0
 44 42  1  1  0  0  0
 44 35  1  0  0  0  0
 45 44  1  0  0  0  0
 46 41  1  0  0  0  0
 47 48  1  6  0  0  0
 50 49  1  6  0  0  0
 50 48  1  0  0  0  0
 50 52  1  0  0  0  0
 50 47  1  0  0  0  0
 52 51  1  6  0  0  0
 52 53  1  0  0  0  0
 53 54  1  0  0  0  0
 54 57  1  0  0  0  0
 55 54  2  0  0  0  0
 57 56  2  0  0  0  0
M  END
>  <MODEL>
8

>  <REMARK>
 VINA RESULT:      -6.7      3.956     10.847
  Name = 
  20 active torsions:
  status: ('A' for Active; 'I' for Inactive)
    1  A    between atoms: C_6  and  C_46
    2  A    between atoms: C_7  and  O_10
    3  A    between atoms: C_9  and  C_23
    4  A    between atoms: C_9  and  C_47
    5  A    between atoms: O_10  and  C_38
    6  A    between atoms: C_16  and  C_21
    7  A    between atoms: C_17  and  C_38
    8  A    between atoms: C_17  and  N_49
    9  A    between atoms: C_19  and  C_50
   10  A    between atoms: N_22  and  C_29
   11  A    between atoms: C_23  and  C_42
   12  A    between atoms: C_24  and  C_31
   13  A    between atoms: C_25  and  C_44
   14  A    between atoms: C_29  and  C_40
   15  A    between atoms: C_31  and  C_54
   16  A    between atoms: C_34  and  C_46
   17  A    between atoms: C_38  and  C_52
   18  A    between atoms: C_42  and  C_56
   19  A    between atoms: N_49  and  C_53
   20  A    between atoms: C_51  and  C_53
                            x       y       z     vdW  Elec       q    Type
                         _______ _______ _______ _____ _____    ______ ____

>  <TORSDO>
F 20

$$$$
=
 OpenBabel11072409083D

 57 61  0  0  1  0  0  0  0  0999 V2000
  190.9050  173.1380  144.3430 C   0  0  0  0  0  3  0  0  0  0  0  0
  190.8840  174.3060  144.9930 C   0  0  0  0  0  0  0  0  0  0  0  0
  194.3680  175.9730  145.2760 C   0  0  0  0  0  0  0  0  0  0  0  0
  192.0940  174.8860  145.6280 C   0  0  0  0  0  0  0  0  0  0  0  0
  193.1160  175.4620  144.8070 N   0  0  0  0  0  2  0  0  0  0  0  0
  192.2200  174.8670  146.8830 O   0  0  0  0  0  0  0  0  0  0  0  0
  194.6790  175.9030  146.4970 O   0  0  0  0  0  0  0  0  0  0  0  0
  195.2940  176.5640  144.3070 C   0  0  0  0  0  3  0  0  0  0  0  0
  195.9100  175.8330  143.3870 C   0  0  0  0  0  3  0  0  0  0  0  0
  196.8530  176.4570  142.4110 C   0  0  0  0  0  2  0  0  0  0  0  0
  197.7380  175.6430  140.2090 C   0  0  0  0  0  3  0  0  0  0  0  0
  195.3430  175.6890  140.5670 C   0  0  0  0  0  3  0  0  0  0  0  0
  195.1400  175.1820  139.2800 C   0  0  0  0  0  3  0  0  0  0  0  0
  197.5360  175.1360  138.9210 C   0  0  0  0  0  3  0  0  0  0  0  0
  196.6410  175.9230  141.0330 C   0  0  0  0  0  0  0  0  0  0  0  0
  196.2370  174.9070  138.4570 C   0  0  0  0  0  3  0  0  0  0  0  0
  189.5840  174.9900  145.0600 C   0  0  0  0  0  3  0  0  0  0  0  0
  188.9670  175.4840  143.9930 C   0  0  0  0  0  3  0  0  0  0  0  0
  187.6570  176.1870  144.1270 C   0  0  2  0  0  3  0  0  0  0  0  0
  187.1380  176.5980  142.7560 C   0  0  0  0  0  2  0  0  0  0  0  0
  187.4370  177.9980  142.4890 N   0  0  0  0  0  2  0  0  0  0  0  0
  185.8860  179.5430  143.2580 O   0  0  0  0  0  1  0  0  0  0  0  0
  186.1730  178.6580  142.2200 C   0  0  2  0  0  3  0  0  0  0  0  0
  183.7330  178.2890  141.8820 C   0  0  0  0  0  1  0  0  0  0  0  0
  185.0740  177.6190  142.1080 C   0  0  0  0  0  2  0  0  0  0  0  0
  187.7880  177.3140  144.9470 O   0  0  0  0  0  0  0  0  0  0  0  0
  185.5500  176.7930  145.6670 C   0  0  0  0  0  2  0  0  0  0  0  0
  187.0080  177.0510  146.0790 C   0  0  0  0  0  3  0  0  0  0  0  0
  187.1680  178.2030  147.0810 C   0  0  0  0  0  2  0  0  0  0  0  0
  184.6600  178.4650  147.3330 C   0  0  0  0  0  2  0  0  0  0  0  0
  184.6770  178.0290  145.8600 C   0  0  0  0  0  2  0  0  0  0  0  0
  185.9970  178.2460  148.0570 C   0  0  0  0  0  2  0  0  0  0  0  0
  192.0960  172.2350  144.2370 C   0  0  0  0  0  2  0  0  0  0  0  0
  192.0160  170.3160  142.6490 C   0  0  0  0  0  3  0  0  0  0  0  0
  192.1790  172.1440  140.3710 C   0  0  1  0  0  3  0  0  0  0  0  0
  192.2070  171.7190  142.8790 N   0  0  0  0  0  0  0  0  0  0  0  0
  192.4370  172.6100  141.7760 C   0  0  0  0  0  0  0  0  0  0  0  0
  192.1380  169.7910  141.4290 C   0  0  0  0  0  3  0  0  0  0  0  0
  192.8250  173.7910  141.9790 O   0  0  0  0  0  0  0  0  0  0  0  0
  192.5020  170.6420  140.2400 C   0  0  2  0  0  3  0  0  0  0  0  0
  188.4860  173.2320  140.7200 C   0  0  0  0  0  2  0  0  0  0  0  0
  189.9040  172.8950  141.1670 C   0  0  0  0  0  2  0  0  0  0  0  0
  189.3440  173.5380  138.4640 N   0  0  0  0  0  2  0  0  0  0  0  0
  190.7240  172.4190  139.9670 C   0  0  1  0  0  3  0  0  0  0  0  0
  190.6710  173.4490  138.9280 N   0  0  0  0  0  2  0  0  0  0  0  0
  188.5370  174.1570  139.5120 C   0  0  0  0  0  2  0  0  0  0  0  0
  193.8400  170.2800  139.5660 C   0  0  1  0  0  3  0  0  0  0  0  0
  193.9250  168.8870  139.3170 O   0  0  0  0  0  0  0  0  0  0  0  0
  192.5140  169.5120  137.5950 O   0  0  0  0  0  1  0  0  0  0  0  0
  193.7610  169.7100  138.1940 C   0  0  1  0  0  0  0  0  0  0  0  0
  196.0230  170.4330  137.9630 O   0  0  0  0  0  1  0  0  0  0  0  0
  195.0020  169.7390  137.3150 C   0  0  2  0  0  3  0  0  0  0  0  0
  194.6950  170.3980  135.9780 C   0  0  0  0  0  2  0  0  0  0  0  0
  194.9080  171.8700  136.0660 C   0  0  0  0  0  0  0  0  0  0  0  0
  194.1590  172.5720  136.7970 O   0  0  0  0  0  0  0  0  0  0  0  0
  197.1900  172.4430  135.7640 O   0  0  0  0  0  0  0  0  0  0  0  0
  196.0100  172.4840  135.3240 C   0  0  0  0  0  3  0  0  0  0  0  0
  1  2  2  0  0  0  0
  2 17  1  0  0  0  0
  2  4  1  0  0  0  0
  3  7  2  0  0  0  0
  4  6  2  0  0  0  0
  5  3  1  0  0  0  0
  5  4  1  0  0  0  0
  8  3  1  0  0  0  0
  9  8  2  0  0  0  0
 10  9  1  0  0  0  0
 11 15  1  0  0  0  0
 12 15  2  0  0  0  0
 13 12  1  0  0  0  0
 14 11  2  0  0  0  0
 15 10  1  0  0  0  0
 16 14  1  0  0  0  0
 16 13  2  0  0  0  0
 18 19  1  0  0  0  0
 18 17  2  0  0  0  0
 19 20  1  6  0  0  0
 19 26  1  0  0  0  0
 21 20  1  0  0  0  0
 23 21  1  0  0  0  0
 23 22  1  1  0  0  0
 24 25  1  0  0  0  0
 25 23  1  0  0  0  0
 26 28  1  0  0  0  0
 27 31  1  0  0  0  0
 27 28  1  0  0  0  0
 28 29  1  0  0  0  0
 29 32  1  0  0  0  0
 30 32  1  0  0  0  0
 31 30  1  0  0  0  0
 33  1  1  0  0  0  0
 34 36  1  0  0  0  0
 35 37  1  1  0  0  0
 36 33  1  0  0  0  0
 37 39  2  0  0  0  0
 37 36  1  0  0  0  0
 38 34  2  0  0  0  0
 40 35  1  0  0  0  0
 40 38  1  1  0  0  0
 41 42  1  0  0  0  0
 43 45  1  0  0  0  0
 43 46  1  0  0  0  0
 44 35  1  0  0  0  0
 44 42  1  1  0  0  0
 45 44  1  0  0  0  0
 46 41  1  0  0  0  0
 47 48  1  1  0  0  0
 47 40  1  0  0  0  0
 50 49  1  6  0  0  0
 50 48  1  0  0  0  0
 50 47  1  0  0  0  0
 52 51  1  1  0  0  0
 52 50  1  0  0  0  0
 53 54  1  0  0  0  0
 53 52  1  0  0  0  0
 54 55  2  0  0  0  0
 57 56  2  0  0  0  0
 57 54  1  0  0  0  0
M  END
>  <MODEL>
9

>  <REMARK>
 VINA RESULT:      -6.6      2.776      8.215
  Name = 
  20 active torsions:
  status: ('A' for Active; 'I' for Inactive)
    1  A    between atoms: C_6  and  C_46
    2  A    between atoms: C_7  and  O_10
    3  A    between atoms: C_9  and  C_23
    4  A    between atoms: C_9  and  C_47
    5  A    between atoms: O_10  and  C_38
    6  A    between atoms: C_16  and  C_21
    7  A    between atoms: C_17  and  C_38
    8  A    between atoms: C_17  and  N_49
    9  A    between atoms: C_19  and  C_50
   10  A    between atoms: N_22  and  C_29
   11  A    between atoms: C_23  and  C_42
   12  A    between atoms: C_24  and  C_31
   13  A    between atoms: C_25  and  C_44
   14  A    between atoms: C_29  and  C_40
   15  A    between atoms: C_31  and  C_54
   16  A    between atoms: C_34  and  C_46
   17  A    between atoms: C_38  and  C_52
   18  A    between atoms: C_42  and  C_56
   19  A    between atoms: N_49  and  C_53
   20  A    between atoms: C_51  and  C_53
                            x       y       z     vdW  Elec       q    Type
                         _______ _______ _______ _____ _____    ______ ____

>  <TORSDO>
F 20

$$$$
