=
 OpenBabel11062419033D

 32 36  0  0  1  0  0  0  0  0999 V2000
  186.7200  175.4780  142.8510 C   0  0  0  0  0  3  0  0  0  0  0  0
  185.7530  176.3400  142.9550 N   0  0  0  0  0  0  0  0  0  0  0  0
  187.7790  175.6720  141.9060 N   0  0  0  0  0  0  0  0  0  0  0  0
  185.6880  177.5730  142.1660 C   0  0  2  0  0  3  0  0  0  0  0  0
  187.8430  176.8850  141.0960 C   0  0  0  0  0  2  0  0  0  0  0  0
  186.4370  177.4170  140.8360 C   0  0  0  0  0  2  0  0  0  0  0  0
  188.9820  174.4450  141.7020 S   0  0  0  0  0  0  0  0  0  0  0  0
  188.8370  173.4150  142.7870 O   0  0  0  0  0  0  0  0  0  0  0  0
  188.7920  173.7730  140.3710 O   0  0  0  0  0  0  0  0  0  0  0  0
  190.6030  175.1810  141.7690 C   0  0  1  0  0  3  0  0  0  0  0  0
  192.5560  174.8930  142.9450 N   0  0  0  0  0  2  0  0  0  0  0  0
  191.9120  176.0670  143.5230 C   0  0  1  0  0  3  0  0  0  0  0  0
  190.6260  176.2980  142.7730 C   0  0  0  0  0  2  0  0  0  0  0  0
  191.5780  174.1970  142.2090 N   0  0  0  0  0  2  0  0  0  0  0  0
  193.6590  177.0200  145.7140 O   0  0  0  0  0  1  0  0  0  0  0  0
  192.4980  176.3300  146.0410 C   0  0  0  0  0  0  0  0  0  0  0  0
  192.1950  176.1180  147.4580 C   0  0  0  0  0  3  0  0  0  0  0  0
  191.0290  175.4330  147.9550 C   0  0  0  0  0  3  0  0  0  0  0  0
  190.5520  175.2200  145.4910 C   0  0  0  0  0  0  0  0  0  0  0  0
  190.2640  175.0220  146.9070 C   0  0  0  0  0  0  0  0  0  0  0  0
  191.6440  175.8570  144.9820 C   0  0  0  0  0  0  0  0  0  0  0  0
  189.3950  174.5480  145.9120 C   0  0  0  0  0  2  0  0  0  0  0  0
  186.2300  178.7410  142.9860 C   0  0  0  0  0  2  0  0  0  0  0  0
  186.3100  178.1220  146.7450 C   0  0  0  0  0  0  0  0  0  0  0  0
  185.8250  178.6310  144.4260 C   0  0  0  0  0  0  0  0  0  0  0  0
  183.5920  179.3150  143.8690 F   0  0  0  0  0  0  0  0  0  0  0  0
  186.7430  178.2290  145.4150 C   0  0  0  0  0  0  0  0  0  0  0  0
  185.0200  178.4070  147.0670 N   0  0  0  0  0  0  0  0  0  0  0  0
  184.5020  178.9180  144.7930 C   0  0  0  0  0  0  0  0  0  0  0  0
  187.1700  177.7370  147.7190 F   0  0  0  0  0  0  0  0  0  0  0  0
  184.1180  178.7990  146.1290 C   0  0  0  0  0  3  0  0  0  0  0  0
  188.1660  177.9200  145.0740 C   0  0  0  0  0  1  0  0  0  0  0  0
  1  2  2  0  0  0  0
  3  1  1  0  0  0  0
  4  2  1  0  0  0  0
  4 23  1  1  0  0  0
  5  3  1  0  0  0  0
  6  5  1  0  0  0  0
  6  4  1  0  0  0  0
  7  3  1  0  0  0  0
  7  8  2  0  0  0  0
  9  7  2  0  0  0  0
 10  7  1  1  0  0  0
 10 14  1  0  0  0  0
 10 13  1  0  0  0  0
 11 12  1  0  0  0  0
 12 21  1  1  0  0  0
 13 12  1  0  0  0  0
 14 11  1  0  0  0  0
 15 16  1  0  0  0  0
 16 17  1  0  0  0  0
 17 18  2  0  0  0  0
 19 22  1  0  0  0  0
 19 20  2  0  0  0  0
 20 18  1  0  0  0  0
 21 19  1  0  0  0  0
 21 16  2  0  0  0  0
 22 20  1  0  0  0  0
 23 25  1  0  0  0  0
 24 28  1  0  0  0  0
 24 30  1  0  0  0  0
 25 29  2  0  0  0  0
 25 27  1  0  0  0  0
 26 29  1  0  0  0  0
 27 24  2  0  0  0  0
 29 31  1  0  0  0  0
 31 28  2  0  0  0  0
 32 27  1  0  0  0  0
M  END
>  <MODEL>
1

>  <REMARK>
 VINA RESULT:      -8.2      0.000      0.000
  Name = 
  5 active torsions:
  status: ('A' for Active; 'I' for Inactive)
    1  A    between atoms: C_4  and  C_6
    2  A    between atoms: C_6  and  C_25
    3  A    between atoms: C_9  and  S_12
    4  A    between atoms: N_11  and  S_12
    5  A    between atoms: C_15  and  C_22
                            x       y       z     vdW  Elec       q    Type
                         _______ _______ _______ _____ _____    ______ ____

>  <TORSDO>
F 5

$$$$
=
 OpenBabel11062419033D

 32 36  0  0  1  0  0  0  0  0999 V2000
  189.6740  177.4740  144.6240 C   0  0  0  0  0  3  0  0  0  0  0  0
  188.4690  177.8980  144.3810 N   0  0  0  0  0  0  0  0  0  0  0  0
  189.9030  176.3980  145.5420 N   0  0  0  0  0  0  0  0  0  0  0  0
  187.2720  177.2980  144.9750 C   0  0  2  0  0  3  0  0  0  0  0  0
  188.7840  175.6950  146.1620 C   0  0  0  0  0  2  0  0  0  0  0  0
  187.5960  176.6380  146.3220 C   0  0  0  0  0  2  0  0  0  0  0  0
  191.5240  175.9430  145.9410 S   0  0  0  0  0  0  0  0  0  0  0  0
  191.8640  176.4480  147.3150 O   0  0  0  0  0  0  0  0  0  0  0  0
  191.6390  174.4440  145.9340 O   0  0  0  0  0  0  0  0  0  0  0  0
  192.6490  176.6300  144.7420 C   0  0  1  0  0  3  0  0  0  0  0  0
  193.9500  175.8800  143.0030 N   0  0  0  0  0  2  0  0  0  0  0  0
  194.8660  176.1130  144.1140 C   0  0  1  0  0  3  0  0  0  0  0  0
  194.0530  176.6160  145.2780 C   0  0  0  0  0  2  0  0  0  0  0  0
  192.6490  175.8180  143.5370 N   0  0  0  0  0  2  0  0  0  0  0  0
  197.7380  175.6060  143.6120 O   0  0  0  0  0  1  0  0  0  0  0  0
  196.9870  174.6160  144.2340 C   0  0  0  0  0  0  0  0  0  0  0  0
  197.6600  173.3730  144.6180 C   0  0  0  0  0  3  0  0  0  0  0  0
  197.0220  172.2630  145.2770 C   0  0  0  0  0  3  0  0  0  0  0  0
  195.0200  173.7820  145.1050 C   0  0  0  0  0  0  0  0  0  0  0  0
  195.7080  172.5530  145.4840 C   0  0  0  0  0  0  0  0  0  0  0  0
  195.5870  174.8510  144.4780 C   0  0  0  0  0  0  0  0  0  0  0  0
  194.3430  172.7370  145.7510 C   0  0  0  0  0  2  0  0  0  0  0  0
  186.6490  176.3050  143.9960 C   0  0  0  0  0  2  0  0  0  0  0  0
  186.1300  177.6310  140.4620 C   0  0  0  0  0  0  0  0  0  0  0  0
  186.0720  177.0070  142.8020 C   0  0  0  0  0  0  0  0  0  0  0  0
  184.2590  177.8350  144.1410 F   0  0  0  0  0  0  0  0  0  0  0  0
  186.6980  176.9410  141.5430 C   0  0  0  0  0  0  0  0  0  0  0  0
  184.9880  178.3490  140.6350 N   0  0  0  0  0  0  0  0  0  0  0  0
  184.8940  177.7550  142.9450 C   0  0  0  0  0  0  0  0  0  0  0  0
  186.7100  177.5890  139.2370 F   0  0  0  0  0  0  0  0  0  0  0  0
  184.3660  178.4230  141.8400 C   0  0  0  0  0  3  0  0  0  0  0  0
  187.9500  176.1500  141.3380 C   0  0  0  0  0  1  0  0  0  0  0  0
  1  3  1  0  0  0  0
  2  1  2  0  0  0  0
  2  4  1  0  0  0  0
  3  7  1  0  0  0  0
  3  5  1  0  0  0  0
  4 23  1  6  0  0  0
  4  6  1  0  0  0  0
  5  6  1  0  0  0  0
  7  8  2  0  0  0  0
  9  7  2  0  0  0  0
 10 13  1  0  0  0  0
 10  7  1  1  0  0  0
 11 14  1  0  0  0  0
 11 12  1  0  0  0  0
 12 21  1  1  0  0  0
 12 13  1  0  0  0  0
 14 10  1  0  0  0  0
 15 16  1  0  0  0  0
 16 21  2  0  0  0  0
 16 17  1  0  0  0  0
 17 18  2  0  0  0  0
 18 20  1  0  0  0  0
 19 20  2  0  0  0  0
 19 22  1  0  0  0  0
 20 22  1  0  0  0  0
 21 19  1  0  0  0  0
 24 28  2  0  0  0  0
 24 27  1  0  0  0  0
 25 29  1  0  0  0  0
 25 23  1  0  0  0  0
 27 25  2  0  0  0  0
 28 31  1  0  0  0  0
 29 26  1  0  0  0  0
 30 24  1  0  0  0  0
 31 29  2  0  0  0  0
 32 27  1  0  0  0  0
M  END
>  <MODEL>
2

>  <REMARK>
 VINA RESULT:      -7.6      3.294      4.843
  Name = 
  5 active torsions:
  status: ('A' for Active; 'I' for Inactive)
    1  A    between atoms: C_4  and  C_6
    2  A    between atoms: C_6  and  C_25
    3  A    between atoms: C_9  and  S_12
    4  A    between atoms: N_11  and  S_12
    5  A    between atoms: C_15  and  C_22
                            x       y       z     vdW  Elec       q    Type
                         _______ _______ _______ _____ _____    ______ ____

>  <TORSDO>
F 5

$$$$
=
 OpenBabel11062419033D

 32 36  0  0  1  0  0  0  0  0999 V2000
  189.3610  175.2170  142.4760 C   0  0  0  0  0  3  0  0  0  0  0  0
  188.3310  175.9280  142.1270 N   0  0  0  0  0  0  0  0  0  0  0  0
  189.9510  175.3650  143.7730 N   0  0  0  0  0  0  0  0  0  0  0  0
  187.6760  176.8850  143.0230 C   0  0  2  0  0  3  0  0  0  0  0  0
  189.3590  176.2570  144.7650 C   0  0  0  0  0  2  0  0  0  0  0  0
  188.6590  177.4210  144.0720 C   0  0  0  0  0  2  0  0  0  0  0  0
  191.3980  174.4970  144.1600 S   0  0  0  0  0  0  0  0  0  0  0  0
  191.0440  173.1110  144.6220 O   0  0  0  0  0  0  0  0  0  0  0  0
  192.2620  174.3920  142.9340 O   0  0  0  0  0  0  0  0  0  0  0  0
  192.2870  175.3600  145.4400 C   0  0  1  0  0  3  0  0  0  0  0  0
  193.9730  176.9150  145.5910 N   0  0  0  0  0  2  0  0  0  0  0  0
  194.5830  175.6320  145.9210 C   0  0  1  0  0  3  0  0  0  0  0  0
  193.5070  174.5810  145.8420 C   0  0  0  0  0  2  0  0  0  0  0  0
  192.7510  176.6450  144.9450 N   0  0  0  0  0  2  0  0  0  0  0  0
  196.8030  173.7570  146.4850 O   0  0  0  0  0  1  0  0  0  0  0  0
  196.7720  174.4010  145.2540 C   0  0  0  0  0  0  0  0  0  0  0  0
  197.8390  174.1100  144.2930 C   0  0  0  0  0  3  0  0  0  0  0  0
  197.9410  174.6880  142.9780 C   0  0  0  0  0  3  0  0  0  0  0  0
  195.8270  175.8400  143.7190 C   0  0  0  0  0  0  0  0  0  0  0  0
  196.8950  175.5360  142.7740 C   0  0  0  0  0  0  0  0  0  0  0  0
  195.7000  175.3200  144.9720 C   0  0  0  0  0  0  0  0  0  0  0  0
  195.8670  176.4330  142.4480 C   0  0  0  0  0  2  0  0  0  0  0  0
  186.4560  176.2350  143.6730 C   0  0  0  0  0  2  0  0  0  0  0  0
  184.4990  178.4260  146.1000 C   0  0  0  0  0  0  0  0  0  0  0  0
  185.5240  177.2670  144.2340 C   0  0  0  0  0  0  0  0  0  0  0  0
  184.8450  177.8880  142.0170 F   0  0  0  0  0  0  0  0  0  0  0  0
  185.4000  177.4620  145.6240 C   0  0  0  0  0  0  0  0  0  0  0  0
  183.7600  179.1600  145.2250 N   0  0  0  0  0  0  0  0  0  0  0  0
  184.7480  178.0430  143.3610 C   0  0  0  0  0  0  0  0  0  0  0  0
  184.3570  178.6360  147.4310 F   0  0  0  0  0  0  0  0  0  0  0  0
  183.8660  178.9900  143.8820 C   0  0  0  0  0  3  0  0  0  0  0  0
  186.2120  176.6650  146.5940 C   0  0  0  0  0  1  0  0  0  0  0  0
  1  3  1  0  0  0  0
  2  1  2  0  0  0  0
  2  4  1  0  0  0  0
  3  7  1  0  0  0  0
  3  5  1  0  0  0  0
  4 23  1  1  0  0  0
  4  6  1  0  0  0  0
  6  5  1  0  0  0  0
  7  8  2  0  0  0  0
  9  7  2  0  0  0  0
 10  7  1  6  0  0  0
 10 13  1  0  0  0  0
 11 12  1  0  0  0  0
 12 21  1  6  0  0  0
 13 12  1  0  0  0  0
 14 10  1  0  0  0  0
 14 11  1  0  0  0  0
 16 15  1  0  0  0  0
 17 16  2  0  0  0  0
 18 17  1  0  0  0  0
 19 21  2  0  0  0  0
 20 18  2  0  0  0  0
 20 19  1  0  0  0  0
 21 16  1  0  0  0  0
 22 20  1  0  0  0  0
 22 19  1  0  0  0  0
 23 25  1  0  0  0  0
 24 30  1  0  0  0  0
 25 27  2  0  0  0  0
 26 29  1  0  0  0  0
 27 24  1  0  0  0  0
 27 32  1  0  0  0  0
 28 24  2  0  0  0  0
 29 31  2  0  0  0  0
 29 25  1  0  0  0  0
 31 28  1  0  0  0  0
M  END
>  <MODEL>
3

>  <REMARK>
 VINA RESULT:      -7.6      3.072      4.178
  Name = 
  5 active torsions:
  status: ('A' for Active; 'I' for Inactive)
    1  A    between atoms: C_4  and  C_6
    2  A    between atoms: C_6  and  C_25
    3  A    between atoms: C_9  and  S_12
    4  A    between atoms: N_11  and  S_12
    5  A    between atoms: C_15  and  C_22
                            x       y       z     vdW  Elec       q    Type
                         _______ _______ _______ _____ _____    ______ ____

>  <TORSDO>
F 5

$$$$
=
 OpenBabel11062419033D

 32 36  0  0  1  0  0  0  0  0999 V2000
  190.4790  175.4750  144.2940 C   0  0  0  0  0  3  0  0  0  0  0  0
  189.5520  175.6440  143.3980 N   0  0  0  0  0  0  0  0  0  0  0  0
  190.5530  176.3250  145.4440 N   0  0  0  0  0  0  0  0  0  0  0  0
  188.5060  176.6640  143.5090 C   0  0  2  0  0  3  0  0  0  0  0  0
  189.5390  177.3480  145.6830 C   0  0  0  0  0  2  0  0  0  0  0  0
  188.9810  177.8520  144.3560 C   0  0  0  0  0  2  0  0  0  0  0  0
  191.8730  176.1560  146.5510 S   0  0  0  0  0  0  0  0  0  0  0  0
  191.6500  177.0490  147.7390 O   0  0  0  0  0  0  0  0  0  0  0  0
  191.9490  174.7310  147.0250 O   0  0  0  0  0  0  0  0  0  0  0  0
  193.3960  176.5920  145.7350 C   0  0  1  0  0  3  0  0  0  0  0  0
  194.7020  175.7870  144.0250 N   0  0  0  0  0  2  0  0  0  0  0  0
  195.3790  175.4040  145.2580 C   0  0  1  0  0  3  0  0  0  0  0  0
  194.5580  175.9200  146.4100 C   0  0  0  0  0  2  0  0  0  0  0  0
  193.3770  176.1220  144.3600 N   0  0  0  0  0  2  0  0  0  0  0  0
  197.9290  173.9830  145.7510 O   0  0  0  0  0  1  0  0  0  0  0  0
  196.7710  173.2330  145.5850 C   0  0  0  0  0  0  0  0  0  0  0  0
  196.8720  171.7740  145.6710 C   0  0  0  0  0  3  0  0  0  0  0  0
  195.7650  170.8640  145.5310 C   0  0  0  0  0  3  0  0  0  0  0  0
  194.5040  173.0220  145.2170 C   0  0  0  0  0  0  0  0  0  0  0  0
  194.6230  171.5720  145.3100 C   0  0  0  0  0  0  0  0  0  0  0  0
  195.5260  173.9140  145.3390 C   0  0  0  0  0  0  0  0  0  0  0  0
  193.3840  172.1880  145.0770 C   0  0  0  0  0  2  0  0  0  0  0  0
  187.2320  176.0410  144.0760 C   0  0  0  0  0  2  0  0  0  0  0  0
  184.3800  178.3670  145.0620 C   0  0  0  0  0  0  0  0  0  0  0  0
  186.0800  176.9990  144.0080 C   0  0  0  0  0  0  0  0  0  0  0  0
  186.1620  176.9590  141.6090 F   0  0  0  0  0  0  0  0  0  0  0  0
  185.4670  177.4880  145.1780 C   0  0  0  0  0  0  0  0  0  0  0  0
  183.9310  178.7380  143.8330 N   0  0  0  0  0  0  0  0  0  0  0  0
  185.5930  177.4040  142.7570 C   0  0  0  0  0  0  0  0  0  0  0  0
  183.7680  178.8540  146.1700 F   0  0  0  0  0  0  0  0  0  0  0  0
  184.5090  178.2810  142.6930 C   0  0  0  0  0  3  0  0  0  0  0  0
  185.9560  177.0920  146.5340 C   0  0  0  0  0  1  0  0  0  0  0  0
  1  3  1  0  0  0  0
  2  4  1  0  0  0  0
  2  1  2  0  0  0  0
  3  5  1  0  0  0  0
  3  7  1  0  0  0  0
  4 23  1  1  0  0  0
  4  6  1  0  0  0  0
  6  5  1  0  0  0  0
  7  9  2  0  0  0  0
  7  8  2  0  0  0  0
 10 13  1  0  0  0  0
 10  7  1  1  0  0  0
 11 14  1  0  0  0  0
 11 12  1  0  0  0  0
 12 21  1  1  0  0  0
 12 13  1  0  0  0  0
 14 10  1  0  0  0  0
 16 17  1  0  0  0  0
 16 15  1  0  0  0  0
 18 17  2  0  0  0  0
 19 20  2  0  0  0  0
 19 21  1  0  0  0  0
 20 18  1  0  0  0  0
 21 16  2  0  0  0  0
 22 19  1  0  0  0  0
 22 20  1  0  0  0  0
 24 27  1  0  0  0  0
 24 30  1  0  0  0  0
 25 23  1  0  0  0  0
 25 27  2  0  0  0  0
 26 29  1  0  0  0  0
 27 32  1  0  0  0  0
 28 24  2  0  0  0  0
 29 25  1  0  0  0  0
 31 29  2  0  0  0  0
 31 28  1  0  0  0  0
M  END
>  <MODEL>
4

>  <REMARK>
 VINA RESULT:      -7.6      3.359      4.562
  Name = 
  5 active torsions:
  status: ('A' for Active; 'I' for Inactive)
    1  A    between atoms: C_4  and  C_6
    2  A    between atoms: C_6  and  C_25
    3  A    between atoms: C_9  and  S_12
    4  A    between atoms: N_11  and  S_12
    5  A    between atoms: C_15  and  C_22
                            x       y       z     vdW  Elec       q    Type
                         _______ _______ _______ _____ _____    ______ ____

>  <TORSDO>
F 5

$$$$
=
 OpenBabel11062419033D

 32 36  0  0  1  0  0  0  0  0999 V2000
  192.3320  175.4970  143.9740 C   0  0  0  0  0  3  0  0  0  0  0  0
  193.1950  174.5900  144.3230 N   0  0  0  0  0  0  0  0  0  0  0  0
  191.7700  176.3880  144.9450 N   0  0  0  0  0  0  0  0  0  0  0  0
  193.6880  174.4350  145.6940 C   0  0  2  0  0  3  0  0  0  0  0  0
  192.2170  176.3560  146.3340 C   0  0  0  0  0  2  0  0  0  0  0  0
  192.6580  174.9450  146.7110 C   0  0  0  0  0  2  0  0  0  0  0  0
  190.5300  177.4970  144.4720 S   0  0  0  0  0  0  0  0  0  0  0  0
  189.7370  177.9100  145.6810 O   0  0  0  0  0  0  0  0  0  0  0  0
  191.1570  178.7210  143.8650 O   0  0  0  0  0  0  0  0  0  0  0  0
  189.4610  176.7240  143.2750 C   0  0  1  0  0  3  0  0  0  0  0  0
  187.6080  177.2800  142.0360 N   0  0  0  0  0  2  0  0  0  0  0  0
  187.1210  176.4460  143.1280 C   0  0  1  0  0  3  0  0  0  0  0  0
  188.3090  176.0500  143.9650 C   0  0  0  0  0  2  0  0  0  0  0  0
  188.8940  177.7270  142.3900 N   0  0  0  0  0  2  0  0  0  0  0  0
  184.8790  178.0360  142.0290 O   0  0  0  0  0  1  0  0  0  0  0  0
  185.0250  177.9570  143.4080 C   0  0  0  0  0  0  0  0  0  0  0  0
  184.0540  178.6610  144.2490 C   0  0  0  0  0  3  0  0  0  0  0  0
  184.0650  178.6670  145.6890 C   0  0  0  0  0  3  0  0  0  0  0  0
  186.0900  177.2170  145.3160 C   0  0  0  0  0  0  0  0  0  0  0  0
  185.1120  177.9200  146.1360 C   0  0  0  0  0  0  0  0  0  0  0  0
  186.1160  177.1910  143.9540 C   0  0  0  0  0  0  0  0  0  0  0  0
  186.1530  177.1790  146.7170 C   0  0  0  0  0  2  0  0  0  0  0  0
  195.0310  175.1460  145.8460 C   0  0  0  0  0  2  0  0  0  0  0  0
  197.4740  174.7070  142.9550 C   0  0  0  0  0  0  0  0  0  0  0  0
  196.0590  174.5710  144.9180 C   0  0  0  0  0  0  0  0  0  0  0  0
  196.1350  172.5550  146.2200 F   0  0  0  0  0  0  0  0  0  0  0  0
  196.5260  175.2960  143.8040 C   0  0  0  0  0  0  0  0  0  0  0  0
  197.9330  173.4530  143.2110 N   0  0  0  0  0  0  0  0  0  0  0  0
  196.5560  173.2810  145.1540 C   0  0  0  0  0  0  0  0  0  0  0  0
  197.9410  175.3790  141.8740 F   0  0  0  0  0  0  0  0  0  0  0  0
  197.5000  172.7370  144.2810 C   0  0  0  0  0  3  0  0  0  0  0  0
  196.0330  176.6780  143.5160 C   0  0  0  0  0  1  0  0  0  0  0  0
  1  2  2  0  0  0  0
  1  3  1  0  0  0  0
  2  4  1  0  0  0  0
  3  5  1  0  0  0  0
  4 23  1  6  0  0  0
  4  6  1  0  0  0  0
  5  6  1  0  0  0  0
  7  3  1  0  0  0  0
  7  8  2  0  0  0  0
  9  7  2  0  0  0  0
 10 13  1  0  0  0  0
 10  7  1  1  0  0  0
 11 14  1  0  0  0  0
 11 12  1  0  0  0  0
 12 21  1  1  0  0  0
 12 13  1  0  0  0  0
 14 10  1  0  0  0  0
 15 16  1  0  0  0  0
 16 21  2  0  0  0  0
 16 17  1  0  0  0  0
 17 18  2  0  0  0  0
 18 20  1  0  0  0  0
 19 20  2  0  0  0  0
 19 22  1  0  0  0  0
 20 22  1  0  0  0  0
 21 19  1  0  0  0  0
 24 28  2  0  0  0  0
 24 27  1  0  0  0  0
 25 29  1  0  0  0  0
 25 23  1  0  0  0  0
 27 25  2  0  0  0  0
 28 31  1  0  0  0  0
 29 26  1  0  0  0  0
 30 24  1  0  0  0  0
 31 29  2  0  0  0  0
 32 27  1  0  0  0  0
M  END
>  <MODEL>
5

>  <REMARK>
 VINA RESULT:      -7.5      4.286      8.722
  Name = 
  5 active torsions:
  status: ('A' for Active; 'I' for Inactive)
    1  A    between atoms: C_4  and  C_6
    2  A    between atoms: C_6  and  C_25
    3  A    between atoms: C_9  and  S_12
    4  A    between atoms: N_11  and  S_12
    5  A    between atoms: C_15  and  C_22
                            x       y       z     vdW  Elec       q    Type
                         _______ _______ _______ _____ _____    ______ ____

>  <TORSDO>
F 5

$$$$
=
 OpenBabel11062419033D

 32 36  0  0  1  0  0  0  0  0999 V2000
  190.4970  177.2060  146.6120 C   0  0  0  0  0  3  0  0  0  0  0  0
  189.2350  177.3570  146.8860 N   0  0  0  0  0  0  0  0  0  0  0  0
  191.0370  175.9100  146.3310 N   0  0  0  0  0  0  0  0  0  0  0  0
  188.2760  176.2500  146.8880 C   0  0  2  0  0  3  0  0  0  0  0  0
  190.1700  174.7380  146.2630 C   0  0  0  0  0  2  0  0  0  0  0  0
  188.9730  174.9170  147.1910 C   0  0  0  0  0  2  0  0  0  0  0  0
  192.7420  175.7250  146.0960 S   0  0  0  0  0  0  0  0  0  0  0  0
  193.4730  176.7910  146.8650 O   0  0  0  0  0  0  0  0  0  0  0  0
  193.1750  174.3790  146.6060 O   0  0  0  0  0  0  0  0  0  0  0  0
  193.1230  175.8530  144.3600 C   0  0  1  0  0  3  0  0  0  0  0  0
  191.9900  176.1760  142.3880 N   0  0  0  0  0  2  0  0  0  0  0  0
  192.3100  174.7540  142.4360 C   0  0  1  0  0  3  0  0  0  0  0  0
  193.0640  174.4980  143.7140 C   0  0  0  0  0  2  0  0  0  0  0  0
  192.1340  176.6830  143.6930 N   0  0  0  0  0  2  0  0  0  0  0  0
  192.2390  171.7950  142.4110 O   0  0  0  0  0  1  0  0  0  0  0  0
  191.0360  172.4890  142.3780 C   0  0  0  0  0  0  0  0  0  0  0  0
  189.7910  171.7180  142.3410 C   0  0  0  0  0  3  0  0  0  0  0  0
  188.4700  172.2910  142.3140 C   0  0  0  0  0  3  0  0  0  0  0  0
  189.7930  174.4330  142.3620 C   0  0  0  0  0  0  0  0  0  0  0  0
  188.5650  173.6490  142.3300 C   0  0  0  0  0  0  0  0  0  0  0  0
  191.0590  173.9290  142.3830 C   0  0  0  0  0  0  0  0  0  0  0  0
  188.5350  175.0520  142.3430 C   0  0  0  0  0  2  0  0  0  0  0  0
  187.5310  176.2070  145.5560 C   0  0  0  0  0  2  0  0  0  0  0  0
  185.5470  179.2730  144.4690 C   0  0  0  0  0  0  0  0  0  0  0  0
  186.4880  177.2810  145.4800 C   0  0  0  0  0  0  0  0  0  0  0  0
  185.3700  176.3590  147.3940 F   0  0  0  0  0  0  0  0  0  0  0  0
  186.5360  178.2770  144.4850 C   0  0  0  0  0  0  0  0  0  0  0  0
  184.5580  179.2680  145.4020 N   0  0  0  0  0  0  0  0  0  0  0  0
  185.4530  177.3050  146.4260 C   0  0  0  0  0  0  0  0  0  0  0  0
  185.5670  180.2460  143.5250 F   0  0  0  0  0  0  0  0  0  0  0  0
  184.4910  178.3150  146.3680 C   0  0  0  0  0  3  0  0  0  0  0  0
  187.6140  178.2900  143.4500 C   0  0  0  0  0  1  0  0  0  0  0  0
  1  2  2  0  0  0  0
  2  4  1  0  0  0  0
  3  1  1  0  0  0  0
  4 23  1  6  0  0  0
  4  6  1  0  0  0  0
  5  3  1  0  0  0  0
  5  6  1  0  0  0  0
  7  3  1  0  0  0  0
  7  9  2  0  0  0  0
  7  8  2  0  0  0  0
 10  7  1  1  0  0  0
 11 12  1  0  0  0  0
 11 14  1  0  0  0  0
 12 21  1  1  0  0  0
 12 13  1  0  0  0  0
 13 10  1  0  0  0  0
 14 10  1  0  0  0  0
 16 21  1  0  0  0  0
 16 15  1  0  0  0  0
 17 16  2  0  0  0  0
 18 20  2  0  0  0  0
 18 17  1  0  0  0  0
 19 21  2  0  0  0  0
 20 22  1  0  0  0  0
 20 19  1  0  0  0  0
 22 19  1  0  0  0  0
 24 27  2  0  0  0  0
 24 28  1  0  0  0  0
 25 23  1  0  0  0  0
 25 29  2  0  0  0  0
 27 25  1  0  0  0  0
 28 31  2  0  0  0  0
 29 26  1  0  0  0  0
 30 24  1  0  0  0  0
 31 29  1  0  0  0  0
 32 27  1  0  0  0  0
M  END
>  <MODEL>
6

>  <REMARK>
 VINA RESULT:      -7.5      2.450      4.721
  Name = 
  5 active torsions:
  status: ('A' for Active; 'I' for Inactive)
    1  A    between atoms: C_4  and  C_6
    2  A    between atoms: C_6  and  C_25
    3  A    between atoms: C_9  and  S_12
    4  A    between atoms: N_11  and  S_12
    5  A    between atoms: C_15  and  C_22
                            x       y       z     vdW  Elec       q    Type
                         _______ _______ _______ _____ _____    ______ ____

>  <TORSDO>
F 5

$$$$
=
 OpenBabel11062419033D

 32 36  0  0  1  0  0  0  0  0999 V2000
  189.7920  177.5530  144.5600 C   0  0  0  0  0  3  0  0  0  0  0  0
  188.7720  177.9250  145.2740 N   0  0  0  0  0  0  0  0  0  0  0  0
  190.4460  176.3030  144.8090 N   0  0  0  0  0  0  0  0  0  0  0  0
  188.1930  177.1000  146.3380 C   0  0  2  0  0  3  0  0  0  0  0  0
  189.9320  175.3790  145.8150 C   0  0  0  0  0  2  0  0  0  0  0  0
  189.2420  176.1520  146.9340 C   0  0  0  0  0  2  0  0  0  0  0  0
  191.8780  175.8960  143.9260 S   0  0  0  0  0  0  0  0  0  0  0  0
  191.8950  174.4180  143.6510 O   0  0  0  0  0  0  0  0  0  0  0  0
  191.8850  176.6310  142.6150 O   0  0  0  0  0  0  0  0  0  0  0  0
  193.3150  176.3580  144.8730 C   0  0  1  0  0  3  0  0  0  0  0  0
  195.5690  175.9140  144.8720 N   0  0  0  0  0  2  0  0  0  0  0  0
  195.0080  175.1230  145.9610 C   0  0  1  0  0  3  0  0  0  0  0  0
  193.5260  175.3910  146.0030 C   0  0  0  0  0  2  0  0  0  0  0  0
  194.5030  176.2970  144.0370 N   0  0  0  0  0  2  0  0  0  0  0  0
  197.6440  173.8240  146.3090 O   0  0  0  0  0  1  0  0  0  0  0  0
  196.5620  173.0410  145.9250 C   0  0  0  0  0  0  0  0  0  0  0  0
  196.7820  171.6070  145.7200 C   0  0  0  0  0  3  0  0  0  0  0  0
  195.7630  170.6670  145.3320 C   0  0  0  0  0  3  0  0  0  0  0  0
  194.3390  172.7430  145.3860 C   0  0  0  0  0  0  0  0  0  0  0  0
  194.5760  171.3180  145.1910 C   0  0  0  0  0  0  0  0  0  0  0  0
  195.2760  173.6640  145.7470 C   0  0  0  0  0  0  0  0  0  0  0  0
  193.3010  171.8760  145.0130 C   0  0  0  0  0  2  0  0  0  0  0  0
  186.9830  176.3380  145.8020 C   0  0  0  0  0  2  0  0  0  0  0  0
  184.6350  178.2760  143.5110 C   0  0  0  0  0  0  0  0  0  0  0  0
  185.9260  177.2770  145.3020 C   0  0  0  0  0  0  0  0  0  0  0  0
  185.5030  178.0260  147.5440 F   0  0  0  0  0  0  0  0  0  0  0  0
  185.6190  177.3680  143.9310 C   0  0  0  0  0  0  0  0  0  0  0  0
  183.9900  179.0520  144.4220 N   0  0  0  0  0  0  0  0  0  0  0  0
  185.2390  178.0910  146.2150 C   0  0  0  0  0  0  0  0  0  0  0  0
  184.3180  178.3870  142.1980 F   0  0  0  0  0  0  0  0  0  0  0  0
  184.2680  178.9780  145.7490 C   0  0  0  0  0  3  0  0  0  0  0  0
  186.3170  176.5150  142.9210 C   0  0  0  0  0  1  0  0  0  0  0  0
  1  3  1  0  0  0  0
  1  2  2  0  0  0  0
  2  4  1  0  0  0  0
  3  5  1  0  0  0  0
  4 23  1  6  0  0  0
  4  6  1  0  0  0  0
  5  6  1  0  0  0  0
  7  3  1  0  0  0  0
  8  7  2  0  0  0  0
  9  7  2  0  0  0  0
 10  7  1  6  0  0  0
 10 13  1  0  0  0  0
 11 12  1  0  0  0  0
 12 21  1  6  0  0  0
 12 13  1  0  0  0  0
 14 11  1  0  0  0  0
 14 10  1  0  0  0  0
 16 15  1  0  0  0  0
 17 16  2  0  0  0  0
 18 17  1  0  0  0  0
 19 21  2  0  0  0  0
 20 18  2  0  0  0  0
 20 19  1  0  0  0  0
 21 16  1  0  0  0  0
 22 20  1  0  0  0  0
 22 19  1  0  0  0  0
 24 27  2  0  0  0  0
 24 28  1  0  0  0  0
 25 23  1  0  0  0  0
 25 29  2  0  0  0  0
 27 25  1  0  0  0  0
 28 31  2  0  0  0  0
 29 26  1  0  0  0  0
 30 24  1  0  0  0  0
 31 29  1  0  0  0  0
 32 27  1  0  0  0  0
M  END
>  <MODEL>
7

>  <REMARK>
 VINA RESULT:      -7.5      3.317      4.489
  Name = 
  5 active torsions:
  status: ('A' for Active; 'I' for Inactive)
    1  A    between atoms: C_4  and  C_6
    2  A    between atoms: C_6  and  C_25
    3  A    between atoms: C_9  and  S_12
    4  A    between atoms: N_11  and  S_12
    5  A    between atoms: C_15  and  C_22
                            x       y       z     vdW  Elec       q    Type
                         _______ _______ _______ _____ _____    ______ ____

>  <TORSDO>
F 5

$$$$
=
 OpenBabel11062419033D

 32 36  0  0  1  0  0  0  0  0999 V2000
  192.4180  175.6370  143.3550 C   0  0  0  0  0  3  0  0  0  0  0  0
  193.0790  174.5280  143.5040 N   0  0  0  0  0  0  0  0  0  0  0  0
  191.2940  175.9390  144.1900 N   0  0  0  0  0  0  0  0  0  0  0  0
  192.7660  173.5390  144.5390 C   0  0  2  0  0  3  0  0  0  0  0  0
  190.9150  175.0500  145.2830 C   0  0  0  0  0  2  0  0  0  0  0  0
  191.2870  173.6110  144.9410 C   0  0  0  0  0  2  0  0  0  0  0  0
  190.3580  177.3620  143.8830 S   0  0  0  0  0  0  0  0  0  0  0  0
  189.8580  177.9260  145.1840 O   0  0  0  0  0  0  0  0  0  0  0  0
  191.2200  178.3930  143.2090 O   0  0  0  0  0  0  0  0  0  0  0  0
  188.9830  176.9560  142.8240 C   0  0  1  0  0  3  0  0  0  0  0  0
  186.9580  177.8690  142.2380 N   0  0  0  0  0  2  0  0  0  0  0  0
  186.6540  176.7960  143.1780 C   0  0  1  0  0  3  0  0  0  0  0  0
  187.9580  176.1620  143.5840 C   0  0  0  0  0  2  0  0  0  0  0  0
  188.3260  178.1710  142.3730 N   0  0  0  0  0  2  0  0  0  0  0  0
  184.2230  178.4810  143.0650 O   0  0  0  0  0  1  0  0  0  0  0  0
  184.7440  178.1480  144.3100 C   0  0  0  0  0  0  0  0  0  0  0  0
  184.0570  178.6420  145.5050 C   0  0  0  0  0  3  0  0  0  0  0  0
  184.4670  178.3750  146.8590 C   0  0  0  0  0  3  0  0  0  0  0  0
  186.2840  177.0990  145.6710 C   0  0  0  0  0  0  0  0  0  0  0  0
  185.5830  177.5960  146.8480 C   0  0  0  0  0  0  0  0  0  0  0  0
  185.9310  177.3330  144.3760 C   0  0  0  0  0  0  0  0  0  0  0  0
  186.7310  176.7980  146.9660 C   0  0  0  0  0  2  0  0  0  0  0  0
  193.6880  173.7380  145.7410 C   0  0  0  0  0  2  0  0  0  0  0  0
  196.9080  171.8090  145.0900 C   0  0  0  0  0  0  0  0  0  0  0  0
  195.1090  173.4020  145.3990 C   0  0  0  0  0  0  0  0  0  0  0  0
  195.6020  175.7290  145.0740 F   0  0  0  0  0  0  0  0  0  0  0  0
  195.5640  172.0690  145.3970 C   0  0  0  0  0  0  0  0  0  0  0  0
  197.7520  172.8330  144.7960 N   0  0  0  0  0  0  0  0  0  0  0  0
  196.0060  174.4340  145.0890 C   0  0  0  0  0  0  0  0  0  0  0  0
  197.3770  170.5370  145.0810 F   0  0  0  0  0  0  0  0  0  0  0  0
  197.3330  174.1250  144.7890 C   0  0  0  0  0  3  0  0  0  0  0  0
  194.6440  170.9340  145.7120 C   0  0  0  0  0  1  0  0  0  0  0  0
  1  2  2  0  0  0  0
  1  3  1  0  0  0  0
  2  4  1  0  0  0  0
  3  5  1  0  0  0  0
  4  6  1  0  0  0  0
  4 23  1  1  0  0  0
  6  5  1  0  0  0  0
  7  3  1  0  0  0  0
  7  8  2  0  0  0  0
  9  7  2  0  0  0  0
 10 13  1  0  0  0  0
 10  7  1  1  0  0  0
 11 14  1  0  0  0  0
 11 12  1  0  0  0  0
 12 13  1  0  0  0  0
 12 21  1  1  0  0  0
 14 10  1  0  0  0  0
 15 16  1  0  0  0  0
 16 21  2  0  0  0  0
 16 17  1  0  0  0  0
 17 18  2  0  0  0  0
 19 20  2  0  0  0  0
 19 22  1  0  0  0  0
 20 18  1  0  0  0  0
 20 22  1  0  0  0  0
 21 19  1  0  0  0  0
 24 27  1  0  0  0  0
 25 23  1  0  0  0  0
 26 29  1  0  0  0  0
 27 25  2  0  0  0  0
 27 32  1  0  0  0  0
 28 24  2  0  0  0  0
 29 25  1  0  0  0  0
 30 24  1  0  0  0  0
 31 28  1  0  0  0  0
 31 29  2  0  0  0  0
M  END
>  <MODEL>
8

>  <REMARK>
 VINA RESULT:      -7.5      4.285      8.442
  Name = 
  5 active torsions:
  status: ('A' for Active; 'I' for Inactive)
    1  A    between atoms: C_4  and  C_6
    2  A    between atoms: C_6  and  C_25
    3  A    between atoms: C_9  and  S_12
    4  A    between atoms: N_11  and  S_12
    5  A    between atoms: C_15  and  C_22
                            x       y       z     vdW  Elec       q    Type
                         _______ _______ _______ _____ _____    ______ ____

>  <TORSDO>
F 5

$$$$
=
 OpenBabel11062419033D

 32 36  0  0  1  0  0  0  0  0999 V2000
  190.0690  176.0930  142.6530 C   0  0  0  0  0  3  0  0  0  0  0  0
  189.5850  177.0900  143.3330 N   0  0  0  0  0  0  0  0  0  0  0  0
  189.2050  175.1020  142.0850 N   0  0  0  0  0  0  0  0  0  0  0  0
  188.1490  177.3020  143.5330 C   0  0  2  0  0  3  0  0  0  0  0  0
  187.7540  175.2320  142.1830 C   0  0  0  0  0  2  0  0  0  0  0  0
  187.3800  175.9760  143.4610 C   0  0  0  0  0  2  0  0  0  0  0  0
  189.8880  173.7220  141.2970 S   0  0  0  0  0  0  0  0  0  0  0  0
  188.8680  173.1130  140.3750 O   0  0  0  0  0  0  0  0  0  0  0  0
  191.0790  174.1470  140.4840 O   0  0  0  0  0  0  0  0  0  0  0  0
  190.3980  172.5280  142.5170 C   0  0  1  0  0  3  0  0  0  0  0  0
  189.9850  172.0740  144.7310 N   0  0  0  0  0  2  0  0  0  0  0  0
  191.2960  172.7130  144.6920 C   0  0  1  0  0  3  0  0  0  0  0  0
  191.6110  173.0210  143.2530 C   0  0  0  0  0  2  0  0  0  0  0  0
  189.3480  172.3470  143.5060 N   0  0  0  0  0  2  0  0  0  0  0  0
  193.7080  174.2970  145.3540 O   0  0  0  0  0  1  0  0  0  0  0  0
  192.4750  174.7320  145.8260 C   0  0  0  0  0  0  0  0  0  0  0  0
  192.4340  175.9610  146.6220 C   0  0  0  0  0  3  0  0  0  0  0  0
  191.2370  176.5440  147.1720 C   0  0  0  0  0  3  0  0  0  0  0  0
  190.1860  174.5500  146.0470 C   0  0  0  0  0  0  0  0  0  0  0  0
  190.1640  175.7780  146.8340 C   0  0  0  0  0  0  0  0  0  0  0  0
  191.2970  173.9660  145.5150 C   0  0  0  0  0  0  0  0  0  0  0  0
  188.9850  175.0710  146.5510 C   0  0  0  0  0  2  0  0  0  0  0  0
  187.6270  178.3130  142.5150 C   0  0  0  0  0  2  0  0  0  0  0  0
  183.9520  178.2050  141.5140 C   0  0  0  0  0  0  0  0  0  0  0  0
  186.1310  178.4060  142.5560 C   0  0  0  0  0  0  0  0  0  0  0  0
  186.2200  179.1500  144.8370 F   0  0  0  0  0  0  0  0  0  0  0  0
  185.3470  178.0830  141.4310 C   0  0  0  0  0  0  0  0  0  0  0  0
  183.3720  178.6280  142.6690 N   0  0  0  0  0  0  0  0  0  0  0  0
  185.4990  178.8370  143.7310 C   0  0  0  0  0  0  0  0  0  0  0  0
  183.1710  177.9030  140.4480 F   0  0  0  0  0  0  0  0  0  0  0  0
  184.1080  178.9410  143.7660 C   0  0  0  0  0  3  0  0  0  0  0  0
  185.9740  177.6110  140.1580 C   0  0  0  0  0  1  0  0  0  0  0  0
  1  2  2  0  0  0  0
  2  4  1  0  0  0  0
  3  5  1  0  0  0  0
  3  1  1  0  0  0  0
  4 23  1  6  0  0  0
  5  6  1  0  0  0  0
  6  4  1  0  0  0  0
  7  3  1  0  0  0  0
  8  7  2  0  0  0  0
  9  7  2  0  0  0  0
 10  7  1  6  0  0  0
 10 13  1  0  0  0  0
 10 14  1  0  0  0  0
 12 11  1  0  0  0  0
 12 21  1  1  0  0  0
 13 12  1  0  0  0  0
 14 11  1  0  0  0  0
 15 16  1  0  0  0  0
 16 17  1  0  0  0  0
 17 18  2  0  0  0  0
 19 22  1  0  0  0  0
 19 20  2  0  0  0  0
 20 18  1  0  0  0  0
 21 16  2  0  0  0  0
 21 19  1  0  0  0  0
 22 20  1  0  0  0  0
 23 25  1  0  0  0  0
 24 28  1  0  0  0  0
 25 29  2  0  0  0  0
 27 24  2  0  0  0  0
 27 25  1  0  0  0  0
 28 31  2  0  0  0  0
 29 31  1  0  0  0  0
 29 26  1  0  0  0  0
 30 24  1  0  0  0  0
 32 27  1  0  0  0  0
M  END
>  <MODEL>
9

>  <REMARK>
 VINA RESULT:      -7.4      2.053      3.240
  Name = 
  5 active torsions:
  status: ('A' for Active; 'I' for Inactive)
    1  A    between atoms: C_4  and  C_6
    2  A    between atoms: C_6  and  C_25
    3  A    between atoms: C_9  and  S_12
    4  A    between atoms: N_11  and  S_12
    5  A    between atoms: C_15  and  C_22
                            x       y       z     vdW  Elec       q    Type
                         _______ _______ _______ _____ _____    ______ ____

>  <TORSDO>
F 5

$$$$
