=
 OpenBabel11062422443D

 29 32  0  0  1  0  0  0  0  0999 V2000
  189.3470  176.8820  144.1100 C   0  0  0  0  0  0  0  0  0  0  0  0
  189.5850  177.9610  144.7200 O   0  0  0  0  0  0  0  0  0  0  0  0
  188.8210  173.8140  141.2130 N   0  0  0  0  0  1  0  0  0  0  0  0
  188.9740  174.7280  142.2940 C   0  0  0  0  0  0  0  0  0  0  0  0
  188.0070  176.5660  143.7000 N   0  0  0  0  0  0  0  0  0  0  0  0
  186.6430  175.1440  142.4340 O   0  0  0  0  0  0  0  0  0  0  0  0
  190.1640  174.9770  142.7550 N   0  0  0  0  0  0  0  0  0  0  0  0
  187.8050  175.4610  142.8070 C   0  0  0  0  0  0  0  0  0  0  0  0
  190.4470  175.8630  143.8900 C   0  0  1  0  0  3  0  0  0  0  0  0
  185.1280  178.6830  142.8180 C   0  0  0  0  0  3  0  0  0  0  0  0
  184.1630  178.8810  143.7190 C   0  0  0  0  0  0  0  0  0  0  0  0
  186.9090  177.4210  144.0580 C   0  0  2  0  0  3  0  0  0  0  0  0
  185.3260  178.1950  145.8360 C   0  0  0  0  0  0  0  0  0  0  0  0
  185.3450  178.1000  147.2110 O   0  0  0  0  0  0  0  0  0  0  0  0
  186.5810  178.5560  143.1380 C   0  0  0  0  0  2  0  0  0  0  0  0
  186.2880  177.1390  147.6650 C   0  0  0  0  0  3  0  0  0  0  0  0
  186.9260  176.5310  146.4040 C   0  0  0  0  0  3  0  0  0  0  0  0
  186.3760  177.3540  145.2870 C   0  0  0  0  0  0  0  0  0  0  0  0
  182.8820  179.1440  143.2530 O   0  0  0  0  0  1  0  0  0  0  0  0
  184.3700  178.8580  145.1820 C   0  0  0  0  0  2  0  0  0  0  0  0
  191.7990  176.4790  143.7080 C   0  0  0  0  0  3  0  0  0  0  0  0
  192.8130  175.7640  143.2410 C   0  0  0  0  0  3  0  0  0  0  0  0
  194.0660  176.3490  143.0560 O   0  0  0  0  0  0  0  0  0  0  0  0
  196.4250  176.7390  143.4450 C   0  0  0  0  0  1  0  0  0  0  0  0
  194.8000  176.8390  145.3290 C   0  0  0  0  0  2  0  0  0  0  0  0
  195.3070  174.6970  144.2880 C   0  0  0  0  0  2  0  0  0  0  0  0
  195.1250  176.1740  143.9960 C   0  0  0  0  0  0  0  0  0  0  0  0
  195.6250  174.6050  145.7630 C   0  0  0  0  0  2  0  0  0  0  0  0
  194.8900  175.7630  146.3970 C   0  0  0  0  0  2  0  0  0  0  0  0
  1  2  2  0  0  0  0
  3  4  1  0  0  0  0
  4  7  2  0  0  0  0
  4  8  1  0  0  0  0
  5 12  1  0  0  0  0
  5  1  1  0  0  0  0
  6  8  2  0  0  0  0
  7  9  1  0  0  0  0
  8  5  1  0  0  0  0
  9 21  1  6  0  0  0
  9  1  1  0  0  0  0
 10 15  1  0  0  0  0
 10 11  2  0  0  0  0
 11 20  1  0  0  0  0
 12 15  1  1  0  0  0
 12 18  1  0  0  0  0
 13 14  1  0  0  0  0
 14 16  1  0  0  0  0
 17 16  2  0  0  0  0
 18 13  2  0  0  0  0
 18 17  1  0  0  0  0
 19 11  1  0  0  0  0
 20 13  1  0  0  0  0
 22 21  2  0  0  0  0
 23 22  1  0  0  0  0
 23 27  1  0  0  0  0
 24 27  1  0  0  0  0
 25 29  1  0  0  0  0
 26 28  1  0  0  0  0
 27 26  1  0  0  0  0
 27 25  1  0  0  0  0
 28 29  1  0  0  0  0
M  END
>  <MODEL>
1

>  <REMARK>
 VINA RESULT:      -7.8      0.000      0.000
  Name = 
  4 active torsions:
  status: ('A' for Active; 'I' for Inactive)
    1  A    between atoms: C_7  and  N_10
    2  A    between atoms: C_12  and  C_29
    3  A    between atoms: C_13  and  O_18
    4  A    between atoms: O_18  and  C_20
                            x       y       z     vdW  Elec       q    Type
                         _______ _______ _______ _____ _____    ______ ____

>  <TORSDO>
F 4

$$$$
=
 OpenBabel11062422443D

 29 32  0  0  1  0  0  0  0  0999 V2000
  189.3480  176.4220  143.0530 C   0  0  0  0  0  0  0  0  0  0  0  0
  189.6020  177.5350  143.5910 O   0  0  0  0  0  0  0  0  0  0  0  0
  187.8400  172.5720  142.0610 N   0  0  0  0  0  1  0  0  0  0  0  0
  188.4170  173.8590  142.2500 C   0  0  0  0  0  0  0  0  0  0  0  0
  190.1790  175.2830  143.3270 N   0  0  0  0  0  0  0  0  0  0  0  0
  190.4380  172.9650  143.1100 O   0  0  0  0  0  0  0  0  0  0  0  0
  187.7320  174.9180  141.9310 N   0  0  0  0  0  0  0  0  0  0  0  0
  189.7310  173.9880  142.9000 C   0  0  0  0  0  0  0  0  0  0  0  0
  188.2310  176.2940  142.0380 C   0  0  1  0  0  3  0  0  0  0  0  0
  193.7150  176.2010  143.7810 C   0  0  0  0  0  3  0  0  0  0  0  0
  194.1560  176.5140  145.0020 C   0  0  0  0  0  0  0  0  0  0  0  0
  191.3580  175.4120  144.1380 C   0  0  2  0  0  3  0  0  0  0  0  0
  192.3350  175.5510  146.4380 C   0  0  0  0  0  0  0  0  0  0  0  0
  191.8460  175.2240  147.6850 O   0  0  0  0  0  0  0  0  0  0  0  0
  192.6830  175.1620  143.4870 C   0  0  0  0  0  2  0  0  0  0  0  0
  190.4340  175.0510  147.6730 C   0  0  0  0  0  3  0  0  0  0  0  0
  189.9770  175.3350  146.2320 C   0  0  0  0  0  3  0  0  0  0  0  0
  191.2520  175.4990  145.4730 C   0  0  0  0  0  0  0  0  0  0  0  0
  195.2350  177.3820  145.1000 O   0  0  0  0  0  1  0  0  0  0  0  0
  193.5860  175.9820  146.2570 C   0  0  0  0  0  2  0  0  0  0  0  0
  187.0800  177.2150  142.3010 C   0  0  0  0  0  3  0  0  0  0  0  0
  186.2360  176.9800  143.2970 C   0  0  0  0  0  3  0  0  0  0  0  0
  185.1770  177.8520  143.5490 O   0  0  0  0  0  0  0  0  0  0  0  0
  185.3960  180.1930  144.1340 C   0  0  0  0  0  1  0  0  0  0  0  0
  183.9230  178.6890  145.4650 C   0  0  0  0  0  2  0  0  0  0  0  0
  186.3400  178.4160  145.5770 C   0  0  0  0  0  2  0  0  0  0  0  0
  185.2030  178.7720  144.6400 C   0  0  0  0  0  0  0  0  0  0  0  0
  185.8160  178.6660  146.9730 C   0  0  0  0  0  2  0  0  0  0  0  0
  184.3350  178.3830  146.8940 C   0  0  0  0  0  2  0  0  0  0  0  0
  1  5  1  0  0  0  0
  1  2  2  0  0  0  0
  3  4  1  0  0  0  0
  4  8  1  0  0  0  0
  7  9  1  0  0  0  0
  7  4  2  0  0  0  0
  8  6  2  0  0  0  0
  8  5  1  0  0  0  0
  9 21  1  1  0  0  0
  9  1  1  0  0  0  0
 10 11  2  0  0  0  0
 11 19  1  0  0  0  0
 11 20  1  0  0  0  0
 12  5  1  1  0  0  0
 12 18  1  0  0  0  0
 13 14  1  0  0  0  0
 15 10  1  0  0  0  0
 15 12  1  0  0  0  0
 16 14  1  0  0  0  0
 17 16  2  0  0  0  0
 18 17  1  0  0  0  0
 18 13  2  0  0  0  0
 20 13  1  0  0  0  0
 21 22  2  0  0  0  0
 22 23  1  0  0  0  0
 23 27  1  0  0  0  0
 24 27  1  0  0  0  0
 25 29  1  0  0  0  0
 26 28  1  0  0  0  0
 27 25  1  0  0  0  0
 27 26  1  0  0  0  0
 29 28  1  0  0  0  0
M  END
>  <MODEL>
2

>  <REMARK>
 VINA RESULT:      -7.8      2.015      7.372
  Name = 
  4 active torsions:
  status: ('A' for Active; 'I' for Inactive)
    1  A    between atoms: C_7  and  N_10
    2  A    between atoms: C_12  and  C_29
    3  A    between atoms: C_13  and  O_18
    4  A    between atoms: O_18  and  C_20
                            x       y       z     vdW  Elec       q    Type
                         _______ _______ _______ _____ _____    ______ ____

>  <TORSDO>
F 4

$$$$
=
 OpenBabel11062422443D

 29 32  0  0  1  0  0  0  0  0999 V2000
  191.4550  176.1720  144.3660 C   0  0  0  0  0  0  0  0  0  0  0  0
  191.9250  177.3320  144.5330 O   0  0  0  0  0  0  0  0  0  0  0  0
  189.7660  172.3010  144.8520 N   0  0  0  0  0  1  0  0  0  0  0  0
  190.3150  173.5740  144.5310 C   0  0  0  0  0  0  0  0  0  0  0  0
  192.3370  175.0400  144.2990 N   0  0  0  0  0  0  0  0  0  0  0  0
  192.5070  172.7050  144.2820 O   0  0  0  0  0  0  0  0  0  0  0  0
  189.5350  174.6140  144.4940 N   0  0  0  0  0  0  0  0  0  0  0  0
  191.7680  173.7240  144.3520 C   0  0  0  0  0  0  0  0  0  0  0  0
  189.9720  175.9690  144.1350 C   0  0  1  0  0  3  0  0  0  0  0  0
  195.6400  174.5090  145.8340 C   0  0  0  0  0  3  0  0  0  0  0  0
  196.7330  174.5810  145.0710 C   0  0  0  0  0  0  0  0  0  0  0  0
  193.7620  175.2180  144.3260 C   0  0  2  0  0  3  0  0  0  0  0  0
  195.8440  175.7930  143.0600 C   0  0  0  0  0  0  0  0  0  0  0  0
  196.0610  176.4270  141.8550 O   0  0  0  0  0  0  0  0  0  0  0  0
  194.4230  175.3570  145.6620 C   0  0  0  0  0  2  0  0  0  0  0  0
  194.8770  176.5010  141.0720 C   0  0  0  0  0  3  0  0  0  0  0  0
  193.7780  175.7940  141.8830 C   0  0  0  0  0  3  0  0  0  0  0  0
  194.4270  175.5040  143.1960 C   0  0  0  0  0  0  0  0  0  0  0  0
  197.8460  173.8440  145.4570 O   0  0  0  0  0  1  0  0  0  0  0  0
  196.8470  175.4080  143.8520 C   0  0  0  0  0  2  0  0  0  0  0  0
  189.1160  176.9670  144.8510 C   0  0  0  0  0  3  0  0  0  0  0  0
  187.9180  176.6300  145.3080 C   0  0  0  0  0  3  0  0  0  0  0  0
  187.1340  177.5600  145.9920 O   0  0  0  0  0  0  0  0  0  0  0  0
  184.7910  177.2280  146.5120 C   0  0  0  0  0  1  0  0  0  0  0  0
  185.5760  179.3790  145.5340 C   0  0  0  0  0  2  0  0  0  0  0  0
  185.5780  177.3640  144.1680 C   0  0  0  0  0  2  0  0  0  0  0  0
  185.8040  177.8720  145.5780 C   0  0  0  0  0  0  0  0  0  0  0  0
  184.7280  178.4110  143.4850 C   0  0  0  0  0  2  0  0  0  0  0  0
  185.1260  179.7200  144.1250 C   0  0  0  0  0  2  0  0  0  0  0  0
  1  2  2  0  0  0  0
  4  3  1  0  0  0  0
  5  8  1  0  0  0  0
  5  1  1  0  0  0  0
  6  8  2  0  0  0  0
  7  4  2  0  0  0  0
  8  4  1  0  0  0  0
  9  1  1  0  0  0  0
  9  7  1  0  0  0  0
  9 21  1  1  0  0  0
 11 19  1  0  0  0  0
 11 10  2  0  0  0  0
 12  5  1  1  0  0  0
 12 15  1  0  0  0  0
 13 18  2  0  0  0  0
 13 20  1  0  0  0  0
 14 13  1  0  0  0  0
 15 10  1  0  0  0  0
 16 14  1  0  0  0  0
 16 17  2  0  0  0  0
 17 18  1  0  0  0  0
 18 12  1  0  0  0  0
 20 11  1  0  0  0  0
 21 22  2  0  0  0  0
 22 23  1  0  0  0  0
 25 27  1  0  0  0  0
 26 27  1  0  0  0  0
 27 23  1  0  0  0  0
 27 24  1  0  0  0  0
 28 29  1  0  0  0  0
 28 26  1  0  0  0  0
 29 25  1  0  0  0  0
M  END
>  <MODEL>
3

>  <REMARK>
 VINA RESULT:      -7.7      2.092      8.919
  Name = 
  4 active torsions:
  status: ('A' for Active; 'I' for Inactive)
    1  A    between atoms: C_7  and  N_10
    2  A    between atoms: C_12  and  C_29
    3  A    between atoms: C_13  and  O_18
    4  A    between atoms: O_18  and  C_20
                            x       y       z     vdW  Elec       q    Type
                         _______ _______ _______ _____ _____    ______ ____

>  <TORSDO>
F 4

$$$$
=
 OpenBabel11062422443D

 29 32  0  0  1  0  0  0  0  0999 V2000
  191.7680  176.2190  143.9830 C   0  0  0  0  0  0  0  0  0  0  0  0
  192.1900  176.8400  144.9980 O   0  0  0  0  0  0  0  0  0  0  0  0
  189.6940  173.6890  141.2660 N   0  0  0  0  0  1  0  0  0  0  0  0
  190.4580  174.6020  142.0470 C   0  0  0  0  0  0  0  0  0  0  0  0
  192.4230  175.0160  143.5500 N   0  0  0  0  0  0  0  0  0  0  0  0
  192.3330  173.1530  142.1350 O   0  0  0  0  0  0  0  0  0  0  0  0
  189.9340  175.7430  142.3880 N   0  0  0  0  0  0  0  0  0  0  0  0
  191.7840  174.2090  142.5510 C   0  0  0  0  0  0  0  0  0  0  0  0
  190.6330  176.7830  143.1520 C   0  0  1  0  0  3  0  0  0  0  0  0
  194.2580  172.5680  145.5960 C   0  0  0  0  0  3  0  0  0  0  0  0
  195.5870  172.4920  145.4880 C   0  0  0  0  0  0  0  0  0  0  0  0
  193.6170  174.5550  144.2020 C   0  0  2  0  0  3  0  0  0  0  0  0
  196.1100  174.6860  144.3850 C   0  0  0  0  0  0  0  0  0  0  0  0
  197.0330  175.6140  143.9510 O   0  0  0  0  0  0  0  0  0  0  0  0
  193.4650  173.8300  145.5030 C   0  0  0  0  0  2  0  0  0  0  0  0
  196.4830  176.4970  142.9800 C   0  0  0  0  0  3  0  0  0  0  0  0
  195.0310  176.0420  142.7580 C   0  0  0  0  0  3  0  0  0  0  0  0
  194.8190  174.9850  143.7900 C   0  0  0  0  0  0  0  0  0  0  0  0
  196.1930  171.2740  145.7620 O   0  0  0  0  0  1  0  0  0  0  0  0
  196.4590  173.6250  145.1160 C   0  0  0  0  0  2  0  0  0  0  0  0
  189.6340  177.5560  143.9570 C   0  0  0  0  0  3  0  0  0  0  0  0
  188.5510  176.9660  144.4430 C   0  0  0  0  0  3  0  0  0  0  0  0
  187.6350  177.6880  145.2080 O   0  0  0  0  0  0  0  0  0  0  0  0
  185.9500  176.8100  143.7060 C   0  0  0  0  0  1  0  0  0  0  0  0
  185.4790  177.0330  146.1410 C   0  0  0  0  0  2  0  0  0  0  0  0
  185.6900  179.0320  144.7660 C   0  0  0  0  0  2  0  0  0  0  0  0
  186.2310  177.6290  144.9560 C   0  0  0  0  0  0  0  0  0  0  0  0
  184.3310  179.0410  145.4280 C   0  0  0  0  0  2  0  0  0  0  0  0
  184.4410  178.0560  146.5680 C   0  0  0  0  0  2  0  0  0  0  0  0
  1  2  2  0  0  0  0
  3  4  1  0  0  0  0
  4  7  2  0  0  0  0
  4  8  1  0  0  0  0
  5  1  1  0  0  0  0
  6  8  2  0  0  0  0
  7  9  1  0  0  0  0
  8  5  1  0  0  0  0
  9 21  1  1  0  0  0
  9  1  1  0  0  0  0
 11 10  2  0  0  0  0
 11 19  1  0  0  0  0
 12  5  1  1  0  0  0
 12 15  1  0  0  0  0
 13 20  1  0  0  0  0
 14 13  1  0  0  0  0
 15 10  1  0  0  0  0
 16 14  1  0  0  0  0
 17 16  2  0  0  0  0
 17 18  1  0  0  0  0
 18 12  1  0  0  0  0
 18 13  2  0  0  0  0
 20 11  1  0  0  0  0
 21 22  2  0  0  0  0
 22 23  1  0  0  0  0
 24 27  1  0  0  0  0
 25 29  1  0  0  0  0
 26 27  1  0  0  0  0
 26 28  1  0  0  0  0
 27 23  1  0  0  0  0
 27 25  1  0  0  0  0
 28 29  1  0  0  0  0
M  END
>  <MODEL>
4

>  <REMARK>
 VINA RESULT:      -7.6      2.037      8.793
  Name = 
  4 active torsions:
  status: ('A' for Active; 'I' for Inactive)
    1  A    between atoms: C_7  and  N_10
    2  A    between atoms: C_12  and  C_29
    3  A    between atoms: C_13  and  O_18
    4  A    between atoms: O_18  and  C_20
                            x       y       z     vdW  Elec       q    Type
                         _______ _______ _______ _____ _____    ______ ____

>  <TORSDO>
F 4

$$$$
=
 OpenBabel11062422443D

 29 32  0  0  1  0  0  0  0  0999 V2000
  189.4810  176.8370  144.2840 C   0  0  0  0  0  0  0  0  0  0  0  0
  189.5900  177.9560  144.8590 O   0  0  0  0  0  0  0  0  0  0  0  0
  189.4670  173.6120  141.5140 N   0  0  0  0  0  1  0  0  0  0  0  0
  189.4400  174.5830  142.5540 C   0  0  0  0  0  0  0  0  0  0  0  0
  188.2200  176.4320  143.7300 N   0  0  0  0  0  0  0  0  0  0  0  0
  187.0940  174.8810  142.3850 O   0  0  0  0  0  0  0  0  0  0  0  0
  190.5500  174.9160  143.1450 N   0  0  0  0  0  0  0  0  0  0  0  0
  188.1840  175.2770  142.8800 C   0  0  0  0  0  0  0  0  0  0  0  0
  190.6470  175.8690  144.2560 C   0  0  1  0  0  3  0  0  0  0  0  0
  185.3530  178.3120  142.3900 C   0  0  0  0  0  3  0  0  0  0  0  0
  184.2850  178.5130  143.1650 C   0  0  0  0  0  0  0  0  0  0  0  0
  187.0470  177.2430  143.9040 C   0  0  2  0  0  3  0  0  0  0  0  0
  185.2390  178.0440  145.4390 C   0  0  0  0  0  0  0  0  0  0  0  0
  185.1100  178.0440  146.8120 O   0  0  0  0  0  0  0  0  0  0  0  0
  186.7660  178.2920  142.8720 C   0  0  0  0  0  2  0  0  0  0  0  0
  186.0450  177.1730  147.4350 C   0  0  0  0  0  3  0  0  0  0  0  0
  186.8480  176.5190  146.2980 C   0  0  0  0  0  3  0  0  0  0  0  0
  186.3850  177.2300  145.0700 C   0  0  0  0  0  0  0  0  0  0  0  0
  183.0520  178.6690  142.5450 O   0  0  0  0  0  1  0  0  0  0  0  0
  184.3290  178.6030  144.6390 C   0  0  0  0  0  2  0  0  0  0  0  0
  191.9810  176.5470  144.2090 C   0  0  0  0  0  3  0  0  0  0  0  0
  193.1020  175.8380  144.1910 C   0  0  0  0  0  3  0  0  0  0  0  0
  194.3410  176.4750  144.1270 O   0  0  0  0  0  0  0  0  0  0  0  0
  195.9580  174.9690  145.1200 C   0  0  0  0  0  1  0  0  0  0  0  0
  195.3950  174.8030  142.7000 C   0  0  0  0  0  2  0  0  0  0  0  0
  196.6540  176.7220  143.5150 C   0  0  0  0  0  2  0  0  0  0  0  0
  195.5470  175.7530  143.8830 C   0  0  0  0  0  0  0  0  0  0  0  0
  197.4650  176.0310  142.4430 C   0  0  0  0  0  2  0  0  0  0  0  0
  196.4770  175.1650  141.6970 C   0  0  0  0  0  2  0  0  0  0  0  0
  1  2  2  0  0  0  0
  3  4  1  0  0  0  0
  4  8  1  0  0  0  0
  4  7  2  0  0  0  0
  5 12  1  0  0  0  0
  5  1  1  0  0  0  0
  6  8  2  0  0  0  0
  7  9  1  0  0  0  0
  8  5  1  0  0  0  0
  9 21  1  6  0  0  0
  9  1  1  0  0  0  0
 10 15  1  0  0  0  0
 10 11  2  0  0  0  0
 11 20  1  0  0  0  0
 12 15  1  1  0  0  0
 12 18  1  0  0  0  0
 13 14  1  0  0  0  0
 14 16  1  0  0  0  0
 17 16  2  0  0  0  0
 18 13  2  0  0  0  0
 18 17  1  0  0  0  0
 19 11  1  0  0  0  0
 20 13  1  0  0  0  0
 22 21  2  0  0  0  0
 23 22  1  0  0  0  0
 25 27  1  0  0  0  0
 26 27  1  0  0  0  0
 27 23  1  0  0  0  0
 27 24  1  0  0  0  0
 28 26  1  0  0  0  0
 29 28  1  0  0  0  0
 29 25  1  0  0  0  0
M  END
>  <MODEL>
5

>  <REMARK>
 VINA RESULT:      -7.5      0.809      1.588
  Name = 
  4 active torsions:
  status: ('A' for Active; 'I' for Inactive)
    1  A    between atoms: C_7  and  N_10
    2  A    between atoms: C_12  and  C_29
    3  A    between atoms: C_13  and  O_18
    4  A    between atoms: O_18  and  C_20
                            x       y       z     vdW  Elec       q    Type
                         _______ _______ _______ _____ _____    ______ ____

>  <TORSDO>
F 4

$$$$
=
 OpenBabel11062422443D

 29 32  0  0  1  0  0  0  0  0999 V2000
  190.7380  176.0310  144.8990 C   0  0  0  0  0  0  0  0  0  0  0  0
  190.9740  177.2130  145.2750 O   0  0  0  0  0  0  0  0  0  0  0  0
  190.5800  172.3160  142.8370 N   0  0  0  0  0  1  0  0  0  0  0  0
  190.5530  173.4870  143.6460 C   0  0  0  0  0  0  0  0  0  0  0  0
  189.5650  175.7430  144.1210 N   0  0  0  0  0  0  0  0  0  0  0  0
  188.4290  174.1540  142.8300 O   0  0  0  0  0  0  0  0  0  0  0  0
  191.5570  173.7420  144.4320 N   0  0  0  0  0  0  0  0  0  0  0  0
  189.4490  174.4510  143.5090 C   0  0  0  0  0  0  0  0  0  0  0  0
  191.6290  174.8900  145.3440 C   0  0  1  0  0  3  0  0  0  0  0  0
  187.6530  177.8400  141.7760 C   0  0  0  0  0  3  0  0  0  0  0  0
  186.4900  178.3630  142.1690 C   0  0  0  0  0  0  0  0  0  0  0  0
  188.6000  176.7690  143.8410 C   0  0  2  0  0  3  0  0  0  0  0  0
  186.6720  178.1380  144.6630 C   0  0  0  0  0  0  0  0  0  0  0  0
  186.1840  178.4050  145.9250 O   0  0  0  0  0  0  0  0  0  0  0  0
  188.8460  177.6530  142.6570 C   0  0  0  0  0  2  0  0  0  0  0  0
  186.7000  177.5030  146.8960 C   0  0  0  0  0  3  0  0  0  0  0  0
  187.6120  176.5250  146.1350 C   0  0  0  0  0  3  0  0  0  0  0  0
  187.6640  177.0810  144.7500 C   0  0  0  0  0  0  0  0  0  0  0  0
  185.5340  178.6250  141.1960 O   0  0  0  0  0  1  0  0  0  0  0  0
  186.1570  178.7020  143.5680 C   0  0  0  0  0  2  0  0  0  0  0  0
  193.0610  175.2880  145.5210 C   0  0  0  0  0  3  0  0  0  0  0  0
  193.9970  174.8470  144.6910 C   0  0  0  0  0  3  0  0  0  0  0  0
  195.3260  175.2380  144.8510 O   0  0  0  0  0  0  0  0  0  0  0  0
  197.5470  174.9430  143.9290 C   0  0  0  0  0  1  0  0  0  0  0  0
  196.9110  173.8410  146.0690 C   0  0  0  0  0  2  0  0  0  0  0  0
  195.9210  173.0760  143.9800 C   0  0  0  0  0  2  0  0  0  0  0  0
  196.4040  174.3130  144.7110 C   0  0  0  0  0  0  0  0  0  0  0  0
  196.6200  171.9100  144.6400 C   0  0  0  0  0  2  0  0  0  0  0  0
  196.8080  172.3260  146.0800 C   0  0  0  0  0  2  0  0  0  0  0  0
  1  2  2  0  0  0  0
  1  9  1  0  0  0  0
  3  4  1  0  0  0  0
  4  7  2  0  0  0  0
  5  1  1  0  0  0  0
  6  8  2  0  0  0  0
  7  9  1  0  0  0  0
  8  4  1  0  0  0  0
  8  5  1  0  0  0  0
  9 21  1  6  0  0  0
 10 11  2  0  0  0  0
 10 15  1  0  0  0  0
 11 20  1  0  0  0  0
 12 15  1  1  0  0  0
 12  5  1  0  0  0  0
 12 18  1  0  0  0  0
 13 18  2  0  0  0  0
 13 14  1  0  0  0  0
 14 16  1  0  0  0  0
 17 16  2  0  0  0  0
 18 17  1  0  0  0  0
 19 11  1  0  0  0  0
 20 13  1  0  0  0  0
 22 23  1  0  0  0  0
 22 21  2  0  0  0  0
 24 27  1  0  0  0  0
 25 29  1  0  0  0  0
 26 28  1  0  0  0  0
 26 27  1  0  0  0  0
 27 23  1  0  0  0  0
 27 25  1  0  0  0  0
 28 29  1  0  0  0  0
M  END
>  <MODEL>
6

>  <REMARK>
 VINA RESULT:      -7.4      1.882      2.377
  Name = 
  4 active torsions:
  status: ('A' for Active; 'I' for Inactive)
    1  A    between atoms: C_7  and  N_10
    2  A    between atoms: C_12  and  C_29
    3  A    between atoms: C_13  and  O_18
    4  A    between atoms: O_18  and  C_20
                            x       y       z     vdW  Elec       q    Type
                         _______ _______ _______ _____ _____    ______ ____

>  <TORSDO>
F 4

$$$$
=
 OpenBabel11062422443D

 29 32  0  0  1  0  0  0  0  0999 V2000
  189.9750  175.5180  145.2250 C   0  0  0  0  0  0  0  0  0  0  0  0
  189.4140  174.7890  144.3610 O   0  0  0  0  0  0  0  0  0  0  0  0
  191.5180  177.2300  148.7980 N   0  0  0  0  0  1  0  0  0  0  0  0
  191.0840  176.7700  147.5230 C   0  0  0  0  0  0  0  0  0  0  0  0
  189.2690  176.6300  145.7980 N   0  0  0  0  0  0  0  0  0  0  0  0
  189.2530  178.2760  147.4640 O   0  0  0  0  0  0  0  0  0  0  0  0
  191.7470  175.8230  146.9280 N   0  0  0  0  0  0  0  0  0  0  0  0
  189.8360  177.2870  146.9400 C   0  0  0  0  0  0  0  0  0  0  0  0
  191.4260  175.2930  145.5970 C   0  0  1  0  0  3  0  0  0  0  0  0
  185.7050  177.3460  146.3820 C   0  0  0  0  0  3  0  0  0  0  0  0
  185.0400  178.1020  145.5060 C   0  0  0  0  0  0  0  0  0  0  0  0
  187.9570  176.9860  145.3320 C   0  0  2  0  0  3  0  0  0  0  0  0
  186.5620  177.9910  143.5130 C   0  0  0  0  0  0  0  0  0  0  0  0
  186.8100  178.2590  142.1830 O   0  0  0  0  0  0  0  0  0  0  0  0
  186.7810  176.3720  146.0260 C   0  0  0  0  0  2  0  0  0  0  0  0
  188.1990  178.2190  141.8820 C   0  0  0  0  0  3  0  0  0  0  0  0
  188.9180  177.9120  143.2070 C   0  0  0  0  0  3  0  0  0  0  0  0
  187.8090  177.6320  144.1660 C   0  0  0  0  0  0  0  0  0  0  0  0
  183.9560  178.8360  145.9710 O   0  0  0  0  0  1  0  0  0  0  0  0
  185.3650  178.1960  144.0680 C   0  0  0  0  0  2  0  0  0  0  0  0
  191.8430  173.8570  145.5250 C   0  0  0  0  0  3  0  0  0  0  0  0
  193.0930  173.5260  145.2350 C   0  0  0  0  0  3  0  0  0  0  0  0
  193.4790  172.1860  145.1890 O   0  0  0  0  0  0  0  0  0  0  0  0
  194.8750  171.3070  143.4150 C   0  0  0  0  0  1  0  0  0  0  0  0
  195.7910  172.9480  145.0490 C   0  0  0  0  0  2  0  0  0  0  0  0
  195.2640  170.6860  145.7810 C   0  0  0  0  0  2  0  0  0  0  0  0
  194.8100  171.7970  144.8530 C   0  0  0  0  0  0  0  0  0  0  0  0
  196.7230  170.9600  146.0670 C   0  0  0  0  0  2  0  0  0  0  0  0
  196.8600  172.4630  146.0120 C   0  0  0  0  0  2  0  0  0  0  0  0
  1  9  1  0  0  0  0
  1  5  1  0  0  0  0
  2  1  2  0  0  0  0
  4  3  1  0  0  0  0
  5  8  1  0  0  0  0
  7  4  2  0  0  0  0
  8  6  2  0  0  0  0
  8  4  1  0  0  0  0
  9 21  1  1  0  0  0
  9  7  1  0  0  0  0
 11 19  1  0  0  0  0
 11 10  2  0  0  0  0
 12  5  1  6  0  0  0
 12 15  1  0  0  0  0
 13 20  1  0  0  0  0
 13 18  2  0  0  0  0
 14 13  1  0  0  0  0
 15 10  1  0  0  0  0
 16 14  1  0  0  0  0
 16 17  2  0  0  0  0
 17 18  1  0  0  0  0
 18 12  1  0  0  0  0
 20 11  1  0  0  0  0
 22 21  2  0  0  0  0
 23 22  1  0  0  0  0
 24 27  1  0  0  0  0
 25 29  1  0  0  0  0
 26 28  1  0  0  0  0
 27 25  1  0  0  0  0
 27 23  1  0  0  0  0
 27 26  1  0  0  0  0
 29 28  1  0  0  0  0
M  END
>  <MODEL>
7

>  <REMARK>
 VINA RESULT:      -7.3      2.870      4.233
  Name = 
  4 active torsions:
  status: ('A' for Active; 'I' for Inactive)
    1  A    between atoms: C_7  and  N_10
    2  A    between atoms: C_12  and  C_29
    3  A    between atoms: C_13  and  O_18
    4  A    between atoms: O_18  and  C_20
                            x       y       z     vdW  Elec       q    Type
                         _______ _______ _______ _____ _____    ______ ____

>  <TORSDO>
F 4

$$$$
=
 OpenBabel11062422443D

 29 32  0  0  1  0  0  0  0  0999 V2000
  191.0150  175.4420  144.6040 C   0  0  0  0  0  0  0  0  0  0  0  0
  190.8800  175.2180  143.3690 O   0  0  0  0  0  0  0  0  0  0  0  0
  191.4640  177.2010  148.4490 N   0  0  0  0  0  1  0  0  0  0  0  0
  191.2950  176.4730  147.2370 C   0  0  0  0  0  0  0  0  0  0  0  0
  192.3220  175.4320  145.2000 N   0  0  0  0  0  0  0  0  0  0  0  0
  193.5960  175.9180  147.1030 O   0  0  0  0  0  0  0  0  0  0  0  0
  190.1100  176.3820  146.7090 N   0  0  0  0  0  0  0  0  0  0  0  0
  192.4680  175.9230  146.5400 C   0  0  0  0  0  0  0  0  0  0  0  0
  189.8000  175.6250  145.4900 C   0  0  1  0  0  3  0  0  0  0  0  0
  195.5300  176.2640  143.5980 C   0  0  0  0  0  3  0  0  0  0  0  0
  196.4130  175.2920  143.3620 C   0  0  0  0  0  0  0  0  0  0  0  0
  193.4790  175.0770  144.4260 C   0  0  2  0  0  3  0  0  0  0  0  0
  194.9540  173.2560  143.5460 C   0  0  0  0  0  0  0  0  0  0  0  0
  194.7800  171.8960  143.4050 O   0  0  0  0  0  0  0  0  0  0  0  0
  194.0470  176.1120  143.5060 C   0  0  0  0  0  2  0  0  0  0  0  0
  193.6760  171.4200  144.1640 C   0  0  0  0  0  3  0  0  0  0  0  0
  193.1000  172.6420  144.9000 C   0  0  0  0  0  3  0  0  0  0  0  0
  193.8670  173.7950  144.3430 C   0  0  0  0  0  0  0  0  0  0  0  0
  197.7590  175.6300  143.3260 O   0  0  0  0  0  1  0  0  0  0  0  0
  196.0530  173.8800  143.1140 C   0  0  0  0  0  2  0  0  0  0  0  0
  188.6450  176.2720  144.7900 C   0  0  0  0  0  3  0  0  0  0  0  0
  188.3800  177.5590  144.9650 C   0  0  0  0  0  3  0  0  0  0  0  0
  187.3140  178.1600  144.2950 O   0  0  0  0  0  0  0  0  0  0  0  0
  185.4540  179.7120  144.2870 C   0  0  0  0  0  1  0  0  0  0  0  0
  185.1280  177.3510  145.0100 C   0  0  0  0  0  2  0  0  0  0  0  0
  186.4160  178.8720  146.4090 C   0  0  0  0  0  2  0  0  0  0  0  0
  186.1080  178.5190  144.9670 C   0  0  0  0  0  0  0  0  0  0  0  0
  185.2640  178.3250  147.2210 C   0  0  0  0  0  2  0  0  0  0  0  0
  184.8000  177.0990  146.4710 C   0  0  0  0  0  2  0  0  0  0  0  0
  1  5  1  0  0  0  0
  1  9  1  0  0  0  0
  2  1  2  0  0  0  0
  4  3  1  0  0  0  0
  5  8  1  0  0  0  0
  7  4  2  0  0  0  0
  8  6  2  0  0  0  0
  8  4  1  0  0  0  0
  9 21  1  6  0  0  0
  9  7  1  0  0  0  0
 11 10  2  0  0  0  0
 12 15  1  6  0  0  0
 12  5  1  0  0  0  0
 13 18  2  0  0  0  0
 14 13  1  0  0  0  0
 14 16  1  0  0  0  0
 15 10  1  0  0  0  0
 16 17  2  0  0  0  0
 18 12  1  0  0  0  0
 18 17  1  0  0  0  0
 19 11  1  0  0  0  0
 20 11  1  0  0  0  0
 20 13  1  0  0  0  0
 21 22  2  0  0  0  0
 23 22  1  0  0  0  0
 23 27  1  0  0  0  0
 24 27  1  0  0  0  0
 25 29  1  0  0  0  0
 26 28  1  0  0  0  0
 27 25  1  0  0  0  0
 27 26  1  0  0  0  0
 29 28  1  0  0  0  0
M  END
>  <MODEL>
8

>  <REMARK>
 VINA RESULT:      -7.3      2.636      8.853
  Name = 
  4 active torsions:
  status: ('A' for Active; 'I' for Inactive)
    1  A    between atoms: C_7  and  N_10
    2  A    between atoms: C_12  and  C_29
    3  A    between atoms: C_13  and  O_18
    4  A    between atoms: O_18  and  C_20
                            x       y       z     vdW  Elec       q    Type
                         _______ _______ _______ _____ _____    ______ ____

>  <TORSDO>
F 4

$$$$
=
 OpenBabel11062422443D

 29 32  0  0  1  0  0  0  0  0999 V2000
  191.3100  176.6740  143.2040 C   0  0  0  0  0  0  0  0  0  0  0  0
  191.9210  177.4540  143.9850 O   0  0  0  0  0  0  0  0  0  0  0  0
  188.9540  173.5860  141.4730 N   0  0  0  0  0  1  0  0  0  0  0  0
  189.7540  174.6820  141.9050 C   0  0  0  0  0  0  0  0  0  0  0  0
  191.9930  175.5480  142.6300 N   0  0  0  0  0  0  0  0  0  0  0  0
  191.7830  173.5560  141.4170 O   0  0  0  0  0  0  0  0  0  0  0  0
  189.1740  175.7570  142.3510 N   0  0  0  0  0  0  0  0  0  0  0  0
  191.2190  174.5520  141.9460 C   0  0  0  0  0  0  0  0  0  0  0  0
  189.8840  176.9660  142.7830 C   0  0  1  0  0  3  0  0  0  0  0  0
  195.5230  176.4600  142.1210 C   0  0  0  0  0  3  0  0  0  0  0  0
  196.4270  176.1050  143.0370 C   0  0  0  0  0  0  0  0  0  0  0  0
  193.3970  175.3470  142.8580 C   0  0  2  0  0  3  0  0  0  0  0  0
  195.1790  174.3200  144.2850 C   0  0  0  0  0  0  0  0  0  0  0  0
  195.1600  173.3140  145.2280 O   0  0  0  0  0  0  0  0  0  0  0  0
  194.3370  175.6410  141.7300 C   0  0  0  0  0  2  0  0  0  0  0  0
  193.8380  173.0190  145.6630 C   0  0  0  0  0  3  0  0  0  0  0  0
  192.9100  173.9890  144.9120 C   0  0  0  0  0  3  0  0  0  0  0  0
  193.8140  174.6800  143.9450 C   0  0  0  0  0  0  0  0  0  0  0  0
  197.5620  176.8950  143.1700 O   0  0  0  0  0  1  0  0  0  0  0  0
  196.3120  174.9160  143.9050 C   0  0  0  0  0  2  0  0  0  0  0  0
  189.0820  177.6560  143.8430 C   0  0  0  0  0  3  0  0  0  0  0  0
  188.3250  176.9620  144.6810 C   0  0  0  0  0  3  0  0  0  0  0  0
  187.5940  177.6090  145.6780 O   0  0  0  0  0  0  0  0  0  0  0  0
  185.4130  177.1900  146.6450 C   0  0  0  0  0  1  0  0  0  0  0  0
  185.9140  179.3720  145.5550 C   0  0  0  0  0  2  0  0  0  0  0  0
  185.7180  177.3630  144.1930 C   0  0  0  0  0  2  0  0  0  0  0  0
  186.1990  177.8740  145.5370 C   0  0  0  0  0  0  0  0  0  0  0  0
  184.7140  178.3800  143.7020 C   0  0  0  0  0  2  0  0  0  0  0  0
  185.1840  179.7010  144.2650 C   0  0  0  0  0  2  0  0  0  0  0  0
  1  2  2  0  0  0  0
  3  4  1  0  0  0  0
  4  8  1  0  0  0  0
  4  7  2  0  0  0  0
  5 12  1  0  0  0  0
  5  1  1  0  0  0  0
  6  8  2  0  0  0  0
  7  9  1  0  0  0  0
  8  5  1  0  0  0  0
  9  1  1  0  0  0  0
  9 21  1  1  0  0  0
 10 11  2  0  0  0  0
 11 19  1  0  0  0  0
 11 20  1  0  0  0  0
 12 15  1  6  0  0  0
 12 18  1  0  0  0  0
 13 14  1  0  0  0  0
 14 16  1  0  0  0  0
 15 10  1  0  0  0  0
 17 16  2  0  0  0  0
 18 13  2  0  0  0  0
 18 17  1  0  0  0  0
 20 13  1  0  0  0  0
 21 22  2  0  0  0  0
 22 23  1  0  0  0  0
 26 27  1  0  0  0  0
 27 25  1  0  0  0  0
 27 23  1  0  0  0  0
 27 24  1  0  0  0  0
 28 26  1  0  0  0  0
 28 29  1  0  0  0  0
 29 25  1  0  0  0  0
M  END
>  <MODEL>
9

>  <REMARK>
 VINA RESULT:      -7.1      2.011      8.323
  Name = 
  4 active torsions:
  status: ('A' for Active; 'I' for Inactive)
    1  A    between atoms: C_7  and  N_10
    2  A    between atoms: C_12  and  C_29
    3  A    between atoms: C_13  and  O_18
    4  A    between atoms: O_18  and  C_20
                            x       y       z     vdW  Elec       q    Type
                         _______ _______ _______ _____ _____    ______ ____

>  <TORSDO>
F 4

$$$$
