=
 OpenBabel11062422483D

 67 71  0  0  1  0  0  0  0  0999 V2000
  195.7650  173.0360  142.2540 C   0  0  0  0  0  2  0  0  0  0  0  0
  190.9660  174.3090  143.3930 C   0  0  0  0  0  2  0  0  0  0  0  0
  196.5640  173.0550  145.6910 O   0  0  0  0  0  0  0  0  0  0  0  0
  190.2870  175.1360  144.3050 O   0  0  0  0  0  0  0  0  0  0  0  0
  193.9840  176.4240  144.7800 O   0  0  0  0  0  0  0  0  0  0  0  0
  189.6750  176.7360  142.5030 C   0  0  2  0  0  3  0  0  0  0  0  0
  189.6120  177.2270  144.8560 O   0  0  0  0  0  1  0  0  0  0  0  0
  193.9530  174.5240  141.2250 C   0  0  0  0  0  2  0  0  0  0  0  0
  190.0240  172.8630  138.9000 C   0  0  2  0  0  3  0  0  0  0  0  0
  191.7810  178.4330  143.8650 F   0  0  0  0  0  0  0  0  0  0  0  0
  195.4280  174.2890  141.4410 C   0  0  2  0  0  0  0  0  0  0  0  0
  194.8430  174.1890  140.0340 C   0  0  1  0  0  3  0  0  0  0  0  0
  194.8330  175.5310  145.4350 C   0  0  0  0  0  0  0  0  0  0  0  0
  194.4130  172.7090  138.0930 C   0  0  0  0  0  2  0  0  0  0  0  0
  195.9450  171.8270  145.3940 C   0  0  1  0  0  3  0  0  0  0  0  0
  189.9530  173.5480  142.5610 C   0  0  0  0  0  2  0  0  0  0  0  0
  192.5980  176.5330  145.0950 C   0  0  2  0  0  3  0  0  0  0  0  0
  189.3780  174.4520  141.4770 C   0  0  1  0  0  3  0  0  0  0  0  0
  189.0470  173.9630  139.3330 C   0  0  0  0  0  2  0  0  0  0  0  0
  191.4120  173.1810  139.4340 C   0  0  0  0  0  2  0  0  0  0  0  0
  188.5560  173.7130  140.6210 O   0  0  0  0  0  0  0  0  0  0  0  0
  195.1230  171.9190  144.2550 O   0  0  0  0  0  0  0  0  0  0  0  0
  188.6560  175.6940  142.0180 C   0  0  1  0  0  3  0  0  0  0  0  0
  194.5770  172.7560  139.6010 C   0  0  0  0  0  2  0  0  0  0  0  0
  196.4510  173.8070  144.5270 C   0  0  2  0  0  3  0  0  0  0  0  0
  191.9370  173.3780  138.0210 C   0  0  2  0  0  3  0  0  0  0  0  0
  190.5600  173.0080  137.4700 C   0  0  2  0  0  3  0  0  0  0  0  0
  190.3340  176.5010  143.9020 C   0  0  1  0  0  0  0  0  0  0  0  0
  196.1920  175.2790  144.8630 C   0  0  0  0  0  2  0  0  0  0  0  0
  192.4240  176.6270  142.7220 F   0  0  0  0  0  0  0  0  0  0  0  0
  192.9900  172.3060  137.6860 C   0  0  1  0  0  3  0  0  0  0  0  0
  191.7940  177.0460  143.8830 C   0  0  0  0  0  0  0  0  0  0  0  0
  195.3510  173.1810  143.7120 C   0  0  1  0  0  3  0  0  0  0  0  0
  194.4660  174.9410  146.4880 O   0  0  0  0  0  0  0  0  0  0  0  0
  189.8680  174.0860  136.6060 C   0  0  2  0  0  3  0  0  0  0  0  0
  189.0310  173.4430  135.6910 O   0  0  0  0  0  1  0  0  0  0  0  0
  190.0450  176.1750  135.2420 C   0  0  0  0  0  1  0  0  0  0  0  0
  190.8290  175.0410  135.8800 C   0  0  2  0  0  3  0  0  0  0  0  0
  191.5460  174.3710  134.8830 O   0  0  0  0  0  0  0  0  0  0  0  0
  193.9110  174.5130  134.6750 C   0  0  0  0  0  1  0  0  0  0  0  0
  192.5880  175.2400  134.5550 C   0  0  0  0  0  2  0  0  0  0  0  0
  189.1720  178.1620  142.2930 C   0  0  0  0  0  2  0  0  0  0  0  0
  188.2420  178.2220  141.0970 C   0  0  0  0  0  1  0  0  0  0  0  0
  196.1260  175.4700  141.7130 O   0  0  0  0  0  0  0  0  0  0  0  0
  197.4010  175.1450  141.6360 O   0  0  0  0  0  1  0  0  0  0  0  0
  186.3370  175.8540  142.8340 C   0  0  0  0  0  2  0  0  0  0  0  0
  187.5750  175.4010  143.0200 C   0  0  0  0  0  3  0  0  0  0  0  0
  192.3500  177.3120  146.3930 C   0  0  0  0  0  2  0  0  0  0  0  0
  191.2210  175.3180  147.1230 O   0  0  0  0  0  1  0  0  0  0  0  0
  191.9660  176.4130  147.5670 C   0  0  2  0  0  3  0  0  0  0  0  0
  191.1990  177.1890  148.6350 C   0  0  0  0  0  2  0  0  0  0  0  0
  191.9580  177.3090  149.9530 C   0  0  0  0  0  2  0  0  0  0  0  0
  191.3140  178.2090  150.8030 O   0  0  0  0  0  0  0  0  0  0  0  0
  191.4240  177.6350  152.0690 C   0  0  0  0  0  1  0  0  0  0  0  0
  192.9350  171.8620  136.3430 O   0  0  0  0  0  0  0  0  0  0  0  0
  193.3330  170.5140  136.2840 C   0  0  0  0  0  2  0  0  0  0  0  0
  192.4640  168.6710  134.5520 O   0  0  0  0  0  0  0  0  0  0  0  0
  191.9850  169.5070  135.7050 S   0  0  0  0  0  0  0  0  0  0  0  0
  190.8560  170.3860  135.2410 O   0  0  0  0  0  0  0  0  0  0  0  0
  191.4160  168.4290  137.0060 C   0  0  0  0  0  2  0  0  0  0  0  0
  191.3370  169.1810  138.3200 C   0  0  0  0  0  1  0  0  0  0  0  0
  196.9940  170.7440  145.1870 C   0  0  0  0  0  2  0  0  0  0  0  0
  196.3740  169.5350  144.5100 C   0  0  0  0  0  2  0  0  0  0  0  0
  195.7880  168.8560  146.8680 N   0  0  0  0  0  2  0  0  0  0  0  0
  195.4970  168.8110  145.4700 C   0  0  0  0  0  0  0  0  0  0  0  0
  194.9550  168.1800  147.8490 C   0  0  0  0  0  1  0  0  0  0  0  0
  194.4940  168.1790  145.0430 O   0  0  0  0  0  0  0  0  0  0  0  0
  2  4  1  0  0  0  0
  5 17  1  0  0  0  0
  5 13  1  0  0  0  0
  6 42  1  1  0  0  0
  6 28  1  0  0  0  0
  8 11  1  0  0  0  0
  9 19  1  1  0  0  0
  9 20  1  0  0  0  0
 10 32  1  0  0  0  0
 11 44  1  1  0  0  0
 11  1  1  0  0  0  0
 12 24  1  1  0  0  0
 12  8  1  0  0  0  0
 12 11  1  0  0  0  0
 13 34  2  0  0  0  0
 14 24  1  0  0  0  0
 15 62  1  6  0  0  0
 15  3  1  0  0  0  0
 16  2  1  0  0  0  0
 17 48  1  1  0  0  0
 18 23  1  0  0  0  0
 18 16  1  1  0  0  0
 19 21  1  0  0  0  0
 21 18  1  0  0  0  0
 22 15  1  0  0  0  0
 23  6  1  0  0  0  0
 23 47  1  1  0  0  0
 25 29  1  1  0  0  0
 25  3  1  0  0  0  0
 26 20  1  1  0  0  0
 27 35  1  1  0  0  0
 27 26  1  0  0  0  0
 27  9  1  0  0  0  0
 28  4  1  0  0  0  0
 28  7  1  1  0  0  0
 29 13  1  0  0  0  0
 30 32  1  0  0  0  0
 31 55  1  6  0  0  0
 31 26  1  0  0  0  0
 31 14  1  0  0  0  0
 32 28  1  0  0  0  0
 32 17  1  0  0  0  0
 33  1  1  6  0  0  0
 33 22  1  0  0  0  0
 33 25  1  0  0  0  0
 35 36  1  6  0  0  0
 38 37  1  6  0  0  0
 38 35  1  0  0  0  0
 39 38  1  0  0  0  0
 41 40  1  0  0  0  0
 41 39  1  0  0  0  0
 43 42  1  0  0  0  0
 45 44  1  0  0  0  0
 46 47  2  0  0  0  0
 48 50  1  0  0  0  0
 50 49  1  6  0  0  0
 50 51  1  0  0  0  0
 51 52  1  0  0  0  0
 52 53  1  0  0  0  0
 53 54  1  0  0  0  0
 56 55  1  0  0  0  0
 57 58  2  0  0  0  0
 58 56  1  0  0  0  0
 58 60  1  0  0  0  0
 59 58  2  0  0  0  0
 60 61  1  0  0  0  0
 63 62  1  0  0  0  0
 63 65  1  0  0  0  0
 64 66  1  0  0  0  0
 65 64  1  0  0  0  0
 67 65  2  0  0  0  0
M  END
>  <MODEL>
1

>  <REMARK>
 VINA RESULT:      -5.0      0.000      0.000
  Name = 
  19 active torsions:
  status: ('A' for Active; 'I' for Inactive)
    1  A    between atoms: C_2  and  C_37
    2  A    between atoms: C_2  and  C_56
    3  A    between atoms: O_5  and  C_53
    4  A    between atoms: C_7  and  C_12
    5  A    between atoms: O_10  and  C_24
    6  A    between atoms: O_10  and  C_63
    7  A    between atoms: C_11  and  C_40
    8  A    between atoms: C_12  and  C_41
    9  A    between atoms: C_13  and  C_22
   10  A    between atoms: C_13  and  C_39
   11  A    between atoms: C_17  and  S_32
   12  A    between atoms: C_22  and  C_50
   13  A    between atoms: C_24  and  S_32
   14  A    between atoms: C_28  and  O_38
   15  A    between atoms: C_33  and  C_41
   16  A    between atoms: O_35  and  C_37
   17  A    between atoms: O_35  and  C_57
   18  A    between atoms: C_47  and  C_60
   19  A    between atoms: C_50  and  C_53
                            x       y       z     vdW  Elec       q    Type
                         _______ _______ _______ _____ _____    ______ ____

>  <TORSDO>
F 19

$$$$
=
 OpenBabel11062422483D

 67 71  0  0  1  0  0  0  0  0999 V2000
  195.1670  173.2950  142.3760 C   0  0  0  0  0  2  0  0  0  0  0  0
  190.2800  174.5190  143.1230 C   0  0  0  0  0  2  0  0  0  0  0  0
  195.7010  173.3840  145.8620 O   0  0  0  0  0  0  0  0  0  0  0  0
  189.5230  175.3530  143.9650 O   0  0  0  0  0  0  0  0  0  0  0  0
  193.1550  176.7000  144.6970 O   0  0  0  0  0  0  0  0  0  0  0  0
  189.0300  176.9130  142.0930 C   0  0  2  0  0  3  0  0  0  0  0  0
  188.7810  177.4430  144.4250 O   0  0  0  0  0  1  0  0  0  0  0  0
  193.4200  174.7390  141.1850 C   0  0  0  0  0  2  0  0  0  0  0  0
  189.7020  172.9830  138.5980 C   0  0  2  0  0  3  0  0  0  0  0  0
  191.0040  178.6620  143.5800 F   0  0  0  0  0  0  0  0  0  0  0  0
  194.8780  174.5290  141.5160 C   0  0  2  0  0  0  0  0  0  0  0  0
  194.4030  174.3970  140.0710 C   0  0  1  0  0  3  0  0  0  0  0  0
  193.9640  175.8310  145.4300 C   0  0  0  0  0  0  0  0  0  0  0  0
  194.1410  172.8780  138.1310 C   0  0  0  0  0  2  0  0  0  0  0  0
  195.1230  172.1420  145.5410 C   0  0  1  0  0  3  0  0  0  0  0  0
  189.3430  173.7300  142.2300 C   0  0  0  0  0  2  0  0  0  0  0  0
  191.7490  176.7950  144.9030 C   0  0  2  0  0  3  0  0  0  0  0  0
  188.8410  174.6070  141.0890 C   0  0  1  0  0  3  0  0  0  0  0  0
  188.6810  174.0770  138.9350 C   0  0  0  0  0  2  0  0  0  0  0  0
  191.0410  173.3310  139.2300 C   0  0  0  0  0  2  0  0  0  0  0  0
  188.0960  173.8420  140.1860 O   0  0  0  0  0  0  0  0  0  0  0  0
  194.3880  172.2030  144.3420 O   0  0  0  0  0  0  0  0  0  0  0  0
  188.0640  175.8480  141.5510 C   0  0  1  0  0  3  0  0  0  0  0  0
  194.1890  172.9520  139.6450 C   0  0  0  0  0  2  0  0  0  0  0  0
  195.6680  174.1140  144.6790 C   0  0  2  0  0  3  0  0  0  0  0  0
  191.6690  173.5100  137.8580 C   0  0  2  0  0  3  0  0  0  0  0  0
  190.3440  173.1110  137.2110 C   0  0  2  0  0  3  0  0  0  0  0  0
  189.5830  176.7110  143.5420 C   0  0  1  0  0  0  0  0  0  0  0  0
  195.3660  175.5880  144.9680 C   0  0  0  0  0  2  0  0  0  0  0  0
  191.7550  176.8460  142.5230 F   0  0  0  0  0  0  0  0  0  0  0  0
  192.7590  172.4480  137.6230 C   0  0  1  0  0  3  0  0  0  0  0  0
  191.0330  177.2760  143.6250 C   0  0  0  0  0  0  0  0  0  0  0  0
  194.6420  173.4590  143.7950 C   0  0  1  0  0  3  0  0  0  0  0  0
  193.5250  175.2540  146.4630 O   0  0  0  0  0  0  0  0  0  0  0  0
  189.7060  174.1650  136.2770 C   0  0  2  0  0  3  0  0  0  0  0  0
  189.0010  173.4920  135.2750 O   0  0  0  0  0  1  0  0  0  0  0  0
  189.9470  176.2190  134.8710 C   0  0  0  0  0  1  0  0  0  0  0  0
  190.7000  175.1630  135.6610 C   0  0  2  0  0  3  0  0  0  0  0  0
  191.5990  174.5160  134.8070 O   0  0  0  0  0  0  0  0  0  0  0  0
  193.4300  175.7200  135.7300 C   0  0  0  0  0  1  0  0  0  0  0  0
  192.5620  175.4810  134.5130 C   0  0  0  0  0  2  0  0  0  0  0  0
  188.5260  178.3280  141.8200 C   0  0  0  0  0  2  0  0  0  0  0  0
  187.4790  178.3120  140.7230 C   0  0  0  0  0  1  0  0  0  0  0  0
  195.5380  175.7240  141.8200 O   0  0  0  0  0  0  0  0  0  0  0  0
  194.6350  176.6700  141.6520 O   0  0  0  0  0  1  0  0  0  0  0  0
  185.9480  176.4550  142.6580 C   0  0  0  0  0  2  0  0  0  0  0  0
  186.9130  175.5570  142.4730 C   0  0  0  0  0  3  0  0  0  0  0  0
  191.3930  177.5930  146.1640 C   0  0  0  0  0  2  0  0  0  0  0  0
  191.4930  176.7370  148.4100 O   0  0  0  0  0  1  0  0  0  0  0  0
  190.7250  176.7410  147.2430 C   0  0  2  0  0  3  0  0  0  0  0  0
  190.4810  175.3160  146.7530 C   0  0  0  0  0  2  0  0  0  0  0  0
  189.1500  174.7380  147.2250 C   0  0  0  0  0  2  0  0  0  0  0  0
  189.0010  173.4270  146.7690 O   0  0  0  0  0  0  0  0  0  0  0  0
  190.1130  173.2100  145.9570 C   0  0  0  0  0  1  0  0  0  0  0  0
  192.8120  171.9800  136.2880 O   0  0  0  0  0  0  0  0  0  0  0  0
  193.3480  170.6790  136.2740 C   0  0  0  0  0  2  0  0  0  0  0  0
  192.5930  168.4470  135.0110 O   0  0  0  0  0  0  0  0  0  0  0  0
  192.0610  169.4950  135.9470 S   0  0  0  0  0  0  0  0  0  0  0  0
  190.8890  170.1830  135.3020 O   0  0  0  0  0  0  0  0  0  0  0  0
  191.5440  168.7110  137.4610 C   0  0  0  0  0  2  0  0  0  0  0  0
  190.3430  169.4280  138.0460 C   0  0  0  0  0  1  0  0  0  0  0  0
  196.1980  171.0710  145.4340 C   0  0  0  0  0  2  0  0  0  0  0  0
  195.8070  170.0370  144.3950 C   0  0  0  0  0  2  0  0  0  0  0  0
  196.7530  168.9830  142.3070 N   0  0  0  0  0  2  0  0  0  0  0  0
  196.8250  169.9970  143.3100 C   0  0  0  0  0  0  0  0  0  0  0  0
  197.7120  168.9090  141.2170 C   0  0  0  0  0  1  0  0  0  0  0  0
  197.7320  170.8720  143.2750 O   0  0  0  0  0  0  0  0  0  0  0  0
  2  4  1  0  0  0  0
  5 17  1  0  0  0  0
  5 13  1  0  0  0  0
  6 42  1  1  0  0  0
  6 28  1  0  0  0  0
  8 11  1  0  0  0  0
  9 19  1  6  0  0  0
  9 20  1  0  0  0  0
 10 32  1  0  0  0  0
 11 44  1  1  0  0  0
 11  1  1  0  0  0  0
 12 24  1  1  0  0  0
 12  8  1  0  0  0  0
 12 11  1  0  0  0  0
 13 34  2  0  0  0  0
 14 24  1  0  0  0  0
 15 62  1  6  0  0  0
 15  3  1  0  0  0  0
 16  2  1  0  0  0  0
 17 48  1  1  0  0  0
 18 23  1  0  0  0  0
 18 16  1  1  0  0  0
 19 21  1  0  0  0  0
 21 18  1  0  0  0  0
 22 15  1  0  0  0  0
 23  6  1  0  0  0  0
 23 47  1  1  0  0  0
 25 29  1  1  0  0  0
 25  3  1  0  0  0  0
 26 20  1  1  0  0  0
 27 35  1  6  0  0  0
 27 26  1  0  0  0  0
 27  9  1  0  0  0  0
 28 32  1  0  0  0  0
 28  4  1  0  0  0  0
 28  7  1  1  0  0  0
 29 13  1  0  0  0  0
 30 32  1  0  0  0  0
 31 55  1  6  0  0  0
 31 26  1  0  0  0  0
 31 14  1  0  0  0  0
 32 17  1  0  0  0  0
 33  1  1  6  0  0  0
 33 22  1  0  0  0  0
 33 25  1  0  0  0  0
 35 36  1  6  0  0  0
 38 37  1  6  0  0  0
 38 35  1  0  0  0  0
 39 38  1  0  0  0  0
 41 39  1  0  0  0  0
 41 40  1  0  0  0  0
 43 42  1  0  0  0  0
 45 44  1  0  0  0  0
 47 46  2  0  0  0  0
 48 50  1  0  0  0  0
 50 49  1  1  0  0  0
 51 52  1  0  0  0  0
 51 50  1  0  0  0  0
 53 52  1  0  0  0  0
 54 53  1  0  0  0  0
 56 55  1  0  0  0  0
 57 58  2  0  0  0  0
 58 56  1  0  0  0  0
 58 60  1  0  0  0  0
 59 58  2  0  0  0  0
 60 61  1  0  0  0  0
 63 62  1  0  0  0  0
 64 65  1  0  0  0  0
 65 63  1  0  0  0  0
 66 64  1  0  0  0  0
 67 65  2  0  0  0  0
M  END
>  <MODEL>
2

>  <REMARK>
 VINA RESULT:      -4.8      1.438      2.043
  Name = 
  19 active torsions:
  status: ('A' for Active; 'I' for Inactive)
    1  A    between atoms: C_2  and  C_37
    2  A    between atoms: C_2  and  C_56
    3  A    between atoms: O_5  and  C_53
    4  A    between atoms: C_7  and  C_12
    5  A    between atoms: O_10  and  C_24
    6  A    between atoms: O_10  and  C_63
    7  A    between atoms: C_11  and  C_40
    8  A    between atoms: C_12  and  C_41
    9  A    between atoms: C_13  and  C_22
   10  A    between atoms: C_13  and  C_39
   11  A    between atoms: C_17  and  S_32
   12  A    between atoms: C_22  and  C_50
   13  A    between atoms: C_24  and  S_32
   14  A    between atoms: C_28  and  O_38
   15  A    between atoms: C_33  and  C_41
   16  A    between atoms: O_35  and  C_37
   17  A    between atoms: O_35  and  C_57
   18  A    between atoms: C_47  and  C_60
   19  A    between atoms: C_50  and  C_53
                            x       y       z     vdW  Elec       q    Type
                         _______ _______ _______ _____ _____    ______ ____

>  <TORSDO>
F 19

$$$$
=
 OpenBabel11062422483D

 67 71  0  0  1  0  0  0  0  0999 V2000
  190.5800  171.8790  139.1600 C   0  0  0  0  0  2  0  0  0  0  0  0
  192.6400  175.5670  142.0060 C   0  0  0  0  0  2  0  0  0  0  0  0
  188.1780  174.1700  137.9660 O   0  0  0  0  0  0  0  0  0  0  0  0
  192.2110  176.6590  142.7810 O   0  0  0  0  0  0  0  0  0  0  0  0
  188.7860  174.7880  142.2180 O   0  0  0  0  0  0  0  0  0  0  0  0
  192.8130  175.4870  144.8900 C   0  0  2  0  0  3  0  0  0  0  0  0
  191.3530  177.3920  144.7460 O   0  0  0  0  0  1  0  0  0  0  0  0
  191.6470  172.0450  141.4820 C   0  0  0  0  0  2  0  0  0  0  0  0
  196.4070  172.5840  142.2880 C   0  0  2  0  0  3  0  0  0  0  0  0
  189.8040  175.2490  145.1300 F   0  0  0  0  0  0  0  0  0  0  0  0
  190.6330  171.3580  140.5990 C   0  0  2  0  0  0  0  0  0  0  0  0
  191.8380  170.5770  141.1170 C   0  0  1  0  0  3  0  0  0  0  0  0
  188.2890  174.8580  140.9160 C   0  0  0  0  0  0  0  0  0  0  0  0
  193.9010  169.3480  140.5050 C   0  0  0  0  0  2  0  0  0  0  0  0
  189.3640  174.3620  137.2340 C   0  0  1  0  0  3  0  0  0  0  0  0
  194.1550  175.5360  141.9840 C   0  0  0  0  0  2  0  0  0  0  0  0
  189.5150  175.8550  142.8190 C   0  0  2  0  0  3  0  0  0  0  0  0
  194.6880  174.9580  143.2890 C   0  0  1  0  0  3  0  0  0  0  0  0
  196.3060  173.4530  143.5480 C   0  0  0  0  0  2  0  0  0  0  0  0
  195.0110  172.1760  141.8430 C   0  0  0  0  0  2  0  0  0  0  0  0
  196.0740  174.7930  143.2110 O   0  0  0  0  0  0  0  0  0  0  0  0
  190.4950  173.9270  137.9510 O   0  0  0  0  0  0  0  0  0  0  0  0
  194.2840  175.7550  144.5370 C   0  0  1  0  0  3  0  0  0  0  0  0
  192.9570  170.4620  140.0930 C   0  0  0  0  0  2  0  0  0  0  0  0
  188.5110  173.2610  138.9630 C   0  0  2  0  0  3  0  0  0  0  0  0
  195.3120  170.7190  142.1520 C   0  0  2  0  0  3  0  0  0  0  0  0
  196.7350  171.1090  142.5510 C   0  0  2  0  0  3  0  0  0  0  0  0
  191.7260  176.2360  144.0510 C   0  0  1  0  0  0  0  0  0  0  0  0
  187.7860  173.6080  140.2680 C   0  0  0  0  0  2  0  0  0  0  0  0
  190.8620  174.0440  143.5770 F   0  0  0  0  0  0  0  0  0  0  0  0
  195.2950  169.8820  140.8590 C   0  0  1  0  0  3  0  0  0  0  0  0
  190.4660  175.3290  143.9130 C   0  0  0  0  0  0  0  0  0  0  0  0
  190.0100  173.2890  139.0910 C   0  0  1  0  0  3  0  0  0  0  0  0
  188.2650  175.9540  140.2910 O   0  0  0  0  0  0  0  0  0  0  0  0
  197.1450  170.7680  144.0020 C   0  0  2  0  0  3  0  0  0  0  0  0
  197.9410  169.6190  143.9720 O   0  0  0  0  0  1  0  0  0  0  0  0
  196.3010  171.2220  146.3120 C   0  0  0  0  0  1  0  0  0  0  0  0
  195.9680  170.5830  144.9750 C   0  0  2  0  0  3  0  0  0  0  0  0
  195.6910  169.2270  145.1780 O   0  0  0  0  0  0  0  0  0  0  0  0
  193.4550  169.8120  144.6190 C   0  0  0  0  0  1  0  0  0  0  0  0
  194.3790  169.2040  145.6520 C   0  0  0  0  0  2  0  0  0  0  0  0
  192.5720  175.5420  146.3960 C   0  0  0  0  0  2  0  0  0  0  0  0
  192.1950  174.1690  146.9190 C   0  0  0  0  0  1  0  0  0  0  0  0
  189.4280  171.1020  141.2630 O   0  0  0  0  0  0  0  0  0  0  0  0
  189.6050  171.5550  142.4880 O   0  0  0  0  0  1  0  0  0  0  0  0
  194.9280  177.8830  145.5980 C   0  0  0  0  0  2  0  0  0  0  0  0
  194.6330  177.2150  144.4850 C   0  0  0  0  0  3  0  0  0  0  0  0
  188.6060  177.0050  143.2720 C   0  0  0  0  0  2  0  0  0  0  0  0
  186.2370  177.2060  142.9080 O   0  0  0  0  0  1  0  0  0  0  0  0
  187.2050  176.5410  143.6650 C   0  0  2  0  0  3  0  0  0  0  0  0
  186.9520  176.7400  145.1580 C   0  0  0  0  0  2  0  0  0  0  0  0
  185.5990  177.3760  145.4600 C   0  0  0  0  0  2  0  0  0  0  0  0
  185.7330  178.7580  145.5990 O   0  0  0  0  0  0  0  0  0  0  0  0
  185.6810  178.9780  146.9750 C   0  0  0  0  0  1  0  0  0  0  0  0
  196.2710  168.8580  140.8380 O   0  0  0  0  0  0  0  0  0  0  0  0
  196.3120  168.2830  139.5540 C   0  0  0  0  0  2  0  0  0  0  0  0
  197.9410  168.6200  137.4620 O   0  0  0  0  0  0  0  0  0  0  0  0
  197.0810  169.4070  138.4090 S   0  0  0  0  0  0  0  0  0  0  0  0
  197.9400  170.3870  139.1580 O   0  0  0  0  0  0  0  0  0  0  0  0
  195.8400  170.2810  137.4740 C   0  0  0  0  0  2  0  0  0  0  0  0
  196.4160  170.7770  136.1630 C   0  0  0  0  0  1  0  0  0  0  0  0
  189.2860  173.6310  135.9010 C   0  0  0  0  0  2  0  0  0  0  0  0
  189.8540  174.4990  134.7930 C   0  0  0  0  0  2  0  0  0  0  0  0
  187.9650  176.1600  134.9900 N   0  0  0  0  0  2  0  0  0  0  0  0
  189.3690  175.8970  134.9450 C   0  0  0  0  0  0  0  0  0  0  0  0
  187.4390  177.5050  135.1530 C   0  0  0  0  0  1  0  0  0  0  0  0
  190.2020  176.8370  135.0540 O   0  0  0  0  0  0  0  0  0  0  0  0
  1 11  1  0  0  0  0
  2  4  1  0  0  0  0
  3 25  1  0  0  0  0
  4 28  1  0  0  0  0
  5 17  1  0  0  0  0
  6 42  1  1  0  0  0
  9 20  1  1  0  0  0
  9 27  1  0  0  0  0
  9 19  1  0  0  0  0
 11 12  1  0  0  0  0
 11 44  1  1  0  0  0
 11  8  1  0  0  0  0
 12 24  1  6  0  0  0
 12  8  1  0  0  0  0
 13  5  1  0  0  0  0
 14 31  1  0  0  0  0
 15 62  1  6  0  0  0
 15 22  1  0  0  0  0
 15  3  1  0  0  0  0
 16  2  1  0  0  0  0
 17 48  1  1  0  0  0
 17 32  1  0  0  0  0
 18 16  1  6  0  0  0
 18 23  1  0  0  0  0
 21 18  1  0  0  0  0
 21 19  1  0  0  0  0
 22 33  1  0  0  0  0
 23 47  1  6  0  0  0
 23  6  1  0  0  0  0
 24 14  1  0  0  0  0
 25 33  1  0  0  0  0
 25 29  1  1  0  0  0
 26 20  1  6  0  0  0
 26 27  1  0  0  0  0
 27 35  1  1  0  0  0
 28  7  1  1  0  0  0
 28  6  1  0  0  0  0
 29 13  1  0  0  0  0
 30 32  1  0  0  0  0
 31 55  1  1  0  0  0
 31 26  1  0  0  0  0
 32 28  1  0  0  0  0
 32 10  1  0  0  0  0
 33  1  1  6  0  0  0
 34 13  2  0  0  0  0
 35 36  1  6  0  0  0
 35 38  1  0  0  0  0
 38 39  1  0  0  0  0
 38 37  1  1  0  0  0
 39 41  1  0  0  0  0
 40 41  1  0  0  0  0
 42 43  1  0  0  0  0
 44 45  1  0  0  0  0
 47 46  2  0  0  0  0
 48 50  1  0  0  0  0
 50 49  1  6  0  0  0
 50 51  1  0  0  0  0
 51 52  1  0  0  0  0
 52 53  1  0  0  0  0
 53 54  1  0  0  0  0
 56 55  1  0  0  0  0
 57 58  2  0  0  0  0
 58 59  2  0  0  0  0
 58 56  1  0  0  0  0
 60 58  1  0  0  0  0
 61 60  1  0  0  0  0
 63 65  1  0  0  0  0
 63 62  1  0  0  0  0
 64 66  1  0  0  0  0
 65 64  1  0  0  0  0
 65 67  2  0  0  0  0
M  END
>  <MODEL>
3

>  <REMARK>
 VINA RESULT:      -4.6      3.296      8.304
  Name = 
  19 active torsions:
  status: ('A' for Active; 'I' for Inactive)
    1  A    between atoms: C_2  and  C_37
    2  A    between atoms: C_2  and  C_56
    3  A    between atoms: O_5  and  C_53
    4  A    between atoms: C_7  and  C_12
    5  A    between atoms: O_10  and  C_24
    6  A    between atoms: O_10  and  C_63
    7  A    between atoms: C_11  and  C_40
    8  A    between atoms: C_12  and  C_41
    9  A    between atoms: C_13  and  C_22
   10  A    between atoms: C_13  and  C_39
   11  A    between atoms: C_17  and  S_32
   12  A    between atoms: C_22  and  C_50
   13  A    between atoms: C_24  and  S_32
   14  A    between atoms: C_28  and  O_38
   15  A    between atoms: C_33  and  C_41
   16  A    between atoms: O_35  and  C_37
   17  A    between atoms: O_35  and  C_57
   18  A    between atoms: C_47  and  C_60
   19  A    between atoms: C_50  and  C_53
                            x       y       z     vdW  Elec       q    Type
                         _______ _______ _______ _____ _____    ______ ____

>  <TORSDO>
F 19

$$$$
=
 OpenBabel11062422483D

 67 71  0  0  1  0  0  0  0  0999 V2000
  188.5310  174.4920  140.7190 C   0  0  0  0  0  2  0  0  0  0  0  0
  192.8340  176.4140  142.6530 C   0  0  0  0  0  2  0  0  0  0  0  0
  186.6770  176.9230  142.4810 O   0  0  0  0  0  0  0  0  0  0  0  0
  193.2890  176.9540  143.8700 O   0  0  0  0  0  0  0  0  0  0  0  0
  189.8520  175.3980  145.0160 O   0  0  0  0  0  0  0  0  0  0  0  0
  194.6640  174.9330  144.3280 C   0  0  2  0  0  3  0  0  0  0  0  0
  194.0330  176.5680  145.9740 O   0  0  0  0  0  1  0  0  0  0  0  0
  190.7650  173.5560  141.5490 C   0  0  0  0  0  2  0  0  0  0  0  0
  194.9650  173.9170  139.1330 C   0  0  2  0  0  3  0  0  0  0  0  0
  192.4880  174.4240  146.3700 F   0  0  0  0  0  0  0  0  0  0  0  0
  189.2820  173.3330  141.3820 C   0  0  2  0  0  0  0  0  0  0  0  0
  190.2690  172.4740  140.5960 C   0  0  1  0  0  3  0  0  0  0  0  0
  188.7230  176.0710  144.5500 C   0  0  0  0  0  0  0  0  0  0  0  0
  191.0940  171.8360  138.3480 C   0  0  0  0  0  2  0  0  0  0  0  0
  187.1830  177.5220  141.3130 C   0  0  1  0  0  3  0  0  0  0  0  0
  193.9450  176.4910  141.6260 C   0  0  0  0  0  2  0  0  0  0  0  0
  191.0640  176.0720  145.3470 C   0  0  2  0  0  3  0  0  0  0  0  0
  194.9580  175.3780  141.8640 C   0  0  1  0  0  3  0  0  0  0  0  0
  195.8920  174.0440  140.3480 C   0  0  0  0  0  2  0  0  0  0  0  0
  193.5370  173.6980  139.6090 C   0  0  0  0  0  2  0  0  0  0  0  0
  195.9020  175.3580  140.8320 O   0  0  0  0  0  0  0  0  0  0  0  0
  188.3330  176.8610  140.8430 O   0  0  0  0  0  0  0  0  0  0  0  0
  195.6310  175.4290  143.2420 C   0  0  1  0  0  3  0  0  0  0  0  0
  190.4600  172.9480  139.1630 C   0  0  0  0  0  2  0  0  0  0  0  0
  187.2620  175.6620  142.5220 C   0  0  2  0  0  3  0  0  0  0  0  0
  193.5280  172.3000  139.0130 C   0  0  2  0  0  3  0  0  0  0  0  0
  194.9440  172.5280  138.4840 C   0  0  2  0  0  3  0  0  0  0  0  0
  193.5640  175.9300  144.8200 C   0  0  1  0  0  0  0  0  0  0  0  0
  187.5990  175.2750  143.9660 C   0  0  0  0  0  2  0  0  0  0  0  0
  192.0050  174.2090  144.2020 F   0  0  0  0  0  0  0  0  0  0  0  0
  192.5020  172.2100  137.8690 C   0  0  1  0  0  3  0  0  0  0  0  0
  192.2780  175.1340  145.1970 C   0  0  0  0  0  0  0  0  0  0  0  0
  188.4680  175.7150  141.6240 C   0  0  1  0  0  3  0  0  0  0  0  0
  188.6450  177.3300  144.6160 O   0  0  0  0  0  0  0  0  0  0  0  0
  196.0200  171.5410  138.9910 C   0  0  2  0  0  3  0  0  0  0  0  0
  196.3310  170.6610  137.9510 O   0  0  0  0  0  1  0  0  0  0  0  0
  196.8790  170.3800  141.0330 C   0  0  0  0  0  1  0  0  0  0  0  0
  195.6300  170.7620  140.2590 C   0  0  2  0  0  3  0  0  0  0  0  0
  194.9250  169.5980  139.9370 O   0  0  0  0  0  0  0  0  0  0  0  0
  192.8360  169.2020  141.0020 C   0  0  0  0  0  1  0  0  0  0  0  0
  194.3430  169.1950  141.1390 C   0  0  0  0  0  2  0  0  0  0  0  0
  195.4000  174.2220  145.4610 C   0  0  0  0  0  2  0  0  0  0  0  0
  196.3850  173.2150  144.9000 C   0  0  0  0  0  1  0  0  0  0  0  0
  188.7030  172.7110  142.4930 O   0  0  0  0  0  0  0  0  0  0  0  0
  187.4940  172.3610  142.1030 O   0  0  0  0  0  1  0  0  0  0  0  0
  197.5480  176.9770  143.2380 C   0  0  0  0  0  2  0  0  0  0  0  0
  196.2810  176.7440  143.5710 C   0  0  0  0  0  3  0  0  0  0  0  0
  190.9840  176.7910  146.7000 C   0  0  0  0  0  2  0  0  0  0  0  0
  189.7510  174.8230  147.3240 O   0  0  0  0  0  1  0  0  0  0  0  0
  189.9700  176.1630  147.6540 C   0  0  2  0  0  3  0  0  0  0  0  0
  188.6550  176.9400  147.6580 C   0  0  0  0  0  2  0  0  0  0  0  0
  187.4240  176.0390  147.6470 C   0  0  0  0  0  2  0  0  0  0  0  0
  186.3400  176.7050  147.0740 O   0  0  0  0  0  0  0  0  0  0  0  0
  186.4780  178.0270  147.4980 C   0  0  0  0  0  1  0  0  0  0  0  0
  192.9260  171.3910  136.7940 O   0  0  0  0  0  0  0  0  0  0  0  0
  191.8030  170.7740  136.2120 C   0  0  0  0  0  2  0  0  0  0  0  0
  193.2900  168.6630  136.9050 O   0  0  0  0  0  0  0  0  0  0  0  0
  192.0470  169.0130  136.1370 S   0  0  0  0  0  0  0  0  0  0  0  0
  192.2150  168.5840  134.7060 O   0  0  0  0  0  0  0  0  0  0  0  0
  190.6580  168.1660  136.8640 C   0  0  0  0  0  2  0  0  0  0  0  0
  190.7380  168.2160  138.3770 C   0  0  0  0  0  1  0  0  0  0  0  0
  186.1180  177.5410  140.2260 C   0  0  0  0  0  2  0  0  0  0  0  0
  185.2010  178.7360  140.4100 C   0  0  0  0  0  2  0  0  0  0  0  0
  182.6990  178.4120  140.3690 N   0  0  0  0  0  2  0  0  0  0  0  0
  183.9380  178.3090  141.0720 C   0  0  0  0  0  0  0  0  0  0  0  0
  181.4400  177.9950  140.9630 C   0  0  0  0  0  1  0  0  0  0  0  0
  183.9750  177.8410  142.2420 O   0  0  0  0  0  0  0  0  0  0  0  0
  1 11  1  0  0  0  0
  2  4  1  0  0  0  0
  3 25  1  0  0  0  0
  4 28  1  0  0  0  0
  5 17  1  0  0  0  0
  6 28  1  0  0  0  0
  6 42  1  1  0  0  0
  9 20  1  1  0  0  0
  9 19  1  0  0  0  0
 11  8  1  0  0  0  0
 11 44  1  1  0  0  0
 12 24  1  6  0  0  0
 12 11  1  0  0  0  0
 12  8  1  0  0  0  0
 13 34  2  0  0  0  0
 13  5  1  0  0  0  0
 14 24  1  0  0  0  0
 15 62  1  6  0  0  0
 15  3  1  0  0  0  0
 16  2  1  0  0  0  0
 17 48  1  1  0  0  0
 18 16  1  6  0  0  0
 18 23  1  0  0  0  0
 19 21  1  0  0  0  0
 21 18  1  0  0  0  0
 22 15  1  0  0  0  0
 22 33  1  0  0  0  0
 23 47  1  1  0  0  0
 23  6  1  0  0  0  0
 25 29  1  1  0  0  0
 26 20  1  1  0  0  0
 27 35  1  1  0  0  0
 27 26  1  0  0  0  0
 27  9  1  0  0  0  0
 28 32  1  0  0  0  0
 28  7  1  1  0  0  0
 29 13  1  0  0  0  0
 30 32  1  0  0  0  0
 31 55  1  6  0  0  0
 31 14  1  0  0  0  0
 31 26  1  0  0  0  0
 32 17  1  0  0  0  0
 32 10  1  0  0  0  0
 33  1  1  6  0  0  0
 33 25  1  0  0  0  0
 35 36  1  6  0  0  0
 35 38  1  0  0  0  0
 38 37  1  6  0  0  0
 39 38  1  0  0  0  0
 39 41  1  0  0  0  0
 40 41  1  0  0  0  0
 43 42  1  0  0  0  0
 45 44  1  0  0  0  0
 46 47  2  0  0  0  0
 48 50  1  0  0  0  0
 50 49  1  6  0  0  0
 50 51  1  0  0  0  0
 52 51  1  0  0  0  0
 53 54  1  0  0  0  0
 53 52  1  0  0  0  0
 56 55  1  0  0  0  0
 58 56  1  0  0  0  0
 58 60  1  0  0  0  0
 58 57  2  0  0  0  0
 59 58  2  0  0  0  0
 60 61  1  0  0  0  0
 62 63  1  0  0  0  0
 63 65  1  0  0  0  0
 64 66  1  0  0  0  0
 64 65  1  0  0  0  0
 65 67  2  0  0  0  0
M  END
>  <MODEL>
4

>  <REMARK>
 VINA RESULT:      -4.4      3.345      7.634
  Name = 
  19 active torsions:
  status: ('A' for Active; 'I' for Inactive)
    1  A    between atoms: C_2  and  C_37
    2  A    between atoms: C_2  and  C_56
    3  A    between atoms: O_5  and  C_53
    4  A    between atoms: C_7  and  C_12
    5  A    between atoms: O_10  and  C_24
    6  A    between atoms: O_10  and  C_63
    7  A    between atoms: C_11  and  C_40
    8  A    between atoms: C_12  and  C_41
    9  A    between atoms: C_13  and  C_22
   10  A    between atoms: C_13  and  C_39
   11  A    between atoms: C_17  and  S_32
   12  A    between atoms: C_22  and  C_50
   13  A    between atoms: C_24  and  S_32
   14  A    between atoms: C_28  and  O_38
   15  A    between atoms: C_33  and  C_41
   16  A    between atoms: O_35  and  C_37
   17  A    between atoms: O_35  and  C_57
   18  A    between atoms: C_47  and  C_60
   19  A    between atoms: C_50  and  C_53
                            x       y       z     vdW  Elec       q    Type
                         _______ _______ _______ _____ _____    ______ ____

>  <TORSDO>
F 19

$$$$
=
 OpenBabel11062422483D

 67 71  0  0  1  0  0  0  0  0999 V2000
  188.5310  174.4900  141.8790 C   0  0  0  0  0  2  0  0  0  0  0  0
  193.3360  175.8360  142.8990 C   0  0  0  0  0  2  0  0  0  0  0  0
  187.3930  177.4340  143.4550 O   0  0  0  0  0  0  0  0  0  0  0  0
  194.0590  176.4420  143.9430 O   0  0  0  0  0  0  0  0  0  0  0  0
  190.6390  175.7120  145.7640 O   0  0  0  0  0  0  0  0  0  0  0  0
  195.1440  174.2850  144.5360 C   0  0  2  0  0  3  0  0  0  0  0  0
  195.0510  176.2160  145.9660 O   0  0  0  0  0  1  0  0  0  0  0  0
  190.6870  173.2820  142.5490 C   0  0  0  0  0  2  0  0  0  0  0  0
  194.4580  172.5370  139.5780 C   0  0  2  0  0  3  0  0  0  0  0  0
  193.2620  174.4640  146.9000 F   0  0  0  0  0  0  0  0  0  0  0  0
  189.1790  173.3140  142.6160 C   0  0  2  0  0  0  0  0  0  0  0  0
  189.8790  172.1900  141.8560 C   0  0  1  0  0  3  0  0  0  0  0  0
  189.5740  176.5110  145.3480 C   0  0  0  0  0  0  0  0  0  0  0  0
  190.2270  171.1120  139.6510 C   0  0  0  0  0  2  0  0  0  0  0  0
  187.7990  177.7670  142.1500 C   0  0  1  0  0  3  0  0  0  0  0  0
  194.2710  175.5670  141.7360 C   0  0  0  0  0  2  0  0  0  0  0  0
  191.9800  176.1910  145.8210 C   0  0  2  0  0  3  0  0  0  0  0  0
  195.1160  174.3300  142.0150 C   0  0  1  0  0  3  0  0  0  0  0  0
  195.5720  172.6550  140.6250 C   0  0  0  0  0  2  0  0  0  0  0  0
  193.1050  172.6490  140.2650 C   0  0  0  0  0  2  0  0  0  0  0  0
  195.8700  173.9990  140.8850 O   0  0  0  0  0  0  0  0  0  0  0  0
  188.7390  176.8490  141.6450 O   0  0  0  0  0  0  0  0  0  0  0  0
  195.9960  174.4440  143.2670 C   0  0  1  0  0  3  0  0  0  0  0  0
  189.9170  172.4220  140.3530 C   0  0  0  0  0  2  0  0  0  0  0  0
  187.7660  176.1060  143.6210 C   0  0  2  0  0  3  0  0  0  0  0  0
  192.7780  171.2090  139.9090 C   0  0  2  0  0  3  0  0  0  0  0  0
  194.1110  171.1000  139.1690 C   0  0  2  0  0  3  0  0  0  0  0  0
  194.3100  175.5240  145.0010 C   0  0  1  0  0  0  0  0  0  0  0  0
  188.2590  175.8630  145.0520 C   0  0  0  0  0  2  0  0  0  0  0  0
  192.4160  174.0500  144.8770 F   0  0  0  0  0  0  0  0  0  0  0  0
  191.5840  171.1540  138.9380 C   0  0  1  0  0  3  0  0  0  0  0  0
  192.9880  175.0350  145.6660 C   0  0  0  0  0  0  0  0  0  0  0  0
  188.8090  175.8140  142.5760 C   0  0  1  0  0  3  0  0  0  0  0  0
  189.7110  177.7590  145.2200 O   0  0  0  0  0  0  0  0  0  0  0  0
  195.0800  170.0110  139.6830 C   0  0  2  0  0  3  0  0  0  0  0  0
  196.2900  170.1410  138.9950 O   0  0  0  0  0  1  0  0  0  0  0  0
  194.3190  168.2230  138.1080 C   0  0  0  0  0  1  0  0  0  0  0  0
  194.5470  168.5730  139.5690 C   0  0  2  0  0  3  0  0  0  0  0  0
  193.3420  168.4260  140.2620 O   0  0  0  0  0  0  0  0  0  0  0  0
  192.6650  168.6930  142.5260 C   0  0  0  0  0  1  0  0  0  0  0  0
  193.7220  168.1670  141.5790 C   0  0  0  0  0  2  0  0  0  0  0  0
  195.9240  173.6120  145.6620 C   0  0  0  0  0  2  0  0  0  0  0  0
  195.7870  172.1050  145.5700 C   0  0  0  0  0  1  0  0  0  0  0  0
  188.6890  172.9640  143.8790 O   0  0  0  0  0  0  0  0  0  0  0  0
  189.7600  172.7780  144.6250 O   0  0  0  0  0  1  0  0  0  0  0  0
  197.3190  176.2030  142.1590 C   0  0  0  0  0  2  0  0  0  0  0  0
  196.8920  175.6500  143.2930 C   0  0  0  0  0  3  0  0  0  0  0  0
  192.2310  177.0900  147.0400 C   0  0  0  0  0  2  0  0  0  0  0  0
  190.2280  177.9510  148.0560 O   0  0  0  0  0  1  0  0  0  0  0  0
  191.1750  176.9270  148.1310 C   0  0  2  0  0  3  0  0  0  0  0  0
  191.8110  176.8810  149.5180 C   0  0  0  0  0  2  0  0  0  0  0  0
  191.3320  178.0020  150.4370 C   0  0  0  0  0  2  0  0  0  0  0  0
  192.0710  178.0080  151.6200 O   0  0  0  0  0  0  0  0  0  0  0  0
  191.8910  176.7320  152.1530 C   0  0  0  0  0  1  0  0  0  0  0  0
  191.6960  170.1340  137.9630 O   0  0  0  0  0  0  0  0  0  0  0  0
  190.5710  170.1740  137.1190 C   0  0  0  0  0  2  0  0  0  0  0  0
  189.9180  172.6110  136.2360 O   0  0  0  0  0  0  0  0  0  0  0  0
  190.7830  171.4360  135.8820 S   0  0  0  0  0  0  0  0  0  0  0  0
  190.3680  170.9050  134.5380 O   0  0  0  0  0  0  0  0  0  0  0  0
  192.4850  171.9640  135.8250 C   0  0  0  0  0  2  0  0  0  0  0  0
  193.3100  171.0040  134.9910 C   0  0  0  0  0  1  0  0  0  0  0  0
  186.5940  177.8330  141.2230 C   0  0  0  0  0  2  0  0  0  0  0  0
  185.3090  177.7340  142.0240 C   0  0  0  0  0  2  0  0  0  0  0  0
  182.8370  178.1510  141.7360 N   0  0  0  0  0  2  0  0  0  0  0  0
  184.1630  178.2200  141.2080 C   0  0  0  0  0  0  0  0  0  0  0  0
  181.6860  178.6270  140.9880 C   0  0  0  0  0  1  0  0  0  0  0  0
  184.3750  178.7080  140.0660 O   0  0  0  0  0  0  0  0  0  0  0  0
  1 11  1  0  0  0  0
  2  4  1  0  0  0  0
  3 25  1  0  0  0  0
  4 28  1  0  0  0  0
  5 17  1  0  0  0  0
  6 28  1  0  0  0  0
  6 42  1  1  0  0  0
  8 11  1  0  0  0  0
  9 20  1  1  0  0  0
  9 19  1  0  0  0  0
 11 44  1  1  0  0  0
 12 24  1  6  0  0  0
 12  8  1  0  0  0  0
 12 11  1  0  0  0  0
 13  5  1  0  0  0  0
 14 24  1  0  0  0  0
 15 62  1  6  0  0  0
 15  3  1  0  0  0  0
 16  2  1  0  0  0  0
 17 48  1  1  0  0  0
 18 16  1  6  0  0  0
 18 23  1  0  0  0  0
 19 21  1  0  0  0  0
 21 18  1  0  0  0  0
 22 15  1  0  0  0  0
 22 33  1  0  0  0  0
 23 47  1  1  0  0  0
 23  6  1  0  0  0  0
 25 29  1  1  0  0  0
 26 20  1  6  0  0  0
 27  9  1  0  0  0  0
 27 35  1  1  0  0  0
 27 26  1  0  0  0  0
 28 32  1  0  0  0  0
 28  7  1  1  0  0  0
 29 13  1  0  0  0  0
 30 32  1  0  0  0  0
 31 55  1  1  0  0  0
 31 14  1  0  0  0  0
 31 26  1  0  0  0  0
 32 17  1  0  0  0  0
 32 10  1  0  0  0  0
 33  1  1  6  0  0  0
 33 25  1  0  0  0  0
 34 13  2  0  0  0  0
 35 36  1  6  0  0  0
 38 37  1  6  0  0  0
 38 35  1  0  0  0  0
 38 39  1  0  0  0  0
 39 41  1  0  0  0  0
 41 40  1  0  0  0  0
 43 42  1  0  0  0  0
 44 45  1  0  0  0  0
 46 47  2  0  0  0  0
 48 50  1  0  0  0  0
 50 49  1  1  0  0  0
 50 51  1  0  0  0  0
 51 52  1  0  0  0  0
 52 53  1  0  0  0  0
 53 54  1  0  0  0  0
 56 55  1  0  0  0  0
 58 57  2  0  0  0  0
 58 56  1  0  0  0  0
 59 58  2  0  0  0  0
 60 58  1  0  0  0  0
 61 60  1  0  0  0  0
 62 63  1  0  0  0  0
 65 64  1  0  0  0  0
 65 63  1  0  0  0  0
 66 64  1  0  0  0  0
 67 65  2  0  0  0  0
M  END
>  <MODEL>
5

>  <REMARK>
 VINA RESULT:      -4.3      3.145      7.554
  Name = 
  19 active torsions:
  status: ('A' for Active; 'I' for Inactive)
    1  A    between atoms: C_2  and  C_37
    2  A    between atoms: C_2  and  C_56
    3  A    between atoms: O_5  and  C_53
    4  A    between atoms: C_7  and  C_12
    5  A    between atoms: O_10  and  C_24
    6  A    between atoms: O_10  and  C_63
    7  A    between atoms: C_11  and  C_40
    8  A    between atoms: C_12  and  C_41
    9  A    between atoms: C_13  and  C_22
   10  A    between atoms: C_13  and  C_39
   11  A    between atoms: C_17  and  S_32
   12  A    between atoms: C_22  and  C_50
   13  A    between atoms: C_24  and  S_32
   14  A    between atoms: C_28  and  O_38
   15  A    between atoms: C_33  and  C_41
   16  A    between atoms: O_35  and  C_37
   17  A    between atoms: O_35  and  C_57
   18  A    between atoms: C_47  and  C_60
   19  A    between atoms: C_50  and  C_53
                            x       y       z     vdW  Elec       q    Type
                         _______ _______ _______ _____ _____    ______ ____

>  <TORSDO>
F 19

$$$$
=
 OpenBabel11062422483D

 67 71  0  0  1  0  0  0  0  0999 V2000
  188.5520  173.7220  140.4970 C   0  0  0  0  0  2  0  0  0  0  0  0
  192.6890  176.0600  142.3310 C   0  0  0  0  0  2  0  0  0  0  0  0
  186.6070  176.5380  141.3530 O   0  0  0  0  0  0  0  0  0  0  0  0
  193.0320  176.8960  143.4090 O   0  0  0  0  0  0  0  0  0  0  0  0
  189.4430  175.7110  144.5320 O   0  0  0  0  0  0  0  0  0  0  0  0
  194.2820  175.0580  144.5240 C   0  0  2  0  0  3  0  0  0  0  0  0
  193.5360  177.0690  145.6110 O   0  0  0  0  0  1  0  0  0  0  0  0
  190.6530  173.0240  141.7820 C   0  0  0  0  0  2  0  0  0  0  0  0
  195.0940  172.7190  139.8360 C   0  0  2  0  0  3  0  0  0  0  0  0
  191.8860  175.1100  146.3750 F   0  0  0  0  0  0  0  0  0  0  0  0
  189.1890  172.7730  141.5160 C   0  0  2  0  0  0  0  0  0  0  0  0
  190.2240  171.7330  141.0940 C   0  0  1  0  0  3  0  0  0  0  0  0
  188.3920  176.2460  143.7860 C   0  0  0  0  0  0  0  0  0  0  0  0
  191.2590  170.5250  139.1930 C   0  0  0  0  0  2  0  0  0  0  0  0
  187.2520  176.8100  140.1330 C   0  0  1  0  0  3  0  0  0  0  0  0
  193.9050  175.8600  141.4490 C   0  0  0  0  0  2  0  0  0  0  0  0
  190.6350  176.4420  144.8090 C   0  0  2  0  0  3  0  0  0  0  0  0
  194.8490  174.8420  142.0770 C   0  0  1  0  0  3  0  0  0  0  0  0
  195.8920  173.1540  141.0720 C   0  0  0  0  0  2  0  0  0  0  0  0
  193.6170  172.6390  140.1910 C   0  0  0  0  0  2  0  0  0  0  0  0
  195.8950  174.5490  141.1960 O   0  0  0  0  0  0  0  0  0  0  0  0
  188.4230  176.0420  139.9800 O   0  0  0  0  0  0  0  0  0  0  0  0
  195.3740  175.2480  143.4610 C   0  0  1  0  0  3  0  0  0  0  0  0
  190.5810  171.8150  139.6170 C   0  0  0  0  0  2  0  0  0  0  0  0
  187.1410  175.3290  141.7830 C   0  0  2  0  0  3  0  0  0  0  0  0
  193.6240  171.1340  139.9800 C   0  0  2  0  0  3  0  0  0  0  0  0
  195.0940  171.2090  139.5700 C   0  0  2  0  0  3  0  0  0  0  0  0
  193.1700  176.1540  144.6170 C   0  0  1  0  0  0  0  0  0  0  0  0
  187.3100  175.3310  143.3060 C   0  0  0  0  0  2  0  0  0  0  0  0
  191.6270  174.3390  144.2970 F   0  0  0  0  0  0  0  0  0  0  0  0
  192.7220  170.7540  138.7920 C   0  0  1  0  0  3  0  0  0  0  0  0
  191.8260  175.4910  145.0420 C   0  0  0  0  0  0  0  0  0  0  0  0
  188.4360  175.1390  141.0410 C   0  0  1  0  0  3  0  0  0  0  0  0
  188.3510  177.4780  143.5140 O   0  0  0  0  0  0  0  0  0  0  0  0
  196.0760  170.3830  140.4320 C   0  0  2  0  0  3  0  0  0  0  0  0
  197.0060  171.2600  140.9980 O   0  0  0  0  0  1  0  0  0  0  0  0
  197.2250  168.1730  140.6590 C   0  0  0  0  0  1  0  0  0  0  0  0
  196.7930  169.2490  139.6790 C   0  0  2  0  0  3  0  0  0  0  0  0
  197.9220  169.7270  139.0060 O   0  0  0  0  0  0  0  0  0  0  0  0
  197.3380  169.8970  136.7070 C   0  0  0  0  0  1  0  0  0  0  0  0
  197.9320  169.0310  137.7970 C   0  0  0  0  0  2  0  0  0  0  0  0
  194.8690  174.6630  145.8770 C   0  0  0  0  0  2  0  0  0  0  0  0
  195.6900  173.3950  145.7460 C   0  0  0  0  0  1  0  0  0  0  0  0
  188.4750  172.4650  142.6790 O   0  0  0  0  0  0  0  0  0  0  0  0
  189.3740  172.4560  143.6430 O   0  0  0  0  0  1  0  0  0  0  0  0
  197.2610  176.7740  143.0330 C   0  0  0  0  0  2  0  0  0  0  0  0
  196.0290  176.5990  143.5080 C   0  0  0  0  0  3  0  0  0  0  0  0
  190.4380  177.4900  145.9120 C   0  0  0  0  0  2  0  0  0  0  0  0
  189.2980  175.6590  146.9760 O   0  0  0  0  0  1  0  0  0  0  0  0
  189.4480  177.0470  146.9880 C   0  0  2  0  0  3  0  0  0  0  0  0
  188.0960  177.7380  146.8180 C   0  0  0  0  0  2  0  0  0  0  0  0
  186.9140  176.8450  147.1840 C   0  0  0  0  0  2  0  0  0  0  0  0
  185.7770  177.6180  147.4190 O   0  0  0  0  0  0  0  0  0  0  0  0
  186.2600  178.7770  148.0260 C   0  0  0  0  0  1  0  0  0  0  0  0
  193.2280  169.6810  138.0200 O   0  0  0  0  0  0  0  0  0  0  0  0
  192.3410  169.4130  136.9610 C   0  0  0  0  0  2  0  0  0  0  0  0
  193.5270  169.4630  134.5660 O   0  0  0  0  0  0  0  0  0  0  0  0
  192.8020  170.3600  135.5270 S   0  0  0  0  0  0  0  0  0  0  0  0
  193.7120  171.4870  135.9330 O   0  0  0  0  0  0  0  0  0  0  0  0
  191.3500  171.0140  134.7270 C   0  0  0  0  0  2  0  0  0  0  0  0
  190.4870  171.7630  135.7230 C   0  0  0  0  0  1  0  0  0  0  0  0
  186.3090  176.5500  138.9670 C   0  0  0  0  0  2  0  0  0  0  0  0
  187.0060  175.7230  137.9030 C   0  0  0  0  0  2  0  0  0  0  0  0
  187.7090  177.0230  135.8580 N   0  0  0  0  0  2  0  0  0  0  0  0
  186.7090  176.2770  136.5540 C   0  0  0  0  0  0  0  0  0  0  0  0
  187.4760  177.5730  134.5330 C   0  0  0  0  0  1  0  0  0  0  0  0
  185.5830  176.0670  136.0280 O   0  0  0  0  0  0  0  0  0  0  0  0
  1 11  1  0  0  0  0
  2  4  1  0  0  0  0
  3 25  1  0  0  0  0
  4 28  1  0  0  0  0
  5 17  1  0  0  0  0
  6 28  1  0  0  0  0
  6 42  1  1  0  0  0
  9 20  1  1  0  0  0
  9 19  1  0  0  0  0
 11  8  1  0  0  0  0
 11 44  1  1  0  0  0
 12 24  1  6  0  0  0
 12 11  1  0  0  0  0
 12  8  1  0  0  0  0
 13  5  1  0  0  0  0
 14 24  1  0  0  0  0
 15 62  1  6  0  0  0
 15  3  1  0  0  0  0
 16  2  1  0  0  0  0
 17 32  1  0  0  0  0
 17 48  1  1  0  0  0
 18 16  1  6  0  0  0
 18 23  1  0  0  0  0
 19 21  1  0  0  0  0
 21 18  1  0  0  0  0
 22 15  1  0  0  0  0
 22 33  1  0  0  0  0
 23 47  1  6  0  0  0
 23  6  1  0  0  0  0
 25 29  1  1  0  0  0
 26 20  1  6  0  0  0
 27  9  1  0  0  0  0
 27 26  1  0  0  0  0
 27 35  1  1  0  0  0
 28 32  1  0  0  0  0
 28  7  1  1  0  0  0
 29 13  1  0  0  0  0
 30 32  1  0  0  0  0
 31 55  1  1  0  0  0
 31 14  1  0  0  0  0
 31 26  1  0  0  0  0
 32 10  1  0  0  0  0
 33  1  1  6  0  0  0
 33 25  1  0  0  0  0
 34 13  2  0  0  0  0
 35 36  1  6  0  0  0
 38 35  1  0  0  0  0
 38 37  1  1  0  0  0
 39 38  1  0  0  0  0
 40 41  1  0  0  0  0
 41 39  1  0  0  0  0
 43 42  1  0  0  0  0
 44 45  1  0  0  0  0
 46 47  2  0  0  0  0
 48 50  1  0  0  0  0
 50 49  1  6  0  0  0
 51 50  1  0  0  0  0
 51 52  1  0  0  0  0
 52 53  1  0  0  0  0
 53 54  1  0  0  0  0
 56 55  1  0  0  0  0
 57 58  2  0  0  0  0
 58 59  2  0  0  0  0
 58 56  1  0  0  0  0
 60 58  1  0  0  0  0
 60 61  1  0  0  0  0
 63 62  1  0  0  0  0
 64 65  1  0  0  0  0
 65 63  1  0  0  0  0
 66 64  1  0  0  0  0
 67 65  2  0  0  0  0
M  END
>  <MODEL>
6

>  <REMARK>
 VINA RESULT:      -3.6      3.293      7.626
  Name = 
  19 active torsions:
  status: ('A' for Active; 'I' for Inactive)
    1  A    between atoms: C_2  and  C_37
    2  A    between atoms: C_2  and  C_56
    3  A    between atoms: O_5  and  C_53
    4  A    between atoms: C_7  and  C_12
    5  A    between atoms: O_10  and  C_24
    6  A    between atoms: O_10  and  C_63
    7  A    between atoms: C_11  and  C_40
    8  A    between atoms: C_12  and  C_41
    9  A    between atoms: C_13  and  C_22
   10  A    between atoms: C_13  and  C_39
   11  A    between atoms: C_17  and  S_32
   12  A    between atoms: C_22  and  C_50
   13  A    between atoms: C_24  and  S_32
   14  A    between atoms: C_28  and  O_38
   15  A    between atoms: C_33  and  C_41
   16  A    between atoms: O_35  and  C_37
   17  A    between atoms: O_35  and  C_57
   18  A    between atoms: C_47  and  C_60
   19  A    between atoms: C_50  and  C_53
                            x       y       z     vdW  Elec       q    Type
                         _______ _______ _______ _____ _____    ______ ____

>  <TORSDO>
F 19

$$$$
=
 OpenBabel11062422483D

 67 71  0  0  1  0  0  0  0  0999 V2000
  189.2230  174.2480  140.9040 C   0  0  0  0  0  2  0  0  0  0  0  0
  193.6990  175.6130  142.9170 C   0  0  0  0  0  2  0  0  0  0  0  0
  187.5580  176.1060  143.3970 O   0  0  0  0  0  0  0  0  0  0  0  0
  194.2610  175.8110  144.1910 O   0  0  0  0  0  0  0  0  0  0  0  0
  190.9050  173.9820  145.1620 O   0  0  0  0  0  0  0  0  0  0  0  0
  195.6370  173.7510  143.9790 C   0  0  2  0  0  3  0  0  0  0  0  0
  195.1670  174.8830  146.0480 O   0  0  0  0  0  1  0  0  0  0  0  0
  191.5030  173.1390  141.2660 C   0  0  0  0  0  2  0  0  0  0  0  0
  195.4960  174.1620  138.6950 C   0  0  2  0  0  3  0  0  0  0  0  0
  193.6270  172.7000  145.9840 F   0  0  0  0  0  0  0  0  0  0  0  0
  190.0070  172.9590  141.1690 C   0  0  2  0  0  0  0  0  0  0  0  0
  190.9140  172.3480  140.1040 C   0  0  1  0  0  3  0  0  0  0  0  0
  189.7520  174.7470  144.9880 C   0  0  0  0  0  0  0  0  0  0  0  0
  191.5430  172.3380  137.7060 C   0  0  0  0  0  2  0  0  0  0  0  0
  187.9750  177.0000  142.3940 C   0  0  1  0  0  3  0  0  0  0  0  0
  194.7240  175.9690  141.8590 C   0  0  0  0  0  2  0  0  0  0  0  0
  192.1500  174.5510  145.5590 C   0  0  2  0  0  3  0  0  0  0  0  0
  195.7360  174.8400  141.7060 C   0  0  1  0  0  3  0  0  0  0  0  0
  196.5220  173.9660  139.8180 C   0  0  0  0  0  2  0  0  0  0  0  0
  194.1090  173.8130  139.2110 C   0  0  0  0  0  2  0  0  0  0  0  0
  196.5910  175.1030  140.6320 O   0  0  0  0  0  0  0  0  0  0  0  0
  189.0730  176.4960  141.6700 O   0  0  0  0  0  0  0  0  0  0  0  0
  196.5200  174.5260  142.9880 C   0  0  1  0  0  3  0  0  0  0  0  0
  190.9950  173.1880  138.8380 C   0  0  0  0  0  2  0  0  0  0  0  0
  188.1240  174.8850  143.0520 C   0  0  2  0  0  3  0  0  0  0  0  0
  194.0300  172.6250  138.2670 C   0  0  2  0  0  3  0  0  0  0  0  0
  195.4010  172.9960  137.7030 C   0  0  2  0  0  3  0  0  0  0  0  0
  194.5960  174.5720  144.8080 C   0  0  1  0  0  0  0  0  0  0  0  0
  188.5720  174.1290  144.3070 C   0  0  0  0  0  2  0  0  0  0  0  0
  192.9650  173.0680  143.8850 F   0  0  0  0  0  0  0  0  0  0  0  0
  192.9130  172.8370  137.2290 C   0  0  1  0  0  3  0  0  0  0  0  0
  193.3330  173.6960  145.0640 C   0  0  0  0  0  0  0  0  0  0  0  0
  189.2540  175.1840  142.1040 C   0  0  1  0  0  3  0  0  0  0  0  0
  189.6990  175.9420  145.3920 O   0  0  0  0  0  0  0  0  0  0  0  0
  196.4990  171.9170  137.8370 C   0  0  2  0  0  3  0  0  0  0  0  0
  197.7180  172.5600  138.0710 O   0  0  0  0  0  1  0  0  0  0  0  0
  196.4810  171.7490  135.3420 C   0  0  0  0  0  1  0  0  0  0  0  0
  196.6140  170.9640  136.6350 C   0  0  2  0  0  3  0  0  0  0  0  0
  195.6170  169.9840  136.6740 O   0  0  0  0  0  0  0  0  0  0  0  0
  197.5960  168.6670  136.6030 C   0  0  0  0  0  1  0  0  0  0  0  0
  196.2390  168.8720  137.2420 C   0  0  0  0  0  2  0  0  0  0  0  0
  196.4520  172.7690  144.8160 C   0  0  0  0  0  2  0  0  0  0  0  0
  196.1750  171.3450  144.3750 C   0  0  0  0  0  1  0  0  0  0  0  0
  189.5120  172.0580  142.1180 O   0  0  0  0  0  0  0  0  0  0  0  0
  190.5570  171.7070  142.8390 O   0  0  0  0  0  1  0  0  0  0  0  0
  197.5460  176.7620  142.8560 C   0  0  0  0  0  2  0  0  0  0  0  0
  197.2140  175.7090  143.6010 C   0  0  0  0  0  3  0  0  0  0  0  0
  192.1920  174.8830  147.0570 C   0  0  0  0  0  2  0  0  0  0  0  0
  191.0930  176.8570  147.8800 O   0  0  0  0  0  1  0  0  0  0  0  0
  192.2880  176.3820  147.3350 C   0  0  2  0  0  3  0  0  0  0  0  0
  192.6540  177.1600  146.0730 C   0  0  0  0  0  2  0  0  0  0  0  0
  191.5060  178.0110  145.5380 C   0  0  0  0  0  2  0  0  0  0  0  0
  191.2370  177.6820  144.2090 O   0  0  0  0  0  0  0  0  0  0  0  0
  191.2080  178.9070  143.5430 C   0  0  0  0  0  1  0  0  0  0  0  0
  193.2340  172.3380  135.9440 O   0  0  0  0  0  0  0  0  0  0  0  0
  192.0900  171.7470  135.3770 C   0  0  0  0  0  2  0  0  0  0  0  0
  193.5830  169.7040  134.5130 O   0  0  0  0  0  0  0  0  0  0  0  0
  192.3100  169.9850  135.2600 S   0  0  0  0  0  0  0  0  0  0  0  0
  191.1550  169.3770  134.5130 O   0  0  0  0  0  0  0  0  0  0  0  0
  192.4230  169.2670  136.8870 C   0  0  0  0  0  2  0  0  0  0  0  0
  191.3500  168.2130  137.0770 C   0  0  0  0  0  1  0  0  0  0  0  0
  186.8250  177.3010  141.4430 C   0  0  0  0  0  2  0  0  0  0  0  0
  186.0740  178.5360  141.9030 C   0  0  0  0  0  2  0  0  0  0  0  0
  183.9030  178.4480  140.6200 N   0  0  0  0  0  2  0  0  0  0  0  0
  184.6070  178.2860  141.8520 C   0  0  0  0  0  0  0  0  0  0  0  0
  182.4750  178.2010  140.5120 C   0  0  0  0  0  1  0  0  0  0  0  0
  184.0030  177.9140  142.8940 O   0  0  0  0  0  0  0  0  0  0  0  0
  1 11  1  0  0  0  0
  2  4  1  0  0  0  0
  4 28  1  0  0  0  0
  5 17  1  0  0  0  0
  6 28  1  0  0  0  0
  6 42  1  1  0  0  0
  9 20  1  1  0  0  0
  9 19  1  0  0  0  0
 11  8  1  0  0  0  0
 11 44  1  1  0  0  0
 12 24  1  6  0  0  0
 12 11  1  0  0  0  0
 12  8  1  0  0  0  0
 13  5  1  0  0  0  0
 13 34  2  0  0  0  0
 14 24  1  0  0  0  0
 15 62  1  6  0  0  0
 15  3  1  0  0  0  0
 16  2  1  0  0  0  0
 17 48  1  1  0  0  0
 18 16  1  1  0  0  0
 18 23  1  0  0  0  0
 19 21  1  0  0  0  0
 21 18  1  0  0  0  0
 22 33  1  0  0  0  0
 22 15  1  0  0  0  0
 23 47  1  1  0  0  0
 23  6  1  0  0  0  0
 25  3  1  0  0  0  0
 25 29  1  1  0  0  0
 26 20  1  1  0  0  0
 27 35  1  1  0  0  0
 27 26  1  0  0  0  0
 27  9  1  0  0  0  0
 28 32  1  0  0  0  0
 28  7  1  1  0  0  0
 29 13  1  0  0  0  0
 30 32  1  0  0  0  0
 31 55  1  6  0  0  0
 31 14  1  0  0  0  0
 31 26  1  0  0  0  0
 32 17  1  0  0  0  0
 32 10  1  0  0  0  0
 33  1  1  6  0  0  0
 33 25  1  0  0  0  0
 35 36  1  6  0  0  0
 38 37  1  6  0  0  0
 38 39  1  0  0  0  0
 38 35  1  0  0  0  0
 39 41  1  0  0  0  0
 40 41  1  0  0  0  0
 43 42  1  0  0  0  0
 44 45  1  0  0  0  0
 46 47  2  0  0  0  0
 48 50  1  0  0  0  0
 50 49  1  6  0  0  0
 51 50  1  0  0  0  0
 52 51  1  0  0  0  0
 53 52  1  0  0  0  0
 54 53  1  0  0  0  0
 56 55  1  0  0  0  0
 57 58  2  0  0  0  0
 58 56  1  0  0  0  0
 58 60  1  0  0  0  0
 59 58  2  0  0  0  0
 60 61  1  0  0  0  0
 62 63  1  0  0  0  0
 64 65  1  0  0  0  0
 65 63  1  0  0  0  0
 65 67  2  0  0  0  0
 66 64  1  0  0  0  0
M  END
>  <MODEL>
7

>  <REMARK>
 VINA RESULT:      -3.2      3.053      7.369
  Name = 
  19 active torsions:
  status: ('A' for Active; 'I' for Inactive)
    1  A    between atoms: C_2  and  C_37
    2  A    between atoms: C_2  and  C_56
    3  A    between atoms: O_5  and  C_53
    4  A    between atoms: C_7  and  C_12
    5  A    between atoms: O_10  and  C_24
    6  A    between atoms: O_10  and  C_63
    7  A    between atoms: C_11  and  C_40
    8  A    between atoms: C_12  and  C_41
    9  A    between atoms: C_13  and  C_22
   10  A    between atoms: C_13  and  C_39
   11  A    between atoms: C_17  and  S_32
   12  A    between atoms: C_22  and  C_50
   13  A    between atoms: C_24  and  S_32
   14  A    between atoms: C_28  and  O_38
   15  A    between atoms: C_33  and  C_41
   16  A    between atoms: O_35  and  C_37
   17  A    between atoms: O_35  and  C_57
   18  A    between atoms: C_47  and  C_60
   19  A    between atoms: C_50  and  C_53
                            x       y       z     vdW  Elec       q    Type
                         _______ _______ _______ _____ _____    ______ ____

>  <TORSDO>
F 19

$$$$
=
 OpenBabel11062422483D

 67 71  0  0  1  0  0  0  0  0999 V2000
  193.6990  171.8240  138.8790 C   0  0  0  0  0  2  0  0  0  0  0  0
  193.1950  173.0980  143.7850 C   0  0  0  0  0  2  0  0  0  0  0  0
  196.5660  169.9330  139.6860 O   0  0  0  0  0  0  0  0  0  0  0  0
  194.0200  173.4340  144.8730 O   0  0  0  0  0  0  0  0  0  0  0  0
  196.6110  173.6590  141.9090 O   0  0  0  0  0  0  0  0  0  0  0  0
  193.2950  175.8100  144.7770 C   0  0  2  0  0  3  0  0  0  0  0  0
  195.2560  175.0180  145.9200 O   0  0  0  0  0  1  0  0  0  0  0  0
  192.9760  173.9050  140.1840 C   0  0  0  0  0  2  0  0  0  0  0  0
  188.7310  174.3600  142.5010 C   0  0  2  0  0  3  0  0  0  0  0  0
  196.0850  176.1840  143.6630 F   0  0  0  0  0  0  0  0  0  0  0  0
  193.6300  173.3520  138.9400 C   0  0  2  0  0  0  0  0  0  0  0  0
  192.2990  174.0920  138.8310 C   0  0  1  0  0  3  0  0  0  0  0  0
  196.9720  172.4310  141.3550 C   0  0  0  0  0  0  0  0  0  0  0  0
  189.9040  173.9230  138.2160 C   0  0  0  0  0  2  0  0  0  0  0  0
  195.4320  169.1560  139.9890 C   0  0  1  0  0  3  0  0  0  0  0  0
  191.7520  173.0560  144.2470 C   0  0  0  0  0  2  0  0  0  0  0  0
  196.3170  173.8180  143.2950 C   0  0  2  0  0  3  0  0  0  0  0  0
  191.1980  174.4710  144.3690 C   0  0  1  0  0  3  0  0  0  0  0  0
  189.2240  175.2220  143.6700 C   0  0  0  0  0  2  0  0  0  0  0  0
  189.8770  174.1230  141.5300 C   0  0  0  0  0  2  0  0  0  0  0  0
  189.8290  174.4280  144.6520 O   0  0  0  0  0  0  0  0  0  0  0  0
  194.3000  169.9580  140.2280 O   0  0  0  0  0  0  0  0  0  0  0  0
  191.9540  175.3540  145.3710 C   0  0  1  0  0  3  0  0  0  0  0  0
  191.1040  173.1550  138.7400 C   0  0  0  0  0  2  0  0  0  0  0  0
  196.0660  171.1840  139.3450 C   0  0  2  0  0  3  0  0  0  0  0  0
  189.1660  174.9310  140.4570 C   0  0  2  0  0  3  0  0  0  0  0  0
  187.9850  175.1320  141.4050 C   0  0  2  0  0  3  0  0  0  0  0  0
  194.4720  174.7810  144.7840 C   0  0  1  0  0  0  0  0  0  0  0  0
  196.9900  172.2900  139.8660 C   0  0  0  0  0  2  0  0  0  0  0  0
  194.5540  175.1510  142.4110 F   0  0  0  0  0  0  0  0  0  0  0  0
  188.7910  174.0300  139.2660 C   0  0  1  0  0  3  0  0  0  0  0  0
  195.3640  175.0070  143.5260 C   0  0  0  0  0  0  0  0  0  0  0  0
  194.6720  171.2610  139.9060 C   0  0  1  0  0  3  0  0  0  0  0  0
  197.2750  171.4520  142.0910 O   0  0  0  0  0  0  0  0  0  0  0  0
  187.6360  176.5990  141.7450 C   0  0  2  0  0  3  0  0  0  0  0  0
  188.7380  177.1740  142.3860 O   0  0  0  0  0  1  0  0  0  0  0  0
  185.3280  177.5600  141.8090 C   0  0  0  0  0  1  0  0  0  0  0  0
  186.3660  176.7770  142.5940 C   0  0  2  0  0  3  0  0  0  0  0  0
  186.6460  177.4600  143.7820 O   0  0  0  0  0  0  0  0  0  0  0  0
  185.5680  178.6900  145.5080 C   0  0  0  0  0  1  0  0  0  0  0  0
  185.3940  177.8060  144.2920 C   0  0  0  0  0  2  0  0  0  0  0  0
  193.6900  177.2000  145.2700 C   0  0  0  0  0  2  0  0  0  0  0  0
  194.4630  177.0970  146.5710 C   0  0  0  0  0  1  0  0  0  0  0  0
  194.7540  174.0890  138.5520 O   0  0  0  0  0  0  0  0  0  0  0  0
  194.8690  173.8860  137.2550 O   0  0  0  0  0  1  0  0  0  0  0  0
  191.4280  175.3120  147.7780 C   0  0  0  0  0  2  0  0  0  0  0  0
  192.0770  174.7690  146.7500 C   0  0  0  0  0  3  0  0  0  0  0  0
  197.5810  173.8420  144.1640 C   0  0  0  0  0  2  0  0  0  0  0  0
  197.8660  171.4550  144.1130 O   0  0  0  0  0  1  0  0  0  0  0  0
  197.7810  172.5570  144.9660 C   0  0  2  0  0  3  0  0  0  0  0  0
  196.6670  172.3620  145.9910 C   0  0  0  0  0  2  0  0  0  0  0  0
  195.9580  171.0170  145.8600 C   0  0  0  0  0  2  0  0  0  0  0  0
  196.4120  170.1320  146.8380 O   0  0  0  0  0  0  0  0  0  0  0  0
  195.4340  169.1390  146.8940 C   0  0  0  0  0  1  0  0  0  0  0  0
  187.5460  174.3600  138.6790 O   0  0  0  0  0  0  0  0  0  0  0  0
  187.7240  174.5630  137.2980 C   0  0  0  0  0  2  0  0  0  0  0  0
  187.0170  177.0970  137.7700 O   0  0  0  0  0  0  0  0  0  0  0  0
  186.8090  175.9950  136.7710 S   0  0  0  0  0  0  0  0  0  0  0  0
  185.3440  175.6640  136.6990 O   0  0  0  0  0  0  0  0  0  0  0  0
  187.3850  176.5420  135.1750 C   0  0  0  0  0  2  0  0  0  0  0  0
  188.1290  177.8560  135.3020 C   0  0  0  0  0  1  0  0  0  0  0  0
  195.1440  168.1800  138.8570 C   0  0  0  0  0  2  0  0  0  0  0  0
  196.2320  168.2610  137.8030 C   0  0  0  0  0  2  0  0  0  0  0  0
  196.2720  169.8340  135.8300 N   0  0  0  0  0  2  0  0  0  0  0  0
  195.6580  168.7420  136.5170 C   0  0  0  0  0  0  0  0  0  0  0  0
  195.7620  170.3310  134.5640 C   0  0  0  0  0  1  0  0  0  0  0  0
  194.6460  168.1670  136.0330 O   0  0  0  0  0  0  0  0  0  0  0  0
  1 11  1  0  0  0  0
  2 16  1  0  0  0  0
  2  4  1  0  0  0  0
  3 15  1  0  0  0  0
  5 17  1  0  0  0  0
  6 28  1  0  0  0  0
  6 42  1  1  0  0  0
  6 23  1  0  0  0  0
  9 20  1  6  0  0  0
  9 19  1  0  0  0  0
 11 44  1  6  0  0  0
 11  8  1  0  0  0  0
 12 24  1  1  0  0  0
 12 11  1  0  0  0  0
 12  8  1  0  0  0  0
 13  5  1  0  0  0  0
 13 34  2  0  0  0  0
 14 24  1  0  0  0  0
 14 31  1  0  0  0  0
 15 62  1  6  0  0  0
 15 22  1  0  0  0  0
 17 32  1  0  0  0  0
 17 48  1  1  0  0  0
 18 16  1  1  0  0  0
 18 21  1  0  0  0  0
 18 23  1  0  0  0  0
 19 21  1  0  0  0  0
 23 47  1  1  0  0  0
 25  3  1  0  0  0  0
 25 29  1  1  0  0  0
 25 33  1  0  0  0  0
 26 27  1  0  0  0  0
 26 20  1  1  0  0  0
 27 35  1  1  0  0  0
 27  9  1  0  0  0  0
 28  4  1  0  0  0  0
 28  7  1  1  0  0  0
 29 13  1  0  0  0  0
 30 32  1  0  0  0  0
 31 55  1  6  0  0  0
 31 26  1  0  0  0  0
 32 10  1  0  0  0  0
 32 28  1  0  0  0  0
 33  1  1  6  0  0  0
 33 22  1  0  0  0  0
 35 36  1  1  0  0  0
 35 38  1  0  0  0  0
 38 37  1  6  0  0  0
 38 39  1  0  0  0  0
 39 41  1  0  0  0  0
 41 40  1  0  0  0  0
 42 43  1  0  0  0  0
 45 44  1  0  0  0  0
 47 46  2  0  0  0  0
 48 50  1  0  0  0  0
 50 49  1  6  0  0  0
 50 51  1  0  0  0  0
 52 51  1  0  0  0  0
 52 53  1  0  0  0  0
 53 54  1  0  0  0  0
 56 55  1  0  0  0  0
 58 56  1  0  0  0  0
 58 57  2  0  0  0  0
 59 58  2  0  0  0  0
 60 61  1  0  0  0  0
 60 58  1  0  0  0  0
 63 62  1  0  0  0  0
 64 65  1  0  0  0  0
 65 63  1  0  0  0  0
 66 64  1  0  0  0  0
 67 65  2  0  0  0  0
M  END
>  <MODEL>
8

>  <REMARK>
 VINA RESULT:      -3.1      2.978      6.936
  Name = 
  19 active torsions:
  status: ('A' for Active; 'I' for Inactive)
    1  A    between atoms: C_2  and  C_37
    2  A    between atoms: C_2  and  C_56
    3  A    between atoms: O_5  and  C_53
    4  A    between atoms: C_7  and  C_12
    5  A    between atoms: O_10  and  C_24
    6  A    between atoms: O_10  and  C_63
    7  A    between atoms: C_11  and  C_40
    8  A    between atoms: C_12  and  C_41
    9  A    between atoms: C_13  and  C_22
   10  A    between atoms: C_13  and  C_39
   11  A    between atoms: C_17  and  S_32
   12  A    between atoms: C_22  and  C_50
   13  A    between atoms: C_24  and  S_32
   14  A    between atoms: C_28  and  O_38
   15  A    between atoms: C_33  and  C_41
   16  A    between atoms: O_35  and  C_37
   17  A    between atoms: O_35  and  C_57
   18  A    between atoms: C_47  and  C_60
   19  A    between atoms: C_50  and  C_53
                            x       y       z     vdW  Elec       q    Type
                         _______ _______ _______ _____ _____    ______ ____

>  <TORSDO>
F 19

$$$$
=
 OpenBabel11062422483D

 67 71  0  0  1  0  0  0  0  0999 V2000
  191.4360  173.7190  143.1160 C   0  0  0  0  0  2  0  0  0  0  0  0
  195.4480  172.9550  140.0720 C   0  0  0  0  0  2  0  0  0  0  0  0
  193.6190  174.1200  145.8590 O   0  0  0  0  0  0  0  0  0  0  0  0
  196.6980  172.3110  140.1230 O   0  0  0  0  0  0  0  0  0  0  0  0
  195.0020  170.8470  143.3670 O   0  0  0  0  0  0  0  0  0  0  0  0
  195.9160  170.5240  138.5810 C   0  0  2  0  0  3  0  0  0  0  0  0
  197.8560  170.3690  139.9920 O   0  0  0  0  0  1  0  0  0  0  0  0
  191.9710  172.2340  141.1000 C   0  0  0  0  0  2  0  0  0  0  0  0
  192.3150  173.8280  136.5240 C   0  0  2  0  0  3  0  0  0  0  0  0
  195.9430  168.8890  141.1290 F   0  0  0  0  0  0  0  0  0  0  0  0
  191.2010  172.3930  142.3880 C   0  0  2  0  0  0  0  0  0  0  0  0
  190.4510  172.3370  141.0600 C   0  0  1  0  0  3  0  0  0  0  0  0
  194.8550  171.7590  144.4120 C   0  0  0  0  0  0  0  0  0  0  0  0
  188.9820  173.5610  139.4820 C   0  0  0  0  0  2  0  0  0  0  0  0
  193.5800  175.3350  145.1520 C   0  0  1  0  0  3  0  0  0  0  0  0
  195.3060  173.6620  138.7390 C   0  0  0  0  0  2  0  0  0  0  0  0
  196.1100  170.8790  142.4720 C   0  0  2  0  0  3  0  0  0  0  0  0
  194.9540  172.6600  137.6470 C   0  0  1  0  0  3  0  0  0  0  0  0
  193.4170  172.8700  136.0530 C   0  0  0  0  0  2  0  0  0  0  0  0
  191.9300  173.4900  137.9560 C   0  0  0  0  0  2  0  0  0  0  0  0
  194.6790  173.3290  136.4510 O   0  0  0  0  0  0  0  0  0  0  0  0
  193.2130  175.1450  143.8060 O   0  0  0  0  0  0  0  0  0  0  0  0
  196.0040  171.5580  137.4480 C   0  0  1  0  0  3  0  0  0  0  0  0
  190.0600  173.7130  140.5400 C   0  0  0  0  0  2  0  0  0  0  0  0
  192.8980  173.2240  145.0770 C   0  0  2  0  0  3  0  0  0  0  0  0
  190.5420  173.0640  137.5070 C   0  0  2  0  0  3  0  0  0  0  0  0
  190.9000  173.4500  136.0720 C   0  0  2  0  0  3  0  0  0  0  0  0
  196.5630  170.9040  139.9530 C   0  0  1  0  0  0  0  0  0  0  0  0
  193.5420  171.8340  145.1240 C   0  0  0  0  0  2  0  0  0  0  0  0
  194.3880  170.4700  140.8790 F   0  0  0  0  0  0  0  0  0  0  0  0
  189.4750  174.0030  138.0980 C   0  0  1  0  0  3  0  0  0  0  0  0
  195.7390  170.2610  141.1090 C   0  0  0  0  0  0  0  0  0  0  0  0
  192.8430  173.8060  143.6900 C   0  0  1  0  0  3  0  0  0  0  0  0
  195.8080  172.5140  144.7520 O   0  0  0  0  0  0  0  0  0  0  0  0
  190.8160  172.3130  135.0280 C   0  0  2  0  0  3  0  0  0  0  0  0
  189.4710  172.1140  134.7050 O   0  0  0  0  0  1  0  0  0  0  0  0
  192.6710  170.6950  134.5880 C   0  0  0  0  0  1  0  0  0  0  0  0
  191.4670  170.9910  135.4660 C   0  0  2  0  0  3  0  0  0  0  0  0
  190.5640  169.9280  135.3670 O   0  0  0  0  0  0  0  0  0  0  0  0
  190.0930  169.1820  137.5750 C   0  0  0  0  0  1  0  0  0  0  0  0
  190.9710  169.0270  136.3520 C   0  0  0  0  0  2  0  0  0  0  0  0
  196.2770  169.1220  138.0990 C   0  0  0  0  0  2  0  0  0  0  0  0
  195.2170  168.6020  137.1470 C   0  0  0  0  0  1  0  0  0  0  0  0
  191.1650  171.2140  143.1420 O   0  0  0  0  0  0  0  0  0  0  0  0
  192.1040  170.4460  142.6270 O   0  0  0  0  0  1  0  0  0  0  0  0
  197.8500  172.2310  135.9620 C   0  0  0  0  0  2  0  0  0  0  0  0
  197.3980  172.0620  137.2030 C   0  0  0  0  0  3  0  0  0  0  0  0
  197.3880  170.3060  143.0980 C   0  0  0  0  0  2  0  0  0  0  0  0
  195.8650  168.5010  143.5500 O   0  0  0  0  0  1  0  0  0  0  0  0
  197.1740  168.9420  143.7530 C   0  0  2  0  0  3  0  0  0  0  0  0
  197.5050  168.9840  145.2430 C   0  0  0  0  0  2  0  0  0  0  0  0
  196.2970  168.7140  146.1350 C   0  0  0  0  0  2  0  0  0  0  0  0
  196.2890  169.5920  147.2200 O   0  0  0  0  0  0  0  0  0  0  0  0
  195.9630  168.7930  148.3150 C   0  0  0  0  0  1  0  0  0  0  0  0
  188.3980  174.2590  137.2160 O   0  0  0  0  0  0  0  0  0  0  0  0
  187.3510  174.8740  137.9280 C   0  0  0  0  0  2  0  0  0  0  0  0
  187.9260  176.7660  136.1290 O   0  0  0  0  0  0  0  0  0  0  0  0
  186.8580  176.3750  137.1110 S   0  0  0  0  0  0  0  0  0  0  0  0
  186.6930  177.4740  138.1230 O   0  0  0  0  0  0  0  0  0  0  0  0
  185.3270  176.1260  136.2330 C   0  0  0  0  0  2  0  0  0  0  0  0
  185.5520  176.2230  134.7370 C   0  0  0  0  0  1  0  0  0  0  0  0
  192.6130  176.3030  145.8180 C   0  0  0  0  0  2  0  0  0  0  0  0
  191.9300  177.1660  144.7730 C   0  0  0  0  0  2  0  0  0  0  0  0
  189.7870  176.7910  143.4940 N   0  0  0  0  0  2  0  0  0  0  0  0
  190.4720  176.8700  144.7460 C   0  0  0  0  0  0  0  0  0  0  0  0
  188.3680  176.4900  143.4110 C   0  0  0  0  0  1  0  0  0  0  0  0
  189.8560  176.6710  145.8280 O   0  0  0  0  0  0  0  0  0  0  0  0
  2  4  1  0  0  0  0
  5 13  1  0  0  0  0
  6 42  1  6  0  0  0
  6 28  1  0  0  0  0
  8 11  1  0  0  0  0
  9 19  1  6  0  0  0
  9 20  1  0  0  0  0
 11  1  1  0  0  0  0
 11 44  1  1  0  0  0
 12 24  1  6  0  0  0
 12  8  1  0  0  0  0
 12 11  1  0  0  0  0
 13 34  2  0  0  0  0
 13 29  1  0  0  0  0
 14 24  1  0  0  0  0
 15 62  1  1  0  0  0
 15  3  1  0  0  0  0
 16  2  1  0  0  0  0
 17 48  1  1  0  0  0
 17  5  1  0  0  0  0
 18 16  1  1  0  0  0
 19 21  1  0  0  0  0
 21 18  1  0  0  0  0
 22 15  1  0  0  0  0
 23 47  1  1  0  0  0
 23 18  1  0  0  0  0
 23  6  1  0  0  0  0
 25 29  1  6  0  0  0
 25  3  1  0  0  0  0
 26 20  1  1  0  0  0
 26 31  1  0  0  0  0
 27 35  1  6  0  0  0
 27  9  1  0  0  0  0
 27 26  1  0  0  0  0
 28  7  1  1  0  0  0
 28  4  1  0  0  0  0
 28 32  1  0  0  0  0
 30 32  1  0  0  0  0
 31 55  1  6  0  0  0
 31 14  1  0  0  0  0
 32 10  1  0  0  0  0
 32 17  1  0  0  0  0
 33  1  1  1  0  0  0
 33 22  1  0  0  0  0
 33 25  1  0  0  0  0
 35 36  1  1  0  0  0
 35 38  1  0  0  0  0
 38 37  1  6  0  0  0
 39 38  1  0  0  0  0
 39 41  1  0  0  0  0
 41 40  1  0  0  0  0
 43 42  1  0  0  0  0
 45 44  1  0  0  0  0
 46 47  2  0  0  0  0
 48 50  1  0  0  0  0
 50 49  1  1  0  0  0
 50 51  1  0  0  0  0
 51 52  1  0  0  0  0
 52 53  1  0  0  0  0
 53 54  1  0  0  0  0
 55 56  1  0  0  0  0
 57 58  2  0  0  0  0
 58 56  1  0  0  0  0
 58 59  2  0  0  0  0
 60 58  1  0  0  0  0
 61 60  1  0  0  0  0
 63 62  1  0  0  0  0
 64 65  1  0  0  0  0
 65 63  1  0  0  0  0
 65 67  2  0  0  0  0
 66 64  1  0  0  0  0
M  END
>  <MODEL>
9

>  <REMARK>
 VINA RESULT:      -2.5      3.127      7.706
  Name = 
  19 active torsions:
  status: ('A' for Active; 'I' for Inactive)
    1  A    between atoms: C_2  and  C_37
    2  A    between atoms: C_2  and  C_56
    3  A    between atoms: O_5  and  C_53
    4  A    between atoms: C_7  and  C_12
    5  A    between atoms: O_10  and  C_24
    6  A    between atoms: O_10  and  C_63
    7  A    between atoms: C_11  and  C_40
    8  A    between atoms: C_12  and  C_41
    9  A    between atoms: C_13  and  C_22
   10  A    between atoms: C_13  and  C_39
   11  A    between atoms: C_17  and  S_32
   12  A    between atoms: C_22  and  C_50
   13  A    between atoms: C_24  and  S_32
   14  A    between atoms: C_28  and  O_38
   15  A    between atoms: C_33  and  C_41
   16  A    between atoms: O_35  and  C_37
   17  A    between atoms: O_35  and  C_57
   18  A    between atoms: C_47  and  C_60
   19  A    between atoms: C_50  and  C_53
                            x       y       z     vdW  Elec       q    Type
                         _______ _______ _______ _____ _____    ______ ____

>  <TORSDO>
F 19

$$$$
