=
 OpenBabel11072408483D

 26 29  0  0  1  0  0  0  0  0999 V2000
  189.2960  177.0600  143.9890 C   0  0  2  0  0  3  0  0  0  0  0  0
  190.0190  175.6070  145.6660 C   0  0  1  0  0  3  0  0  0  0  0  0
  190.7870  177.3740  144.1730 C   0  0  2  0  0  3  0  0  0  0  0  0
  188.8140  176.2280  145.0940 N   0  0  0  0  0  0  0  0  0  0  0  0
  192.1050  176.9730  146.1440 O   0  0  0  0  0  1  0  0  0  0  0  0
  191.7280  176.2270  143.8060 C   0  0  0  0  0  2  0  0  0  0  0  0
  191.2390  176.3890  145.2200 C   0  0  1  0  0  0  0  0  0  0  0  0
  188.2870  174.8530  139.9720 O   0  0  0  0  0  0  0  0  0  0  0  0
  188.5940  173.0990  140.9190 N   0  0  0  0  0  2  0  0  0  0  0  0
  188.6550  177.1990  141.6830 O   0  0  0  0  0  0  0  0  0  0  0  0
  188.9630  176.4590  142.6570 C   0  0  0  0  0  0  0  0  0  0  0  0
  188.9700  175.0370  142.5150 N   0  0  0  0  0  2  0  0  0  0  0  0
  188.6570  174.3830  141.2860 C   0  0  1  0  0  0  0  0  0  0  0  0
  188.2370  173.5460  139.6480 C   0  0  2  0  0  3  0  0  0  0  0  0
  188.9170  174.3730  147.5800 N   0  0  0  0  0  1  0  0  0  0  0  0
  189.9480  175.2400  147.1250 C   0  0  0  0  0  0  0  0  0  0  0  0
  190.7690  175.7190  147.9530 O   0  0  0  0  0  0  0  0  0  0  0  0
  188.1760  177.1460  146.0370 C   0  0  0  0  0  2  0  0  0  0  0  0
  186.6780  176.8860  146.1000 C   0  0  0  0  0  2  0  0  0  0  0  0
  185.8850  178.1590  145.8310 C   0  0  2  0  0  3  0  0  0  0  0  0
  184.4490  178.0240  146.3260 C   0  0  0  0  0  1  0  0  0  0  0  0
  185.9610  178.5420  144.3470 C   0  0  2  0  0  3  0  0  0  0  0  0
  185.5460  179.9880  144.1260 C   0  0  0  0  0  1  0  0  0  0  0  0
  185.2130  177.6090  143.4410 C   0  0  0  0  0  0  0  0  0  0  0  0
  185.6800  176.4740  143.1540 O   0  0  0  0  0  1  0  0  0  0  0  0
  184.0040  178.0120  142.8910 O   0  0  0  0  0  0  0  0  0  0  0  0
  1 11  1  6  0  0  0
  1  3  1  0  0  0  0
  1  4  1  0  0  0  0
  2 16  1  1  0  0  0
  3  6  1  6  0  0  0
  3  7  1  0  0  0  0
  4  2  1  0  0  0  0
  4 18  1  0  0  0  0
  6  7  1  0  0  0  0
  7  2  1  0  0  0  0
  7  5  1  1  0  0  0
  8 13  1  0  0  0  0
  9 13  1  0  0  0  0
 10 11  2  0  0  0  0
 12 11  1  0  0  0  0
 13 12  1  1  0  0  0
 14  8  1  1  0  0  0
 14  9  1  0  0  0  0
 14 13  1  0  0  0  0
 16 15  1  0  0  0  0
 16 17  2  0  0  0  0
 18 19  1  0  0  0  0
 20 19  1  0  0  0  0
 20 21  1  6  0  0  0
 22 23  1  1  0  0  0
 22 20  1  0  0  0  0
 24 22  1  0  0  0  0
 25 24  1  0  0  0  0
 26 24  2  0  0  0  0
M  END
>  <MODEL>
1

>  <REMARK>
 VINA RESULT:      -6.6      0.000      0.000
  Name = 
  7 active torsions:
  status: ('A' for Active; 'I' for Inactive)
    1  A    between atoms: C_1  and  C_12
    2  A    between atoms: C_2  and  C_13
    3  A    between atoms: C_3  and  C_13
    4  A    between atoms: C_3  and  C_25
    5  A    between atoms: C_5  and  N_17
    6  A    between atoms: C_5  and  C_25
    7  A    between atoms: C_6  and  C_19
                            x       y       z     vdW  Elec       q    Type
                         _______ _______ _______ _____ _____    ______ ____

>  <TORSDO>
F 7

$$$$
=
 OpenBabel11072408483D

 26 29  0  0  1  0  0  0  0  0999 V2000
  189.3750  177.6010  144.4170 C   0  0  2  0  0  3  0  0  0  0  0  0
  190.0400  175.7880  145.7260 C   0  0  1  0  0  3  0  0  0  0  0  0
  190.9090  177.6420  144.4040 C   0  0  2  0  0  3  0  0  0  0  0  0
  188.9020  176.6790  145.4510 N   0  0  0  0  0  0  0  0  0  0  0  0
  192.3840  176.7080  146.0590 O   0  0  0  0  0  1  0  0  0  0  0  0
  191.5710  176.4410  143.7270 C   0  0  0  0  0  2  0  0  0  0  0  0
  191.3120  176.4330  145.2100 C   0  0  1  0  0  0  0  0  0  0  0  0
  187.2260  176.9090  140.3030 O   0  0  0  0  0  0  0  0  0  0  0  0
  185.8770  178.3120  140.8310 N   0  0  0  0  0  2  0  0  0  0  0  0
  189.2990  176.4480  142.3170 O   0  0  0  0  0  0  0  0  0  0  0  0
  188.7660  177.2970  143.0820 C   0  0  0  0  0  0  0  0  0  0  0  0
  187.5930  178.0040  142.6760 N   0  0  0  0  0  2  0  0  0  0  0  0
  186.9540  177.7840  141.4200 C   0  0  2  0  0  0  0  0  0  0  0  0
  186.1330  177.4700  139.7500 C   0  0  2  0  0  3  0  0  0  0  0  0
  189.0370  174.3600  147.5570 N   0  0  0  0  0  1  0  0  0  0  0  0
  190.0990  175.1920  147.1090 C   0  0  0  0  0  0  0  0  0  0  0  0
  191.0590  175.4500  147.8840 O   0  0  0  0  0  0  0  0  0  0  0  0
  188.5710  177.5100  146.6080 C   0  0  0  0  0  2  0  0  0  0  0  0
  187.1000  177.3590  146.9670 C   0  0  0  0  0  2  0  0  0  0  0  0
  186.2900  178.5590  146.4910 C   0  0  2  0  0  3  0  0  0  0  0  0
  185.8480  179.4220  147.6680 C   0  0  0  0  0  1  0  0  0  0  0  0
  185.1120  178.1070  145.6200 C   0  0  2  0  0  3  0  0  0  0  0  0
  185.3340  176.7070  145.0700 C   0  0  0  0  0  1  0  0  0  0  0  0
  184.7550  179.0770  144.5320 C   0  0  0  0  0  0  0  0  0  0  0  0
  183.7450  178.8860  143.8030 O   0  0  0  0  0  0  0  0  0  0  0  0
  185.5640  180.1830  144.3090 O   0  0  0  0  0  1  0  0  0  0  0  0
  1 11  1  6  0  0  0
  1  4  1  0  0  0  0
  2 16  1  1  0  0  0
  3  6  1  6  0  0  0
  3  1  1  0  0  0  0
  3  7  1  0  0  0  0
  4  2  1  0  0  0  0
  4 18  1  0  0  0  0
  6  7  1  0  0  0  0
  7  2  1  0  0  0  0
  7  5  1  1  0  0  0
  8 13  1  0  0  0  0
  9 13  1  0  0  0  0
 10 11  2  0  0  0  0
 12 11  1  0  0  0  0
 13 12  1  1  0  0  0
 14  8  1  6  0  0  0
 14  9  1  0  0  0  0
 14 13  1  0  0  0  0
 16 15  1  0  0  0  0
 16 17  2  0  0  0  0
 18 19  1  0  0  0  0
 20 19  1  0  0  0  0
 20 21  1  1  0  0  0
 22 23  1  6  0  0  0
 22 20  1  0  0  0  0
 24 22  1  0  0  0  0
 25 24  2  0  0  0  0
 26 24  1  0  0  0  0
M  END
>  <MODEL>
2

>  <REMARK>
 VINA RESULT:      -6.5      1.976      2.270
  Name = 
  7 active torsions:
  status: ('A' for Active; 'I' for Inactive)
    1  A    between atoms: C_1  and  C_12
    2  A    between atoms: C_2  and  C_13
    3  A    between atoms: C_3  and  C_13
    4  A    between atoms: C_3  and  C_25
    5  A    between atoms: C_5  and  N_17
    6  A    between atoms: C_5  and  C_25
    7  A    between atoms: C_6  and  C_19
                            x       y       z     vdW  Elec       q    Type
                         _______ _______ _______ _____ _____    ______ ____

>  <TORSDO>
F 7

$$$$
=
 OpenBabel11072408483D

 26 29  0  0  1  0  0  0  0  0999 V2000
  188.9130  177.0760  143.5980 C   0  0  2  0  0  3  0  0  0  0  0  0
  189.1650  174.7580  143.6760 C   0  0  1  0  0  3  0  0  0  0  0  0
  188.5650  176.5900  142.1840 C   0  0  2  0  0  3  0  0  0  0  0  0
  189.5530  176.0010  144.3590 N   0  0  0  0  0  0  0  0  0  0  0  0
  189.2980  174.5470  141.1480 O   0  0  0  0  0  1  0  0  0  0  0  0
  187.3210  175.7050  142.1050 C   0  0  0  0  0  2  0  0  0  0  0  0
  188.6840  175.0900  142.2760 C   0  0  1  0  0  0  0  0  0  0  0  0
  185.3850  178.7370  146.2100 O   0  0  0  0  0  0  0  0  0  0  0  0
  186.0420  177.5900  147.7330 N   0  0  0  0  0  2  0  0  0  0  0  0
  187.0020  178.5130  143.7810 O   0  0  0  0  0  0  0  0  0  0  0  0
  187.7510  177.6650  144.3390 C   0  0  0  0  0  0  0  0  0  0  0  0
  187.5220  177.2770  145.6950 N   0  0  0  0  0  2  0  0  0  0  0  0
  186.4460  177.7940  146.4750 C   0  0  2  0  0  0  0  0  0  0  0  0
  185.0140  178.4980  147.4830 C   0  0  2  0  0  3  0  0  0  0  0  0
  189.9490  172.6600  144.8520 N   0  0  0  0  0  1  0  0  0  0  0  0
  190.1250  173.6030  143.8030 C   0  0  0  0  0  0  0  0  0  0  0  0
  191.1000  173.4830  143.0130 O   0  0  0  0  0  0  0  0  0  0  0  0
  190.9910  176.2480  144.2670 C   0  0  0  0  0  2  0  0  0  0  0  0
  191.5580  176.6020  145.6330 C   0  0  0  0  0  2  0  0  0  0  0  0
  191.8070  175.3520  146.4690 C   0  0  2  0  0  3  0  0  0  0  0  0
  191.2490  175.5160  147.8790 C   0  0  0  0  0  1  0  0  0  0  0  0
  193.2970  174.9860  146.4660 C   0  0  2  0  0  3  0  0  0  0  0  0
  194.1730  176.2290  146.4550 C   0  0  0  0  0  1  0  0  0  0  0  0
  193.6830  174.0280  145.3780 C   0  0  0  0  0  0  0  0  0  0  0  0
  193.5720  172.7840  145.5430 O   0  0  0  0  0  1  0  0  0  0  0  0
  194.1970  174.5190  144.1850 O   0  0  0  0  0  0  0  0  0  0  0  0
  1 11  1  1  0  0  0
  1  4  1  0  0  0  0
  2 16  1  6  0  0  0
  2  4  1  0  0  0  0
  3  6  1  1  0  0  0
  3  7  1  0  0  0  0
  3  1  1  0  0  0  0
  6  7  1  0  0  0  0
  7  5  1  6  0  0  0
  7  2  1  0  0  0  0
  8 13  1  0  0  0  0
 10 11  2  0  0  0  0
 11 12  1  0  0  0  0
 13 12  1  6  0  0  0
 13 14  1  0  0  0  0
 13  9  1  0  0  0  0
 14  8  1  1  0  0  0
 14  9  1  0  0  0  0
 16 15  1  0  0  0  0
 17 16  2  0  0  0  0
 18  4  1  0  0  0  0
 18 19  1  0  0  0  0
 19 20  1  0  0  0  0
 20 21  1  1  0  0  0
 22 23  1  6  0  0  0
 22 20  1  0  0  0  0
 24 25  1  0  0  0  0
 24 22  1  0  0  0  0
 26 24  2  0  0  0  0
M  END
>  <MODEL>
3

>  <REMARK>
 VINA RESULT:      -6.3      2.527      6.334
  Name = 
  7 active torsions:
  status: ('A' for Active; 'I' for Inactive)
    1  A    between atoms: C_1  and  C_12
    2  A    between atoms: C_2  and  C_13
    3  A    between atoms: C_3  and  C_13
    4  A    between atoms: C_3  and  C_25
    5  A    between atoms: C_5  and  N_17
    6  A    between atoms: C_5  and  C_25
    7  A    between atoms: C_6  and  C_19
                            x       y       z     vdW  Elec       q    Type
                         _______ _______ _______ _____ _____    ______ ____

>  <TORSDO>
F 7

$$$$
=
 OpenBabel11072408483D

 26 29  0  0  1  0  0  0  0  0999 V2000
  189.1000  175.8500  143.2990 C   0  0  2  0  0  3  0  0  0  0  0  0
  189.8560  175.1710  145.4000 C   0  0  1  0  0  3  0  0  0  0  0  0
  190.5780  176.2600  143.3420 C   0  0  2  0  0  3  0  0  0  0  0  0
  188.6370  175.4870  144.6400 N   0  0  0  0  0  0  0  0  0  0  0  0
  191.8930  176.6850  145.3100 O   0  0  0  0  0  1  0  0  0  0  0  0
  191.5590  175.0910  143.4350 C   0  0  0  0  0  2  0  0  0  0  0  0
  191.0540  175.7640  144.6830 C   0  0  1  0  0  0  0  0  0  0  0  0
  188.2320  172.7250  139.9070 O   0  0  0  0  0  0  0  0  0  0  0  0
  188.5930  174.1740  138.5520 N   0  0  0  0  0  2  0  0  0  0  0  0
  188.5220  173.6060  142.6830 O   0  0  0  0  0  0  0  0  0  0  0  0
  188.7980  174.7750  142.2990 C   0  0  0  0  0  0  0  0  0  0  0  0
  188.8590  175.0860  140.9060 N   0  0  0  0  0  2  0  0  0  0  0  0
  188.5950  174.1220  139.8870 C   0  0  1  0  0  0  0  0  0  0  0  0
  188.2420  172.8250  138.5640 C   0  0  2  0  0  3  0  0  0  0  0  0
  189.0000  174.5100  147.6870 N   0  0  0  0  0  1  0  0  0  0  0  0
  189.7860  175.3870  146.8890 C   0  0  0  0  0  0  0  0  0  0  0  0
  190.3860  176.3540  147.4320 O   0  0  0  0  0  0  0  0  0  0  0  0
  187.9610  176.6730  145.1650 C   0  0  0  0  0  2  0  0  0  0  0  0
  186.6710  176.9310  144.4010 C   0  0  0  0  0  2  0  0  0  0  0  0
  186.4930  178.4140  144.1030 C   0  0  2  0  0  3  0  0  0  0  0  0
  185.7090  179.1060  145.2130 C   0  0  0  0  0  1  0  0  0  0  0  0
  185.8570  178.6180  142.7220 C   0  0  2  0  0  3  0  0  0  0  0  0
  184.4320  178.0880  142.6840 C   0  0  0  0  0  1  0  0  0  0  0  0
  186.6780  178.0730  141.5900 C   0  0  0  0  0  0  0  0  0  0  0  0
  186.1690  177.2970  140.7380 O   0  0  0  0  0  0  0  0  0  0  0  0
  188.0220  178.4080  141.4980 O   0  0  0  0  0  1  0  0  0  0  0  0
  1 11  1  6  0  0  0
  1  3  1  0  0  0  0
  1  4  1  0  0  0  0
  2 16  1  1  0  0  0
  3  6  1  6  0  0  0
  3  7  1  0  0  0  0
  4 18  1  0  0  0  0
  4  2  1  0  0  0  0
  6  7  1  0  0  0  0
  7  5  1  1  0  0  0
  7  2  1  0  0  0  0
  9 13  1  0  0  0  0
 11 10  2  0  0  0  0
 12 11  1  0  0  0  0
 13  8  1  0  0  0  0
 13 12  1  6  0  0  0
 14  9  1  6  0  0  0
 14 13  1  0  0  0  0
 14  8  1  0  0  0  0
 16 17  2  0  0  0  0
 16 15  1  0  0  0  0
 19 18  1  0  0  0  0
 20 19  1  0  0  0  0
 20 21  1  1  0  0  0
 22 23  1  1  0  0  0
 22 20  1  0  0  0  0
 24 22  1  0  0  0  0
 25 24  2  0  0  0  0
 26 24  1  0  0  0  0
M  END
>  <MODEL>
4

>  <REMARK>
 VINA RESULT:      -6.3      1.479      1.914
  Name = 
  7 active torsions:
  status: ('A' for Active; 'I' for Inactive)
    1  A    between atoms: C_1  and  C_12
    2  A    between atoms: C_2  and  C_13
    3  A    between atoms: C_3  and  C_13
    4  A    between atoms: C_3  and  C_25
    5  A    between atoms: C_5  and  N_17
    6  A    between atoms: C_5  and  C_25
    7  A    between atoms: C_6  and  C_19
                            x       y       z     vdW  Elec       q    Type
                         _______ _______ _______ _____ _____    ______ ____

>  <TORSDO>
F 7

$$$$
=
 OpenBabel11072408483D

 26 29  0  0  1  0  0  0  0  0999 V2000
  188.7830  176.6920  143.7790 C   0  0  2  0  0  3  0  0  0  0  0  0
  189.4190  174.4530  143.6090 C   0  0  1  0  0  3  0  0  0  0  0  0
  188.4370  176.2880  142.3390 C   0  0  2  0  0  3  0  0  0  0  0  0
  189.6350  175.6760  144.3990 N   0  0  0  0  0  0  0  0  0  0  0  0
  189.4360  174.5060  141.0700 O   0  0  0  0  0  1  0  0  0  0  0  0
  187.3540  175.2160  142.2230 C   0  0  0  0  0  2  0  0  0  0  0  0
  188.8080  174.8290  142.2730 C   0  0  1  0  0  0  0  0  0  0  0  0
  184.9290  177.8970  146.1720 O   0  0  0  0  0  0  0  0  0  0  0  0
  184.5120  179.2360  144.7220 N   0  0  0  0  0  2  0  0  0  0  0  0
  187.3790  176.3670  145.6950 O   0  0  0  0  0  0  0  0  0  0  0  0
  187.5850  177.0030  144.6250 C   0  0  0  0  0  0  0  0  0  0  0  0
  186.6660  178.0050  144.1870 N   0  0  0  0  0  2  0  0  0  0  0  0
  185.4970  178.3560  144.9260 C   0  0  1  0  0  0  0  0  0  0  0  0
  183.9590  178.7970  145.9250 C   0  0  2  0  0  3  0  0  0  0  0  0
  190.6460  172.4630  144.5750 N   0  0  0  0  0  1  0  0  0  0  0  0
  190.5620  173.4720  143.5770 C   0  0  0  0  0  0  0  0  0  0  0  0
  191.4620  173.5560  142.6990 O   0  0  0  0  0  0  0  0  0  0  0  0
  191.0060  176.1700  144.2710 C   0  0  0  0  0  2  0  0  0  0  0  0
  191.5520  176.5780  145.6320 C   0  0  0  0  0  2  0  0  0  0  0  0
  191.8750  175.3570  146.4850 C   0  0  2  0  0  3  0  0  0  0  0  0
  191.2810  175.4940  147.8830 C   0  0  0  0  0  1  0  0  0  0  0  0
  193.3860  175.0980  146.5120 C   0  0  2  0  0  3  0  0  0  0  0  0
  194.1720  176.4000  146.4730 C   0  0  0  0  0  1  0  0  0  0  0  0
  193.8560  174.1390  145.4580 C   0  0  0  0  0  0  0  0  0  0  0  0
  194.2100  174.5500  144.3220 O   0  0  0  0  0  0  0  0  0  0  0  0
  193.8730  172.7770  145.7320 O   0  0  0  0  0  1  0  0  0  0  0  0
  1  4  1  0  0  0  0
  1 11  1  1  0  0  0
  2 16  1  6  0  0  0
  2  4  1  0  0  0  0
  3  6  1  1  0  0  0
  3  1  1  0  0  0  0
  6  7  1  0  0  0  0
  7  5  1  6  0  0  0
  7  3  1  0  0  0  0
  7  2  1  0  0  0  0
  9 13  1  0  0  0  0
 11 10  2  0  0  0  0
 12 11  1  0  0  0  0
 13 12  1  6  0  0  0
 13 14  1  0  0  0  0
 13  8  1  0  0  0  0
 14  9  1  6  0  0  0
 14  8  1  0  0  0  0
 16 15  1  0  0  0  0
 17 16  2  0  0  0  0
 18  4  1  0  0  0  0
 18 19  1  0  0  0  0
 19 20  1  0  0  0  0
 20 22  1  0  0  0  0
 20 21  1  1  0  0  0
 22 23  1  6  0  0  0
 24 26  1  0  0  0  0
 24 22  1  0  0  0  0
 25 24  2  0  0  0  0
M  END
>  <MODEL>
5

>  <REMARK>
 VINA RESULT:      -6.2      2.692      6.374
  Name = 
  7 active torsions:
  status: ('A' for Active; 'I' for Inactive)
    1  A    between atoms: C_1  and  C_12
    2  A    between atoms: C_2  and  C_13
    3  A    between atoms: C_3  and  C_13
    4  A    between atoms: C_3  and  C_25
    5  A    between atoms: C_5  and  N_17
    6  A    between atoms: C_5  and  C_25
    7  A    between atoms: C_6  and  C_19
                            x       y       z     vdW  Elec       q    Type
                         _______ _______ _______ _____ _____    ______ ____

>  <TORSDO>
F 7

$$$$
=
 OpenBabel11072408483D

 26 29  0  0  1  0  0  0  0  0999 V2000
  189.3810  174.9710  144.1500 C   0  0  2  0  0  3  0  0  0  0  0  0
  189.0820  176.4190  142.3460 C   0  0  1  0  0  3  0  0  0  0  0  0
  189.2740  174.0590  142.9210 C   0  0  2  0  0  3  0  0  0  0  0  0
  188.9610  176.3310  143.8090 N   0  0  0  0  0  0  0  0  0  0  0  0
  188.1920  174.5800  140.8370 O   0  0  0  0  0  1  0  0  0  0  0  0
  190.4050  174.2230  141.9060 C   0  0  0  0  0  2  0  0  0  0  0  0
  189.1340  175.0180  141.7670 C   0  0  1  0  0  0  0  0  0  0  0  0
  193.6460  175.2660  146.0890 O   0  0  0  0  0  0  0  0  0  0  0  0
  193.7660  177.1610  145.4100 N   0  0  0  0  0  2  0  0  0  0  0  0
  191.1300  173.9290  145.4180 O   0  0  0  0  0  0  0  0  0  0  0  0
  190.7320  174.9540  144.8000 C   0  0  0  0  0  0  0  0  0  0  0  0
  191.5480  176.1250  144.7360 N   0  0  0  0  0  2  0  0  0  0  0  0
  192.8410  176.1990  145.3350 C   0  0  2  0  0  0  0  0  0  0  0  0
  194.5470  176.2650  146.1370 C   0  0  2  0  0  3  0  0  0  0  0  0
  186.9360  176.9380  141.1100 N   0  0  0  0  0  1  0  0  0  0  0  0
  188.1640  177.3980  141.6610 C   0  0  0  0  0  0  0  0  0  0  0  0
  188.4850  178.6110  141.5410 O   0  0  0  0  0  0  0  0  0  0  0  0
  187.5700  176.4410  144.2480 C   0  0  0  0  0  2  0  0  0  0  0  0
  187.3020  177.8250  144.8200 C   0  0  0  0  0  2  0  0  0  0  0  0
  185.8480  178.2340  144.6170 C   0  0  2  0  0  3  0  0  0  0  0  0
  185.7430  179.6970  144.2010 C   0  0  0  0  0  1  0  0  0  0  0  0
  185.0160  177.9180  145.8670 C   0  0  2  0  0  3  0  0  0  0  0  0
  183.6920  178.6660  145.8550 C   0  0  0  0  0  1  0  0  0  0  0  0
  185.7560  178.1270  147.1560 C   0  0  0  0  0  0  0  0  0  0  0  0
  186.1880  177.1460  147.8180 O   0  0  0  0  0  1  0  0  0  0  0  0
  185.9410  179.4160  147.6370 O   0  0  0  0  0  0  0  0  0  0  0  0
  1 11  1  6  0  0  0
  2 16  1  6  0  0  0
  2  4  1  0  0  0  0
  3  6  1  6  0  0  0
  3  1  1  0  0  0  0
  4  1  1  0  0  0  0
  4 18  1  0  0  0  0
  7  5  1  6  0  0  0
  7  6  1  0  0  0  0
  7  2  1  0  0  0  0
  7  3  1  0  0  0  0
  8 14  1  0  0  0  0
 11 10  2  0  0  0  0
 12 11  1  0  0  0  0
 13 12  1  6  0  0  0
 13  9  1  0  0  0  0
 13  8  1  0  0  0  0
 13 14  1  0  0  0  0
 14  9  1  1  0  0  0
 15 16  1  0  0  0  0
 17 16  2  0  0  0  0
 18 19  1  0  0  0  0
 20 21  1  1  0  0  0
 20 19  1  0  0  0  0
 20 22  1  0  0  0  0
 22 23  1  1  0  0  0
 22 24  1  0  0  0  0
 24 26  2  0  0  0  0
 24 25  1  0  0  0  0
M  END
>  <MODEL>
6

>  <REMARK>
 VINA RESULT:      -6.2      2.420      5.035
  Name = 
  7 active torsions:
  status: ('A' for Active; 'I' for Inactive)
    1  A    between atoms: C_1  and  C_12
    2  A    between atoms: C_2  and  C_13
    3  A    between atoms: C_3  and  C_13
    4  A    between atoms: C_3  and  C_25
    5  A    between atoms: C_5  and  N_17
    6  A    between atoms: C_5  and  C_25
    7  A    between atoms: C_6  and  C_19
                            x       y       z     vdW  Elec       q    Type
                         _______ _______ _______ _____ _____    ______ ____

>  <TORSDO>
F 7

$$$$
=
 OpenBabel11072408483D

 26 29  0  0  1  0  0  0  0  0999 V2000
  189.9960  175.3850  143.3680 C   0  0  2  0  0  3  0  0  0  0  0  0
  189.9490  174.6310  145.5750 C   0  0  1  0  0  3  0  0  0  0  0  0
  191.4460  174.9930  143.6860 C   0  0  2  0  0  3  0  0  0  0  0  0
  189.2060  175.4430  144.5990 N   0  0  0  0  0  0  0  0  0  0  0  0
  192.4590  174.8910  145.8650 O   0  0  0  0  0  1  0  0  0  0  0  0
  191.6550  173.5060  143.9670 C   0  0  0  0  0  2  0  0  0  0  0  0
  191.3780  174.4630  145.0950 C   0  0  1  0  0  0  0  0  0  0  0  0
  188.2180  172.7780  139.8930 O   0  0  0  0  0  0  0  0  0  0  0  0
  189.6140  173.5580  138.6650 N   0  0  0  0  0  2  0  0  0  0  0  0
  188.3790  173.7700  142.6420 O   0  0  0  0  0  0  0  0  0  0  0  0
  189.3480  174.5170  142.3320 C   0  0  0  0  0  0  0  0  0  0  0  0
  189.8610  174.5220  140.9990 N   0  0  0  0  0  2  0  0  0  0  0  0
  189.3110  173.7210  139.9560 C   0  0  1  0  0  0  0  0  0  0  0  0
  188.5610  172.6470  138.5970 C   0  0  1  0  0  3  0  0  0  0  0  0
  190.7110  175.8530  147.6560 N   0  0  0  0  0  1  0  0  0  0  0  0
  189.7640  175.0010  147.0240 C   0  0  0  0  0  0  0  0  0  0  0  0
  188.7990  174.5380  147.6920 O   0  0  0  0  0  0  0  0  0  0  0  0
  189.1640  176.8530  144.9820 C   0  0  0  0  0  2  0  0  0  0  0  0
  188.0620  177.5770  144.2250 C   0  0  0  0  0  2  0  0  0  0  0  0
  186.7080  176.9170  144.4550 C   0  0  2  0  0  3  0  0  0  0  0  0
  186.1130  176.4140  143.1440 C   0  0  0  0  0  1  0  0  0  0  0  0
  185.7620  177.8640  145.2030 C   0  0  2  0  0  3  0  0  0  0  0  0
  185.8610  179.2840  144.6660 C   0  0  0  0  0  1  0  0  0  0  0  0
  185.9210  177.8270  146.6950 C   0  0  0  0  0  0  0  0  0  0  0  0
  186.3520  176.7930  147.2720 O   0  0  0  0  0  0  0  0  0  0  0  0
  185.5610  178.9350  147.4500 O   0  0  0  0  0  1  0  0  0  0  0  0
  1 11  1  6  0  0  0
  1  3  1  0  0  0  0
  1  4  1  0  0  0  0
  2 16  1  1  0  0  0
  3  6  1  6  0  0  0
  3  7  1  0  0  0  0
  4 18  1  0  0  0  0
  4  2  1  0  0  0  0
  6  7  1  0  0  0  0
  7  2  1  0  0  0  0
  7  5  1  1  0  0  0
  8 13  1  0  0  0  0
  9 13  1  0  0  0  0
 11 10  2  0  0  0  0
 12 11  1  0  0  0  0
 13 12  1  1  0  0  0
 14  9  1  6  0  0  0
 14  8  1  0  0  0  0
 14 13  1  0  0  0  0
 16 15  1  0  0  0  0
 16 17  2  0  0  0  0
 19 20  1  0  0  0  0
 19 18  1  0  0  0  0
 20 21  1  6  0  0  0
 20 22  1  0  0  0  0
 22 23  1  6  0  0  0
 22 24  1  0  0  0  0
 24 25  2  0  0  0  0
 24 26  1  0  0  0  0
M  END
>  <MODEL>
7

>  <REMARK>
 VINA RESULT:      -6.2      2.069      2.454
  Name = 
  7 active torsions:
  status: ('A' for Active; 'I' for Inactive)
    1  A    between atoms: C_1  and  C_12
    2  A    between atoms: C_2  and  C_13
    3  A    between atoms: C_3  and  C_13
    4  A    between atoms: C_3  and  C_25
    5  A    between atoms: C_5  and  N_17
    6  A    between atoms: C_5  and  C_25
    7  A    between atoms: C_6  and  C_19
                            x       y       z     vdW  Elec       q    Type
                         _______ _______ _______ _____ _____    ______ ____

>  <TORSDO>
F 7

$$$$
=
 OpenBabel11072408483D

 26 29  0  0  1  0  0  0  0  0999 V2000
  191.2040  176.0020  143.7170 C   0  0  2  0  0  3  0  0  0  0  0  0
  190.7270  175.0700  145.8020 C   0  0  1  0  0  3  0  0  0  0  0  0
  192.5730  175.7620  144.3680 C   0  0  2  0  0  3  0  0  0  0  0  0
  190.1390  175.8640  144.7110 N   0  0  0  0  0  0  0  0  0  0  0  0
  193.0330  175.6040  146.7230 O   0  0  0  0  0  1  0  0  0  0  0  0
  192.9090  174.2920  144.6190 C   0  0  0  0  0  2  0  0  0  0  0  0
  192.2390  175.1140  145.6870 C   0  0  1  0  0  0  0  0  0  0  0  0
  190.0670  173.3010  140.0500 O   0  0  0  0  0  0  0  0  0  0  0  0
  188.2150  173.1170  140.8270 N   0  0  0  0  0  2  0  0  0  0  0  0
  191.8580  174.9720  141.6530 O   0  0  0  0  0  0  0  0  0  0  0  0
  190.9500  175.1490  142.5100 C   0  0  0  0  0  0  0  0  0  0  0  0
  189.6580  174.5680  142.3290 N   0  0  0  0  0  2  0  0  0  0  0  0
  189.3290  173.7520  141.2060 C   0  0  1  0  0  0  0  0  0  0  0  0
  188.9230  172.6780  139.7090 C   0  0  2  0  0  3  0  0  0  0  0  0
  188.9530  174.6210  147.5490 N   0  0  0  0  0  1  0  0  0  0  0  0
  190.1480  175.2960  147.1740 C   0  0  0  0  0  0  0  0  0  0  0  0
  190.6890  176.1000  147.9800 O   0  0  0  0  0  0  0  0  0  0  0  0
  189.8140  177.2230  145.1410 C   0  0  0  0  0  2  0  0  0  0  0  0
  188.5720  177.7260  144.4210 C   0  0  0  0  0  2  0  0  0  0  0  0
  187.3200  177.0110  144.9150 C   0  0  2  0  0  3  0  0  0  0  0  0
  186.3990  176.6540  143.7540 C   0  0  0  0  0  1  0  0  0  0  0  0
  186.6120  177.8410  145.9920 C   0  0  2  0  0  3  0  0  0  0  0  0
  186.0510  176.9560  147.0940 C   0  0  0  0  0  1  0  0  0  0  0  0
  185.5700  178.7750  145.4510 C   0  0  0  0  0  0  0  0  0  0  0  0
  185.8960  179.7740  144.7550 O   0  0  0  0  0  0  0  0  0  0  0  0
  184.2310  178.5510  145.7440 O   0  0  0  0  0  1  0  0  0  0  0  0
  1 11  1  6  0  0  0
  1  3  1  0  0  0  0
  1  4  1  0  0  0  0
  2 16  1  1  0  0  0
  3  6  1  6  0  0  0
  3  7  1  0  0  0  0
  4 18  1  0  0  0  0
  4  2  1  0  0  0  0
  6  7  1  0  0  0  0
  7  2  1  0  0  0  0
  7  5  1  1  0  0  0
  8 13  1  0  0  0  0
  9 13  1  0  0  0  0
 10 11  2  0  0  0  0
 12 11  1  0  0  0  0
 13 12  1  6  0  0  0
 14  8  1  6  0  0  0
 14  9  1  0  0  0  0
 14 13  1  0  0  0  0
 16 15  1  0  0  0  0
 16 17  2  0  0  0  0
 19 20  1  0  0  0  0
 19 18  1  0  0  0  0
 20 21  1  6  0  0  0
 20 22  1  0  0  0  0
 22 23  1  1  0  0  0
 24 26  1  0  0  0  0
 24 22  1  0  0  0  0
 25 24  2  0  0  0  0
M  END
>  <MODEL>
8

>  <REMARK>
 VINA RESULT:      -6.2      1.702      2.248
  Name = 
  7 active torsions:
  status: ('A' for Active; 'I' for Inactive)
    1  A    between atoms: C_1  and  C_12
    2  A    between atoms: C_2  and  C_13
    3  A    between atoms: C_3  and  C_13
    4  A    between atoms: C_3  and  C_25
    5  A    between atoms: C_5  and  N_17
    6  A    between atoms: C_5  and  C_25
    7  A    between atoms: C_6  and  C_19
                            x       y       z     vdW  Elec       q    Type
                         _______ _______ _______ _____ _____    ______ ____

>  <TORSDO>
F 7

$$$$
=
 OpenBabel11072408483D

 26 29  0  0  1  0  0  0  0  0999 V2000
  190.1220  176.0920  143.6460 C   0  0  2  0  0  3  0  0  0  0  0  0
  191.4040  175.5890  145.5290 C   0  0  1  0  0  3  0  0  0  0  0  0
  191.5530  176.5020  143.2740 C   0  0  2  0  0  3  0  0  0  0  0  0
  190.0250  175.8420  145.0850 N   0  0  0  0  0  0  0  0  0  0  0  0
  193.3190  177.0880  144.7970 O   0  0  0  0  0  1  0  0  0  0  0  0
  192.5490  175.3440  143.2060 C   0  0  0  0  0  2  0  0  0  0  0  0
  192.3660  176.1190  144.4840 C   0  0  1  0  0  0  0  0  0  0  0  0
  188.4930  172.6920  140.8500 O   0  0  0  0  0  0  0  0  0  0  0  0
  188.5470  174.0000  139.3160 N   0  0  0  0  0  2  0  0  0  0  0  0
  189.4060  173.8170  143.3930 O   0  0  0  0  0  0  0  0  0  0  0  0
  189.5950  174.9380  142.8460 C   0  0  0  0  0  0  0  0  0  0  0  0
  189.3420  175.1170  141.4520 N   0  0  0  0  0  2  0  0  0  0  0  0
  188.8500  174.0710  140.6160 C   0  0  2  0  0  0  0  0  0  0  0  0
  188.2000  172.6670  139.5360 C   0  0  2  0  0  3  0  0  0  0  0  0
  190.9860  175.2880  148.0060 N   0  0  0  0  0  1  0  0  0  0  0  0
  191.7130  175.9270  146.9640 C   0  0  0  0  0  0  0  0  0  0  0  0
  192.5820  176.7940  147.2510 O   0  0  0  0  0  0  0  0  0  0  0  0
  189.4820  177.0680  145.6690 C   0  0  0  0  0  2  0  0  0  0  0  0
  188.2620  177.5330  144.8870 C   0  0  0  0  0  2  0  0  0  0  0  0
  187.0450  177.6690  145.7930 C   0  0  2  0  0  3  0  0  0  0  0  0
  187.1130  176.6820  146.9530 C   0  0  0  0  0  1  0  0  0  0  0  0
  185.7490  177.5330  144.9830 C   0  0  2  0  0  3  0  0  0  0  0  0
  186.0150  176.9530  143.6030 C   0  0  0  0  0  1  0  0  0  0  0  0
  184.9490  178.8000  144.9040 C   0  0  0  0  0  0  0  0  0  0  0  0
  185.3690  179.7890  144.2470 O   0  0  0  0  0  0  0  0  0  0  0  0
  183.7430  178.8920  145.5870 O   0  0  0  0  0  1  0  0  0  0  0  0
  1 11  1  6  0  0  0
  1  4  1  0  0  0  0
  2 16  1  1  0  0  0
  3  6  1  6  0  0  0
  3  1  1  0  0  0  0
  3  7  1  0  0  0  0
  4  2  1  0  0  0  0
  4 18  1  0  0  0  0
  6  7  1  0  0  0  0
  7  5  1  1  0  0  0
  7  2  1  0  0  0  0
  9 13  1  0  0  0  0
 11 10  2  0  0  0  0
 12 11  1  0  0  0  0
 13  8  1  0  0  0  0
 13 12  1  1  0  0  0
 14  9  1  6  0  0  0
 14 13  1  0  0  0  0
 14  8  1  0  0  0  0
 16 17  2  0  0  0  0
 16 15  1  0  0  0  0
 19 18  1  0  0  0  0
 19 20  1  0  0  0  0
 20 21  1  1  0  0  0
 22 23  1  6  0  0  0
 22 20  1  0  0  0  0
 24 22  1  0  0  0  0
 24 26  1  0  0  0  0
 25 24  2  0  0  0  0
M  END
>  <MODEL>
9

>  <REMARK>
 VINA RESULT:      -6.1      1.788      2.055
  Name = 
  7 active torsions:
  status: ('A' for Active; 'I' for Inactive)
    1  A    between atoms: C_1  and  C_12
    2  A    between atoms: C_2  and  C_13
    3  A    between atoms: C_3  and  C_13
    4  A    between atoms: C_3  and  C_25
    5  A    between atoms: C_5  and  N_17
    6  A    between atoms: C_5  and  C_25
    7  A    between atoms: C_6  and  C_19
                            x       y       z     vdW  Elec       q    Type
                         _______ _______ _______ _____ _____    ______ ____

>  <TORSDO>
F 7

$$$$
