=
 OpenBabel11072408423D

 36 41  0  0  1  0  0  0  0  0999 V2000
  188.1730  175.8370  143.1280 C   0  0  0  0  0  2  0  0  0  0  0  0
  186.3260  176.6970  146.3520 C   0  0  0  0  0  3  0  0  0  0  0  0
  183.8100  178.2500  142.4360 C   0  0  0  0  0  0  0  0  0  0  0  0
  185.1130  177.7730  141.9330 C   0  0  0  0  0  0  0  0  0  0  0  0
  186.2650  178.7320  147.5660 N   0  0  0  0  0  0  0  0  0  0  0  0
  187.2410  176.6400  142.2860 C   0  0  0  0  0  0  0  0  0  0  0  0
  185.4440  176.4800  144.0650 C   0  0  0  0  0  2  0  0  0  0  0  0
  184.9780  179.5590  144.2050 C   0  0  0  0  0  2  0  0  0  0  0  0
  185.4670  178.7170  145.3480 C   0  0  0  0  0  0  0  0  0  0  0  0
  183.7490  179.0420  143.5180 C   0  0  0  0  0  3  0  0  0  0  0  0
  186.7880  177.7590  140.1810 C   0  0  0  0  0  3  0  0  0  0  0  0
  187.6430  177.0190  141.0010 C   0  0  0  0  0  3  0  0  0  0  0  0
  185.7860  177.3420  145.2420 C   0  0  0  0  0  0  0  0  0  0  0  0
  185.5270  178.1370  140.6480 C   0  0  0  0  0  3  0  0  0  0  0  0
  186.5690  177.4120  147.5200 C   0  0  0  0  0  3  0  0  0  0  0  0
  185.7390  179.3620  146.5150 N   0  0  0  0  0  0  0  0  0  0  0  0
  185.9590  176.9950  142.7500 C   0  0  0  0  0  0  0  0  0  0  0  0
  181.4880  178.6740  141.6740 C   0  0  0  0  0  1  0  0  0  0  0  0
  182.6500  177.8590  141.7560 O   0  0  0  0  0  0  0  0  0  0  0  0
  188.3520  174.5120  142.5540 N   0  0  0  0  0  2  0  0  0  0  0  0
  189.7370  172.7350  141.9890 O   0  0  0  0  0  0  0  0  0  0  0  0
  189.6110  173.8380  142.5810 C   0  0  0  0  0  0  0  0  0  0  0  0
  190.7840  174.4260  143.2940 C   0  0  0  0  0  2  0  0  0  0  0  0
  190.7370  175.6080  147.6940 C   0  0  0  0  0  2  0  0  0  0  0  0
  191.9870  176.9190  144.6140 C   0  0  0  0  0  1  0  0  0  0  0  0
  193.9030  175.3620  144.8860 C   0  0  0  0  0  2  0  0  0  0  0  0
  189.7490  173.2930  145.1360 O   0  0  0  0  0  0  0  0  0  0  0  0
  194.1280  176.9590  146.6800 O   0  0  0  0  0  0  0  0  0  0  0  0
  191.5430  174.6480  145.6900 C   0  0  1  0  0  3  0  0  0  0  0  0
  190.9940  173.7290  144.6330 C   0  0  2  0  0  3  0  0  0  0  0  0
  192.5630  175.7520  145.4220 C   0  0  2  0  0  0  0  0  0  0  0  0
  194.8460  176.3070  145.6490 C   0  0  0  0  0  2  0  0  0  0  0  0
  191.8270  176.7080  147.6490 C   0  0  0  0  0  2  0  0  0  0  0  0
  192.9830  176.1730  146.8000 C   0  0  2  0  0  3  0  0  0  0  0  0
  190.3770  175.2010  146.3280 N   0  0  1  0  0  0  0  0  0  0  0  0
  189.5060  174.0410  146.3180 C   0  0  0  0  0  2  0  0  0  0  0  0
  2 15  1  0  0  0  0
  3 10  2  0  0  0  0
  4  3  1  0  0  0  0
  4 17  1  0  0  0  0
  6 17  2  0  0  0  0
  6  1  1  0  0  0  0
  7 13  1  0  0  0  0
  8  9  1  0  0  0  0
  9 16  2  0  0  0  0
 10  8  1  0  0  0  0
 11 14  1  0  0  0  0
 11 12  2  0  0  0  0
 12  6  1  0  0  0  0
 13  9  1  0  0  0  0
 13  2  2  0  0  0  0
 14  4  2  0  0  0  0
 15  5  2  0  0  0  0
 16  5  1  0  0  0  0
 17  7  1  0  0  0  0
 18 19  1  0  0  0  0
 19  3  1  0  0  0  0
 20 22  1  0  0  0  0
 20  1  1  0  0  0  0
 21 22  2  0  0  0  0
 22 23  1  0  0  0  0
 23 30  1  0  0  0  0
 25 31  1  0  0  0  0
 26 31  1  0  0  0  0
 26 32  1  0  0  0  0
 27 36  1  0  0  0  0
 28 34  1  0  0  0  0
 29 35  1  0  0  0  0
 30 27  1  0  0  0  0
 30 29  1  0  0  0  0
 31 29  1  0  0  0  0
 31 34  1  0  0  0  0
 32 28  1  0  0  0  0
 33 24  1  0  0  0  0
 34 33  1  0  0  0  0
 35 24  1  0  0  0  0
 36 35  1  0  0  0  0
M  END
>  <MODEL>
1

>  <REMARK>
 VINA RESULT:      -9.3      0.000      0.000
  Name = 
  5 active torsions:
  status: ('A' for Active; 'I' for Inactive)
    1  A    between atoms: C_2  and  O_29
    2  A    between atoms: C_3  and  C_21
    3  A    between atoms: C_3  and  C_24
    4  A    between atoms: N_5  and  C_8
    5  A    between atoms: C_8  and  C_12
                            x       y       z     vdW  Elec       q    Type
                         _______ _______ _______ _____ _____    ______ ____

>  <TORSDO>
F 5

$$$$
=
 OpenBabel11072408423D

 36 41  0  0  1  0  0  0  0  0999 V2000
  188.5120  175.4600  146.1390 C   0  0  0  0  0  2  0  0  0  0  0  0
  188.7500  173.3770  142.9520 C   0  0  0  0  0  3  0  0  0  0  0  0
  193.1250  173.7060  145.1500 C   0  0  0  0  0  0  0  0  0  0  0  0
  192.2220  174.6150  145.8810 C   0  0  0  0  0  0  0  0  0  0  0  0
  189.4640  174.0070  140.7810 N   0  0  0  0  0  0  0  0  0  0  0  0
  189.9910  175.4880  146.3250 C   0  0  0  0  0  0  0  0  0  0  0  0
  190.2440  173.4030  144.9080 C   0  0  0  0  0  2  0  0  0  0  0  0
  192.3470  174.6770  142.9910 C   0  0  0  0  0  2  0  0  0  0  0  0
  190.9930  174.1820  142.5670 C   0  0  0  0  0  0  0  0  0  0  0  0
  193.1470  173.7060  143.8070 C   0  0  0  0  0  3  0  0  0  0  0  0
  191.9300  176.5030  147.3720 C   0  0  0  0  0  3  0  0  0  0  0  0
  190.5500  176.4580  147.1650 C   0  0  0  0  0  3  0  0  0  0  0  0
  190.0020  173.7140  143.4620 C   0  0  0  0  0  0  0  0  0  0  0  0
  192.7640  175.5850  146.7290 C   0  0  0  0  0  3  0  0  0  0  0  0
  188.4890  173.5350  141.5960 C   0  0  0  0  0  3  0  0  0  0  0  0
  190.6710  174.3240  141.2520 N   0  0  0  0  0  0  0  0  0  0  0  0
  190.8250  174.5430  145.6970 C   0  0  0  0  0  0  0  0  0  0  0  0
  194.2620  171.5270  145.4850 C   0  0  0  0  0  1  0  0  0  0  0  0
  193.9550  172.8550  145.8890 O   0  0  0  0  0  0  0  0  0  0  0  0
  187.8520  176.0840  147.2750 N   0  0  0  0  0  2  0  0  0  0  0  0
  186.1110  177.3570  148.1380 O   0  0  0  0  0  0  0  0  0  0  0  0
  186.5960  176.7520  147.1470 C   0  0  0  0  0  0  0  0  0  0  0  0
  185.8510  176.7520  145.8530 C   0  0  0  0  0  2  0  0  0  0  0  0
  184.4400  178.7420  142.0050 C   0  0  0  0  0  2  0  0  0  0  0  0
  186.4960  175.9780  142.9560 C   0  0  0  0  0  1  0  0  0  0  0  0
  188.3080  177.6320  143.3380 C   0  0  0  0  0  2  0  0  0  0  0  0
  184.3630  178.6120  145.5900 O   0  0  0  0  0  0  0  0  0  0  0  0
  187.9170  177.6620  140.9580 O   0  0  0  0  0  0  0  0  0  0  0  0
  185.8490  178.2800  143.8460 C   0  0  1  0  0  3  0  0  0  0  0  0
  185.6810  178.1760  145.3370 C   0  0  2  0  0  3  0  0  0  0  0  0
  186.8540  177.4660  143.0360 C   0  0  2  0  0  0  0  0  0  0  0  0
  188.9390  177.5940  141.9360 C   0  0  0  0  0  2  0  0  0  0  0  0
  185.4460  178.0860  141.0240 C   0  0  0  0  0  2  0  0  0  0  0  0
  186.8240  178.1250  141.6890 C   0  0  2  0  0  3  0  0  0  0  0  0
  184.5230  178.0890  143.3190 N   0  0  1  0  0  0  0  0  0  0  0  0
  183.7450  178.7900  144.3240 C   0  0  0  0  0  2  0  0  0  0  0  0
  1  6  1  0  0  0  0
  1 20  1  0  0  0  0
  2 13  1  0  0  0  0
  3  4  1  0  0  0  0
  3 19  1  0  0  0  0
  4 14  1  0  0  0  0
  5 16  2  0  0  0  0
  5 15  1  0  0  0  0
  6 12  2  0  0  0  0
  7 17  1  0  0  0  0
  8 10  1  0  0  0  0
  9  8  1  0  0  0  0
  9 13  2  0  0  0  0
 10  3  2  0  0  0  0
 12 11  1  0  0  0  0
 13  7  1  0  0  0  0
 14 11  2  0  0  0  0
 15  2  2  0  0  0  0
 16  9  1  0  0  0  0
 17  4  2  0  0  0  0
 17  6  1  0  0  0  0
 18 19  1  0  0  0  0
 22 20  1  0  0  0  0
 22 21  2  0  0  0  0
 23 22  1  0  0  0  0
 24 35  1  0  0  0  0
 25 31  1  0  0  0  0
 28 34  1  0  0  0  0
 28 32  1  0  0  0  0
 29 30  1  0  0  0  0
 30 27  1  0  0  0  0
 30 23  1  0  0  0  0
 31 26  1  0  0  0  0
 31 29  1  0  0  0  0
 32 26  1  0  0  0  0
 33 34  1  0  0  0  0
 33 24  1  0  0  0  0
 34 31  1  0  0  0  0
 35 29  1  0  0  0  0
 35 36  1  0  0  0  0
 36 27  1  0  0  0  0
M  END
>  <MODEL>
2

>  <REMARK>
 VINA RESULT:      -9.1      2.309      8.091
  Name = 
  5 active torsions:
  status: ('A' for Active; 'I' for Inactive)
    1  A    between atoms: C_2  and  O_29
    2  A    between atoms: C_3  and  C_21
    3  A    between atoms: C_3  and  C_24
    4  A    between atoms: N_5  and  C_8
    5  A    between atoms: C_8  and  C_12
                            x       y       z     vdW  Elec       q    Type
                         _______ _______ _______ _____ _____    ______ ____

>  <TORSDO>
F 5

$$$$
=
 OpenBabel11072408423D

 36 41  0  0  1  0  0  0  0  0999 V2000
  188.1550  176.0020  143.0950 C   0  0  0  0  0  2  0  0  0  0  0  0
  186.3030  176.8080  146.3310 C   0  0  0  0  0  3  0  0  0  0  0  0
  183.6980  178.2440  142.4280 C   0  0  0  0  0  0  0  0  0  0  0  0
  185.0130  177.8140  141.9160 C   0  0  0  0  0  0  0  0  0  0  0  0
  186.1750  178.8460  147.5350 N   0  0  0  0  0  0  0  0  0  0  0  0
  187.1850  176.7650  142.2570 C   0  0  0  0  0  0  0  0  0  0  0  0
  185.4100  176.5460  144.0520 C   0  0  0  0  0  2  0  0  0  0  0  0
  184.8300  179.6060  144.1800 C   0  0  0  0  0  2  0  0  0  0  0  0
  185.3600  178.7890  145.3240 C   0  0  0  0  0  0  0  0  0  0  0  0
  183.6160  179.0390  143.5070 C   0  0  0  0  0  3  0  0  0  0  0  0
  186.6730  177.8540  140.1510 C   0  0  0  0  0  3  0  0  0  0  0  0
  187.5630  177.1520  140.9670 C   0  0  0  0  0  3  0  0  0  0  0  0
  185.7300  177.4270  145.2220 C   0  0  0  0  0  0  0  0  0  0  0  0
  185.4030  178.1870  140.6260 C   0  0  0  0  0  3  0  0  0  0  0  0
  186.5280  177.5380  147.4920 C   0  0  0  0  0  3  0  0  0  0  0  0
  185.6160  179.4500  146.4860 N   0  0  0  0  0  0  0  0  0  0  0  0
  185.8950  177.0730  142.7310 C   0  0  0  0  0  0  0  0  0  0  0  0
  181.3950  178.6200  141.5860 C   0  0  0  0  0  1  0  0  0  0  0  0
  182.5480  177.8060  141.7600 O   0  0  0  0  0  0  0  0  0  0  0  0
  188.9570  176.9160  143.8920 N   0  0  0  0  0  2  0  0  0  0  0  0
  190.4550  177.2860  145.6290 O   0  0  0  0  0  0  0  0  0  0  0  0
  189.8540  176.4530  144.9030 C   0  0  0  0  0  0  0  0  0  0  0  0
  190.0850  174.9930  145.1180 C   0  0  0  0  0  2  0  0  0  0  0  0
  193.5180  172.0390  144.6320 C   0  0  0  0  0  2  0  0  0  0  0  0
  192.6490  174.7560  146.7830 C   0  0  0  0  0  1  0  0  0  0  0  0
  193.4770  176.2620  144.9910 C   0  0  0  0  0  2  0  0  0  0  0  0
  190.2980  173.1950  143.5490 O   0  0  0  0  0  0  0  0  0  0  0  0
  195.4330  175.0960  145.7890 O   0  0  0  0  0  0  0  0  0  0  0  0
  192.2940  174.0430  144.3590 C   0  0  1  0  0  3  0  0  0  0  0  0
  190.8900  174.4070  143.9650 C   0  0  2  0  0  3  0  0  0  0  0  0
  193.1480  174.8460  145.3370 C   0  0  2  0  0  0  0  0  0  0  0  0
  194.9360  176.3810  145.4610 C   0  0  0  0  0  2  0  0  0  0  0  0
  194.5680  172.7570  145.5180 C   0  0  0  0  0  2  0  0  0  0  0  0
  194.5140  174.2480  145.1740 C   0  0  2  0  0  3  0  0  0  0  0  0
  192.2030  172.6740  144.7970 N   0  0  1  0  0  0  0  0  0  0  0  0
  191.2310  172.1660  143.8460 C   0  0  0  0  0  2  0  0  0  0  0  0
  1 20  1  0  0  0  0
  2 15  1  0  0  0  0
  3 10  2  0  0  0  0
  4  3  1  0  0  0  0
  4 17  1  0  0  0  0
  6 17  2  0  0  0  0
  6  1  1  0  0  0  0
  7 13  1  0  0  0  0
  8  9  1  0  0  0  0
  9 16  2  0  0  0  0
 10  8  1  0  0  0  0
 11 14  1  0  0  0  0
 11 12  2  0  0  0  0
 12  6  1  0  0  0  0
 13  9  1  0  0  0  0
 13  2  2  0  0  0  0
 14  4  2  0  0  0  0
 15  5  2  0  0  0  0
 16  5  1  0  0  0  0
 17  7  1  0  0  0  0
 18 19  1  0  0  0  0
 19  3  1  0  0  0  0
 20 22  1  0  0  0  0
 22 23  1  0  0  0  0
 22 21  2  0  0  0  0
 24 35  1  0  0  0  0
 24 33  1  0  0  0  0
 26 31  1  0  0  0  0
 26 32  1  0  0  0  0
 27 36  1  0  0  0  0
 27 30  1  0  0  0  0
 29 35  1  0  0  0  0
 29 31  1  0  0  0  0
 30 29  1  0  0  0  0
 30 23  1  0  0  0  0
 31 25  1  0  0  0  0
 32 28  1  0  0  0  0
 34 31  1  0  0  0  0
 34 33  1  0  0  0  0
 34 28  1  0  0  0  0
 36 35  1  0  0  0  0
M  END
>  <MODEL>
3

>  <REMARK>
 VINA RESULT:      -8.5      1.486      2.202
  Name = 
  5 active torsions:
  status: ('A' for Active; 'I' for Inactive)
    1  A    between atoms: C_2  and  O_29
    2  A    between atoms: C_3  and  C_21
    3  A    between atoms: C_3  and  C_24
    4  A    between atoms: N_5  and  C_8
    5  A    between atoms: C_8  and  C_12
                            x       y       z     vdW  Elec       q    Type
                         _______ _______ _______ _____ _____    ______ ____

>  <TORSDO>
F 5

$$$$
=
 OpenBabel11072408423D

 36 41  0  0  1  0  0  0  0  0999 V2000
  188.1070  175.6070  143.0890 C   0  0  0  0  0  2  0  0  0  0  0  0
  186.3510  176.6070  146.3230 C   0  0  0  0  0  3  0  0  0  0  0  0
  183.9050  178.2960  142.4190 C   0  0  0  0  0  0  0  0  0  0  0  0
  185.1690  177.7320  141.9070 C   0  0  0  0  0  0  0  0  0  0  0  0
  186.4350  178.6500  147.5230 N   0  0  0  0  0  0  0  0  0  0  0  0
  187.2210  176.4650  142.2500 C   0  0  0  0  0  0  0  0  0  0  0  0
  185.4340  176.4340  144.0450 C   0  0  0  0  0  2  0  0  0  0  0  0
  185.1730  179.5380  144.1670 C   0  0  0  0  0  2  0  0  0  0  0  0
  185.6160  178.6730  145.3130 C   0  0  0  0  0  0  0  0  0  0  0  0
  183.9070  179.0980  143.4960 C   0  0  0  0  0  3  0  0  0  0  0  0
  186.8230  177.5960  140.1410 C   0  0  0  0  0  3  0  0  0  0  0  0
  187.6360  176.8070  140.9580 C   0  0  0  0  0  3  0  0  0  0  0  0
  185.8440  177.2800  145.2140 C   0  0  0  0  0  0  0  0  0  0  0  0
  185.5940  178.0590  140.6160 C   0  0  0  0  0  3  0  0  0  0  0  0
  186.6510  177.3130  147.4830 C   0  0  0  0  0  3  0  0  0  0  0  0
  185.9400  179.3070  146.4730 N   0  0  0  0  0  0  0  0  0  0  0  0
  185.9700  176.9060  142.7230 C   0  0  0  0  0  0  0  0  0  0  0  0
  181.4870  178.6500  141.9950 C   0  0  0  0  0  1  0  0  0  0  0  0
  182.7160  177.9780  141.7520 O   0  0  0  0  0  0  0  0  0  0  0  0
  188.6380  174.5090  142.2970 N   0  0  0  0  0  2  0  0  0  0  0  0
  190.3750  173.0520  141.7870 O   0  0  0  0  0  0  0  0  0  0  0  0
  189.9210  173.9370  142.5580 C   0  0  0  0  0  0  0  0  0  0  0  0
  190.7370  174.3780  143.7280 C   0  0  0  0  0  2  0  0  0  0  0  0
  194.4440  176.7080  144.9880 C   0  0  0  0  0  2  0  0  0  0  0  0
  192.0440  174.5340  146.4980 C   0  0  0  0  0  1  0  0  0  0  0  0
  190.5500  176.5110  146.6530 C   0  0  0  0  0  2  0  0  0  0  0  0
  192.1890  175.7220  142.3760 O   0  0  0  0  0  0  0  0  0  0  0  0
  192.3790  176.9830  148.1530 O   0  0  0  0  0  0  0  0  0  0  0  0
  192.1500  176.2650  144.6260 C   0  0  1  0  0  3  0  0  0  0  0  0
  191.3120  175.7680  143.4810 C   0  0  2  0  0  3  0  0  0  0  0  0
  191.8390  175.9980  146.0970 C   0  0  2  0  0  0  0  0  0  0  0  0
  190.9670  176.9920  148.0520 C   0  0  0  0  0  2  0  0  0  0  0  0
  194.2550  176.6290  146.5250 C   0  0  0  0  0  2  0  0  0  0  0  0
  192.7800  176.9170  146.8200 C   0  0  2  0  0  3  0  0  0  0  0  0
  193.4840  175.8190  144.3180 N   0  0  1  0  0  0  0  0  0  0  0  0
  193.4880  176.0020  142.8780 C   0  0  0  0  0  2  0  0  0  0  0  0
  2 15  1  0  0  0  0
  3 10  2  0  0  0  0
  4  3  1  0  0  0  0
  4 17  1  0  0  0  0
  6 17  2  0  0  0  0
  6  1  1  0  0  0  0
  7 13  1  0  0  0  0
  8  9  1  0  0  0  0
  9 16  2  0  0  0  0
 10  8  1  0  0  0  0
 11 14  1  0  0  0  0
 11 12  2  0  0  0  0
 12  6  1  0  0  0  0
 13  9  1  0  0  0  0
 13  2  2  0  0  0  0
 14  4  2  0  0  0  0
 15  5  2  0  0  0  0
 16  5  1  0  0  0  0
 17  7  1  0  0  0  0
 19 18  1  0  0  0  0
 19  3  1  0  0  0  0
 20 22  1  0  0  0  0
 20  1  1  0  0  0  0
 21 22  2  0  0  0  0
 22 23  1  0  0  0  0
 24 33  1  0  0  0  0
 26 32  1  0  0  0  0
 27 36  1  0  0  0  0
 27 30  1  0  0  0  0
 29 31  1  0  0  0  0
 30 23  1  0  0  0  0
 30 29  1  0  0  0  0
 31 25  1  0  0  0  0
 31 26  1  0  0  0  0
 31 34  1  0  0  0  0
 32 28  1  0  0  0  0
 33 34  1  0  0  0  0
 34 28  1  0  0  0  0
 35 29  1  0  0  0  0
 35 24  1  0  0  0  0
 36 35  1  0  0  0  0
M  END
>  <MODEL>
4

>  <REMARK>
 VINA RESULT:      -8.4      1.185      2.100
  Name = 
  5 active torsions:
  status: ('A' for Active; 'I' for Inactive)
    1  A    between atoms: C_2  and  O_29
    2  A    between atoms: C_3  and  C_21
    3  A    between atoms: C_3  and  C_24
    4  A    between atoms: N_5  and  C_8
    5  A    between atoms: C_8  and  C_12
                            x       y       z     vdW  Elec       q    Type
                         _______ _______ _______ _____ _____    ______ ____

>  <TORSDO>
F 5

$$$$
=
 OpenBabel11072408423D

 36 41  0  0  1  0  0  0  0  0999 V2000
  191.5150  175.3750  143.6800 C   0  0  0  0  0  2  0  0  0  0  0  0
  193.8120  174.1790  140.8800 C   0  0  0  0  0  3  0  0  0  0  0  0
  196.2960  174.6590  145.0840 C   0  0  0  0  0  0  0  0  0  0  0  0
  194.9500  175.2130  145.3290 C   0  0  0  0  0  0  0  0  0  0  0  0
  195.3050  175.4140  139.5140 N   0  0  0  0  0  0  0  0  0  0  0  0
  192.6490  175.5920  144.6240 C   0  0  0  0  0  0  0  0  0  0  0  0
  194.0930  173.9720  143.3160 C   0  0  0  0  0  2  0  0  0  0  0  0
  196.4510  175.9820  142.9790 C   0  0  0  0  0  2  0  0  0  0  0  0
  195.6600  175.3960  141.8440 C   0  0  0  0  0  0  0  0  0  0  0  0
  196.9700  174.9830  143.9700 C   0  0  0  0  0  3  0  0  0  0  0  0
  193.4880  176.6190  146.6550 C   0  0  0  0  0  3  0  0  0  0  0  0
  192.4520  176.4080  145.7440 C   0  0  0  0  0  3  0  0  0  0  0  0
  194.5180  174.5770  142.0120 C   0  0  0  0  0  0  0  0  0  0  0  0
  194.7350  176.0250  146.4470 C   0  0  0  0  0  3  0  0  0  0  0  0
  194.2170  174.6130  139.6220 C   0  0  0  0  0  3  0  0  0  0  0  0
  195.9980  175.7950  140.5880 N   0  0  0  0  0  0  0  0  0  0  0  0
  193.8950  174.9680  144.4250 C   0  0  0  0  0  0  0  0  0  0  0  0
  196.8070  172.3820  145.9230 C   0  0  0  0  0  1  0  0  0  0  0  0
  196.8460  173.7980  146.0410 O   0  0  0  0  0  0  0  0  0  0  0  0
  191.2190  176.6050  142.9610 N   0  0  0  0  0  2  0  0  0  0  0  0
  189.6900  178.2100  142.2670 O   0  0  0  0  0  0  0  0  0  0  0  0
  189.9200  177.1990  142.9790 C   0  0  0  0  0  0  0  0  0  0  0  0
  188.8270  176.6340  143.8250 C   0  0  0  0  0  2  0  0  0  0  0  0
  185.9500  176.8200  147.3530 C   0  0  0  0  0  2  0  0  0  0  0  0
  185.7620  176.7570  143.7850 C   0  0  0  0  0  1  0  0  0  0  0  0
  186.2570  179.1900  143.8520 C   0  0  0  0  0  2  0  0  0  0  0  0
  189.3290  176.5830  146.1670 O   0  0  0  0  0  0  0  0  0  0  0  0
  184.0740  178.9620  144.8530 O   0  0  0  0  0  0  0  0  0  0  0  0
  187.3320  177.6120  145.6060 C   0  0  1  0  0  3  0  0  0  0  0  0
  188.7470  177.3750  145.1540 C   0  0  2  0  0  3  0  0  0  0  0  0
  186.1740  177.9400  144.6670 C   0  0  2  0  0  0  0  0  0  0  0  0
  184.8090  179.7060  143.9000 C   0  0  0  0  0  2  0  0  0  0  0  0
  184.6730  177.2500  146.5860 C   0  0  0  0  0  2  0  0  0  0  0  0
  185.0780  178.3520  145.6050 C   0  0  2  0  0  3  0  0  0  0  0  0
  187.0080  176.4550  146.4000 N   0  0  1  0  0  0  0  0  0  0  0  0
  188.2810  176.2330  147.0600 C   0  0  0  0  0  2  0  0  0  0  0  0
  1  6  1  0  0  0  0
  2 13  1  0  0  0  0
  3  4  1  0  0  0  0
  3 19  1  0  0  0  0
  4 14  1  0  0  0  0
  5 15  1  0  0  0  0
  5 16  2  0  0  0  0
  6 12  2  0  0  0  0
  7 17  1  0  0  0  0
  8 10  1  0  0  0  0
  9 13  2  0  0  0  0
  9  8  1  0  0  0  0
 10  3  2  0  0  0  0
 12 11  1  0  0  0  0
 13  7  1  0  0  0  0
 14 11  2  0  0  0  0
 15  2  2  0  0  0  0
 16  9  1  0  0  0  0
 17  6  1  0  0  0  0
 17  4  2  0  0  0  0
 18 19  1  0  0  0  0
 20 22  1  0  0  0  0
 20  1  1  0  0  0  0
 21 22  2  0  0  0  0
 22 23  1  0  0  0  0
 23 30  1  0  0  0  0
 25 31  1  0  0  0  0
 26 32  1  0  0  0  0
 26 31  1  0  0  0  0
 27 36  1  0  0  0  0
 28 34  1  0  0  0  0
 29 35  1  0  0  0  0
 30 29  1  0  0  0  0
 30 27  1  0  0  0  0
 31 34  1  0  0  0  0
 31 29  1  0  0  0  0
 32 28  1  0  0  0  0
 33 24  1  0  0  0  0
 34 33  1  0  0  0  0
 35 36  1  0  0  0  0
 35 24  1  0  0  0  0
M  END
>  <MODEL>
5

>  <REMARK>
 VINA RESULT:      -8.4      3.149      9.183
  Name = 
  5 active torsions:
  status: ('A' for Active; 'I' for Inactive)
    1  A    between atoms: C_2  and  O_29
    2  A    between atoms: C_3  and  C_21
    3  A    between atoms: C_3  and  C_24
    4  A    between atoms: N_5  and  C_8
    5  A    between atoms: C_8  and  C_12
                            x       y       z     vdW  Elec       q    Type
                         _______ _______ _______ _____ _____    ______ ____

>  <TORSDO>
F 5

$$$$
=
 OpenBabel11072408423D

 36 41  0  0  1  0  0  0  0  0999 V2000
  189.0530  176.8520  146.4130 C   0  0  0  0  0  2  0  0  0  0  0  0
  185.2460  176.8500  146.1720 C   0  0  0  0  0  3  0  0  0  0  0  0
  187.2710  177.6610  141.7760 C   0  0  0  0  0  0  0  0  0  0  0  0
  188.3750  177.6870  142.7550 C   0  0  0  0  0  0  0  0  0  0  0  0
  183.7300  178.6720  146.1370 N   0  0  0  0  0  0  0  0  0  0  0  0
  189.2210  177.3330  145.0120 C   0  0  0  0  0  0  0  0  0  0  0  0
  186.9170  176.4710  144.4040 C   0  0  0  0  0  2  0  0  0  0  0  0
  185.9510  179.1930  143.2320 C   0  0  0  0  0  2  0  0  0  0  0  0
  185.3340  178.5070  144.4180 C   0  0  0  0  0  0  0  0  0  0  0  0
  186.1300  178.3250  142.0220 C   0  0  0  0  0  3  0  0  0  0  0  0
  190.6380  178.3430  143.3220 C   0  0  0  0  0  3  0  0  0  0  0  0
  190.4430  177.8970  144.6310 C   0  0  0  0  0  3  0  0  0  0  0  0
  185.8520  177.3320  145.0130 C   0  0  0  0  0  0  0  0  0  0  0  0
  189.6050  178.2410  142.3880 C   0  0  0  0  0  3  0  0  0  0  0  0
  184.1780  177.5400  146.7330 C   0  0  0  0  0  3  0  0  0  0  0  0
  184.2930  179.1410  145.0220 N   0  0  0  0  0  0  0  0  0  0  0  0
  188.1860  177.2020  144.0660 C   0  0  0  0  0  0  0  0  0  0  0  0
  186.6790  177.1660  139.4180 C   0  0  0  0  0  1  0  0  0  0  0  0
  187.4480  176.9360  140.5920 O   0  0  0  0  0  0  0  0  0  0  0  0
  190.3410  176.8190  147.0890 N   0  0  0  0  0  2  0  0  0  0  0  0
  192.3310  175.7220  147.5730 O   0  0  0  0  0  0  0  0  0  0  0  0
  191.2710  175.7530  146.8950 C   0  0  0  0  0  0  0  0  0  0  0  0
  191.0030  174.6680  145.9040 C   0  0  0  0  0  2  0  0  0  0  0  0
  192.6900  174.9170  141.6800 C   0  0  0  0  0  2  0  0  0  0  0  0
  189.5860  174.0950  143.2460 C   0  0  0  0  0  1  0  0  0  0  0  0
  190.5520  171.8470  143.6730 C   0  0  0  0  0  2  0  0  0  0  0  0
  193.1910  175.3510  145.2060 O   0  0  0  0  0  0  0  0  0  0  0  0
  190.3200  171.9890  141.2760 O   0  0  0  0  0  0  0  0  0  0  0  0
  192.0830  173.9390  143.7440 C   0  0  1  0  0  3  0  0  0  0  0  0
  192.2920  174.2640  145.1980 C   0  0  2  0  0  3  0  0  0  0  0  0
  190.8490  173.2300  143.1910 C   0  0  2  0  0  0  0  0  0  0  0  0
  190.0670  171.1530  142.3900 C   0  0  0  0  0  2  0  0  0  0  0  0
  191.5750  174.1350  140.9390 C   0  0  0  0  0  2  0  0  0  0  0  0
  191.2450  172.9000  141.7820 C   0  0  2  0  0  3  0  0  0  0  0  0
  192.2760  175.1930  143.0630 N   0  0  1  0  0  0  0  0  0  0  0  0
  193.3590  175.7490  143.8530 C   0  0  0  0  0  2  0  0  0  0  0  0
  1 20  1  0  0  0  0
  2 15  1  0  0  0  0
  3 10  2  0  0  0  0
  3  4  1  0  0  0  0
  4 17  1  0  0  0  0
  5 15  2  0  0  0  0
  6  1  1  0  0  0  0
  7 13  1  0  0  0  0
  8  9  1  0  0  0  0
  9 13  1  0  0  0  0
  9 16  2  0  0  0  0
 10  8  1  0  0  0  0
 11 12  2  0  0  0  0
 12  6  1  0  0  0  0
 13  2  2  0  0  0  0
 14  4  2  0  0  0  0
 14 11  1  0  0  0  0
 16  5  1  0  0  0  0
 17  7  1  0  0  0  0
 17  6  2  0  0  0  0
 18 19  1  0  0  0  0
 19  3  1  0  0  0  0
 22 20  1  0  0  0  0
 22 21  2  0  0  0  0
 23 22  1  0  0  0  0
 24 35  1  0  0  0  0
 28 34  1  0  0  0  0
 28 32  1  0  0  0  0
 29 30  1  0  0  0  0
 30 27  1  0  0  0  0
 30 23  1  0  0  0  0
 31 25  1  0  0  0  0
 31 26  1  0  0  0  0
 31 29  1  0  0  0  0
 32 26  1  0  0  0  0
 33 24  1  0  0  0  0
 33 34  1  0  0  0  0
 34 31  1  0  0  0  0
 35 29  1  0  0  0  0
 35 36  1  0  0  0  0
 36 27  1  0  0  0  0
M  END
>  <MODEL>
6

>  <REMARK>
 VINA RESULT:      -8.4      2.099      4.408
  Name = 
  5 active torsions:
  status: ('A' for Active; 'I' for Inactive)
    1  A    between atoms: C_2  and  O_29
    2  A    between atoms: C_3  and  C_21
    3  A    between atoms: C_3  and  C_24
    4  A    between atoms: N_5  and  C_8
    5  A    between atoms: C_8  and  C_12
                            x       y       z     vdW  Elec       q    Type
                         _______ _______ _______ _____ _____    ______ ____

>  <TORSDO>
F 5

$$$$
=
 OpenBabel11072408423D

 36 41  0  0  1  0  0  0  0  0999 V2000
  188.1780  175.8040  143.4590 C   0  0  0  0  0  2  0  0  0  0  0  0
  186.1340  176.7410  146.5400 C   0  0  0  0  0  3  0  0  0  0  0  0
  183.9210  178.2910  142.4440 C   0  0  0  0  0  0  0  0  0  0  0  0
  185.2450  177.7830  142.0360 C   0  0  0  0  0  0  0  0  0  0  0  0
  186.0320  178.7930  147.7230 N   0  0  0  0  0  0  0  0  0  0  0  0
  187.3210  176.6140  142.5470 C   0  0  0  0  0  0  0  0  0  0  0  0
  185.4040  176.5120  144.2000 C   0  0  0  0  0  2  0  0  0  0  0  0
  184.9930  179.6010  144.2720 C   0  0  0  0  0  2  0  0  0  0  0  0
  185.3860  178.7640  145.4560 C   0  0  0  0  0  0  0  0  0  0  0  0
  183.8030  179.0980  143.5100 C   0  0  0  0  0  3  0  0  0  0  0  0
  187.0340  177.7140  140.4030 C   0  0  0  0  0  3  0  0  0  0  0  0
  187.8170  176.9680  141.2870 C   0  0  0  0  0  3  0  0  0  0  0  0
  185.6840  177.3830  145.3880 C   0  0  0  0  0  0  0  0  0  0  0  0
  185.7530  178.1220  140.7780 C   0  0  0  0  0  3  0  0  0  0  0  0
  186.3110  177.4670  147.7130 C   0  0  0  0  0  3  0  0  0  0  0  0
  185.5900  179.4190  146.6320 N   0  0  0  0  0  0  0  0  0  0  0  0
  186.0180  177.0000  142.9180 C   0  0  0  0  0  0  0  0  0  0  0  0
  181.5920  178.6600  141.6730 C   0  0  0  0  0  1  0  0  0  0  0  0
  182.8020  177.9140  141.6910 O   0  0  0  0  0  0  0  0  0  0  0  0
  188.7100  174.6490  142.7520 N   0  0  0  0  0  2  0  0  0  0  0  0
  190.5270  173.4480  141.9440 O   0  0  0  0  0  0  0  0  0  0  0  0
  190.1140  174.4090  142.6440 C   0  0  0  0  0  0  0  0  0  0  0  0
  191.1020  175.2840  143.3430 C   0  0  0  0  0  2  0  0  0  0  0  0
  194.5260  175.6940  146.3200 C   0  0  0  0  0  2  0  0  0  0  0  0
  194.1150  175.4070  142.7830 C   0  0  0  0  0  1  0  0  0  0  0  0
  193.8770  172.9610  143.1450 C   0  0  0  0  0  2  0  0  0  0  0  0
  190.9910  175.5330  145.7230 O   0  0  0  0  0  0  0  0  0  0  0  0
  196.1630  173.4670  143.7290 O   0  0  0  0  0  0  0  0  0  0  0  0
  192.9580  174.6180  144.9160 C   0  0  1  0  0  3  0  0  0  0  0  0
  191.4720  174.6920  144.6970 C   0  0  2  0  0  3  0  0  0  0  0  0
  193.9720  174.2910  143.8220 C   0  0  2  0  0  0  0  0  0  0  0  0
  195.3560  172.5720  142.9860 C   0  0  0  0  0  2  0  0  0  0  0  0
  195.6950  175.2930  145.3850 C   0  0  0  0  0  2  0  0  0  0  0  0
  195.2430  174.0670  144.5880 C   0  0  2  0  0  3  0  0  0  0  0  0
  193.2950  175.8730  145.5370 N   0  0  1  0  0  0  0  0  0  0  0  0
  192.1320  176.0570  146.3870 C   0  0  0  0  0  2  0  0  0  0  0  0
  2 15  1  0  0  0  0
  3 10  2  0  0  0  0
  4  3  1  0  0  0  0
  4 17  1  0  0  0  0
  6 17  2  0  0  0  0
  6  1  1  0  0  0  0
  7 13  1  0  0  0  0
  8  9  1  0  0  0  0
  9 16  2  0  0  0  0
 10  8  1  0  0  0  0
 11 14  1  0  0  0  0
 11 12  2  0  0  0  0
 12  6  1  0  0  0  0
 13  9  1  0  0  0  0
 13  2  2  0  0  0  0
 14  4  2  0  0  0  0
 15  5  2  0  0  0  0
 16  5  1  0  0  0  0
 17  7  1  0  0  0  0
 18 19  1  0  0  0  0
 19  3  1  0  0  0  0
 20  1  1  0  0  0  0
 21 22  2  0  0  0  0
 22 20  1  0  0  0  0
 22 23  1  0  0  0  0
 23 30  1  0  0  0  0
 25 31  1  0  0  0  0
 26 31  1  0  0  0  0
 27 36  1  0  0  0  0
 28 34  1  0  0  0  0
 29 35  1  0  0  0  0
 30 29  1  0  0  0  0
 30 27  1  0  0  0  0
 31 34  1  0  0  0  0
 31 29  1  0  0  0  0
 32 26  1  0  0  0  0
 32 28  1  0  0  0  0
 33 24  1  0  0  0  0
 34 33  1  0  0  0  0
 35 24  1  0  0  0  0
 35 36  1  0  0  0  0
M  END
>  <MODEL>
7

>  <REMARK>
 VINA RESULT:      -8.3      1.527      2.106
  Name = 
  5 active torsions:
  status: ('A' for Active; 'I' for Inactive)
    1  A    between atoms: C_2  and  O_29
    2  A    between atoms: C_3  and  C_21
    3  A    between atoms: C_3  and  C_24
    4  A    between atoms: N_5  and  C_8
    5  A    between atoms: C_8  and  C_12
                            x       y       z     vdW  Elec       q    Type
                         _______ _______ _______ _____ _____    ______ ____

>  <TORSDO>
F 5

$$$$
=
 OpenBabel11072408423D

 36 41  0  0  1  0  0  0  0  0999 V2000
  189.2380  176.4290  146.2560 C   0  0  0  0  0  2  0  0  0  0  0  0
  185.4370  176.7460  146.1870 C   0  0  0  0  0  3  0  0  0  0  0  0
  187.3660  177.9550  141.8400 C   0  0  0  0  0  0  0  0  0  0  0  0
  188.5020  177.7730  142.7640 C   0  0  0  0  0  0  0  0  0  0  0  0
  184.0730  178.6670  146.4480 N   0  0  0  0  0  0  0  0  0  0  0  0
  189.3950  177.0710  144.9190 C   0  0  0  0  0  0  0  0  0  0  0  0
  187.0090  176.4700  144.3130 C   0  0  0  0  0  2  0  0  0  0  0  0
  186.2250  179.3840  143.5330 C   0  0  0  0  0  2  0  0  0  0  0  0
  185.5970  178.6010  144.6510 C   0  0  0  0  0  0  0  0  0  0  0  0
  186.2920  178.6660  142.2180 C   0  0  0  0  0  3  0  0  0  0  0  0
  190.8290  178.1780  143.3060 C   0  0  0  0  0  3  0  0  0  0  0  0
  190.6450  177.5840  144.5570 C   0  0  0  0  0  3  0  0  0  0  0  0
  186.0390  177.3240  145.0720 C   0  0  0  0  0  0  0  0  0  0  0  0
  189.7590  178.2740  142.4140 C   0  0  0  0  0  3  0  0  0  0  0  0
  184.4480  177.4370  146.8770 C   0  0  0  0  0  3  0  0  0  0  0  0
  184.6320  179.2290  145.3760 N   0  0  0  0  0  0  0  0  0  0  0  0
  188.3200  177.1400  144.0120 C   0  0  0  0  0  0  0  0  0  0  0  0
  186.3160  177.2300  139.7130 C   0  0  0  0  0  1  0  0  0  0  0  0
  187.4430  177.3760  140.5680 O   0  0  0  0  0  0  0  0  0  0  0  0
  190.0220  177.1450  147.2510 N   0  0  0  0  0  2  0  0  0  0  0  0
  191.9260  177.3110  148.5710 O   0  0  0  0  0  0  0  0  0  0  0  0
  191.3270  176.7130  147.6400 C   0  0  0  0  0  0  0  0  0  0  0  0
  191.9900  175.5580  146.9650 C   0  0  0  0  0  2  0  0  0  0  0  0
  195.1000  176.0910  143.6790 C   0  0  0  0  0  2  0  0  0  0  0  0
  192.2710  174.0080  144.3340 C   0  0  0  0  0  1  0  0  0  0  0  0
  193.7770  172.6440  145.7620 C   0  0  0  0  0  2  0  0  0  0  0  0
  193.7610  177.1660  146.8300 O   0  0  0  0  0  0  0  0  0  0  0  0
  194.5940  172.3400  143.5120 O   0  0  0  0  0  0  0  0  0  0  0  0
  194.1050  175.2130  145.6360 C   0  0  1  0  0  3  0  0  0  0  0  0
  193.4950  175.7820  146.8880 C   0  0  2  0  0  3  0  0  0  0  0  0
  193.6580  173.9110  144.9770 C   0  0  2  0  0  0  0  0  0  0  0  0
  194.2440  171.6420  144.6930 C   0  0  0  0  0  2  0  0  0  0  0  0
  194.8600  174.7620  142.9170 C   0  0  0  0  0  2  0  0  0  0  0  0
  194.7330  173.6520  143.9630 C   0  0  2  0  0  3  0  0  0  0  0  0
  194.0450  176.2910  144.6830 N   0  0  1  0  0  0  0  0  0  0  0  0
  194.3290  177.4170  145.5530 C   0  0  0  0  0  2  0  0  0  0  0  0
  1 20  1  0  0  0  0
  2 15  1  0  0  0  0
  3 10  2  0  0  0  0
  3  4  1  0  0  0  0
  4 17  1  0  0  0  0
  5 15  2  0  0  0  0
  6  1  1  0  0  0  0
  7 13  1  0  0  0  0
  8  9  1  0  0  0  0
  9 13  1  0  0  0  0
  9 16  2  0  0  0  0
 10  8  1  0  0  0  0
 11 12  2  0  0  0  0
 12  6  1  0  0  0  0
 13  2  2  0  0  0  0
 14  4  2  0  0  0  0
 14 11  1  0  0  0  0
 16  5  1  0  0  0  0
 17  7  1  0  0  0  0
 17  6  2  0  0  0  0
 18 19  1  0  0  0  0
 19  3  1  0  0  0  0
 20 22  1  0  0  0  0
 22 21  2  0  0  0  0
 23 22  1  0  0  0  0
 24 35  1  0  0  0  0
 25 31  1  0  0  0  0
 27 30  1  0  0  0  0
 28 34  1  0  0  0  0
 28 32  1  0  0  0  0
 29 30  1  0  0  0  0
 30 23  1  0  0  0  0
 31 29  1  0  0  0  0
 31 26  1  0  0  0  0
 32 26  1  0  0  0  0
 33 24  1  0  0  0  0
 33 34  1  0  0  0  0
 34 31  1  0  0  0  0
 35 36  1  0  0  0  0
 35 29  1  0  0  0  0
 36 27  1  0  0  0  0
M  END
>  <MODEL>
8

>  <REMARK>
 VINA RESULT:      -8.3      2.438      4.196
  Name = 
  5 active torsions:
  status: ('A' for Active; 'I' for Inactive)
    1  A    between atoms: C_2  and  O_29
    2  A    between atoms: C_3  and  C_21
    3  A    between atoms: C_3  and  C_24
    4  A    between atoms: N_5  and  C_8
    5  A    between atoms: C_8  and  C_12
                            x       y       z     vdW  Elec       q    Type
                         _______ _______ _______ _____ _____    ______ ____

>  <TORSDO>
F 5

$$$$
=
 OpenBabel11072408423D

 36 41  0  0  1  0  0  0  0  0999 V2000
  189.8280  175.5450  143.0730 C   0  0  0  0  0  2  0  0  0  0  0  0
  187.2320  178.1350  142.0250 C   0  0  0  0  0  3  0  0  0  0  0  0
  187.3000  177.6120  146.9040 C   0  0  0  0  0  0  0  0  0  0  0  0
  188.1800  176.5600  146.3590 C   0  0  0  0  0  0  0  0  0  0  0  0
  184.8900  177.9030  141.7370 N   0  0  0  0  0  0  0  0  0  0  0  0
  189.3670  175.5420  144.4920 C   0  0  0  0  0  0  0  0  0  0  0  0
  188.3450  177.8410  144.2010 C   0  0  0  0  0  2  0  0  0  0  0  0
  185.5390  176.9840  145.2560 C   0  0  0  0  0  2  0  0  0  0  0  0
  185.8120  177.4910  143.8680 C   0  0  0  0  0  0  0  0  0  0  0  0
  186.0930  177.8360  146.3600 C   0  0  0  0  0  3  0  0  0  0  0  0
  189.3190  174.4410  146.6530 C   0  0  0  0  0  3  0  0  0  0  0  0
  189.7210  174.4680  145.3160 C   0  0  0  0  0  3  0  0  0  0  0  0
  187.1040  177.7660  143.3630 C   0  0  0  0  0  0  0  0  0  0  0  0
  188.5480  175.4840  147.1720 C   0  0  0  0  0  3  0  0  0  0  0  0
  186.1050  178.1950  141.2130 C   0  0  0  0  0  3  0  0  0  0  0  0
  184.7510  177.5580  143.0180 N   0  0  0  0  0  0  0  0  0  0  0  0
  188.6140  176.6090  145.0180 C   0  0  0  0  0  0  0  0  0  0  0  0
  186.9950  179.4070  148.5890 C   0  0  0  0  0  1  0  0  0  0  0  0
  187.7530  178.3590  147.9980 O   0  0  0  0  0  0  0  0  0  0  0  0
  189.6670  174.2210  142.4910 N   0  0  0  0  0  2  0  0  0  0  0  0
  190.5140  172.4600  141.2350 O   0  0  0  0  0  0  0  0  0  0  0  0
  190.7300  173.5630  141.8010 C   0  0  0  0  0  0  0  0  0  0  0  0
  192.0950  174.1660  141.7350 C   0  0  0  0  0  2  0  0  0  0  0  0
  194.2300  174.2320  145.7590 C   0  0  0  0  0  2  0  0  0  0  0  0
  193.4030  176.5440  143.1630 C   0  0  0  0  0  1  0  0  0  0  0  0
  195.3840  175.6750  141.9430 C   0  0  0  0  0  2  0  0  0  0  0  0
  192.4070  172.3710  143.2910 O   0  0  0  0  0  0  0  0  0  0  0  0
  196.2790  176.8050  143.8780 O   0  0  0  0  0  0  0  0  0  0  0  0
  193.9740  174.0700  143.4140 C   0  0  1  0  0  3  0  0  0  0  0  0
  193.0990  173.2890  142.4730 C   0  0  2  0  0  3  0  0  0  0  0  0
  194.5000  175.4750  143.1320 C   0  0  2  0  0  0  0  0  0  0  0  0
  196.4240  176.6740  142.4750 C   0  0  0  0  0  2  0  0  0  0  0  0
  194.9340  175.6070  145.6240 C   0  0  0  0  0  2  0  0  0  0  0  0
  195.5200  175.6840  144.2120 C   0  0  2  0  0  3  0  0  0  0  0  0
  193.2630  174.0540  144.6660 N   0  0  1  0  0  0  0  0  0  0  0  0
  192.7210  172.7080  144.6350 C   0  0  0  0  0  2  0  0  0  0  0  0
  1  6  1  0  0  0  0
  2 13  1  0  0  0  0
  3 19  1  0  0  0  0
  4  3  1  0  0  0  0
  4 14  1  0  0  0  0
  5 16  2  0  0  0  0
  6 17  1  0  0  0  0
  6 12  2  0  0  0  0
  7 17  1  0  0  0  0
  8 10  1  0  0  0  0
  9  8  1  0  0  0  0
 10  3  2  0  0  0  0
 11 14  2  0  0  0  0
 12 11  1  0  0  0  0
 13  9  2  0  0  0  0
 13  7  1  0  0  0  0
 15  5  1  0  0  0  0
 15  2  2  0  0  0  0
 16  9  1  0  0  0  0
 17  4  2  0  0  0  0
 19 18  1  0  0  0  0
 20  1  1  0  0  0  0
 21 22  2  0  0  0  0
 22 20  1  0  0  0  0
 23 22  1  0  0  0  0
 23 30  1  0  0  0  0
 26 32  1  0  0  0  0
 26 31  1  0  0  0  0
 27 36  1  0  0  0  0
 28 34  1  0  0  0  0
 29 35  1  0  0  0  0
 30 27  1  0  0  0  0
 30 29  1  0  0  0  0
 31 25  1  0  0  0  0
 31 29  1  0  0  0  0
 31 34  1  0  0  0  0
 32 28  1  0  0  0  0
 33 24  1  0  0  0  0
 34 33  1  0  0  0  0
 35 24  1  0  0  0  0
 36 35  1  0  0  0  0
M  END
>  <MODEL>
9

>  <REMARK>
 VINA RESULT:      -8.2      2.631      4.417
  Name = 
  5 active torsions:
  status: ('A' for Active; 'I' for Inactive)
    1  A    between atoms: C_2  and  O_29
    2  A    between atoms: C_3  and  C_21
    3  A    between atoms: C_3  and  C_24
    4  A    between atoms: N_5  and  C_8
    5  A    between atoms: C_8  and  C_12
                            x       y       z     vdW  Elec       q    Type
                         _______ _______ _______ _____ _____    ______ ____

>  <TORSDO>
F 5

$$$$
