=
 OpenBabel11062420563D

 31 35  0  0  1  0  0  0  0  0999 V2000
  190.2440  176.2300  145.4160 C   0  0  2  0  0  3  0  0  0  0  0  0
  196.9090  175.4260  143.9300 C   0  0  0  0  0  2  0  0  0  0  0  0
  196.9020  173.9580  145.7860 F   0  0  0  0  0  0  0  0  0  0  0  0
  193.8130  176.8070  146.8280 C   0  0  0  0  0  2  0  0  0  0  0  0
  192.3770  176.2910  146.8080 C   0  0  0  0  0  2  0  0  0  0  0  0
  196.1090  174.3950  144.7420 C   0  0  0  0  0  0  0  0  0  0  0  0
  194.7890  174.9380  145.3190 C   0  0  1  0  0  0  0  0  0  0  0  0
  194.7000  176.4390  145.6160 C   0  0  1  0  0  3  0  0  0  0  0  0
  192.4600  175.5740  144.4430 C   0  0  0  0  0  2  0  0  0  0  0  0
  193.9670  175.8380  144.3950 C   0  0  2  0  0  0  0  0  0  0  0  0
  196.0760  176.3530  143.0310 C   0  0  0  0  0  2  0  0  0  0  0  0
  194.0650  174.0930  146.1480 F   0  0  0  0  0  0  0  0  0  0  0  0
  191.7580  176.4870  145.4340 C   0  0  1  0  0  3  0  0  0  0  0  0
  194.5820  176.0220  143.0030 C   0  0  0  0  0  2  0  0  0  0  0  0
  195.8250  173.3140  143.9260 F   0  0  0  0  0  0  0  0  0  0  0  0
  189.1330  175.3450  143.3310 C   0  0  0  0  0  0  0  0  0  0  0  0
  188.5230  175.5640  142.0930 C   0  0  0  0  0  3  0  0  0  0  0  0
  189.5910  176.4440  144.0760 C   0  0  0  0  0  0  0  0  0  0  0  0
  189.2810  174.0140  143.8150 N   0  0  0  0  0  1  0  0  0  0  0  0
  188.3740  176.8290  141.6170 N   0  0  0  0  0  0  0  0  0  0  0  0
  189.4220  177.7360  143.5610 C   0  0  0  0  0  3  0  0  0  0  0  0
  188.8070  177.9090  142.3200 C   0  0  0  0  0  3  0  0  0  0  0  0
  189.4430  176.7700  146.6100 C   0  0  0  0  0  2  0  0  0  0  0  0
  188.0920  176.0860  146.7810 C   0  0  0  0  0  2  0  0  0  0  0  0
  184.9420  180.0510  144.3380 O   0  0  0  0  0  1  0  0  0  0  0  0
  185.6340  179.0500  146.5260 C   0  0  0  0  0  2  0  0  0  0  0  0
  186.1530  176.5940  145.1390 C   0  0  0  0  0  2  0  0  0  0  0  0
  185.6670  177.8090  144.3940 C   0  0  0  0  0  3  0  0  0  0  0  0
  186.9890  176.9850  146.3310 C   0  0  0  0  0  0  0  0  0  0  0  0
  185.4170  178.9520  145.0400 C   0  0  0  0  0  0  0  0  0  0  0  0
  186.7540  178.1440  146.9710 C   0  0  0  0  0  3  0  0  0  0  0  0
  1 23  1  1  0  0  0
  2  6  1  0  0  0  0
  5  4  1  0  0  0  0
  6  7  1  0  0  0  0
  6  3  1  0  0  0  0
  7  8  1  0  0  0  0
  7 12  1  1  0  0  0
  8  4  1  1  0  0  0
  9 13  1  0  0  0  0
 10 14  1  6  0  0  0
 10  9  1  0  0  0  0
 10  7  1  0  0  0  0
 10  8  1  0  0  0  0
 11  2  1  0  0  0  0
 13  1  1  1  0  0  0
 13  5  1  0  0  0  0
 14 11  1  0  0  0  0
 15  6  1  0  0  0  0
 16 19  1  0  0  0  0
 16 18  1  0  0  0  0
 17 16  2  0  0  0  0
 18  1  1  0  0  0  0
 20 17  1  0  0  0  0
 20 22  2  0  0  0  0
 21 18  2  0  0  0  0
 22 21  1  0  0  0  0
 23 24  1  0  0  0  0
 25 30  1  0  0  0  0
 26 31  1  0  0  0  0
 27 29  1  0  0  0  0
 28 30  2  0  0  0  0
 28 27  1  0  0  0  0
 29 24  1  0  0  0  0
 29 31  2  0  0  0  0
 30 26  1  0  0  0  0
M  END
>  <MODEL>
1

>  <REMARK>
 VINA RESULT:      -8.4      0.000      0.000
  Name = 
  5 active torsions:
  status: ('A' for Active; 'I' for Inactive)
    1  A    between atoms: C_4  and  C_29
    2  A    between atoms: C_12  and  C_17
    3  A    between atoms: C_12  and  C_21
    4  A    between atoms: C_21  and  C_29
    5  A    between atoms: C_27  and  C_29
                            x       y       z     vdW  Elec       q    Type
                         _______ _______ _______ _____ _____    ______ ____

>  <TORSDO>
F 5

$$$$
=
 OpenBabel11062420563D

 31 35  0  0  1  0  0  0  0  0999 V2000
  190.1570  176.1870  145.4640 C   0  0  2  0  0  3  0  0  0  0  0  0
  184.0560  178.6440  143.4590 C   0  0  0  0  0  2  0  0  0  0  0  0
  184.1280  179.8320  145.5040 F   0  0  0  0  0  0  0  0  0  0  0  0
  186.3940  176.2550  146.4110 C   0  0  0  0  0  2  0  0  0  0  0  0
  187.8960  176.4340  146.6120 C   0  0  0  0  0  2  0  0  0  0  0  0
  184.9410  179.3600  144.4910 C   0  0  0  0  0  0  0  0  0  0  0  0
  186.0330  178.4680  145.1090 C   0  0  1  0  0  0  0  0  0  0  0  0
  185.7680  176.9600  145.1860 C   0  0  1  0  0  3  0  0  0  0  0  0
  188.2720  177.4390  144.3840 C   0  0  0  0  0  2  0  0  0  0  0  0
  186.7620  177.5280  144.1470 C   0  0  2  0  0  0  0  0  0  0  0  0
  184.7880  177.6730  142.5190 C   0  0  0  0  0  2  0  0  0  0  0  0
  186.8030  179.0190  146.1230 F   0  0  0  0  0  0  0  0  0  0  0  0
  188.6340  176.2760  145.2930 C   0  0  1  0  0  3  0  0  0  0  0  0
  186.3080  177.6610  142.6890 C   0  0  0  0  0  2  0  0  0  0  0  0
  185.5470  180.4430  143.8780 F   0  0  0  0  0  0  0  0  0  0  0  0
  191.7100  176.5770  143.5140 C   0  0  0  0  0  0  0  0  0  0  0  0
  192.3920  176.1030  142.3900 C   0  0  0  0  0  3  0  0  0  0  0  0
  190.8950  175.6980  144.2460 C   0  0  0  0  0  0  0  0  0  0  0  0
  191.8520  177.9410  143.8970 N   0  0  0  0  0  1  0  0  0  0  0  0
  192.2680  174.8030  142.0120 N   0  0  0  0  0  0  0  0  0  0  0  0
  190.7870  174.3640  143.8330 C   0  0  0  0  0  3  0  0  0  0  0  0
  191.4860  173.9320  142.7040 C   0  0  0  0  0  3  0  0  0  0  0  0
  190.6640  175.6080  146.7920 C   0  0  0  0  0  2  0  0  0  0  0  0
  191.8730  176.3530  147.3460 C   0  0  0  0  0  2  0  0  0  0  0  0
  195.8860  174.8420  143.7100 O   0  0  0  0  0  1  0  0  0  0  0  0
  194.5390  174.1080  145.6890 C   0  0  0  0  0  2  0  0  0  0  0  0
  194.2240  176.8720  146.3890 C   0  0  0  0  0  2  0  0  0  0  0  0
  194.9930  176.4740  145.1560 C   0  0  0  0  0  3  0  0  0  0  0  0
  193.1260  175.8820  146.6880 C   0  0  0  0  0  0  0  0  0  0  0  0
  195.1480  175.1870  144.8340 C   0  0  0  0  0  0  0  0  0  0  0  0
  193.2690  174.5900  146.3460 C   0  0  0  0  0  3  0  0  0  0  0  0
  1 23  1  1  0  0  0
  2  6  1  0  0  0  0
  4  5  1  0  0  0  0
  6  7  1  0  0  0  0
  6  3  1  0  0  0  0
  7  8  1  0  0  0  0
  7 12  1  1  0  0  0
  8  4  1  1  0  0  0
  9 13  1  0  0  0  0
 10 14  1  6  0  0  0
 10  9  1  0  0  0  0
 10  7  1  0  0  0  0
 10  8  1  0  0  0  0
 11 14  1  0  0  0  0
 11  2  1  0  0  0  0
 13  1  1  1  0  0  0
 13  5  1  0  0  0  0
 15  6  1  0  0  0  0
 16 19  1  0  0  0  0
 16 18  1  0  0  0  0
 17 16  2  0  0  0  0
 18  1  1  0  0  0  0
 20 17  1  0  0  0  0
 20 22  2  0  0  0  0
 21 18  2  0  0  0  0
 22 21  1  0  0  0  0
 23 24  1  0  0  0  0
 25 30  1  0  0  0  0
 26 31  1  0  0  0  0
 27 29  1  0  0  0  0
 28 27  1  0  0  0  0
 29 24  1  0  0  0  0
 30 28  2  0  0  0  0
 30 26  1  0  0  0  0
 31 29  2  0  0  0  0
M  END
>  <MODEL>
2

>  <REMARK>
 VINA RESULT:      -8.2      4.250      8.073
  Name = 
  5 active torsions:
  status: ('A' for Active; 'I' for Inactive)
    1  A    between atoms: C_4  and  C_29
    2  A    between atoms: C_12  and  C_17
    3  A    between atoms: C_12  and  C_21
    4  A    between atoms: C_21  and  C_29
    5  A    between atoms: C_27  and  C_29
                            x       y       z     vdW  Elec       q    Type
                         _______ _______ _______ _____ _____    ______ ____

>  <TORSDO>
F 5

$$$$
=
 OpenBabel11062420563D

 31 35  0  0  1  0  0  0  0  0999 V2000
  190.1840  174.7000  143.8240 C   0  0  2  0  0  3  0  0  0  0  0  0
  185.4230  178.6320  146.8480 C   0  0  0  0  0  2  0  0  0  0  0  0
  184.0810  178.0180  144.9980 F   0  0  0  0  0  0  0  0  0  0  0  0
  188.0780  177.9230  143.3360 C   0  0  0  0  0  2  0  0  0  0  0  0
  188.6380  176.5460  142.9910 C   0  0  0  0  0  2  0  0  0  0  0  0
  185.0690  177.5340  145.8330 C   0  0  0  0  0  0  0  0  0  0  0  0
  186.2580  177.0680  144.9730 C   0  0  1  0  0  0  0  0  0  0  0  0
  187.3900  178.0680  144.7130 C   0  0  1  0  0  3  0  0  0  0  0  0
  188.3780  175.6510  145.2810 C   0  0  0  0  0  2  0  0  0  0  0  0
  187.5930  176.8960  145.7000 C   0  0  2  0  0  0  0  0  0  0  0  0
  186.7810  178.4750  147.5500 C   0  0  0  0  0  2  0  0  0  0  0  0
  185.9910  176.1520  143.9660 F   0  0  0  0  0  0  0  0  0  0  0  0
  189.3800  175.9580  144.1800 C   0  0  1  0  0  3  0  0  0  0  0  0
  187.5180  177.1800  147.2050 C   0  0  0  0  0  2  0  0  0  0  0  0
  184.5660  176.4430  146.5200 F   0  0  0  0  0  0  0  0  0  0  0  0
  190.7500  174.1150  141.4350 C   0  0  0  0  0  0  0  0  0  0  0  0
  190.4040  173.5360  140.2110 C   0  0  0  0  0  3  0  0  0  0  0  0
  189.8280  174.0880  142.4940 C   0  0  0  0  0  0  0  0  0  0  0  0
  192.0280  174.7230  141.5880 N   0  0  0  0  0  1  0  0  0  0  0  0
  189.1870  172.9510  140.0500 N   0  0  0  0  0  0  0  0  0  0  0  0
  188.5820  173.4770  142.2990 C   0  0  0  0  0  3  0  0  0  0  0  0
  188.2780  172.9110  141.0600 C   0  0  0  0  0  3  0  0  0  0  0  0
  190.4040  173.6850  144.9540 C   0  0  0  0  0  2  0  0  0  0  0  0
  191.8340  173.1630  145.0180 C   0  0  0  0  0  2  0  0  0  0  0  0
  194.7720  177.7350  146.4560 O   0  0  0  0  0  1  0  0  0  0  0  0
  194.9180  175.2880  145.9470 C   0  0  0  0  0  2  0  0  0  0  0  0
  192.1800  175.0440  146.7660 C   0  0  0  0  0  2  0  0  0  0  0  0
  192.8700  176.3830  146.7810 C   0  0  0  0  0  3  0  0  0  0  0  0
  192.7290  174.1620  145.6730 C   0  0  0  0  0  0  0  0  0  0  0  0
  194.1480  176.4970  146.4070 C   0  0  0  0  0  0  0  0  0  0  0  0
  194.0080  174.2880  145.2800 C   0  0  0  0  0  3  0  0  0  0  0  0
  1 23  1  1  0  0  0
  2 11  1  0  0  0  0
  3  6  1  0  0  0  0
  5  4  1  0  0  0  0
  5 13  1  0  0  0  0
  6 15  1  0  0  0  0
  6  2  1  0  0  0  0
  7 12  1  6  0  0  0
  7 10  1  0  0  0  0
  7  6  1  0  0  0  0
  8  4  1  6  0  0  0
  8  7  1  0  0  0  0
  8 10  1  0  0  0  0
 10  9  1  6  0  0  0
 10 14  1  0  0  0  0
 13  1  1  6  0  0  0
 13  9  1  0  0  0  0
 14 11  1  0  0  0  0
 16 19  1  0  0  0  0
 16 18  1  0  0  0  0
 17 16  2  0  0  0  0
 18  1  1  0  0  0  0
 20 17  1  0  0  0  0
 20 22  2  0  0  0  0
 21 18  2  0  0  0  0
 22 21  1  0  0  0  0
 23 24  1  0  0  0  0
 24 29  1  0  0  0  0
 26 30  1  0  0  0  0
 27 28  1  0  0  0  0
 29 27  1  0  0  0  0
 30 25  1  0  0  0  0
 30 28  2  0  0  0  0
 31 29  2  0  0  0  0
 31 26  1  0  0  0  0
M  END
>  <MODEL>
3

>  <REMARK>
 VINA RESULT:      -8.2      4.045      7.607
  Name = 
  5 active torsions:
  status: ('A' for Active; 'I' for Inactive)
    1  A    between atoms: C_4  and  C_29
    2  A    between atoms: C_12  and  C_17
    3  A    between atoms: C_12  and  C_21
    4  A    between atoms: C_21  and  C_29
    5  A    between atoms: C_27  and  C_29
                            x       y       z     vdW  Elec       q    Type
                         _______ _______ _______ _____ _____    ______ ____

>  <TORSDO>
F 5

$$$$
=
 OpenBabel11062420563D

 31 35  0  0  1  0  0  0  0  0999 V2000
  187.7580  176.8920  143.3230 C   0  0  2  0  0  3  0  0  0  0  0  0
  193.9130  174.9830  145.7210 C   0  0  0  0  0  2  0  0  0  0  0  0
  193.5840  176.7300  147.2830 F   0  0  0  0  0  0  0  0  0  0  0  0
  191.4010  178.1380  143.8180 C   0  0  0  0  0  2  0  0  0  0  0  0
  189.8790  178.1630  143.9370 C   0  0  0  0  0  2  0  0  0  0  0  0
  192.8980  175.7660  146.5690 C   0  0  0  0  0  0  0  0  0  0  0  0
  191.7910  176.4510  145.7490 C   0  0  1  0  0  0  0  0  0  0  0  0
  192.1140  176.8560  144.3050 C   0  0  1  0  0  3  0  0  0  0  0  0
  189.6850  175.7530  144.4550 C   0  0  0  0  0  2  0  0  0  0  0  0
  191.2050  175.6390  144.5920 C   0  0  2  0  0  0  0  0  0  0  0  0
  193.3240  174.1980  144.5390 C   0  0  0  0  0  2  0  0  0  0  0  0
  190.8990  177.2600  146.4390 F   0  0  0  0  0  0  0  0  0  0  0  0
  189.2860  176.8430  143.4740 C   0  0  1  0  0  3  0  0  0  0  0  0
  191.7960  174.2310  144.4630 C   0  0  0  0  0  2  0  0  0  0  0  0
  192.3080  174.8940  147.4680 F   0  0  0  0  0  0  0  0  0  0  0  0
  186.1920  178.4480  144.5460 C   0  0  0  0  0  0  0  0  0  0  0  0
  185.5120  178.8210  145.7080 C   0  0  0  0  0  3  0  0  0  0  0  0
  187.0220  177.3150  144.5670 C   0  0  0  0  0  0  0  0  0  0  0  0
  186.0350  179.2230  143.3610 N   0  0  0  0  0  1  0  0  0  0  0  0
  185.6520  178.0910  146.8470 N   0  0  0  0  0  0  0  0  0  0  0  0
  187.1450  176.5820  145.7540 C   0  0  0  0  0  3  0  0  0  0  0  0
  186.4480  176.9890  146.8920 C   0  0  0  0  0  3  0  0  0  0  0  0
  187.1080  175.7300  142.5600 C   0  0  0  0  0  2  0  0  0  0  0  0
  187.8310  175.3870  141.2640 C   0  0  0  0  0  2  0  0  0  0  0  0
  191.0890  171.1250  142.9440 O   0  0  0  0  0  1  0  0  0  0  0  0
  190.5740  172.6810  141.0520 C   0  0  0  0  0  2  0  0  0  0  0  0
  187.9170  172.9360  142.1010 C   0  0  0  0  0  2  0  0  0  0  0  0
  188.9370  172.0740  142.7960 C   0  0  0  0  0  3  0  0  0  0  0  0
  188.5730  174.1000  141.4020 C   0  0  0  0  0  0  0  0  0  0  0  0
  190.1730  171.9480  142.3040 C   0  0  0  0  0  0  0  0  0  0  0  0
  189.8240  173.9840  140.9240 C   0  0  0  0  0  3  0  0  0  0  0  0
  1 23  1  1  0  0  0
  1 18  1  0  0  0  0
  2  6  1  0  0  0  0
  4  5  1  0  0  0  0
  6  3  1  0  0  0  0
  6 15  1  0  0  0  0
  7 12  1  1  0  0  0
  7  6  1  0  0  0  0
  8  4  1  6  0  0  0
  8 10  1  0  0  0  0
  8  7  1  0  0  0  0
 10  9  1  6  0  0  0
 10  7  1  0  0  0  0
 11  2  1  0  0  0  0
 13  1  1  1  0  0  0
 13  5  1  0  0  0  0
 13  9  1  0  0  0  0
 14 11  1  0  0  0  0
 14 10  1  0  0  0  0
 16 18  2  0  0  0  0
 16 17  1  0  0  0  0
 17 20  2  0  0  0  0
 18 21  1  0  0  0  0
 19 16  1  0  0  0  0
 20 22  1  0  0  0  0
 21 22  2  0  0  0  0
 24 29  1  0  0  0  0
 24 23  1  0  0  0  0
 26 30  1  0  0  0  0
 27 28  1  0  0  0  0
 29 27  1  0  0  0  0
 30 28  2  0  0  0  0
 30 25  1  0  0  0  0
 31 26  1  0  0  0  0
 31 29  2  0  0  0  0
M  END
>  <MODEL>
4

>  <REMARK>
 VINA RESULT:      -8.0      3.094      5.406
  Name = 
  5 active torsions:
  status: ('A' for Active; 'I' for Inactive)
    1  A    between atoms: C_4  and  C_29
    2  A    between atoms: C_12  and  C_17
    3  A    between atoms: C_12  and  C_21
    4  A    between atoms: C_21  and  C_29
    5  A    between atoms: C_27  and  C_29
                            x       y       z     vdW  Elec       q    Type
                         _______ _______ _______ _____ _____    ______ ____

>  <TORSDO>
F 5

$$$$
=
 OpenBabel11062420563D

 31 35  0  0  1  0  0  0  0  0999 V2000
  188.1770  176.8390  144.0750 C   0  0  2  0  0  3  0  0  0  0  0  0
  194.5750  175.4530  146.1780 C   0  0  0  0  0  2  0  0  0  0  0  0
  193.9080  173.1940  145.9490 F   0  0  0  0  0  0  0  0  0  0  0  0
  190.1910  175.1780  146.9480 C   0  0  0  0  0  2  0  0  0  0  0  0
  189.1510  175.2750  145.8340 C   0  0  0  0  0  2  0  0  0  0  0  0
  193.7230  174.4440  145.3910 C   0  0  0  0  0  0  0  0  0  0  0  0
  192.2180  174.7650  145.3840 C   0  0  1  0  0  0  0  0  0  0  0  0
  191.6450  175.5450  146.5730 C   0  0  1  0  0  3  0  0  0  0  0  0
  190.6500  176.4680  144.2710 C   0  0  0  0  0  2  0  0  0  0  0  0
  191.8400  176.2370  145.2040 C   0  0  2  0  0  0  0  0  0  0  0  0
  194.1700  176.9270  146.0240 C   0  0  0  0  0  2  0  0  0  0  0  0
  191.3760  173.8430  144.7790 F   0  0  0  0  0  0  0  0  0  0  0  0
  189.3400  176.5550  145.0370 C   0  0  1  0  0  3  0  0  0  0  0  0
  193.0460  177.1660  145.0140 C   0  0  0  0  0  2  0  0  0  0  0  0
  194.1750  174.4110  144.0830 F   0  0  0  0  0  0  0  0  0  0  0  0
  186.4130  178.6190  143.7820 C   0  0  0  0  0  0  0  0  0  0  0  0
  185.4250  179.4500  144.3170 C   0  0  0  0  0  3  0  0  0  0  0  0
  187.1140  177.7490  144.6320 C   0  0  0  0  0  0  0  0  0  0  0  0
  186.6910  178.6670  142.3860 N   0  0  0  0  0  1  0  0  0  0  0  0
  185.1470  179.4160  145.6480 N   0  0  0  0  0  0  0  0  0  0  0  0
  186.8050  177.7340  145.9990 C   0  0  0  0  0  3  0  0  0  0  0  0
  185.8120  178.5810  146.4910 C   0  0  0  0  0  3  0  0  0  0  0  0
  187.6390  175.6420  143.2790 C   0  0  0  0  0  2  0  0  0  0  0  0
  188.3250  175.4650  141.9300 C   0  0  0  0  0  2  0  0  0  0  0  0
  191.4460  170.9070  142.9760 O   0  0  0  0  0  1  0  0  0  0  0  0
  191.0300  172.7730  141.3590 C   0  0  0  0  0  2  0  0  0  0  0  0
  188.3390  172.9060  142.3410 C   0  0  0  0  0  2  0  0  0  0  0  0
  189.3180  171.9160  142.9160 C   0  0  0  0  0  3  0  0  0  0  0  0
  189.0400  174.1560  141.8740 C   0  0  0  0  0  0  0  0  0  0  0  0
  190.5690  171.8470  142.4530 C   0  0  0  0  0  0  0  0  0  0  0  0
  190.3070  174.0940  141.4280 C   0  0  0  0  0  3  0  0  0  0  0  0
  1 23  1  1  0  0  0
  1 18  1  0  0  0  0
  5  4  1  0  0  0  0
  6  3  1  0  0  0  0
  6  2  1  0  0  0  0
  7 12  1  6  0  0  0
  7  6  1  0  0  0  0
  7  8  1  0  0  0  0
  8  4  1  6  0  0  0
  9 13  1  0  0  0  0
 10  9  1  6  0  0  0
 10  7  1  0  0  0  0
 10  8  1  0  0  0  0
 11  2  1  0  0  0  0
 13  1  1  6  0  0  0
 13  5  1  0  0  0  0
 14 10  1  0  0  0  0
 14 11  1  0  0  0  0
 15  6  1  0  0  0  0
 16 17  2  0  0  0  0
 16 18  1  0  0  0  0
 17 20  1  0  0  0  0
 18 21  2  0  0  0  0
 19 16  1  0  0  0  0
 20 22  2  0  0  0  0
 21 22  1  0  0  0  0
 24 23  1  0  0  0  0
 26 31  1  0  0  0  0
 26 30  1  0  0  0  0
 27 28  1  0  0  0  0
 29 24  1  0  0  0  0
 29 27  1  0  0  0  0
 30 28  2  0  0  0  0
 30 25  1  0  0  0  0
 31 29  2  0  0  0  0
M  END
>  <MODEL>
5

>  <REMARK>
 VINA RESULT:      -7.8      2.919      5.086
  Name = 
  5 active torsions:
  status: ('A' for Active; 'I' for Inactive)
    1  A    between atoms: C_4  and  C_29
    2  A    between atoms: C_12  and  C_17
    3  A    between atoms: C_12  and  C_21
    4  A    between atoms: C_21  and  C_29
    5  A    between atoms: C_27  and  C_29
                            x       y       z     vdW  Elec       q    Type
                         _______ _______ _______ _____ _____    ______ ____

>  <TORSDO>
F 5

$$$$
=
 OpenBabel11062420563D

 31 35  0  0  1  0  0  0  0  0999 V2000
  190.8930  175.6770  145.1670 C   0  0  2  0  0  3  0  0  0  0  0  0
  184.9010  178.8500  146.3100 C   0  0  0  0  0  2  0  0  0  0  0  0
  184.1400  177.5640  144.4750 F   0  0  0  0  0  0  0  0  0  0  0  0
  188.3370  178.1180  143.5630 C   0  0  0  0  0  2  0  0  0  0  0  0
  189.2240  176.8800  143.6640 C   0  0  0  0  0  2  0  0  0  0  0  0
  185.0030  177.5160  145.5540 C   0  0  0  0  0  0  0  0  0  0  0  0
  186.4180  177.1920  145.0410 C   0  0  1  0  0  0  0  0  0  0  0  0
  187.3550  178.3660  144.7300 C   0  0  1  0  0  3  0  0  0  0  0  0
  188.6620  176.4320  146.0300 C   0  0  0  0  0  2  0  0  0  0  0  0
  187.5710  177.5040  145.9960 C   0  0  2  0  0  0  0  0  0  0  0  0
  186.0800  179.1770  147.2400 C   0  0  0  0  0  2  0  0  0  0  0  0
  186.5640  176.0540  144.2610 F   0  0  0  0  0  0  0  0  0  0  0  0
  189.7950  176.7460  145.0660 C   0  0  1  0  0  3  0  0  0  0  0  0
  187.1190  178.0600  147.3510 C   0  0  0  0  0  2  0  0  0  0  0  0
  184.5930  176.4980  146.3970 F   0  0  0  0  0  0  0  0  0  0  0  0
  191.3370  174.3290  143.0810 C   0  0  0  0  0  0  0  0  0  0  0  0
  191.1160  173.1920  142.3000 C   0  0  0  0  0  3  0  0  0  0  0  0
  190.6640  174.4630  144.3060 C   0  0  0  0  0  0  0  0  0  0  0  0
  192.2390  175.3310  142.6230 N   0  0  0  0  0  1  0  0  0  0  0  0
  190.2580  172.2250  142.7230 N   0  0  0  0  0  0  0  0  0  0  0  0
  189.7870  173.4510  144.7170 C   0  0  0  0  0  3  0  0  0  0  0  0
  189.5950  172.3320  143.9050 C   0  0  0  0  0  3  0  0  0  0  0  0
  191.4230  175.3700  146.5750 C   0  0  0  0  0  2  0  0  0  0  0  0
  192.7330  176.0810  146.8890 C   0  0  0  0  0  2  0  0  0  0  0  0
  197.5680  174.5820  144.4430 O   0  0  0  0  0  1  0  0  0  0  0  0
  195.6070  176.1330  144.3140 C   0  0  0  0  0  2  0  0  0  0  0  0
  194.0780  174.1800  145.7540 C   0  0  0  0  0  2  0  0  0  0  0  0
  195.5290  173.9350  145.4320 C   0  0  0  0  0  3  0  0  0  0  0  0
  193.8040  175.6500  145.9430 C   0  0  0  0  0  0  0  0  0  0  0  0
  196.2400  174.8400  144.7540 C   0  0  0  0  0  0  0  0  0  0  0  0
  194.5310  176.5650  145.2790 C   0  0  0  0  0  3  0  0  0  0  0  0
  1 23  1  1  0  0  0
  2 11  1  0  0  0  0
  3  6  1  0  0  0  0
  4  5  1  0  0  0  0
  5 13  1  0  0  0  0
  6  2  1  0  0  0  0
  6 15  1  0  0  0  0
  7 12  1  6  0  0  0
  7  6  1  0  0  0  0
  7 10  1  0  0  0  0
  8  4  1  6  0  0  0
  8  7  1  0  0  0  0
  8 10  1  0  0  0  0
 10  9  1  6  0  0  0
 10 14  1  0  0  0  0
 11 14  1  0  0  0  0
 13  1  1  6  0  0  0
 13  9  1  0  0  0  0
 16 18  1  0  0  0  0
 17 20  1  0  0  0  0
 17 16  2  0  0  0  0
 18 21  2  0  0  0  0
 18  1  1  0  0  0  0
 19 16  1  0  0  0  0
 20 22  2  0  0  0  0
 22 21  1  0  0  0  0
 23 24  1  0  0  0  0
 25 30  1  0  0  0  0
 26 30  1  0  0  0  0
 26 31  1  0  0  0  0
 27 29  1  0  0  0  0
 28 27  1  0  0  0  0
 29 24  1  0  0  0  0
 30 28  2  0  0  0  0
 31 29  2  0  0  0  0
M  END
>  <MODEL>
6

>  <REMARK>
 VINA RESULT:      -7.6      4.148      8.080
  Name = 
  5 active torsions:
  status: ('A' for Active; 'I' for Inactive)
    1  A    between atoms: C_4  and  C_29
    2  A    between atoms: C_12  and  C_17
    3  A    between atoms: C_12  and  C_21
    4  A    between atoms: C_21  and  C_29
    5  A    between atoms: C_27  and  C_29
                            x       y       z     vdW  Elec       q    Type
                         _______ _______ _______ _____ _____    ______ ____

>  <TORSDO>
F 5

$$$$
=
 OpenBabel11062420563D

 31 35  0  0  1  0  0  0  0  0999 V2000
  189.8380  176.1010  142.7700 C   0  0  2  0  0  3  0  0  0  0  0  0
  185.2980  178.5200  147.3320 C   0  0  0  0  0  2  0  0  0  0  0  0
  183.6870  177.8120  145.7500 F   0  0  0  0  0  0  0  0  0  0  0  0
  187.0890  178.7960  143.2570 C   0  0  0  0  0  2  0  0  0  0  0  0
  187.8050  177.6250  142.5900 C   0  0  0  0  0  2  0  0  0  0  0  0
  184.9270  177.4800  146.2630 C   0  0  0  0  0  0  0  0  0  0  0  0
  185.9340  177.3870  145.1020 C   0  0  1  0  0  0  0  0  0  0  0  0
  186.7480  178.6390  144.7570 C   0  0  1  0  0  3  0  0  0  0  0  0
  188.2990  176.4630  144.7160 C   0  0  0  0  0  2  0  0  0  0  0  0
  187.4140  177.4480  145.4840 C   0  0  2  0  0  0  0  0  0  0  0  0
  186.7910  178.6030  147.6860 C   0  0  0  0  0  2  0  0  0  0  0  0
  185.6110  176.5430  144.0490 F   0  0  0  0  0  0  0  0  0  0  0  0
  188.9170  177.1010  143.4830 C   0  0  1  0  0  3  0  0  0  0  0  0
  187.6590  177.5510  146.9940 C   0  0  0  0  0  2  0  0  0  0  0  0
  184.8320  176.2390  146.8670 F   0  0  0  0  0  0  0  0  0  0  0  0
  188.7670  173.9110  142.1190 C   0  0  0  0  0  0  0  0  0  0  0  0
  188.4870  172.5680  142.3870 C   0  0  0  0  0  3  0  0  0  0  0  0
  189.5190  174.6550  143.0430 C   0  0  0  0  0  0  0  0  0  0  0  0
  188.2850  174.5020  140.9170 N   0  0  0  0  0  1  0  0  0  0  0  0
  188.9410  171.9890  143.5310 N   0  0  0  0  0  0  0  0  0  0  0  0
  189.9740  174.0310  144.2120 C   0  0  0  0  0  3  0  0  0  0  0  0
  189.6720  172.6880  144.4400 C   0  0  0  0  0  3  0  0  0  0  0  0
  191.3370  176.4340  142.7640 C   0  0  0  0  0  2  0  0  0  0  0  0
  191.8160  177.0550  144.0690 C   0  0  0  0  0  2  0  0  0  0  0  0
  196.3980  174.5350  146.1360 O   0  0  0  0  0  1  0  0  0  0  0  0
  194.3170  174.2040  144.7820 C   0  0  0  0  0  2  0  0  0  0  0  0
  193.1520  176.4120  146.1940 C   0  0  0  0  0  2  0  0  0  0  0  0
  194.5640  175.9740  146.4840 C   0  0  0  0  0  3  0  0  0  0  0  0
  192.7860  176.1510  144.7550 C   0  0  0  0  0  0  0  0  0  0  0  0
  195.1050  174.9400  145.8330 C   0  0  0  0  0  0  0  0  0  0  0  0
  193.3450  175.1250  144.0900 C   0  0  0  0  0  3  0  0  0  0  0  0
  1 23  1  1  0  0  0
  1 18  1  0  0  0  0
  2 11  1  0  0  0  0
  3  6  1  0  0  0  0
  5  4  1  0  0  0  0
  5 13  1  0  0  0  0
  6 15  1  0  0  0  0
  6  2  1  0  0  0  0
  7 12  1  6  0  0  0
  7 10  1  0  0  0  0
  7  6  1  0  0  0  0
  8  4  1  6  0  0  0
  8  7  1  0  0  0  0
  8 10  1  0  0  0  0
 10  9  1  6  0  0  0
 10 14  1  0  0  0  0
 13  1  1  6  0  0  0
 13  9  1  0  0  0  0
 14 11  1  0  0  0  0
 16 17  2  0  0  0  0
 16 18  1  0  0  0  0
 17 20  1  0  0  0  0
 18 21  2  0  0  0  0
 19 16  1  0  0  0  0
 20 22  2  0  0  0  0
 21 22  1  0  0  0  0
 23 24  1  0  0  0  0
 24 29  1  0  0  0  0
 26 30  1  0  0  0  0
 27 28  1  0  0  0  0
 29 27  1  0  0  0  0
 30 25  1  0  0  0  0
 30 28  2  0  0  0  0
 31 29  2  0  0  0  0
 31 26  1  0  0  0  0
M  END
>  <MODEL>
7

>  <REMARK>
 VINA RESULT:      -7.6      4.257      7.982
  Name = 
  5 active torsions:
  status: ('A' for Active; 'I' for Inactive)
    1  A    between atoms: C_4  and  C_29
    2  A    between atoms: C_12  and  C_17
    3  A    between atoms: C_12  and  C_21
    4  A    between atoms: C_21  and  C_29
    5  A    between atoms: C_27  and  C_29
                            x       y       z     vdW  Elec       q    Type
                         _______ _______ _______ _____ _____    ______ ____

>  <TORSDO>
F 5

$$$$
=
 OpenBabel11062420563D

 31 35  0  0  1  0  0  0  0  0999 V2000
  189.4640  175.7010  144.5540 C   0  0  2  0  0  3  0  0  0  0  0  0
  196.3170  175.1740  144.7430 C   0  0  0  0  0  2  0  0  0  0  0  0
  196.2260  176.3260  142.6780 F   0  0  0  0  0  0  0  0  0  0  0  0
  192.4920  174.1330  142.7010 C   0  0  0  0  0  2  0  0  0  0  0  0
  191.2190  174.9600  142.8630 C   0  0  0  0  0  2  0  0  0  0  0  0
  195.5880  176.2330  143.9010 C   0  0  0  0  0  0  0  0  0  0  0  0
  194.0990  175.9280  143.6600 C   0  0  1  0  0  0  0  0  0  0  0  0
  193.6590  174.4590  143.6600 C   0  0  1  0  0  3  0  0  0  0  0  0
  191.9150  175.9680  145.0110 C   0  0  0  0  0  2  0  0  0  0  0  0
  193.3190  175.3790  144.8560 C   0  0  2  0  0  0  0  0  0  0  0  0
  195.5160  174.5990  145.9220 C   0  0  0  0  0  2  0  0  0  0  0  0
  193.4030  176.7880  142.8220 F   0  0  0  0  0  0  0  0  0  0  0  0
  190.8620  175.1070  144.3330 C   0  0  1  0  0  3  0  0  0  0  0  0
  194.1530  175.2600  146.1370 C   0  0  0  0  0  2  0  0  0  0  0  0
  195.6920  177.4550  144.5420 F   0  0  0  0  0  0  0  0  0  0  0  0
  188.0400  175.6170  142.4730 C   0  0  0  0  0  0  0  0  0  0  0  0
  187.4870  176.2430  141.3530 C   0  0  0  0  0  3  0  0  0  0  0  0
  188.8640  176.3550  143.3380 C   0  0  0  0  0  0  0  0  0  0  0  0
  187.7600  174.2420  142.7180 N   0  0  0  0  0  1  0  0  0  0  0  0
  187.7440  177.5550  141.1060 N   0  0  0  0  0  0  0  0  0  0  0  0
  189.1100  177.7060  143.0580 C   0  0  0  0  0  3  0  0  0  0  0  0
  188.5370  178.2920  141.9280 C   0  0  0  0  0  3  0  0  0  0  0  0
  189.2450  176.4690  145.8650 C   0  0  0  0  0  2  0  0  0  0  0  0
  187.9860  176.0410  146.6070 C   0  0  0  0  0  2  0  0  0  0  0  0
  184.5320  179.8070  144.2630 O   0  0  0  0  0  1  0  0  0  0  0  0
  185.5620  179.0370  146.4110 C   0  0  0  0  0  2  0  0  0  0  0  0
  185.8090  176.4240  145.2540 C   0  0  0  0  0  2  0  0  0  0  0  0
  185.2240  177.5630  144.4610 C   0  0  0  0  0  3  0  0  0  0  0  0
  186.8360  176.9190  146.2410 C   0  0  0  0  0  0  0  0  0  0  0  0
  185.1010  178.7790  145.0010 C   0  0  0  0  0  0  0  0  0  0  0  0
  186.7270  178.1500  146.7710 C   0  0  0  0  0  3  0  0  0  0  0  0
  1 23  1  1  0  0  0
  2 11  1  0  0  0  0
  3  6  1  0  0  0  0
  4  5  1  0  0  0  0
  5 13  1  0  0  0  0
  6 15  1  0  0  0  0
  6  2  1  0  0  0  0
  7 12  1  6  0  0  0
  7  6  1  0  0  0  0
  7 10  1  0  0  0  0
  8  4  1  6  0  0  0
  8  7  1  0  0  0  0
  8 10  1  0  0  0  0
 10  9  1  1  0  0  0
 10 14  1  0  0  0  0
 11 14  1  0  0  0  0
 13  1  1  6  0  0  0
 13  9  1  0  0  0  0
 16 19  1  0  0  0  0
 16 18  1  0  0  0  0
 17 16  2  0  0  0  0
 18  1  1  0  0  0  0
 20 17  1  0  0  0  0
 20 22  2  0  0  0  0
 21 18  2  0  0  0  0
 22 21  1  0  0  0  0
 23 24  1  0  0  0  0
 25 30  1  0  0  0  0
 26 31  1  0  0  0  0
 27 29  1  0  0  0  0
 28 30  2  0  0  0  0
 28 27  1  0  0  0  0
 29 24  1  0  0  0  0
 29 31  2  0  0  0  0
 30 26  1  0  0  0  0
M  END
>  <MODEL>
8

>  <REMARK>
 VINA RESULT:      -7.5      1.574      2.249
  Name = 
  5 active torsions:
  status: ('A' for Active; 'I' for Inactive)
    1  A    between atoms: C_4  and  C_29
    2  A    between atoms: C_12  and  C_17
    3  A    between atoms: C_12  and  C_21
    4  A    between atoms: C_21  and  C_29
    5  A    between atoms: C_27  and  C_29
                            x       y       z     vdW  Elec       q    Type
                         _______ _______ _______ _____ _____    ______ ____

>  <TORSDO>
F 5

$$$$
=
 OpenBabel11062420563D

 31 35  0  0  1  0  0  0  0  0999 V2000
  190.3340  176.1320  145.1310 C   0  0  2  0  0  3  0  0  0  0  0  0
  197.0650  175.2800  144.0110 C   0  0  0  0  0  2  0  0  0  0  0  0
  196.9650  173.8880  145.9220 F   0  0  0  0  0  0  0  0  0  0  0  0
  193.8290  176.7720  146.6930 C   0  0  0  0  0  2  0  0  0  0  0  0
  192.3950  176.2520  146.6230 C   0  0  0  0  0  2  0  0  0  0  0  0
  196.2250  174.2810  144.8230 C   0  0  0  0  0  0  0  0  0  0  0  0
  194.8780  174.8450  145.3110 C   0  0  1  0  0  0  0  0  0  0  0  0
  194.7750  176.3570  145.5430 C   0  0  1  0  0  3  0  0  0  0  0  0
  192.5960  175.4410  144.2960 C   0  0  0  0  0  2  0  0  0  0  0  0
  194.1030  175.7050  144.3120 C   0  0  2  0  0  0  0  0  0  0  0  0
  196.2770  176.1680  143.0350 C   0  0  0  0  0  2  0  0  0  0  0  0
  194.1140  174.0330  146.1370 F   0  0  0  0  0  0  0  0  0  0  0  0
  191.8450  176.3920  145.2130 C   0  0  1  0  0  3  0  0  0  0  0  0
  194.7870  175.8340  142.9460 C   0  0  0  0  0  2  0  0  0  0  0  0
  195.9820  173.1680  144.0390 F   0  0  0  0  0  0  0  0  0  0  0  0
  189.6760  173.8910  144.1750 C   0  0  0  0  0  0  0  0  0  0  0  0
  189.2790  173.1010  143.0940 C   0  0  0  0  0  3  0  0  0  0  0  0
  189.9130  175.2610  143.9760 C   0  0  0  0  0  0  0  0  0  0  0  0
  189.8340  173.2960  145.4590 N   0  0  0  0  0  1  0  0  0  0  0  0
  189.1240  173.6550  141.8610 N   0  0  0  0  0  0  0  0  0  0  0  0
  189.7430  175.8040  142.6960 C   0  0  0  0  0  3  0  0  0  0  0  0
  189.3460  174.9780  141.6440 C   0  0  0  0  0  3  0  0  0  0  0  0
  189.4170  177.3350  145.3900 C   0  0  0  0  0  2  0  0  0  0  0  0
  188.0320  176.9350  145.8820 C   0  0  0  0  0  2  0  0  0  0  0  0
  185.2010  178.5730  141.3080 O   0  0  0  0  0  1  0  0  0  0  0  0
  185.5630  178.9970  143.7490 C   0  0  0  0  0  2  0  0  0  0  0  0
  186.3650  176.2570  144.0170 C   0  0  0  0  0  2  0  0  0  0  0  0
  185.9700  176.8140  142.6740 C   0  0  0  0  0  3  0  0  0  0  0  0
  186.9890  177.3200  144.8850 C   0  0  0  0  0  0  0  0  0  0  0  0
  185.5890  178.0880  142.5490 C   0  0  0  0  0  0  0  0  0  0  0  0
  186.6230  178.6060  144.7480 C   0  0  0  0  0  3  0  0  0  0  0  0
  1 23  1  6  0  0  0
  2  6  1  0  0  0  0
  5  4  1  0  0  0  0
  6  7  1  0  0  0  0
  6  3  1  0  0  0  0
  7  8  1  0  0  0  0
  7 12  1  1  0  0  0
  8  4  1  1  0  0  0
  9 10  1  0  0  0  0
  9 13  1  0  0  0  0
 10 14  1  6  0  0  0
 10  7  1  0  0  0  0
 10  8  1  0  0  0  0
 11  2  1  0  0  0  0
 13  1  1  1  0  0  0
 13  5  1  0  0  0  0
 14 11  1  0  0  0  0
 15  6  1  0  0  0  0
 16 19  1  0  0  0  0
 17 16  2  0  0  0  0
 18 16  1  0  0  0  0
 18  1  1  0  0  0  0
 20 17  1  0  0  0  0
 21 18  2  0  0  0  0
 22 20  2  0  0  0  0
 22 21  1  0  0  0  0
 23 24  1  0  0  0  0
 25 30  1  0  0  0  0
 26 31  1  0  0  0  0
 27 29  1  0  0  0  0
 28 27  1  0  0  0  0
 29 24  1  0  0  0  0
 30 28  2  0  0  0  0
 30 26  1  0  0  0  0
 31 29  2  0  0  0  0
M  END
>  <MODEL>
9

>  <REMARK>
 VINA RESULT:      -7.5      1.355      1.640
  Name = 
  5 active torsions:
  status: ('A' for Active; 'I' for Inactive)
    1  A    between atoms: C_4  and  C_29
    2  A    between atoms: C_12  and  C_17
    3  A    between atoms: C_12  and  C_21
    4  A    between atoms: C_21  and  C_29
    5  A    between atoms: C_27  and  C_29
                            x       y       z     vdW  Elec       q    Type
                         _______ _______ _______ _____ _____    ______ ____

>  <TORSDO>
F 5

$$$$
