=
 OpenBabel11062422223D

 41 44  0  0  1  0  0  0  0  0999 V2000
  194.7800  177.2150  145.4670 O   0  0  0  0  0  0  0  0  0  0  0  0
  194.6200  175.2330  144.1940 C   0  0  0  0  0  0  0  0  0  0  0  0
  193.4170  174.7020  144.9620 C   0  0  1  0  0  3  0  0  0  0  0  0
  193.8770  176.7170  146.4220 C   0  0  0  0  0  2  0  0  0  0  0  0
  195.5210  176.1150  145.0020 C   0  0  0  0  0  2  0  0  0  0  0  0
  194.5810  175.4480  142.8750 C   0  0  0  0  0  2  0  0  0  0  0  0
  192.7780  175.8760  145.7480 C   0  0  2  0  0  3  0  0  0  0  0  0
  190.9280  172.5370  141.7360 C   0  0  0  0  0  0  0  0  0  0  0  0
  190.6140  174.8630  142.6280 C   0  0  0  0  0  2  0  0  0  0  0  0
  191.7080  172.6000  140.7960 O   0  0  0  0  0  0  0  0  0  0  0  0
  190.9230  170.1860  142.0090 O   0  0  0  0  0  1  0  0  0  0  0  0
  191.0420  174.5770  144.0580 C   0  0  0  0  0  2  0  0  0  0  0  0
  189.9460  173.6410  142.0000 C   0  0  1  0  0  3  0  0  0  0  0  0
  192.4100  173.9070  144.0910 C   0  0  2  0  0  3  0  0  0  0  0  0
  190.9950  171.3960  142.7010 C   0  0  1  0  0  3  0  0  0  0  0  0
  192.2840  171.4510  143.5130 C   0  0  0  0  0  2  0  0  0  0  0  0
  192.2180  172.4910  144.6290 C   0  0  0  0  0  2  0  0  0  0  0  0
  189.0490  173.9720  140.7910 C   0  0  2  0  0  3  0  0  0  0  0  0
  187.1500  174.8840  142.1820 O   0  0  0  0  0  1  0  0  0  0  0  0
  187.7680  175.9130  140.2330 O   0  0  0  0  0  0  0  0  0  0  0  0
  187.9650  174.9800  141.0590 C   0  0  0  0  0  0  0  0  0  0  0  0
  188.4440  172.7030  140.1800 C   0  0  0  0  0  2  0  0  0  0  0  0
  188.8110  172.5000  138.7060 C   0  0  0  0  0  3  0  0  0  0  0  0
  189.5640  171.2020  138.4760 C   0  0  0  0  0  1  0  0  0  0  0  0
  189.5960  173.6790  138.1530 C   0  0  0  0  0  1  0  0  0  0  0  0
  191.8810  175.3800  146.7840 N   0  0  0  0  0  2  0  0  0  0  0  0
  190.9550  177.1580  148.1200 C   0  0  0  0  0  2  0  0  0  0  0  0
  190.7730  176.1300  147.2980 C   0  0  0  0  0  0  0  0  0  0  0  0
  189.3850  175.7320  146.9200 C   0  0  0  0  0  2  0  0  0  0  0  0
  188.5520  177.9980  143.0000 C   0  0  0  0  0  3  0  0  0  0  0  0
  186.2670  178.2050  144.0870 C   0  0  0  0  0  3  0  0  0  0  0  0
  186.7560  177.5670  145.1550 C   0  0  0  0  0  0  0  0  0  0  0  0
  186.1880  177.6360  146.5260 C   0  0  2  0  0  0  0  0  0  0  0  0
  184.9020  176.8390  146.6350 C   0  0  0  0  0  1  0  0  0  0  0  0
  185.9690  178.9640  146.9030 O   0  0  0  0  0  1  0  0  0  0  0  0
  188.5500  176.9520  146.5520 C   0  0  1  0  0  3  0  0  0  0  0  0
  189.0150  177.3710  144.0860 C   0  0  0  0  0  3  0  0  0  0  0  0
  186.6370  178.7410  141.8030 O   0  0  0  0  0  0  0  0  0  0  0  0
  188.0560  176.8410  145.1270 C   0  0  2  0  0  3  0  0  0  0  0  0
  187.1120  178.3050  142.8850 C   0  0  0  0  0  0  0  0  0  0  0  0
  187.2740  177.0240  147.4070 C   0  0  0  0  0  2  0  0  0  0  0  0
  1  4  1  0  0  0  0
  2  5  1  0  0  0  0
  3  2  1  6  0  0  0
  3  7  1  0  0  0  0
  5  1  1  0  0  0  0
  6  2  2  0  0  0  0
  7  4  1  0  0  0  0
  7 26  1  1  0  0  0
  8 13  1  0  0  0  0
  8 15  1  0  0  0  0
  9 12  1  0  0  0  0
 10  8  2  0  0  0  0
 13 18  1  6  0  0  0
 13  9  1  0  0  0  0
 14 12  1  1  0  0  0
 14 17  1  0  0  0  0
 14  3  1  0  0  0  0
 15 11  1  6  0  0  0
 15 16  1  0  0  0  0
 16 17  1  0  0  0  0
 18 22  1  1  0  0  0
 18 21  1  0  0  0  0
 20 21  2  0  0  0  0
 21 19  1  0  0  0  0
 23 22  1  0  0  0  0
 24 23  1  0  0  0  0
 25 23  1  0  0  0  0
 26 28  1  0  0  0  0
 28 27  2  0  0  0  0
 29 28  1  0  0  0  0
 30 37  2  0  0  0  0
 31 32  2  0  0  0  0
 32 33  1  0  0  0  0
 33 34  1  1  0  0  0
 33 35  1  0  0  0  0
 33 41  1  0  0  0  0
 36 29  1  1  0  0  0
 36 41  1  0  0  0  0
 38 40  2  0  0  0  0
 39 37  1  6  0  0  0
 39 32  1  0  0  0  0
 39 36  1  0  0  0  0
 40 30  1  0  0  0  0
 40 31  1  0  0  0  0
M  END
>  <MODEL>
1

>  <REMARK>
 VINA RESULT:      -7.7      0.000      0.000
  Name = 
  9 active torsions:
  status: ('A' for Active; 'I' for Inactive)
    1  A    between atoms: N_1  and  C_40
    2  A    between atoms: N_1  and  C_41
    3  A    between atoms: C_3  and  C_12
    4  A    between atoms: C_3  and  C_27
    5  A    between atoms: C_13  and  C_29
    6  A    between atoms: C_22  and  C_30
    7  A    between atoms: C_27  and  C_28
    8  A    between atoms: C_27  and  C_37
    9  A    between atoms: C_29  and  C_41
                            x       y       z     vdW  Elec       q    Type
                         _______ _______ _______ _____ _____    ______ ____

>  <TORSDO>
F 9

$$$$
=
 OpenBabel11062422223D

 41 44  0  0  1  0  0  0  0  0999 V2000
  194.3680  176.9220  145.0050 O   0  0  0  0  0  0  0  0  0  0  0  0
  194.4030  174.9290  143.7390 C   0  0  0  0  0  0  0  0  0  0  0  0
  193.2040  174.3200  144.4540 C   0  0  1  0  0  3  0  0  0  0  0  0
  193.4570  176.3670  145.9200 C   0  0  0  0  0  2  0  0  0  0  0  0
  195.2030  175.8730  144.5820 C   0  0  0  0  0  2  0  0  0  0  0  0
  194.4110  175.1360  142.4190 C   0  0  0  0  0  2  0  0  0  0  0  0
  192.4510  175.4500  145.2010 C   0  0  2  0  0  3  0  0  0  0  0  0
  191.1530  171.7450  141.2200 C   0  0  0  0  0  0  0  0  0  0  0  0
  191.0140  174.2330  141.5340 C   0  0  0  0  0  2  0  0  0  0  0  0
  192.1150  171.5130  140.5000 O   0  0  0  0  0  0  0  0  0  0  0  0
  190.7350  169.5310  141.9430 O   0  0  0  0  0  1  0  0  0  0  0  0
  191.0830  174.2370  143.0520 C   0  0  0  0  0  2  0  0  0  0  0  0
  190.3170  172.9750  141.0180 C   0  0  1  0  0  3  0  0  0  0  0  0
  192.2950  173.4560  143.5420 C   0  0  2  0  0  3  0  0  0  0  0  0
  190.8420  170.8520  142.3790 C   0  0  1  0  0  3  0  0  0  0  0  0
  191.9240  170.9590  143.4490 C   0  0  0  0  0  2  0  0  0  0  0  0
  191.7820  172.2260  144.2880 C   0  0  0  0  0  2  0  0  0  0  0  0
  189.7560  173.1130  139.5890 C   0  0  2  0  0  3  0  0  0  0  0  0
  188.2220  174.5250  138.1650 O   0  0  0  0  0  0  0  0  0  0  0  0
  188.2140  174.7270  140.4450 O   0  0  0  0  0  1  0  0  0  0  0  0
  188.6820  174.1540  139.4240 C   0  0  0  0  0  0  0  0  0  0  0  0
  189.2650  171.7650  139.0490 C   0  0  0  0  0  2  0  0  0  0  0  0
  189.7420  171.4680  137.6230 C   0  0  0  0  0  3  0  0  0  0  0  0
  189.9260  169.9810  137.3790 C   0  0  0  0  0  1  0  0  0  0  0  0
  191.0150  172.2270  137.2850 C   0  0  0  0  0  1  0  0  0  0  0  0
  191.5420  174.8990  146.1980 N   0  0  0  0  0  2  0  0  0  0  0  0
  189.2990  174.5680  147.0110 C   0  0  0  0  0  2  0  0  0  0  0  0
  190.1740  175.3030  146.3340 C   0  0  0  0  0  0  0  0  0  0  0  0
  189.7190  176.5660  145.6820 C   0  0  0  0  0  2  0  0  0  0  0  0
  185.4490  177.6320  147.0320 C   0  0  0  0  0  3  0  0  0  0  0  0
  185.2200  178.0930  144.5460 C   0  0  0  0  0  3  0  0  0  0  0  0
  186.4820  177.6790  144.3890 C   0  0  0  0  0  0  0  0  0  0  0  0
  187.0660  177.1850  143.1160 C   0  0  2  0  0  0  0  0  0  0  0  0
  187.3130  178.3200  142.1400 C   0  0  0  0  0  1  0  0  0  0  0  0
  186.2410  176.2180  142.5360 O   0  0  0  0  0  1  0  0  0  0  0  0
  188.3350  176.3950  145.0690 C   0  0  1  0  0  3  0  0  0  0  0  0
  186.7060  177.2150  146.8420 C   0  0  0  0  0  3  0  0  0  0  0  0
  183.5820  178.7870  146.1200 O   0  0  0  0  0  0  0  0  0  0  0  0
  187.4130  177.4980  145.5370 C   0  0  2  0  0  3  0  0  0  0  0  0
  184.6990  178.2400  145.9150 C   0  0  0  0  0  0  0  0  0  0  0  0
  188.3860  176.5460  143.5400 C   0  0  0  0  0  2  0  0  0  0  0  0
  1  4  1  0  0  0  0
  2  5  1  0  0  0  0
  3  2  1  6  0  0  0
  3  7  1  0  0  0  0
  5  1  1  0  0  0  0
  6  2  2  0  0  0  0
  7  4  1  0  0  0  0
  7 26  1  1  0  0  0
  8 15  1  0  0  0  0
  9 12  1  0  0  0  0
 10  8  2  0  0  0  0
 13 18  1  6  0  0  0
 13  8  1  0  0  0  0
 13  9  1  0  0  0  0
 14 12  1  1  0  0  0
 14 17  1  0  0  0  0
 14  3  1  0  0  0  0
 15 11  1  6  0  0  0
 15 16  1  0  0  0  0
 16 17  1  0  0  0  0
 18 22  1  1  0  0  0
 19 21  2  0  0  0  0
 21 18  1  0  0  0  0
 21 20  1  0  0  0  0
 23 22  1  0  0  0  0
 24 23  1  0  0  0  0
 25 23  1  0  0  0  0
 26 28  1  0  0  0  0
 28 27  2  0  0  0  0
 29 28  1  0  0  0  0
 31 40  1  0  0  0  0
 32 31  2  0  0  0  0
 32 39  1  0  0  0  0
 33 34  1  6  0  0  0
 33 41  1  0  0  0  0
 33 32  1  0  0  0  0
 35 33  1  0  0  0  0
 36 39  1  0  0  0  0
 36 29  1  1  0  0  0
 37 30  2  0  0  0  0
 39 37  1  1  0  0  0
 40 38  2  0  0  0  0
 40 30  1  0  0  0  0
 41 36  1  0  0  0  0
M  END
>  <MODEL>
2

>  <REMARK>
 VINA RESULT:      -7.7      1.232      2.411
  Name = 
  9 active torsions:
  status: ('A' for Active; 'I' for Inactive)
    1  A    between atoms: N_1  and  C_40
    2  A    between atoms: N_1  and  C_41
    3  A    between atoms: C_3  and  C_12
    4  A    between atoms: C_3  and  C_27
    5  A    between atoms: C_13  and  C_29
    6  A    between atoms: C_22  and  C_30
    7  A    between atoms: C_27  and  C_28
    8  A    between atoms: C_27  and  C_37
    9  A    between atoms: C_29  and  C_41
                            x       y       z     vdW  Elec       q    Type
                         _______ _______ _______ _____ _____    ______ ____

>  <TORSDO>
F 9

$$$$
=
 OpenBabel11062422223D

 41 44  0  0  1  0  0  0  0  0999 V2000
  194.5370  177.2860  145.0010 O   0  0  0  0  0  0  0  0  0  0  0  0
  195.1260  175.0950  144.3470 C   0  0  0  0  0  0  0  0  0  0  0  0
  194.1420  174.4260  145.2960 C   0  0  1  0  0  3  0  0  0  0  0  0
  193.8150  176.8010  146.1040 C   0  0  0  0  0  2  0  0  0  0  0  0
  195.6310  176.4220  144.8250 C   0  0  0  0  0  2  0  0  0  0  0  0
  195.0780  174.9030  143.0250 C   0  0  0  0  0  2  0  0  0  0  0  0
  193.1040  175.4820  145.7540 C   0  0  2  0  0  3  0  0  0  0  0  0
  192.6400  170.7640  142.9230 C   0  0  0  0  0  0  0  0  0  0  0  0
  191.4580  172.9460  143.3130 C   0  0  0  0  0  2  0  0  0  0  0  0
  193.3170  170.8820  141.9110 O   0  0  0  0  0  0  0  0  0  0  0  0
  193.5590  168.7280  143.7050 O   0  0  0  0  0  1  0  0  0  0  0  0
  191.9890  173.2020  144.7130 C   0  0  0  0  0  2  0  0  0  0  0  0
  191.3100  171.4480  143.0460 C   0  0  1  0  0  3  0  0  0  0  0  0
  193.5100  173.1240  144.7390 C   0  0  2  0  0  3  0  0  0  0  0  0
  193.1650  170.0070  144.1010 C   0  0  1  0  0  3  0  0  0  0  0  0
  194.3440  170.7390  144.7330 C   0  0  0  0  0  2  0  0  0  0  0  0
  193.8970  171.9180  145.5930 C   0  0  0  0  0  2  0  0  0  0  0  0
  190.3340  171.1110  141.9020 C   0  0  2  0  0  3  0  0  0  0  0  0
  190.6220  168.6060  141.7850 O   0  0  0  0  0  1  0  0  0  0  0  0
  190.9660  169.9080  139.9340 O   0  0  0  0  0  0  0  0  0  0  0  0
  190.6450  169.8440  141.1520 C   0  0  0  0  0  0  0  0  0  0  0  0
  190.1990  172.2800  140.9200 C   0  0  0  0  0  2  0  0  0  0  0  0
  188.7630  172.7990  140.7810 C   0  0  0  0  0  3  0  0  0  0  0  0
  188.2730  172.7480  139.3450 C   0  0  0  0  0  1  0  0  0  0  0  0
  188.6140  174.2020  141.3470 C   0  0  0  0  0  1  0  0  0  0  0  0
  192.3810  175.0240  146.9340 N   0  0  0  0  0  2  0  0  0  0  0  0
  191.3300  176.5960  148.4250 C   0  0  0  0  0  2  0  0  0  0  0  0
  191.2260  175.6850  147.4640 C   0  0  0  0  0  0  0  0  0  0  0  0
  189.8760  175.3260  146.9390 C   0  0  0  0  0  2  0  0  0  0  0  0
  189.9170  177.4660  142.8620 C   0  0  0  0  0  3  0  0  0  0  0  0
  187.4670  177.7640  143.4570 C   0  0  0  0  0  3  0  0  0  0  0  0
  187.7120  177.1540  144.6220 C   0  0  0  0  0  0  0  0  0  0  0  0
  186.8810  177.2860  145.8470 C   0  0  2  0  0  0  0  0  0  0  0  0
  185.5760  176.5230  145.7180 C   0  0  0  0  0  1  0  0  0  0  0  0
  186.6300  178.6310  146.1300 O   0  0  0  0  0  1  0  0  0  0  0  0
  189.1680  176.5500  146.3720 C   0  0  1  0  0  3  0  0  0  0  0  0
  190.1330  176.8680  144.0390 C   0  0  0  0  0  3  0  0  0  0  0  0
  188.3050  178.2070  141.2800 O   0  0  0  0  0  0  0  0  0  0  0  0
  188.9690  176.3980  144.8800 C   0  0  2  0  0  3  0  0  0  0  0  0
  188.5400  177.8000  142.4490 C   0  0  0  0  0  0  0  0  0  0  0  0
  187.7490  176.6820  146.9480 C   0  0  0  0  0  2  0  0  0  0  0  0
  1  4  1  0  0  0  0
  2  5  1  0  0  0  0
  3  2  1  6  0  0  0
  3  7  1  0  0  0  0
  5  1  1  0  0  0  0
  6  2  2  0  0  0  0
  7  4  1  0  0  0  0
  7 26  1  1  0  0  0
  8 13  1  0  0  0  0
  8 15  1  0  0  0  0
  9 12  1  0  0  0  0
 10  8  2  0  0  0  0
 13 18  1  6  0  0  0
 13  9  1  0  0  0  0
 14 12  1  1  0  0  0
 14  3  1  0  0  0  0
 14 17  1  0  0  0  0
 15 11  1  6  0  0  0
 15 16  1  0  0  0  0
 16 17  1  0  0  0  0
 18 22  1  6  0  0  0
 20 21  2  0  0  0  0
 21 19  1  0  0  0  0
 21 18  1  0  0  0  0
 23 22  1  0  0  0  0
 23 25  1  0  0  0  0
 24 23  1  0  0  0  0
 26 28  1  0  0  0  0
 28 27  2  0  0  0  0
 29 28  1  0  0  0  0
 30 37  2  0  0  0  0
 31 32  2  0  0  0  0
 32 39  1  0  0  0  0
 32 33  1  0  0  0  0
 33 34  1  6  0  0  0
 33 35  1  0  0  0  0
 33 41  1  0  0  0  0
 36 29  1  1  0  0  0
 36 41  1  0  0  0  0
 38 40  2  0  0  0  0
 39 37  1  6  0  0  0
 39 36  1  0  0  0  0
 40 30  1  0  0  0  0
 40 31  1  0  0  0  0
M  END
>  <MODEL>
3

>  <REMARK>
 VINA RESULT:      -7.1      1.339      2.485
  Name = 
  9 active torsions:
  status: ('A' for Active; 'I' for Inactive)
    1  A    between atoms: N_1  and  C_40
    2  A    between atoms: N_1  and  C_41
    3  A    between atoms: C_3  and  C_12
    4  A    between atoms: C_3  and  C_27
    5  A    between atoms: C_13  and  C_29
    6  A    between atoms: C_22  and  C_30
    7  A    between atoms: C_27  and  C_28
    8  A    between atoms: C_27  and  C_37
    9  A    between atoms: C_29  and  C_41
                            x       y       z     vdW  Elec       q    Type
                         _______ _______ _______ _____ _____    ______ ____

>  <TORSDO>
F 9

$$$$
=
 OpenBabel11062422223D

 41 44  0  0  1  0  0  0  0  0999 V2000
  195.0220  177.1250  144.6420 O   0  0  0  0  0  0  0  0  0  0  0  0
  195.2280  174.9420  143.7670 C   0  0  0  0  0  0  0  0  0  0  0  0
  194.0190  174.4040  144.5210 C   0  0  1  0  0  3  0  0  0  0  0  0
  194.0870  176.6920  145.5970 C   0  0  0  0  0  2  0  0  0  0  0  0
  195.9300  176.0680  144.4600 C   0  0  0  0  0  2  0  0  0  0  0  0
  195.3040  174.9070  142.4330 C   0  0  0  0  0  2  0  0  0  0  0  0
  193.1700  175.6040  145.0100 C   0  0  2  0  0  3  0  0  0  0  0  0
  192.2830  171.1860  141.7070 C   0  0  0  0  0  0  0  0  0  0  0  0
  191.9730  173.6750  141.5870 C   0  0  0  0  0  2  0  0  0  0  0  0
  193.2890  170.9030  141.0700 O   0  0  0  0  0  0  0  0  0  0  0  0
  191.9730  169.1000  142.7820 O   0  0  0  0  0  1  0  0  0  0  0  0
  191.9730  173.9380  143.0840 C   0  0  0  0  0  2  0  0  0  0  0  0
  191.3810  172.3020  141.2700 C   0  0  1  0  0  3  0  0  0  0  0  0
  193.2090  173.3370  143.7400 C   0  0  2  0  0  3  0  0  0  0  0  0
  191.9770  170.4800  142.9900 C   0  0  1  0  0  3  0  0  0  0  0  0
  193.0010  170.8400  144.0610 C   0  0  0  0  0  2  0  0  0  0  0  0
  192.7420  172.2170  144.6670 C   0  0  0  0  0  2  0  0  0  0  0  0
  190.8780  172.1590  139.8200 C   0  0  2  0  0  3  0  0  0  0  0  0
  190.9520  173.9320  138.0250 O   0  0  0  0  0  0  0  0  0  0  0  0
  192.8500  172.8080  138.6340 O   0  0  0  0  0  1  0  0  0  0  0  0
  191.6140  172.9910  138.8050 C   0  0  0  0  0  0  0  0  0  0  0  0
  189.3720  172.4260  139.7230 C   0  0  0  0  0  2  0  0  0  0  0  0
  188.8650  173.4480  140.7470 C   0  0  0  0  0  3  0  0  0  0  0  0
  187.8470  172.8470  141.7000 C   0  0  0  0  0  1  0  0  0  0  0  0
  188.3010  174.6880  140.0740 C   0  0  0  0  0  1  0  0  0  0  0  0
  192.2320  175.1890  146.0450 N   0  0  0  0  0  2  0  0  0  0  0  0
  190.0150  174.2790  146.2880 C   0  0  0  0  0  2  0  0  0  0  0  0
  190.8070  175.2740  145.9050 C   0  0  0  0  0  0  0  0  0  0  0  0
  190.2070  176.4970  145.2960 C   0  0  0  0  0  2  0  0  0  0  0  0
  186.0620  177.0050  147.2340 C   0  0  0  0  0  3  0  0  0  0  0  0
  185.4770  177.6330  144.8440 C   0  0  0  0  0  3  0  0  0  0  0  0
  186.7420  177.3670  144.5020 C   0  0  0  0  0  0  0  0  0  0  0  0
  187.2040  177.0370  143.1290 C   0  0  2  0  0  0  0  0  0  0  0  0
  187.2180  178.2640  142.2380 C   0  0  0  0  0  1  0  0  0  0  0  0
  186.4050  176.0380  142.5660 O   0  0  0  0  0  1  0  0  0  0  0  0
  188.7780  176.2320  144.8380 C   0  0  1  0  0  3  0  0  0  0  0  0
  187.3180  176.7370  146.8590 C   0  0  0  0  0  3  0  0  0  0  0  0
  183.9950  178.0280  146.6570 O   0  0  0  0  0  0  0  0  0  0  0  0
  187.8240  177.1930  145.5100 C   0  0  2  0  0  3  0  0  0  0  0  0
  185.1230  177.6180  146.2740 C   0  0  0  0  0  0  0  0  0  0  0  0
  188.6210  176.5070  143.3340 C   0  0  0  0  0  2  0  0  0  0  0  0
  1  4  1  0  0  0  0
  2  5  1  0  0  0  0
  3  2  1  6  0  0  0
  3  7  1  0  0  0  0
  5  1  1  0  0  0  0
  6  2  2  0  0  0  0
  7  4  1  0  0  0  0
  7 26  1  1  0  0  0
  8 15  1  0  0  0  0
  9 12  1  0  0  0  0
 10  8  2  0  0  0  0
 13 18  1  6  0  0  0
 13  9  1  0  0  0  0
 13  8  1  0  0  0  0
 14 12  1  1  0  0  0
 14  3  1  0  0  0  0
 14 17  1  0  0  0  0
 15 11  1  6  0  0  0
 15 16  1  0  0  0  0
 16 17  1  0  0  0  0
 18 22  1  1  0  0  0
 19 21  2  0  0  0  0
 20 21  1  0  0  0  0
 21 18  1  0  0  0  0
 22 23  1  0  0  0  0
 23 24  1  0  0  0  0
 25 23  1  0  0  0  0
 28 26  1  0  0  0  0
 28 27  2  0  0  0  0
 29 28  1  0  0  0  0
 31 40  1  0  0  0  0
 32 31  2  0  0  0  0
 32 39  1  0  0  0  0
 33 34  1  6  0  0  0
 33 41  1  0  0  0  0
 33 32  1  0  0  0  0
 35 33  1  0  0  0  0
 36 29  1  1  0  0  0
 36 39  1  0  0  0  0
 37 30  2  0  0  0  0
 39 37  1  1  0  0  0
 40 38  2  0  0  0  0
 40 30  1  0  0  0  0
 41 36  1  0  0  0  0
M  END
>  <MODEL>
4

>  <REMARK>
 VINA RESULT:      -7.0      1.432      2.948
  Name = 
  9 active torsions:
  status: ('A' for Active; 'I' for Inactive)
    1  A    between atoms: N_1  and  C_40
    2  A    between atoms: N_1  and  C_41
    3  A    between atoms: C_3  and  C_12
    4  A    between atoms: C_3  and  C_27
    5  A    between atoms: C_13  and  C_29
    6  A    between atoms: C_22  and  C_30
    7  A    between atoms: C_27  and  C_28
    8  A    between atoms: C_27  and  C_37
    9  A    between atoms: C_29  and  C_41
                            x       y       z     vdW  Elec       q    Type
                         _______ _______ _______ _____ _____    ______ ____

>  <TORSDO>
F 9

$$$$
=
 OpenBabel11062422223D

 41 44  0  0  1  0  0  0  0  0999 V2000
  189.0480  171.9730  143.2290 O   0  0  0  0  0  0  0  0  0  0  0  0
  190.5510  173.2520  141.9320 C   0  0  0  0  0  0  0  0  0  0  0  0
  191.1370  173.9860  143.1300 C   0  0  1  0  0  3  0  0  0  0  0  0
  189.2910  172.7700  144.3600 C   0  0  0  0  0  2  0  0  0  0  0  0
  189.1270  172.8240  142.1130 C   0  0  0  0  0  2  0  0  0  0  0  0
  191.3070  172.5150  141.1120 C   0  0  0  0  0  2  0  0  0  0  0  0
  190.7660  173.2050  144.4150 C   0  0  2  0  0  3  0  0  0  0  0  0
  195.5680  174.5780  141.9890 C   0  0  0  0  0  0  0  0  0  0  0  0
  194.5480  172.6950  143.3010 C   0  0  0  0  0  2  0  0  0  0  0  0
  195.5190  174.2770  140.8030 O   0  0  0  0  0  0  0  0  0  0  0  0
  196.1510  176.8580  141.7300 O   0  0  0  0  0  1  0  0  0  0  0  0
  193.4780  173.5140  144.0050 C   0  0  0  0  0  2  0  0  0  0  0  0
  195.7990  173.5330  143.0410 C   0  0  1  0  0  3  0  0  0  0  0  0
  192.6490  174.3030  143.0000 C   0  0  2  0  0  3  0  0  0  0  0  0
  195.3100  175.9860  142.4240 C   0  0  1  0  0  3  0  0  0  0  0  0
  193.8540  176.3670  142.1810 C   0  0  0  0  0  2  0  0  0  0  0  0
  192.9210  175.7860  143.2400 C   0  0  0  0  0  2  0  0  0  0  0  0
  197.0740  172.6980  142.8140 C   0  0  2  0  0  3  0  0  0  0  0  0
  196.7130  170.2020  142.6990 O   0  0  0  0  0  1  0  0  0  0  0  0
  196.8730  171.4470  140.7850 O   0  0  0  0  0  0  0  0  0  0  0  0
  196.8690  171.4200  142.0470 C   0  0  0  0  0  0  0  0  0  0  0  0
  197.7930  172.4050  144.1350 C   0  0  0  0  0  2  0  0  0  0  0  0
  196.8630  172.4190  145.3530 C   0  0  0  0  0  3  0  0  0  0  0  0
  197.2070  173.5350  146.3240 C   0  0  0  0  0  1  0  0  0  0  0  0
  196.8470  171.0770  146.0650 C   0  0  0  0  0  1  0  0  0  0  0  0
  190.9560  174.0330  145.6000 N   0  0  0  0  0  2  0  0  0  0  0  0
  189.2380  174.5430  147.2090 C   0  0  0  0  0  2  0  0  0  0  0  0
  189.9420  174.8920  146.1380 C   0  0  0  0  0  0  0  0  0  0  0  0
  189.6580  176.1940  145.4670 C   0  0  0  0  0  2  0  0  0  0  0  0
  185.4390  177.4960  146.7700 C   0  0  0  0  0  3  0  0  0  0  0  0
  185.3310  178.1500  144.3180 C   0  0  0  0  0  3  0  0  0  0  0  0
  186.5630  177.6500  144.1670 C   0  0  0  0  0  0  0  0  0  0  0  0
  187.1500  177.2020  142.8790 C   0  0  2  0  0  0  0  0  0  0  0  0
  187.5170  178.3800  141.9960 C   0  0  0  0  0  1  0  0  0  0  0  0
  186.2730  176.3480  142.2060 O   0  0  0  0  0  1  0  0  0  0  0  0
  188.2870  176.1770  144.8040 C   0  0  1  0  0  3  0  0  0  0  0  0
  186.6660  176.9960  146.5850 C   0  0  0  0  0  3  0  0  0  0  0  0
  183.6990  178.8580  145.8920 O   0  0  0  0  0  0  0  0  0  0  0  0
  187.4370  177.3140  145.3250 C   0  0  2  0  0  3  0  0  0  0  0  0
  184.7770  178.2400  145.6800 C   0  0  0  0  0  0  0  0  0  0  0  0
  188.4020  176.4320  143.2920 C   0  0  0  0  0  2  0  0  0  0  0  0
  1  4  1  0  0  0  0
  2  5  1  0  0  0  0
  3  2  1  6  0  0  0
  3  7  1  0  0  0  0
  4  7  1  0  0  0  0
  5  1  1  0  0  0  0
  6  2  2  0  0  0  0
  7 26  1  1  0  0  0
  8 15  1  0  0  0  0
  8 13  1  0  0  0  0
  9 12  1  0  0  0  0
 10  8  2  0  0  0  0
 13 18  1  6  0  0  0
 13  9  1  0  0  0  0
 14  3  1  0  0  0  0
 14 17  1  1  0  0  0
 14 12  1  0  0  0  0
 15 11  1  6  0  0  0
 16 15  1  0  0  0  0
 16 17  1  0  0  0  0
 18 22  1  1  0  0  0
 20 21  2  0  0  0  0
 21 19  1  0  0  0  0
 21 18  1  0  0  0  0
 22 23  1  0  0  0  0
 23 25  1  0  0  0  0
 23 24  1  0  0  0  0
 26 28  1  0  0  0  0
 28 27  2  0  0  0  0
 29 28  1  0  0  0  0
 31 40  1  0  0  0  0
 32 31  2  0  0  0  0
 32 39  1  0  0  0  0
 33 34  1  6  0  0  0
 33 41  1  0  0  0  0
 33 32  1  0  0  0  0
 35 33  1  0  0  0  0
 36 39  1  0  0  0  0
 36 29  1  1  0  0  0
 37 30  2  0  0  0  0
 39 37  1  1  0  0  0
 40 38  2  0  0  0  0
 40 30  1  0  0  0  0
 41 36  1  0  0  0  0
M  END
>  <MODEL>
5

>  <REMARK>
 VINA RESULT:      -7.0      2.581      6.111
  Name = 
  9 active torsions:
  status: ('A' for Active; 'I' for Inactive)
    1  A    between atoms: N_1  and  C_40
    2  A    between atoms: N_1  and  C_41
    3  A    between atoms: C_3  and  C_12
    4  A    between atoms: C_3  and  C_27
    5  A    between atoms: C_13  and  C_29
    6  A    between atoms: C_22  and  C_30
    7  A    between atoms: C_27  and  C_28
    8  A    between atoms: C_27  and  C_37
    9  A    between atoms: C_29  and  C_41
                            x       y       z     vdW  Elec       q    Type
                         _______ _______ _______ _____ _____    ______ ____

>  <TORSDO>
F 9

$$$$
=
 OpenBabel11062422223D

 41 44  0  0  1  0  0  0  0  0999 V2000
  190.9230  170.9070  139.5800 O   0  0  0  0  0  0  0  0  0  0  0  0
  189.4530  172.7530  139.6670 C   0  0  0  0  0  0  0  0  0  0  0  0
  189.2840  172.6910  141.1780 C   0  0  1  0  0  3  0  0  0  0  0  0
  190.6300  170.5660  140.9110 C   0  0  0  0  0  2  0  0  0  0  0  0
  189.7400  171.4280  139.0280 C   0  0  0  0  0  2  0  0  0  0  0  0
  189.9270  173.8400  139.0500 C   0  0  0  0  0  2  0  0  0  0  0  0
  190.4290  171.8290  141.7670 C   0  0  2  0  0  3  0  0  0  0  0  0
  188.6380  176.3760  143.8800 C   0  0  0  0  0  0  0  0  0  0  0  0
  186.9810  175.2710  142.3490 C   0  0  0  0  0  2  0  0  0  0  0  0
  188.5650  175.8230  144.9690 O   0  0  0  0  0  0  0  0  0  0  0  0
  190.6310  177.5960  144.2560 O   0  0  0  0  0  1  0  0  0  0  0  0
  187.9670  174.8660  141.2650 C   0  0  0  0  0  2  0  0  0  0  0  0
  187.4160  176.5680  143.0290 C   0  0  1  0  0  3  0  0  0  0  0  0
  189.1290  174.0780  141.8550 C   0  0  2  0  0  3  0  0  0  0  0  0
  189.9640  176.7930  143.3290 C   0  0  1  0  0  3  0  0  0  0  0  0
  190.8170  175.5740  142.9930 C   0  0  0  0  0  2  0  0  0  0  0  0
  190.3920  174.9170  141.6820 C   0  0  0  0  0  2  0  0  0  0  0  0
  186.2730  177.3100  143.7490 C   0  0  2  0  0  3  0  0  0  0  0  0
  184.0160  178.2480  143.1170 O   0  0  0  0  0  1  0  0  0  0  0  0
  185.8580  178.6650  141.8230 O   0  0  0  0  0  0  0  0  0  0  0  0
  185.3750  178.1200  142.8530 C   0  0  0  0  0  0  0  0  0  0  0  0
  186.8050  178.1870  144.8880 C   0  0  0  0  0  2  0  0  0  0  0  0
  185.9710  178.0960  146.1700 C   0  0  0  0  0  3  0  0  0  0  0  0
  186.8160  178.2910  147.4180 C   0  0  0  0  0  1  0  0  0  0  0  0
  185.1960  176.7910  146.2470 C   0  0  0  0  0  1  0  0  0  0  0  0
  190.1200  171.4140  143.1300 N   0  0  0  0  0  2  0  0  0  0  0  0
  189.8680  172.6810  145.1620 C   0  0  0  0  0  2  0  0  0  0  0  0
  190.6550  172.0540  144.2950 C   0  0  0  0  0  0  0  0  0  0  0  0
  192.1290  172.0350  144.5250 C   0  0  0  0  0  2  0  0  0  0  0  0
  192.7510  176.0630  146.6660 C   0  0  0  0  0  3  0  0  0  0  0  0
  194.9110  175.9680  145.3350 C   0  0  0  0  0  3  0  0  0  0  0  0
  194.4870  174.8200  144.7950 C   0  0  0  0  0  0  0  0  0  0  0  0
  194.9670  174.2520  143.5100 C   0  0  2  0  0  0  0  0  0  0  0  0
  196.3640  173.6760  143.6440 C   0  0  0  0  0  1  0  0  0  0  0  0
  194.9370  175.2180  142.5000 O   0  0  0  0  0  1  0  0  0  0  0  0
  192.7600  173.3640  144.1300 C   0  0  1  0  0  3  0  0  0  0  0  0
  192.3500  174.9180  146.1020 C   0  0  0  0  0  3  0  0  0  0  0  0
  194.5660  177.5410  147.0800 O   0  0  0  0  0  0  0  0  0  0  0  0
  193.3340  174.0550  145.3460 C   0  0  2  0  0  3  0  0  0  0  0  0
  194.1210  176.5600  146.4270 C   0  0  0  0  0  0  0  0  0  0  0  0
  193.9600  173.1480  143.1950 C   0  0  0  0  0  2  0  0  0  0  0  0
  1  4  1  0  0  0  0
  3  2  1  6  0  0  0
  3  7  1  0  0  0  0
  3 14  1  0  0  0  0
  4  7  1  0  0  0  0
  5  1  1  0  0  0  0
  5  2  1  0  0  0  0
  6  2  2  0  0  0  0
  7 26  1  1  0  0  0
  8 10  2  0  0  0  0
  9 13  1  0  0  0  0
 12  9  1  0  0  0  0
 13 18  1  1  0  0  0
 13  8  1  0  0  0  0
 14 12  1  6  0  0  0
 15  8  1  0  0  0  0
 15 11  1  1  0  0  0
 16 15  1  0  0  0  0
 17 14  1  0  0  0  0
 17 16  1  0  0  0  0
 18 22  1  1  0  0  0
 20 21  2  0  0  0  0
 21 19  1  0  0  0  0
 21 18  1  0  0  0  0
 22 23  1  0  0  0  0
 23 25  1  0  0  0  0
 23 24  1  0  0  0  0
 26 28  1  0  0  0  0
 28 29  1  0  0  0  0
 28 27  2  0  0  0  0
 31 40  1  0  0  0  0
 32 31  2  0  0  0  0
 32 39  1  0  0  0  0
 33 34  1  1  0  0  0
 33 32  1  0  0  0  0
 35 33  1  0  0  0  0
 36 29  1  1  0  0  0
 36 39  1  0  0  0  0
 37 30  2  0  0  0  0
 39 37  1  6  0  0  0
 40 30  1  0  0  0  0
 40 38  2  0  0  0  0
 41 33  1  0  0  0  0
 41 36  1  0  0  0  0
M  END
>  <MODEL>
6

>  <REMARK>
 VINA RESULT:      -7.0      1.894      7.209
  Name = 
  9 active torsions:
  status: ('A' for Active; 'I' for Inactive)
    1  A    between atoms: N_1  and  C_40
    2  A    between atoms: N_1  and  C_41
    3  A    between atoms: C_3  and  C_12
    4  A    between atoms: C_3  and  C_27
    5  A    between atoms: C_13  and  C_29
    6  A    between atoms: C_22  and  C_30
    7  A    between atoms: C_27  and  C_28
    8  A    between atoms: C_27  and  C_37
    9  A    between atoms: C_29  and  C_41
                            x       y       z     vdW  Elec       q    Type
                         _______ _______ _______ _____ _____    ______ ____

>  <TORSDO>
F 9

$$$$
=
 OpenBabel11062422223D

 41 44  0  0  1  0  0  0  0  0999 V2000
  191.2730  170.8850  141.4320 O   0  0  0  0  0  0  0  0  0  0  0  0
  191.1680  171.9130  143.5560 C   0  0  0  0  0  0  0  0  0  0  0  0
  191.5740  173.2850  143.0370 C   0  0  1  0  0  3  0  0  0  0  0  0
  191.9250  172.0030  140.8840 C   0  0  0  0  0  2  0  0  0  0  0  0
  191.7200  170.7700  142.7600 C   0  0  0  0  0  2  0  0  0  0  0  0
  190.0090  171.7090  144.1890 C   0  0  0  0  0  2  0  0  0  0  0  0
  191.3840  173.3060  141.4990 C   0  0  2  0  0  3  0  0  0  0  0  0
  189.0800  176.2100  145.5900 C   0  0  0  0  0  0  0  0  0  0  0  0
  188.6700  175.4900  143.2190 C   0  0  0  0  0  2  0  0  0  0  0  0
  188.5150  175.4120  146.3260 O   0  0  0  0  0  0  0  0  0  0  0  0
  190.3720  177.3220  147.2320 O   0  0  0  0  0  1  0  0  0  0  0  0
  190.1270  175.3640  142.8040 C   0  0  0  0  0  2  0  0  0  0  0  0
  188.4880  176.5900  144.2640 C   0  0  1  0  0  3  0  0  0  0  0  0
  190.8900  174.4680  143.7710 C   0  0  2  0  0  3  0  0  0  0  0  0
  190.4230  176.7580  145.9560 C   0  0  1  0  0  3  0  0  0  0  0  0
  191.4830  175.6630  145.9160 C   0  0  0  0  0  2  0  0  0  0  0  0
  191.9200  175.3350  144.4900 C   0  0  0  0  0  2  0  0  0  0  0  0
  187.0470  177.1270  144.3620 C   0  0  2  0  0  3  0  0  0  0  0  0
  186.9630  178.5560  142.2820 O   0  0  0  0  0  0  0  0  0  0  0  0
  185.3800  176.9460  142.6570 O   0  0  0  0  0  1  0  0  0  0  0  0
  186.4270  177.5290  143.0510 C   0  0  0  0  0  0  0  0  0  0  0  0
  186.9490  178.2830  145.3630 C   0  0  0  0  0  2  0  0  0  0  0  0
  185.7100  178.2080  146.2630 C   0  0  0  0  0  3  0  0  0  0  0  0
  185.9530  178.8340  147.6250 C   0  0  0  0  0  1  0  0  0  0  0  0
  185.2070  176.7810  146.4120 C   0  0  0  0  0  1  0  0  0  0  0  0
  192.1010  174.4260  140.9010 N   0  0  0  0  0  2  0  0  0  0  0  0
  193.0470  174.2480  138.6930 C   0  0  0  0  0  2  0  0  0  0  0  0
  193.2140  174.2710  140.0110 C   0  0  0  0  0  0  0  0  0  0  0  0
  194.5840  174.1120  140.5790 C   0  0  0  0  0  2  0  0  0  0  0  0
  195.3950  172.1150  144.6480 C   0  0  0  0  0  3  0  0  0  0  0  0
  196.5290  174.3500  145.0540 C   0  0  0  0  0  3  0  0  0  0  0  0
  196.1290  174.7350  143.8370 C   0  0  0  0  0  0  0  0  0  0  0  0
  195.9810  176.1450  143.3930 C   0  0  2  0  0  0  0  0  0  0  0  0
  197.3310  176.7970  143.1590 C   0  0  0  0  0  1  0  0  0  0  0  0
  195.2420  176.8810  144.3230 O   0  0  0  0  0  1  0  0  0  0  0  0
  194.6390  174.6100  142.0170 C   0  0  1  0  0  3  0  0  0  0  0  0
  195.0010  172.5320  143.4390 C   0  0  0  0  0  3  0  0  0  0  0  0
  196.8240  172.4960  146.5090 O   0  0  0  0  0  0  0  0  0  0  0  0
  195.6050  173.7750  142.8270 C   0  0  2  0  0  3  0  0  0  0  0  0
  196.3140  172.9480  145.4490 C   0  0  0  0  0  0  0  0  0  0  0  0
  195.2020  176.0390  142.0840 C   0  0  0  0  0  2  0  0  0  0  0  0
  1  5  1  0  0  0  0
  2  6  2  0  0  0  0
  3  2  1  1  0  0  0
  3 14  1  0  0  0  0
  4  1  1  0  0  0  0
  4  7  1  0  0  0  0
  5  2  1  0  0  0  0
  7 26  1  6  0  0  0
  7  3  1  0  0  0  0
  8 15  1  0  0  0  0
  8 10  2  0  0  0  0
  9 13  1  0  0  0  0
 12  9  1  0  0  0  0
 13 18  1  1  0  0  0
 13  8  1  0  0  0  0
 14 12  1  6  0  0  0
 14 17  1  0  0  0  0
 15 11  1  1  0  0  0
 16 15  1  0  0  0  0
 17 16  1  0  0  0  0
 18 22  1  1  0  0  0
 19 21  2  0  0  0  0
 20 21  1  0  0  0  0
 21 18  1  0  0  0  0
 22 23  1  0  0  0  0
 23 25  1  0  0  0  0
 23 24  1  0  0  0  0
 27 28  2  0  0  0  0
 28 29  1  0  0  0  0
 28 26  1  0  0  0  0
 30 40  1  0  0  0  0
 31 40  1  0  0  0  0
 32 31  2  0  0  0  0
 33 34  1  6  0  0  0
 33 32  1  0  0  0  0
 33 35  1  0  0  0  0
 36 29  1  6  0  0  0
 36 41  1  0  0  0  0
 36 39  1  0  0  0  0
 37 30  2  0  0  0  0
 39 37  1  1  0  0  0
 39 32  1  0  0  0  0
 40 38  2  0  0  0  0
 41 33  1  0  0  0  0
M  END
>  <MODEL>
7

>  <REMARK>
 VINA RESULT:      -7.0      2.341      7.838
  Name = 
  9 active torsions:
  status: ('A' for Active; 'I' for Inactive)
    1  A    between atoms: N_1  and  C_40
    2  A    between atoms: N_1  and  C_41
    3  A    between atoms: C_3  and  C_12
    4  A    between atoms: C_3  and  C_27
    5  A    between atoms: C_13  and  C_29
    6  A    between atoms: C_22  and  C_30
    7  A    between atoms: C_27  and  C_28
    8  A    between atoms: C_27  and  C_37
    9  A    between atoms: C_29  and  C_41
                            x       y       z     vdW  Elec       q    Type
                         _______ _______ _______ _____ _____    ______ ____

>  <TORSDO>
F 9

$$$$
=
 OpenBabel11062422223D

 41 44  0  0  1  0  0  0  0  0999 V2000
  188.1290  173.0550  141.2870 O   0  0  0  0  0  0  0  0  0  0  0  0
  190.3240  172.5790  140.5590 C   0  0  0  0  0  0  0  0  0  0  0  0
  190.8880  173.9180  141.0150 C   0  0  1  0  0  3  0  0  0  0  0  0
  188.4510  174.4090  141.4840 C   0  0  0  0  0  2  0  0  0  0  0  0
  188.8760  172.6210  140.1780 C   0  0  0  0  0  2  0  0  0  0  0  0
  190.7980  171.4160  141.0190 C   0  0  0  0  0  2  0  0  0  0  0  0
  189.8890  174.5580  142.0110 C   0  0  2  0  0  3  0  0  0  0  0  0
  194.8890  173.2670  143.2180 C   0  0  0  0  0  0  0  0  0  0  0  0
  193.3470  175.2430  143.3650 C   0  0  0  0  0  2  0  0  0  0  0  0
  194.5330  172.4510  144.0580 O   0  0  0  0  0  0  0  0  0  0  0  0
  196.3810  171.8770  142.0150 O   0  0  0  0  0  1  0  0  0  0  0  0
  192.8740  175.2230  141.9200 C   0  0  0  0  0  2  0  0  0  0  0  0
  194.7850  174.7410  143.4800 C   0  0  1  0  0  3  0  0  0  0  0  0
  192.3440  173.8460  141.5430 C   0  0  2  0  0  3  0  0  0  0  0  0
  195.3550  172.8120  141.8710 C   0  0  1  0  0  3  0  0  0  0  0  0
  194.2040  172.2000  141.0800 C   0  0  0  0  0  2  0  0  0  0  0  0
  193.2810  173.2630  140.4880 C   0  0  0  0  0  2  0  0  0  0  0  0
  195.5030  175.1920  144.7670 C   0  0  2  0  0  3  0  0  0  0  0  0
  197.0550  173.7510  146.1420 O   0  0  0  0  0  1  0  0  0  0  0  0
  197.7820  174.7330  144.2060 O   0  0  0  0  0  0  0  0  0  0  0  0
  196.8350  174.5370  145.0160 C   0  0  0  0  0  0  0  0  0  0  0  0
  194.6020  175.0270  145.9960 C   0  0  0  0  0  2  0  0  0  0  0  0
  194.1830  176.3590  146.6290 C   0  0  0  0  0  3  0  0  0  0  0  0
  192.6890  176.4220  146.8950 C   0  0  0  0  0  1  0  0  0  0  0  0
  194.6270  177.5460  145.7900 C   0  0  0  0  0  1  0  0  0  0  0  0
  190.1670  175.9780  142.1860 N   0  0  0  0  0  2  0  0  0  0  0  0
  190.7230  177.6690  143.8080 C   0  0  0  0  0  2  0  0  0  0  0  0
  189.9200  176.6910  143.4050 C   0  0  0  0  0  0  0  0  0  0  0  0
  188.7500  176.3100  144.2480 C   0  0  0  0  0  2  0  0  0  0  0  0
  185.5950  177.9930  141.3470 C   0  0  0  0  0  3  0  0  0  0  0  0
  184.3400  178.2880  143.5350 C   0  0  0  0  0  3  0  0  0  0  0  0
  185.4150  177.8150  144.1750 C   0  0  0  0  0  0  0  0  0  0  0  0
  185.7330  178.0580  145.6060 C   0  0  2  0  0  0  0  0  0  0  0  0
  184.8300  177.2500  146.5190 C   0  0  0  0  0  1  0  0  0  0  0  0
  185.6360  179.4180  145.9090 O   0  0  0  0  0  1  0  0  0  0  0  0
  187.7370  177.4450  144.3190 C   0  0  1  0  0  3  0  0  0  0  0  0
  186.6580  177.5330  142.0160 C   0  0  0  0  0  3  0  0  0  0  0  0
  183.2770  178.5140  141.4230 O   0  0  0  0  0  0  0  0  0  0  0  0
  186.5290  177.1260  143.4660 C   0  0  2  0  0  3  0  0  0  0  0  0
  184.3280  178.2430  142.0630 C   0  0  0  0  0  0  0  0  0  0  0  0
  187.1830  177.6010  145.7440 C   0  0  0  0  0  2  0  0  0  0  0  0
  1  4  1  0  0  0  0
  2  6  2  0  0  0  0
  3  2  1  1  0  0  0
  3 14  1  0  0  0  0
  3  7  1  0  0  0  0
  4  7  1  0  0  0  0
  5  2  1  0  0  0  0
  5  1  1  0  0  0  0
  7 26  1  6  0  0  0
  8 13  1  0  0  0  0
  8 10  2  0  0  0  0
  9 13  1  0  0  0  0
 12  9  1  0  0  0  0
 13 18  1  1  0  0  0
 14 17  1  6  0  0  0
 14 12  1  0  0  0  0
 15 11  1  1  0  0  0
 15  8  1  0  0  0  0
 16 15  1  0  0  0  0
 17 16  1  0  0  0  0
 18 21  1  0  0  0  0
 18 22  1  1  0  0  0
 20 21  2  0  0  0  0
 21 19  1  0  0  0  0
 22 23  1  0  0  0  0
 23 24  1  0  0  0  0
 25 23  1  0  0  0  0
 26 28  1  0  0  0  0
 28 27  2  0  0  0  0
 28 29  1  0  0  0  0
 30 37  2  0  0  0  0
 30 40  1  0  0  0  0
 31 32  2  0  0  0  0
 32 33  1  0  0  0  0
 33 41  1  0  0  0  0
 33 35  1  0  0  0  0
 33 34  1  1  0  0  0
 36 29  1  1  0  0  0
 36 41  1  0  0  0  0
 38 40  2  0  0  0  0
 39 37  1  6  0  0  0
 39 32  1  0  0  0  0
 39 36  1  0  0  0  0
 40 31  1  0  0  0  0
M  END
>  <MODEL>
8

>  <REMARK>
 VINA RESULT:      -6.9      2.258      5.877
  Name = 
  9 active torsions:
  status: ('A' for Active; 'I' for Inactive)
    1  A    between atoms: N_1  and  C_40
    2  A    between atoms: N_1  and  C_41
    3  A    between atoms: C_3  and  C_12
    4  A    between atoms: C_3  and  C_27
    5  A    between atoms: C_13  and  C_29
    6  A    between atoms: C_22  and  C_30
    7  A    between atoms: C_27  and  C_28
    8  A    between atoms: C_27  and  C_37
    9  A    between atoms: C_29  and  C_41
                            x       y       z     vdW  Elec       q    Type
                         _______ _______ _______ _____ _____    ______ ____

>  <TORSDO>
F 9

$$$$
=
 OpenBabel11062422223D

 41 44  0  0  1  0  0  0  0  0999 V2000
  194.9810  176.8090  144.7270 O   0  0  0  0  0  0  0  0  0  0  0  0
  194.7330  174.5490  144.0930 C   0  0  0  0  0  0  0  0  0  0  0  0
  193.2200  174.5500  144.2610 C   0  0  1  0  0  3  0  0  0  0  0  0
  193.6560  176.8610  145.1920 C   0  0  0  0  0  2  0  0  0  0  0  0
  195.4490  175.5100  144.9910 C   0  0  0  0  0  2  0  0  0  0  0  0
  195.3170  174.2560  142.9270 C   0  0  0  0  0  2  0  0  0  0  0  0
  192.7300  176.0190  144.2970 C   0  0  2  0  0  3  0  0  0  0  0  0
  191.7450  171.6230  141.0130 C   0  0  0  0  0  0  0  0  0  0  0  0
  192.2510  174.0710  140.7740 C   0  0  0  0  0  2  0  0  0  0  0  0
  192.7810  171.0050  140.8050 O   0  0  0  0  0  0  0  0  0  0  0  0
  190.4660  169.8400  141.9000 O   0  0  0  0  0  1  0  0  0  0  0  0
  191.7890  174.4960  142.1580 C   0  0  0  0  0  2  0  0  0  0  0  0
  191.4350  172.8850  140.2620 C   0  0  1  0  0  3  0  0  0  0  0  0
  192.4680  173.6610  143.2360 C   0  0  2  0  0  3  0  0  0  0  0  0
  190.8030  171.1810  142.0880 C   0  0  1  0  0  3  0  0  0  0  0  0
  191.4290  171.3700  143.4650 C   0  0  0  0  0  2  0  0  0  0  0  0
  191.3890  172.8260  143.9220 C   0  0  0  0  0  2  0  0  0  0  0  0
  191.4690  172.7170  138.7300 C   0  0  2  0  0  3  0  0  0  0  0  0
  193.8280  173.3130  138.0560 O   0  0  0  0  0  1  0  0  0  0  0  0
  192.0620  174.6130  137.3980 O   0  0  0  0  0  0  0  0  0  0  0  0
  192.4660  173.5900  138.0170 C   0  0  0  0  0  0  0  0  0  0  0  0
  190.0770  172.9030  138.1170 C   0  0  0  0  0  2  0  0  0  0  0  0
  189.0740  173.5650  139.0670 C   0  0  0  0  0  3  0  0  0  0  0  0
  188.2360  172.5450  139.8170 C   0  0  0  0  0  1  0  0  0  0  0  0
  188.1820  174.5600  138.3410 C   0  0  0  0  0  1  0  0  0  0  0  0
  191.3760  176.1040  144.8310 N   0  0  0  0  0  2  0  0  0  0  0  0
  190.5440  178.0100  143.6170 C   0  0  0  0  0  2  0  0  0  0  0  0
  190.3190  176.8390  144.2010 C   0  0  0  0  0  0  0  0  0  0  0  0
  188.9340  176.2850  144.2230 C   0  0  0  0  0  2  0  0  0  0  0  0
  185.8760  177.7990  141.1320 C   0  0  0  0  0  3  0  0  0  0  0  0
  184.5250  178.1540  143.2530 C   0  0  0  0  0  3  0  0  0  0  0  0
  185.5810  177.7260  143.9540 C   0  0  0  0  0  0  0  0  0  0  0  0
  185.8330  178.0280  145.3860 C   0  0  2  0  0  0  0  0  0  0  0  0
  184.9070  177.2400  146.2930 C   0  0  0  0  0  1  0  0  0  0  0  0
  185.7020  179.3970  145.6330 O   0  0  0  0  0  1  0  0  0  0  0  0
  187.9000  177.4040  144.2090 C   0  0  1  0  0  3  0  0  0  0  0  0
  186.9180  177.3840  141.8620 C   0  0  0  0  0  3  0  0  0  0  0  0
  183.5480  178.2800  141.0920 O   0  0  0  0  0  0  0  0  0  0  0  0
  186.7340  177.0310  143.3200 C   0  0  2  0  0  3  0  0  0  0  0  0
  184.5760  178.0530  141.7840 C   0  0  0  0  0  0  0  0  0  0  0  0
  187.2840  177.6040  145.6030 C   0  0  0  0  0  2  0  0  0  0  0  0
  1  5  1  0  0  0  0
  1  4  1  0  0  0  0
  2  5  1  0  0  0  0
  3  2  1  6  0  0  0
  3  7  1  0  0  0  0
  6  2  2  0  0  0  0
  7 26  1  1  0  0  0
  7  4  1  0  0  0  0
  8 15  1  0  0  0  0
  9 12  1  0  0  0  0
 10  8  2  0  0  0  0
 13 18  1  6  0  0  0
 13  9  1  0  0  0  0
 13  8  1  0  0  0  0
 14 12  1  6  0  0  0
 14 17  1  0  0  0  0
 14  3  1  0  0  0  0
 15 11  1  6  0  0  0
 15 16  1  0  0  0  0
 16 17  1  0  0  0  0
 18 22  1  6  0  0  0
 20 21  2  0  0  0  0
 21 19  1  0  0  0  0
 21 18  1  0  0  0  0
 22 23  1  0  0  0  0
 23 24  1  0  0  0  0
 25 23  1  0  0  0  0
 27 28  2  0  0  0  0
 28 29  1  0  0  0  0
 28 26  1  0  0  0  0
 30 40  1  0  0  0  0
 30 37  2  0  0  0  0
 31 32  2  0  0  0  0
 32 33  1  0  0  0  0
 33 41  1  0  0  0  0
 33 35  1  0  0  0  0
 33 34  1  1  0  0  0
 36 29  1  1  0  0  0
 36 41  1  0  0  0  0
 38 40  2  0  0  0  0
 39 37  1  6  0  0  0
 39 32  1  0  0  0  0
 39 36  1  0  0  0  0
 40 31  1  0  0  0  0
M  END
>  <MODEL>
9

>  <REMARK>
 VINA RESULT:      -6.8      1.968      2.672
  Name = 
  9 active torsions:
  status: ('A' for Active; 'I' for Inactive)
    1  A    between atoms: N_1  and  C_40
    2  A    between atoms: N_1  and  C_41
    3  A    between atoms: C_3  and  C_12
    4  A    between atoms: C_3  and  C_27
    5  A    between atoms: C_13  and  C_29
    6  A    between atoms: C_22  and  C_30
    7  A    between atoms: C_27  and  C_28
    8  A    between atoms: C_27  and  C_37
    9  A    between atoms: C_29  and  C_41
                            x       y       z     vdW  Elec       q    Type
                         _______ _______ _______ _____ _____    ______ ____

>  <TORSDO>
F 9

$$$$
