=
 OpenBabel11062418443D

 43 44  0  0  1  0  0  0  0  0999 V2000
  193.1080  173.2610  144.7910 C   0  0  0  0  0  0  0  0  0  0  0  0
  196.4950  172.5960  145.9060 N   0  0  0  0  0  0  0  0  0  0  0  0
  195.1550  174.5850  145.6970 C   0  0  0  0  0  3  0  0  0  0  0  0
  194.4150  173.3640  145.2820 C   0  0  0  0  0  0  0  0  0  0  0  0
  193.4540  170.8420  144.5840 C   0  0  0  0  0  0  0  0  0  0  0  0
  195.2130  172.2670  145.4120 C   0  0  0  0  0  0  0  0  0  0  0  0
  192.6220  171.9880  144.4240 C   0  0  0  0  0  0  0  0  0  0  0  0
  192.9560  169.5790  144.2790 O   0  0  0  0  0  1  0  0  0  0  0  0
  194.7790  170.9860  145.0730 C   0  0  0  0  0  0  0  0  0  0  0  0
  196.5330  174.0410  146.1190 C   0  0  0  0  0  2  0  0  0  0  0  0
  195.7800  169.1230  146.4110 C   0  0  0  0  0  1  0  0  0  0  0  0
  195.6760  169.9190  145.2390 O   0  0  0  0  0  0  0  0  0  0  0  0
  191.3160  171.9060  143.9140 O   0  0  0  0  0  0  0  0  0  0  0  0
  190.9880  171.4680  142.6010 C   0  0  0  0  0  2  0  0  0  0  0  0
  189.9940  173.9460  142.0780 O   0  0  0  0  0  0  0  0  0  0  0  0
  188.2200  172.1470  142.7750 O   0  0  0  0  0  1  0  0  0  0  0  0
  189.6420  172.4830  141.9220 P   0  0  2  0  0  0  0  0  0  0  0  0
  189.4450  172.1110  140.2790 O   0  0  0  0  0  0  0  0  0  0  0  0
  190.6790  171.6150  139.8560 C   0  0  0  0  0  2  0  0  0  0  0  0
  192.3220  172.1920  138.2340 O   0  0  0  0  0  0  0  0  0  0  0  0
  190.6240  173.7090  138.4990 O   0  0  0  0  0  1  0  0  0  0  0  0
  191.2480  172.5070  138.8090 C   0  0  0  0  0  0  0  0  0  0  0  0
  192.2300  174.4750  144.6270 C   0  0  2  0  0  3  0  0  0  0  0  0
  192.8420  175.4970  143.6580 C   0  0  1  0  0  3  0  0  0  0  0  0
  193.3640  174.8220  142.3980 C   0  0  0  0  0  1  0  0  0  0  0  0
  191.8500  176.5960  143.2850 C   0  0  0  0  0  2  0  0  0  0  0  0
  192.0330  177.7270  144.0840 O   0  0  0  0  0  1  0  0  0  0  0  0
  191.9880  175.0540  145.8770 O   0  0  0  0  0  0  0  0  0  0  0  0
  190.7000  174.6410  146.2250 C   0  0  0  0  0  2  0  0  0  0  0  0
  189.9480  175.7920  146.8660 C   0  0  0  0  0  2  0  0  0  0  0  0
  188.5640  175.5880  146.7350 O   0  0  0  0  0  0  0  0  0  0  0  0
  187.9340  176.8280  146.4810 C   0  0  2  0  0  3  0  0  0  0  0  0
  186.4360  176.8580  146.8200 C   0  0  0  0  0  2  0  0  0  0  0  0
  185.8390  178.2700  146.8390 C   0  0  2  0  0  3  0  0  0  0  0  0
  186.3550  179.0310  147.8950 O   0  0  0  0  0  1  0  0  0  0  0  0
  184.4280  178.2610  146.8420 O   0  0  0  0  0  0  0  0  0  0  0  0
  183.9660  178.8230  145.6410 C   0  0  0  0  0  1  0  0  0  0  0  0
  188.3130  177.4780  145.1450 C   0  0  0  0  0  2  0  0  0  0  0  0
  187.9290  176.5930  143.9700 C   0  0  0  0  0  2  0  0  0  0  0  0
  186.4870  178.8570  142.9800 O   0  0  0  0  0  1  0  0  0  0  0  0
  187.5080  177.5940  142.5110 P   0  0  0  0  0  0  0  0  0  0  0  0
  186.8020  176.7380  141.4830 O   0  0  0  0  0  0  0  0  0  0  0  0
  188.9190  178.2370  141.8330 O   0  0  0  0  0  1  0  0  0  0  0  0
  1  4  1  0  0  0  0
  2 10  1  0  0  0  0
  3 10  1  0  0  0  0
  4  6  1  0  0  0  0
  4  3  2  0  0  0  0
  5  9  2  0  0  0  0
  6  2  2  0  0  0  0
  7  5  1  0  0  0  0
  7  1  2  0  0  0  0
  8  5  1  0  0  0  0
  9 12  1  0  0  0  0
  9  6  1  0  0  0  0
 12 11  1  0  0  0  0
 13  7  1  0  0  0  0
 14 13  1  0  0  0  0
 17 15  2  1  0  0  0
 17 14  1  0  0  0  0
 17 16  1  0  0  0  0
 18 17  1  0  0  0  0
 19 18  1  0  0  0  0
 20 22  2  0  0  0  0
 21 22  1  0  0  0  0
 22 19  1  0  0  0  0
 23  1  1  0  0  0  0
 23 28  1  1  0  0  0
 24 25  1  6  0  0  0
 24 23  1  0  0  0  0
 26 24  1  0  0  0  0
 26 27  1  0  0  0  0
 28 29  1  0  0  0  0
 29 30  1  0  0  0  0
 31 30  1  0  0  0  0
 32 38  1  6  0  0  0
 32 31  1  0  0  0  0
 32 33  1  0  0  0  0
 33 34  1  0  0  0  0
 34 36  1  0  0  0  0
 34 35  1  1  0  0  0
 37 36  1  0  0  0  0
 39 38  1  0  0  0  0
 41 40  1  0  0  0  0
 41 39  1  0  0  0  0
 42 41  2  0  0  0  0
 43 41  1  0  0  0  0
M  END
>  <MODEL>
1

>  <REMARK>
 VINA RESULT:      -5.3      0.000      0.000
  Name = 
  21 active torsions:
  status: ('A' for Active; 'I' for Inactive)
    1  A    between atoms: O_1  and  C_11
    2  A    between atoms: O_2  and  C_24
    3  A    between atoms: O_2  and  C_34
    4  A    between atoms: O_3  and  C_14
    5  A    between atoms: O_3  and  C_23
    6  A    between atoms: C_4  and  C_8
    7  A    between atoms: C_4  and  P_22
    8  A    between atoms: C_5  and  C_34
    9  A    between atoms: O_6  and  C_30
   10  A    between atoms: O_6  and  P_36
   11  A    between atoms: C_8  and  C_14
   12  A    between atoms: C_11  and  C_40
   13  A    between atoms: C_14  and  C_40
   14  A    between atoms: O_18  and  C_42
   15  A    between atoms: C_19  and  C_32
   16  A    between atoms: C_19  and  C_34
   17  A    between atoms: C_23  and  C_24
   18  A    between atoms: C_25  and  P_36
   19  A    between atoms: C_25  and  O_38
   20  A    between atoms: C_30  and  C_33
   21  A    between atoms: C_37  and  O_38
                            x       y       z     vdW  Elec       q    Type
                         _______ _______ _______ _____ _____    ______ ____

>  <TORSDO>
F 21

$$$$
=
 OpenBabel11062418443D

 43 44  0  0  1  0  0  0  0  0999 V2000
  192.8550  175.2280  143.7500 C   0  0  0  0  0  0  0  0  0  0  0  0
  196.3710  176.1210  143.7620 N   0  0  0  0  0  0  0  0  0  0  0  0
  194.4240  176.9480  144.9100 C   0  0  0  0  0  3  0  0  0  0  0  0
  194.1020  175.8130  144.0050 C   0  0  0  0  0  0  0  0  0  0  0  0
  193.9700  173.7130  142.1770 C   0  0  0  0  0  0  0  0  0  0  0  0
  195.2300  175.3820  143.3740 C   0  0  0  0  0  0  0  0  0  0  0  0
  192.7820  174.1730  142.8160 C   0  0  0  0  0  0  0  0  0  0  0  0
  193.9090  172.6330  141.3020 O   0  0  0  0  0  1  0  0  0  0  0  0
  195.2150  174.3390  142.4510 C   0  0  0  0  0  0  0  0  0  0  0  0
  195.9450  177.1210  144.7370 C   0  0  0  0  0  2  0  0  0  0  0  0
  196.8830  174.4360  140.5880 C   0  0  0  0  0  1  0  0  0  0  0  0
  196.4290  173.9690  141.8500 O   0  0  0  0  0  0  0  0  0  0  0  0
  191.5210  173.6110  142.5580 O   0  0  0  0  0  0  0  0  0  0  0  0
  190.7810  173.8070  141.3590 C   0  0  0  0  0  2  0  0  0  0  0  0
  188.1410  173.2160  141.6500 O   0  0  0  0  0  0  0  0  0  0  0  0
  189.8010  171.2870  142.2770 O   0  0  0  0  0  1  0  0  0  0  0  0
  189.4490  172.5750  141.2400 P   0  0  2  0  0  0  0  0  0  0  0  0
  189.3440  172.0300  139.6370 O   0  0  0  0  0  0  0  0  0  0  0  0
  188.1820  172.6060  139.1200 C   0  0  0  0  0  2  0  0  0  0  0  0
  189.6180  173.8090  137.6510 O   0  0  0  0  0  0  0  0  0  0  0  0
  187.6950  174.8980  138.2590 O   0  0  0  0  0  1  0  0  0  0  0  0
  188.5350  173.7910  138.2910 C   0  0  0  0  0  0  0  0  0  0  0  0
  191.6020  175.7150  144.4310 C   0  0  2  0  0  3  0  0  0  0  0  0
  191.1410  174.7540  145.5380 C   0  0  1  0  0  3  0  0  0  0  0  0
  191.6660  175.1860  146.8990 C   0  0  0  0  0  1  0  0  0  0  0  0
  189.6210  174.6250  145.5850 C   0  0  0  0  0  2  0  0  0  0  0  0
  189.1940  174.2130  146.8500 O   0  0  0  0  0  1  0  0  0  0  0  0
  190.5920  175.9030  143.4810 O   0  0  0  0  0  0  0  0  0  0  0  0
  190.7760  177.2050  143.0090 C   0  0  0  0  0  2  0  0  0  0  0  0
  189.6540  178.0950  143.5070 C   0  0  0  0  0  2  0  0  0  0  0  0
  188.5350  177.9670  142.6680 O   0  0  0  0  0  0  0  0  0  0  0  0
  187.3640  177.9330  143.4580 C   0  0  2  0  0  3  0  0  0  0  0  0
  186.3290  179.0110  143.1020 C   0  0  0  0  0  2  0  0  0  0  0  0
  185.1190  178.4710  142.3290 C   0  0  2  0  0  3  0  0  0  0  0  0
  184.0530  178.1760  143.1870 O   0  0  0  0  0  1  0  0  0  0  0  0
  185.4490  177.3720  141.5080 O   0  0  0  0  0  0  0  0  0  0  0  0
  185.5950  177.8200  140.1850 C   0  0  0  0  0  1  0  0  0  0  0  0
  187.6080  177.7350  144.9590 C   0  0  0  0  0  2  0  0  0  0  0  0
  186.4660  176.9690  145.6090 C   0  0  0  0  0  2  0  0  0  0  0  0
  183.8960  177.8120  146.5440 O   0  0  0  0  0  1  0  0  0  0  0  0
  185.5570  178.0260  146.7780 P   0  0  0  0  0  0  0  0  0  0  0  0
  185.9100  179.4780  146.5430 O   0  0  0  0  0  0  0  0  0  0  0  0
  185.9590  177.6000  148.3650 O   0  0  0  0  0  1  0  0  0  0  0  0
  1  4  1  0  0  0  0
  1 23  1  0  0  0  0
  2 10  1  0  0  0  0
  4  3  2  0  0  0  0
  5  9  2  0  0  0  0
  5  7  1  0  0  0  0
  6  2  2  0  0  0  0
  6  4  1  0  0  0  0
  7  1  2  0  0  0  0
  8  5  1  0  0  0  0
  9  6  1  0  0  0  0
 10  3  1  0  0  0  0
 11 12  1  0  0  0  0
 12  9  1  0  0  0  0
 13  7  1  0  0  0  0
 14 13  1  0  0  0  0
 17 14  1  0  0  0  0
 17 15  2  1  0  0  0
 17 16  1  0  0  0  0
 18 17  1  0  0  0  0
 19 18  1  0  0  0  0
 20 22  2  0  0  0  0
 21 22  1  0  0  0  0
 22 19  1  0  0  0  0
 23 28  1  6  0  0  0
 23 24  1  0  0  0  0
 24 26  1  0  0  0  0
 24 25  1  1  0  0  0
 26 27  1  0  0  0  0
 29 28  1  0  0  0  0
 29 30  1  0  0  0  0
 31 32  1  0  0  0  0
 31 30  1  0  0  0  0
 32 33  1  1  0  0  0
 32 38  1  0  0  0  0
 34 33  1  0  0  0  0
 34 35  1  1  0  0  0
 36 34  1  0  0  0  0
 37 36  1  0  0  0  0
 38 39  1  0  0  0  0
 39 41  1  0  0  0  0
 40 41  1  0  0  0  0
 41 43  1  0  0  0  0
 42 41  2  0  0  0  0
M  END
>  <MODEL>
2

>  <REMARK>
 VINA RESULT:      -5.3      2.669      3.992
  Name = 
  21 active torsions:
  status: ('A' for Active; 'I' for Inactive)
    1  A    between atoms: O_1  and  C_11
    2  A    between atoms: O_2  and  C_24
    3  A    between atoms: O_2  and  C_34
    4  A    between atoms: O_3  and  C_14
    5  A    between atoms: O_3  and  C_23
    6  A    between atoms: C_4  and  C_8
    7  A    between atoms: C_4  and  P_22
    8  A    between atoms: C_5  and  C_34
    9  A    between atoms: O_6  and  C_30
   10  A    between atoms: O_6  and  P_36
   11  A    between atoms: C_8  and  C_14
   12  A    between atoms: C_11  and  C_40
   13  A    between atoms: C_14  and  C_40
   14  A    between atoms: O_18  and  C_42
   15  A    between atoms: C_19  and  C_32
   16  A    between atoms: C_19  and  C_34
   17  A    between atoms: C_23  and  C_24
   18  A    between atoms: C_25  and  P_36
   19  A    between atoms: C_25  and  O_38
   20  A    between atoms: C_30  and  C_33
   21  A    between atoms: C_37  and  O_38
                            x       y       z     vdW  Elec       q    Type
                         _______ _______ _______ _____ _____    ______ ____

>  <TORSDO>
F 21

$$$$
=
 OpenBabel11062418443D

 43 44  0  0  1  0  0  0  0  0999 V2000
  188.0630  176.8010  144.7070 C   0  0  0  0  0  0  0  0  0  0  0  0
  185.0620  178.2150  146.1750 N   0  0  0  0  0  0  0  0  0  0  0  0
  187.2290  177.6130  147.0330 C   0  0  0  0  0  3  0  0  0  0  0  0
  187.1100  177.3500  145.5750 C   0  0  0  0  0  0  0  0  0  0  0  0
  186.4210  176.9980  142.8970 C   0  0  0  0  0  0  0  0  0  0  0  0
  185.8690  177.7000  145.1350 C   0  0  0  0  0  0  0  0  0  0  0  0
  187.7130  176.6090  143.3540 C   0  0  0  0  0  0  0  0  0  0  0  0
  186.0960  176.8660  141.5510 O   0  0  0  0  0  1  0  0  0  0  0  0
  185.4760  177.5410  143.8070 C   0  0  0  0  0  0  0  0  0  0  0  0
  185.8530  178.2010  147.4020 C   0  0  0  0  0  2  0  0  0  0  0  0
  183.7700  178.3030  142.1430 C   0  0  0  0  0  1  0  0  0  0  0  0
  184.1740  177.9280  143.4520 O   0  0  0  0  0  0  0  0  0  0  0  0
  188.6740  176.0380  142.5020 O   0  0  0  0  0  0  0  0  0  0  0  0
  188.4250  174.9480  141.6220 C   0  0  0  0  0  2  0  0  0  0  0  0
  189.7280  172.8500  142.7620 O   0  0  0  0  0  1  0  0  0  0  0  0
  191.2680  174.7280  141.7770 O   0  0  0  0  0  0  0  0  0  0  0  0
  189.8510  173.8200  141.6080 P   0  0  2  0  0  0  0  0  0  0  0  0
  189.8670  172.9700  140.1410 O   0  0  0  0  0  0  0  0  0  0  0  0
  191.0420  173.3580  139.4950 C   0  0  0  0  0  2  0  0  0  0  0  0
  191.7280  172.8590  137.2710 O   0  0  0  0  0  0  0  0  0  0  0  0
  189.6860  173.8800  137.4660 O   0  0  0  0  0  1  0  0  0  0  0  0
  190.8370  173.3350  138.0210 C   0  0  0  0  0  0  0  0  0  0  0  0
  189.4300  176.3940  145.1940 C   0  0  2  0  0  3  0  0  0  0  0  0
  189.3510  175.5170  146.4530 C   0  0  1  0  0  3  0  0  0  0  0  0
  189.5870  174.0500  146.1210 C   0  0  0  0  0  1  0  0  0  0  0  0
  190.3360  175.9710  147.5270 C   0  0  0  0  0  2  0  0  0  0  0  0
  191.5060  175.2080  147.4870 O   0  0  0  0  0  1  0  0  0  0  0  0
  190.2060  177.5340  145.4270 O   0  0  0  0  0  0  0  0  0  0  0  0
  191.0660  177.6190  144.3300 C   0  0  0  0  0  2  0  0  0  0  0  0
  192.4820  177.2850  144.7600 C   0  0  0  0  0  2  0  0  0  0  0  0
  192.7400  175.9230  144.5310 O   0  0  0  0  0  0  0  0  0  0  0  0
  194.1350  175.6990  144.5920 C   0  0  2  0  0  3  0  0  0  0  0  0
  194.8080  175.5240  143.2230 C   0  0  0  0  0  2  0  0  0  0  0  0
  195.9790  176.4860  142.9870 C   0  0  2  0  0  3  0  0  0  0  0  0
  196.0570  176.8810  141.6470 O   0  0  0  0  0  1  0  0  0  0  0  0
  197.2060  175.9680  143.4510 O   0  0  0  0  0  0  0  0  0  0  0  0
  197.9380  175.4790  142.3570 C   0  0  0  0  0  1  0  0  0  0  0  0
  194.5770  174.6990  145.6690 C   0  0  0  0  0  2  0  0  0  0  0  0
  194.6110  173.2800  145.1240 C   0  0  0  0  0  2  0  0  0  0  0  0
  197.0210  172.4630  143.8150 O   0  0  0  0  0  0  0  0  0  0  0  0
  196.2640  172.5460  145.3250 P   0  0  0  0  0  0  0  0  0  0  0  0
  196.1430  171.1530  145.9000 O   0  0  0  0  0  1  0  0  0  0  0  0
  197.1920  173.5050  146.3650 O   0  0  0  0  0  1  0  0  0  0  0  0
  1 23  1  0  0  0  0
  1  4  1  0  0  0  0
  2 10  1  0  0  0  0
  3 10  1  0  0  0  0
  4  3  2  0  0  0  0
  5  7  1  0  0  0  0
  5  9  2  0  0  0  0
  6  4  1  0  0  0  0
  6  2  2  0  0  0  0
  7  1  2  0  0  0  0
  8  5  1  0  0  0  0
  9  6  1  0  0  0  0
 11 12  1  0  0  0  0
 12  9  1  0  0  0  0
 13  7  1  0  0  0  0
 14 13  1  0  0  0  0
 17 14  1  0  0  0  0
 17 16  2  1  0  0  0
 17 15  1  0  0  0  0
 18 17  1  0  0  0  0
 19 18  1  0  0  0  0
 20 22  2  0  0  0  0
 21 22  1  0  0  0  0
 22 19  1  0  0  0  0
 23 28  1  1  0  0  0
 23 24  1  0  0  0  0
 24 25  1  6  0  0  0
 24 26  1  0  0  0  0
 27 26  1  0  0  0  0
 29 30  1  0  0  0  0
 29 28  1  0  0  0  0
 31 32  1  0  0  0  0
 31 30  1  0  0  0  0
 32 33  1  6  0  0  0
 32 38  1  0  0  0  0
 34 35  1  6  0  0  0
 34 33  1  0  0  0  0
 34 36  1  0  0  0  0
 37 36  1  0  0  0  0
 39 41  1  0  0  0  0
 39 38  1  0  0  0  0
 40 41  2  0  0  0  0
 41 42  1  0  0  0  0
 41 43  1  0  0  0  0
M  END
>  <MODEL>
3

>  <REMARK>
 VINA RESULT:      -5.3      3.128      8.419
  Name = 
  21 active torsions:
  status: ('A' for Active; 'I' for Inactive)
    1  A    between atoms: O_1  and  C_11
    2  A    between atoms: O_2  and  C_24
    3  A    between atoms: O_2  and  C_34
    4  A    between atoms: O_3  and  C_14
    5  A    between atoms: O_3  and  C_23
    6  A    between atoms: C_4  and  C_8
    7  A    between atoms: C_4  and  P_22
    8  A    between atoms: C_5  and  C_34
    9  A    between atoms: O_6  and  C_30
   10  A    between atoms: O_6  and  P_36
   11  A    between atoms: C_8  and  C_14
   12  A    between atoms: C_11  and  C_40
   13  A    between atoms: C_14  and  C_40
   14  A    between atoms: O_18  and  C_42
   15  A    between atoms: C_19  and  C_32
   16  A    between atoms: C_19  and  C_34
   17  A    between atoms: C_23  and  C_24
   18  A    between atoms: C_25  and  P_36
   19  A    between atoms: C_25  and  O_38
   20  A    between atoms: C_30  and  C_33
   21  A    between atoms: C_37  and  O_38
                            x       y       z     vdW  Elec       q    Type
                         _______ _______ _______ _____ _____    ______ ____

>  <TORSDO>
F 21

$$$$
=
 OpenBabel11062418443D

 43 44  0  0  1  0  0  0  0  0999 V2000
  188.2780  176.5970  143.3540 C   0  0  0  0  0  0  0  0  0  0  0  0
  185.7800  178.3190  141.3660 N   0  0  0  0  0  0  0  0  0  0  0  0
  187.5480  176.7650  140.8640 C   0  0  0  0  0  3  0  0  0  0  0  0
  187.4670  177.0720  142.3160 C   0  0  0  0  0  0  0  0  0  0  0  0
  186.9640  177.9640  144.9080 C   0  0  0  0  0  0  0  0  0  0  0  0
  186.4580  177.9570  142.5520 C   0  0  0  0  0  0  0  0  0  0  0  0
  188.0350  177.0560  144.6650 C   0  0  1  0  0  3  0  0  0  0  0  0
  186.6840  178.3710  146.2090 O   0  0  0  0  0  1  0  0  0  0  0  0
  186.1700  178.4340  143.8290 C   0  0  0  0  0  0  0  0  0  0  0  0
  186.4040  177.6000  140.2580 C   0  0  0  0  0  3  0  0  0  0  0  0
  183.8080  179.0110  144.4210 C   0  0  0  0  0  1  0  0  0  0  0  0
  185.1120  179.3470  143.9700 O   0  0  0  0  0  0  0  0  0  0  0  0
  188.8710  176.5860  145.6920 O   0  0  0  0  0  0  0  0  0  0  0  0
  189.7290  177.4070  146.4740 C   0  0  0  0  0  2  0  0  0  0  0  0
  190.2850  175.0860  147.7790 O   0  0  0  0  0  0  0  0  0  0  0  0
  191.4780  177.2190  148.7240 O   0  0  0  0  0  1  0  0  0  0  0  0
  190.9430  176.3800  147.3560 P   0  0  2  0  0  0  0  0  0  0  0  0
  192.2440  176.0530  146.3190 O   0  0  0  0  0  0  0  0  0  0  0  0
  193.3810  176.5150  146.9850 C   0  0  0  0  0  2  0  0  0  0  0  0
  195.2440  175.2410  146.2320 O   0  0  0  0  0  1  0  0  0  0  0  0
  195.0060  177.3040  145.2630 O   0  0  0  0  0  0  0  0  0  0  0  0
  194.5830  176.3070  146.1330 C   0  0  0  0  0  0  0  0  0  0  0  0
  189.4080  175.6340  143.0940 C   0  0  2  0  0  3  0  0  0  0  0  0
  189.0430  174.2000  143.5060 C   0  0  1  0  0  3  0  0  0  0  0  0
  188.9930  173.2730  142.3000 C   0  0  0  0  0  1  0  0  0  0  0  0
  190.0100  173.6420  144.5480 C   0  0  0  0  0  2  0  0  0  0  0  0
  189.6380  172.3510  144.9340 O   0  0  0  0  0  1  0  0  0  0  0  0
  190.5590  176.0670  143.7600 O   0  0  0  0  0  0  0  0  0  0  0  0
  191.3280  176.7010  142.7810 C   0  0  0  0  0  2  0  0  0  0  0  0
  192.7520  176.1810  142.8300 C   0  0  0  0  0  2  0  0  0  0  0  0
  192.9390  175.2110  141.8300 O   0  0  0  0  0  0  0  0  0  0  0  0
  194.3240  175.0200  141.6230 C   0  0  2  0  0  3  0  0  0  0  0  0
  194.9150  175.8590  140.4800 C   0  0  0  0  0  2  0  0  0  0  0  0
  195.0800  175.0810  139.1690 C   0  0  2  0  0  3  0  0  0  0  0  0
  196.3610  175.2470  138.6310 O   0  0  0  0  0  1  0  0  0  0  0  0
  194.0740  175.3870  138.2280 O   0  0  0  0  0  0  0  0  0  0  0  0
  193.2210  174.2800  138.0960 C   0  0  0  0  0  1  0  0  0  0  0  0
  194.7820  173.5560  141.6610 C   0  0  0  0  0  2  0  0  0  0  0  0
  195.1240  173.1210  143.0780 C   0  0  0  0  0  2  0  0  0  0  0  0
  192.5060  172.0350  142.6910 O   0  0  0  0  0  0  0  0  0  0  0  0
  193.7970  172.0960  143.7820 P   0  0  0  0  0  0  0  0  0  0  0  0
  193.3200  172.6940  145.0860 O   0  0  0  0  0  1  0  0  0  0  0  0
  194.3710  170.5280  144.0580 O   0  0  0  0  0  1  0  0  0  0  0  0
  1  7  1  0  0  0  0
  2  6  2  0  0  0  0
  3  4  1  0  0  0  0
  4  6  1  0  0  0  0
  4  1  2  0  0  0  0
  5  8  1  0  0  0  0
  6  9  1  0  0  0  0
  7  5  1  0  0  0  0
  7 13  1  1  0  0  0
  9 12  1  0  0  0  0
  9  5  2  0  0  0  0
 10  3  2  0  0  0  0
 10  2  1  0  0  0  0
 12 11  1  0  0  0  0
 13 14  1  0  0  0  0
 14 17  1  0  0  0  0
 17 15  2  1  0  0  0
 17 16  1  0  0  0  0
 18 19  1  0  0  0  0
 18 17  1  0  0  0  0
 21 22  2  0  0  0  0
 22 20  1  0  0  0  0
 22 19  1  0  0  0  0
 23  1  1  0  0  0  0
 23 24  1  0  0  0  0
 23 28  1  1  0  0  0
 24 25  1  6  0  0  0
 24 26  1  0  0  0  0
 26 27  1  0  0  0  0
 29 30  1  0  0  0  0
 29 28  1  0  0  0  0
 31 30  1  0  0  0  0
 32 33  1  6  0  0  0
 32 38  1  0  0  0  0
 32 31  1  0  0  0  0
 34 35  1  6  0  0  0
 34 33  1  0  0  0  0
 36 34  1  0  0  0  0
 37 36  1  0  0  0  0
 38 39  1  0  0  0  0
 39 41  1  0  0  0  0
 40 41  2  0  0  0  0
 41 43  1  0  0  0  0
 41 42  1  0  0  0  0
M  END
>  <MODEL>
4

>  <REMARK>
 VINA RESULT:      -5.3      3.361      9.151
  Name = 
  21 active torsions:
  status: ('A' for Active; 'I' for Inactive)
    1  A    between atoms: O_1  and  C_11
    2  A    between atoms: O_2  and  C_24
    3  A    between atoms: O_2  and  C_34
    4  A    between atoms: O_3  and  C_14
    5  A    between atoms: O_3  and  C_23
    6  A    between atoms: C_4  and  C_8
    7  A    between atoms: C_4  and  P_22
    8  A    between atoms: C_5  and  C_34
    9  A    between atoms: O_6  and  C_30
   10  A    between atoms: O_6  and  P_36
   11  A    between atoms: C_8  and  C_14
   12  A    between atoms: C_11  and  C_40
   13  A    between atoms: C_14  and  C_40
   14  A    between atoms: O_18  and  C_42
   15  A    between atoms: C_19  and  C_32
   16  A    between atoms: C_19  and  C_34
   17  A    between atoms: C_23  and  C_24
   18  A    between atoms: C_25  and  P_36
   19  A    between atoms: C_25  and  O_38
   20  A    between atoms: C_30  and  C_33
   21  A    between atoms: C_37  and  O_38
                            x       y       z     vdW  Elec       q    Type
                         _______ _______ _______ _____ _____    ______ ____

>  <TORSDO>
F 21

$$$$
=
 OpenBabel11062418443D

 43 44  0  0  1  0  0  0  0  0999 V2000
  192.1730  175.6580  144.1410 C   0  0  0  0  0  0  0  0  0  0  0  0
  195.6860  176.5520  143.9890 N   0  0  0  0  0  0  0  0  0  0  0  0
  193.9100  176.9790  145.5570 C   0  0  0  0  0  3  0  0  0  0  0  0
  193.4550  176.1580  144.4030 C   0  0  0  0  0  0  0  0  0  0  0  0
  193.0560  174.6880  142.0690 C   0  0  0  0  0  0  0  0  0  0  0  0
  194.4900  175.9460  143.5430 C   0  0  0  0  0  0  0  0  0  0  0  0
  191.9650  174.9250  142.9540 C   0  0  0  0  0  0  0  0  0  0  0  0
  192.8660  173.9150  140.9280 O   0  0  0  0  0  1  0  0  0  0  0  0
  194.3390  175.2210  142.3620 C   0  0  0  0  0  0  0  0  0  0  0  0
  195.4030  177.2150  145.2590 C   0  0  0  0  0  2  0  0  0  0  0  0
  196.3140  173.9220  141.5400 C   0  0  0  0  0  1  0  0  0  0  0  0
  195.4650  175.0600  141.5370 O   0  0  0  0  0  0  0  0  0  0  0  0
  190.6680  174.4490  142.6950 O   0  0  0  0  0  0  0  0  0  0  0  0
  190.3740  173.2810  141.9370 C   0  0  0  0  0  2  0  0  0  0  0  0
  188.9830  171.9070  143.8290 O   0  0  0  0  0  0  0  0  0  0  0  0
  191.5900  171.8520  144.0900 O   0  0  0  0  0  1  0  0  0  0  0  0
  190.2680  171.8360  143.0350 P   0  0  2  0  0  0  0  0  0  0  0  0
  190.2850  170.4260  142.0920 O   0  0  0  0  0  0  0  0  0  0  0  0
  191.5610  170.3640  141.5300 C   0  0  0  0  0  2  0  0  0  0  0  0
  192.0240  171.1110  139.3180 O   0  0  0  0  0  0  0  0  0  0  0  0
  190.6890  169.2550  139.4710 O   0  0  0  0  0  1  0  0  0  0  0  0
  191.4540  170.2610  140.0490 C   0  0  0  0  0  0  0  0  0  0  0  0
  191.0220  175.9070  145.0800 C   0  0  2  0  0  3  0  0  0  0  0  0
  190.9190  174.8200  146.1600 C   0  0  1  0  0  3  0  0  0  0  0  0
  191.3650  175.3430  147.5180 C   0  0  0  0  0  1  0  0  0  0  0  0
  189.5060  174.2490  146.2630 C   0  0  0  0  0  2  0  0  0  0  0  0
  188.9970  174.4060  147.5540 O   0  0  0  0  0  1  0  0  0  0  0  0
  189.8310  176.0030  144.3530 O   0  0  0  0  0  0  0  0  0  0  0  0
  189.4750  177.3520  144.4150 C   0  0  0  0  0  2  0  0  0  0  0  0
  188.1500  177.5000  145.1390 C   0  0  0  0  0  2  0  0  0  0  0  0
  187.4290  178.5770  144.5950 O   0  0  0  0  0  0  0  0  0  0  0  0
  186.0850  178.1850  144.4020 C   0  0  2  0  0  3  0  0  0  0  0  0
  185.6550  176.9670  145.2350 C   0  0  0  0  0  2  0  0  0  0  0  0
  184.8660  177.3330  146.4970 C   0  0  2  0  0  3  0  0  0  0  0  0
  184.1620  178.5320  146.3330 O   0  0  0  0  0  1  0  0  0  0  0  0
  185.6740  177.3560  147.6530 O   0  0  0  0  0  0  0  0  0  0  0  0
  186.0500  178.6820  147.9210 C   0  0  0  0  0  1  0  0  0  0  0  0
  185.6240  178.1700  142.9390 C   0  0  0  0  0  2  0  0  0  0  0  0
  185.9360  176.8370  142.2750 C   0  0  0  0  0  2  0  0  0  0  0  0
  188.2380  178.2670  141.3560 O   0  0  0  0  0  1  0  0  0  0  0  0
  187.1460  177.0470  140.9340 P   0  0  0  0  0  0  0  0  0  0  0  0
  186.4370  177.4330  139.6550 O   0  0  0  0  0  0  0  0  0  0  0  0
  187.9900  175.5990  140.6940 O   0  0  0  0  0  1  0  0  0  0  0  0
  1  4  1  0  0  0  0
  1 23  1  0  0  0  0
  2 10  1  0  0  0  0
  4  3  2  0  0  0  0
  5  9  2  0  0  0  0
  5  7  1  0  0  0  0
  6  2  2  0  0  0  0
  6  4  1  0  0  0  0
  7  1  2  0  0  0  0
  8  5  1  0  0  0  0
  9  6  1  0  0  0  0
 10  3  1  0  0  0  0
 12 11  1  0  0  0  0
 12  9  1  0  0  0  0
 13  7  1  0  0  0  0
 14 13  1  0  0  0  0
 14 17  1  0  0  0  0
 17 15  2  1  0  0  0
 17 16  1  0  0  0  0
 18 17  1  0  0  0  0
 19 18  1  0  0  0  0
 20 22  2  0  0  0  0
 21 22  1  0  0  0  0
 22 19  1  0  0  0  0
 23 28  1  6  0  0  0
 23 24  1  0  0  0  0
 24 26  1  0  0  0  0
 24 25  1  1  0  0  0
 26 27  1  0  0  0  0
 28 29  1  0  0  0  0
 29 30  1  0  0  0  0
 31 30  1  0  0  0  0
 32 38  1  6  0  0  0
 32 31  1  0  0  0  0
 32 33  1  0  0  0  0
 33 34  1  0  0  0  0
 34 35  1  6  0  0  0
 34 36  1  0  0  0  0
 36 37  1  0  0  0  0
 39 38  1  0  0  0  0
 41 40  1  0  0  0  0
 41 39  1  0  0  0  0
 42 41  2  0  0  0  0
 43 41  1  0  0  0  0
M  END
>  <MODEL>
5

>  <REMARK>
 VINA RESULT:      -5.2      2.550      3.555
  Name = 
  21 active torsions:
  status: ('A' for Active; 'I' for Inactive)
    1  A    between atoms: O_1  and  C_11
    2  A    between atoms: O_2  and  C_24
    3  A    between atoms: O_2  and  C_34
    4  A    between atoms: O_3  and  C_14
    5  A    between atoms: O_3  and  C_23
    6  A    between atoms: C_4  and  C_8
    7  A    between atoms: C_4  and  P_22
    8  A    between atoms: C_5  and  C_34
    9  A    between atoms: O_6  and  C_30
   10  A    between atoms: O_6  and  P_36
   11  A    between atoms: C_8  and  C_14
   12  A    between atoms: C_11  and  C_40
   13  A    between atoms: C_14  and  C_40
   14  A    between atoms: O_18  and  C_42
   15  A    between atoms: C_19  and  C_32
   16  A    between atoms: C_19  and  C_34
   17  A    between atoms: C_23  and  C_24
   18  A    between atoms: C_25  and  P_36
   19  A    between atoms: C_25  and  O_38
   20  A    between atoms: C_30  and  C_33
   21  A    between atoms: C_37  and  O_38
                            x       y       z     vdW  Elec       q    Type
                         _______ _______ _______ _____ _____    ______ ____

>  <TORSDO>
F 21

$$$$
=
 OpenBabel11062418443D

 43 44  0  0  1  0  0  0  0  0999 V2000
  194.3170  173.3490  143.8090 C   0  0  0  0  0  0  0  0  0  0  0  0
  196.6730  172.2050  146.3190 N   0  0  0  0  0  0  0  0  0  0  0  0
  196.4540  174.2150  145.0120 C   0  0  0  0  0  3  0  0  0  0  0  0
  195.3720  173.2370  144.7230 C   0  0  0  0  0  0  0  0  0  0  0  0
  193.5870  171.1090  144.4880 C   0  0  0  0  0  0  0  0  0  0  0  0
  195.5400  172.1160  145.4800 C   0  0  0  0  0  0  0  0  0  0  0  0
  193.4200  172.2690  143.6780 C   0  0  0  0  0  0  0  0  0  0  0  0
  192.6680  170.0680  144.4030 O   0  0  0  0  0  1  0  0  0  0  0  0
  194.6760  171.0250  145.3960 C   0  0  0  0  0  0  0  0  0  0  0  0
  197.2980  173.5040  146.0890 C   0  0  0  0  0  2  0  0  0  0  0  0
  195.6360  168.7510  145.8020 C   0  0  0  0  0  1  0  0  0  0  0  0
  194.9340  169.9140  146.2150 O   0  0  0  0  0  0  0  0  0  0  0  0
  192.3800  172.3890  142.7410 O   0  0  0  0  0  0  0  0  0  0  0  0
  192.3320  171.7040  141.4950 C   0  0  0  0  0  2  0  0  0  0  0  0
  189.8250  171.2670  142.4570 O   0  0  0  0  0  1  0  0  0  0  0  0
  190.8930  169.2610  141.1530 O   0  0  0  0  0  0  0  0  0  0  0  0
  190.6990  170.9370  141.2680 P   0  0  2  0  0  0  0  0  0  0  0  0
  189.9960  171.5480  139.8500 O   0  0  0  0  0  0  0  0  0  0  0  0
  189.3670  172.7370  140.2240 C   0  0  0  0  0  2  0  0  0  0  0  0
  190.1430  173.6750  138.1790 O   0  0  0  0  0  0  0  0  0  0  0  0
  188.1080  174.4380  138.9020 O   0  0  0  0  0  1  0  0  0  0  0  0
  189.2270  173.6260  139.0390 C   0  0  0  0  0  0  0  0  0  0  0  0
  194.1410  174.5780  142.9560 C   0  0  2  0  0  3  0  0  0  0  0  0
  195.3930  174.8770  142.1170 C   0  0  1  0  0  3  0  0  0  0  0  0
  195.3460  174.1590  140.7760 C   0  0  0  0  0  1  0  0  0  0  0  0
  195.5880  176.3750  141.8970 C   0  0  0  0  0  2  0  0  0  0  0  0
  194.7250  176.8510  140.9060 O   0  0  0  0  0  1  0  0  0  0  0  0
  193.8100  175.6700  143.7650 O   0  0  0  0  0  0  0  0  0  0  0  0
  192.4220  175.7930  143.6590 C   0  0  0  0  0  2  0  0  0  0  0  0
  192.0070  177.2150  143.9830 C   0  0  0  0  0  2  0  0  0  0  0  0
  190.9940  177.6270  143.0990 O   0  0  0  0  0  0  0  0  0  0  0  0
  189.7340  177.3260  143.6650 C   0  0  2  0  0  3  0  0  0  0  0  0
  188.5380  177.8800  142.8760 C   0  0  0  0  0  2  0  0  0  0  0  0
  187.7630  176.8070  142.1020 C   0  0  2  0  0  3  0  0  0  0  0  0
  188.3440  175.5430  142.2550 O   0  0  0  0  0  1  0  0  0  0  0  0
  187.5870  177.1400  140.7430 O   0  0  0  0  0  0  0  0  0  0  0  0
  186.2770  177.6090  140.5540 C   0  0  0  0  0  1  0  0  0  0  0  0
  189.6530  177.5090  145.1860 C   0  0  0  0  0  2  0  0  0  0  0  0
  188.7070  176.4980  145.8150 C   0  0  0  0  0  2  0  0  0  0  0  0
  189.7940  173.9210  145.2070 O   0  0  0  0  0  0  0  0  0  0  0  0
  189.6220  175.0580  146.4470 P   0  0  0  0  0  0  0  0  0  0  0  0
  188.8650  174.4310  147.5970 O   0  0  0  0  0  1  0  0  0  0  0  0
  191.1530  175.5420  146.9790 O   0  0  0  0  0  1  0  0  0  0  0  0
  1  4  1  0  0  0  0
  3 10  1  0  0  0  0
  4  3  2  0  0  0  0
  4  6  1  0  0  0  0
  5  9  2  0  0  0  0
  6  2  2  0  0  0  0
  7  1  2  0  0  0  0
  7  5  1  0  0  0  0
  8  5  1  0  0  0  0
  9  6  1  0  0  0  0
  9 12  1  0  0  0  0
 10  2  1  0  0  0  0
 11 12  1  0  0  0  0
 13  7  1  0  0  0  0
 14 13  1  0  0  0  0
 17 16  2  6  0  0  0
 17 14  1  0  0  0  0
 17 15  1  0  0  0  0
 18 19  1  0  0  0  0
 18 17  1  0  0  0  0
 20 22  2  0  0  0  0
 21 22  1  0  0  0  0
 22 19  1  0  0  0  0
 23 28  1  1  0  0  0
 23  1  1  0  0  0  0
 24 25  1  6  0  0  0
 24 23  1  0  0  0  0
 26 24  1  0  0  0  0
 27 26  1  0  0  0  0
 29 28  1  0  0  0  0
 29 30  1  0  0  0  0
 31 32  1  0  0  0  0
 31 30  1  0  0  0  0
 32 33  1  6  0  0  0
 32 38  1  0  0  0  0
 34 35  1  6  0  0  0
 34 33  1  0  0  0  0
 36 34  1  0  0  0  0
 37 36  1  0  0  0  0
 38 39  1  0  0  0  0
 39 41  1  0  0  0  0
 40 41  2  0  0  0  0
 41 43  1  0  0  0  0
 41 42  1  0  0  0  0
M  END
>  <MODEL>
6

>  <REMARK>
 VINA RESULT:      -5.2      2.284      3.515
  Name = 
  21 active torsions:
  status: ('A' for Active; 'I' for Inactive)
    1  A    between atoms: O_1  and  C_11
    2  A    between atoms: O_2  and  C_24
    3  A    between atoms: O_2  and  C_34
    4  A    between atoms: O_3  and  C_14
    5  A    between atoms: O_3  and  C_23
    6  A    between atoms: C_4  and  C_8
    7  A    between atoms: C_4  and  P_22
    8  A    between atoms: C_5  and  C_34
    9  A    between atoms: O_6  and  C_30
   10  A    between atoms: O_6  and  P_36
   11  A    between atoms: C_8  and  C_14
   12  A    between atoms: C_11  and  C_40
   13  A    between atoms: C_14  and  C_40
   14  A    between atoms: O_18  and  C_42
   15  A    between atoms: C_19  and  C_32
   16  A    between atoms: C_19  and  C_34
   17  A    between atoms: C_23  and  C_24
   18  A    between atoms: C_25  and  P_36
   19  A    between atoms: C_25  and  O_38
   20  A    between atoms: C_30  and  C_33
   21  A    between atoms: C_37  and  O_38
                            x       y       z     vdW  Elec       q    Type
                         _______ _______ _______ _____ _____    ______ ____

>  <TORSDO>
F 21

$$$$
=
 OpenBabel11062418443D

 43 44  0  0  1  0  0  0  0  0999 V2000
  193.5050  174.8460  142.6180 C   0  0  0  0  0  0  0  0  0  0  0  0
  196.4890  176.3950  141.2560 N   0  0  0  0  0  0  0  0  0  0  0  0
  195.5360  176.2340  143.4610 C   0  0  0  0  0  3  0  0  0  0  0  0
  194.7130  175.5310  142.4410 C   0  0  0  0  0  0  0  0  0  0  0  0
  193.4950  174.3910  140.2080 C   0  0  0  0  0  0  0  0  0  0  0  0
  195.2870  175.6520  141.2120 C   0  0  0  0  0  0  0  0  0  0  0  0
  192.8780  174.2790  141.4880 C   0  0  0  0  0  0  0  0  0  0  0  0
  192.9100  173.7810  139.1040 O   0  0  0  0  0  1  0  0  0  0  0  0
  194.7150  175.1030  140.0650 C   0  0  0  0  0  0  0  0  0  0  0  0
  196.7190  176.7890  142.6430 C   0  0  0  0  0  2  0  0  0  0  0  0
  195.9060  174.2370  138.0420 C   0  0  0  0  0  1  0  0  0  0  0  0
  195.3800  175.2860  138.8420 O   0  0  0  0  0  0  0  0  0  0  0  0
  191.6560  173.6130  141.6800 O   0  0  0  0  0  0  0  0  0  0  0  0
  190.3880  174.1280  141.2920 C   0  0  0  0  0  2  0  0  0  0  0  0
  188.2660  172.6640  142.1600 O   0  0  0  0  0  1  0  0  0  0  0  0
  190.0980  171.3210  140.8540 O   0  0  0  0  0  0  0  0  0  0  0  0
  189.2250  172.7620  140.9950 P   0  0  2  0  0  0  0  0  0  0  0  0
  188.3650  173.0720  139.5660 O   0  0  0  0  0  0  0  0  0  0  0  0
  189.2560  173.7460  138.7300 C   0  0  0  0  0  2  0  0  0  0  0  0
  188.9510  173.9540  136.3790 O   0  0  0  0  0  0  0  0  0  0  0  0
  187.4340  175.0850  137.6720 O   0  0  0  0  0  1  0  0  0  0  0  0
  188.5360  174.2500  137.5280 C   0  0  0  0  0  0  0  0  0  0  0  0
  192.8570  174.7260  143.9730 C   0  0  2  0  0  3  0  0  0  0  0  0
  192.6640  173.2600  144.3880 C   0  0  1  0  0  3  0  0  0  0  0  0
  193.7510  172.8100  145.3540 C   0  0  0  0  0  1  0  0  0  0  0  0
  191.2890  173.0180  145.0060 C   0  0  0  0  0  2  0  0  0  0  0  0
  190.6650  171.9150  144.4180 O   0  0  0  0  0  1  0  0  0  0  0  0
  191.6370  175.4100  143.9750 O   0  0  0  0  0  0  0  0  0  0  0  0
  191.8880  176.6010  144.6610 C   0  0  0  0  0  2  0  0  0  0  0  0
  190.8170  176.8240  145.7120 C   0  0  0  0  0  2  0  0  0  0  0  0
  189.8770  177.7570  145.2430 O   0  0  0  0  0  0  0  0  0  0  0  0
  188.7470  177.0670  144.7460 C   0  0  2  0  0  3  0  0  0  0  0  0
  188.0770  177.7380  143.5380 C   0  0  0  0  0  2  0  0  0  0  0  0
  186.8480  176.9820  143.0190 C   0  0  2  0  0  3  0  0  0  0  0  0
  187.1940  175.7220  142.5190 O   0  0  0  0  0  1  0  0  0  0  0  0
  186.1080  177.7320  142.0800 O   0  0  0  0  0  0  0  0  0  0  0  0
  186.6550  177.5290  140.8020 C   0  0  0  0  0  1  0  0  0  0  0  0
  187.7850  176.5530  145.8240 C   0  0  0  0  0  2  0  0  0  0  0  0
  187.4660  177.6370  146.8430 C   0  0  0  0  0  2  0  0  0  0  0  0
  185.5440  179.2270  145.4410 O   0  0  0  0  0  0  0  0  0  0  0  0
  185.7240  178.1450  146.7280 P   0  0  0  0  0  0  0  0  0  0  0  0
  185.2980  178.8230  148.0110 O   0  0  0  0  0  1  0  0  0  0  0  0
  184.7490  176.7880  146.4590 O   0  0  0  0  0  1  0  0  0  0  0  0
  1 23  1  0  0  0  0
  2 10  1  0  0  0  0
  4  1  1  0  0  0  0
  4  3  2  0  0  0  0
  5  7  1  0  0  0  0
  6  2  2  0  0  0  0
  6  4  1  0  0  0  0
  7 13  1  0  0  0  0
  7  1  2  0  0  0  0
  8  5  1  0  0  0  0
  9  5  2  0  0  0  0
  9  6  1  0  0  0  0
 10  3  1  0  0  0  0
 11 12  1  0  0  0  0
 12  9  1  0  0  0  0
 14 13  1  0  0  0  0
 17 16  2  6  0  0  0
 17 14  1  0  0  0  0
 17 15  1  0  0  0  0
 18 17  1  0  0  0  0
 19 18  1  0  0  0  0
 20 22  2  0  0  0  0
 22 21  1  0  0  0  0
 22 19  1  0  0  0  0
 23 28  1  6  0  0  0
 23 24  1  0  0  0  0
 24 26  1  0  0  0  0
 24 25  1  1  0  0  0
 27 26  1  0  0  0  0
 28 29  1  0  0  0  0
 29 30  1  0  0  0  0
 31 30  1  0  0  0  0
 32 33  1  6  0  0  0
 32 31  1  0  0  0  0
 32 38  1  0  0  0  0
 34 35  1  6  0  0  0
 34 33  1  0  0  0  0
 36 34  1  0  0  0  0
 37 36  1  0  0  0  0
 38 39  1  0  0  0  0
 40 41  2  0  0  0  0
 41 39  1  0  0  0  0
 41 42  1  0  0  0  0
 43 41  1  0  0  0  0
M  END
>  <MODEL>
7

>  <REMARK>
 VINA RESULT:      -5.1      2.440      4.454
  Name = 
  21 active torsions:
  status: ('A' for Active; 'I' for Inactive)
    1  A    between atoms: O_1  and  C_11
    2  A    between atoms: O_2  and  C_24
    3  A    between atoms: O_2  and  C_34
    4  A    between atoms: O_3  and  C_14
    5  A    between atoms: O_3  and  C_23
    6  A    between atoms: C_4  and  C_8
    7  A    between atoms: C_4  and  P_22
    8  A    between atoms: C_5  and  C_34
    9  A    between atoms: O_6  and  C_30
   10  A    between atoms: O_6  and  P_36
   11  A    between atoms: C_8  and  C_14
   12  A    between atoms: C_11  and  C_40
   13  A    between atoms: C_14  and  C_40
   14  A    between atoms: O_18  and  C_42
   15  A    between atoms: C_19  and  C_32
   16  A    between atoms: C_19  and  C_34
   17  A    between atoms: C_23  and  C_24
   18  A    between atoms: C_25  and  P_36
   19  A    between atoms: C_25  and  O_38
   20  A    between atoms: C_30  and  C_33
   21  A    between atoms: C_37  and  O_38
                            x       y       z     vdW  Elec       q    Type
                         _______ _______ _______ _____ _____    ______ ____

>  <TORSDO>
F 21

$$$$
=
 OpenBabel11062418443D

 43 44  0  0  1  0  0  0  0  0999 V2000
  188.3330  176.0180  144.4390 C   0  0  0  0  0  0  0  0  0  0  0  0
  185.4290  177.2740  146.2140 N   0  0  0  0  0  0  0  0  0  0  0  0
  187.5710  176.4110  146.8940 C   0  0  0  0  0  3  0  0  0  0  0  0
  187.4210  176.4380  145.4150 C   0  0  0  0  0  0  0  0  0  0  0  0
  186.6830  176.6410  142.7350 C   0  0  0  0  0  0  0  0  0  0  0  0
  186.1950  176.9280  145.0780 C   0  0  0  0  0  0  0  0  0  0  0  0
  187.9580  176.1070  143.0820 C   0  0  0  0  0  0  0  0  0  0  0  0
  186.3360  176.7860  141.3960 O   0  0  0  0  0  1  0  0  0  0  0  0
  185.7800  177.0460  143.7530 C   0  0  0  0  0  0  0  0  0  0  0  0
  186.2330  176.9860  147.3990 C   0  0  0  0  0  2  0  0  0  0  0  0
  184.2040  178.9270  143.2600 C   0  0  0  0  0  1  0  0  0  0  0  0
  184.4960  177.5590  143.5060 O   0  0  0  0  0  0  0  0  0  0  0  0
  188.8770  175.6620  142.1160 O   0  0  0  0  0  0  0  0  0  0  0  0
  188.5190  175.1430  140.8410 C   0  0  0  0  0  2  0  0  0  0  0  0
  188.1950  172.7960  139.5050 O   0  0  0  0  0  0  0  0  0  0  0  0
  187.4350  172.7740  142.0130 O   0  0  0  0  0  1  0  0  0  0  0  0
  188.5580  173.3260  140.8740 P   0  0  2  0  0  0  0  0  0  0  0  0
  190.1200  172.8150  141.2930 O   0  0  0  0  0  0  0  0  0  0  0  0
  190.8820  172.9440  140.1310 C   0  0  0  0  0  2  0  0  0  0  0  0
  192.8820  174.0530  139.4740 O   0  0  0  0  0  0  0  0  0  0  0  0
  192.2780  174.3310  141.6660 O   0  0  0  0  0  1  0  0  0  0  0  0
  192.0590  173.8160  140.3940 C   0  0  0  0  0  0  0  0  0  0  0  0
  189.6820  175.4570  144.8090 C   0  0  2  0  0  3  0  0  0  0  0  0
  190.7880  176.5180  144.7150 C   0  0  1  0  0  3  0  0  0  0  0  0
  190.2050  177.9210  144.6260 C   0  0  0  0  0  1  0  0  0  0  0  0
  191.7610  176.4350  145.8890 C   0  0  0  0  0  2  0  0  0  0  0  0
  191.0740  176.3930  147.1050 O   0  0  0  0  0  1  0  0  0  0  0  0
  189.9740  174.3570  143.9970 O   0  0  0  0  0  0  0  0  0  0  0  0
  190.0640  173.2720  144.8720 C   0  0  0  0  0  2  0  0  0  0  0  0
  191.3720  172.5380  144.6490 C   0  0  0  0  0  2  0  0  0  0  0  0
  192.4300  173.2670  145.2170 O   0  0  0  0  0  0  0  0  0  0  0  0
  193.6500  172.8350  144.6480 C   0  0  2  0  0  3  0  0  0  0  0  0
  193.9450  171.3410  144.8440 C   0  0  0  0  0  2  0  0  0  0  0  0
  194.1260  170.5730  143.5280 C   0  0  2  0  0  3  0  0  0  0  0  0
  195.4150  170.0370  143.4210 O   0  0  0  0  0  1  0  0  0  0  0  0
  193.7870  171.3470  142.3990 O   0  0  0  0  0  0  0  0  0  0  0  0
  193.4600  170.4870  141.3380 C   0  0  0  0  0  1  0  0  0  0  0  0
  194.8400  173.7720  144.8940 C   0  0  0  0  0  2  0  0  0  0  0  0
  195.5490  174.1180  143.5940 C   0  0  0  0  0  2  0  0  0  0  0  0
  197.3000  176.3450  143.1890 O   0  0  0  0  0  1  0  0  0  0  0  0
  195.6740  175.9200  143.3810 P   0  0  0  0  0  0  0  0  0  0  0  0
  195.1160  176.6230  144.5980 O   0  0  0  0  0  1  0  0  0  0  0  0
  194.8050  176.3950  142.0090 O   0  0  0  0  0  0  0  0  0  0  0  0
  1 23  1  0  0  0  0
  1  4  1  0  0  0  0
  2 10  1  0  0  0  0
  3 10  1  0  0  0  0
  4  3  2  0  0  0  0
  5  7  1  0  0  0  0
  5  9  2  0  0  0  0
  6  4  1  0  0  0  0
  6  2  2  0  0  0  0
  7  1  2  0  0  0  0
  8  5  1  0  0  0  0
  9  6  1  0  0  0  0
 11 12  1  0  0  0  0
 12  9  1  0  0  0  0
 13  7  1  0  0  0  0
 14 17  1  0  0  0  0
 14 13  1  0  0  0  0
 17 15  2  6  0  0  0
 17 18  1  0  0  0  0
 17 16  1  0  0  0  0
 19 22  1  0  0  0  0
 19 18  1  0  0  0  0
 20 22  2  0  0  0  0
 22 21  1  0  0  0  0
 23 28  1  6  0  0  0
 24 25  1  1  0  0  0
 24 23  1  0  0  0  0
 24 26  1  0  0  0  0
 26 27  1  0  0  0  0
 28 29  1  0  0  0  0
 30 29  1  0  0  0  0
 30 31  1  0  0  0  0
 32 33  1  1  0  0  0
 32 38  1  0  0  0  0
 32 31  1  0  0  0  0
 34 35  1  6  0  0  0
 34 33  1  0  0  0  0
 36 34  1  0  0  0  0
 37 36  1  0  0  0  0
 39 38  1  0  0  0  0
 40 41  1  0  0  0  0
 41 39  1  0  0  0  0
 41 42  1  0  0  0  0
 43 41  2  0  0  0  0
M  END
>  <MODEL>
8

>  <REMARK>
 VINA RESULT:      -5.0      2.976      7.947
  Name = 
  21 active torsions:
  status: ('A' for Active; 'I' for Inactive)
    1  A    between atoms: O_1  and  C_11
    2  A    between atoms: O_2  and  C_24
    3  A    between atoms: O_2  and  C_34
    4  A    between atoms: O_3  and  C_14
    5  A    between atoms: O_3  and  C_23
    6  A    between atoms: C_4  and  C_8
    7  A    between atoms: C_4  and  P_22
    8  A    between atoms: C_5  and  C_34
    9  A    between atoms: O_6  and  C_30
   10  A    between atoms: O_6  and  P_36
   11  A    between atoms: C_8  and  C_14
   12  A    between atoms: C_11  and  C_40
   13  A    between atoms: C_14  and  C_40
   14  A    between atoms: O_18  and  C_42
   15  A    between atoms: C_19  and  C_32
   16  A    between atoms: C_19  and  C_34
   17  A    between atoms: C_23  and  C_24
   18  A    between atoms: C_25  and  P_36
   19  A    between atoms: C_25  and  O_38
   20  A    between atoms: C_30  and  C_33
   21  A    between atoms: C_37  and  O_38
                            x       y       z     vdW  Elec       q    Type
                         _______ _______ _______ _____ _____    ______ ____

>  <TORSDO>
F 21

$$$$
=
 OpenBabel11062418443D

 43 44  0  0  1  0  0  0  0  0999 V2000
  189.2870  174.4150  140.9110 C   0  0  0  0  0  0  0  0  0  0  0  0
  189.1490  173.0520  137.5520 N   0  0  0  0  0  0  0  0  0  0  0  0
  190.4410  172.5460  139.5190 C   0  0  0  0  0  3  0  0  0  0  0  0
  189.4850  173.6610  139.7470 C   0  0  0  0  0  0  0  0  0  0  0  0
  187.5900  175.7040  139.6980 C   0  0  0  0  0  0  0  0  0  0  0  0
  188.7810  173.9150  138.6090 C   0  0  0  0  0  0  0  0  0  0  0  0
  188.3390  175.4590  140.8860 C   0  0  1  0  0  3  0  0  0  0  0  0
  186.6110  176.6930  139.6910 O   0  0  0  0  0  1  0  0  0  0  0  0
  187.8260  174.9270  138.5340 C   0  0  0  0  0  0  0  0  0  0  0  0
  190.1850  172.1520  138.0510 C   0  0  0  0  0  3  0  0  0  0  0  0
  187.5410  176.0440  136.3130 C   0  0  0  0  0  1  0  0  0  0  0  0
  187.1550  175.1140  137.3140 O   0  0  0  0  0  0  0  0  0  0  0  0
  188.1680  176.2190  142.0550 O   0  0  0  0  0  0  0  0  0  0  0  0
  187.0610  176.0990  142.9400 C   0  0  0  0  0  2  0  0  0  0  0  0
  184.8150  177.5870  143.3200 O   0  0  0  0  0  1  0  0  0  0  0  0
  186.7190  178.7560  141.9490 O   0  0  0  0  0  0  0  0  0  0  0  0
  186.3180  177.7320  143.2350 P   0  0  2  0  0  0  0  0  0  0  0  0
  186.9190  178.3560  144.6930 O   0  0  0  0  0  0  0  0  0  0  0  0
  185.8730  178.2410  145.6100 C   0  0  0  0  0  2  0  0  0  0  0  0
  186.7070  176.4210  146.8970 O   0  0  0  0  0  0  0  0  0  0  0  0
  186.4350  178.3900  148.0380 O   0  0  0  0  0  1  0  0  0  0  0  0
  186.3750  177.6340  146.8730 C   0  0  0  0  0  0  0  0  0  0  0  0
  190.0780  174.1500  142.1660 C   0  0  2  0  0  3  0  0  0  0  0  0
  189.2270  173.4640  143.2440 C   0  0  1  0  0  3  0  0  0  0  0  0
  188.6680  172.1380  142.7480 C   0  0  0  0  0  1  0  0  0  0  0  0
  190.0100  173.2450  144.5360 C   0  0  0  0  0  2  0  0  0  0  0  0
  189.7780  171.9670  145.0510 O   0  0  0  0  0  1  0  0  0  0  0  0
  190.6190  175.3480  142.6440 O   0  0  0  0  0  0  0  0  0  0  0  0
  191.9830  175.2730  142.3550 C   0  0  0  0  0  2  0  0  0  0  0  0
  192.7060  176.4540  142.9740 C   0  0  0  0  0  2  0  0  0  0  0  0
  193.9380  176.0340  143.5020 O   0  0  0  0  0  0  0  0  0  0  0  0
  193.9980  176.3810  144.8710 C   0  0  2  0  0  3  0  0  0  0  0  0
  194.7090  175.3460  145.7560 C   0  0  0  0  0  2  0  0  0  0  0  0
  194.9210  173.9920  145.0680 C   0  0  2  0  0  3  0  0  0  0  0  0
  193.9590  173.0570  145.4670 O   0  0  0  0  0  1  0  0  0  0  0  0
  196.2320  173.4990  145.2380 O   0  0  0  0  0  0  0  0  0  0  0  0
  196.7580  173.1600  143.9800 C   0  0  0  0  0  1  0  0  0  0  0  0
  192.6940  176.9460  145.4480 C   0  0  0  0  0  2  0  0  0  0  0  0
  192.1880  176.0980  146.6050 C   0  0  0  0  0  2  0  0  0  0  0  0
  189.7600  174.9790  147.6250 O   0  0  0  0  0  1  0  0  0  0  0  0
  190.4030  176.3410  146.8560 P   0  0  0  0  0  0  0  0  0  0  0  0
  189.7150  176.5310  145.5220 O   0  0  0  0  0  0  0  0  0  0  0  0
  190.1420  177.7050  147.8230 O   0  0  0  0  0  1  0  0  0  0  0  0
  1 23  1  0  0  0  0
  2 10  1  0  0  0  0
  2  6  2  0  0  0  0
  3  4  1  0  0  0  0
  4  1  2  0  0  0  0
  5  7  1  0  0  0  0
  6  4  1  0  0  0  0
  7  1  1  0  0  0  0
  7 13  1  1  0  0  0
  8  5  1  0  0  0  0
  9  6  1  0  0  0  0
  9  5  2  0  0  0  0
 10  3  2  0  0  0  0
 11 12  1  0  0  0  0
 12  9  1  0  0  0  0
 13 14  1  0  0  0  0
 14 17  1  0  0  0  0
 17 16  2  6  0  0  0
 17 15  1  0  0  0  0
 17 18  1  0  0  0  0
 18 19  1  0  0  0  0
 19 22  1  0  0  0  0
 22 20  2  0  0  0  0
 22 21  1  0  0  0  0
 23 28  1  1  0  0  0
 23 24  1  0  0  0  0
 24 25  1  6  0  0  0
 24 26  1  0  0  0  0
 26 27  1  0  0  0  0
 29 28  1  0  0  0  0
 29 30  1  0  0  0  0
 30 31  1  0  0  0  0
 31 32  1  0  0  0  0
 32 38  1  1  0  0  0
 32 33  1  0  0  0  0
 34 36  1  0  0  0  0
 34 35  1  1  0  0  0
 34 33  1  0  0  0  0
 37 36  1  0  0  0  0
 38 39  1  0  0  0  0
 39 41  1  0  0  0  0
 41 40  1  0  0  0  0
 41 43  1  0  0  0  0
 42 41  2  0  0  0  0
M  END
>  <MODEL>
9

>  <REMARK>
 VINA RESULT:      -5.0      3.102      8.348
  Name = 
  21 active torsions:
  status: ('A' for Active; 'I' for Inactive)
    1  A    between atoms: O_1  and  C_11
    2  A    between atoms: O_2  and  C_24
    3  A    between atoms: O_2  and  C_34
    4  A    between atoms: O_3  and  C_14
    5  A    between atoms: O_3  and  C_23
    6  A    between atoms: C_4  and  C_8
    7  A    between atoms: C_4  and  P_22
    8  A    between atoms: C_5  and  C_34
    9  A    between atoms: O_6  and  C_30
   10  A    between atoms: O_6  and  P_36
   11  A    between atoms: C_8  and  C_14
   12  A    between atoms: C_11  and  C_40
   13  A    between atoms: C_14  and  C_40
   14  A    between atoms: O_18  and  C_42
   15  A    between atoms: C_19  and  C_32
   16  A    between atoms: C_19  and  C_34
   17  A    between atoms: C_23  and  C_24
   18  A    between atoms: C_25  and  P_36
   19  A    between atoms: C_25  and  O_38
   20  A    between atoms: C_30  and  C_33
   21  A    between atoms: C_37  and  O_38
                            x       y       z     vdW  Elec       q    Type
                         _______ _______ _______ _____ _____    ______ ____

>  <TORSDO>
F 21

$$$$
