=
 OpenBabel11062420333D

 32 35  0  0  1  0  0  0  0  0999 V2000
  188.8030  176.9110  144.1680 C   0  0  0  0  0  3  0  0  0  0  0  0
  186.5110  177.7840  143.5690 C   0  0  0  0  0  0  0  0  0  0  0  0
  184.0530  178.6010  146.2830 O   0  0  0  0  0  0  0  0  0  0  0  0
  184.2670  178.2470  142.6470 C   0  0  0  0  0  0  0  0  0  0  0  0
  185.9500  177.9870  144.9490 C   0  0  0  0  0  0  0  0  0  0  0  0
  185.6260  177.9700  142.4900 O   0  0  0  0  0  0  0  0  0  0  0  0
  187.7740  177.4200  143.2510 C   0  0  0  0  0  0  0  0  0  0  0  0
  186.0560  178.3160  147.4100 O   0  0  0  0  0  0  0  0  0  0  0  0
  183.7690  178.4100  143.8650 C   0  0  0  0  0  3  0  0  0  0  0  0
  188.9010  176.8610  145.4930 C   0  0  0  0  0  0  0  0  0  0  0  0
  187.9150  177.4160  146.4200 C   0  0  0  0  0  3  0  0  0  0  0  0
  184.6380  178.3190  145.0460 C   0  0  0  0  0  0  0  0  0  0  0  0
  184.8400  179.0450  147.3750 C   0  0  0  0  0  2  0  0  0  0  0  0
  186.6970  177.9030  146.2380 C   0  0  0  0  0  0  0  0  0  0  0  0
  192.4710  175.5690  145.8780 C   0  0  0  0  0  0  0  0  0  0  0  0
  191.2730  175.2050  147.9570 C   0  0  0  0  0  3  0  0  0  0  0  0
  190.1290  176.2540  146.0800 C   0  0  0  0  0  0  0  0  0  0  0  0
  192.4430  175.1110  147.2010 C   0  0  0  0  0  3  0  0  0  0  0  0
  191.3170  176.1490  145.3320 C   0  0  0  0  0  3  0  0  0  0  0  0
  190.1250  175.7700  147.3990 C   0  0  0  0  0  3  0  0  0  0  0  0
  194.6040  174.5750  145.6510 F   0  0  0  0  0  0  0  0  0  0  0  0
  193.4880  175.1160  143.7650 O   0  0  0  0  0  1  0  0  0  0  0  0
  193.7510  175.5080  145.0820 C   0  0  1  0  0  0  0  0  0  0  0  0
  194.6750  177.2900  146.3840 F   0  0  0  0  0  0  0  0  0  0  0  0
  194.4430  176.8720  145.0860 C   0  0  1  0  0  3  0  0  0  0  0  0
  195.6550  176.8170  144.3930 O   0  0  0  0  0  1  0  0  0  0  0  0
  181.9880  178.3100  141.5800 N   0  0  0  0  0  1  0  0  0  0  0  0
  183.4080  178.3540  141.4600 C   0  0  0  0  0  0  0  0  0  0  0  0
  183.9270  178.4870  140.3210 O   0  0  0  0  0  0  0  0  0  0  0  0
  188.2050  177.3900  141.8290 C   0  0  0  0  0  0  0  0  0  0  0  0
  187.9210  176.2200  140.9460 C   0  0  0  0  0  1  0  0  0  0  0  0
  188.7710  178.3970  141.3220 O   0  0  0  0  0  0  0  0  0  0  0  0
  1 10  2  0  0  0  0
  2  5  1  0  0  0  0
  3 13  1  0  0  0  0
  4  9  2  0  0  0  0
  5 12  2  0  0  0  0
  5 14  1  0  0  0  0
  6  4  1  0  0  0  0
  6  2  1  0  0  0  0
  7  2  2  0  0  0  0
  7  1  1  0  0  0  0
  9 12  1  0  0  0  0
 10 17  1  0  0  0  0
 10 11  1  0  0  0  0
 12  3  1  0  0  0  0
 13  8  1  0  0  0  0
 14 11  2  0  0  0  0
 14  8  1  0  0  0  0
 15 18  1  0  0  0  0
 17 20  2  0  0  0  0
 18 16  2  0  0  0  0
 19 15  2  0  0  0  0
 19 17  1  0  0  0  0
 20 16  1  0  0  0  0
 23 22  1  6  0  0  0
 23 25  1  0  0  0  0
 23 21  1  0  0  0  0
 23 15  1  0  0  0  0
 25 26  1  6  0  0  0
 25 24  1  0  0  0  0
 28 27  1  0  0  0  0
 28  4  1  0  0  0  0
 29 28  2  0  0  0  0
 30  7  1  0  0  0  0
 31 30  1  0  0  0  0
 32 30  2  0  0  0  0
M  END
>  <MODEL>
1

>  <REMARK>
 VINA RESULT:      -8.6      0.000      0.000
  Name = 
  5 active torsions:
  status: ('A' for Active; 'I' for Inactive)
    1  A    between atoms: C_6  and  C_10
    2  A    between atoms: C_9  and  C_25
    3  A    between atoms: C_12  and  C_20
    4  A    between atoms: C_15  and  C_19
    5  A    between atoms: C_24  and  C_25
                            x       y       z     vdW  Elec       q    Type
                         _______ _______ _______ _____ _____    ______ ____

>  <TORSDO>
F 5

$$$$
=
 OpenBabel11062420333D

 32 35  0  0  1  0  0  0  0  0999 V2000
  190.3880  176.1590  142.9690 C   0  0  0  0  0  3  0  0  0  0  0  0
  192.4440  175.6480  144.3410 C   0  0  0  0  0  0  0  0  0  0  0  0
  192.6860  176.8800  147.8760 O   0  0  0  0  0  0  0  0  0  0  0  0
  194.7080  175.3050  145.2640 C   0  0  0  0  0  0  0  0  0  0  0  0
  192.0480  176.2960  145.6380 C   0  0  0  0  0  0  0  0  0  0  0  0
  193.7570  175.1510  144.2550 O   0  0  0  0  0  0  0  0  0  0  0  0
  191.6760  175.5070  143.2360 C   0  0  0  0  0  0  0  0  0  0  0  0
  190.4670  177.2310  147.3130 O   0  0  0  0  0  0  0  0  0  0  0  0
  194.3640  175.8920  146.4030 C   0  0  0  0  0  3  0  0  0  0  0  0
  189.5350  176.8430  143.7250 C   0  0  0  0  0  0  0  0  0  0  0  0
  189.6960  177.0670  145.1620 C   0  0  0  0  0  3  0  0  0  0  0  0
  192.9890  176.3640  146.6140 C   0  0  0  0  0  0  0  0  0  0  0  0
  191.3540  176.8800  148.3610 C   0  0  0  0  0  2  0  0  0  0  0  0
  190.7060  176.8440  145.9900 C   0  0  0  0  0  0  0  0  0  0  0  0
  186.1230  178.4830  143.2480 C   0  0  0  0  0  0  0  0  0  0  0  0
  186.9470  177.7370  141.0910 C   0  0  0  0  0  3  0  0  0  0  0  0
  188.2970  177.3670  143.0840 C   0  0  0  0  0  0  0  0  0  0  0  0
  185.9640  178.3600  141.8620 C   0  0  0  0  0  3  0  0  0  0  0  0
  187.2950  177.9970  143.8470 C   0  0  0  0  0  3  0  0  0  0  0  0
  188.1020  177.2420  141.6980 C   0  0  0  0  0  3  0  0  0  0  0  0
  185.3260  180.5630  144.0390 F   0  0  0  0  0  0  0  0  0  0  0  0
  183.8040  178.9720  143.5430 O   0  0  0  0  0  1  0  0  0  0  0  0
  185.0800  179.2000  144.0700 C   0  0  1  0  0  0  0  0  0  0  0  0
  185.8340  179.6270  146.3000 F   0  0  0  0  0  0  0  0  0  0  0  0
  185.1310  178.7240  145.5220 C   0  0  1  0  0  3  0  0  0  0  0  0
  183.8430  178.5700  146.0410 O   0  0  0  0  0  1  0  0  0  0  0  0
  196.6620  173.8730  145.9490 N   0  0  0  0  0  1  0  0  0  0  0  0
  196.0770  174.8150  145.0530 C   0  0  0  0  0  0  0  0  0  0  0  0
  196.7450  175.2280  144.0700 O   0  0  0  0  0  0  0  0  0  0  0  0
  192.1760  174.7210  142.0780 C   0  0  0  0  0  0  0  0  0  0  0  0
  191.6790  173.3420  141.7920 C   0  0  0  0  0  1  0  0  0  0  0  0
  192.9910  175.2410  141.2690 O   0  0  0  0  0  0  0  0  0  0  0  0
  1  7  1  0  0  0  0
  1 10  2  0  0  0  0
  2  5  1  0  0  0  0
  3 13  1  0  0  0  0
  4  9  2  0  0  0  0
  5 14  1  0  0  0  0
  5 12  2  0  0  0  0
  6  2  1  0  0  0  0
  6  4  1  0  0  0  0
  7  2  2  0  0  0  0
  8 13  1  0  0  0  0
  9 12  1  0  0  0  0
 10 11  1  0  0  0  0
 11 14  2  0  0  0  0
 12  3  1  0  0  0  0
 14  8  1  0  0  0  0
 15 19  1  0  0  0  0
 15 23  1  0  0  0  0
 16 20  2  0  0  0  0
 16 18  1  0  0  0  0
 17 10  1  0  0  0  0
 17 19  2  0  0  0  0
 18 15  2  0  0  0  0
 20 17  1  0  0  0  0
 21 23  1  0  0  0  0
 23 22  1  6  0  0  0
 23 25  1  0  0  0  0
 25 26  1  1  0  0  0
 25 24  1  0  0  0  0
 28  4  1  0  0  0  0
 28 27  1  0  0  0  0
 29 28  2  0  0  0  0
 30  7  1  0  0  0  0
 31 30  1  0  0  0  0
 32 30  2  0  0  0  0
M  END
>  <MODEL>
2

>  <REMARK>
 VINA RESULT:      -8.4      4.217      8.496
  Name = 
  5 active torsions:
  status: ('A' for Active; 'I' for Inactive)
    1  A    between atoms: C_6  and  C_10
    2  A    between atoms: C_9  and  C_25
    3  A    between atoms: C_12  and  C_20
    4  A    between atoms: C_15  and  C_19
    5  A    between atoms: C_24  and  C_25
                            x       y       z     vdW  Elec       q    Type
                         _______ _______ _______ _____ _____    ______ ____

>  <TORSDO>
F 5

$$$$
=
 OpenBabel11062420333D

 32 35  0  0  1  0  0  0  0  0999 V2000
  189.1030  175.5240  143.8690 C   0  0  0  0  0  3  0  0  0  0  0  0
  191.4830  175.0560  143.1680 C   0  0  0  0  0  0  0  0  0  0  0  0
  194.3310  176.4010  145.2060 O   0  0  0  0  0  0  0  0  0  0  0  0
  193.6450  174.7440  142.0160 C   0  0  0  0  0  0  0  0  0  0  0  0
  192.2150  175.7460  144.2850 C   0  0  0  0  0  0  0  0  0  0  0  0
  192.2650  174.5570  142.1100 O   0  0  0  0  0  0  0  0  0  0  0  0
  190.1460  174.8810  143.0590 C   0  0  0  0  0  0  0  0  0  0  0  0
  192.4750  176.7340  146.5510 O   0  0  0  0  0  0  0  0  0  0  0  0
  194.2880  175.3670  142.9940 C   0  0  0  0  0  3  0  0  0  0  0  0
  189.1270  176.2310  144.9940 C   0  0  0  0  0  0  0  0  0  0  0  0
  190.3310  176.5010  145.7800 C   0  0  0  0  0  3  0  0  0  0  0  0
  193.5640  175.8450  144.1790 C   0  0  0  0  0  0  0  0  0  0  0  0
  193.8570  176.4160  146.5410 C   0  0  0  0  0  2  0  0  0  0  0  0
  191.6170  176.3040  145.5330 C   0  0  0  0  0  0  0  0  0  0  0  0
  185.7610  178.0110  145.2450 C   0  0  0  0  0  0  0  0  0  0  0  0
  186.2190  176.8910  147.3500 C   0  0  0  0  0  3  0  0  0  0  0  0
  187.8310  176.7340  145.5310 C   0  0  0  0  0  0  0  0  0  0  0  0
  185.3830  177.6750  146.5520 C   0  0  0  0  0  3  0  0  0  0  0  0
  186.9770  177.5270  144.7410 C   0  0  0  0  0  3  0  0  0  0  0  0
  187.4340  176.4270  146.8430 C   0  0  0  0  0  3  0  0  0  0  0  0
  183.6250  178.9990  145.0270 F   0  0  0  0  0  0  0  0  0  0  0  0
  185.3820  180.0780  144.1110 O   0  0  0  0  0  1  0  0  0  0  0  0
  184.8330  178.8190  144.3720 C   0  0  1  0  0  0  0  0  0  0  0  0
  183.2300  178.1430  142.7290 F   0  0  0  0  0  0  0  0  0  0  0  0
  184.5740  178.0850  143.0560 C   0  0  1  0  0  3  0  0  0  0  0  0
  185.3260  178.6440  142.0190 O   0  0  0  0  0  1  0  0  0  0  0  0
  194.9990  175.1510  139.9340 N   0  0  0  0  0  1  0  0  0  0  0  0
  194.3660  174.2480  140.8360 C   0  0  0  0  0  0  0  0  0  0  0  0
  194.4280  173.0100  140.6150 O   0  0  0  0  0  0  0  0  0  0  0  0
  189.5910  174.0580  141.9520 C   0  0  0  0  0  0  0  0  0  0  0  0
  189.4010  172.5840  142.0890 C   0  0  0  0  0  1  0  0  0  0  0  0
  189.2050  174.6130  140.8880 O   0  0  0  0  0  0  0  0  0  0  0  0
  1 10  2  0  0  0  0
  2  5  1  0  0  0  0
  3 13  1  0  0  0  0
  4  6  1  0  0  0  0
  4  9  2  0  0  0  0
  5 14  1  0  0  0  0
  6  2  1  0  0  0  0
  7  2  2  0  0  0  0
  7  1  1  0  0  0  0
  9 12  1  0  0  0  0
 10 17  1  0  0  0  0
 10 11  1  0  0  0  0
 12  5  2  0  0  0  0
 12  3  1  0  0  0  0
 13  8  1  0  0  0  0
 14 11  2  0  0  0  0
 14  8  1  0  0  0  0
 15 18  1  0  0  0  0
 17 20  2  0  0  0  0
 18 16  2  0  0  0  0
 19 15  2  0  0  0  0
 19 17  1  0  0  0  0
 20 16  1  0  0  0  0
 23 22  1  6  0  0  0
 23 21  1  0  0  0  0
 23 15  1  0  0  0  0
 24 25  1  0  0  0  0
 25 26  1  6  0  0  0
 25 23  1  0  0  0  0
 27 28  1  0  0  0  0
 28  4  1  0  0  0  0
 29 28  2  0  0  0  0
 30 31  1  0  0  0  0
 30  7  1  0  0  0  0
 32 30  2  0  0  0  0
M  END
>  <MODEL>
3

>  <REMARK>
 VINA RESULT:      -8.0      4.335      8.094
  Name = 
  5 active torsions:
  status: ('A' for Active; 'I' for Inactive)
    1  A    between atoms: C_6  and  C_10
    2  A    between atoms: C_9  and  C_25
    3  A    between atoms: C_12  and  C_20
    4  A    between atoms: C_15  and  C_19
    5  A    between atoms: C_24  and  C_25
                            x       y       z     vdW  Elec       q    Type
                         _______ _______ _______ _____ _____    ______ ____

>  <TORSDO>
F 5

$$$$
=
 OpenBabel11062420333D

 32 35  0  0  1  0  0  0  0  0999 V2000
  190.6950  176.1390  145.7290 C   0  0  0  0  0  3  0  0  0  0  0  0
  192.4120  174.3460  145.2720 C   0  0  0  0  0  0  0  0  0  0  0  0
  191.3890  171.1750  143.5480 O   0  0  0  0  0  0  0  0  0  0  0  0
  194.2230  172.6680  145.3170 C   0  0  0  0  0  0  0  0  0  0  0  0
  191.5460  173.3450  144.5590 C   0  0  0  0  0  0  0  0  0  0  0  0
  193.7280  173.9470  145.5720 O   0  0  0  0  0  0  0  0  0  0  0  0
  192.0550  175.5860  145.6760 C   0  0  0  0  0  0  0  0  0  0  0  0
  189.5660  172.5760  143.2690 O   0  0  0  0  0  0  0  0  0  0  0  0
  193.4540  171.7790  144.7020 C   0  0  0  0  0  3  0  0  0  0  0  0
  189.5260  175.7380  145.2410 C   0  0  0  0  0  0  0  0  0  0  0  0
  189.3380  174.5510  144.4060 C   0  0  0  0  0  3  0  0  0  0  0  0
  192.0950  172.1360  144.2750 C   0  0  0  0  0  0  0  0  0  0  0  0
  190.3410  171.5510  142.6700 C   0  0  0  0  0  2  0  0  0  0  0  0
  190.1460  173.5510  144.0880 C   0  0  0  0  0  0  0  0  0  0  0  0
  186.5740  178.0990  144.7180 C   0  0  0  0  0  0  0  0  0  0  0  0
  186.6830  177.4810  147.0630 C   0  0  0  0  0  3  0  0  0  0  0  0
  188.3290  176.5850  145.5080 C   0  0  0  0  0  0  0  0  0  0  0  0
  186.0650  178.1760  146.0220 C   0  0  0  0  0  3  0  0  0  0  0  0
  187.6950  177.2930  144.4700 C   0  0  0  0  0  3  0  0  0  0  0  0
  187.8070  176.6940  146.8080 C   0  0  0  0  0  3  0  0  0  0  0  0
  185.7620  180.1610  143.8960 F   0  0  0  0  0  0  0  0  0  0  0  0
  186.6110  178.6930  142.4060 O   0  0  0  0  0  1  0  0  0  0  0  0
  185.8750  178.8140  143.5890 C   0  0  1  0  0  0  0  0  0  0  0  0
  183.5280  179.0440  143.9930 F   0  0  0  0  0  0  0  0  0  0  0  0
  184.4730  178.2370  143.3850 C   0  0  1  0  0  3  0  0  0  0  0  0
  184.1760  178.1200  142.0250 O   0  0  0  0  0  1  0  0  0  0  0  0
  196.5210  173.3380  146.0960 N   0  0  0  0  0  1  0  0  0  0  0  0
  195.5900  172.3230  145.7320 C   0  0  0  0  0  0  0  0  0  0  0  0
  195.9470  171.1160  145.7690 O   0  0  0  0  0  0  0  0  0  0  0  0
  193.0730  176.5030  146.2530 C   0  0  0  0  0  0  0  0  0  0  0  0
  194.1070  177.1630  145.4010 C   0  0  0  0  0  1  0  0  0  0  0  0
  193.0370  176.7920  147.4790 O   0  0  0  0  0  0  0  0  0  0  0  0
  2  6  1  0  0  0  0
  2  7  2  0  0  0  0
  3 12  1  0  0  0  0
  4  6  1  0  0  0  0
  4 28  1  0  0  0  0
  5  2  1  0  0  0  0
  7  1  1  0  0  0  0
  7 30  1  0  0  0  0
  8 14  1  0  0  0  0
  9  4  2  0  0  0  0
 10 17  1  0  0  0  0
 10  1  2  0  0  0  0
 11 10  1  0  0  0  0
 12  5  2  0  0  0  0
 12  9  1  0  0  0  0
 13  8  1  0  0  0  0
 13  3  1  0  0  0  0
 14 11  2  0  0  0  0
 14  5  1  0  0  0  0
 15 18  1  0  0  0  0
 17 20  2  0  0  0  0
 18 16  2  0  0  0  0
 19 15  2  0  0  0  0
 19 17  1  0  0  0  0
 20 16  1  0  0  0  0
 23 22  1  6  0  0  0
 23 21  1  0  0  0  0
 23 15  1  0  0  0  0
 25 26  1  6  0  0  0
 25 23  1  0  0  0  0
 25 24  1  0  0  0  0
 28 29  2  0  0  0  0
 28 27  1  0  0  0  0
 30 32  2  0  0  0  0
 31 30  1  0  0  0  0
M  END
>  <MODEL>
4

>  <REMARK>
 VINA RESULT:      -8.0      4.649      8.943
  Name = 
  5 active torsions:
  status: ('A' for Active; 'I' for Inactive)
    1  A    between atoms: C_6  and  C_10
    2  A    between atoms: C_9  and  C_25
    3  A    between atoms: C_12  and  C_20
    4  A    between atoms: C_15  and  C_19
    5  A    between atoms: C_24  and  C_25
                            x       y       z     vdW  Elec       q    Type
                         _______ _______ _______ _____ _____    ______ ____

>  <TORSDO>
F 5

$$$$
=
 OpenBabel11062420333D

 32 35  0  0  1  0  0  0  0  0999 V2000
  189.7020  174.7580  144.0910 C   0  0  0  0  0  3  0  0  0  0  0  0
  191.8200  173.5980  144.8270 C   0  0  0  0  0  0  0  0  0  0  0  0
  194.7830  175.6260  145.9100 O   0  0  0  0  0  0  0  0  0  0  0  0
  193.8240  172.1850  145.1180 C   0  0  0  0  0  0  0  0  0  0  0  0
  192.6530  174.7970  145.1840 C   0  0  0  0  0  0  0  0  0  0  0  0
  192.4630  172.3460  144.8580 O   0  0  0  0  0  0  0  0  0  0  0  0
  190.5190  173.5930  144.4580 C   0  0  0  0  0  0  0  0  0  0  0  0
  193.0570  177.1670  145.8150 O   0  0  0  0  0  0  0  0  0  0  0  0
  194.5630  173.2450  145.4170 C   0  0  0  0  0  3  0  0  0  0  0  0
  189.8790  176.0700  144.2070 C   0  0  0  0  0  0  0  0  0  0  0  0
  191.0340  176.6990  144.8460 C   0  0  0  0  0  3  0  0  0  0  0  0
  193.9570  174.5810  145.4920 C   0  0  0  0  0  0  0  0  0  0  0  0
  194.2390  176.7920  146.5030 C   0  0  0  0  0  2  0  0  0  0  0  0
  192.1880  176.2110  145.2770 C   0  0  0  0  0  0  0  0  0  0  0  0
  186.7560  178.2600  144.0930 C   0  0  0  0  0  0  0  0  0  0  0  0
  187.7730  178.2230  141.8890 C   0  0  0  0  0  3  0  0  0  0  0  0
  188.8000  176.9680  143.7060 C   0  0  0  0  0  0  0  0  0  0  0  0
  186.7700  178.6680  142.7520 C   0  0  0  0  0  3  0  0  0  0  0  0
  187.7790  177.4230  144.5620 C   0  0  0  0  0  3  0  0  0  0  0  0
  188.7780  177.3790  142.3630 C   0  0  0  0  0  3  0  0  0  0  0  0
  185.6800  180.1650  144.9860 F   0  0  0  0  0  0  0  0  0  0  0  0
  184.4340  178.3140  144.6490 O   0  0  0  0  0  1  0  0  0  0  0  0
  185.6960  178.7800  145.0320 C   0  0  1  0  0  0  0  0  0  0  0  0
  185.9550  179.4250  147.3210 F   0  0  0  0  0  0  0  0  0  0  0  0
  185.9960  178.3390  146.4650 C   0  0  1  0  0  3  0  0  0  0  0  0
  185.0760  177.3780  146.8920 O   0  0  0  0  0  1  0  0  0  0  0  0
  195.6180  170.5440  145.7690 N   0  0  0  0  0  1  0  0  0  0  0  0
  194.4210  170.8430  145.0570 C   0  0  0  0  0  0  0  0  0  0  0  0
  193.8690  169.9440  144.3700 O   0  0  0  0  0  0  0  0  0  0  0  0
  189.8030  172.3050  144.2650 C   0  0  0  0  0  0  0  0  0  0  0  0
  189.7010  171.6560  142.9240 C   0  0  0  0  0  1  0  0  0  0  0  0
  189.3200  171.6990  145.2590 O   0  0  0  0  0  0  0  0  0  0  0  0
  1 10  2  0  0  0  0
  1  7  1  0  0  0  0
  2  6  1  0  0  0  0
  2  5  1  0  0  0  0
  3 13  1  0  0  0  0
  4  9  2  0  0  0  0
  5 14  1  0  0  0  0
  5 12  2  0  0  0  0
  6  4  1  0  0  0  0
  7  2  2  0  0  0  0
  8 13  1  0  0  0  0
  9 12  1  0  0  0  0
 10 11  1  0  0  0  0
 11 14  2  0  0  0  0
 12  3  1  0  0  0  0
 14  8  1  0  0  0  0
 15 19  1  0  0  0  0
 15 23  1  0  0  0  0
 16 20  2  0  0  0  0
 16 18  1  0  0  0  0
 17 10  1  0  0  0  0
 17 19  2  0  0  0  0
 18 15  2  0  0  0  0
 20 17  1  0  0  0  0
 21 23  1  0  0  0  0
 23 22  1  6  0  0  0
 23 25  1  0  0  0  0
 25 26  1  1  0  0  0
 25 24  1  0  0  0  0
 28  4  1  0  0  0  0
 28 27  1  0  0  0  0
 29 28  2  0  0  0  0
 30  7  1  0  0  0  0
 30 32  2  0  0  0  0
 31 30  1  0  0  0  0
M  END
>  <MODEL>
5

>  <REMARK>
 VINA RESULT:      -7.9      4.476      8.761
  Name = 
  5 active torsions:
  status: ('A' for Active; 'I' for Inactive)
    1  A    between atoms: C_6  and  C_10
    2  A    between atoms: C_9  and  C_25
    3  A    between atoms: C_12  and  C_20
    4  A    between atoms: C_15  and  C_19
    5  A    between atoms: C_24  and  C_25
                            x       y       z     vdW  Elec       q    Type
                         _______ _______ _______ _____ _____    ______ ____

>  <TORSDO>
F 5

$$$$
=
 OpenBabel11062420333D

 32 35  0  0  1  0  0  0  0  0999 V2000
  190.5200  176.1360  144.5660 C   0  0  0  0  0  3  0  0  0  0  0  0
  188.2710  177.1780  145.0460 C   0  0  0  0  0  0  0  0  0  0  0  0
  186.2450  178.6270  142.2410 O   0  0  0  0  0  0  0  0  0  0  0  0
  186.3240  178.4380  145.8950 C   0  0  0  0  0  0  0  0  0  0  0  0
  187.8650  177.5540  143.6490 C   0  0  0  0  0  0  0  0  0  0  0  0
  187.4370  177.6190  146.0900 O   0  0  0  0  0  0  0  0  0  0  0  0
  189.3680  176.4760  145.4120 C   0  0  0  0  0  0  0  0  0  0  0  0
  187.9170  177.4370  141.1670 O   0  0  0  0  0  0  0  0  0  0  0  0
  185.9750  178.7840  144.6630 C   0  0  0  0  0  3  0  0  0  0  0  0
  190.7410  176.1960  143.2570 C   0  0  0  0  0  0  0  0  0  0  0  0
  189.7490  176.6110  142.2660 C   0  0  0  0  0  3  0  0  0  0  0  0
  186.7380  178.2980  143.5060 C   0  0  0  0  0  0  0  0  0  0  0  0
  186.5560  177.8320  141.1100 C   0  0  0  0  0  2  0  0  0  0  0  0
  188.5490  177.1600  142.3830 C   0  0  0  0  0  0  0  0  0  0  0  0
  194.5160  175.7820  142.8830 C   0  0  0  0  0  0  0  0  0  0  0  0
  193.4060  174.4610  141.1760 C   0  0  0  0  0  3  0  0  0  0  0  0
  192.0710  175.7520  142.7520 C   0  0  0  0  0  0  0  0  0  0  0  0
  194.5770  174.9020  141.7930 C   0  0  0  0  0  3  0  0  0  0  0  0
  193.2620  176.1890  143.3620 C   0  0  0  0  0  3  0  0  0  0  0  0
  192.1630  174.8850  141.6500 C   0  0  0  0  0  3  0  0  0  0  0  0
  196.5590  176.9550  142.6950 F   0  0  0  0  0  0  0  0  0  0  0  0
  195.4820  177.0260  144.6770 O   0  0  0  0  0  1  0  0  0  0  0  0
  195.7830  176.2180  143.5750 C   0  0  1  0  0  0  0  0  0  0  0  0
  197.9390  175.2220  143.8680 F   0  0  0  0  0  0  0  0  0  0  0  0
  196.5830  174.9980  144.0330 C   0  0  1  0  0  3  0  0  0  0  0  0
  196.3220  174.7080  145.3750 O   0  0  0  0  0  1  0  0  0  0  0  0
  184.2340  178.4300  147.2970 N   0  0  0  0  0  1  0  0  0  0  0  0
  185.5550  178.9070  147.0560 C   0  0  0  0  0  0  0  0  0  0  0  0
  186.0660  179.7390  147.8500 O   0  0  0  0  0  0  0  0  0  0  0  0
  189.5560  176.0740  146.8310 C   0  0  0  0  0  0  0  0  0  0  0  0
  189.0200  174.7840  147.3590 C   0  0  0  0  0  1  0  0  0  0  0  0
  190.2380  176.7980  147.6050 O   0  0  0  0  0  0  0  0  0  0  0  0
  1  7  1  0  0  0  0
  2  7  2  0  0  0  0
  2  6  1  0  0  0  0
  3 12  1  0  0  0  0
  4  6  1  0  0  0  0
  4 28  1  0  0  0  0
  5  2  1  0  0  0  0
  7 30  1  0  0  0  0
  8 14  1  0  0  0  0
  9  4  2  0  0  0  0
 10  1  2  0  0  0  0
 11 14  2  0  0  0  0
 11 10  1  0  0  0  0
 12  5  2  0  0  0  0
 12  9  1  0  0  0  0
 13  8  1  0  0  0  0
 13  3  1  0  0  0  0
 14  5  1  0  0  0  0
 15 19  1  0  0  0  0
 15 23  1  0  0  0  0
 16 20  2  0  0  0  0
 16 18  1  0  0  0  0
 17 10  1  0  0  0  0
 17 19  2  0  0  0  0
 18 15  2  0  0  0  0
 20 17  1  0  0  0  0
 23 21  1  6  0  0  0
 23 25  1  0  0  0  0
 23 22  1  0  0  0  0
 25 24  1  1  0  0  0
 25 26  1  0  0  0  0
 28 27  1  0  0  0  0
 28 29  2  0  0  0  0
 30 31  1  0  0  0  0
 30 32  2  0  0  0  0
M  END
>  <MODEL>
6

>  <REMARK>
 VINA RESULT:      -7.9      2.482      4.698
  Name = 
  5 active torsions:
  status: ('A' for Active; 'I' for Inactive)
    1  A    between atoms: C_6  and  C_10
    2  A    between atoms: C_9  and  C_25
    3  A    between atoms: C_12  and  C_20
    4  A    between atoms: C_15  and  C_19
    5  A    between atoms: C_24  and  C_25
                            x       y       z     vdW  Elec       q    Type
                         _______ _______ _______ _____ _____    ______ ____

>  <TORSDO>
F 5

$$$$
=
 OpenBabel11062420333D

 32 35  0  0  1  0  0  0  0  0999 V2000
  188.0290  177.1430  145.7120 C   0  0  0  0  0  3  0  0  0  0  0  0
  186.2750  177.3020  143.9030 C   0  0  0  0  0  0  0  0  0  0  0  0
  187.1740  176.5000  140.3510 O   0  0  0  0  0  0  0  0  0  0  0  0
  184.4550  177.9150  142.3500 C   0  0  0  0  0  0  0  0  0  0  0  0
  187.0910  176.8600  142.7210 C   0  0  0  0  0  0  0  0  0  0  0  0
  184.9740  177.7700  143.6380 O   0  0  0  0  0  0  0  0  0  0  0  0
  186.6640  177.3190  145.1980 C   0  0  0  0  0  0  0  0  0  0  0  0
  188.9900  175.7420  141.5710 O   0  0  0  0  0  0  0  0  0  0  0  0
  185.1820  177.5390  141.3060 C   0  0  0  0  0  3  0  0  0  0  0  0
  189.1660  176.7290  145.1610 C   0  0  0  0  0  0  0  0  0  0  0  0
  189.2970  176.2580  143.7820 C   0  0  0  0  0  3  0  0  0  0  0  0
  186.5180  176.9600  141.4950 C   0  0  0  0  0  0  0  0  0  0  0  0
  188.1740  175.4990  140.4380 C   0  0  0  0  0  2  0  0  0  0  0  0
  188.4650  176.2780  142.7520 C   0  0  0  0  0  0  0  0  0  0  0  0
  192.8050  176.4260  146.2670 C   0  0  0  0  0  0  0  0  0  0  0  0
  191.4170  176.8020  148.2210 C   0  0  0  0  0  3  0  0  0  0  0  0
  190.3830  176.6820  146.0200 C   0  0  0  0  0  0  0  0  0  0  0  0
  192.6750  176.6030  147.6510 C   0  0  0  0  0  3  0  0  0  0  0  0
  191.6590  176.4800  145.4610 C   0  0  0  0  0  3  0  0  0  0  0  0
  190.2800  176.8390  147.4120 C   0  0  0  0  0  3  0  0  0  0  0  0
  194.8360  177.4740  145.6620 F   0  0  0  0  0  0  0  0  0  0  0  0
  194.9280  175.3370  146.3840 O   0  0  0  0  0  1  0  0  0  0  0  0
  194.1720  176.2570  145.6500 C   0  0  1  0  0  0  0  0  0  0  0  0
  194.9850  176.4090  143.4050 F   0  0  0  0  0  0  0  0  0  0  0  0
  194.0440  175.7820  144.2020 C   0  0  1  0  0  3  0  0  0  0  0  0
  194.2140  174.3980  144.1170 O   0  0  0  0  0  1  0  0  0  0  0  0
  182.4500  178.4030  140.9090 N   0  0  0  0  0  1  0  0  0  0  0  0
  183.1110  178.4800  142.1690 C   0  0  0  0  0  0  0  0  0  0  0  0
  182.5320  179.0390  143.1370 O   0  0  0  0  0  0  0  0  0  0  0  0
  185.6880  177.6620  146.2650 C   0  0  0  0  0  0  0  0  0  0  0  0
  185.5740  179.0480  146.8090 C   0  0  0  0  0  1  0  0  0  0  0  0
  184.8840  176.7880  146.6880 O   0  0  0  0  0  0  0  0  0  0  0  0
  2  7  2  0  0  0  0
  3 13  1  0  0  0  0
  3 12  1  0  0  0  0
  4  6  1  0  0  0  0
  5 14  1  0  0  0  0
  5  2  1  0  0  0  0
  6  2  1  0  0  0  0
  7  1  1  0  0  0  0
  7 30  1  0  0  0  0
  8 14  1  0  0  0  0
  9 12  1  0  0  0  0
  9  4  2  0  0  0  0
 10  1  2  0  0  0  0
 10 17  1  0  0  0  0
 11 10  1  0  0  0  0
 12  5  2  0  0  0  0
 13  8  1  0  0  0  0
 14 11  2  0  0  0  0
 15 18  1  0  0  0  0
 17 20  2  0  0  0  0
 18 16  2  0  0  0  0
 19 17  1  0  0  0  0
 19 15  2  0  0  0  0
 20 16  1  0  0  0  0
 23 21  1  1  0  0  0
 23 15  1  0  0  0  0
 23 22  1  0  0  0  0
 25 24  1  6  0  0  0
 25 23  1  0  0  0  0
 26 25  1  0  0  0  0
 27 28  1  0  0  0  0
 28  4  1  0  0  0  0
 28 29  2  0  0  0  0
 30 32  2  0  0  0  0
 30 31  1  0  0  0  0
M  END
>  <MODEL>
7

>  <REMARK>
 VINA RESULT:      -7.9      1.512      3.632
  Name = 
  5 active torsions:
  status: ('A' for Active; 'I' for Inactive)
    1  A    between atoms: C_6  and  C_10
    2  A    between atoms: C_9  and  C_25
    3  A    between atoms: C_12  and  C_20
    4  A    between atoms: C_15  and  C_19
    5  A    between atoms: C_24  and  C_25
                            x       y       z     vdW  Elec       q    Type
                         _______ _______ _______ _____ _____    ______ ____

>  <TORSDO>
F 5

$$$$
=
 OpenBabel11062420333D

 32 35  0  0  1  0  0  0  0  0999 V2000
  190.3100  176.2180  144.5280 C   0  0  0  0  0  3  0  0  0  0  0  0
  191.8230  174.1980  144.4510 C   0  0  0  0  0  0  0  0  0  0  0  0
  190.7440  171.1230  142.5940 O   0  0  0  0  0  0  0  0  0  0  0  0
  193.3440  172.3010  144.8830 C   0  0  0  0  0  0  0  0  0  0  0  0
  190.9890  173.2920  143.5890 C   0  0  0  0  0  0  0  0  0  0  0  0
  192.9860  173.6440  145.0170 O   0  0  0  0  0  0  0  0  0  0  0  0
  191.5650  175.4900  144.7590 C   0  0  0  0  0  0  0  0  0  0  0  0
  189.2210  172.7380  141.9330 O   0  0  0  0  0  0  0  0  0  0  0  0
  192.5990  171.4970  144.1360 C   0  0  0  0  0  3  0  0  0  0  0  0
  189.2180  175.9540  143.8170 C   0  0  0  0  0  0  0  0  0  0  0  0
  189.0420  174.7700  142.9770 C   0  0  0  0  0  3  0  0  0  0  0  0
  191.4140  172.0120  143.4380 C   0  0  0  0  0  0  0  0  0  0  0  0
  189.9540  171.5980  141.5170 C   0  0  0  0  0  2  0  0  0  0  0  0
  189.7530  173.6600  142.8410 C   0  0  0  0  0  0  0  0  0  0  0  0
  186.4230  178.2500  145.0310 C   0  0  0  0  0  0  0  0  0  0  0  0
  186.6840  178.5250  142.6340 C   0  0  0  0  0  3  0  0  0  0  0  0
  188.1190  176.9590  143.8250 C   0  0  0  0  0  0  0  0  0  0  0  0
  186.0480  178.8650  143.8290 C   0  0  0  0  0  3  0  0  0  0  0  0
  187.4650  177.3110  145.0210 C   0  0  0  0  0  3  0  0  0  0  0  0
  187.7090  177.5790  142.6320 C   0  0  0  0  0  3  0  0  0  0  0  0
  185.6630  180.0360  146.3800 F   0  0  0  0  0  0  0  0  0  0  0  0
  184.4760  178.1160  146.4070 O   0  0  0  0  0  1  0  0  0  0  0  0
  185.7640  178.6550  146.3260 C   0  0  1  0  0  0  0  0  0  0  0  0
  186.8550  179.2290  148.3770 F   0  0  0  0  0  0  0  0  0  0  0  0
  186.5980  178.1770  147.5160 C   0  0  1  0  0  3  0  0  0  0  0  0
  185.9370  177.1610  148.2110 O   0  0  0  0  0  1  0  0  0  0  0  0
  195.7060  172.6070  145.6970 N   0  0  0  0  0  1  0  0  0  0  0  0
  194.5400  171.7970  145.5710 C   0  0  0  0  0  0  0  0  0  0  0  0
  194.5400  170.6370  146.0590 O   0  0  0  0  0  0  0  0  0  0  0  0
  192.5620  176.2880  145.5190 C   0  0  0  0  0  0  0  0  0  0  0  0
  192.5420  176.3560  147.0110 C   0  0  0  0  0  1  0  0  0  0  0  0
  193.4940  176.8770  144.9080 O   0  0  0  0  0  0  0  0  0  0  0  0
  1  7  1  0  0  0  0
  2  7  2  0  0  0  0
  2  6  1  0  0  0  0
  3 12  1  0  0  0  0
  4  6  1  0  0  0  0
  4 28  1  0  0  0  0
  5  2  1  0  0  0  0
  7 30  1  0  0  0  0
  8 14  1  0  0  0  0
  9  4  2  0  0  0  0
 10 17  1  0  0  0  0
 10  1  2  0  0  0  0
 11 10  1  0  0  0  0
 12  5  2  0  0  0  0
 12  9  1  0  0  0  0
 13  8  1  0  0  0  0
 13  3  1  0  0  0  0
 14 11  2  0  0  0  0
 14  5  1  0  0  0  0
 15 23  1  0  0  0  0
 16 18  1  0  0  0  0
 17 19  2  0  0  0  0
 18 15  2  0  0  0  0
 19 15  1  0  0  0  0
 20 16  2  0  0  0  0
 20 17  1  0  0  0  0
 23 21  1  1  0  0  0
 23 22  1  0  0  0  0
 23 25  1  0  0  0  0
 25 26  1  1  0  0  0
 25 24  1  0  0  0  0
 28 27  1  0  0  0  0
 28 29  2  0  0  0  0
 30 31  1  0  0  0  0
 32 30  2  0  0  0  0
M  END
>  <MODEL>
8

>  <REMARK>
 VINA RESULT:      -7.8      4.416      8.681
  Name = 
  5 active torsions:
  status: ('A' for Active; 'I' for Inactive)
    1  A    between atoms: C_6  and  C_10
    2  A    between atoms: C_9  and  C_25
    3  A    between atoms: C_12  and  C_20
    4  A    between atoms: C_15  and  C_19
    5  A    between atoms: C_24  and  C_25
                            x       y       z     vdW  Elec       q    Type
                         _______ _______ _______ _____ _____    ______ ____

>  <TORSDO>
F 5

$$$$
=
 OpenBabel11062420333D

 32 35  0  0  1  0  0  0  0  0999 V2000
  190.1080  176.2180  145.0220 C   0  0  0  0  0  3  0  0  0  0  0  0
  191.7570  174.9230  143.6160 C   0  0  0  0  0  0  0  0  0  0  0  0
  190.5670  173.0380  140.5990 O   0  0  0  0  0  0  0  0  0  0  0  0
  193.5340  173.4770  142.6950 C   0  0  0  0  0  0  0  0  0  0  0  0
  190.8290  174.4060  142.5530 C   0  0  0  0  0  0  0  0  0  0  0  0
  193.0810  174.4470  143.5900 O   0  0  0  0  0  0  0  0  0  0  0  0
  191.4500  175.7860  144.6110 C   0  0  0  0  0  0  0  0  0  0  0  0
  188.7580  174.3630  141.1790 O   0  0  0  0  0  0  0  0  0  0  0  0
  192.7110  173.0080  141.7670 C   0  0  0  0  0  3  0  0  0  0  0  0
  188.9030  176.1010  144.4730 C   0  0  0  0  0  0  0  0  0  0  0  0
  188.6410  175.4940  143.1680 C   0  0  0  0  0  3  0  0  0  0  0  0
  191.3350  173.5120  141.6650 C   0  0  0  0  0  0  0  0  0  0  0  0
  189.4750  173.7900  140.0980 C   0  0  0  0  0  2  0  0  0  0  0  0
  189.4070  174.8010  142.3390 C   0  0  0  0  0  0  0  0  0  0  0  0
  185.7210  178.0640  145.2370 C   0  0  0  0  0  0  0  0  0  0  0  0
  186.4650  176.9510  147.2610 C   0  0  0  0  0  3  0  0  0  0  0  0
  187.7420  176.6810  145.2050 C   0  0  0  0  0  0  0  0  0  0  0  0
  185.5490  177.7670  146.5950 C   0  0  0  0  0  3  0  0  0  0  0  0
  186.8100  177.5080  144.5490 C   0  0  0  0  0  3  0  0  0  0  0  0
  187.5540  176.4150  146.5710 C   0  0  0  0  0  3  0  0  0  0  0  0
  183.5690  179.0400  145.2980 F   0  0  0  0  0  0  0  0  0  0  0  0
  185.2160  180.1850  144.2630 O   0  0  0  0  0  1  0  0  0  0  0  0
  184.7020  178.9070  144.5110 C   0  0  1  0  0  0  0  0  0  0  0  0
  182.9960  178.5430  142.8740 F   0  0  0  0  0  0  0  0  0  0  0  0
  184.3090  178.2440  143.1910 C   0  0  1  0  0  3  0  0  0  0  0  0
  185.1440  178.6680  142.1540 O   0  0  0  0  0  1  0  0  0  0  0  0
  195.8690  173.2850  141.7740 N   0  0  0  0  0  1  0  0  0  0  0  0
  194.9170  172.9890  142.7920 C   0  0  0  0  0  0  0  0  0  0  0  0
  195.2700  172.3020  143.7860 O   0  0  0  0  0  0  0  0  0  0  0  0
  192.5200  176.3030  145.5050 C   0  0  0  0  0  0  0  0  0  0  0  0
  192.7120  175.7730  146.8880 C   0  0  0  0  0  1  0  0  0  0  0  0
  193.3340  177.1650  145.0780 O   0  0  0  0  0  0  0  0  0  0  0  0
  2  7  2  0  0  0  0
  3 12  1  0  0  0  0
  4 28  1  0  0  0  0
  4  6  1  0  0  0  0
  5  2  1  0  0  0  0
  6  2  1  0  0  0  0
  7  1  1  0  0  0  0
  7 30  1  0  0  0  0
  8 14  1  0  0  0  0
  9  4  2  0  0  0  0
 10  1  2  0  0  0  0
 10 17  1  0  0  0  0
 11 10  1  0  0  0  0
 12  9  1  0  0  0  0
 12  5  2  0  0  0  0
 13  3  1  0  0  0  0
 13  8  1  0  0  0  0
 14  5  1  0  0  0  0
 14 11  2  0  0  0  0
 15 18  1  0  0  0  0
 17 20  2  0  0  0  0
 18 16  2  0  0  0  0
 19 17  1  0  0  0  0
 19 15  2  0  0  0  0
 20 16  1  0  0  0  0
 23 22  1  6  0  0  0
 23 15  1  0  0  0  0
 23 21  1  0  0  0  0
 24 25  1  0  0  0  0
 25 26  1  6  0  0  0
 25 23  1  0  0  0  0
 27 28  1  0  0  0  0
 28 29  2  0  0  0  0
 30 31  1  0  0  0  0
 32 30  2  0  0  0  0
M  END
>  <MODEL>
9

>  <REMARK>
 VINA RESULT:      -7.6      4.569      8.577
  Name = 
  5 active torsions:
  status: ('A' for Active; 'I' for Inactive)
    1  A    between atoms: C_6  and  C_10
    2  A    between atoms: C_9  and  C_25
    3  A    between atoms: C_12  and  C_20
    4  A    between atoms: C_15  and  C_19
    5  A    between atoms: C_24  and  C_25
                            x       y       z     vdW  Elec       q    Type
                         _______ _______ _______ _____ _____    ______ ____

>  <TORSDO>
F 5

$$$$
