=
 OpenBabel11062419093D

 54 60  0  0  1  0  0  0  0  0999 V2000
  195.4460  173.5320  143.3900 C   0  0  2  0  0  3  0  0  0  0  0  0
  193.9890  175.4430  146.1670 O   0  0  0  0  0  0  0  0  0  0  0  0
  187.7470  176.5080  142.7950 C   0  0  1  0  0  3  0  0  0  0  0  0
  193.3590  172.2650  144.1660 C   0  0  1  0  0  3  0  0  0  0  0  0
  194.6720  172.6650  144.3850 C   0  0  2  0  0  0  0  0  0  0  0  0
  193.1880  174.5040  145.9230 C   0  0  0  0  0  0  0  0  0  0  0  0
  190.6440  174.3460  145.7030 C   0  0  2  0  0  3  0  0  0  0  0  0
  185.9750  177.0450  138.9260 C   0  0  0  0  0  3  0  0  0  0  0  0
  187.5660  175.9240  140.3470 C   0  0  0  0  0  3  0  0  0  0  0  0
  186.1640  177.6370  141.2310 N   0  0  0  0  0  0  0  0  0  0  0  0
  187.4060  175.2710  137.9680 N   0  0  0  0  0  0  0  0  0  0  0  0
  196.3300  172.6700  142.4980 C   0  0  0  0  0  2  0  0  0  0  0  0
  190.2480  173.7230  139.6120 C   0  0  2  0  0  3  0  0  0  0  0  0
  187.1610  176.7270  141.4200 C   0  0  0  0  0  0  0  0  0  0  0  0
  189.6940  172.6030  144.2080 C   0  0  0  0  0  3  0  0  0  0  0  0
  186.8550  175.4800  136.6390 C   0  0  0  0  0  1  0  0  0  0  0  0
  196.5970  173.4520  138.1430 C   0  0  2  0  0  3  0  0  0  0  0  0
  193.1950  172.4860  137.9280 C   0  0  1  0  0  3  0  0  0  0  0  0
  192.0960  173.3370  138.0570 O   0  0  0  0  0  0  0  0  0  0  0  0
  189.3020  175.0570  143.7650 C   0  0  2  0  0  3  0  0  0  0  0  0
  190.3590  172.9160  145.3300 C   0  0  0  0  0  3  0  0  0  0  0  0
  195.5860  172.4850  137.5110 C   0  0  0  0  0  2  0  0  0  0  0  0
  193.5990  173.4400  145.0680 N   0  0  0  0  0  0  0  0  0  0  0  0
  190.6040  175.3080  144.5160 C   0  0  0  0  0  2  0  0  0  0  0  0
  186.9870  176.0890  139.0810 C   0  0  0  0  0  0  0  0  0  0  0  0
  191.6270  173.1060  139.3570 C   0  0  2  0  0  3  0  0  0  0  0  0
  196.7580  173.4400  141.2620 C   0  0  0  0  0  2  0  0  0  0  0  0
  190.3790  172.2440  139.3050 C   0  0  0  0  0  2  0  0  0  0  0  0
  195.6090  171.6640  145.5790 S   0  0  0  0  0  1  0  0  0  0  0  0
  189.2910  173.6410  143.1870 C   0  0  0  0  0  2  0  0  0  0  0  0
  192.7600  172.7570  142.8540 C   0  0  0  0  0  1  0  0  0  0  0  0
  196.2280  174.4630  144.0750 O   0  0  0  0  0  1  0  0  0  0  0  0
  189.1250  176.0390  142.7090 N   0  0  0  0  0  2  0  0  0  0  0  0
  193.4120  172.2020  136.5680 O   0  0  0  0  0  0  0  0  0  0  0  0
  195.9730  174.3350  139.1290 N   0  0  0  0  0  2  0  0  0  0  0  0
  191.8610  174.4930  146.6150 C   0  0  0  0  0  2  0  0  0  0  0  0
  189.6880  174.4900  138.4140 C   0  0  0  0  0  2  0  0  0  0  0  0
  195.5930  173.5520  140.2970 C   0  0  0  0  0  2  0  0  0  0  0  0
  188.2410  174.0930  138.1640 C   0  0  0  0  0  2  0  0  0  0  0  0
  185.5750  177.8140  140.0200 C   0  0  0  0  0  3  0  0  0  0  0  0
  194.2660  173.1510  137.1580 C   0  0  1  0  0  3  0  0  0  0  0  0
  196.6240  175.4650  136.8190 O   0  0  0  0  0  1  0  0  0  0  0  0
  197.3230  174.2860  137.0830 C   0  0  2  0  0  3  0  0  0  0  0  0
  197.4180  174.0890  134.6720 N   0  0  0  0  0  2  0  0  0  0  0  0
  197.4840  173.5080  135.8130 C   0  0  0  0  0  3  0  0  0  0  0  0
  187.6960  177.7710  143.6450 C   0  0  0  0  0  2  0  0  0  0  0  0
  186.9880  177.4780  144.9580 C   0  0  0  0  0  2  0  0  0  0  0  0
  186.2290  178.7070  145.4300 C   0  0  2  0  0  3  0  0  0  0  0  0
  186.2430  177.3660  147.5170 C   0  0  0  0  0  2  0  0  0  0  0  0
  186.2340  178.8260  147.9130 C   0  0  0  0  0  2  0  0  0  0  0  0
  185.4530  178.3670  146.6950 C   0  0  0  0  0  3  0  0  0  0  0  0
  185.4800  180.3300  143.8230 O   0  0  0  0  0  0  0  0  0  0  0  0
  184.2210  178.4210  143.9730 O   0  0  0  0  0  1  0  0  0  0  0  0
  185.3130  179.1950  144.3470 C   0  0  0  0  0  0  0  0  0  0  0  0
  1 32  1  1  0  0  0
  1  5  1  0  0  0  0
  3 46  1  1  0  0  0
  4 31  1  6  0  0  0
  4  5  1  0  0  0  0
  4 23  1  0  0  0  0
  5 23  1  0  0  0  0
  5 29  1  1  0  0  0
  6  2  2  0  0  0  0
  6 36  1  0  0  0  0
  7 24  1  6  0  0  0
  7 36  1  0  0  0  0
  8 25  2  0  0  0  0
  8 40  1  0  0  0  0
  9 14  2  0  0  0  0
 10 14  1  0  0  0  0
 11 39  1  0  0  0  0
 11 25  1  0  0  0  0
 12  1  1  0  0  0  0
 13 37  1  6  0  0  0
 14  3  1  0  0  0  0
 15 21  2  0  0  0  0
 16 11  1  0  0  0  0
 17 43  1  6  0  0  0
 17 35  1  0  0  0  0
 18 34  1  6  0  0  0
 18 19  1  0  0  0  0
 19 26  1  0  0  0  0
 20 30  1  6  0  0  0
 20 24  1  0  0  0  0
 21  7  1  0  0  0  0
 22 17  1  0  0  0  0
 23  6  1  0  0  0  0
 25  9  1  0  0  0  0
 26 28  1  6  0  0  0
 26 13  1  0  0  0  0
 27 12  1  0  0  0  0
 28 13  1  0  0  0  0
 30 15  1  0  0  0  0
 33  3  1  0  0  0  0
 33 20  1  0  0  0  0
 34 41  1  0  0  0  0
 35 38  1  0  0  0  0
 38 27  1  0  0  0  0
 39 37  1  0  0  0  0
 40 10  2  0  0  0  0
 41 22  1  1  0  0  0
 41 18  1  0  0  0  0
 43 42  1  6  0  0  0
 44 45  2  0  0  0  0
 45 43  1  0  0  0  0
 46 47  1  0  0  0  0
 48 47  1  6  0  0  0
 48 51  1  0  0  0  0
 49 50  1  0  0  0  0
 51 49  1  0  0  0  0
 51 50  1  0  0  0  0
 52 54  2  0  0  0  0
 53 54  1  0  0  0  0
 54 48  1  0  0  0  0
M  END
>  <MODEL>
1

>  <REMARK>
 VINA RESULT:      -7.7      0.000      0.000
  Name = 
  7 active torsions:
  status: ('A' for Active; 'I' for Inactive)
    1  A    between atoms: C_3  and  C_51
    2  A    between atoms: C_10  and  C_29
    3  A    between atoms: C_20  and  C_49
    4  A    between atoms: C_23  and  C_29
    5  A    between atoms: C_33  and  C_49
    6  A    between atoms: C_38  and  C_49
    7  A    between atoms: C_38  and  C_51
                            x       y       z     vdW  Elec       q    Type
                         _______ _______ _______ _____ _____    ______ ____

>  <TORSDO>
F 7

$$$$
=
 OpenBabel11062419093D

 54 60  0  0  1  0  0  0  0  0999 V2000
  195.8830  172.4620  141.6360 C   0  0  2  0  0  3  0  0  0  0  0  0
  195.3320  174.3510  144.7380 O   0  0  0  0  0  0  0  0  0  0  0  0
  188.7020  176.3790  142.8960 C   0  0  1  0  0  3  0  0  0  0  0  0
  193.8660  171.4090  142.8150 C   0  0  1  0  0  3  0  0  0  0  0  0
  195.2360  171.6320  142.7480 C   0  0  2  0  0  0  0  0  0  0  0  0
  194.3800  173.5330  144.6460 C   0  0  0  0  0  0  0  0  0  0  0  0
  191.8520  173.6980  144.9980 C   0  0  2  0  0  3  0  0  0  0  0  0
  186.2160  177.3780  139.5470 C   0  0  0  0  0  3  0  0  0  0  0  0
  187.9160  175.9820  140.5320 C   0  0  0  0  0  3  0  0  0  0  0  0
  186.9790  177.7900  141.7710 N   0  0  0  0  0  0  0  0  0  0  0  0
  187.1550  175.5100  138.2280 N   0  0  0  0  0  0  0  0  0  0  0  0
  196.4280  171.5590  140.5380 C   0  0  0  0  0  2  0  0  0  0  0  0
  190.0580  173.5260  139.1330 C   0  0  2  0  0  3  0  0  0  0  0  0
  187.8650  176.7560  141.6970 C   0  0  0  0  0  0  0  0  0  0  0  0
  190.3760  172.1840  143.6910 C   0  0  0  0  0  3  0  0  0  0  0  0
  186.3600  175.8700  137.0650 C   0  0  0  0  0  1  0  0  0  0  0  0
  195.8400  172.5860  136.2660 C   0  0  2  0  0  3  0  0  0  0  0  0
  192.3760  172.0540  136.7860 C   0  0  1  0  0  3  0  0  0  0  0  0
  191.4540  173.0220  137.1900 O   0  0  0  0  0  0  0  0  0  0  0  0
  190.2260  174.6910  143.4390 C   0  0  2  0  0  3  0  0  0  0  0  0
  191.3060  172.3410  144.6470 C   0  0  0  0  0  3  0  0  0  0  0  0
  194.5960  171.7910  135.8430 C   0  0  0  0  0  2  0  0  0  0  0  0
  194.4510  172.4860  143.6820 N   0  0  0  0  0  0  0  0  0  0  0  0
  191.6810  174.7330  143.8860 C   0  0  0  0  0  2  0  0  0  0  0  0
  187.1020  176.2990  139.4360 C   0  0  0  0  0  0  0  0  0  0  0  0
  191.2530  172.7650  138.5530 C   0  0  2  0  0  3  0  0  0  0  0  0
  196.6750  172.3510  139.2660 C   0  0  0  0  0  2  0  0  0  0  0  0
  189.9220  172.0650  138.7500 C   0  0  0  0  0  2  0  0  0  0  0  0
  196.2710  170.4490  143.6630 S   0  0  0  0  0  1  0  0  0  0  0  0
  189.9010  173.3280  142.8260 C   0  0  0  0  0  2  0  0  0  0  0  0
  193.0660  172.0540  141.6900 C   0  0  0  0  0  1  0  0  0  0  0  0
  196.9110  173.2460  142.1620 O   0  0  0  0  0  1  0  0  0  0  0  0
  189.9540  175.7540  142.4860 N   0  0  0  0  0  2  0  0  0  0  0  0
  192.2510  171.8350  135.4020 O   0  0  0  0  0  0  0  0  0  0  0  0
  195.5690  173.4720  137.3990 N   0  0  0  0  0  2  0  0  0  0  0  0
  193.2470  173.6380  145.6180 C   0  0  0  0  0  2  0  0  0  0  0  0
  189.3560  174.4310  138.1210 C   0  0  0  0  0  2  0  0  0  0  0  0
  195.3520  172.6660  138.5930 C   0  0  0  0  0  2  0  0  0  0  0  0
  187.8500  174.2290  138.1880 C   0  0  0  0  0  2  0  0  0  0  0  0
  186.1690  178.1170  140.7300 C   0  0  0  0  0  3  0  0  0  0  0  0
  193.3320  172.6340  135.8190 C   0  0  1  0  0  3  0  0  0  0  0  0
  197.7080  172.9500  134.7890 O   0  0  0  0  0  1  0  0  0  0  0  0
  196.4210  173.3930  135.1010 C   0  0  2  0  0  3  0  0  0  0  0  0
  197.4790  175.5700  135.1180 N   0  0  0  0  0  2  0  0  0  0  0  0
  196.4660  174.8520  135.4350 C   0  0  0  0  0  3  0  0  0  0  0  0
  189.0050  177.5810  143.7820 C   0  0  0  0  0  2  0  0  0  0  0  0
  187.9070  177.7430  144.8210 C   0  0  0  0  0  2  0  0  0  0  0  0
  187.8140  176.4970  145.6850 C   0  0  2  0  0  3  0  0  0  0  0  0
  185.9850  177.9710  146.4820 C   0  0  0  0  0  2  0  0  0  0  0  0
  185.3550  176.8670  145.6630 C   0  0  0  0  0  2  0  0  0  0  0  0
  186.5560  176.5670  146.5400 C   0  0  0  0  0  3  0  0  0  0  0  0
  189.5270  175.2320  146.7990 O   0  0  0  0  0  0  0  0  0  0  0  0
  189.6060  177.5010  147.1030 O   0  0  0  0  0  1  0  0  0  0  0  0
  189.0420  176.3650  146.5350 C   0  0  0  0  0  0  0  0  0  0  0  0
  1 32  1  1  0  0  0
  1  5  1  0  0  0  0
  3 46  1  6  0  0  0
  4 31  1  6  0  0  0
  4 23  1  0  0  0  0
  5  4  1  0  0  0  0
  5 29  1  1  0  0  0
  5 23  1  0  0  0  0
  6  2  2  0  0  0  0
  6 36  1  0  0  0  0
  7 24  1  6  0  0  0
  7 36  1  0  0  0  0
  8 40  1  0  0  0  0
  9 14  2  0  0  0  0
 11 25  1  0  0  0  0
 12  1  1  0  0  0  0
 13 37  1  6  0  0  0
 14 10  1  0  0  0  0
 14  3  1  0  0  0  0
 15 21  2  0  0  0  0
 16 11  1  0  0  0  0
 17 43  1  6  0  0  0
 17 35  1  0  0  0  0
 18 34  1  6  0  0  0
 18 19  1  0  0  0  0
 19 26  1  0  0  0  0
 20 30  1  6  0  0  0
 20 24  1  0  0  0  0
 21  7  1  0  0  0  0
 22 17  1  0  0  0  0
 23  6  1  0  0  0  0
 25  8  2  0  0  0  0
 25  9  1  0  0  0  0
 26 28  1  6  0  0  0
 26 13  1  0  0  0  0
 27 12  1  0  0  0  0
 28 13  1  0  0  0  0
 30 15  1  0  0  0  0
 33  3  1  0  0  0  0
 33 20  1  0  0  0  0
 34 41  1  0  0  0  0
 35 38  1  0  0  0  0
 37 39  1  0  0  0  0
 38 27  1  0  0  0  0
 39 11  1  0  0  0  0
 40 10  2  0  0  0  0
 41 22  1  1  0  0  0
 41 18  1  0  0  0  0
 43 42  1  1  0  0  0
 43 45  1  0  0  0  0
 44 45  2  0  0  0  0
 46 47  1  0  0  0  0
 48 47  1  1  0  0  0
 48 54  1  0  0  0  0
 48 51  1  0  0  0  0
 49 51  1  0  0  0  0
 50 49  1  0  0  0  0
 50 51  1  0  0  0  0
 54 52  2  0  0  0  0
 54 53  1  0  0  0  0
M  END
>  <MODEL>
2

>  <REMARK>
 VINA RESULT:      -7.2      1.811      2.192
  Name = 
  7 active torsions:
  status: ('A' for Active; 'I' for Inactive)
    1  A    between atoms: C_3  and  C_51
    2  A    between atoms: C_10  and  C_29
    3  A    between atoms: C_20  and  C_49
    4  A    between atoms: C_23  and  C_29
    5  A    between atoms: C_33  and  C_49
    6  A    between atoms: C_38  and  C_49
    7  A    between atoms: C_38  and  C_51
                            x       y       z     vdW  Elec       q    Type
                         _______ _______ _______ _____ _____    ______ ____

>  <TORSDO>
F 7

$$$$
=
 OpenBabel11062419093D

 54 60  0  0  1  0  0  0  0  0999 V2000
  193.7460  171.0850  137.6570 C   0  0  2  0  0  3  0  0  0  0  0  0
  196.5620  170.7490  139.9910 O   0  0  0  0  0  0  0  0  0  0  0  0
  193.0880  173.9310  145.4010 C   0  0  1  0  0  3  0  0  0  0  0  0
  192.9260  169.6770  139.6340 C   0  0  1  0  0  3  0  0  0  0  0  0
  193.7000  169.7990  138.4860 C   0  0  2  0  0  0  0  0  0  0  0  0
  195.5690  170.2210  140.5550 C   0  0  0  0  0  0  0  0  0  0  0  0
  194.6090  170.3140  142.9240 C   0  0  2  0  0  3  0  0  0  0  0  0
  190.1520  176.9190  146.3180 C   0  0  0  0  0  3  0  0  0  0  0  0
  190.9020  175.0990  144.9290 C   0  0  0  0  0  3  0  0  0  0  0  0
  192.2420  175.8500  146.7520 N   0  0  0  0  0  0  0  0  0  0  0  0
  188.7270  176.1690  144.4430 N   0  0  0  0  0  0  0  0  0  0  0  0
  192.7980  170.9940  136.4690 C   0  0  0  0  0  2  0  0  0  0  0  0
  189.7120  173.8460  141.8320 C   0  0  2  0  0  3  0  0  0  0  0  0
  192.0750  175.0120  145.6890 C   0  0  0  0  0  0  0  0  0  0  0  0
  192.1610  170.0040  143.2200 C   0  0  0  0  0  3  0  0  0  0  0  0
  187.7500  177.2120  144.7060 C   0  0  0  0  0  1  0  0  0  0  0  0
  190.2280  174.4310  135.3570 C   0  0  2  0  0  3  0  0  0  0  0  0
  188.5230  173.9350  138.4220 C   0  0  1  0  0  3  0  0  0  0  0  0
  188.8540  174.5230  139.6440 O   0  0  0  0  0  0  0  0  0  0  0  0
  193.2940  172.1570  143.8910 C   0  0  2  0  0  3  0  0  0  0  0  0
  193.3530  169.4870  142.8840 C   0  0  0  0  0  3  0  0  0  0  0  0
  188.8800  174.1420  136.0310 C   0  0  0  0  0  2  0  0  0  0  0  0
  194.3890  169.9670  139.7950 N   0  0  0  0  0  0  0  0  0  0  0  0
  194.3530  171.8200  142.8500 C   0  0  0  0  0  2  0  0  0  0  0  0
  189.9350  176.0680  145.2270 C   0  0  0  0  0  0  0  0  0  0  0  0
  189.5150  173.5090  140.3510 C   0  0  2  0  0  3  0  0  0  0  0  0
  192.5150  172.3740  135.9030 C   0  0  0  0  0  2  0  0  0  0  0  0
  188.5860  172.9260  141.3990 C   0  0  0  0  0  2  0  0  0  0  0  0
  194.1820  168.2360  137.6930 S   0  0  0  0  0  1  0  0  0  0  0  0
  191.9740  171.4680  143.5440 C   0  0  0  0  0  2  0  0  0  0  0  0
  192.1270  170.9240  139.9930 C   0  0  0  0  0  1  0  0  0  0  0  0
  195.0480  171.3180  137.2100 O   0  0  0  0  0  1  0  0  0  0  0  0
  193.1080  173.5950  143.9820 N   0  0  0  0  0  2  0  0  0  0  0  0
  187.4210  174.6050  137.8620 O   0  0  0  0  0  0  0  0  0  0  0  0
  191.3300  174.4680  136.3210 N   0  0  0  0  0  2  0  0  0  0  0  0
  195.6960  169.7950  141.9840 C   0  0  0  0  0  2  0  0  0  0  0  0
  189.1810  175.2240  142.2240 C   0  0  0  0  0  2  0  0  0  0  0  0
  191.5690  173.1220  136.8240 C   0  0  0  0  0  2  0  0  0  0  0  0
  188.3500  175.1270  143.4950 C   0  0  0  0  0  2  0  0  0  0  0  0
  191.3190  176.7940  147.0730 C   0  0  0  0  0  3  0  0  0  0  0  0
  188.6850  174.9130  137.3260 C   0  0  1  0  0  3  0  0  0  0  0  0
  191.0600  176.6780  135.1100 O   0  0  0  0  0  1  0  0  0  0  0  0
  190.1940  175.7350  134.5550 C   0  0  2  0  0  3  0  0  0  0  0  0
  188.5980  177.5510  134.6890 N   0  0  0  0  0  2  0  0  0  0  0  0
  188.8070  176.2970  134.5130 C   0  0  0  0  0  3  0  0  0  0  0  0
  194.4900  174.3290  145.8450 C   0  0  0  0  0  2  0  0  0  0  0  0
  195.0890  175.3010  144.8420 C   0  0  0  0  0  2  0  0  0  0  0  0
  196.5370  174.9350  144.5570 C   0  0  2  0  0  3  0  0  0  0  0  0
  196.3740  175.9870  142.3170 C   0  0  0  0  0  2  0  0  0  0  0  0
  197.8220  175.6110  142.5390 C   0  0  0  0  0  2  0  0  0  0  0  0
  196.7170  174.7120  143.0620 C   0  0  0  0  0  3  0  0  0  0  0  0
  197.1960  173.7950  146.5680 O   0  0  0  0  0  1  0  0  0  0  0  0
  197.0600  172.4970  144.6840 O   0  0  0  0  0  0  0  0  0  0  0  0
  196.9240  173.7150  145.3390 C   0  0  0  0  0  0  0  0  0  0  0  0
  1 32  1  6  0  0  0
  1  5  1  0  0  0  0
  2  6  2  0  0  0  0
  3 14  1  0  0  0  0
  3 46  1  6  0  0  0
  4 23  1  0  0  0  0
  4 31  1  6  0  0  0
  5 29  1  6  0  0  0
  5  4  1  0  0  0  0
  5 23  1  0  0  0  0
  6 36  1  0  0  0  0
  7 36  1  6  0  0  0
  8 40  1  0  0  0  0
  9 25  1  0  0  0  0
  9 14  2  0  0  0  0
 10 40  2  0  0  0  0
 11 16  1  0  0  0  0
 11 25  1  0  0  0  0
 12  1  1  0  0  0  0
 13 28  1  1  0  0  0
 13 37  1  0  0  0  0
 14 10  1  0  0  0  0
 15 30  1  0  0  0  0
 17 43  1  1  0  0  0
 17 22  1  0  0  0  0
 17 35  1  0  0  0  0
 18 34  1  1  0  0  0
 18 19  1  0  0  0  0
 19 26  1  0  0  0  0
 20 24  1  6  0  0  0
 20 33  1  0  0  0  0
 21  7  1  0  0  0  0
 21 15  2  0  0  0  0
 23  6  1  0  0  0  0
 24  7  1  0  0  0  0
 25  8  2  0  0  0  0
 26 28  1  1  0  0  0
 26 13  1  0  0  0  0
 27 12  1  0  0  0  0
 27 38  1  0  0  0  0
 30 20  1  0  0  0  0
 33  3  1  0  0  0  0
 35 38  1  0  0  0  0
 37 39  1  0  0  0  0
 39 11  1  0  0  0  0
 41 22  1  6  0  0  0
 41 34  1  0  0  0  0
 41 18  1  0  0  0  0
 43 42  1  1  0  0  0
 45 43  1  0  0  0  0
 45 44  2  0  0  0  0
 47 46  1  0  0  0  0
 48 47  1  6  0  0  0
 48 54  1  0  0  0  0
 49 50  1  0  0  0  0
 49 51  1  0  0  0  0
 50 51  1  0  0  0  0
 51 48  1  0  0  0  0
 53 54  2  0  0  0  0
 54 52  1  0  0  0  0
M  END
>  <MODEL>
3

>  <REMARK>
 VINA RESULT:      -6.5      3.341      7.608
  Name = 
  7 active torsions:
  status: ('A' for Active; 'I' for Inactive)
    1  A    between atoms: C_3  and  C_51
    2  A    between atoms: C_10  and  C_29
    3  A    between atoms: C_20  and  C_49
    4  A    between atoms: C_23  and  C_29
    5  A    between atoms: C_33  and  C_49
    6  A    between atoms: C_38  and  C_49
    7  A    between atoms: C_38  and  C_51
                            x       y       z     vdW  Elec       q    Type
                         _______ _______ _______ _____ _____    ______ ____

>  <TORSDO>
F 7

$$$$
=
 OpenBabel11062419093D

 54 60  0  0  1  0  0  0  0  0999 V2000
  191.5640  175.7530  145.0210 C   0  0  2  0  0  3  0  0  0  0  0  0
  189.5720  177.9970  142.9050 O   0  0  0  0  0  0  0  0  0  0  0  0
  189.1830  173.3220  137.4770 C   0  0  1  0  0  3  0  0  0  0  0  0
  189.3470  174.5630  144.5350 C   0  0  1  0  0  3  0  0  0  0  0  0
  190.0540  175.5660  145.1890 C   0  0  2  0  0  0  0  0  0  0  0  0
  188.9240  176.9220  142.9890 C   0  0  0  0  0  0  0  0  0  0  0  0
  187.6680  175.4630  141.3050 C   0  0  2  0  0  3  0  0  0  0  0  0
  191.3060  170.1640  135.4990 C   0  0  0  0  0  3  0  0  0  0  0  0
  190.6320  171.2570  137.5380 C   0  0  0  0  0  3  0  0  0  0  0  0
  189.9700  172.1410  135.4250 N   0  0  0  0  0  0  0  0  0  0  0  0
  192.0110  169.2100  137.6680 N   0  0  0  0  0  0  0  0  0  0  0  0
  192.3180  175.0920  146.1680 C   0  0  0  0  0  2  0  0  0  0  0  0
  191.6540  170.8150  140.9050 C   0  0  2  0  0  3  0  0  0  0  0  0
  189.9730  172.2370  136.7850 C   0  0  0  0  0  0  0  0  0  0  0  0
  187.5160  173.0210  141.7380 C   0  0  0  0  0  3  0  0  0  0  0  0
  192.7810  168.1660  137.0120 C   0  0  0  0  0  1  0  0  0  0  0  0
  195.9830  172.7210  145.3950 C   0  0  2  0  0  3  0  0  0  0  0  0
  193.9240  170.4010  143.6850 C   0  0  1  0  0  3  0  0  0  0  0  0
  193.6090  170.4380  142.3250 O   0  0  0  0  0  0  0  0  0  0  0  0
  188.6790  173.9100  139.6830 C   0  0  2  0  0  3  0  0  0  0  0  0
  187.1800  174.2730  142.0850 C   0  0  0  0  0  3  0  0  0  0  0  0
  195.4970  171.2680  145.3170 C   0  0  0  0  0  2  0  0  0  0  0  0
  189.3160  175.9460  143.9520 N   0  0  0  0  0  0  0  0  0  0  0  0
  188.9270  175.1820  140.4830 C   0  0  0  0  0  2  0  0  0  0  0  0
  191.3220  170.2190  136.8990 C   0  0  0  0  0  0  0  0  0  0  0  0
  192.3090  170.9600  142.2820 C   0  0  2  0  0  3  0  0  0  0  0  0
  193.7790  174.8960  145.8060 C   0  0  0  0  0  2  0  0  0  0  0  0
  191.3180  169.8420  142.0180 C   0  0  0  0  0  2  0  0  0  0  0  0
  189.2500  176.2600  146.6640 S   0  0  0  0  0  1  0  0  0  0  0  0
  188.4930  172.7210  140.6260 C   0  0  0  0  0  2  0  0  0  0  0  0
  190.2000  173.6660  143.6460 C   0  0  0  0  0  1  0  0  0  0  0  0
  191.8740  177.1130  144.9700 O   0  0  0  0  0  1  0  0  0  0  0  0
  189.7770  173.6640  138.7640 N   0  0  0  0  0  2  0  0  0  0  0  0
  194.9140  169.4290  143.9120 O   0  0  0  0  0  0  0  0  0  0  0  0
  195.3060  173.5830  144.4240 N   0  0  0  0  0  2  0  0  0  0  0  0
  187.7090  176.7450  142.1340 C   0  0  0  0  0  2  0  0  0  0  0  0
  192.5610  170.1690  139.8590 C   0  0  0  0  0  2  0  0  0  0  0  0
  193.9150  173.7490  144.8230 C   0  0  0  0  0  2  0  0  0  0  0  0
  191.8070  169.0820  139.1060 C   0  0  0  0  0  2  0  0  0  0  0  0
  190.6210  171.1400  134.7750 C   0  0  0  0  0  3  0  0  0  0  0  0
  195.3400  170.7690  143.8900 C   0  0  1  0  0  3  0  0  0  0  0  0
  197.9410  174.1220  145.4700 O   0  0  0  0  0  1  0  0  0  0  0  0
  197.5000  172.8230  145.2130 C   0  0  2  0  0  3  0  0  0  0  0  0
  197.9210  173.2930  142.8750 N   0  0  0  0  0  2  0  0  0  0  0  0
  197.8960  172.4290  143.8230 C   0  0  0  0  0  3  0  0  0  0  0  0
  189.0720  174.5790  136.6240 C   0  0  0  0  0  2  0  0  0  0  0  0
  187.8250  174.5040  135.7580 C   0  0  0  0  0  2  0  0  0  0  0  0
  187.1790  175.8750  135.6480 C   0  0  2  0  0  3  0  0  0  0  0  0
  189.2010  176.8140  134.5610 C   0  0  0  0  0  2  0  0  0  0  0  0
  188.1380  177.8900  134.5530 C   0  0  0  0  0  2  0  0  0  0  0  0
  188.2540  176.9500  135.7380 C   0  0  0  0  0  3  0  0  0  0  0  0
  184.9260  176.1580  136.4360 O   0  0  0  0  0  0  0  0  0  0  0  0
  186.5540  176.1660  138.0470 O   0  0  0  0  0  1  0  0  0  0  0  0
  186.1480  176.0470  136.7240 C   0  0  0  0  0  0  0  0  0  0  0  0
  1 32  1  1  0  0  0
  1  5  1  0  0  0  0
  1 12  1  0  0  0  0
  2  6  2  0  0  0  0
  3 46  1  6  0  0  0
  3 33  1  0  0  0  0
  4 31  1  6  0  0  0
  4  5  1  0  0  0  0
  5 29  1  1  0  0  0
  6 23  1  0  0  0  0
  7 24  1  1  0  0  0
  7 21  1  0  0  0  0
  7 36  1  0  0  0  0
  8 25  1  0  0  0  0
 10 14  2  0  0  0  0
 11 39  1  0  0  0  0
 13 37  1  6  0  0  0
 13 28  1  0  0  0  0
 13 26  1  0  0  0  0
 14  3  1  0  0  0  0
 14  9  1  0  0  0  0
 15 21  2  0  0  0  0
 16 11  1  0  0  0  0
 17 43  1  6  0  0  0
 18 19  1  6  0  0  0
 18 41  1  0  0  0  0
 18 34  1  0  0  0  0
 20 24  1  1  0  0  0
 20 30  1  0  0  0  0
 22 17  1  0  0  0  0
 23  4  1  0  0  0  0
 23  5  1  0  0  0  0
 25  9  2  0  0  0  0
 25 11  1  0  0  0  0
 26 28  1  1  0  0  0
 26 19  1  0  0  0  0
 27 12  1  0  0  0  0
 30 15  1  0  0  0  0
 33 20  1  0  0  0  0
 35 38  1  0  0  0  0
 35 17  1  0  0  0  0
 36  6  1  0  0  0  0
 38 27  1  0  0  0  0
 39 37  1  0  0  0  0
 40 10  1  0  0  0  0
 40  8  2  0  0  0  0
 41 34  1  0  0  0  0
 41 22  1  1  0  0  0
 43 42  1  6  0  0  0
 44 45  2  0  0  0  0
 45 43  1  0  0  0  0
 47 46  1  0  0  0  0
 48 51  1  0  0  0  0
 48 47  1  1  0  0  0
 48 54  1  0  0  0  0
 49 51  1  0  0  0  0
 50 49  1  0  0  0  0
 50 51  1  0  0  0  0
 52 54  2  0  0  0  0
 54 53  1  0  0  0  0
M  END
>  <MODEL>
4

>  <REMARK>
 VINA RESULT:      -5.6      3.780      7.175
  Name = 
  7 active torsions:
  status: ('A' for Active; 'I' for Inactive)
    1  A    between atoms: C_3  and  C_51
    2  A    between atoms: C_10  and  C_29
    3  A    between atoms: C_20  and  C_49
    4  A    between atoms: C_23  and  C_29
    5  A    between atoms: C_33  and  C_49
    6  A    between atoms: C_38  and  C_49
    7  A    between atoms: C_38  and  C_51
                            x       y       z     vdW  Elec       q    Type
                         _______ _______ _______ _____ _____    ______ ____

>  <TORSDO>
F 7

$$$$
=
 OpenBabel11062419093D

 54 60  0  0  1  0  0  0  0  0999 V2000
  196.1510  169.4050  139.7430 C   0  0  2  0  0  3  0  0  0  0  0  0
  193.6930  169.2350  137.0190 O   0  0  0  0  0  0  0  0  0  0  0  0
  189.4260  174.2270  139.9070 C   0  0  1  0  0  3  0  0  0  0  0  0
  196.0340  171.7350  138.6830 C   0  0  1  0  0  3  0  0  0  0  0  0
  196.4230  170.4020  138.6140 C   0  0  2  0  0  0  0  0  0  0  0  0
  194.0380  170.4420  137.1110 C   0  0  0  0  0  0  0  0  0  0  0  0
  192.7670  172.6620  137.0930 C   0  0  2  0  0  3  0  0  0  0  0  0
  188.0810  175.8620  143.6360 C   0  0  0  0  0  3  0  0  0  0  0  0
  189.8640  174.9880  142.2720 C   0  0  0  0  0  3  0  0  0  0  0  0
  187.6440  175.1070  141.4140 N   0  0  0  0  0  0  0  0  0  0  0  0
  190.3700  175.7630  144.5640 N   0  0  0  0  0  0  0  0  0  0  0  0
  197.3770  169.2520  140.6330 C   0  0  0  0  0  2  0  0  0  0  0  0
  193.1970  174.0580  143.0530 C   0  0  2  0  0  3  0  0  0  0  0  0
  188.9490  174.7560  141.2380 C   0  0  0  0  0  0  0  0  0  0  0  0
  193.7240  174.5810  138.3480 C   0  0  0  0  0  3  0  0  0  0  0  0
  189.9200  176.2640  145.8530 C   0  0  0  0  0  1  0  0  0  0  0  0
  196.9660  169.1230  145.0460 C   0  0  2  0  0  3  0  0  0  0  0  0
  195.8930  172.4950  144.8790 C   0  0  1  0  0  3  0  0  0  0  0  0
  194.5740  172.9240  144.7260 O   0  0  0  0  0  0  0  0  0  0  0  0
  191.4740  173.6160  138.9580 C   0  0  2  0  0  3  0  0  0  0  0  0
  193.8080  173.7250  137.3180 C   0  0  0  0  0  3  0  0  0  0  0  0
  197.2250  170.5650  145.5020 C   0  0  0  0  0  2  0  0  0  0  0  0
  195.1690  170.7850  137.9080 N   0  0  0  0  0  0  0  0  0  0  0  0
  191.9690  172.3110  138.3490 C   0  0  0  0  0  2  0  0  0  0  0  0
  189.4330  175.5290  143.4910 C   0  0  0  0  0  0  0  0  0  0  0  0
  194.4790  173.2840  143.3740 C   0  0  2  0  0  3  0  0  0  0  0  0
  196.9980  168.6230  141.9620 C   0  0  0  0  0  2  0  0  0  0  0  0
  194.5080  174.7960  143.2450 C   0  0  0  0  0  2  0  0  0  0  0  0
  197.7500  170.0310  137.4280 S   0  0  0  0  0  1  0  0  0  0  0  0
  192.6590  174.4690  139.4130 C   0  0  0  0  0  2  0  0  0  0  0  0
  195.3220  172.1190  139.9740 C   0  0  0  0  0  1  0  0  0  0  0  0
  195.7930  168.1660  139.2090 O   0  0  0  0  0  1  0  0  0  0  0  0
  190.5800  173.3510  140.0730 N   0  0  0  0  0  2  0  0  0  0  0  0
  196.2790  172.6340  146.2240 O   0  0  0  0  0  0  0  0  0  0  0  0
  195.8640  169.0380  144.0850 N   0  0  0  0  0  2  0  0  0  0  0  0
  193.2980  171.4640  136.3070 C   0  0  0  0  0  2  0  0  0  0  0  0
  192.2740  174.2460  144.2560 C   0  0  0  0  0  2  0  0  0  0  0  0
  196.2810  169.6430  142.8270 C   0  0  0  0  0  2  0  0  0  0  0  0
  191.8100  175.6920  144.3440 C   0  0  0  0  0  2  0  0  0  0  0  0
  187.1960  175.6430  142.5800 C   0  0  0  0  0  3  0  0  0  0  0  0
  195.9480  171.3360  145.7940 C   0  0  1  0  0  3  0  0  0  0  0  0
  195.3860  168.3440  146.6890 O   0  0  0  0  0  1  0  0  0  0  0  0
  196.6960  168.1920  146.2310 C   0  0  2  0  0  3  0  0  0  0  0  0
  197.2480  168.4840  148.5700 N   0  0  0  0  0  2  0  0  0  0  0  0
  197.6500  168.4680  147.3520 C   0  0  0  0  0  3  0  0  0  0  0  0
  188.3280  173.4760  139.1640 C   0  0  0  0  0  2  0  0  0  0  0  0
  188.6810  173.3770  137.6890 C   0  0  0  0  0  2  0  0  0  0  0  0
  188.6350  174.7520  137.0450 C   0  0  2  0  0  3  0  0  0  0  0  0
  186.7860  176.2580  137.7270 C   0  0  0  0  0  2  0  0  0  0  0  0
  187.1220  176.5730  136.2860 C   0  0  0  0  0  2  0  0  0  0  0  0
  187.1870  175.1410  136.7830 C   0  0  0  0  0  3  0  0  0  0  0  0
  190.6560  175.0720  135.7830 O   0  0  0  0  0  1  0  0  0  0  0  0
  188.8050  174.4800  134.5690 O   0  0  0  0  0  0  0  0  0  0  0  0
  189.4360  174.7540  135.7760 C   0  0  0  0  0  0  0  0  0  0  0  0
  1 32  1  6  0  0  0
  1 12  1  0  0  0  0
  2  6  2  0  0  0  0
  3 46  1  1  0  0  0
  3 33  1  0  0  0  0
  3 14  1  0  0  0  0
  4 31  1  1  0  0  0
  5 29  1  6  0  0  0
  5  4  1  0  0  0  0
  5  1  1  0  0  0  0
  6 23  1  0  0  0  0
  7 36  1  1  0  0  0
  7 21  1  0  0  0  0
  7 24  1  0  0  0  0
  9 25  2  0  0  0  0
 10 40  1  0  0  0  0
 11 16  1  0  0  0  0
 12 27  1  0  0  0  0
 13 28  1  1  0  0  0
 13 26  1  0  0  0  0
 13 37  1  0  0  0  0
 14 10  2  0  0  0  0
 14  9  1  0  0  0  0
 15 30  1  0  0  0  0
 17 22  1  0  0  0  0
 17 43  1  1  0  0  0
 18 19  1  1  0  0  0
 18 41  1  0  0  0  0
 18 34  1  0  0  0  0
 20 24  1  1  0  0  0
 20 30  1  0  0  0  0
 20 33  1  0  0  0  0
 21 15  2  0  0  0  0
 23  5  1  0  0  0  0
 23  4  1  0  0  0  0
 25  8  1  0  0  0  0
 25 11  1  0  0  0  0
 26 28  1  1  0  0  0
 26 19  1  0  0  0  0
 27 38  1  0  0  0  0
 35 17  1  0  0  0  0
 36  6  1  0  0  0  0
 37 39  1  0  0  0  0
 38 35  1  0  0  0  0
 39 11  1  0  0  0  0
 40  8  2  0  0  0  0
 41 22  1  6  0  0  0
 41 34  1  0  0  0  0
 43 42  1  1  0  0  0
 43 45  1  0  0  0  0
 45 44  2  0  0  0  0
 47 46  1  0  0  0  0
 48 47  1  6  0  0  0
 50 51  1  0  0  0  0
 50 49  1  0  0  0  0
 51 48  1  0  0  0  0
 51 49  1  0  0  0  0
 53 54  2  0  0  0  0
 54 52  1  0  0  0  0
 54 48  1  0  0  0  0
M  END
>  <MODEL>
5

>  <REMARK>
 VINA RESULT:      -5.3      3.570      8.084
  Name = 
  7 active torsions:
  status: ('A' for Active; 'I' for Inactive)
    1  A    between atoms: C_3  and  C_51
    2  A    between atoms: C_10  and  C_29
    3  A    between atoms: C_20  and  C_49
    4  A    between atoms: C_23  and  C_29
    5  A    between atoms: C_33  and  C_49
    6  A    between atoms: C_38  and  C_49
    7  A    between atoms: C_38  and  C_51
                            x       y       z     vdW  Elec       q    Type
                         _______ _______ _______ _____ _____    ______ ____

>  <TORSDO>
F 7

$$$$
=
 OpenBabel11062419093D

 54 60  0  0  1  0  0  0  0  0999 V2000
  187.8440  176.5110  136.8350 C   0  0  2  0  0  3  0  0  0  0  0  0
  190.6600  176.9320  134.5140 O   0  0  0  0  0  0  0  0  0  0  0  0
  195.5200  174.5350  139.2150 C   0  0  1  0  0  3  0  0  0  0  0  0
  188.8970  174.2000  136.4970 C   0  0  1  0  0  3  0  0  0  0  0  0
  188.1420  175.2590  136.0060 C   0  0  2  0  0  0  0  0  0  0  0  0
  190.6910  175.7330  134.8970 C   0  0  0  0  0  0  0  0  0  0  0  0
  192.5530  174.1590  135.6680 C   0  0  2  0  0  3  0  0  0  0  0  0
  196.4610  174.3450  143.3950 C   0  0  0  0  0  3  0  0  0  0  0  0
  194.8350  174.2100  141.6220 C   0  0  0  0  0  3  0  0  0  0  0  0
  197.1160  174.6960  141.1270 N   0  0  0  0  0  0  0  0  0  0  0  0
  194.1070  173.8330  143.9540 N   0  0  0  0  0  0  0  0  0  0  0  0
  186.4680  176.4150  137.4800 C   0  0  0  0  0  2  0  0  0  0  0  0
  191.2920  174.0520  141.6720 C   0  0  2  0  0  3  0  0  0  0  0  0
  195.8360  174.5160  140.6920 C   0  0  0  0  0  0  0  0  0  0  0  0
  191.9830  172.3530  137.2770 C   0  0  0  0  0  3  0  0  0  0  0  0
  194.3990  173.8210  145.3780 C   0  0  0  0  0  1  0  0  0  0  0  0
  185.8530  177.6510  141.6930 C   0  0  2  0  0  3  0  0  0  0  0  0
  187.9180  174.9260  142.6210 C   0  0  1  0  0  3  0  0  0  0  0  0
  189.3060  174.9670  142.7660 O   0  0  0  0  0  0  0  0  0  0  0  0
  193.6400  174.1590  137.8770 C   0  0  2  0  0  3  0  0  0  0  0  0
  191.8670  172.8750  136.0460 C   0  0  0  0  0  3  0  0  0  0  0  0
  185.9560  176.3480  142.4990 C   0  0  0  0  0  2  0  0  0  0  0  0
  189.5750  175.1980  135.6040 N   0  0  0  0  0  0  0  0  0  0  0  0
  192.9140  175.0370  136.8660 C   0  0  0  0  0  2  0  0  0  0  0  0
  195.1360  174.1400  142.9890 C   0  0  0  0  0  0  0  0  0  0  0  0
  189.7970  174.3750  141.5950 C   0  0  2  0  0  3  0  0  0  0  0  0
  186.3370  177.4130  138.6160 C   0  0  0  0  0  2  0  0  0  0  0  0
  190.2620  172.9620  141.8920 C   0  0  0  0  0  2  0  0  0  0  0  0
  187.0560  174.8670  134.6020 S   0  0  0  0  0  1  0  0  0  0  0  0
  192.7060  173.0650  138.3960 C   0  0  0  0  0  2  0  0  0  0  0  0
  189.3950  174.3870  137.9240 C   0  0  0  0  0  1  0  0  0  0  0  0
  187.9110  177.6460  136.0260 O   0  0  0  0  0  1  0  0  0  0  0  0
  194.1460  174.9610  138.9780 N   0  0  0  0  0  2  0  0  0  0  0  0
  187.3110  174.9610  143.8890 O   0  0  0  0  0  0  0  0  0  0  0  0
  187.0560  177.9040  140.8980 N   0  0  0  0  0  2  0  0  0  0  0  0
  191.8650  174.8870  134.5150 C   0  0  0  0  0  2  0  0  0  0  0  0
  191.9440  174.4730  142.9890 C   0  0  0  0  0  2  0  0  0  0  0  0
  187.1280  176.9300  139.8180 C   0  0  0  0  0  2  0  0  0  0  0  0
  192.8000  173.3410  143.5380 C   0  0  0  0  0  2  0  0  0  0  0  0
  197.4420  174.6240  142.4440 C   0  0  0  0  0  3  0  0  0  0  0  0
  187.3130  176.1620  143.1580 C   0  0  1  0  0  3  0  0  0  0  0  0
  186.6580  179.1390  143.4080 O   0  0  0  0  0  1  0  0  0  0  0  0
  185.5600  178.8540  142.5930 C   0  0  2  0  0  3  0  0  0  0  0  0
  184.3840  178.8400  144.7090 N   0  0  0  0  0  2  0  0  0  0  0  0
  184.3590  178.5970  143.4500 C   0  0  0  0  0  3  0  0  0  0  0  0
  196.4690  175.4410  138.4400 C   0  0  0  0  0  2  0  0  0  0  0  0
  197.2230  174.6270  137.4020 C   0  0  0  0  0  2  0  0  0  0  0  0
  196.4450  174.5920  136.0970 C   0  0  2  0  0  3  0  0  0  0  0  0
  197.0540  172.1920  136.2540 C   0  0  0  0  0  2  0  0  0  0  0  0
  195.7760  172.2870  135.4490 C   0  0  0  0  0  2  0  0  0  0  0  0
  196.8440  173.3550  135.3030 C   0  0  0  0  0  3  0  0  0  0  0  0
  195.8160  176.7430  135.2280 O   0  0  0  0  0  1  0  0  0  0  0  0
  197.8860  175.9820  134.6050 O   0  0  0  0  0  0  0  0  0  0  0  0
  196.6970  175.8450  135.3120 C   0  0  0  0  0  0  0  0  0  0  0  0
  1 32  1  6  0  0  0
  1 12  1  0  0  0  0
  2  6  2  0  0  0  0
  3 46  1  6  0  0  0
  3 14  1  0  0  0  0
  4 31  1  1  0  0  0
  5 29  1  6  0  0  0
  5  4  1  0  0  0  0
  5  1  1  0  0  0  0
  6 23  1  0  0  0  0
  7 36  1  6  0  0  0
  7 21  1  0  0  0  0
  7 24  1  0  0  0  0
  9 25  2  0  0  0  0
 10 40  1  0  0  0  0
 11 16  1  0  0  0  0
 12 27  1  0  0  0  0
 13 28  1  1  0  0  0
 13 37  1  0  0  0  0
 14 10  2  0  0  0  0
 14  9  1  0  0  0  0
 15 30  1  0  0  0  0
 17 22  1  0  0  0  0
 17 43  1  1  0  0  0
 18 19  1  1  0  0  0
 18 41  1  0  0  0  0
 18 34  1  0  0  0  0
 20 24  1  6  0  0  0
 20 30  1  0  0  0  0
 20 33  1  0  0  0  0
 21 15  2  0  0  0  0
 23  5  1  0  0  0  0
 23  4  1  0  0  0  0
 25  8  1  0  0  0  0
 25 11  1  0  0  0  0
 26 13  1  0  0  0  0
 26 28  1  1  0  0  0
 26 19  1  0  0  0  0
 27 38  1  0  0  0  0
 33  3  1  0  0  0  0
 35 17  1  0  0  0  0
 36  6  1  0  0  0  0
 37 39  1  0  0  0  0
 38 35  1  0  0  0  0
 39 11  1  0  0  0  0
 40  8  2  0  0  0  0
 41 22  1  6  0  0  0
 41 34  1  0  0  0  0
 43 42  1  1  0  0  0
 43 45  1  0  0  0  0
 45 44  2  0  0  0  0
 47 46  1  0  0  0  0
 48 47  1  1  0  0  0
 50 49  1  0  0  0  0
 51 50  1  0  0  0  0
 51 48  1  0  0  0  0
 51 49  1  0  0  0  0
 52 54  1  0  0  0  0
 53 54  2  0  0  0  0
 54 48  1  0  0  0  0
M  END
>  <MODEL>
6

>  <REMARK>
 VINA RESULT:      -4.7      3.288     11.090
  Name = 
  7 active torsions:
  status: ('A' for Active; 'I' for Inactive)
    1  A    between atoms: C_3  and  C_51
    2  A    between atoms: C_10  and  C_29
    3  A    between atoms: C_20  and  C_49
    4  A    between atoms: C_23  and  C_29
    5  A    between atoms: C_33  and  C_49
    6  A    between atoms: C_38  and  C_49
    7  A    between atoms: C_38  and  C_51
                            x       y       z     vdW  Elec       q    Type
                         _______ _______ _______ _____ _____    ______ ____

>  <TORSDO>
F 7

$$$$
