=
 OpenBabel11062419173D

 50 52  0  0  1  0  0  0  0  0999 V2000
  188.9450  175.1480  146.3340 O   0  0  0  0  0  0  0  0  0  0  0  0
  190.1570  175.3120  147.0100 C   0  0  0  0  0  2  0  0  0  0  0  0
  191.3190  175.0630  146.0570 C   0  0  1  0  0  3  0  0  0  0  0  0
  192.6550  175.0960  146.8040 C   0  0  0  0  0  2  0  0  0  0  0  0
  193.6000  176.1450  146.2330 C   0  0  0  0  0  2  0  0  0  0  0  0
  193.8600  177.1380  147.1790 O   0  0  0  0  0  1  0  0  0  0  0  0
  191.1160  173.7510  145.3030 C   0  0  0  0  0  2  0  0  0  0  0  0
  192.3240  173.3810  144.4460 C   0  0  0  0  0  2  0  0  0  0  0  0
  193.4580  171.5070  143.2650 C   0  0  1  0  0  3  0  0  0  0  0  0
  192.2740  171.8930  144.1360 C   0  0  1  0  0  3  0  0  0  0  0  0
  193.4320  171.0770  144.7210 C   0  0  2  0  0  3  0  0  0  0  0  0
  193.0960  170.3570  142.3770 C   0  0  0  0  0  0  0  0  0  0  0  0
  193.3490  169.2150  142.7310 O   0  0  0  0  0  0  0  0  0  0  0  0
  192.4860  170.6090  141.0320 C   0  0  0  0  0  3  0  0  0  0  0  0
  190.9900  170.3650  141.0660 C   0  0  0  0  0  1  0  0  0  0  0  0
  192.7640  172.0210  140.5790 C   0  0  0  0  0  1  0  0  0  0  0  0
  194.4750  171.8770  145.4910 C   0  0  0  0  0  2  0  0  0  0  0  0
  195.7800  171.1060  145.5460 C   0  0  0  0  0  2  0  0  0  0  0  0
  196.9120  172.0500  145.9290 C   0  0  0  0  0  2  0  0  0  0  0  0
  197.2510  172.9740  144.7730 C   0  0  0  0  0  2  0  0  0  0  0  0
  196.7550  174.3830  145.0560 C   0  0  0  0  0  2  0  0  0  0  0  0
  196.5800  175.1350  143.7450 C   0  0  0  0  0  2  0  0  0  0  0  0
  194.4040  175.7660  142.6360 C   0  0  0  0  0  1  0  0  0  0  0  0
  195.8030  173.9420  141.6580 C   0  0  0  0  0  1  0  0  0  0  0  0
  195.3750  174.6380  142.9400 C   0  0  0  0  0  3  0  0  0  0  0  0
  188.4550  176.4450  146.1590 C   0  0  1  0  0  3  0  0  0  0  0  0
  188.8750  175.9540  142.6390 C   0  0  2  0  0  3  0  0  0  0  0  0
  188.0720  176.6710  144.6960 C   0  0  2  0  0  3  0  0  0  0  0  0
  189.2600  177.3600  142.7460 N   0  0  0  0  0  0  0  0  0  0  0  0
  188.3540  175.4800  143.9160 N   0  0  0  0  0  2  0  0  0  0  0  0
  188.8980  177.7800  144.0860 C   0  0  0  0  0  2  0  0  0  0  0  0
  190.0860  175.1230  142.2510 C   0  0  0  0  0  2  0  0  0  0  0  0
  188.1890  174.0100  141.1440 C   0  0  0  0  0  2  0  0  0  0  0  0
  189.6460  173.8640  141.5280 C   0  0  1  0  0  3  0  0  0  0  0  0
  189.2710  174.1970  140.0980 C   0  0  1  0  0  3  0  0  0  0  0  0
  189.3650  173.0410  139.3220 O   0  0  0  0  0  0  0  0  0  0  0  0
  189.6050  173.4970  138.0260 C   0  0  0  0  0  2  0  0  0  0  0  0
  191.5500  173.2690  136.4840 O   0  0  0  0  0  0  0  0  0  0  0  0
  190.6800  172.6840  137.4000 C   0  0  0  0  0  0  0  0  0  0  0  0
  190.8250  171.4770  137.7290 O   0  0  0  0  0  1  0  0  0  0  0  0
  188.4090  178.1090  141.8270 C   0  0  0  0  0  2  0  0  0  0  0  0
  186.9400  177.7850  142.0780 C   0  0  2  0  0  3  0  0  0  0  0  0
  186.3500  177.1200  140.8500 C   0  0  0  0  0  2  0  0  0  0  0  0
  186.8910  177.6890  139.6970 O   0  0  0  0  0  1  0  0  0  0  0  0
  186.1780  179.0690  142.3810 C   0  0  0  0  0  2  0  0  0  0  0  0
  185.3520  178.8980  143.6400 C   0  0  0  0  0  2  0  0  0  0  0  0
  184.9280  177.5740  143.7420 O   0  0  0  0  0  1  0  0  0  0  0  0
  187.2420  176.6380  147.0590 C   0  0  0  0  0  2  0  0  0  0  0  0
  186.1490  178.4900  147.0070 O   0  0  0  0  0  1  0  0  0  0  0  0
  187.2190  177.9440  147.5540 O   0  0  0  0  0  0  0  0  0  0  0  0
  1  2  1  0  0  0  0
  3  7  1  1  0  0  0
  3  4  1  0  0  0  0
  3  2  1  0  0  0  0
  5  4  1  0  0  0  0
  5  6  1  0  0  0  0
  8  7  1  0  0  0  0
  9 12  1  6  0  0  0
  9 10  1  0  0  0  0
  9 11  1  0  0  0  0
 10  8  1  1  0  0  0
 10 11  1  0  0  0  0
 11 17  1  1  0  0  0
 12 13  2  0  0  0  0
 14 15  1  0  0  0  0
 14 12  1  0  0  0  0
 16 14  1  0  0  0  0
 17 18  1  0  0  0  0
 18 19  1  0  0  0  0
 20 21  1  0  0  0  0
 20 19  1  0  0  0  0
 22 21  1  0  0  0  0
 23 25  1  0  0  0  0
 24 25  1  0  0  0  0
 25 22  1  0  0  0  0
 26  1  1  0  0  0  0
 26 48  1  1  0  0  0
 27 32  1  1  0  0  0
 27 29  1  0  0  0  0
 27 30  1  0  0  0  0
 28 26  1  1  0  0  0
 29 31  1  0  0  0  0
 30 28  1  0  0  0  0
 31 28  1  0  0  0  0
 33 34  1  0  0  0  0
 34 32  1  1  0  0  0
 35 36  1  6  0  0  0
 35 33  1  0  0  0  0
 35 34  1  0  0  0  0
 37 36  1  0  0  0  0
 38 39  2  0  0  0  0
 39 40  1  0  0  0  0
 39 37  1  0  0  0  0
 41 42  1  0  0  0  0
 41 29  1  0  0  0  0
 42 43  1  6  0  0  0
 42 45  1  0  0  0  0
 44 43  1  0  0  0  0
 45 46  1  0  0  0  0
 46 47  1  0  0  0  0
 48 50  1  0  0  0  0
 49 50  1  0  0  0  0
M  END
>  <MODEL>
1

>  <REMARK>
 VINA RESULT:      -4.6      0.000      0.000
  Name = 
  30 active torsions:
  status: ('A' for Active; 'I' for Inactive)
    1  A    between atoms: C_1  and  C_14
    2  A    between atoms: C_1  and  C_48
    3  A    between atoms: C_2  and  C_4
    4  A    between atoms: C_4  and  C_17
    5  A    between atoms: C_6  and  C_44
    6  A    between atoms: C_7  and  C_22
    7  A    between atoms: C_7  and  C_49
    8  A    between atoms: C_10  and  C_26
    9  A    between atoms: C_10  and  N_32
   10  A    between atoms: C_11  and  C_22
   11  A    between atoms: C_11  and  C_47
   12  A    between atoms: C_12  and  C_50
   13  A    between atoms: C_13  and  C_25
   14  A    between atoms: C_13  and  O_33
   15  A    between atoms: O_15  and  C_25
   16  A    between atoms: O_15  and  C_36
   17  A    between atoms: C_16  and  C_44
   18  A    between atoms: O_19  and  C_23
   19  A    between atoms: O_19  and  C_50
   20  A    between atoms: C_20  and  C_28
   21  A    between atoms: C_21  and  C_31
   22  A    between atoms: C_21  and  C_49
   23  A    between atoms: C_24  and  C_25
   24  A    between atoms: C_26  and  C_29
   25  A    between atoms: C_26  and  C_34
   26  A    between atoms: C_27  and  C_28
   27  A    between atoms: C_27  and  C_48
   28  A    between atoms: C_29  and  C_41
   29  A    between atoms: C_31  and  C_43
   30  A    between atoms: C_36  and  C_48
                            x       y       z     vdW  Elec       q    Type
                         _______ _______ _______ _____ _____    ______ ____

>  <TORSDO>
F 30

$$$$
=
 OpenBabel11062419173D

 50 52  0  0  1  0  0  0  0  0999 V2000
  190.8860  174.0660  140.5560 O   0  0  0  0  0  0  0  0  0  0  0  0
  189.9910  173.5590  141.5020 C   0  0  0  0  0  2  0  0  0  0  0  0
  190.1100  174.3450  142.8000 C   0  0  1  0  0  3  0  0  0  0  0  0
  188.8300  175.1380  143.0780 C   0  0  0  0  0  2  0  0  0  0  0  0
  188.7460  176.4000  142.2310 C   0  0  0  0  0  2  0  0  0  0  0  0
  189.7130  177.3250  142.6310 O   0  0  0  0  0  1  0  0  0  0  0  0
  190.4700  173.4140  143.9550 C   0  0  0  0  0  2  0  0  0  0  0  0
  190.3040  174.0860  145.3160 C   0  0  0  0  0  2  0  0  0  0  0  0
  192.7020  174.7510  145.3720 C   0  0  1  0  0  3  0  0  0  0  0  0
  191.6100  173.9730  146.0870 C   0  0  1  0  0  3  0  0  0  0  0  0
  192.1280  175.2920  146.6690 C   0  0  2  0  0  3  0  0  0  0  0  0
  194.0360  174.1190  145.6190 C   0  0  0  0  0  0  0  0  0  0  0  0
  194.1200  172.9060  145.7350 O   0  0  0  0  0  0  0  0  0  0  0  0
  195.2530  174.9760  145.7890 C   0  0  0  0  0  3  0  0  0  0  0  0
  196.5160  174.1570  145.6070 C   0  0  0  0  0  1  0  0  0  0  0  0
  195.2390  176.1210  144.8050 C   0  0  0  0  0  1  0  0  0  0  0  0
  191.2820  176.5220  146.3600 C   0  0  0  0  0  2  0  0  0  0  0  0
  190.6070  177.0160  147.6260 C   0  0  0  0  0  2  0  0  0  0  0  0
  189.3490  177.7910  147.2630 C   0  0  0  0  0  2  0  0  0  0  0  0
  188.6180  177.1150  146.1160 C   0  0  0  0  0  2  0  0  0  0  0  0
  187.3500  176.4420  146.6180 C   0  0  0  0  0  2  0  0  0  0  0  0
  186.1750  176.8490  145.7400 C   0  0  0  0  0  2  0  0  0  0  0  0
  185.8830  179.1870  144.8420 C   0  0  0  0  0  1  0  0  0  0  0  0
  184.2330  178.2830  146.4850 C   0  0  0  0  0  1  0  0  0  0  0  0
  185.6860  178.2690  146.0370 C   0  0  0  0  0  3  0  0  0  0  0  0
  191.0050  173.0550  139.5980 C   0  0  1  0  0  3  0  0  0  0  0  0
  194.0580  171.7690  140.9510 C   0  0  2  0  0  3  0  0  0  0  0  0
  192.4620  172.6040  139.4870 C   0  0  2  0  0  3  0  0  0  0  0  0
  194.4710  173.1400  140.6550 N   0  0  0  0  0  0  0  0  0  0  0  0
  192.7230  171.5230  140.4190 N   0  0  0  0  0  2  0  0  0  0  0  0
  193.4050  173.7230  139.8630 C   0  0  0  0  0  2  0  0  0  0  0  0
  194.0490  171.5530  142.4540 C   0  0  0  0  0  2  0  0  0  0  0  0
  195.2560  169.4910  141.8570 C   0  0  0  0  0  2  0  0  0  0  0  0
  194.2010  170.0770  142.7710 C   0  0  1  0  0  3  0  0  0  0  0  0
  195.5950  169.8060  143.3010 C   0  0  1  0  0  3  0  0  0  0  0  0
  195.5780  168.6250  144.0440 O   0  0  0  0  0  0  0  0  0  0  0  0
  196.5290  168.8180  145.0460 C   0  0  0  0  0  2  0  0  0  0  0  0
  194.7500  169.4710  146.6670 O   0  0  0  0  0  1  0  0  0  0  0  0
  195.9850  169.7350  146.0830 C   0  0  0  0  0  0  0  0  0  0  0  0
  196.6630  170.7280  146.4590 O   0  0  0  0  0  0  0  0  0  0  0  0
  195.6420  173.0580  139.7890 C   0  0  0  0  0  2  0  0  0  0  0  0
  196.8890  173.5210  140.5360 C   0  0  2  0  0  3  0  0  0  0  0  0
  196.4800  174.2850  141.7810 C   0  0  0  0  0  2  0  0  0  0  0  0
  197.1190  175.5240  141.8090 O   0  0  0  0  0  1  0  0  0  0  0  0
  197.7200  174.4230  139.6320 C   0  0  0  0  0  2  0  0  0  0  0  0
  197.0860  174.5070  138.2580 C   0  0  0  0  0  2  0  0  0  0  0  0
  197.5800  175.6230  137.5850 O   0  0  0  0  0  1  0  0  0  0  0  0
  190.1180  171.8860  140.0030 C   0  0  0  0  0  2  0  0  0  0  0  0
  189.7290  170.3190  138.5820 O   0  0  0  0  0  1  0  0  0  0  0  0
  189.3000  171.5160  138.9330 O   0  0  0  0  0  0  0  0  0  0  0  0
  1  2  1  0  0  0  0
  3  2  1  6  0  0  0
  3  4  1  0  0  0  0
  3  7  1  0  0  0  0
  5  6  1  0  0  0  0
  5  4  1  0  0  0  0
  7  8  1  0  0  0  0
  9 12  1  1  0  0  0
  9 10  1  0  0  0  0
  9 11  1  0  0  0  0
 10  8  1  6  0  0  0
 10 11  1  0  0  0  0
 11 17  1  6  0  0  0
 12 13  2  0  0  0  0
 12 14  1  0  0  0  0
 15 14  1  0  0  0  0
 16 14  1  0  0  0  0
 17 18  1  0  0  0  0
 19 18  1  0  0  0  0
 20 21  1  0  0  0  0
 20 19  1  0  0  0  0
 22 25  1  0  0  0  0
 22 21  1  0  0  0  0
 23 25  1  0  0  0  0
 25 24  1  0  0  0  0
 26 48  1  1  0  0  0
 26  1  1  0  0  0  0
 27 32  1  1  0  0  0
 28 26  1  1  0  0  0
 28 31  1  0  0  0  0
 28 30  1  0  0  0  0
 29 27  1  0  0  0  0
 30 27  1  0  0  0  0
 31 29  1  0  0  0  0
 33 34  1  0  0  0  0
 33 35  1  0  0  0  0
 34 32  1  6  0  0  0
 34 35  1  0  0  0  0
 35 36  1  1  0  0  0
 36 37  1  0  0  0  0
 37 39  1  0  0  0  0
 39 40  2  0  0  0  0
 39 38  1  0  0  0  0
 41 42  1  0  0  0  0
 41 29  1  0  0  0  0
 42 45  1  6  0  0  0
 42 43  1  0  0  0  0
 43 44  1  0  0  0  0
 46 45  1  0  0  0  0
 47 46  1  0  0  0  0
 49 50  1  0  0  0  0
 50 48  1  0  0  0  0
M  END
>  <MODEL>
2

>  <REMARK>
 VINA RESULT:      -4.6      2.830      8.640
  Name = 
  30 active torsions:
  status: ('A' for Active; 'I' for Inactive)
    1  A    between atoms: C_1  and  C_14
    2  A    between atoms: C_1  and  C_48
    3  A    between atoms: C_2  and  C_4
    4  A    between atoms: C_4  and  C_17
    5  A    between atoms: C_6  and  C_44
    6  A    between atoms: C_7  and  C_22
    7  A    between atoms: C_7  and  C_49
    8  A    between atoms: C_10  and  C_26
    9  A    between atoms: C_10  and  N_32
   10  A    between atoms: C_11  and  C_22
   11  A    between atoms: C_11  and  C_47
   12  A    between atoms: C_12  and  C_50
   13  A    between atoms: C_13  and  C_25
   14  A    between atoms: C_13  and  O_33
   15  A    between atoms: O_15  and  C_25
   16  A    between atoms: O_15  and  C_36
   17  A    between atoms: C_16  and  C_44
   18  A    between atoms: O_19  and  C_23
   19  A    between atoms: O_19  and  C_50
   20  A    between atoms: C_20  and  C_28
   21  A    between atoms: C_21  and  C_31
   22  A    between atoms: C_21  and  C_49
   23  A    between atoms: C_24  and  C_25
   24  A    between atoms: C_26  and  C_29
   25  A    between atoms: C_26  and  C_34
   26  A    between atoms: C_27  and  C_28
   27  A    between atoms: C_27  and  C_48
   28  A    between atoms: C_29  and  C_41
   29  A    between atoms: C_31  and  C_43
   30  A    between atoms: C_36  and  C_48
                            x       y       z     vdW  Elec       q    Type
                         _______ _______ _______ _____ _____    ______ ____

>  <TORSDO>
F 30

$$$$
=
 OpenBabel11062419173D

 50 52  0  0  1  0  0  0  0  0999 V2000
  191.9650  172.8100  141.7280 O   0  0  0  0  0  0  0  0  0  0  0  0
  193.1500  173.5360  141.8710 C   0  0  0  0  0  2  0  0  0  0  0  0
  194.3410  172.6630  141.5000 C   0  0  1  0  0  3  0  0  0  0  0  0
  194.4910  172.5610  139.9800 C   0  0  0  0  0  2  0  0  0  0  0  0
  194.9800  171.1850  139.5470 C   0  0  0  0  0  2  0  0  0  0  0  0
  194.4940  170.1990  140.4070 O   0  0  0  0  0  1  0  0  0  0  0  0
  195.6110  173.1830  142.1690 C   0  0  0  0  0  2  0  0  0  0  0  0
  196.3230  172.1040  142.9810 C   0  0  0  0  0  2  0  0  0  0  0  0
  196.0930  170.6420  144.9830 C   0  0  1  0  0  3  0  0  0  0  0  0
  195.3460  171.5170  143.9880 C   0  0  1  0  0  3  0  0  0  0  0  0
  195.5530  171.9880  145.4320 C   0  0  2  0  0  3  0  0  0  0  0  0
  195.2070  169.5390  145.4700 C   0  0  0  0  0  0  0  0  0  0  0  0
  194.0760  169.4260  145.0220 O   0  0  0  0  0  0  0  0  0  0  0  0
  195.6810  168.6170  146.5510 C   0  0  0  0  0  3  0  0  0  0  0  0
  197.0470  169.0390  147.0560 C   0  0  0  0  0  1  0  0  0  0  0  0
  194.6990  168.5890  147.6960 C   0  0  0  0  0  1  0  0  0  0  0  0
  196.7220  172.9420  145.6490 C   0  0  0  0  0  2  0  0  0  0  0  0
  196.2360  174.2060  146.3320 C   0  0  0  0  0  2  0  0  0  0  0  0
  194.9960  174.7250  145.6180 C   0  0  0  0  0  2  0  0  0  0  0  0
  194.3010  175.7830  146.4560 C   0  0  0  0  0  2  0  0  0  0  0  0
  192.9130  176.0710  145.9040 C   0  0  0  0  0  2  0  0  0  0  0  0
  191.9030  175.1320  146.5490 C   0  0  0  0  0  2  0  0  0  0  0  0
  189.4970  174.7590  147.2050 C   0  0  0  0  0  1  0  0  0  0  0  0
  190.4680  177.0560  147.3370 C   0  0  0  0  0  1  0  0  0  0  0  0
  190.4930  175.7300  146.5950 C   0  0  0  0  0  3  0  0  0  0  0  0
  191.4730  172.6670  143.0270 C   0  0  1  0  0  3  0  0  0  0  0  0
  188.5190  174.1130  141.6180 C   0  0  2  0  0  3  0  0  0  0  0  0
  190.0460  173.2070  143.1140 C   0  0  2  0  0  3  0  0  0  0  0  0
  188.9820  175.2310  142.4360 N   0  0  0  0  0  0  0  0  0  0  0  0
  189.3310  172.9310  141.8820 N   0  0  0  0  0  2  0  0  0  0  0  0
  190.0460  174.7100  143.2740 C   0  0  0  0  0  2  0  0  0  0  0  0
  188.6270  174.4780  140.1470 C   0  0  0  0  0  2  0  0  0  0  0  0
  188.3400  173.6880  137.8330 C   0  0  0  0  0  2  0  0  0  0  0  0
  188.3640  173.2580  139.2840 C   0  0  1  0  0  3  0  0  0  0  0  0
  189.5620  172.9890  138.3960 C   0  0  1  0  0  3  0  0  0  0  0  0
  189.5450  171.6490  138.0050 O   0  0  0  0  0  0  0  0  0  0  0  0
  190.4470  171.0150  138.8590 C   0  0  0  0  0  2  0  0  0  0  0  0
  190.0320  168.8860  137.6300 O   0  0  0  0  0  0  0  0  0  0  0  0
  190.9340  169.7590  138.2310 C   0  0  0  0  0  0  0  0  0  0  0  0
  192.1680  169.5060  138.2100 O   0  0  0  0  0  1  0  0  0  0  0  0
  187.8860  175.5950  143.3270 C   0  0  0  0  0  2  0  0  0  0  0  0
  187.3450  176.9760  142.9690 C   0  0  2  0  0  3  0  0  0  0  0  0
  187.6820  177.9550  144.0770 C   0  0  0  0  0  2  0  0  0  0  0  0
  187.5190  177.3420  145.3180 O   0  0  0  0  0  1  0  0  0  0  0  0
  185.8330  176.9020  142.7950 C   0  0  0  0  0  2  0  0  0  0  0  0
  185.3580  178.0290  141.9000 C   0  0  0  0  0  2  0  0  0  0  0  0
  186.1780  178.1080  140.7750 O   0  0  0  0  0  1  0  0  0  0  0  0
  191.5050  171.1920  143.4050 C   0  0  0  0  0  2  0  0  0  0  0  0
  190.6040  169.7240  142.1160 O   0  0  0  0  0  1  0  0  0  0  0  0
  191.7200  170.4130  142.2660 O   0  0  0  0  0  0  0  0  0  0  0  0
  1  2  1  0  0  0  0
  1 26  1  0  0  0  0
  3  4  1  6  0  0  0
  3  2  1  0  0  0  0
  3  7  1  0  0  0  0
  5  4  1  0  0  0  0
  5  6  1  0  0  0  0
  7  8  1  0  0  0  0
  9 11  1  0  0  0  0
  9 12  1  1  0  0  0
 10  8  1  6  0  0  0
 10  9  1  0  0  0  0
 10 11  1  0  0  0  0
 11 17  1  6  0  0  0
 12 14  1  0  0  0  0
 13 12  2  0  0  0  0
 14 15  1  0  0  0  0
 14 16  1  0  0  0  0
 17 18  1  0  0  0  0
 19 18  1  0  0  0  0
 19 20  1  0  0  0  0
 21 20  1  0  0  0  0
 21 22  1  0  0  0  0
 22 25  1  0  0  0  0
 25 23  1  0  0  0  0
 25 24  1  0  0  0  0
 26 48  1  6  0  0  0
 27 32  1  6  0  0  0
 27 30  1  0  0  0  0
 27 29  1  0  0  0  0
 28 26  1  6  0  0  0
 28 31  1  0  0  0  0
 29 31  1  0  0  0  0
 29 41  1  0  0  0  0
 30 28  1  0  0  0  0
 33 35  1  0  0  0  0
 33 34  1  0  0  0  0
 34 32  1  1  0  0  0
 35 36  1  6  0  0  0
 35 34  1  0  0  0  0
 36 37  1  0  0  0  0
 38 39  2  0  0  0  0
 39 37  1  0  0  0  0
 40 39  1  0  0  0  0
 42 45  1  1  0  0  0
 42 41  1  0  0  0  0
 42 43  1  0  0  0  0
 43 44  1  0  0  0  0
 46 45  1  0  0  0  0
 47 46  1  0  0  0  0
 49 50  1  0  0  0  0
 50 48  1  0  0  0  0
M  END
>  <MODEL>
3

>  <REMARK>
 VINA RESULT:      -4.4      2.009      5.269
  Name = 
  30 active torsions:
  status: ('A' for Active; 'I' for Inactive)
    1  A    between atoms: C_1  and  C_14
    2  A    between atoms: C_1  and  C_48
    3  A    between atoms: C_2  and  C_4
    4  A    between atoms: C_4  and  C_17
    5  A    between atoms: C_6  and  C_44
    6  A    between atoms: C_7  and  C_22
    7  A    between atoms: C_7  and  C_49
    8  A    between atoms: C_10  and  C_26
    9  A    between atoms: C_10  and  N_32
   10  A    between atoms: C_11  and  C_22
   11  A    between atoms: C_11  and  C_47
   12  A    between atoms: C_12  and  C_50
   13  A    between atoms: C_13  and  C_25
   14  A    between atoms: C_13  and  O_33
   15  A    between atoms: O_15  and  C_25
   16  A    between atoms: O_15  and  C_36
   17  A    between atoms: C_16  and  C_44
   18  A    between atoms: O_19  and  C_23
   19  A    between atoms: O_19  and  C_50
   20  A    between atoms: C_20  and  C_28
   21  A    between atoms: C_21  and  C_31
   22  A    between atoms: C_21  and  C_49
   23  A    between atoms: C_24  and  C_25
   24  A    between atoms: C_26  and  C_29
   25  A    between atoms: C_26  and  C_34
   26  A    between atoms: C_27  and  C_28
   27  A    between atoms: C_27  and  C_48
   28  A    between atoms: C_29  and  C_41
   29  A    between atoms: C_31  and  C_43
   30  A    between atoms: C_36  and  C_48
                            x       y       z     vdW  Elec       q    Type
                         _______ _______ _______ _____ _____    ______ ____

>  <TORSDO>
F 30

$$$$
=
 OpenBabel11062419173D

 50 52  0  0  1  0  0  0  0  0999 V2000
  191.9800  172.0940  143.8660 O   0  0  0  0  0  0  0  0  0  0  0  0
  193.3710  171.9920  143.7710 C   0  0  0  0  0  2  0  0  0  0  0  0
  193.9580  171.6420  145.1320 C   0  0  1  0  0  3  0  0  0  0  0  0
  194.3910  170.1750  145.1790 C   0  0  0  0  0  2  0  0  0  0  0  0
  195.1050  169.8330  146.4800 C   0  0  0  0  0  2  0  0  0  0  0  0
  194.9000  168.4940  146.8160 O   0  0  0  0  0  1  0  0  0  0  0  0
  195.1040  172.5900  145.4770 C   0  0  0  0  0  2  0  0  0  0  0  0
  194.6220  174.0160  145.7300 C   0  0  0  0  0  2  0  0  0  0  0  0
  195.1850  175.4460  143.7710 C   0  0  1  0  0  3  0  0  0  0  0  0
  195.6350  174.9920  145.1500 C   0  0  1  0  0  3  0  0  0  0  0  0
  195.1060  176.4140  144.9380 C   0  0  2  0  0  3  0  0  0  0  0  0
  196.3720  175.7600  142.9160 C   0  0  0  0  0  0  0  0  0  0  0  0
  196.8250  176.8940  142.9000 O   0  0  0  0  0  0  0  0  0  0  0  0
  196.9610  174.7030  142.0320 C   0  0  0  0  0  3  0  0  0  0  0  0
  195.9020  173.7030  141.6110 C   0  0  0  0  0  1  0  0  0  0  0  0
  197.5940  175.3230  140.8100 C   0  0  0  0  0  1  0  0  0  0  0  0
  193.6420  176.6320  145.3030 C   0  0  0  0  0  2  0  0  0  0  0  0
  192.8140  176.7850  144.0410 C   0  0  0  0  0  2  0  0  0  0  0  0
  191.9320  178.0200  144.1600 C   0  0  0  0  0  2  0  0  0  0  0  0
  190.4650  177.6300  144.1630 C   0  0  0  0  0  2  0  0  0  0  0  0
  190.1380  176.7990  145.3940 C   0  0  0  0  0  2  0  0  0  0  0  0
  188.7850  177.2200  145.9490 C   0  0  0  0  0  2  0  0  0  0  0  0
  188.8530  175.0470  147.2270 C   0  0  0  0  0  1  0  0  0  0  0  0
  186.8170  176.4880  147.3540 C   0  0  0  0  0  1  0  0  0  0  0  0
  187.9730  176.0330  146.4780 C   0  0  0  0  0  3  0  0  0  0  0  0
  191.5000  171.5650  142.6650 C   0  0  1  0  0  3  0  0  0  0  0  0
  189.6490  174.4030  141.5120 C   0  0  2  0  0  3  0  0  0  0  0  0
  191.2090  172.6910  141.6720 C   0  0  2  0  0  3  0  0  0  0  0  0
  189.2660  173.4230  140.4980 N   0  0  0  0  0  0  0  0  0  0  0  0
  190.6920  173.8530  142.3710 N   0  0  0  0  0  2  0  0  0  0  0  0
  190.1400  172.2800  140.6870 C   0  0  0  0  0  2  0  0  0  0  0  0
  188.4390  174.7610  142.3580 C   0  0  0  0  0  2  0  0  0  0  0  0
  187.2490  176.4750  141.0500 C   0  0  0  0  0  2  0  0  0  0  0  0
  188.1460  176.2460  142.2480 C   0  0  1  0  0  3  0  0  0  0  0  0
  186.6640  176.4940  142.4490 C   0  0  1  0  0  3  0  0  0  0  0  0
  186.4750  177.8170  142.8510 O   0  0  0  0  0  0  0  0  0  0  0  0
  185.7930  177.7290  144.0640 C   0  0  0  0  0  2  0  0  0  0  0  0
  185.4870  180.1920  143.8240 O   0  0  0  0  0  0  0  0  0  0  0  0
  185.6430  179.0860  144.6540 C   0  0  0  0  0  0  0  0  0  0  0  0
  185.6190  179.2250  145.9050 O   0  0  0  0  0  1  0  0  0  0  0  0
  189.5990  173.9960  139.1990 C   0  0  0  0  0  2  0  0  0  0  0  0
  189.9850  172.8960  138.2150 C   0  0  2  0  0  3  0  0  0  0  0  0
  191.3910  173.1430  137.7030 C   0  0  0  0  0  2  0  0  0  0  0  0
  192.0150  174.1170  138.4810 O   0  0  0  0  0  1  0  0  0  0  0  0
  189.0080  172.8920  137.0460 C   0  0  0  0  0  2  0  0  0  0  0  0
  189.4280  173.9220  136.0150 C   0  0  0  0  0  2  0  0  0  0  0  0
  188.5000  174.9620  135.9930 O   0  0  0  0  0  1  0  0  0  0  0  0
  192.5420  170.6130  142.0950 C   0  0  0  0  0  2  0  0  0  0  0  0
  190.7600  169.4240  142.2920 O   0  0  0  0  0  1  0  0  0  0  0  0
  191.9290  169.4280  141.6800 O   0  0  0  0  0  0  0  0  0  0  0  0
  2  1  1  0  0  0  0
  3  2  1  6  0  0  0
  3  4  1  0  0  0  0
  3  7  1  0  0  0  0
  4  5  1  0  0  0  0
  5  6  1  0  0  0  0
  7  8  1  0  0  0  0
  9 12  1  6  0  0  0
  9 11  1  0  0  0  0
  9 10  1  0  0  0  0
 10  8  1  1  0  0  0
 11 10  1  0  0  0  0
 11 17  1  1  0  0  0
 13 12  2  0  0  0  0
 14 12  1  0  0  0  0
 15 14  1  0  0  0  0
 16 14  1  0  0  0  0
 18 19  1  0  0  0  0
 18 17  1  0  0  0  0
 19 20  1  0  0  0  0
 20 21  1  0  0  0  0
 21 22  1  0  0  0  0
 22 25  1  0  0  0  0
 25 23  1  0  0  0  0
 25 24  1  0  0  0  0
 26 48  1  6  0  0  0
 26  1  1  0  0  0  0
 27 32  1  1  0  0  0
 27 30  1  0  0  0  0
 28 30  1  0  0  0  0
 28 26  1  1  0  0  0
 29 31  1  0  0  0  0
 29 27  1  0  0  0  0
 31 28  1  0  0  0  0
 33 34  1  0  0  0  0
 33 35  1  0  0  0  0
 34 32  1  6  0  0  0
 34 35  1  0  0  0  0
 35 36  1  1  0  0  0
 36 37  1  0  0  0  0
 37 39  1  0  0  0  0
 38 39  2  0  0  0  0
 39 40  1  0  0  0  0
 41 29  1  0  0  0  0
 42 45  1  6  0  0  0
 42 41  1  0  0  0  0
 43 42  1  0  0  0  0
 43 44  1  0  0  0  0
 46 45  1  0  0  0  0
 47 46  1  0  0  0  0
 50 48  1  0  0  0  0
 50 49  1  0  0  0  0
M  END
>  <MODEL>
4

>  <REMARK>
 VINA RESULT:      -4.4      2.037      7.184
  Name = 
  30 active torsions:
  status: ('A' for Active; 'I' for Inactive)
    1  A    between atoms: C_1  and  C_14
    2  A    between atoms: C_1  and  C_48
    3  A    between atoms: C_2  and  C_4
    4  A    between atoms: C_4  and  C_17
    5  A    between atoms: C_6  and  C_44
    6  A    between atoms: C_7  and  C_22
    7  A    between atoms: C_7  and  C_49
    8  A    between atoms: C_10  and  C_26
    9  A    between atoms: C_10  and  N_32
   10  A    between atoms: C_11  and  C_22
   11  A    between atoms: C_11  and  C_47
   12  A    between atoms: C_12  and  C_50
   13  A    between atoms: C_13  and  C_25
   14  A    between atoms: C_13  and  O_33
   15  A    between atoms: O_15  and  C_25
   16  A    between atoms: O_15  and  C_36
   17  A    between atoms: C_16  and  C_44
   18  A    between atoms: O_19  and  C_23
   19  A    between atoms: O_19  and  C_50
   20  A    between atoms: C_20  and  C_28
   21  A    between atoms: C_21  and  C_31
   22  A    between atoms: C_21  and  C_49
   23  A    between atoms: C_24  and  C_25
   24  A    between atoms: C_26  and  C_29
   25  A    between atoms: C_26  and  C_34
   26  A    between atoms: C_27  and  C_28
   27  A    between atoms: C_27  and  C_48
   28  A    between atoms: C_29  and  C_41
   29  A    between atoms: C_31  and  C_43
   30  A    between atoms: C_36  and  C_48
                            x       y       z     vdW  Elec       q    Type
                         _______ _______ _______ _____ _____    ______ ____

>  <TORSDO>
F 30

$$$$
=
 OpenBabel11062419173D

 50 52  0  0  1  0  0  0  0  0999 V2000
  192.9770  174.5850  144.4910 O   0  0  0  0  0  0  0  0  0  0  0  0
  191.7990  173.8580  144.6850 C   0  0  0  0  0  2  0  0  0  0  0  0
  191.0040  173.8050  143.3870 C   0  0  1  0  0  3  0  0  0  0  0  0
  191.2320  172.4760  142.6620 C   0  0  0  0  0  2  0  0  0  0  0  0
  192.5300  172.4780  141.8650 C   0  0  0  0  0  2  0  0  0  0  0  0
  192.8130  171.1980  141.3850 O   0  0  0  0  0  1  0  0  0  0  0  0
  189.5250  174.0640  143.6590 C   0  0  0  0  0  2  0  0  0  0  0  0
  189.1530  175.5350  143.4950 C   0  0  0  0  0  2  0  0  0  0  0  0
  188.0030  174.9190  141.3750 C   0  0  1  0  0  3  0  0  0  0  0  0
  189.0210  175.8500  142.0130 C   0  0  1  0  0  3  0  0  0  0  0  0
  187.6470  176.3790  141.5890 C   0  0  2  0  0  3  0  0  0  0  0  0
  188.3520  174.6750  139.9390 C   0  0  0  0  0  0  0  0  0  0  0  0
  187.7340  175.2540  139.0590 O   0  0  0  0  0  0  0  0  0  0  0  0
  189.4080  173.6740  139.5830 C   0  0  0  0  0  3  0  0  0  0  0  0
  188.9840  172.2770  139.9920 C   0  0  0  0  0  1  0  0  0  0  0  0
  189.6950  173.7090  138.1010 C   0  0  0  0  0  1  0  0  0  0  0  0
  186.6100  176.4760  142.7020 C   0  0  0  0  0  2  0  0  0  0  0  0
  186.0290  177.8770  142.7450 C   0  0  0  0  0  2  0  0  0  0  0  0
  184.5690  177.8090  143.1700 C   0  0  0  0  0  2  0  0  0  0  0  0
  184.2240  178.9750  144.0790 C   0  0  0  0  0  2  0  0  0  0  0  0
  185.1190  178.9730  145.3090 C   0  0  0  0  0  2  0  0  0  0  0  0
  184.7110  177.8360  146.2350 C   0  0  0  0  0  2  0  0  0  0  0  0
  186.9320  176.6460  146.3530 C   0  0  0  0  0  1  0  0  0  0  0  0
  186.4630  178.5380  147.9150 C   0  0  0  0  0  1  0  0  0  0  0  0
  185.8580  177.3780  147.1410 C   0  0  0  0  0  3  0  0  0  0  0  0
  193.5400  174.7020  145.7640 C   0  0  1  0  0  3  0  0  0  0  0  0
  196.8410  174.8030  144.3870 C   0  0  2  0  0  3  0  0  0  0  0  0
  195.0140  174.3000  145.7280 C   0  0  2  0  0  3  0  0  0  0  0  0
  196.4680  173.4310  144.0490 N   0  0  0  0  0  0  0  0  0  0  0  0
  195.8220  175.4020  145.2400 N   0  0  0  0  0  2  0  0  0  0  0  0
  195.2390  173.1540  144.7680 C   0  0  0  0  0  2  0  0  0  0  0  0
  196.9770  175.6220  143.1140 C   0  0  0  0  0  2  0  0  0  0  0  0
  195.6860  176.6260  141.2740 C   0  0  0  0  0  2  0  0  0  0  0  0
  195.7230  175.4870  142.2690 C   0  0  1  0  0  3  0  0  0  0  0  0
  196.1030  175.2400  140.8230 C   0  0  1  0  0  3  0  0  0  0  0  0
  195.0320  174.6280  140.1700 O   0  0  0  0  0  0  0  0  0  0  0  0
  195.5580  173.4450  139.6520 C   0  0  0  0  0  2  0  0  0  0  0  0
  195.8350  174.5640  137.4420 O   0  0  0  0  0  0  0  0  0  0  0  0
  195.4340  173.4480  138.1700 C   0  0  0  0  0  0  0  0  0  0  0  0
  195.0040  172.4250  137.5750 O   0  0  0  0  0  1  0  0  0  0  0  0
  197.4910  172.5570  144.6140 C   0  0  0  0  0  2  0  0  0  0  0  0
  197.1280  171.0930  144.3800 C   0  0  2  0  0  3  0  0  0  0  0  0
  197.4280  170.2910  145.6310 C   0  0  0  0  0  2  0  0  0  0  0  0
  197.9380  169.0410  145.2820 O   0  0  0  0  0  1  0  0  0  0  0  0
  197.9410  170.5460  143.2140 C   0  0  0  0  0  2  0  0  0  0  0  0
  197.0880  170.4980  141.9630 C   0  0  0  0  0  2  0  0  0  0  0  0
  197.2590  169.2680  141.3300 O   0  0  0  0  0  1  0  0  0  0  0  0
  193.3950  176.1420  146.2350 C   0  0  0  0  0  2  0  0  0  0  0  0
  191.3490  176.7270  146.5470 O   0  0  0  0  0  1  0  0  0  0  0  0
  192.3850  176.2310  147.1960 O   0  0  0  0  0  0  0  0  0  0  0  0
  1  2  1  0  0  0  0
  1 26  1  0  0  0  0
  3  4  1  1  0  0  0
  3  7  1  0  0  0  0
  3  2  1  0  0  0  0
  5  4  1  0  0  0  0
  6  5  1  0  0  0  0
  8  7  1  0  0  0  0
  9 12  1  6  0  0  0
  9 11  1  0  0  0  0
  9 10  1  0  0  0  0
 10  8  1  1  0  0  0
 11 10  1  0  0  0  0
 11 17  1  1  0  0  0
 13 12  2  0  0  0  0
 14 12  1  0  0  0  0
 14 15  1  0  0  0  0
 16 14  1  0  0  0  0
 17 18  1  0  0  0  0
 18 19  1  0  0  0  0
 19 20  1  0  0  0  0
 20 21  1  0  0  0  0
 21 22  1  0  0  0  0
 22 25  1  0  0  0  0
 23 25  1  0  0  0  0
 25 24  1  0  0  0  0
 26 48  1  6  0  0  0
 27 32  1  6  0  0  0
 27 30  1  0  0  0  0
 28 26  1  6  0  0  0
 29 27  1  0  0  0  0
 29 41  1  0  0  0  0
 29 31  1  0  0  0  0
 30 28  1  0  0  0  0
 31 28  1  0  0  0  0
 33 34  1  0  0  0  0
 34 32  1  1  0  0  0
 35 36  1  6  0  0  0
 35 33  1  0  0  0  0
 35 34  1  0  0  0  0
 37 36  1  0  0  0  0
 38 39  2  0  0  0  0
 39 37  1  0  0  0  0
 40 39  1  0  0  0  0
 42 45  1  6  0  0  0
 42 41  1  0  0  0  0
 42 43  1  0  0  0  0
 44 43  1  0  0  0  0
 46 45  1  0  0  0  0
 47 46  1  0  0  0  0
 48 50  1  0  0  0  0
 49 50  1  0  0  0  0
M  END
>  <MODEL>
5

>  <REMARK>
 VINA RESULT:      -4.4      2.756      8.852
  Name = 
  30 active torsions:
  status: ('A' for Active; 'I' for Inactive)
    1  A    between atoms: C_1  and  C_14
    2  A    between atoms: C_1  and  C_48
    3  A    between atoms: C_2  and  C_4
    4  A    between atoms: C_4  and  C_17
    5  A    between atoms: C_6  and  C_44
    6  A    between atoms: C_7  and  C_22
    7  A    between atoms: C_7  and  C_49
    8  A    between atoms: C_10  and  C_26
    9  A    between atoms: C_10  and  N_32
   10  A    between atoms: C_11  and  C_22
   11  A    between atoms: C_11  and  C_47
   12  A    between atoms: C_12  and  C_50
   13  A    between atoms: C_13  and  C_25
   14  A    between atoms: C_13  and  O_33
   15  A    between atoms: O_15  and  C_25
   16  A    between atoms: O_15  and  C_36
   17  A    between atoms: C_16  and  C_44
   18  A    between atoms: O_19  and  C_23
   19  A    between atoms: O_19  and  C_50
   20  A    between atoms: C_20  and  C_28
   21  A    between atoms: C_21  and  C_31
   22  A    between atoms: C_21  and  C_49
   23  A    between atoms: C_24  and  C_25
   24  A    between atoms: C_26  and  C_29
   25  A    between atoms: C_26  and  C_34
   26  A    between atoms: C_27  and  C_28
   27  A    between atoms: C_27  and  C_48
   28  A    between atoms: C_29  and  C_41
   29  A    between atoms: C_31  and  C_43
   30  A    between atoms: C_36  and  C_48
                            x       y       z     vdW  Elec       q    Type
                         _______ _______ _______ _____ _____    ______ ____

>  <TORSDO>
F 30

$$$$
=
 OpenBabel11062419173D

 50 52  0  0  1  0  0  0  0  0999 V2000
  191.3170  173.4020  140.1610 O   0  0  0  0  0  0  0  0  0  0  0  0
  190.9660  172.7540  141.3490 C   0  0  0  0  0  2  0  0  0  0  0  0
  191.1250  173.7080  142.5250 C   0  0  1  0  0  3  0  0  0  0  0  0
  189.7640  174.0490  143.1400 C   0  0  0  0  0  2  0  0  0  0  0  0
  188.6100  173.5760  142.2660 C   0  0  0  0  0  2  0  0  0  0  0  0
  187.6370  174.5710  142.1570 O   0  0  0  0  0  1  0  0  0  0  0  0
  192.0900  173.1270  143.5550 C   0  0  0  0  0  2  0  0  0  0  0  0
  191.7120  173.5070  144.9840 C   0  0  0  0  0  2  0  0  0  0  0  0
  192.9980  175.6350  144.8800 C   0  0  1  0  0  3  0  0  0  0  0  0
  192.8490  174.3060  145.6020 C   0  0  1  0  0  3  0  0  0  0  0  0
  192.4200  175.6100  146.2830 C   0  0  2  0  0  3  0  0  0  0  0  0
  194.4250  176.0870  144.9150 C   0  0  0  0  0  0  0  0  0  0  0  0
  194.9540  176.3420  145.9860 O   0  0  0  0  0  0  0  0  0  0  0  0
  195.1800  176.2880  143.6360 C   0  0  0  0  0  3  0  0  0  0  0  0
  196.5130  175.5670  143.6810 C   0  0  0  0  0  1  0  0  0  0  0  0
  194.3720  175.8000  142.4590 C   0  0  0  0  0  1  0  0  0  0  0  0
  190.9310  175.9290  146.2110 C   0  0  0  0  0  2  0  0  0  0  0  0
  190.2530  175.5260  147.5060 C   0  0  0  0  0  2  0  0  0  0  0  0
  188.8260  175.0820  147.2170 C   0  0  0  0  0  2  0  0  0  0  0  0
  188.1270  176.0850  146.3160 C   0  0  0  0  0  2  0  0  0  0  0  0
  186.7870  176.4900  146.9110 C   0  0  0  0  0  2  0  0  0  0  0  0
  185.8150  176.8330  145.7910 C   0  0  0  0  0  2  0  0  0  0  0  0
  185.4260  178.8370  147.2720 C   0  0  0  0  0  1  0  0  0  0  0  0
  184.4470  178.7940  144.9750 C   0  0  0  0  0  1  0  0  0  0  0  0
  184.8480  177.9560  146.1780 C   0  0  0  0  0  3  0  0  0  0  0  0
  191.0270  172.4810  139.1520 C   0  0  1  0  0  3  0  0  0  0  0  0
  194.4290  171.7770  138.2950 C   0  0  2  0  0  3  0  0  0  0  0  0
  192.1940  172.3910  138.1680 C   0  0  2  0  0  3  0  0  0  0  0  0
  194.4260  173.2310  138.1440 N   0  0  0  0  0  0  0  0  0  0  0  0
  193.0740  171.2970  138.5340 N   0  0  0  0  0  2  0  0  0  0  0  0
  193.0370  173.6440  138.2150 C   0  0  0  0  0  2  0  0  0  0  0  0
  195.3150  171.3890  139.4660 C   0  0  0  0  0  2  0  0  0  0  0  0
  194.1760  170.8700  141.5870 C   0  0  0  0  0  2  0  0  0  0  0  0
  194.7720  171.9840  140.7520 C   0  0  1  0  0  3  0  0  0  0  0  0
  195.5400  171.4330  141.9370 C   0  0  1  0  0  3  0  0  0  0  0  0
  195.4110  172.3140  143.0110 O   0  0  0  0  0  0  0  0  0  0  0  0
  196.4730  172.0030  143.8600 C   0  0  0  0  0  2  0  0  0  0  0  0
  196.8800  172.7720  146.1960 O   0  0  0  0  0  1  0  0  0  0  0  0
  196.0420  172.1500  145.2760 C   0  0  0  0  0  0  0  0  0  0  0  0
  194.9040  171.7440  145.6300 O   0  0  0  0  0  0  0  0  0  0  0  0
  194.8820  173.5230  136.7890 C   0  0  0  0  0  2  0  0  0  0  0  0
  196.3310  174.0030  136.8080 C   0  0  2  0  0  3  0  0  0  0  0  0
  196.5720  174.8390  138.0500 C   0  0  0  0  0  2  0  0  0  0  0  0
  197.4980  174.2040  138.8770 O   0  0  0  0  0  1  0  0  0  0  0  0
  196.6070  174.8410  135.5660 C   0  0  0  0  0  2  0  0  0  0  0  0
  197.4170  176.0670  135.9360 C   0  0  0  0  0  2  0  0  0  0  0  0
  196.8480  177.1950  135.3480 O   0  0  0  0  0  1  0  0  0  0  0  0
  190.7640  171.1220  139.7870 C   0  0  0  0  0  2  0  0  0  0  0  0
  190.2380  169.0910  139.3090 O   0  0  0  0  0  1  0  0  0  0  0  0
  190.0050  170.3300  138.9210 O   0  0  0  0  0  0  0  0  0  0  0  0
  1  2  1  0  0  0  0
  3  2  1  6  0  0  0
  3  4  1  0  0  0  0
  3  7  1  0  0  0  0
  5  4  1  0  0  0  0
  6  5  1  0  0  0  0
  7  8  1  0  0  0  0
  9 12  1  1  0  0  0
  9 10  1  0  0  0  0
  9 11  1  0  0  0  0
 10  8  1  6  0  0  0
 10 11  1  0  0  0  0
 11 17  1  6  0  0  0
 12 13  2  0  0  0  0
 14 15  1  0  0  0  0
 14 12  1  0  0  0  0
 16 14  1  0  0  0  0
 17 18  1  0  0  0  0
 19 18  1  0  0  0  0
 20 21  1  0  0  0  0
 20 19  1  0  0  0  0
 22 25  1  0  0  0  0
 22 21  1  0  0  0  0
 24 25  1  0  0  0  0
 25 23  1  0  0  0  0
 26 48  1  1  0  0  0
 26  1  1  0  0  0  0
 27 30  1  0  0  0  0
 27 32  1  1  0  0  0
 28 31  1  0  0  0  0
 28 30  1  0  0  0  0
 28 26  1  1  0  0  0
 29 31  1  0  0  0  0
 29 27  1  0  0  0  0
 33 35  1  0  0  0  0
 34 32  1  6  0  0  0
 34 33  1  0  0  0  0
 34 35  1  0  0  0  0
 35 36  1  1  0  0  0
 36 37  1  0  0  0  0
 37 39  1  0  0  0  0
 39 40  2  0  0  0  0
 39 38  1  0  0  0  0
 41 42  1  0  0  0  0
 41 29  1  0  0  0  0
 42 45  1  6  0  0  0
 42 43  1  0  0  0  0
 43 44  1  0  0  0  0
 45 46  1  0  0  0  0
 47 46  1  0  0  0  0
 50 49  1  0  0  0  0
 50 48  1  0  0  0  0
M  END
>  <MODEL>
6

>  <REMARK>
 VINA RESULT:      -4.4      3.297      8.842
  Name = 
  30 active torsions:
  status: ('A' for Active; 'I' for Inactive)
    1  A    between atoms: C_1  and  C_14
    2  A    between atoms: C_1  and  C_48
    3  A    between atoms: C_2  and  C_4
    4  A    between atoms: C_4  and  C_17
    5  A    between atoms: C_6  and  C_44
    6  A    between atoms: C_7  and  C_22
    7  A    between atoms: C_7  and  C_49
    8  A    between atoms: C_10  and  C_26
    9  A    between atoms: C_10  and  N_32
   10  A    between atoms: C_11  and  C_22
   11  A    between atoms: C_11  and  C_47
   12  A    between atoms: C_12  and  C_50
   13  A    between atoms: C_13  and  C_25
   14  A    between atoms: C_13  and  O_33
   15  A    between atoms: O_15  and  C_25
   16  A    between atoms: O_15  and  C_36
   17  A    between atoms: C_16  and  C_44
   18  A    between atoms: O_19  and  C_23
   19  A    between atoms: O_19  and  C_50
   20  A    between atoms: C_20  and  C_28
   21  A    between atoms: C_21  and  C_31
   22  A    between atoms: C_21  and  C_49
   23  A    between atoms: C_24  and  C_25
   24  A    between atoms: C_26  and  C_29
   25  A    between atoms: C_26  and  C_34
   26  A    between atoms: C_27  and  C_28
   27  A    between atoms: C_27  and  C_48
   28  A    between atoms: C_29  and  C_41
   29  A    between atoms: C_31  and  C_43
   30  A    between atoms: C_36  and  C_48
                            x       y       z     vdW  Elec       q    Type
                         _______ _______ _______ _____ _____    ______ ____

>  <TORSDO>
F 30

$$$$
=
 OpenBabel11062419173D

 50 52  0  0  1  0  0  0  0  0999 V2000
  190.9480  175.0710  141.2660 O   0  0  0  0  0  0  0  0  0  0  0  0
  192.0850  174.6310  141.9490 C   0  0  0  0  0  2  0  0  0  0  0  0
  193.0240  173.9160  140.9870 C   0  0  1  0  0  3  0  0  0  0  0  0
  194.4860  174.1510  141.3750 C   0  0  0  0  0  2  0  0  0  0  0  0
  195.2020  175.0530  140.3790 C   0  0  0  0  0  2  0  0  0  0  0  0
  194.9220  176.3950  140.6420 O   0  0  0  0  0  1  0  0  0  0  0  0
  192.6810  172.4310  140.9140 C   0  0  0  0  0  2  0  0  0  0  0  0
  192.4250  171.8250  142.2910 C   0  0  0  0  0  2  0  0  0  0  0  0
  192.4340  169.5440  141.2940 C   0  0  1  0  0  3  0  0  0  0  0  0
  191.6370  170.5350  142.1270 C   0  0  1  0  0  3  0  0  0  0  0  0
  192.2730  169.3060  142.7850 C   0  0  2  0  0  3  0  0  0  0  0  0
  191.5110  168.6530  140.5230 C   0  0  0  0  0  0  0  0  0  0  0  0
  190.5260  168.1820  141.0710 O   0  0  0  0  0  0  0  0  0  0  0  0
  191.8300  168.2870  139.1060 C   0  0  0  0  0  3  0  0  0  0  0  0
  190.6110  168.4550  138.2200 C   0  0  0  0  0  1  0  0  0  0  0  0
  192.9640  169.1330  138.5810 C   0  0  0  0  0  1  0  0  0  0  0  0
  193.6110  169.5490  143.4730 C   0  0  0  0  0  2  0  0  0  0  0  0
  193.5550  169.0480  144.9040 C   0  0  0  0  0  2  0  0  0  0  0  0
  194.8870  169.3170  145.5890 C   0  0  0  0  0  2  0  0  0  0  0  0
  196.0410  168.9120  144.6880 C   0  0  0  0  0  2  0  0  0  0  0  0
  197.0200  170.0650  144.5300 C   0  0  0  0  0  2  0  0  0  0  0  0
  196.9120  170.9950  145.7290 C   0  0  0  0  0  2  0  0  0  0  0  0
  195.4320  172.7790  144.7340 C   0  0  0  0  0  1  0  0  0  0  0  0
  197.1050  173.3990  146.4830 C   0  0  0  0  0  1  0  0  0  0  0  0
  196.7980  172.4670  145.3210 C   0  0  0  0  0  3  0  0  0  0  0  0
  189.8940  174.8750  142.1600 C   0  0  1  0  0  3  0  0  0  0  0  0
  189.0890  177.2400  144.7230 C   0  0  2  0  0  3  0  0  0  0  0  0
  189.3650  176.2220  142.6550 C   0  0  2  0  0  3  0  0  0  0  0  0
  187.7440  176.8890  144.2720 N   0  0  0  0  0  0  0  0  0  0  0  0
  190.0840  176.6350  143.8460 N   0  0  0  0  0  2  0  0  0  0  0  0
  187.9110  176.1190  143.0540 C   0  0  0  0  0  2  0  0  0  0  0  0
  189.2980  176.7380  146.1420 C   0  0  0  0  0  2  0  0  0  0  0  0
  190.8610  176.5960  148.0380 C   0  0  0  0  0  2  0  0  0  0  0  0
  190.7200  177.0170  146.5920 C   0  0  1  0  0  3  0  0  0  0  0  0
  191.4150  175.7150  146.9350 C   0  0  1  0  0  3  0  0  0  0  0  0
  192.7950  175.9000  146.8480 O   0  0  0  0  0  0  0  0  0  0  0  0
  193.1140  175.6100  145.5220 C   0  0  0  0  0  2  0  0  0  0  0  0
  194.7430  177.4530  145.9300 O   0  0  0  0  0  1  0  0  0  0  0  0
  194.2160  176.4970  145.0660 C   0  0  0  0  0  0  0  0  0  0  0  0
  194.6980  176.3540  143.9110 O   0  0  0  0  0  0  0  0  0  0  0  0
  187.0790  178.1310  143.8960 C   0  0  0  0  0  2  0  0  0  0  0  0
  185.5900  178.0570  144.2200 C   0  0  2  0  0  3  0  0  0  0  0  0
  184.7910  178.6390  143.0700 C   0  0  0  0  0  2  0  0  0  0  0  0
  184.9240  177.8300  141.9420 O   0  0  0  0  0  1  0  0  0  0  0  0
  185.3040  178.8460  145.4910 C   0  0  0  0  0  2  0  0  0  0  0  0
  184.5210  177.9910  146.4680 C   0  0  0  0  0  2  0  0  0  0  0  0
  185.1530  176.7580  146.6170 O   0  0  0  0  0  1  0  0  0  0  0  0
  188.7890  174.0990  141.4560 C   0  0  0  0  0  2  0  0  0  0  0  0
  187.3550  172.5750  141.9570 O   0  0  0  0  0  1  0  0  0  0  0  0
  188.6450  172.8390  142.0410 O   0  0  0  0  0  0  0  0  0  0  0  0
  1  2  1  0  0  0  0
  1 26  1  0  0  0  0
  3  7  1  1  0  0  0
  3  4  1  0  0  0  0
  3  2  1  0  0  0  0
  5  6  1  0  0  0  0
  5  4  1  0  0  0  0
  7  8  1  0  0  0  0
  9 12  1  6  0  0  0
  9 10  1  0  0  0  0
  9 11  1  0  0  0  0
 10  8  1  1  0  0  0
 10 11  1  0  0  0  0
 11 17  1  1  0  0  0
 12 13  2  0  0  0  0
 14 12  1  0  0  0  0
 15 14  1  0  0  0  0
 16 14  1  0  0  0  0
 17 18  1  0  0  0  0
 18 19  1  0  0  0  0
 20 19  1  0  0  0  0
 21 20  1  0  0  0  0
 21 22  1  0  0  0  0
 23 25  1  0  0  0  0
 25 22  1  0  0  0  0
 25 24  1  0  0  0  0
 26 48  1  6  0  0  0
 27 32  1  1  0  0  0
 28 26  1  1  0  0  0
 28 31  1  0  0  0  0
 28 30  1  0  0  0  0
 29 27  1  0  0  0  0
 30 27  1  0  0  0  0
 31 29  1  0  0  0  0
 34 32  1  6  0  0  0
 34 35  1  0  0  0  0
 34 33  1  0  0  0  0
 35 36  1  1  0  0  0
 35 33  1  0  0  0  0
 37 36  1  0  0  0  0
 39 37  1  0  0  0  0
 39 38  1  0  0  0  0
 40 39  2  0  0  0  0
 41 42  1  0  0  0  0
 41 29  1  0  0  0  0
 42 43  1  6  0  0  0
 42 45  1  0  0  0  0
 44 43  1  0  0  0  0
 45 46  1  0  0  0  0
 46 47  1  0  0  0  0
 48 50  1  0  0  0  0
 49 50  1  0  0  0  0
M  END
>  <MODEL>
7

>  <REMARK>
 VINA RESULT:      -4.4      2.166      5.143
  Name = 
  30 active torsions:
  status: ('A' for Active; 'I' for Inactive)
    1  A    between atoms: C_1  and  C_14
    2  A    between atoms: C_1  and  C_48
    3  A    between atoms: C_2  and  C_4
    4  A    between atoms: C_4  and  C_17
    5  A    between atoms: C_6  and  C_44
    6  A    between atoms: C_7  and  C_22
    7  A    between atoms: C_7  and  C_49
    8  A    between atoms: C_10  and  C_26
    9  A    between atoms: C_10  and  N_32
   10  A    between atoms: C_11  and  C_22
   11  A    between atoms: C_11  and  C_47
   12  A    between atoms: C_12  and  C_50
   13  A    between atoms: C_13  and  C_25
   14  A    between atoms: C_13  and  O_33
   15  A    between atoms: O_15  and  C_25
   16  A    between atoms: O_15  and  C_36
   17  A    between atoms: C_16  and  C_44
   18  A    between atoms: O_19  and  C_23
   19  A    between atoms: O_19  and  C_50
   20  A    between atoms: C_20  and  C_28
   21  A    between atoms: C_21  and  C_31
   22  A    between atoms: C_21  and  C_49
   23  A    between atoms: C_24  and  C_25
   24  A    between atoms: C_26  and  C_29
   25  A    between atoms: C_26  and  C_34
   26  A    between atoms: C_27  and  C_28
   27  A    between atoms: C_27  and  C_48
   28  A    between atoms: C_29  and  C_41
   29  A    between atoms: C_31  and  C_43
   30  A    between atoms: C_36  and  C_48
                            x       y       z     vdW  Elec       q    Type
                         _______ _______ _______ _____ _____    ______ ____

>  <TORSDO>
F 30

$$$$
=
 OpenBabel11062419173D

 50 52  0  0  1  0  0  0  0  0999 V2000
  192.2860  172.6300  140.2800 O   0  0  0  0  0  0  0  0  0  0  0  0
  190.9220  172.7910  140.0220 C   0  0  0  0  0  2  0  0  0  0  0  0
  190.2400  173.4250  141.2260 C   0  0  1  0  0  3  0  0  0  0  0  0
  189.2810  172.4360  141.8950 C   0  0  0  0  0  2  0  0  0  0  0  0
  187.8240  172.7820  141.6190 C   0  0  0  0  0  2  0  0  0  0  0  0
  187.6110  174.1550  141.7540 O   0  0  0  0  0  1  0  0  0  0  0  0
  191.2800  173.9650  142.2040 C   0  0  0  0  0  2  0  0  0  0  0  0
  190.7380  175.1110  143.0550 C   0  0  0  0  0  2  0  0  0  0  0  0
  192.3870  176.0160  144.6850 C   0  0  1  0  0  3  0  0  0  0  0  0
  191.2920  174.9850  144.4660 C   0  0  1  0  0  3  0  0  0  0  0  0
  191.0410  176.2010  145.3640 C   0  0  2  0  0  3  0  0  0  0  0  0
  193.3950  175.5010  145.6640 C   0  0  0  0  0  0  0  0  0  0  0  0
  193.1150  174.5520  146.3810 O   0  0  0  0  0  0  0  0  0  0  0  0
  194.7190  176.1880  145.8110 C   0  0  0  0  0  3  0  0  0  0  0  0
  195.3600  176.4140  144.4560 C   0  0  0  0  0  1  0  0  0  0  0  0
  194.5570  177.5060  146.5270 C   0  0  0  0  0  1  0  0  0  0  0  0
  190.3110  177.3650  144.7040 C   0  0  0  0  0  2  0  0  0  0  0  0
  189.1520  177.8090  145.5770 C   0  0  0  0  0  2  0  0  0  0  0  0
  188.1190  176.6940  145.6550 C   0  0  0  0  0  2  0  0  0  0  0  0
  187.4810  176.4620  144.2960 C   0  0  0  0  0  2  0  0  0  0  0  0
  186.0210  176.8860  144.3150 C   0  0  0  0  0  2  0  0  0  0  0  0
  185.5540  177.0420  145.7550 C   0  0  0  0  0  2  0  0  0  0  0  0
  185.5750  179.0080  147.3350 C   0  0  0  0  0  1  0  0  0  0  0  0
  185.2570  179.3970  144.8880 C   0  0  0  0  0  1  0  0  0  0  0  0
  185.0060  178.4430  146.0450 C   0  0  0  0  0  3  0  0  0  0  0  0
  192.6310  171.4330  139.6470 C   0  0  1  0  0  3  0  0  0  0  0  0
  196.0390  172.5030  139.8620 C   0  0  2  0  0  3  0  0  0  0  0  0
  194.0730  171.4990  139.1430 C   0  0  2  0  0  3  0  0  0  0  0  0
  195.6070  173.2700  138.6960 N   0  0  0  0  0  0  0  0  0  0  0  0
  194.9920  171.5720  140.2650 N   0  0  0  0  0  2  0  0  0  0  0  0
  194.3040  172.7500  138.3270 C   0  0  0  0  0  2  0  0  0  0  0  0
  196.3390  173.4500  141.0120 C   0  0  0  0  0  2  0  0  0  0  0  0
  197.2940  173.6680  143.2710 C   0  0  0  0  0  2  0  0  0  0  0  0
  196.9260  172.6830  142.1820 C   0  0  1  0  0  3  0  0  0  0  0  0
  196.0330  172.8350  143.3970 C   0  0  1  0  0  3  0  0  0  0  0  0
  196.2690  171.7730  144.2710 O   0  0  0  0  0  0  0  0  0  0  0  0
  195.4320  170.7500  143.8260 C   0  0  0  0  0  2  0  0  0  0  0  0
  194.1460  171.4460  145.8450 O   0  0  0  0  0  1  0  0  0  0  0  0
  194.2130  170.6940  144.6760 C   0  0  0  0  0  0  0  0  0  0  0  0
  193.2290  169.9960  144.3140 O   0  0  0  0  0  0  0  0  0  0  0  0
  196.5160  172.9400  137.6040 C   0  0  0  0  0  2  0  0  0  0  0  0
  195.7990  173.0560  136.2610 C   0  0  2  0  0  3  0  0  0  0  0  0
  196.0060  171.7830  135.4650 C   0  0  0  0  0  2  0  0  0  0  0  0
  195.8700  170.6730  136.2980 O   0  0  0  0  0  1  0  0  0  0  0  0
  196.3580  174.2410  135.4850 C   0  0  0  0  0  2  0  0  0  0  0  0
  195.9370  175.5390  136.1460 C   0  0  0  0  0  2  0  0  0  0  0  0
  196.9650  176.4730  136.0330 O   0  0  0  0  0  1  0  0  0  0  0  0
  192.4680  170.2880  140.6370 C   0  0  0  0  0  2  0  0  0  0  0  0
  190.8430  169.3260  141.6670 O   0  0  0  0  0  1  0  0  0  0  0  0
  191.2280  169.6720  140.4530 O   0  0  0  0  0  0  0  0  0  0  0  0
  2  1  1  0  0  0  0
  3  2  1  6  0  0  0
  3  4  1  0  0  0  0
  3  7  1  0  0  0  0
  5  6  1  0  0  0  0
  5  4  1  0  0  0  0
  7  8  1  0  0  0  0
  9 11  1  0  0  0  0
  9 12  1  1  0  0  0
 10  8  1  6  0  0  0
 10  9  1  0  0  0  0
 10 11  1  0  0  0  0
 11 17  1  6  0  0  0
 12 14  1  0  0  0  0
 12 13  2  0  0  0  0
 14 16  1  0  0  0  0
 15 14  1  0  0  0  0
 17 18  1  0  0  0  0
 18 19  1  0  0  0  0
 20 21  1  0  0  0  0
 20 19  1  0  0  0  0
 21 22  1  0  0  0  0
 22 25  1  0  0  0  0
 24 25  1  0  0  0  0
 25 23  1  0  0  0  0
 26  1  1  0  0  0  0
 26 48  1  1  0  0  0
 27 30  1  0  0  0  0
 27 32  1  1  0  0  0
 28 26  1  1  0  0  0
 28 30  1  0  0  0  0
 29 27  1  0  0  0  0
 31 29  1  0  0  0  0
 31 28  1  0  0  0  0
 33 35  1  0  0  0  0
 34 32  1  6  0  0  0
 34 33  1  0  0  0  0
 34 35  1  0  0  0  0
 35 36  1  1  0  0  0
 37 36  1  0  0  0  0
 37 39  1  0  0  0  0
 39 38  1  0  0  0  0
 40 39  2  0  0  0  0
 41 29  1  0  0  0  0
 42 43  1  6  0  0  0
 42 41  1  0  0  0  0
 43 44  1  0  0  0  0
 45 46  1  0  0  0  0
 45 42  1  0  0  0  0
 47 46  1  0  0  0  0
 50 48  1  0  0  0  0
 50 49  1  0  0  0  0
M  END
>  <MODEL>
8

>  <REMARK>
 VINA RESULT:      -4.0      3.274      9.208
  Name = 
  30 active torsions:
  status: ('A' for Active; 'I' for Inactive)
    1  A    between atoms: C_1  and  C_14
    2  A    between atoms: C_1  and  C_48
    3  A    between atoms: C_2  and  C_4
    4  A    between atoms: C_4  and  C_17
    5  A    between atoms: C_6  and  C_44
    6  A    between atoms: C_7  and  C_22
    7  A    between atoms: C_7  and  C_49
    8  A    between atoms: C_10  and  C_26
    9  A    between atoms: C_10  and  N_32
   10  A    between atoms: C_11  and  C_22
   11  A    between atoms: C_11  and  C_47
   12  A    between atoms: C_12  and  C_50
   13  A    between atoms: C_13  and  C_25
   14  A    between atoms: C_13  and  O_33
   15  A    between atoms: O_15  and  C_25
   16  A    between atoms: O_15  and  C_36
   17  A    between atoms: C_16  and  C_44
   18  A    between atoms: O_19  and  C_23
   19  A    between atoms: O_19  and  C_50
   20  A    between atoms: C_20  and  C_28
   21  A    between atoms: C_21  and  C_31
   22  A    between atoms: C_21  and  C_49
   23  A    between atoms: C_24  and  C_25
   24  A    between atoms: C_26  and  C_29
   25  A    between atoms: C_26  and  C_34
   26  A    between atoms: C_27  and  C_28
   27  A    between atoms: C_27  and  C_48
   28  A    between atoms: C_29  and  C_41
   29  A    between atoms: C_31  and  C_43
   30  A    between atoms: C_36  and  C_48
                            x       y       z     vdW  Elec       q    Type
                         _______ _______ _______ _____ _____    ______ ____

>  <TORSDO>
F 30

$$$$
=
 OpenBabel11062419173D

 50 52  0  0  1  0  0  0  0  0999 V2000
  193.8110  176.6490  144.0440 O   0  0  0  0  0  0  0  0  0  0  0  0
  193.3010  176.4780  142.7540 C   0  0  0  0  0  2  0  0  0  0  0  0
  194.3230  175.7590  141.8850 C   0  0  1  0  0  3  0  0  0  0  0  0
  195.4400  176.7130  141.4540 C   0  0  0  0  0  2  0  0  0  0  0  0
  196.8110  176.0540  141.5270 C   0  0  0  0  0  2  0  0  0  0  0  0
  197.2380  175.6650  140.2560 O   0  0  0  0  0  1  0  0  0  0  0  0
  194.8660  174.5290  142.6080 C   0  0  0  0  0  2  0  0  0  0  0  0
  194.3960  173.2250  141.9690 C   0  0  0  0  0  2  0  0  0  0  0  0
  195.3320  171.6610  143.6640 C   0  0  1  0  0  3  0  0  0  0  0  0
  195.4350  172.1450  142.2270 C   0  0  1  0  0  3  0  0  0  0  0  0
  194.8570  170.7600  142.5380 C   0  0  2  0  0  3  0  0  0  0  0  0
  196.6720  171.2120  144.1570 C   0  0  0  0  0  0  0  0  0  0  0  0
  197.3160  170.4000  143.5090 O   0  0  0  0  0  0  0  0  0  0  0  0
  197.1920  171.7050  145.4730 C   0  0  0  0  0  3  0  0  0  0  0  0
  196.8570  173.1710  145.6670 C   0  0  0  0  0  1  0  0  0  0  0  0
  196.6180  170.8940  146.6090 C   0  0  0  0  0  1  0  0  0  0  0  0
  193.3350  170.6790  142.5790 C   0  0  0  0  0  2  0  0  0  0  0  0
  192.8840  169.2720  142.2330 C   0  0  0  0  0  2  0  0  0  0  0  0
  191.3660  169.2360  142.1340 C   0  0  0  0  0  2  0  0  0  0  0  0
  190.9180  169.4510  140.6990 C   0  0  0  0  0  2  0  0  0  0  0  0
  191.6130  168.4650  139.7730 C   0  0  0  0  0  2  0  0  0  0  0  0
  192.1960  169.2100  138.5800 C   0  0  0  0  0  2  0  0  0  0  0  0
  193.0030  171.5980  138.6420 C   0  0  0  0  0  1  0  0  0  0  0  0
  190.9570  171.0230  137.3310 C   0  0  0  0  0  1  0  0  0  0  0  0
  191.7910  170.6870  138.5560 C   0  0  0  0  0  3  0  0  0  0  0  0
  192.6860  176.8380  144.8520 C   0  0  1  0  0  3  0  0  0  0  0  0
  189.1330  176.6970  144.4540 C   0  0  2  0  0  3  0  0  0  0  0  0
  191.4120  176.7370  144.0130 C   0  0  2  0  0  3  0  0  0  0  0  0
  189.4850  175.3320  144.0640 N   0  0  0  0  0  0  0  0  0  0  0  0
  190.3410  177.4920  144.6380 N   0  0  0  0  0  2  0  0  0  0  0  0
  190.9290  175.3070  143.9320 C   0  0  0  0  0  2  0  0  0  0  0  0
  188.3460  176.6690  145.7530 C   0  0  0  0  0  2  0  0  0  0  0  0
  186.1020  177.1640  146.6360 C   0  0  0  0  0  2  0  0  0  0  0  0
  186.8590  176.5830  145.4620 C   0  0  1  0  0  3  0  0  0  0  0  0
  186.2730  177.9770  145.3670 C   0  0  1  0  0  3  0  0  0  0  0  0
  185.0920  177.9240  144.6260 O   0  0  0  0  0  0  0  0  0  0  0  0
  185.2930  178.8100  143.5680 C   0  0  0  0  0  2  0  0  0  0  0  0
  185.9600  176.8650  142.1590 O   0  0  0  0  0  1  0  0  0  0  0  0
  185.2710  178.0670  142.2800 C   0  0  0  0  0  0  0  0  0  0  0  0
  184.5950  178.5090  141.3140 O   0  0  0  0  0  0  0  0  0  0  0  0
  188.9370  175.1110  142.7310 C   0  0  0  0  0  2  0  0  0  0  0  0
  188.5060  173.6570  142.5670 C   0  0  2  0  0  3  0  0  0  0  0  0
  189.6300  172.7410  143.0120 C   0  0  0  0  0  2  0  0  0  0  0  0
  189.1970  171.9350  144.0640 O   0  0  0  0  0  1  0  0  0  0  0  0
  188.1730  173.3850  141.1060 C   0  0  0  0  0  2  0  0  0  0  0  0
  189.3660  172.7630  140.4080 C   0  0  0  0  0  2  0  0  0  0  0  0
  189.8500  173.6420  139.4410 O   0  0  0  0  0  1  0  0  0  0  0  0
  192.6840  175.7810  145.9470 C   0  0  0  0  0  2  0  0  0  0  0  0
  191.4500  175.1790  147.6040 O   0  0  0  0  0  1  0  0  0  0  0  0
  191.9910  176.2540  147.0650 O   0  0  0  0  0  0  0  0  0  0  0  0
  1 26  1  0  0  0  0
  2  1  1  0  0  0  0
  3  4  1  1  0  0  0
  3  7  1  0  0  0  0
  3  2  1  0  0  0  0
  4  5  1  0  0  0  0
  6  5  1  0  0  0  0
  8  7  1  0  0  0  0
  9 12  1  6  0  0  0
 10  8  1  1  0  0  0
 10 11  1  0  0  0  0
 10  9  1  0  0  0  0
 11 17  1  1  0  0  0
 11  9  1  0  0  0  0
 12 14  1  0  0  0  0
 13 12  2  0  0  0  0
 14 15  1  0  0  0  0
 14 16  1  0  0  0  0
 18 17  1  0  0  0  0
 19 18  1  0  0  0  0
 20 19  1  0  0  0  0
 21 20  1  0  0  0  0
 22 21  1  0  0  0  0
 24 25  1  0  0  0  0
 25 22  1  0  0  0  0
 25 23  1  0  0  0  0
 26 48  1  1  0  0  0
 27 30  1  0  0  0  0
 27 32  1  1  0  0  0
 28 30  1  0  0  0  0
 28 26  1  1  0  0  0
 29 27  1  0  0  0  0
 31 28  1  0  0  0  0
 31 29  1  0  0  0  0
 34 32  1  1  0  0  0
 34 33  1  0  0  0  0
 35 36  1  6  0  0  0
 35 34  1  0  0  0  0
 35 33  1  0  0  0  0
 37 36  1  0  0  0  0
 38 39  1  0  0  0  0
 39 37  1  0  0  0  0
 40 39  2  0  0  0  0
 41 29  1  0  0  0  0
 42 45  1  6  0  0  0
 42 41  1  0  0  0  0
 42 43  1  0  0  0  0
 43 44  1  0  0  0  0
 46 45  1  0  0  0  0
 47 46  1  0  0  0  0
 48 50  1  0  0  0  0
 50 49  1  0  0  0  0
M  END
>  <MODEL>
9

>  <REMARK>
 VINA RESULT:      -3.9      2.120      6.198
  Name = 
  30 active torsions:
  status: ('A' for Active; 'I' for Inactive)
    1  A    between atoms: C_1  and  C_14
    2  A    between atoms: C_1  and  C_48
    3  A    between atoms: C_2  and  C_4
    4  A    between atoms: C_4  and  C_17
    5  A    between atoms: C_6  and  C_44
    6  A    between atoms: C_7  and  C_22
    7  A    between atoms: C_7  and  C_49
    8  A    between atoms: C_10  and  C_26
    9  A    between atoms: C_10  and  N_32
   10  A    between atoms: C_11  and  C_22
   11  A    between atoms: C_11  and  C_47
   12  A    between atoms: C_12  and  C_50
   13  A    between atoms: C_13  and  C_25
   14  A    between atoms: C_13  and  O_33
   15  A    between atoms: O_15  and  C_25
   16  A    between atoms: O_15  and  C_36
   17  A    between atoms: C_16  and  C_44
   18  A    between atoms: O_19  and  C_23
   19  A    between atoms: O_19  and  C_50
   20  A    between atoms: C_20  and  C_28
   21  A    between atoms: C_21  and  C_31
   22  A    between atoms: C_21  and  C_49
   23  A    between atoms: C_24  and  C_25
   24  A    between atoms: C_26  and  C_29
   25  A    between atoms: C_26  and  C_34
   26  A    between atoms: C_27  and  C_28
   27  A    between atoms: C_27  and  C_48
   28  A    between atoms: C_29  and  C_41
   29  A    between atoms: C_31  and  C_43
   30  A    between atoms: C_36  and  C_48
                            x       y       z     vdW  Elec       q    Type
                         _______ _______ _______ _____ _____    ______ ____

>  <TORSDO>
F 30

$$$$
