=
 OpenBabel11062423123D

 28 30  0  0  0  0  0  0  0  0999 V2000
  184.8280  177.9940  142.6630 C   0  0  0  0  0  0  0  0  0  0  0  0
  186.9420  177.2350  146.6150 C   0  0  0  0  0  0  0  0  0  0  0  0
  185.6190  177.2510  144.5830 N   0  0  0  0  0  0  0  0  0  0  0  0
  184.9450  178.5950  147.1880 N   0  0  0  0  0  0  0  0  0  0  0  0
  184.1730  178.6780  143.6280 N   0  0  0  0  0  0  0  0  0  0  0  0
  184.2230  178.6330  146.1030 C   0  0  0  0  0  3  0  0  0  0  0  0
  186.2080  176.4070  145.6070 C   0  0  0  0  0  2  0  0  0  0  0  0
  186.3140  178.1750  147.3380 C   0  0  0  0  0  3  0  0  0  0  0  0
  184.6890  178.1990  144.7810 C   0  0  0  0  0  0  0  0  0  0  0  0
  185.7100  177.1020  143.2520 C   0  0  0  0  0  0  0  0  0  0  0  0
  183.2500  178.1790  140.7050 N   0  0  0  0  0  1  0  0  0  0  0  0
  184.5750  178.1900  141.2250 C   0  0  0  0  0  0  0  0  0  0  0  0
  185.5420  178.3760  140.4410 O   0  0  0  0  0  0  0  0  0  0  0  0
  189.0790  177.9290  147.3630 O   0  0  0  0  0  0  0  0  0  0  0  0
  188.3900  177.0000  146.8570 C   0  0  0  0  0  0  0  0  0  0  0  0
  189.0090  174.6830  147.3110 C   0  0  0  0  0  2  0  0  0  0  0  0
  189.0800  175.7380  146.5040 C   0  0  0  0  0  0  0  0  0  0  0  0
  189.9970  175.7520  145.3960 N   0  0  0  0  0  2  0  0  0  0  0  0
  193.4700  176.5190  146.6070 C   0  0  0  0  0  3  0  0  0  0  0  0
  194.1570  176.5750  145.3920 C   0  0  0  0  0  3  0  0  0  0  0  0
  192.0990  176.1000  144.2080 C   0  0  0  0  0  3  0  0  0  0  0  0
  192.0970  176.2560  146.6220 C   0  0  0  0  0  3  0  0  0  0  0  0
  193.4710  176.3640  144.1930 C   0  0  0  0  0  3  0  0  0  0  0  0
  191.3990  176.0530  145.4200 C   0  0  0  0  0  0  0  0  0  0  0  0
  186.6250  176.1360  142.5650 C   0  0  0  0  0  2  0  0  0  0  0  0
  187.9970  176.7060  142.4610 C   0  0  0  0  0  0  0  0  0  0  0  0
  188.2400  178.0160  142.8520 O   0  0  0  0  0  1  0  0  0  0  0  0
  188.9420  175.9940  142.0360 O   0  0  0  0  0  0  0  0  0  0  0  0
  1 10  2  0  0  0  0
  1  5  1  0  0  0  0
  2 15  1  0  0  0  0
  2  8  2  0  0  0  0
  3  9  1  0  0  0  0
  3  7  1  0  0  0  0
  4  8  1  0  0  0  0
  5  9  2  0  0  0  0
  6  4  2  0  0  0  0
  7  2  1  0  0  0  0
  9  6  1  0  0  0  0
 10  3  1  0  0  0  0
 11 12  1  0  0  0  0
 12  1  1  0  0  0  0
 13 12  2  0  0  0  0
 15 14  2  0  0  0  0
 17 15  1  0  0  0  0
 17 16  2  0  0  0  0
 18 24  1  0  0  0  0
 18 17  1  0  0  0  0
 19 22  1  0  0  0  0
 20 19  2  0  0  0  0
 21 24  1  0  0  0  0
 23 21  2  0  0  0  0
 23 20  1  0  0  0  0
 24 22  2  0  0  0  0
 25 10  1  0  0  0  0
 26 25  1  0  0  0  0
 26 27  1  0  0  0  0
 28 26  2  0  0  0  0
M  END
>  <MODEL>
1

>  <REMARK>
 VINA RESULT:      -7.6      0.000      0.000
  Name = 
  7 active torsions:
  status: ('A' for Active; 'I' for Inactive)
    1  A    between atoms: C_2  and  C_25
    2  A    between atoms: C_7  and  C_16
    3  A    between atoms: C_8  and  C_10
    4  A    between atoms: C_10  and  C_22
    5  A    between atoms: N_13  and  C_20
    6  A    between atoms: N_13  and  C_22
    7  A    between atoms: C_25  and  C_28
                            x       y       z     vdW  Elec       q    Type
                         _______ _______ _______ _____ _____    ______ ____

>  <TORSDO>
F 7

$$$$
=
 OpenBabel11062423123D

 28 30  0  0  0  0  0  0  0  0999 V2000
  185.8420  177.7990  142.0010 C   0  0  0  0  0  0  0  0  0  0  0  0
  189.1800  176.6440  144.8610 C   0  0  0  0  0  0  0  0  0  0  0  0
  187.6590  177.6030  143.2360 N   0  0  0  0  0  0  0  0  0  0  0  0
  189.6520  175.4010  142.7640 N   0  0  0  0  0  0  0  0  0  0  0  0
  186.6050  176.8600  141.3980 N   0  0  0  0  0  0  0  0  0  0  0  0
  188.8330  175.8880  141.8750 C   0  0  0  0  0  3  0  0  0  0  0  0
  188.7570  177.8860  144.1430 C   0  0  0  0  0  2  0  0  0  0  0  0
  189.6240  175.5680  144.1940 C   0  0  0  0  0  3  0  0  0  0  0  0
  187.6990  176.7670  142.1850 C   0  0  0  0  0  0  0  0  0  0  0  0
  186.4980  178.2700  143.1270 C   0  0  0  0  0  0  0  0  0  0  0  0
  183.3670  178.1910  142.2840 N   0  0  0  0  0  1  0  0  0  0  0  0
  184.5370  178.2340  141.4740 C   0  0  0  0  0  0  0  0  0  0  0  0
  184.4520  178.6560  140.2910 O   0  0  0  0  0  0  0  0  0  0  0  0
  188.6100  177.5500  146.9740 O   0  0  0  0  0  0  0  0  0  0  0  0
  189.1470  176.5960  146.3470 C   0  0  0  0  0  0  0  0  0  0  0  0
  189.0000  174.4590  147.5200 C   0  0  0  0  0  2  0  0  0  0  0  0
  189.7440  175.4950  147.1380 C   0  0  0  0  0  0  0  0  0  0  0  0
  191.0690  175.6780  147.6660 N   0  0  0  0  0  2  0  0  0  0  0  0
  193.8630  174.3630  145.5250 C   0  0  0  0  0  3  0  0  0  0  0  0
  194.7480  175.4430  145.5700 C   0  0  0  0  0  3  0  0  0  0  0  0
  193.2060  176.6460  146.9970 C   0  0  0  0  0  3  0  0  0  0  0  0
  192.6500  174.4250  146.2170 C   0  0  0  0  0  3  0  0  0  0  0  0
  194.4190  176.5850  146.3050 C   0  0  0  0  0  3  0  0  0  0  0  0
  192.3170  175.5650  146.9670 C   0  0  0  0  0  0  0  0  0  0  0  0
  186.0300  179.3220  144.0830 C   0  0  0  0  0  2  0  0  0  0  0  0
  185.5610  178.6980  145.3520 C   0  0  0  0  0  0  0  0  0  0  0  0
  184.9740  177.4400  145.3350 O   0  0  0  0  0  0  0  0  0  0  0  0
  185.7130  179.3050  146.4430 O   0  0  0  0  0  1  0  0  0  0  0  0
  1 10  2  0  0  0  0
  2 15  1  0  0  0  0
  3  7  1  0  0  0  0
  4  8  1  0  0  0  0
  5  1  1  0  0  0  0
  5  9  2  0  0  0  0
  6  9  1  0  0  0  0
  6  4  2  0  0  0  0
  7  2  1  0  0  0  0
  8  2  2  0  0  0  0
  9  3  1  0  0  0  0
 10  3  1  0  0  0  0
 10 25  1  0  0  0  0
 12  1  1  0  0  0  0
 12 11  1  0  0  0  0
 13 12  2  0  0  0  0
 15 14  2  0  0  0  0
 15 17  1  0  0  0  0
 17 16  2  0  0  0  0
 17 18  1  0  0  0  0
 19 20  2  0  0  0  0
 19 22  1  0  0  0  0
 20 23  1  0  0  0  0
 22 24  2  0  0  0  0
 23 21  2  0  0  0  0
 24 21  1  0  0  0  0
 24 18  1  0  0  0  0
 25 26  1  0  0  0  0
 26 28  1  0  0  0  0
 27 26  2  0  0  0  0
M  END
>  <MODEL>
2

>  <REMARK>
 VINA RESULT:      -7.3      2.157      3.373
  Name = 
  7 active torsions:
  status: ('A' for Active; 'I' for Inactive)
    1  A    between atoms: C_2  and  C_25
    2  A    between atoms: C_7  and  C_16
    3  A    between atoms: C_8  and  C_10
    4  A    between atoms: C_10  and  C_22
    5  A    between atoms: N_13  and  C_20
    6  A    between atoms: N_13  and  C_22
    7  A    between atoms: C_25  and  C_28
                            x       y       z     vdW  Elec       q    Type
                         _______ _______ _______ _____ _____    ______ ____

>  <TORSDO>
F 7

$$$$
=
 OpenBabel11062423123D

 28 30  0  0  0  0  0  0  0  0999 V2000
  191.4400  175.6660  144.2140 C   0  0  0  0  0  0  0  0  0  0  0  0
  187.3860  176.6190  142.3930 C   0  0  0  0  0  0  0  0  0  0  0  0
  189.3280  175.8070  143.5960 N   0  0  0  0  0  0  0  0  0  0  0  0
  188.4350  174.9860  140.8440 N   0  0  0  0  0  0  0  0  0  0  0  0
  191.3540  175.0310  143.0230 N   0  0  0  0  0  0  0  0  0  0  0  0
  189.4940  174.5460  141.4620 C   0  0  0  0  0  3  0  0  0  0  0  0
  187.8800  175.9190  143.6190 C   0  0  0  0  0  2  0  0  0  0  0  0
  187.6200  176.1300  141.1660 C   0  0  0  0  0  3  0  0  0  0  0  0
  190.0530  175.1450  142.6800 C   0  0  0  0  0  0  0  0  0  0  0  0
  190.1870  176.1320  144.5750 C   0  0  0  0  0  0  0  0  0  0  0  0
  193.4180  177.0090  145.0160 N   0  0  0  0  0  1  0  0  0  0  0  0
  192.6960  175.7830  144.9740 C   0  0  0  0  0  0  0  0  0  0  0  0
  193.1400  174.7860  145.6020 O   0  0  0  0  0  0  0  0  0  0  0  0
  187.1950  178.9670  142.6430 O   0  0  0  0  0  0  0  0  0  0  0  0
  186.5880  177.8680  142.5190 C   0  0  0  0  0  0  0  0  0  0  0  0
  184.4200  178.1530  141.4320 C   0  0  0  0  0  2  0  0  0  0  0  0
  185.1070  177.8870  142.5410 C   0  0  0  0  0  0  0  0  0  0  0  0
  184.4450  177.8330  143.8160 N   0  0  0  0  0  2  0  0  0  0  0  0
  186.0270  176.8940  147.0930 C   0  0  0  0  0  3  0  0  0  0  0  0
  186.2580  178.1600  147.6360 C   0  0  0  0  0  3  0  0  0  0  0  0
  185.2860  179.1810  145.6670 C   0  0  0  0  0  3  0  0  0  0  0  0
  185.4230  176.7720  145.8380 C   0  0  0  0  0  3  0  0  0  0  0  0
  185.8890  179.3030  146.9220 C   0  0  0  0  0  3  0  0  0  0  0  0
  185.0390  177.9170  145.1190 C   0  0  0  0  0  0  0  0  0  0  0  0
  189.8150  176.8780  145.8190 C   0  0  0  0  0  2  0  0  0  0  0  0
  189.8610  175.9710  147.0010 C   0  0  0  0  0  0  0  0  0  0  0  0
  190.8230  176.1560  147.9840 O   0  0  0  0  0  1  0  0  0  0  0  0
  189.0160  175.0460  147.1160 O   0  0  0  0  0  0  0  0  0  0  0  0
  1 10  2  0  0  0  0
  1 12  1  0  0  0  0
  2 15  1  0  0  0  0
  2  7  1  0  0  0  0
  3  7  1  0  0  0  0
  3 10  1  0  0  0  0
  4  8  1  0  0  0  0
  4  6  2  0  0  0  0
  5  1  1  0  0  0  0
  6  9  1  0  0  0  0
  8  2  2  0  0  0  0
  9  5  2  0  0  0  0
  9  3  1  0  0  0  0
 10 25  1  0  0  0  0
 12 11  1  0  0  0  0
 12 13  2  0  0  0  0
 15 17  1  0  0  0  0
 15 14  2  0  0  0  0
 16 17  2  0  0  0  0
 17 18  1  0  0  0  0
 18 24  1  0  0  0  0
 19 20  1  0  0  0  0
 21 23  1  0  0  0  0
 22 19  2  0  0  0  0
 23 20  2  0  0  0  0
 24 21  2  0  0  0  0
 24 22  1  0  0  0  0
 25 26  1  0  0  0  0
 26 28  2  0  0  0  0
 26 27  1  0  0  0  0
M  END
>  <MODEL>
3

>  <REMARK>
 VINA RESULT:      -7.2      2.155      6.952
  Name = 
  7 active torsions:
  status: ('A' for Active; 'I' for Inactive)
    1  A    between atoms: C_2  and  C_25
    2  A    between atoms: C_7  and  C_16
    3  A    between atoms: C_8  and  C_10
    4  A    between atoms: C_10  and  C_22
    5  A    between atoms: N_13  and  C_20
    6  A    between atoms: N_13  and  C_22
    7  A    between atoms: C_25  and  C_28
                            x       y       z     vdW  Elec       q    Type
                         _______ _______ _______ _____ _____    ______ ____

>  <TORSDO>
F 7

$$$$
=
 OpenBabel11062423123D

 28 30  0  0  0  0  0  0  0  0999 V2000
  189.2250  174.1180  140.7070 C   0  0  0  0  0  0  0  0  0  0  0  0
  190.3450  175.2710  144.9590 C   0  0  0  0  0  0  0  0  0  0  0  0
  189.8460  175.0750  142.5950 N   0  0  0  0  0  0  0  0  0  0  0  0
  192.4190  174.3340  143.9640 N   0  0  0  0  0  0  0  0  0  0  0  0
  190.4980  173.7200  140.9290 N   0  0  0  0  0  0  0  0  0  0  0  0
  192.1700  174.2030  142.6920 C   0  0  0  0  0  3  0  0  0  0  0  0
  189.9600  175.9990  143.7100 C   0  0  0  0  0  2  0  0  0  0  0  0
  191.4900  174.5750  145.0380 C   0  0  0  0  0  3  0  0  0  0  0  0
  190.8360  174.3210  142.0910 C   0  0  0  0  0  0  0  0  0  0  0  0
  188.8270  174.9680  141.7270 C   0  0  0  0  0  0  0  0  0  0  0  0
  188.3330  174.5500  138.3900 N   0  0  0  0  0  1  0  0  0  0  0  0
  188.4470  173.7030  139.5280 C   0  0  0  0  0  0  0  0  0  0  0  0
  187.8770  172.5810  139.5200 O   0  0  0  0  0  0  0  0  0  0  0  0
  189.2190  174.2710  146.7870 O   0  0  0  0  0  0  0  0  0  0  0  0
  189.4690  175.3370  146.1590 C   0  0  0  0  0  0  0  0  0  0  0  0
  189.5930  177.5630  147.1530 C   0  0  0  0  0  2  0  0  0  0  0  0
  188.8440  176.5890  146.6410 C   0  0  0  0  0  0  0  0  0  0  0  0
  187.4110  176.6370  146.7480 N   0  0  0  0  0  2  0  0  0  0  0  0
  185.9140  178.9230  144.1700 C   0  0  0  0  0  3  0  0  0  0  0  0
  184.6600  179.1620  144.7380 C   0  0  0  0  0  3  0  0  0  0  0  0
  185.2430  177.7480  146.6160 C   0  0  0  0  0  3  0  0  0  0  0  0
  186.8330  178.0990  144.8260 C   0  0  0  0  0  3  0  0  0  0  0  0
  184.3250  178.5730  145.9600 C   0  0  0  0  0  3  0  0  0  0  0  0
  186.5060  177.5120  146.0600 C   0  0  0  0  0  0  0  0  0  0  0  0
  187.5050  175.6540  141.8790 C   0  0  0  0  0  2  0  0  0  0  0  0
  187.4820  176.9150  141.0860 C   0  0  0  0  0  0  0  0  0  0  0  0
  188.2830  177.9860  141.4560 O   0  0  0  0  0  1  0  0  0  0  0  0
  186.7480  177.0030  140.0680 O   0  0  0  0  0  0  0  0  0  0  0  0
  1  5  1  0  0  0  0
  1 10  2  0  0  0  0
  2  8  2  0  0  0  0
  2 15  1  0  0  0  0
  3  7  1  0  0  0  0
  4  8  1  0  0  0  0
  5  9  2  0  0  0  0
  6  4  2  0  0  0  0
  7  2  1  0  0  0  0
  9  3  1  0  0  0  0
  9  6  1  0  0  0  0
 10 25  1  0  0  0  0
 10  3  1  0  0  0  0
 11 12  1  0  0  0  0
 12  1  1  0  0  0  0
 13 12  2  0  0  0  0
 15 17  1  0  0  0  0
 15 14  2  0  0  0  0
 17 18  1  0  0  0  0
 17 16  2  0  0  0  0
 19 20  2  0  0  0  0
 19 22  1  0  0  0  0
 20 23  1  0  0  0  0
 22 24  2  0  0  0  0
 23 21  2  0  0  0  0
 24 21  1  0  0  0  0
 24 18  1  0  0  0  0
 26 27  1  0  0  0  0
 26 25  1  0  0  0  0
 28 26  2  0  0  0  0
M  END
>  <MODEL>
4

>  <REMARK>
 VINA RESULT:      -7.2      2.720      6.041
  Name = 
  7 active torsions:
  status: ('A' for Active; 'I' for Inactive)
    1  A    between atoms: C_2  and  C_25
    2  A    between atoms: C_7  and  C_16
    3  A    between atoms: C_8  and  C_10
    4  A    between atoms: C_10  and  C_22
    5  A    between atoms: N_13  and  C_20
    6  A    between atoms: N_13  and  C_22
    7  A    between atoms: C_25  and  C_28
                            x       y       z     vdW  Elec       q    Type
                         _______ _______ _______ _____ _____    ______ ____

>  <TORSDO>
F 7

$$$$
=
 OpenBabel11062423123D

 28 30  0  0  0  0  0  0  0  0999 V2000
  184.5520  178.0720  142.9330 C   0  0  0  0  0  0  0  0  0  0  0  0
  187.3330  177.2130  146.4250 C   0  0  0  0  0  0  0  0  0  0  0  0
  185.6640  177.2850  144.6680 N   0  0  0  0  0  0  0  0  0  0  0  0
  185.5010  178.6000  147.3680 N   0  0  0  0  0  0  0  0  0  0  0  0
  184.0970  178.7520  144.0090 N   0  0  0  0  0  0  0  0  0  0  0  0
  184.5960  178.6680  146.4340 C   0  0  0  0  0  3  0  0  0  0  0  0
  186.4110  176.4150  145.5580 C   0  0  0  0  0  2  0  0  0  0  0  0
  186.8670  178.1530  147.2610 C   0  0  0  0  0  3  0  0  0  0  0  0
  184.8040  178.2460  145.0440 C   0  0  0  0  0  0  0  0  0  0  0  0
  185.5080  177.1550  143.3410 C   0  0  0  0  0  0  0  0  0  0  0  0
  182.6700  178.1090  141.2570 N   0  0  0  0  0  1  0  0  0  0  0  0
  184.0460  178.2950  141.5680 C   0  0  0  0  0  0  0  0  0  0  0  0
  184.8380  178.6600  140.6610 O   0  0  0  0  0  0  0  0  0  0  0  0
  189.5860  177.9240  146.2590 O   0  0  0  0  0  0  0  0  0  0  0  0
  188.7960  176.9500  146.3960 C   0  0  0  0  0  0  0  0  0  0  0  0
  189.3190  174.9090  147.6300 C   0  0  0  0  0  2  0  0  0  0  0  0
  189.3800  175.5920  146.4900 C   0  0  0  0  0  0  0  0  0  0  0  0
  190.1970  175.1270  145.4010 N   0  0  0  0  0  2  0  0  0  0  0  0
  189.3060  173.7210  142.0330 C   0  0  0  0  0  3  0  0  0  0  0  0
  189.1830  172.3650  142.3470 C   0  0  0  0  0  3  0  0  0  0  0  0
  189.7170  172.8540  144.6580 C   0  0  0  0  0  3  0  0  0  0  0  0
  189.6320  174.6430  143.0320 C   0  0  0  0  0  3  0  0  0  0  0  0
  189.3900  171.9320  143.6590 C   0  0  0  0  0  3  0  0  0  0  0  0
  189.8310  174.2160  144.3550 C   0  0  0  0  0  0  0  0  0  0  0  0
  186.2630  176.1840  142.4880 C   0  0  0  0  0  2  0  0  0  0  0  0
  187.3020  176.8940  141.6890 C   0  0  0  0  0  0  0  0  0  0  0  0
  187.4440  176.6260  140.3350 O   0  0  0  0  0  0  0  0  0  0  0  0
  188.0390  177.7520  142.2400 O   0  0  0  0  0  1  0  0  0  0  0  0
  1 10  2  0  0  0  0
  1  5  1  0  0  0  0
  2  8  2  0  0  0  0
  3  9  1  0  0  0  0
  3  7  1  0  0  0  0
  5  9  2  0  0  0  0
  6  4  2  0  0  0  0
  7  2  1  0  0  0  0
  8  4  1  0  0  0  0
  9  6  1  0  0  0  0
 10  3  1  0  0  0  0
 11 12  1  0  0  0  0
 12  1  1  0  0  0  0
 13 12  2  0  0  0  0
 14 15  2  0  0  0  0
 15  2  1  0  0  0  0
 15 17  1  0  0  0  0
 17 16  2  0  0  0  0
 18 17  1  0  0  0  0
 19 20  2  0  0  0  0
 19 22  1  0  0  0  0
 20 23  1  0  0  0  0
 22 24  2  0  0  0  0
 23 21  2  0  0  0  0
 24 21  1  0  0  0  0
 24 18  1  0  0  0  0
 25 10  1  0  0  0  0
 26 28  1  0  0  0  0
 26 25  1  0  0  0  0
 27 26  2  0  0  0  0
M  END
>  <MODEL>
5

>  <REMARK>
 VINA RESULT:      -7.0      1.833      2.669
  Name = 
  7 active torsions:
  status: ('A' for Active; 'I' for Inactive)
    1  A    between atoms: C_2  and  C_25
    2  A    between atoms: C_7  and  C_16
    3  A    between atoms: C_8  and  C_10
    4  A    between atoms: C_10  and  C_22
    5  A    between atoms: N_13  and  C_20
    6  A    between atoms: N_13  and  C_22
    7  A    between atoms: C_25  and  C_28
                            x       y       z     vdW  Elec       q    Type
                         _______ _______ _______ _____ _____    ______ ____

>  <TORSDO>
F 7

$$$$
=
 OpenBabel11062423123D

 28 30  0  0  0  0  0  0  0  0999 V2000
  193.0370  175.4390  144.8230 C   0  0  0  0  0  0  0  0  0  0  0  0
  188.8880  174.8970  143.0480 C   0  0  0  0  0  0  0  0  0  0  0  0
  190.9450  174.9450  144.3300 N   0  0  0  0  0  0  0  0  0  0  0  0
  190.2600  173.0650  142.0840 N   0  0  0  0  0  0  0  0  0  0  0  0
  193.0920  174.4270  143.9280 N   0  0  0  0  0  0  0  0  0  0  0  0
  191.3820  173.0810  142.7470 C   0  0  0  0  0  3  0  0  0  0  0  0
  189.5050  174.7750  144.4060 C   0  0  0  0  0  2  0  0  0  0  0  0
  189.2270  174.0680  142.0490 C   0  0  0  0  0  3  0  0  0  0  0  0
  191.7980  174.1600  143.6500 C   0  0  0  0  0  0  0  0  0  0  0  0
  191.7120  175.7490  145.0840 C   0  0  0  0  0  0  0  0  0  0  0  0
  195.1780  175.2710  146.1440 N   0  0  0  0  0  1  0  0  0  0  0  0
  194.2370  176.0530  145.4170 C   0  0  0  0  0  0  0  0  0  0  0  0
  194.4400  177.2880  145.2780 O   0  0  0  0  0  0  0  0  0  0  0  0
  186.7120  175.5640  142.3940 O   0  0  0  0  0  0  0  0  0  0  0  0
  187.8510  175.9310  142.7930 C   0  0  0  0  0  0  0  0  0  0  0  0
  188.6550  178.0850  141.9710 C   0  0  0  0  0  2  0  0  0  0  0  0
  188.0940  177.3830  142.9530 C   0  0  0  0  0  0  0  0  0  0  0  0
  187.9180  177.9620  144.2580 N   0  0  0  0  0  2  0  0  0  0  0  0
  185.3590  177.1420  146.8840 C   0  0  0  0  0  3  0  0  0  0  0  0
  184.4010  178.1240  146.6210 C   0  0  0  0  0  3  0  0  0  0  0  0
  185.7660  178.9700  144.8090 C   0  0  0  0  0  3  0  0  0  0  0  0
  186.5200  177.0730  146.1070 C   0  0  0  0  0  3  0  0  0  0  0  0
  184.6050  179.0380  145.5840 C   0  0  0  0  0  3  0  0  0  0  0  0
  186.7270  177.9820  145.0570 C   0  0  0  0  0  0  0  0  0  0  0  0
  191.1860  176.7910  146.0200 C   0  0  0  0  0  2  0  0  0  0  0  0
  191.2220  176.2920  147.4240 C   0  0  0  0  0  0  0  0  0  0  0  0
  190.9300  174.9640  147.7000 O   0  0  0  0  0  0  0  0  0  0  0  0
  191.5350  177.0730  148.3590 O   0  0  0  0  0  1  0  0  0  0  0  0
  1 10  2  0  0  0  0
  1 12  1  0  0  0  0
  2  7  1  0  0  0  0
  3  7  1  0  0  0  0
  3 10  1  0  0  0  0
  4  6  2  0  0  0  0
  5  1  1  0  0  0  0
  6  9  1  0  0  0  0
  8  4  1  0  0  0  0
  8  2  2  0  0  0  0
  9  5  2  0  0  0  0
  9  3  1  0  0  0  0
 10 25  1  0  0  0  0
 12 11  1  0  0  0  0
 13 12  2  0  0  0  0
 14 15  2  0  0  0  0
 15 17  1  0  0  0  0
 15  2  1  0  0  0  0
 16 17  2  0  0  0  0
 17 18  1  0  0  0  0
 18 24  1  0  0  0  0
 20 19  1  0  0  0  0
 21 24  2  0  0  0  0
 21 23  1  0  0  0  0
 22 19  2  0  0  0  0
 23 20  2  0  0  0  0
 24 22  1  0  0  0  0
 25 26  1  0  0  0  0
 26 27  2  0  0  0  0
 26 28  1  0  0  0  0
M  END
>  <MODEL>
6

>  <REMARK>
 VINA RESULT:      -6.9      2.523      7.616
  Name = 
  7 active torsions:
  status: ('A' for Active; 'I' for Inactive)
    1  A    between atoms: C_2  and  C_25
    2  A    between atoms: C_7  and  C_16
    3  A    between atoms: C_8  and  C_10
    4  A    between atoms: C_10  and  C_22
    5  A    between atoms: N_13  and  C_20
    6  A    between atoms: N_13  and  C_22
    7  A    between atoms: C_25  and  C_28
                            x       y       z     vdW  Elec       q    Type
                         _______ _______ _______ _____ _____    ______ ____

>  <TORSDO>
F 7

$$$$
=
 OpenBabel11062423123D

 28 30  0  0  0  0  0  0  0  0999 V2000
  192.2670  175.0510  144.1070 C   0  0  0  0  0  0  0  0  0  0  0  0
  188.2390  175.8970  142.1780 C   0  0  0  0  0  0  0  0  0  0  0  0
  190.1490  175.2750  143.5370 N   0  0  0  0  0  0  0  0  0  0  0  0
  188.9520  173.6960  141.2740 N   0  0  0  0  0  0  0  0  0  0  0  0
  192.0110  174.0640  143.2190 N   0  0  0  0  0  0  0  0  0  0  0  0
  189.9910  173.3470  141.9790 C   0  0  0  0  0  3  0  0  0  0  0  0
  188.7330  175.5970  143.5590 C   0  0  0  0  0  2  0  0  0  0  0  0
  188.3160  174.9860  141.1960 C   0  0  0  0  0  3  0  0  0  0  0  0
  190.7120  174.2400  142.8930 C   0  0  0  0  0  0  0  0  0  0  0  0
  191.1140  175.7890  144.3160 C   0  0  0  0  0  0  0  0  0  0  0  0
  194.0120  174.3890  145.8020 N   0  0  0  0  0  1  0  0  0  0  0  0
  193.5820  175.2380  144.7440 C   0  0  0  0  0  0  0  0  0  0  0  0
  194.3420  176.1590  144.3460 O   0  0  0  0  0  0  0  0  0  0  0  0
  188.3540  178.2380  141.8380 O   0  0  0  0  0  0  0  0  0  0  0  0
  187.6180  177.2140  141.8800 C   0  0  0  0  0  0  0  0  0  0  0  0
  185.7160  177.9200  140.5210 C   0  0  0  0  0  2  0  0  0  0  0  0
  186.1640  177.3960  141.6590 C   0  0  0  0  0  0  0  0  0  0  0  0
  185.2780  177.2030  142.7750 N   0  0  0  0  0  2  0  0  0  0  0  0
  185.9730  177.2090  146.4670 C   0  0  0  0  0  3  0  0  0  0  0  0
  185.8730  178.5740  146.7430 C   0  0  0  0  0  3  0  0  0  0  0  0
  185.3740  179.0070  144.4130 C   0  0  0  0  0  3  0  0  0  0  0  0
  185.7710  176.7420  145.1650 C   0  0  0  0  0  3  0  0  0  0  0  0
  185.5740  179.4730  145.7150 C   0  0  0  0  0  3  0  0  0  0  0  0
  185.4620  177.6390  144.1290 C   0  0  0  0  0  0  0  0  0  0  0  0
  190.9350  176.9630  145.2280 C   0  0  0  0  0  2  0  0  0  0  0  0
  190.6730  176.5020  146.6210 C   0  0  0  0  0  0  0  0  0  0  0  0
  191.7240  176.3590  147.5170 O   0  0  0  0  0  1  0  0  0  0  0  0
  189.4960  176.2600  146.9910 O   0  0  0  0  0  0  0  0  0  0  0  0
  1 10  2  0  0  0  0
  1 12  1  0  0  0  0
  2  7  1  0  0  0  0
  3  7  1  0  0  0  0
  3 10  1  0  0  0  0
  4  6  2  0  0  0  0
  5  1  1  0  0  0  0
  6  9  1  0  0  0  0
  8  4  1  0  0  0  0
  8  2  2  0  0  0  0
  9  5  2  0  0  0  0
  9  3  1  0  0  0  0
 10 25  1  0  0  0  0
 12 11  1  0  0  0  0
 13 12  2  0  0  0  0
 14 15  2  0  0  0  0
 15  2  1  0  0  0  0
 16 17  2  0  0  0  0
 17 15  1  0  0  0  0
 17 18  1  0  0  0  0
 18 24  1  0  0  0  0
 19 20  1  0  0  0  0
 21 23  1  0  0  0  0
 22 19  2  0  0  0  0
 23 20  2  0  0  0  0
 24 21  2  0  0  0  0
 24 22  1  0  0  0  0
 25 26  1  0  0  0  0
 26 28  2  0  0  0  0
 26 27  1  0  0  0  0
M  END
>  <MODEL>
7

>  <REMARK>
 VINA RESULT:      -6.8      2.374      7.322
  Name = 
  7 active torsions:
  status: ('A' for Active; 'I' for Inactive)
    1  A    between atoms: C_2  and  C_25
    2  A    between atoms: C_7  and  C_16
    3  A    between atoms: C_8  and  C_10
    4  A    between atoms: C_10  and  C_22
    5  A    between atoms: N_13  and  C_20
    6  A    between atoms: N_13  and  C_22
    7  A    between atoms: C_25  and  C_28
                            x       y       z     vdW  Elec       q    Type
                         _______ _______ _______ _____ _____    ______ ____

>  <TORSDO>
F 7

$$$$
=
 OpenBabel11062423123D

 28 30  0  0  0  0  0  0  0  0999 V2000
  193.3790  174.7140  143.7400 C   0  0  0  0  0  0  0  0  0  0  0  0
  188.8710  174.6820  143.1620 C   0  0  0  0  0  0  0  0  0  0  0  0
  191.1850  174.5330  143.8700 N   0  0  0  0  0  0  0  0  0  0  0  0
  189.6710  172.5300  142.2150 N   0  0  0  0  0  0  0  0  0  0  0  0
  193.0530  173.6020  143.0450 N   0  0  0  0  0  0  0  0  0  0  0  0
  190.9210  172.4340  142.5680 C   0  0  0  0  0  3  0  0  0  0  0  0
  189.8090  174.6290  144.3260 C   0  0  0  0  0  2  0  0  0  0  0  0
  188.8120  173.6850  142.2660 C   0  0  0  0  0  3  0  0  0  0  0  0
  191.7070  173.5320  143.1440 C   0  0  0  0  0  0  0  0  0  0  0  0
  192.2280  175.2810  144.2640 C   0  0  0  0  0  0  0  0  0  0  0  0
  195.3580  176.0730  142.9700 N   0  0  0  0  0  1  0  0  0  0  0  0
  194.7660  175.1800  143.9070 C   0  0  0  0  0  0  0  0  0  0  0  0
  195.4410  174.7890  144.8950 O   0  0  0  0  0  0  0  0  0  0  0  0
  186.7810  175.6320  142.5790 O   0  0  0  0  0  0  0  0  0  0  0  0
  187.9530  175.8400  142.9990 C   0  0  0  0  0  0  0  0  0  0  0  0
  189.1980  177.8710  142.4630 C   0  0  0  0  0  2  0  0  0  0  0  0
  188.3520  177.2390  143.2740 C   0  0  0  0  0  0  0  0  0  0  0  0
  187.9860  177.8150  144.5400 N   0  0  0  0  0  2  0  0  0  0  0  0
  184.5500  179.2830  144.9390 C   0  0  0  0  0  3  0  0  0  0  0  0
  184.0700  178.5200  146.0060 C   0  0  0  0  0  3  0  0  0  0  0  0
  186.1720  177.3210  146.0940 C   0  0  0  0  0  3  0  0  0  0  0  0
  185.8420  179.0650  144.4510 C   0  0  0  0  0  3  0  0  0  0  0  0
  184.8800  177.5390  146.5830 C   0  0  0  0  0  3  0  0  0  0  0  0
  186.6660  178.0870  145.0320 C   0  0  0  0  0  0  0  0  0  0  0  0
  192.1210  176.5110  145.1100 C   0  0  0  0  0  2  0  0  0  0  0  0
  192.5690  176.2230  146.5020 C   0  0  0  0  0  0  0  0  0  0  0  0
  191.8380  175.3600  147.3060 O   0  0  0  0  0  1  0  0  0  0  0  0
  193.6230  176.7500  146.9420 O   0  0  0  0  0  0  0  0  0  0  0  0
  1 12  1  0  0  0  0
  1 10  2  0  0  0  0
  2  7  1  0  0  0  0
  3 10  1  0  0  0  0
  3  7  1  0  0  0  0
  4  8  1  0  0  0  0
  4  6  2  0  0  0  0
  5  9  2  0  0  0  0
  5  1  1  0  0  0  0
  6  9  1  0  0  0  0
  8  2  2  0  0  0  0
  9  3  1  0  0  0  0
 10 25  1  0  0  0  0
 11 12  1  0  0  0  0
 12 13  2  0  0  0  0
 14 15  2  0  0  0  0
 15  2  1  0  0  0  0
 15 17  1  0  0  0  0
 16 17  2  0  0  0  0
 17 18  1  0  0  0  0
 18 24  1  0  0  0  0
 19 20  1  0  0  0  0
 20 23  2  0  0  0  0
 21 23  1  0  0  0  0
 22 19  2  0  0  0  0
 22 24  1  0  0  0  0
 24 21  2  0  0  0  0
 25 26  1  0  0  0  0
 26 28  2  0  0  0  0
 26 27  1  0  0  0  0
M  END
>  <MODEL>
8

>  <REMARK>
 VINA RESULT:      -6.7      2.976      7.769
  Name = 
  7 active torsions:
  status: ('A' for Active; 'I' for Inactive)
    1  A    between atoms: C_2  and  C_25
    2  A    between atoms: C_7  and  C_16
    3  A    between atoms: C_8  and  C_10
    4  A    between atoms: C_10  and  C_22
    5  A    between atoms: N_13  and  C_20
    6  A    between atoms: N_13  and  C_22
    7  A    between atoms: C_25  and  C_28
                            x       y       z     vdW  Elec       q    Type
                         _______ _______ _______ _____ _____    ______ ____

>  <TORSDO>
F 7

$$$$
=
 OpenBabel11062423123D

 28 30  0  0  0  0  0  0  0  0999 V2000
  194.8050  173.8030  145.3000 C   0  0  0  0  0  0  0  0  0  0  0  0
  190.3800  174.5460  144.5720 C   0  0  0  0  0  0  0  0  0  0  0  0
  192.6120  174.0290  145.3650 N   0  0  0  0  0  0  0  0  0  0  0  0
  190.7960  172.2290  143.7820 N   0  0  0  0  0  0  0  0  0  0  0  0
  194.2970  172.7250  144.6610 N   0  0  0  0  0  0  0  0  0  0  0  0
  192.0000  171.9320  144.1830 C   0  0  0  0  0  3  0  0  0  0  0  0
  191.2670  174.4000  145.7680 C   0  0  0  0  0  2  0  0  0  0  0  0
  190.1610  173.5200  143.7350 C   0  0  0  0  0  3  0  0  0  0  0  0
  192.9600  172.9050  144.7180 C   0  0  0  0  0  0  0  0  0  0  0  0
  193.7640  174.6010  145.7490 C   0  0  0  0  0  0  0  0  0  0  0  0
  197.0240  174.6900  144.4960 N   0  0  0  0  0  1  0  0  0  0  0  0
  196.2490  174.0210  145.4860 C   0  0  0  0  0  0  0  0  0  0  0  0
  196.8110  173.6160  146.5370 O   0  0  0  0  0  0  0  0  0  0  0  0
  189.6340  176.2640  143.1220 O   0  0  0  0  0  0  0  0  0  0  0  0
  189.6920  175.8380  144.3080 C   0  0  0  0  0  0  0  0  0  0  0  0
  189.8500  177.5120  146.0780 C   0  0  0  0  0  2  0  0  0  0  0  0
  189.0940  176.6720  145.3760 C   0  0  0  0  0  0  0  0  0  0  0  0
  187.7410  176.3950  145.7780 N   0  0  0  0  0  2  0  0  0  0  0  0
  184.4400  178.0330  146.5060 C   0  0  0  0  0  3  0  0  0  0  0  0
  184.4510  179.0610  145.5590 C   0  0  0  0  0  3  0  0  0  0  0  0
  186.6140  178.3090  144.7710 C   0  0  0  0  0  3  0  0  0  0  0  0
  185.5150  177.1430  146.5830 C   0  0  0  0  0  3  0  0  0  0  0  0
  185.5390  179.1990  144.6930 C   0  0  0  0  0  3  0  0  0  0  0  0
  186.6070  177.2700  145.7090 C   0  0  0  0  0  0  0  0  0  0  0  0
  193.8630  175.8820  146.5170 C   0  0  0  0  0  2  0  0  0  0  0  0
  193.9270  177.0420  145.5830 C   0  0  0  0  0  0  0  0  0  0  0  0
  193.0320  177.1370  144.5270 O   0  0  0  0  0  0  0  0  0  0  0  0
  194.7830  177.9460  145.7640 O   0  0  0  0  0  1  0  0  0  0  0  0
  1 12  1  0  0  0  0
  1 10  2  0  0  0  0
  2  7  1  0  0  0  0
  3 10  1  0  0  0  0
  3  7  1  0  0  0  0
  4  6  2  0  0  0  0
  5  9  2  0  0  0  0
  5  1  1  0  0  0  0
  6  9  1  0  0  0  0
  8  4  1  0  0  0  0
  8  2  2  0  0  0  0
  9  3  1  0  0  0  0
 10 25  1  0  0  0  0
 11 12  1  0  0  0  0
 12 13  2  0  0  0  0
 14 15  2  0  0  0  0
 15  2  1  0  0  0  0
 15 17  1  0  0  0  0
 17 18  1  0  0  0  0
 17 16  2  0  0  0  0
 19 22  1  0  0  0  0
 20 19  2  0  0  0  0
 21 24  1  0  0  0  0
 23 21  2  0  0  0  0
 23 20  1  0  0  0  0
 24 18  1  0  0  0  0
 24 22  2  0  0  0  0
 26 28  1  0  0  0  0
 26 25  1  0  0  0  0
 27 26  2  0  0  0  0
M  END
>  <MODEL>
9

>  <REMARK>
 VINA RESULT:      -6.7      3.483      8.386
  Name = 
  7 active torsions:
  status: ('A' for Active; 'I' for Inactive)
    1  A    between atoms: C_2  and  C_25
    2  A    between atoms: C_7  and  C_16
    3  A    between atoms: C_8  and  C_10
    4  A    between atoms: C_10  and  C_22
    5  A    between atoms: N_13  and  C_20
    6  A    between atoms: N_13  and  C_22
    7  A    between atoms: C_25  and  C_28
                            x       y       z     vdW  Elec       q    Type
                         _______ _______ _______ _____ _____    ______ ____

>  <TORSDO>
F 7

$$$$
