=
 OpenBabel11062418213D

 49 54  0  0  1  0  0  0  0  0999 V2000
  195.6660  171.0960  139.9280 C   0  0  0  0  0  0  0  0  0  0  0  0
  189.1790  172.7900  140.0630 C   0  0  0  0  0  2  0  0  0  0  0  0
  196.8310  171.8560  139.3750 C   0  0  0  0  0  2  0  0  0  0  0  0
  188.4940  172.7390  137.2420 F   0  0  0  0  0  0  0  0  0  0  0  0
  193.8380  172.2920  138.6010 C   0  0  0  0  0  0  0  0  0  0  0  0
  190.7010  172.5510  140.0530 C   0  0  1  0  0  3  0  0  0  0  0  0
  195.8500  169.9850  140.3990 O   0  0  0  0  0  0  0  0  0  0  0  0
  190.6100  173.5150  137.6980 O   0  0  0  0  0  0  0  0  0  0  0  0
  193.9890  172.5590  141.1140 C   0  0  0  0  0  2  0  0  0  0  0  0
  192.6140  172.2420  141.7080 C   0  0  1  0  0  3  0  0  0  0  0  0
  191.3130  172.8410  138.7030 C   0  0  0  0  0  0  0  0  0  0  0  0
  192.7510  172.1540  143.2220 C   0  0  0  0  0  1  0  0  0  0  0  0
  196.8270  171.7670  137.8790 C   0  0  0  0  0  0  0  0  0  0  0  0
  189.2120  173.7890  137.7860 C   0  0  2  0  0  3  0  0  0  0  0  0
  191.5130  173.2160  141.2030 C   0  0  2  0  0  3  0  0  0  0  0  0
  188.7920  174.0110  139.2340 C   0  0  0  0  0  2  0  0  0  0  0  0
  194.2750  171.6640  139.9050 C   0  0  2  0  0  3  0  0  0  0  0  0
  195.8570  172.3450  137.1570 C   0  0  0  0  0  3  0  0  0  0  0  0
  194.7570  173.1500  137.7830 C   0  0  0  0  0  2  0  0  0  0  0  0
  192.5690  172.5580  138.5390 C   0  0  0  0  0  0  0  0  0  0  0  0
  190.5240  175.1100  142.4330 C   0  0  0  0  0  3  0  0  0  0  0  0
  190.6670  173.7960  142.3040 C   0  0  0  0  0  3  0  0  0  0  0  0
  190.5160  176.8250  147.5160 C   0  0  0  0  0  2  0  0  0  0  0  0
  189.1190  176.8070  145.4830 C   0  0  0  0  0  0  0  0  0  0  0  0
  191.4420  176.0620  145.2820 C   0  0  0  0  0  3  0  0  0  0  0  0
  188.0360  176.7780  144.6980 C   0  0  0  0  0  0  0  0  0  0  0  0
  189.3460  177.5040  146.7870 C   0  0  0  0  0  2  0  0  0  0  0  0
  188.4320  176.1380  143.4320 C   0  0  0  0  0  0  0  0  0  0  0  0
  186.8520  178.8860  145.2910 C   0  0  0  0  0  1  0  0  0  0  0  0
  186.6630  177.4130  144.9200 C   0  0  1  0  0  0  0  0  0  0  0  0
  189.7080  175.7380  143.4870 C   0  0  0  0  0  0  0  0  0  0  0  0
  191.7580  176.7110  146.6090 C   0  0  0  0  0  2  0  0  0  0  0  0
  185.8090  177.3020  143.6110 C   0  0  2  0  0  3  0  0  0  0  0  0
  187.5250  176.1020  142.2470 C   0  0  0  0  0  2  0  0  0  0  0  0
  190.2110  176.1620  144.7820 C   0  0  0  0  0  0  0  0  0  0  0  0
  186.6130  177.3210  142.3050 C   0  0  0  0  0  2  0  0  0  0  0  0
  185.8640  176.6620  146.0220 C   0  0  2  0  0  3  0  0  0  0  0  0
  184.8420  175.8790  145.4740 O   0  0  0  0  0  1  0  0  0  0  0  0
  185.9050  177.5920  148.2340 O   0  0  0  0  0  1  0  0  0  0  0  0
  185.3070  177.5070  147.1270 C   0  0  0  0  0  0  0  0  0  0  0  0
  184.1120  178.1890  146.9320 O   0  0  0  0  0  0  0  0  0  0  0  0
  184.7850  178.2580  143.5600 O   0  0  0  0  0  0  0  0  0  0  0  0
  183.0770  178.1770  141.9060 C   0  0  0  0  0  1  0  0  0  0  0  0
  184.5370  178.4570  142.2000 C   0  0  0  0  0  2  0  0  0  0  0  0
  197.8390  170.8980  137.2060 C   0  0  0  0  0  2  0  0  0  0  0  0
  195.5210  169.2000  137.0600 O   0  0  0  0  0  1  0  0  0  0  0  0
  197.7650  168.3270  138.0790 O   0  0  0  0  0  1  0  0  0  0  0  0
  197.2100  169.2050  136.9790 P   0  0  0  0  0  0  0  0  0  0  0  0
  197.7070  168.6090  135.4760 O   0  0  0  0  0  0  0  0  0  0  0  0
  1  7  2  0  0  0  0
  3  1  1  0  0  0  0
  5 17  1  0  0  0  0
  6  2  1  6  0  0  0
  6 15  1  0  0  0  0
  8 14  1  0  0  0  0
  8 11  1  0  0  0  0
  9 10  1  0  0  0  0
 10 12  1  1  0  0  0
 11  6  1  0  0  0  0
 13  3  1  0  0  0  0
 14  4  1  1  0  0  0
 14 16  1  0  0  0  0
 15 10  1  0  0  0  0
 15 22  1  1  0  0  0
 16  2  1  0  0  0  0
 17  1  1  0  0  0  0
 17  9  1  1  0  0  0
 18 19  1  0  0  0  0
 18 13  2  0  0  0  0
 19  5  1  0  0  0  0
 20  5  2  0  0  0  0
 20 11  2  0  0  0  0
 21 31  1  0  0  0  0
 22 21  2  0  0  0  0
 24 27  1  0  0  0  0
 25 32  1  0  0  0  0
 26 30  1  0  0  0  0
 26 24  2  0  0  0  0
 27 23  1  0  0  0  0
 28 31  2  0  0  0  0
 28 26  1  0  0  0  0
 30 29  1  1  0  0  0
 30 37  1  0  0  0  0
 31 35  1  0  0  0  0
 32 23  1  0  0  0  0
 33 42  1  6  0  0  0
 33 30  1  0  0  0  0
 34 36  1  0  0  0  0
 34 28  1  0  0  0  0
 35 25  2  0  0  0  0
 35 24  1  0  0  0  0
 36 33  1  0  0  0  0
 37 38  1  6  0  0  0
 37 40  1  0  0  0  0
 40 39  1  0  0  0  0
 41 40  2  0  0  0  0
 43 44  1  0  0  0  0
 44 42  1  0  0  0  0
 45 13  1  0  0  0  0
 48 46  1  0  0  0  0
 48 45  1  0  0  0  0
 48 47  1  0  0  0  0
 49 48  2  0  0  0  0
M  END
>  <MODEL>
1

>  <REMARK>
 VINA RESULT:      -6.4      0.000      0.000
  Name = 
  8 active torsions:
  status: ('A' for Active; 'I' for Inactive)
    1  A    between atoms: C_2  and  C_35
    2  A    between atoms: C_2  and  P_41
    3  A    between atoms: C_10  and  C_24
    4  A    between atoms: C_10  and  C_30
    5  A    between atoms: O_13  and  C_16
    6  A    between atoms: O_13  and  C_40
    7  A    between atoms: C_21  and  C_31
    8  A    between atoms: C_37  and  C_49
                            x       y       z     vdW  Elec       q    Type
                         _______ _______ _______ _____ _____    ______ ____

>  <TORSDO>
F 8

$$$$
=
 OpenBabel11062418213D

 49 54  0  0  1  0  0  0  0  0999 V2000
  187.2230  176.3540  143.0160 C   0  0  0  0  0  0  0  0  0  0  0  0
  192.7700  172.6150  143.4720 C   0  0  0  0  0  2  0  0  0  0  0  0
  187.0710  177.8400  143.1250 C   0  0  0  0  0  2  0  0  0  0  0  0
  193.4990  172.9710  146.2590 F   0  0  0  0  0  0  0  0  0  0  0  0
  189.4680  176.1670  144.2230 C   0  0  0  0  0  0  0  0  0  0  0  0
  191.5840  173.5810  143.2980 C   0  0  1  0  0  3  0  0  0  0  0  0
  186.2270  175.6640  142.8620 O   0  0  0  0  0  0  0  0  0  0  0  0
  192.6160  174.8420  145.2550 O   0  0  0  0  0  0  0  0  0  0  0  0
  189.2880  175.6490  141.7510 C   0  0  0  0  0  2  0  0  0  0  0  0
  189.9020  174.2670  141.5100 C   0  0  1  0  0  3  0  0  0  0  0  0
  191.5400  174.6280  144.3850 C   0  0  0  0  0  0  0  0  0  0  0  0
  189.5790  173.8380  140.0860 C   0  0  0  0  0  1  0  0  0  0  0  0
  187.1740  178.2520  144.5620 C   0  0  0  0  0  0  0  0  0  0  0  0
  193.7380  173.9620  145.3230 C   0  0  2  0  0  3  0  0  0  0  0  0
  191.4090  174.2170  141.8870 C   0  0  2  0  0  3  0  0  0  0  0  0
  194.0220  173.3360  143.9630 C   0  0  0  0  0  2  0  0  0  0  0  0
  188.5690  175.6930  143.1030 C   0  0  2  0  0  3  0  0  0  0  0  0
  188.3240  178.1240  145.2360 C   0  0  0  0  0  3  0  0  0  0  0  0
  189.5810  177.6160  144.5950 C   0  0  0  0  0  2  0  0  0  0  0  0
  190.5140  175.4230  144.4150 C   0  0  0  0  0  0  0  0  0  0  0  0
  193.1530  174.3470  140.1500 C   0  0  0  0  0  3  0  0  0  0  0  0
  192.2780  173.6060  140.8210 C   0  0  0  0  0  3  0  0  0  0  0  0
  197.9400  174.8420  137.7790 C   0  0  0  0  0  2  0  0  0  0  0  0
  195.9480  173.3870  137.8210 C   0  0  0  0  0  0  0  0  0  0  0  0
  196.1360  175.1210  139.5380 C   0  0  0  0  0  3  0  0  0  0  0  0
  194.9870  172.5540  137.4060 C   0  0  0  0  0  0  0  0  0  0  0  0
  197.4000  173.4380  137.4630 C   0  0  0  0  0  2  0  0  0  0  0  0
  193.8020  172.8040  138.2440 C   0  0  0  0  0  0  0  0  0  0  0  0
  196.2530  170.5180  136.7390 C   0  0  0  0  0  1  0  0  0  0  0  0
  195.0660  171.4170  136.3870 C   0  0  1  0  0  0  0  0  0  0  0  0
  194.0330  173.8080  139.0980 C   0  0  0  0  0  0  0  0  0  0  0  0
  197.6060  175.2640  139.2240 C   0  0  0  0  0  2  0  0  0  0  0  0
  193.7400  170.5810  136.4210 C   0  0  2  0  0  3  0  0  0  0  0  0
  192.5960  171.9270  138.1890 C   0  0  0  0  0  2  0  0  0  0  0  0
  195.4120  174.2120  138.8850 C   0  0  0  0  0  0  0  0  0  0  0  0
  193.0400  170.5270  137.7850 C   0  0  0  0  0  2  0  0  0  0  0  0
  195.1940  171.9630  134.9370 C   0  0  2  0  0  3  0  0  0  0  0  0
  196.5270  171.9950  134.5140 O   0  0  0  0  0  1  0  0  0  0  0  0
  193.3020  173.3930  134.5740 O   0  0  0  0  0  1  0  0  0  0  0  0
  194.5550  173.2920  134.6720 C   0  0  0  0  0  0  0  0  0  0  0  0
  195.3540  174.4180  134.5200 O   0  0  0  0  0  0  0  0  0  0  0  0
  193.9140  169.2850  135.9180 O   0  0  0  0  0  0  0  0  0  0  0  0
  191.9410  168.8210  134.6720 C   0  0  0  0  0  1  0  0  0  0  0  0
  192.6550  168.6860  136.0020 C   0  0  0  0  0  2  0  0  0  0  0  0
  185.9320  178.6730  145.2810 C   0  0  0  0  0  2  0  0  0  0  0  0
  186.4790  176.3390  146.8730 O   0  0  0  0  0  0  0  0  0  0  0  0
  184.3730  177.8200  147.3350 O   0  0  0  0  0  1  0  0  0  0  0  0
  185.8270  177.9000  146.9250 P   0  0  0  0  0  0  0  0  0  0  0  0
  186.6800  178.8330  148.0490 O   0  0  0  0  0  1  0  0  0  0  0  0
  1 17  1  0  0  0  0
  1  3  1  0  0  0  0
  2 16  1  0  0  0  0
  3 13  1  0  0  0  0
  5 20  2  0  0  0  0
  5 19  1  0  0  0  0
  6  2  1  6  0  0  0
  6 11  1  0  0  0  0
  7  1  2  0  0  0  0
  8 14  1  0  0  0  0
 10 12  1  6  0  0  0
 10  9  1  0  0  0  0
 10 15  1  0  0  0  0
 11 20  2  0  0  0  0
 11  8  1  0  0  0  0
 13 18  2  0  0  0  0
 13 45  1  0  0  0  0
 14  4  1  1  0  0  0
 15 22  1  6  0  0  0
 15  6  1  0  0  0  0
 16 14  1  0  0  0  0
 17  9  1  6  0  0  0
 17  5  1  0  0  0  0
 19 18  1  0  0  0  0
 21 22  2  0  0  0  0
 23 32  1  0  0  0  0
 24 35  1  0  0  0  0
 26 24  2  0  0  0  0
 26 28  1  0  0  0  0
 27 23  1  0  0  0  0
 27 24  1  0  0  0  0
 28 31  2  0  0  0  0
 30 33  1  0  0  0  0
 30 29  1  1  0  0  0
 30 26  1  0  0  0  0
 31 21  1  0  0  0  0
 32 25  1  0  0  0  0
 33 42  1  1  0  0  0
 33 36  1  0  0  0  0
 34 28  1  0  0  0  0
 35 31  1  0  0  0  0
 35 25  2  0  0  0  0
 36 34  1  0  0  0  0
 37 38  1  1  0  0  0
 37 30  1  0  0  0  0
 39 40  1  0  0  0  0
 40 37  1  0  0  0  0
 41 40  2  0  0  0  0
 42 44  1  0  0  0  0
 43 44  1  0  0  0  0
 45 48  1  0  0  0  0
 46 48  2  0  0  0  0
 48 47  1  0  0  0  0
 48 49  1  0  0  0  0
M  END
>  <MODEL>
2

>  <REMARK>
 VINA RESULT:      -5.9      3.820     11.564
  Name = 
  8 active torsions:
  status: ('A' for Active; 'I' for Inactive)
    1  A    between atoms: C_2  and  C_35
    2  A    between atoms: C_2  and  P_41
    3  A    between atoms: C_10  and  C_24
    4  A    between atoms: C_10  and  C_30
    5  A    between atoms: O_13  and  C_16
    6  A    between atoms: O_13  and  C_40
    7  A    between atoms: C_21  and  C_31
    8  A    between atoms: C_37  and  C_49
                            x       y       z     vdW  Elec       q    Type
                         _______ _______ _______ _____ _____    ______ ____

>  <TORSDO>
F 8

$$$$
=
 OpenBabel11062418213D

 49 54  0  0  1  0  0  0  0  0999 V2000
  189.2960  174.9150  145.7440 C   0  0  0  0  0  0  0  0  0  0  0  0
  195.2240  173.7330  142.8410 C   0  0  0  0  0  2  0  0  0  0  0  0
  188.3090  176.0060  145.4680 C   0  0  0  0  0  2  0  0  0  0  0  0
  196.7790  176.0250  143.7110 F   0  0  0  0  0  0  0  0  0  0  0  0
  191.3420  176.0650  144.7310 C   0  0  0  0  0  0  0  0  0  0  0  0
  193.8130  174.0510  143.3680 C   0  0  1  0  0  3  0  0  0  0  0  0
  189.0690  174.1190  146.6410 O   0  0  0  0  0  0  0  0  0  0  0  0
  194.5700  176.4810  143.2680 O   0  0  0  0  0  0  0  0  0  0  0  0
  190.3710  173.9870  143.6600 C   0  0  0  0  0  2  0  0  0  0  0  0
  191.5050  172.9760  143.4730 C   0  0  1  0  0  3  0  0  0  0  0  0
  193.6430  175.5180  143.6850 C   0  0  0  0  0  0  0  0  0  0  0  0
  190.8980  171.6400  143.0660 C   0  0  0  0  0  1  0  0  0  0  0  0
  188.8000  177.2920  146.0580 C   0  0  0  0  0  0  0  0  0  0  0  0
  195.8360  176.1390  142.7050 C   0  0  2  0  0  3  0  0  0  0  0  0
  192.6200  173.5070  142.5290 C   0  0  2  0  0  3  0  0  0  0  0  0
  195.7490  174.8330  141.9230 C   0  0  0  0  0  2  0  0  0  0  0  0
  190.5660  174.7860  144.9510 C   0  0  2  0  0  3  0  0  0  0  0  0
  189.8950  177.8970  145.5790 C   0  0  0  0  0  3  0  0  0  0  0  0
  190.6620  177.3630  144.4060 C   0  0  0  0  0  2  0  0  0  0  0  0
  192.5350  175.8870  144.2530 C   0  0  0  0  0  0  0  0  0  0  0  0
  192.8050  172.8130  140.1710 C   0  0  0  0  0  3  0  0  0  0  0  0
  193.0150  172.5330  141.4520 C   0  0  0  0  0  3  0  0  0  0  0  0
  191.1010  168.7550  137.1040 C   0  0  0  0  0  2  0  0  0  0  0  0
  192.9830  170.3300  137.3490 C   0  0  0  0  0  0  0  0  0  0  0  0
  190.9810  170.7200  138.7020 C   0  0  0  0  0  3  0  0  0  0  0  0
  194.2270  170.8220  137.3210 C   0  0  0  0  0  0  0  0  0  0  0  0
  192.2830  169.4240  136.3860 C   0  0  0  0  0  2  0  0  0  0  0  0
  194.3180  171.8370  138.3840 C   0  0  0  0  0  0  0  0  0  0  0  0
  194.7980  170.7770  134.8990 C   0  0  0  0  0  1  0  0  0  0  0  0
  195.3460  170.5660  136.3120 C   0  0  1  0  0  0  0  0  0  0  0  0
  193.1710  171.9030  139.0710 C   0  0  0  0  0  0  0  0  0  0  0  0
  190.1990  169.7930  137.8000 C   0  0  0  0  0  2  0  0  0  0  0  0
  196.5340  171.5550  136.5730 C   0  0  2  0  0  3  0  0  0  0  0  0
  195.5070  172.7290  138.5260 C   0  0  0  0  0  2  0  0  0  0  0  0
  192.2630  170.9660  138.4340 C   0  0  0  0  0  0  0  0  0  0  0  0
  196.1300  172.9180  137.1490 C   0  0  0  0  0  2  0  0  0  0  0  0
  195.9340  169.1350  136.4700 C   0  0  2  0  0  3  0  0  0  0  0  0
  195.0880  168.1660  135.9190 O   0  0  0  0  0  1  0  0  0  0  0  0
  195.4510  168.2970  138.6660 O   0  0  0  0  0  1  0  0  0  0  0  0
  196.3190  168.7280  137.8590 C   0  0  0  0  0  0  0  0  0  0  0  0
  197.6430  168.8420  138.2640 O   0  0  0  0  0  0  0  0  0  0  0  0
  197.3400  171.7300  135.4410 O   0  0  0  0  0  0  0  0  0  0  0  0
  197.4580  173.9230  134.5260 C   0  0  0  0  0  1  0  0  0  0  0  0
  197.9410  172.9800  135.6090 C   0  0  0  0  0  2  0  0  0  0  0  0
  188.1370  177.8200  147.2890 C   0  0  0  0  0  2  0  0  0  0  0  0
  185.9140  179.4920  148.0240 O   0  0  0  0  0  1  0  0  0  0  0  0
  185.5360  177.0440  147.1840 O   0  0  0  0  0  1  0  0  0  0  0  0
  186.4030  178.2650  146.9670 P   0  0  0  0  0  0  0  0  0  0  0  0
  186.2370  178.7950  145.3690 O   0  0  0  0  0  0  0  0  0  0  0  0
  1  7  2  0  0  0  0
  3  1  1  0  0  0  0
  3 13  1  0  0  0  0
  5 17  1  0  0  0  0
  6  2  1  6  0  0  0
  6 11  1  0  0  0  0
  8 11  1  0  0  0  0
 10 12  1  6  0  0  0
 10  9  1  0  0  0  0
 11 20  2  0  0  0  0
 13 45  1  0  0  0  0
 14  8  1  0  0  0  0
 14  4  1  1  0  0  0
 15 22  1  6  0  0  0
 15  6  1  0  0  0  0
 15 10  1  0  0  0  0
 16 14  1  0  0  0  0
 16  2  1  0  0  0  0
 17  9  1  6  0  0  0
 17  1  1  0  0  0  0
 18 13  2  0  0  0  0
 19  5  1  0  0  0  0
 19 18  1  0  0  0  0
 20  5  2  0  0  0  0
 21 22  2  0  0  0  0
 23 32  1  0  0  0  0
 24 35  1  0  0  0  0
 26 24  2  0  0  0  0
 26 28  1  0  0  0  0
 27 23  1  0  0  0  0
 27 24  1  0  0  0  0
 28 34  1  0  0  0  0
 28 31  2  0  0  0  0
 30 29  1  6  0  0  0
 30 37  1  0  0  0  0
 30 33  1  0  0  0  0
 30 26  1  0  0  0  0
 31 21  1  0  0  0  0
 32 25  1  0  0  0  0
 33 42  1  6  0  0  0
 33 36  1  0  0  0  0
 35 25  2  0  0  0  0
 35 31  1  0  0  0  0
 36 34  1  0  0  0  0
 37 38  1  1  0  0  0
 37 40  1  0  0  0  0
 40 41  2  0  0  0  0
 40 39  1  0  0  0  0
 42 44  1  0  0  0  0
 43 44  1  0  0  0  0
 48 47  1  0  0  0  0
 48 45  1  0  0  0  0
 48 46  1  0  0  0  0
 49 48  2  0  0  0  0
M  END
>  <MODEL>
3

>  <REMARK>
 VINA RESULT:      -5.5      3.886     11.849
  Name = 
  8 active torsions:
  status: ('A' for Active; 'I' for Inactive)
    1  A    between atoms: C_2  and  C_35
    2  A    between atoms: C_2  and  P_41
    3  A    between atoms: C_10  and  C_24
    4  A    between atoms: C_10  and  C_30
    5  A    between atoms: O_13  and  C_16
    6  A    between atoms: O_13  and  C_40
    7  A    between atoms: C_21  and  C_31
    8  A    between atoms: C_37  and  C_49
                            x       y       z     vdW  Elec       q    Type
                         _______ _______ _______ _____ _____    ______ ____

>  <TORSDO>
F 8

$$$$
=
 OpenBabel11062418213D

 49 54  0  0  1  0  0  0  0  0999 V2000
  186.9620  176.4420  143.0380 C   0  0  0  0  0  0  0  0  0  0  0  0
  192.4410  172.5780  143.1800 C   0  0  0  0  0  2  0  0  0  0  0  0
  186.8550  177.9340  143.0850 C   0  0  0  0  0  2  0  0  0  0  0  0
  193.4310  173.0500  145.8680 F   0  0  0  0  0  0  0  0  0  0  0  0
  189.3040  176.2520  144.0450 C   0  0  0  0  0  0  0  0  0  0  0  0
  191.2660  173.5670  143.0650 C   0  0  1  0  0  3  0  0  0  0  0  0
  185.9410  175.7720  143.0110 O   0  0  0  0  0  0  0  0  0  0  0  0
  192.5020  174.8930  144.8540 O   0  0  0  0  0  0  0  0  0  0  0  0
  188.8850  175.6190  141.6300 C   0  0  0  0  0  2  0  0  0  0  0  0
  189.4430  174.2110  141.4050 C   0  0  1  0  0  3  0  0  0  0  0  0
  191.3460  174.6670  144.0970 C   0  0  0  0  0  0  0  0  0  0  0  0
  188.9800  173.7210  140.0390 C   0  0  0  0  0  1  0  0  0  0  0  0
  187.0990  178.4140  144.4830 C   0  0  0  0  0  0  0  0  0  0  0  0
  193.6060  173.9870  144.8650 C   0  0  2  0  0  3  0  0  0  0  0  0
  190.9760  174.1380  141.6450 C   0  0  2  0  0  3  0  0  0  0  0  0
  193.7490  173.2880  143.5180 C   0  0  0  0  0  2  0  0  0  0  0  0
  188.2950  175.7490  143.0370 C   0  0  2  0  0  3  0  0  0  0  0  0
  188.3030  178.2870  145.0560 C   0  0  0  0  0  3  0  0  0  0  0  0
  189.4840  177.7140  144.3300 C   0  0  0  0  0  2  0  0  0  0  0  0
  190.3460  175.4900  144.1790 C   0  0  0  0  0  0  0  0  0  0  0  0
  192.6480  174.1050  139.8330 C   0  0  0  0  0  3  0  0  0  0  0  0
  191.7300  173.4520  140.5380 C   0  0  0  0  0  3  0  0  0  0  0  0
  193.3600  173.9790  134.5180 C   0  0  0  0  0  2  0  0  0  0  0  0
  194.3220  173.1070  136.6150 C   0  0  0  0  0  0  0  0  0  0  0  0
  192.5980  174.8370  136.7790 C   0  0  0  0  0  2  0  0  0  0  0  0
  194.9340  172.2850  137.4750 C   0  0  2  0  0  3  0  0  0  0  0  0
  194.6180  173.3910  135.1760 C   0  0  0  0  0  2  0  0  0  0  0  0
  194.3840  172.5640  138.8120 C   0  0  0  0  0  0  0  0  0  0  0  0
  197.2330  172.0980  136.5380 C   0  0  0  0  0  1  0  0  0  0  0  0
  196.1060  171.3330  137.2350 C   0  0  1  0  0  0  0  0  0  0  0  0
  193.4200  173.4890  138.7400 C   0  0  0  0  0  0  0  0  0  0  0  0
  192.8060  175.1730  135.3200 C   0  0  0  0  0  2  0  0  0  0  0  0
  196.6180  170.7650  138.6030 C   0  0  2  0  0  3  0  0  0  0  0  0
  194.9670  171.9640  140.0480 C   0  0  0  0  0  2  0  0  0  0  0  0
  193.3490  173.8930  137.3460 C   0  0  0  0  0  0  0  0  0  0  0  0
  196.4480  171.7070  139.8030 C   0  0  0  0  0  2  0  0  0  0  0  0
  195.6700  170.1000  136.3930 C   0  0  2  0  0  3  0  0  0  0  0  0
  195.8230  170.3320  135.0210 O   0  0  0  0  0  1  0  0  0  0  0  0
  194.0760  168.8240  137.6520 O   0  0  0  0  0  1  0  0  0  0  0  0
  194.2950  169.5700  136.6590 C   0  0  0  0  0  0  0  0  0  0  0  0
  193.2580  169.8920  135.7930 O   0  0  0  0  0  0  0  0  0  0  0  0
  197.9410  170.3110  138.5310 O   0  0  0  0  0  0  0  0  0  0  0  0
  197.9030  168.4820  140.0510 C   0  0  0  0  0  1  0  0  0  0  0  0
  197.8560  168.9190  138.6010 C   0  0  0  0  0  2  0  0  0  0  0  0
  185.9390  178.9030  145.2900 C   0  0  0  0  0  2  0  0  0  0  0  0
  186.3250  176.3960  146.6480 O   0  0  0  0  0  0  0  0  0  0  0  0
  184.3370  177.9750  147.2770 O   0  0  0  0  0  1  0  0  0  0  0  0
  185.7900  177.9880  146.8550 P   0  0  0  0  0  0  0  0  0  0  0  0
  186.7170  178.7470  148.0500 O   0  0  0  0  0  1  0  0  0  0  0  0
  1  3  1  0  0  0  0
  2 16  1  0  0  0  0
  3 13  1  0  0  0  0
  5 20  2  0  0  0  0
  5 19  1  0  0  0  0
  6  2  1  6  0  0  0
  6 11  1  0  0  0  0
  7  1  2  0  0  0  0
  8 14  1  0  0  0  0
 10 12  1  6  0  0  0
 10  9  1  0  0  0  0
 10 15  1  0  0  0  0
 11 20  2  0  0  0  0
 11  8  1  0  0  0  0
 13 18  2  0  0  0  0
 13 45  1  0  0  0  0
 14  4  1  1  0  0  0
 15 22  1  6  0  0  0
 15  6  1  0  0  0  0
 16 14  1  0  0  0  0
 17  9  1  6  0  0  0
 17  1  1  0  0  0  0
 17  5  1  0  0  0  0
 19 18  1  0  0  0  0
 21 22  2  0  0  0  0
 23 27  1  0  0  0  0
 23 32  1  0  0  0  0
 24 35  2  0  0  0  0
 25 35  1  0  0  0  0
 26 24  1  1  0  0  0
 26 28  1  0  0  0  0
 27 24  1  0  0  0  0
 28 34  1  0  0  0  0
 30 29  1  6  0  0  0
 30 26  1  0  0  0  0
 30 33  1  0  0  0  0
 31 28  2  0  0  0  0
 31 21  1  0  0  0  0
 32 25  1  0  0  0  0
 33 42  1  6  0  0  0
 33 36  1  0  0  0  0
 35 31  1  0  0  0  0
 36 34  1  0  0  0  0
 37 38  1  6  0  0  0
 37 40  1  0  0  0  0
 37 30  1  0  0  0  0
 40 39  1  0  0  0  0
 41 40  2  0  0  0  0
 42 44  1  0  0  0  0
 44 43  1  0  0  0  0
 45 48  1  0  0  0  0
 46 48  2  0  0  0  0
 48 47  1  0  0  0  0
 48 49  1  0  0  0  0
M  END
>  <MODEL>
4

>  <REMARK>
 VINA RESULT:      -5.4      3.545     11.881
  Name = 
  8 active torsions:
  status: ('A' for Active; 'I' for Inactive)
    1  A    between atoms: C_2  and  C_35
    2  A    between atoms: C_2  and  P_41
    3  A    between atoms: C_10  and  C_24
    4  A    between atoms: C_10  and  C_30
    5  A    between atoms: O_13  and  C_16
    6  A    between atoms: O_13  and  C_40
    7  A    between atoms: C_21  and  C_31
    8  A    between atoms: C_37  and  C_49
                            x       y       z     vdW  Elec       q    Type
                         _______ _______ _______ _____ _____    ______ ____

>  <TORSDO>
F 8

$$$$
=
 OpenBabel11062418213D

 49 54  0  0  1  0  0  0  0  0999 V2000
  183.2550  178.0700  140.7500 C   0  0  0  0  0  0  0  0  0  0  0  0
  187.3320  176.2250  145.7450 C   0  0  0  0  0  2  0  0  0  0  0  0
  182.5840  179.3870  140.5140 C   0  0  0  0  0  2  0  0  0  0  0  0
  185.5340  176.2680  148.0240 F   0  0  0  0  0  0  0  0  0  0  0  0
  183.6890  178.3700  143.2510 C   0  0  0  0  0  0  0  0  0  0  0  0
  186.4610  176.7890  144.6070 C   0  0  1  0  0  3  0  0  0  0  0  0
  183.0390  177.1450  139.9830 O   0  0  0  0  0  0  0  0  0  0  0  0
  185.1520  177.9230  146.4750 O   0  0  0  0  0  0  0  0  0  0  0  0
  185.6160  178.2890  141.6110 C   0  0  0  0  0  2  0  0  0  0  0  0
  186.6130  177.2370  142.1020 C   0  0  1  0  0  3  0  0  0  0  0  0
  185.2650  177.5500  145.1300 C   0  0  0  0  0  0  0  0  0  0  0  0
  187.6440  177.0000  141.0070 C   0  0  0  0  0  1  0  0  0  0  0  0
  181.4250  179.5380  141.4510 C   0  0  0  0  0  0  0  0  0  0  0  0
  186.0360  177.4390  147.4860 C   0  0  2  0  0  3  0  0  0  0  0  0
  187.2040  177.5890  143.4960 C   0  0  2  0  0  3  0  0  0  0  0  0
  187.4290  177.1960  146.9180 C   0  0  0  0  0  2  0  0  0  0  0  0
  184.1790  177.8560  141.9160 C   0  0  2  0  0  3  0  0  0  0  0  0
  181.6160  179.6510  142.7720 C   0  0  0  0  0  3  0  0  0  0  0  0
  182.9840  179.6870  143.3880 C   0  0  0  0  0  2  0  0  0  0  0  0
  184.3910  177.9670  144.2660 C   0  0  0  0  0  0  0  0  0  0  0  0
  189.2970  176.3310  143.8360 C   0  0  0  0  0  3  0  0  0  0  0  0
  188.7040  177.4880  143.5600 C   0  0  0  0  0  3  0  0  0  0  0  0
  193.6170  176.9890  146.9470 C   0  0  0  0  0  2  0  0  0  0  0  0
  192.9260  176.0300  144.7820 C   0  0  0  0  0  0  0  0  0  0  0  0
  191.1710  176.7710  146.3180 C   0  0  0  0  0  3  0  0  0  0  0  0
  192.9740  175.6430  143.5020 C   0  0  0  0  0  0  0  0  0  0  0  0
  193.9800  175.9840  145.8430 C   0  0  0  0  0  2  0  0  0  0  0  0
  191.5990  175.6980  142.9780 C   0  0  0  0  0  0  0  0  0  0  0  0
  194.7750  173.9240  143.5000 C   0  0  0  0  0  1  0  0  0  0  0  0
  194.1500  175.0740  142.7070 C   0  0  1  0  0  0  0  0  0  0  0  0
  190.7600  176.1680  143.9090 C   0  0  0  0  0  0  0  0  0  0  0  0
  192.1740  176.7840  147.4480 C   0  0  0  0  0  2  0  0  0  0  0  0
  193.6470  174.5490  141.3180 C   0  0  2  0  0  3  0  0  0  0  0  0
  191.2420  175.1550  141.6350 C   0  0  0  0  0  2  0  0  0  0  0  0
  191.5580  176.3810  145.1040 C   0  0  0  0  0  0  0  0  0  0  0  0
  192.2060  174.0220  141.3050 C   0  0  0  0  0  2  0  0  0  0  0  0
  195.2060  176.1720  142.3960 C   0  0  2  0  0  3  0  0  0  0  0  0
  194.9470  176.8070  141.1770 O   0  0  0  0  0  1  0  0  0  0  0  0
  197.3280  175.9040  143.4830 O   0  0  0  0  0  1  0  0  0  0  0  0
  196.6400  175.7410  142.4390 C   0  0  0  0  0  0  0  0  0  0  0  0
  197.2170  175.1700  141.3110 O   0  0  0  0  0  0  0  0  0  0  0  0
  194.5130  173.5980  140.7630 O   0  0  0  0  0  0  0  0  0  0  0  0
  194.6200  174.6410  138.6270 C   0  0  0  0  0  1  0  0  0  0  0  0
  194.1060  173.4650  139.4330 C   0  0  0  0  0  2  0  0  0  0  0  0
  180.0380  179.4100  140.9080 C   0  0  0  0  0  2  0  0  0  0  0  0
  178.3120  179.0510  143.1820 O   0  0  0  0  0  1  0  0  0  0  0  0
  179.9610  177.1640  142.4340 O   0  0  0  0  0  1  0  0  0  0  0  0
  179.0480  178.2420  141.8920 P   0  0  0  0  0  0  0  0  0  0  0  0
  177.8620  177.5360  140.9140 O   0  0  0  0  0  0  0  0  0  0  0  0
  1 17  1  0  0  0  0
  2 16  1  0  0  0  0
  3  1  1  0  0  0  0
  3 13  1  0  0  0  0
  5 19  1  0  0  0  0
  5 20  2  0  0  0  0
  6 11  1  0  0  0  0
  6  2  1  1  0  0  0
  7  1  2  0  0  0  0
  8 14  1  0  0  0  0
  9 10  1  0  0  0  0
 10 12  1  6  0  0  0
 10 15  1  0  0  0  0
 11  8  1  0  0  0  0
 13 18  2  0  0  0  0
 14  4  1  6  0  0  0
 15 22  1  6  0  0  0
 15  6  1  0  0  0  0
 16 14  1  0  0  0  0
 17  9  1  6  0  0  0
 17  5  1  0  0  0  0
 18 19  1  0  0  0  0
 20 11  2  0  0  0  0
 21 31  1  0  0  0  0
 22 21  2  0  0  0  0
 23 32  1  0  0  0  0
 24 35  1  0  0  0  0
 24 27  1  0  0  0  0
 25 32  1  0  0  0  0
 26 24  2  0  0  0  0
 27 23  1  0  0  0  0
 28 26  1  0  0  0  0
 28 31  2  0  0  0  0
 30 29  1  1  0  0  0
 30 26  1  0  0  0  0
 31 35  1  0  0  0  0
 33 42  1  1  0  0  0
 33 30  1  0  0  0  0
 34 28  1  0  0  0  0
 35 25  2  0  0  0  0
 36 33  1  0  0  0  0
 36 34  1  0  0  0  0
 37 38  1  6  0  0  0
 37 40  1  0  0  0  0
 37 30  1  0  0  0  0
 40 39  1  0  0  0  0
 41 40  2  0  0  0  0
 43 44  1  0  0  0  0
 44 42  1  0  0  0  0
 45 13  1  0  0  0  0
 45 48  1  0  0  0  0
 48 47  1  0  0  0  0
 48 46  1  0  0  0  0
 49 48  2  0  0  0  0
M  END
>  <MODEL>
5

>  <REMARK>
 VINA RESULT:      -4.7      4.488     11.594
  Name = 
  8 active torsions:
  status: ('A' for Active; 'I' for Inactive)
    1  A    between atoms: C_2  and  C_35
    2  A    between atoms: C_2  and  P_41
    3  A    between atoms: C_10  and  C_24
    4  A    between atoms: C_10  and  C_30
    5  A    between atoms: O_13  and  C_16
    6  A    between atoms: O_13  and  C_40
    7  A    between atoms: C_21  and  C_31
    8  A    between atoms: C_37  and  C_49
                            x       y       z     vdW  Elec       q    Type
                         _______ _______ _______ _____ _____    ______ ____

>  <TORSDO>
F 8

$$$$
=
 OpenBabel11062418213D

 49 54  0  0  1  0  0  0  0  0999 V2000
  186.9050  176.0400  143.2460 C   0  0  0  0  0  0  0  0  0  0  0  0
  192.6800  172.9840  144.7530 C   0  0  0  0  0  2  0  0  0  0  0  0
  186.6670  177.4530  142.8120 C   0  0  0  0  0  2  0  0  0  0  0  0
  193.4730  174.3750  147.1750 F   0  0  0  0  0  0  0  0  0  0  0  0
  189.1940  176.4110  144.3210 C   0  0  0  0  0  0  0  0  0  0  0  0
  191.4330  173.7640  144.2990 C   0  0  1  0  0  3  0  0  0  0  0  0
  185.9490  175.2980  143.4080 O   0  0  0  0  0  0  0  0  0  0  0  0
  192.4480  175.7020  145.6030 O   0  0  0  0  0  0  0  0  0  0  0  0
  188.9680  175.0120  142.2240 C   0  0  0  0  0  2  0  0  0  0  0  0
  189.6560  173.6670  142.4740 C   0  0  1  0  0  3  0  0  0  0  0  0
  191.3600  175.1350  144.9290 C   0  0  0  0  0  0  0  0  0  0  0  0
  189.3150  172.7290  141.3240 C   0  0  0  0  0  1  0  0  0  0  0  0
  186.7900  178.3700  143.9900 C   0  0  0  0  0  0  0  0  0  0  0  0
  193.6230  174.9600  145.9310 C   0  0  2  0  0  3  0  0  0  0  0  0
  191.1750  173.8270  142.7650 C   0  0  2  0  0  3  0  0  0  0  0  0
  193.9010  173.8910  144.8820 C   0  0  0  0  0  2  0  0  0  0  0  0
  188.2910  175.5180  143.5000 C   0  0  2  0  0  3  0  0  0  0  0  0
  187.9660  178.5510  144.6040 C   0  0  0  0  0  3  0  0  0  0  0  0
  189.2310  177.8980  144.1300 C   0  0  0  0  0  2  0  0  0  0  0  0
  190.2890  175.8390  144.7180 C   0  0  0  0  0  0  0  0  0  0  0  0
  193.0870  173.3760  141.2740 C   0  0  0  0  0  3  0  0  0  0  0  0
  192.0460  172.9060  141.9530 C   0  0  0  0  0  3  0  0  0  0  0  0
  197.5510  170.4030  141.3530 C   0  0  0  0  0  2  0  0  0  0  0  0
  195.6540  170.9970  139.8930 C   0  0  0  0  0  0  0  0  0  0  0  0
  195.5520  171.6850  142.2400 C   0  0  0  0  0  3  0  0  0  0  0  0
  194.9500  171.2670  138.7870 C   0  0  0  0  0  0  0  0  0  0  0  0
  196.7230  169.9780  140.1300 C   0  0  0  0  0  2  0  0  0  0  0  0
  193.8770  172.2000  139.1710 C   0  0  0  0  0  0  0  0  0  0  0  0
  195.0310  169.1220  137.5290 C   0  0  0  0  0  1  0  0  0  0  0  0
  195.0600  170.6460  137.3950 C   0  0  1  0  0  0  0  0  0  0  0  0
  193.9770  172.5260  140.4650 C   0  0  0  0  0  0  0  0  0  0  0  0
  196.6520  170.7040  142.5690 C   0  0  0  0  0  2  0  0  0  0  0  0
  193.8620  171.1230  136.5040 C   0  0  2  0  0  3  0  0  0  0  0  0
  192.7810  172.5740  138.2290 C   0  0  0  0  0  2  0  0  0  0  0  0
  195.0960  171.7630  140.9900 C   0  0  0  0  0  0  0  0  0  0  0  0
  192.5620  171.4150  137.2650 C   0  0  0  0  0  2  0  0  0  0  0  0
  196.3520  171.1130  136.6670 C   0  0  2  0  0  3  0  0  0  0  0  0
  196.1150  172.2360  135.8660 O   0  0  0  0  0  1  0  0  0  0  0  0
  197.1800  170.1880  134.6140 O   0  0  0  0  0  0  0  0  0  0  0  0
  197.0730  170.0730  135.8650 C   0  0  0  0  0  0  0  0  0  0  0  0
  197.6130  168.9660  136.5070 O   0  0  0  0  0  1  0  0  0  0  0  0
  193.6100  170.2500  135.4370 O   0  0  0  0  0  0  0  0  0  0  0  0
  191.9620  168.7470  134.6100 C   0  0  0  0  0  1  0  0  0  0  0  0
  192.4430  169.5680  135.7890 C   0  0  0  0  0  2  0  0  0  0  0  0
  185.5490  178.9700  144.5690 C   0  0  0  0  0  2  0  0  0  0  0  0
  185.7120  176.7460  146.3860 O   0  0  0  0  0  0  0  0  0  0  0  0
  183.7740  178.4930  146.5690 O   0  0  0  0  0  1  0  0  0  0  0  0
  185.2500  178.3680  146.2590 P   0  0  0  0  0  0  0  0  0  0  0  0
  186.1370  179.2980  147.3610 O   0  0  0  0  0  1  0  0  0  0  0  0
  1  7  2  0  0  0  0
  1 17  1  0  0  0  0
  2 16  1  0  0  0  0
  3  1  1  0  0  0  0
  3 13  1  0  0  0  0
  5 20  2  0  0  0  0
  6  2  1  6  0  0  0
  6 11  1  0  0  0  0
  8 14  1  0  0  0  0
  9 10  1  0  0  0  0
 10 12  1  6  0  0  0
 10 15  1  0  0  0  0
 11  8  1  0  0  0  0
 13 45  1  0  0  0  0
 13 18  2  0  0  0  0
 14  4  1  1  0  0  0
 15 22  1  6  0  0  0
 15  6  1  0  0  0  0
 16 14  1  0  0  0  0
 17  9  1  6  0  0  0
 17  5  1  0  0  0  0
 19  5  1  0  0  0  0
 19 18  1  0  0  0  0
 20 11  2  0  0  0  0
 21 22  2  0  0  0  0
 23 32  1  0  0  0  0
 24 27  1  0  0  0  0
 24 35  1  0  0  0  0
 25 32  1  0  0  0  0
 26 28  1  0  0  0  0
 26 24  2  0  0  0  0
 27 23  1  0  0  0  0
 28 31  2  0  0  0  0
 30 29  1  1  0  0  0
 30 26  1  0  0  0  0
 31 35  1  0  0  0  0
 31 21  1  0  0  0  0
 33 42  1  6  0  0  0
 33 36  1  0  0  0  0
 33 30  1  0  0  0  0
 34 28  1  0  0  0  0
 35 25  2  0  0  0  0
 36 34  1  0  0  0  0
 37 38  1  6  0  0  0
 37 30  1  0  0  0  0
 39 40  2  0  0  0  0
 40 41  1  0  0  0  0
 40 37  1  0  0  0  0
 42 44  1  0  0  0  0
 43 44  1  0  0  0  0
 45 48  1  0  0  0  0
 48 46  2  0  0  0  0
 48 47  1  0  0  0  0
 48 49  1  0  0  0  0
M  END
>  <MODEL>
6

>  <REMARK>
 VINA RESULT:      -4.6      3.698     11.726
  Name = 
  8 active torsions:
  status: ('A' for Active; 'I' for Inactive)
    1  A    between atoms: C_2  and  C_35
    2  A    between atoms: C_2  and  P_41
    3  A    between atoms: C_10  and  C_24
    4  A    between atoms: C_10  and  C_30
    5  A    between atoms: O_13  and  C_16
    6  A    between atoms: O_13  and  C_40
    7  A    between atoms: C_21  and  C_31
    8  A    between atoms: C_37  and  C_49
                            x       y       z     vdW  Elec       q    Type
                         _______ _______ _______ _____ _____    ______ ____

>  <TORSDO>
F 8

$$$$
=
 OpenBabel11062418213D

 49 54  0  0  1  0  0  0  0  0999 V2000
  194.8220  171.6830  143.8230 C   0  0  0  0  0  0  0  0  0  0  0  0
  188.7620  172.7280  141.1500 C   0  0  0  0  0  2  0  0  0  0  0  0
  196.1430  172.2700  143.4320 C   0  0  0  0  0  2  0  0  0  0  0  0
  189.0600  171.5370  138.5190 F   0  0  0  0  0  0  0  0  0  0  0  0
  193.6090  172.1130  141.6150 C   0  0  0  0  0  0  0  0  0  0  0  0
  190.1840  172.6370  141.7340 C   0  0  1  0  0  3  0  0  0  0  0  0
  194.7800  170.8590  144.7220 O   0  0  0  0  0  0  0  0  0  0  0  0
  190.9380  172.6090  139.3010 O   0  0  0  0  0  0  0  0  0  0  0  0
  192.9220  173.3380  143.7220 C   0  0  0  0  0  2  0  0  0  0  0  0
  191.4130  173.1550  143.9060 C   0  0  1  0  0  3  0  0  0  0  0  0
  191.2270  172.4380  140.6600 C   0  0  0  0  0  0  0  0  0  0  0  0
  191.0290  173.6680  145.2870 C   0  0  0  0  0  1  0  0  0  0  0  0
  196.6350  171.6130  142.1790 C   0  0  0  0  0  0  0  0  0  0  0  0
  189.6070  172.7740  138.8120 C   0  0  2  0  0  3  0  0  0  0  0  0
  190.5970  173.7610  142.7290 C   0  0  2  0  0  3  0  0  0  0  0  0
  188.7380  173.4980  139.8330 C   0  0  0  0  0  2  0  0  0  0  0  0
  193.5500  172.0750  143.1250 C   0  0  2  0  0  3  0  0  0  0  0  0
  195.9950  171.7820  141.0140 C   0  0  0  0  0  3  0  0  0  0  0  0
  194.7920  172.6670  140.8770 C   0  0  0  0  0  2  0  0  0  0  0  0
  192.4500  172.2240  141.0410 C   0  0  0  0  0  0  0  0  0  0  0  0
  189.6390  175.5570  144.1200 C   0  0  0  0  0  3  0  0  0  0  0  0
  189.4610  174.6430  143.1730 C   0  0  0  0  0  3  0  0  0  0  0  0
  187.9940  178.6180  148.2070 C   0  0  0  0  0  2  0  0  0  0  0  0
  187.4200  178.0330  145.8800 C   0  0  0  0  0  0  0  0  0  0  0  0
  189.5730  177.2650  146.7550 C   0  0  0  0  0  3  0  0  0  0  0  0
  186.6900  177.7850  144.7860 C   0  0  0  0  0  0  0  0  0  0  0  0
  187.2360  179.0660  146.9470 C   0  0  0  0  0  2  0  0  0  0  0  0
  187.4440  176.8180  143.9700 C   0  0  0  0  0  0  0  0  0  0  0  0
  185.5940  179.9730  144.3300 C   0  0  0  0  0  1  0  0  0  0  0  0
  185.4010  178.4550  144.3110 C   0  0  1  0  0  0  0  0  0  0  0  0
  188.5690  176.4520  144.5950 C   0  0  0  0  0  0  0  0  0  0  0  0
  189.4590  178.2580  147.8890 C   0  0  0  0  0  2  0  0  0  0  0  0
  185.0630  177.9830  142.8550 C   0  0  2  0  0  3  0  0  0  0  0  0
  187.0210  176.4530  142.5860 C   0  0  0  0  0  2  0  0  0  0  0  0
  188.6180  177.2200  145.8270 C   0  0  0  0  0  0  0  0  0  0  0  0
  186.2780  177.6380  141.9840 C   0  0  0  0  0  2  0  0  0  0  0  0
  184.1890  178.0390  145.1920 C   0  0  2  0  0  3  0  0  0  0  0  0
  183.3160  179.1110  145.4060 O   0  0  0  0  0  1  0  0  0  0  0  0
  184.4590  178.0520  147.5750 O   0  0  0  0  0  1  0  0  0  0  0  0
  184.5150  177.3920  146.5020 C   0  0  0  0  0  0  0  0  0  0  0  0
  184.8970  176.0570  146.5300 O   0  0  0  0  0  0  0  0  0  0  0  0
  184.2280  178.8850  142.1820 O   0  0  0  0  0  0  0  0  0  0  0  0
  182.7090  177.9170  140.6280 C   0  0  0  0  0  1  0  0  0  0  0  0
  184.1270  178.3900  140.8800 C   0  0  0  0  0  2  0  0  0  0  0  0
  197.7690  170.6430  142.2710 C   0  0  0  0  0  2  0  0  0  0  0  0
  195.4850  168.8950  142.1990 O   0  0  0  0  0  1  0  0  0  0  0  0
  197.6950  168.1710  143.3940 O   0  0  0  0  0  1  0  0  0  0  0  0
  197.1760  168.9250  142.1890 P   0  0  0  0  0  0  0  0  0  0  0  0
  197.7480  168.1910  140.7760 O   0  0  0  0  0  0  0  0  0  0  0  0
  1  7  2  0  0  0  0
  3  1  1  0  0  0  0
  5 17  1  0  0  0  0
  6  2  1  6  0  0  0
  6 15  1  0  0  0  0
  8 11  1  0  0  0  0
  9 10  1  0  0  0  0
 10 12  1  1  0  0  0
 11 20  2  0  0  0  0
 11  6  1  0  0  0  0
 13 45  1  0  0  0  0
 13  3  1  0  0  0  0
 14  4  1  1  0  0  0
 14  8  1  0  0  0  0
 14 16  1  0  0  0  0
 15 22  1  1  0  0  0
 15 10  1  0  0  0  0
 16  2  1  0  0  0  0
 17  9  1  1  0  0  0
 17  1  1  0  0  0  0
 18 13  2  0  0  0  0
 19 18  1  0  0  0  0
 19  5  1  0  0  0  0
 20  5  2  0  0  0  0
 21 31  1  0  0  0  0
 22 21  2  0  0  0  0
 24 27  1  0  0  0  0
 25 32  1  0  0  0  0
 26 24  2  0  0  0  0
 27 23  1  0  0  0  0
 28 31  2  0  0  0  0
 28 26  1  0  0  0  0
 30 29  1  1  0  0  0
 30 26  1  0  0  0  0
 30 37  1  0  0  0  0
 31 35  1  0  0  0  0
 32 23  1  0  0  0  0
 33 42  1  6  0  0  0
 33 30  1  0  0  0  0
 34 28  1  0  0  0  0
 35 24  1  0  0  0  0
 35 25  2  0  0  0  0
 36 34  1  0  0  0  0
 36 33  1  0  0  0  0
 37 38  1  1  0  0  0
 37 40  1  0  0  0  0
 40 41  2  0  0  0  0
 40 39  1  0  0  0  0
 43 44  1  0  0  0  0
 44 42  1  0  0  0  0
 48 46  1  0  0  0  0
 48 45  1  0  0  0  0
 48 47  1  0  0  0  0
 49 48  2  0  0  0  0
M  END
>  <MODEL>
7

>  <REMARK>
 VINA RESULT:      -4.5      2.085      2.881
  Name = 
  8 active torsions:
  status: ('A' for Active; 'I' for Inactive)
    1  A    between atoms: C_2  and  C_35
    2  A    between atoms: C_2  and  P_41
    3  A    between atoms: C_10  and  C_24
    4  A    between atoms: C_10  and  C_30
    5  A    between atoms: O_13  and  C_16
    6  A    between atoms: O_13  and  C_40
    7  A    between atoms: C_21  and  C_31
    8  A    between atoms: C_37  and  C_49
                            x       y       z     vdW  Elec       q    Type
                         _______ _______ _______ _____ _____    ______ ____

>  <TORSDO>
F 8

$$$$
=
 OpenBabel11062418213D

 49 54  0  0  1  0  0  0  0  0999 V2000
  187.7510  175.8980  143.9040 C   0  0  0  0  0  0  0  0  0  0  0  0
  193.2980  172.1870  143.2460 C   0  0  0  0  0  2  0  0  0  0  0  0
  187.6030  177.2950  144.4200 C   0  0  0  0  0  2  0  0  0  0  0  0
  194.0610  171.7640  146.0160 F   0  0  0  0  0  0  0  0  0  0  0  0
  190.0100  175.3890  144.9860 C   0  0  0  0  0  0  0  0  0  0  0  0
  192.1110  173.1620  143.3600 C   0  0  1  0  0  3  0  0  0  0  0  0
  186.7530  175.2740  143.5790 O   0  0  0  0  0  0  0  0  0  0  0  0
  193.1690  173.8370  145.5760 O   0  0  0  0  0  0  0  0  0  0  0  0
  189.8000  175.5710  142.4700 C   0  0  0  0  0  2  0  0  0  0  0  0
  190.4080  174.3100  141.8500 C   0  0  1  0  0  3  0  0  0  0  0  0
  192.0820  173.8690  144.6940 C   0  0  0  0  0  0  0  0  0  0  0  0
  190.0670  174.2880  140.3660 C   0  0  0  0  0  1  0  0  0  0  0  0
  187.7240  177.2970  145.9130 C   0  0  0  0  0  0  0  0  0  0  0  0
  194.2900  172.9750  145.3850 C   0  0  2  0  0  3  0  0  0  0  0  0
  191.9200  174.1610  142.1800 C   0  0  2  0  0  3  0  0  0  0  0  0
  194.5560  172.7470  143.9020 C   0  0  0  0  0  2  0  0  0  0  0  0
  189.0980  175.2400  143.7900 C   0  0  2  0  0  3  0  0  0  0  0  0
  188.8820  176.9910  146.5120 C   0  0  0  0  0  3  0  0  0  0  0  0
  190.1310  176.6800  145.7400 C   0  0  0  0  0  2  0  0  0  0  0  0
  191.0580  174.6240  144.9530 C   0  0  0  0  0  0  0  0  0  0  0  0
  192.6250  172.7400  140.2930 C   0  0  0  0  0  3  0  0  0  0  0  0
  192.7750  173.8690  140.9770 C   0  0  0  0  0  3  0  0  0  0  0  0
  194.5950  168.7000  137.3640 C   0  0  0  0  0  2  0  0  0  0  0  0
  194.3840  171.1570  137.3670 C   0  0  0  0  0  0  0  0  0  0  0  0
  193.1290  169.8990  139.0510 C   0  0  0  0  0  3  0  0  0  0  0  0
  194.6700  172.4480  137.1560 C   0  0  0  0  0  0  0  0  0  0  0  0
  194.6090  169.9650  136.4920 C   0  0  0  0  0  2  0  0  0  0  0  0
  194.0300  173.2180  138.2360 C   0  0  0  0  0  0  0  0  0  0  0  0
  194.7030  172.6200  134.6740 C   0  0  0  0  0  1  0  0  0  0  0  0
  195.3690  173.1010  135.9640 C   0  0  1  0  0  0  0  0  0  0  0  0
  193.4280  172.3980  139.1060 C   0  0  0  0  0  0  0  0  0  0  0  0
  193.3330  168.6350  138.2480 C   0  0  0  0  0  2  0  0  0  0  0  0
  195.2550  174.6610  136.0710 C   0  0  2  0  0  3  0  0  0  0  0  0
  193.9800  174.7100  138.2210 C   0  0  0  0  0  2  0  0  0  0  0  0
  193.6060  171.0530  138.5850 C   0  0  0  0  0  0  0  0  0  0  0  0
  193.9890  175.1740  136.7700 C   0  0  0  0  0  2  0  0  0  0  0  0
  196.8910  172.7800  135.9550 C   0  0  2  0  0  3  0  0  0  0  0  0
  197.2100  171.8240  134.9850 O   0  0  0  0  0  1  0  0  0  0  0  0
  197.7830  171.1720  137.4970 O   0  0  0  0  0  0  0  0  0  0  0  0
  197.4900  172.3780  137.2680 C   0  0  0  0  0  0  0  0  0  0  0  0
  197.7080  173.3400  138.2450 O   0  0  0  0  0  1  0  0  0  0  0  0
  195.4100  175.2930  134.8300 O   0  0  0  0  0  0  0  0  0  0  0  0
  197.4110  176.4170  135.4530 C   0  0  0  0  0  1  0  0  0  0  0  0
  195.9380  176.5520  135.1230 C   0  0  0  0  0  2  0  0  0  0  0  0
  186.4920  177.5010  146.7350 C   0  0  0  0  0  2  0  0  0  0  0  0
  185.7480  179.9130  145.3540 O   0  0  0  0  0  1  0  0  0  0  0  0
  183.9700  178.5050  146.6550 O   0  0  0  0  0  1  0  0  0  0  0  0
  185.2040  178.3720  145.7910 P   0  0  0  0  0  0  0  0  0  0  0  0
  184.8230  177.4890  144.3980 O   0  0  0  0  0  0  0  0  0  0  0  0
  1  3  1  0  0  0  0
  2 16  1  0  0  0  0
  3 13  1  0  0  0  0
  5 19  1  0  0  0  0
  6  2  1  6  0  0  0
  6 11  1  0  0  0  0
  7  1  2  0  0  0  0
 10 12  1  6  0  0  0
 10 15  1  0  0  0  0
 10  9  1  0  0  0  0
 11 20  2  0  0  0  0
 11  8  1  0  0  0  0
 13 18  2  0  0  0  0
 13 45  1  0  0  0  0
 14  8  1  0  0  0  0
 14  4  1  1  0  0  0
 15 22  1  6  0  0  0
 15  6  1  0  0  0  0
 16 14  1  0  0  0  0
 17  9  1  6  0  0  0
 17  1  1  0  0  0  0
 17  5  1  0  0  0  0
 19 18  1  0  0  0  0
 20  5  2  0  0  0  0
 21 22  2  0  0  0  0
 23 32  1  0  0  0  0
 24 35  1  0  0  0  0
 26 24  2  0  0  0  0
 26 28  1  0  0  0  0
 27 23  1  0  0  0  0
 27 24  1  0  0  0  0
 28 31  2  0  0  0  0
 30 29  1  6  0  0  0
 30 33  1  0  0  0  0
 30 26  1  0  0  0  0
 31 21  1  0  0  0  0
 32 25  1  0  0  0  0
 33 42  1  6  0  0  0
 33 36  1  0  0  0  0
 34 28  1  0  0  0  0
 35 25  2  0  0  0  0
 35 31  1  0  0  0  0
 36 34  1  0  0  0  0
 37 38  1  6  0  0  0
 37 30  1  0  0  0  0
 37 40  1  0  0  0  0
 40 39  2  0  0  0  0
 40 41  1  0  0  0  0
 42 44  1  0  0  0  0
 44 43  1  0  0  0  0
 46 48  1  0  0  0  0
 48 47  1  0  0  0  0
 48 45  1  0  0  0  0
 49 48  2  0  0  0  0
M  END
>  <MODEL>
8

>  <REMARK>
 VINA RESULT:      -4.3      3.801     11.692
  Name = 
  8 active torsions:
  status: ('A' for Active; 'I' for Inactive)
    1  A    between atoms: C_2  and  C_35
    2  A    between atoms: C_2  and  P_41
    3  A    between atoms: C_10  and  C_24
    4  A    between atoms: C_10  and  C_30
    5  A    between atoms: O_13  and  C_16
    6  A    between atoms: O_13  and  C_40
    7  A    between atoms: C_21  and  C_31
    8  A    between atoms: C_37  and  C_49
                            x       y       z     vdW  Elec       q    Type
                         _______ _______ _______ _____ _____    ______ ____

>  <TORSDO>
F 8

$$$$
=
 OpenBabel11062418213D

 49 54  0  0  1  0  0  0  0  0999 V2000
  180.9550  179.3560  142.3540 C   0  0  0  0  0  0  0  0  0  0  0  0
  187.2500  177.8840  140.5710 C   0  0  0  0  0  2  0  0  0  0  0  0
  179.7120  178.5350  142.2030 C   0  0  0  0  0  2  0  0  0  0  0  0
  187.0500  177.8350  137.6750 F   0  0  0  0  0  0  0  0  0  0  0  0
  182.3500  178.1640  140.5740 C   0  0  0  0  0  0  0  0  0  0  0  0
  185.7870  178.0720  141.0150 C   0  0  1  0  0  3  0  0  0  0  0  0
  180.8730  180.4800  142.8230 O   0  0  0  0  0  0  0  0  0  0  0  0
  185.2060  177.0110  138.7740 O   0  0  0  0  0  0  0  0  0  0  0  0
  182.9750  178.0020  143.0220 C   0  0  0  0  0  2  0  0  0  0  0  0
  184.4500  178.3900  143.1610 C   0  0  1  0  0  3  0  0  0  0  0  0
  184.8100  177.7040  139.9240 C   0  0  0  0  0  0  0  0  0  0  0  0
  184.7720  178.5390  144.6420 C   0  0  0  0  0  1  0  0  0  0  0  0
  179.2620  178.5580  140.7750 C   0  0  0  0  0  0  0  0  0  0  0  0
  186.5770  176.7870  138.4440 C   0  0  2  0  0  3  0  0  0  0  0  0
  185.3890  177.4310  142.3770 C   0  0  2  0  0  3  0  0  0  0  0  0
  187.4230  176.6420  139.7030 C   0  0  0  0  0  2  0  0  0  0  0  0
  182.2980  178.8340  141.9290 C   0  0  2  0  0  3  0  0  0  0  0  0
  179.9940  177.9820  139.8120 C   0  0  0  0  0  3  0  0  0  0  0  0
  181.2660  177.2420  140.1000 C   0  0  0  0  0  2  0  0  0  0  0  0
  183.5510  177.9380  140.1380 C   0  0  0  0  0  0  0  0  0  0  0  0
  187.7000  177.5970  143.2190 C   0  0  0  0  0  3  0  0  0  0  0  0
  186.5530  176.9290  143.1880 C   0  0  0  0  0  3  0  0  0  0  0  0
  190.1050  177.8220  148.0090 C   0  0  0  0  0  2  0  0  0  0  0  0
  190.2840  176.7200  145.8100 C   0  0  0  0  0  0  0  0  0  0  0  0
  188.2570  178.0070  146.2830 C   0  0  0  0  0  3  0  0  0  0  0  0
  190.8230  176.1510  144.7250 C   0  0  0  0  0  0  0  0  0  0  0  0
  190.6800  176.6170  147.2490 C   0  0  0  0  0  2  0  0  0  0  0  0
  189.9050  176.4030  143.6000 C   0  0  0  0  0  0  0  0  0  0  0  0
  191.9410  174.1270  145.6440 C   0  0  0  0  0  1  0  0  0  0  0  0
  192.0540  175.2530  144.6140 C   0  0  1  0  0  0  0  0  0  0  0  0
  188.8740  177.1580  143.9950 C   0  0  0  0  0  0  0  0  0  0  0  0
  188.5930  177.9820  147.7560 C   0  0  0  0  0  2  0  0  0  0  0  0
  192.1400  174.6450  143.1720 C   0  0  2  0  0  3  0  0  0  0  0  0
  190.0910  175.7550  142.2680 C   0  0  0  0  0  2  0  0  0  0  0  0
  189.0540  177.3780  145.4200 C   0  0  0  0  0  0  0  0  0  0  0  0
  190.7900  174.4180  142.4800 C   0  0  0  0  0  2  0  0  0  0  0  0
  193.3660  176.0620  144.8190 C   0  0  2  0  0  3  0  0  0  0  0  0
  193.9490  176.4180  143.5980 O   0  0  0  0  0  1  0  0  0  0  0  0
  194.5560  175.8280  146.8890 O   0  0  0  0  0  1  0  0  0  0  0  0
  194.4000  175.4330  145.7010 C   0  0  0  0  0  0  0  0  0  0  0  0
  195.2030  174.4180  145.1980 O   0  0  0  0  0  0  0  0  0  0  0  0
  192.9040  173.4710  143.1330 O   0  0  0  0  0  0  0  0  0  0  0  0
  194.8490  173.5110  141.7630 C   0  0  0  0  0  1  0  0  0  0  0  0
  193.3410  173.3620  141.8110 C   0  0  0  0  0  2  0  0  0  0  0  0
  178.0560  179.3640  140.4120 C   0  0  0  0  0  2  0  0  0  0  0  0
  177.6910  182.2160  140.3150 O   0  0  0  0  0  1  0  0  0  0  0  0
  178.1620  180.8460  138.1380 O   0  0  0  0  0  0  0  0  0  0  0  0
  178.5240  180.9260  139.6050 P   0  0  0  0  0  0  0  0  0  0  0  0
  180.1900  181.1720  139.7600 O   0  0  0  0  0  1  0  0  0  0  0  0
  1  7  2  0  0  0  0
  3  1  1  0  0  0  0
  5 17  1  0  0  0  0
  6  2  1  6  0  0  0
  6 15  1  0  0  0  0
  8 11  1  0  0  0  0
  9 10  1  0  0  0  0
 10 12  1  1  0  0  0
 11 20  2  0  0  0  0
 11  6  1  0  0  0  0
 13  3  1  0  0  0  0
 14  4  1  1  0  0  0
 14  8  1  0  0  0  0
 14 16  1  0  0  0  0
 15 10  1  0  0  0  0
 15 22  1  1  0  0  0
 16  2  1  0  0  0  0
 17  1  1  0  0  0  0
 17  9  1  1  0  0  0
 18 19  1  0  0  0  0
 18 13  2  0  0  0  0
 19  5  1  0  0  0  0
 20  5  2  0  0  0  0
 21 31  1  0  0  0  0
 22 21  2  0  0  0  0
 24 27  1  0  0  0  0
 25 32  1  0  0  0  0
 26 24  2  0  0  0  0
 27 23  1  0  0  0  0
 28 31  2  0  0  0  0
 28 26  1  0  0  0  0
 30 26  1  0  0  0  0
 30 37  1  0  0  0  0
 30 29  1  1  0  0  0
 31 35  1  0  0  0  0
 32 23  1  0  0  0  0
 33 42  1  1  0  0  0
 33 30  1  0  0  0  0
 34 36  1  0  0  0  0
 34 28  1  0  0  0  0
 35 24  1  0  0  0  0
 35 25  2  0  0  0  0
 36 33  1  0  0  0  0
 37 38  1  6  0  0  0
 37 40  1  0  0  0  0
 40 39  1  0  0  0  0
 41 40  2  0  0  0  0
 43 44  1  0  0  0  0
 44 42  1  0  0  0  0
 45 13  1  0  0  0  0
 47 48  2  0  0  0  0
 48 49  1  0  0  0  0
 48 46  1  0  0  0  0
 48 45  1  0  0  0  0
M  END
>  <MODEL>
9

>  <REMARK>
 VINA RESULT:      -3.8      5.041     11.553
  Name = 
  8 active torsions:
  status: ('A' for Active; 'I' for Inactive)
    1  A    between atoms: C_2  and  C_35
    2  A    between atoms: C_2  and  P_41
    3  A    between atoms: C_10  and  C_24
    4  A    between atoms: C_10  and  C_30
    5  A    between atoms: O_13  and  C_16
    6  A    between atoms: O_13  and  C_40
    7  A    between atoms: C_21  and  C_31
    8  A    between atoms: C_37  and  C_49
                            x       y       z     vdW  Elec       q    Type
                         _______ _______ _______ _____ _____    ______ ____

>  <TORSDO>
F 8

$$$$
