=
 OpenBabel11062418183D

 49 55  0  0  1  0  0  0  0  0999 V2000
  194.7370  171.4820  142.6800 O   0  0  0  0  0  0  0  0  0  0  0  0
  190.2690  173.8690  144.3010 C   0  0  2  0  0  3  0  0  0  0  0  0
  189.8760  172.9050  141.5570 C   0  0  0  0  0  2  0  0  0  0  0  0
  192.6840  173.1870  144.3140 C   0  0  2  0  0  3  0  0  0  0  0  0
  194.9650  172.8000  143.1030 C   0  0  1  0  0  3  0  0  0  0  0  0
  194.5630  171.2720  145.9840 C   0  0  0  0  0  1  0  0  0  0  0  0
  187.8290  176.0850  141.5870 C   0  0  0  0  0  3  0  0  0  0  0  0
  191.7210  174.3410  144.1990 C   0  0  2  0  0  3  0  0  0  0  0  0
  193.3760  171.7700  142.4500 C   0  0  2  0  0  3  0  0  0  0  0  0
  193.4690  173.4840  145.5770 C   0  0  2  0  0  3  0  0  0  0  0  0
  193.1220  171.8380  140.9440 C   0  0  0  0  0  2  0  0  0  0  0  0
  188.4290  174.9010  141.1570 C   0  0  0  0  0  3  0  0  0  0  0  0
  191.1460  173.1970  141.0480 O   0  0  0  0  0  0  0  0  0  0  0  0
  193.5540  174.9920  145.7040 C   0  0  0  0  0  2  0  0  0  0  0  0
  189.2160  174.1570  142.0400 C   0  0  0  0  0  0  0  0  0  0  0  0
  191.6420  171.9750  140.5740 C   0  0  1  0  0  3  0  0  0  0  0  0
  189.3820  174.6160  143.3600 C   0  0  0  0  0  0  0  0  0  0  0  0
  189.7430  173.8220  145.6550 N   0  0  0  0  0  1  0  0  0  0  0  0
  193.4960  173.1650  143.0150 C   0  0  1  0  0  3  0  0  0  0  0  0
  195.6900  172.9010  144.4550 C   0  0  2  0  0  3  0  0  0  0  0  0
  188.0280  176.5170  142.9000 C   0  0  0  0  0  3  0  0  0  0  0  0
  192.2820  175.5040  145.0400 C   0  0  2  0  0  3  0  0  0  0  0  0
  194.7970  172.7410  145.6850 C   0  0  2  0  0  3  0  0  0  0  0  0
  188.7980  175.7830  143.7490 N   0  0  0  0  0  0  0  0  0  0  0  0
  190.1430  171.6280  138.6020 N   0  0  1  0  0  0  0  0  0  0  0  0
  189.6460  170.0130  136.8580 C   0  0  0  0  0  2  0  0  0  0  0  0
  191.5270  171.9180  139.0460 C   0  0  2  0  0  3  0  0  0  0  0  0
  192.7800  171.9410  136.1750 C   0  0  0  0  0  0  0  0  0  0  0  0
  189.8330  171.6670  134.9020 C   0  0  0  0  0  2  0  0  0  0  0  0
  189.8810  172.3650  137.3640 C   0  0  2  0  0  3  0  0  0  0  0  0
  192.4530  170.9830  136.9900 N   0  0  0  0  0  0  0  0  0  0  0  0
  188.9350  173.3600  137.6060 O   0  0  0  0  0  1  0  0  0  0  0  0
  192.6160  171.0150  138.4340 C   0  0  0  0  0  2  0  0  0  0  0  0
  189.8890  170.2030  138.3450 C   0  0  0  0  0  2  0  0  0  0  0  0
  192.2770  171.9120  134.8750 O   0  0  0  0  0  0  0  0  0  0  0  0
  189.3420  171.3930  136.3360 C   0  0  2  0  0  3  0  0  0  0  0  0
  191.1920  171.0620  134.5130 C   0  0  0  0  0  2  0  0  0  0  0  0
  193.6370  173.0940  136.6340 C   0  0  2  0  0  3  0  0  0  0  0  0
  193.0620  176.6840  136.1920 O   0  0  0  0  0  0  0  0  0  0  0  0
  193.9930  175.6430  138.0070 O   0  0  0  0  0  1  0  0  0  0  0  0
  193.3910  175.6080  136.7550 C   0  0  0  0  0  0  0  0  0  0  0  0
  193.1810  174.3660  136.0860 N   0  0  0  0  0  2  0  0  0  0  0  0
  195.0980  172.8680  136.2580 C   0  0  0  0  0  2  0  0  0  0  0  0
  195.8700  172.5840  137.3890 O   0  0  0  0  0  1  0  0  0  0  0  0
  197.2290  174.3750  145.5500 O   0  0  0  0  0  1  0  0  0  0  0  0
  196.5360  174.1420  144.5240 C   0  0  0  0  0  0  0  0  0  0  0  0
  196.4950  175.0880  143.5060 O   0  0  0  0  0  0  0  0  0  0  0  0
  191.7730  176.2380  147.4360 C   0  0  0  0  0  1  0  0  0  0  0  0
  191.3270  176.2520  145.9810 C   0  0  0  0  0  2  0  0  0  0  0  0
  1  5  1  0  0  0  0
  2 18  1  1  0  0  0
  3 15  1  0  0  0  0
  4 10  1  0  0  0  0
  5 20  1  0  0  0  0
  7 21  1  0  0  0  0
  8  2  1  0  0  0  0
  8  4  1  0  0  0  0
  8 22  1  0  0  0  0
  9  1  1  0  0  0  0
  9 19  1  0  0  0  0
 10 23  1  0  0  0  0
 10 14  1  0  0  0  0
 11  9  1  0  0  0  0
 12  7  2  0  0  0  0
 12 15  1  0  0  0  0
 13  3  1  0  0  0  0
 15 17  2  0  0  0  0
 16 11  1  0  0  0  0
 16 13  1  0  0  0  0
 17 24  1  0  0  0  0
 17  2  1  0  0  0  0
 19  5  1  0  0  0  0
 19  4  1  0  0  0  0
 20 46  1  0  0  0  0
 20 23  1  0  0  0  0
 21 24  2  0  0  0  0
 22 14  1  0  0  0  0
 22 49  1  0  0  0  0
 23  6  1  0  0  0  0
 25 27  1  0  0  0  0
 26 34  1  0  0  0  0
 27 16  1  0  0  0  0
 28 38  1  0  0  0  0
 28 31  2  0  0  0  0
 29 36  1  0  0  0  0
 30 32  1  0  0  0  0
 30 25  1  0  0  0  0
 31 33  1  0  0  0  0
 33 27  1  0  0  0  0
 34 25  1  0  0  0  0
 35 28  1  0  0  0  0
 36 26  1  0  0  0  0
 36 30  1  0  0  0  0
 37 35  1  0  0  0  0
 37 29  1  0  0  0  0
 39 41  2  0  0  0  0
 41 40  1  0  0  0  0
 42 38  1  0  0  0  0
 42 41  1  0  0  0  0
 43 38  1  0  0  0  0
 43 44  1  0  0  0  0
 46 45  1  0  0  0  0
 47 46  2  0  0  0  0
 49 48  1  0  0  0  0
M  END
>  <MODEL>
1

>  <REMARK>
 VINA RESULT:      -7.2      0.000      0.000
  Name = 
  6 active torsions:
  status: ('A' for Active; 'I' for Inactive)
    1  A    between atoms: CA_6  and  C_10
    2  A    between atoms: CA_6  and  C_16
    3  A    between atoms: CA_6  and  N_48
    4  A    between atoms: C_8  and  C_30
    5  A    between atoms: C_32  and  C_39
    6  A    between atoms: C_43  and  C_45
                            x       y       z     vdW  Elec       q    Type
                         _______ _______ _______ _____ _____    ______ ____

>  <TORSDO>
F 6

$$$$
=
 OpenBabel11062418183D

 49 55  0  0  1  0  0  0  0  0999 V2000
  194.4140  171.7060  142.4650 O   0  0  0  0  0  0  0  0  0  0  0  0
  190.0660  173.9770  144.5210 C   0  0  2  0  0  3  0  0  0  0  0  0
  189.4570  173.0810  141.7930 C   0  0  0  0  0  2  0  0  0  0  0  0
  192.4820  173.3330  144.3130 C   0  0  2  0  0  3  0  0  0  0  0  0
  194.6590  173.0160  142.9050 C   0  0  1  0  0  3  0  0  0  0  0  0
  194.5210  171.4040  145.7650 C   0  0  0  0  0  1  0  0  0  0  0  0
  187.3770  176.2270  142.0840 C   0  0  0  0  0  3  0  0  0  0  0  0
  191.4980  174.4750  144.3110 C   0  0  2  0  0  3  0  0  0  0  0  0
  193.0340  171.9790  142.3580 C   0  0  2  0  0  3  0  0  0  0  0  0
  193.3670  173.6080  145.5130 C   0  0  2  0  0  3  0  0  0  0  0  0
  192.6550  172.0840  140.8810 C   0  0  0  0  0  2  0  0  0  0  0  0
  187.9550  175.0650  141.5720 C   0  0  0  0  0  3  0  0  0  0  0  0
  190.6760  173.4080  141.1880 O   0  0  0  0  0  0  0  0  0  0  0  0
  193.4410  175.1130  145.6750 C   0  0  0  0  0  2  0  0  0  0  0  0
  188.8230  174.3090  142.3640 C   0  0  0  0  0  0  0  0  0  0  0  0
  191.1460  172.2060  140.6400 C   0  0  1  0  0  3  0  0  0  0  0  0
  189.0920  174.7350  143.6780 C   0  0  0  0  0  0  0  0  0  0  0  0
  189.6560  173.8860  145.9110 N   0  0  0  0  0  1  0  0  0  0  0  0
  193.1820  173.3600  142.9500 C   0  0  1  0  0  3  0  0  0  0  0  0
  195.4930  173.0920  144.1940 C   0  0  2  0  0  3  0  0  0  0  0  0
  187.6800  176.6270  143.3870 C   0  0  0  0  0  3  0  0  0  0  0  0
  192.1110  175.6230  145.1350 C   0  0  2  0  0  3  0  0  0  0  0  0
  194.7090  172.8840  145.4890 C   0  0  2  0  0  3  0  0  0  0  0  0
  188.5280  175.8820  144.1480 N   0  0  0  0  0  0  0  0  0  0  0  0
  190.6280  173.5450  138.5910 N   0  0  1  0  0  0  0  0  0  0  0  0
  188.8320  173.9810  137.0150 C   0  0  0  0  0  2  0  0  0  0  0  0
  190.9050  172.1900  139.1260 C   0  0  2  0  0  3  0  0  0  0  0  0
  190.5080  170.6910  136.4040 C   0  0  0  0  0  0  0  0  0  0  0  0
  190.2180  173.5270  134.9010 C   0  0  0  0  0  2  0  0  0  0  0  0
  191.2150  173.6530  137.2550 C   0  0  2  0  0  3  0  0  0  0  0  0
  189.6760  171.1450  137.2930 N   0  0  0  0  0  0  0  0  0  0  0  0
  192.2770  174.5570  137.2850 O   0  0  0  0  0  1  0  0  0  0  0  0
  189.8810  171.1060  138.7320 C   0  0  0  0  0  2  0  0  0  0  0  0
  189.1950  173.8580  138.4850 C   0  0  0  0  0  2  0  0  0  0  0  0
  190.3420  171.0790  135.0750 O   0  0  0  0  0  0  0  0  0  0  0  0
  190.1490  174.1570  136.3050 C   0  0  2  0  0  3  0  0  0  0  0  0
  189.5060  172.1770  134.7170 C   0  0  0  0  0  2  0  0  0  0  0  0
  191.6680  169.8110  136.7990 C   0  0  2  0  0  3  0  0  0  0  0  0
  195.1290  170.8860  137.3270 O   0  0  0  0  0  0  0  0  0  0  0  0
  193.8400  169.6260  138.7380 O   0  0  0  0  0  1  0  0  0  0  0  0
  194.0130  170.3600  137.5710 C   0  0  0  0  0  0  0  0  0  0  0  0
  192.9490  170.4870  136.6290 N   0  0  0  0  0  2  0  0  0  0  0  0
  191.6620  168.5130  135.9980 C   0  0  0  0  0  2  0  0  0  0  0  0
  192.5390  168.5900  134.9110 O   0  0  0  0  0  1  0  0  0  0  0  0
  197.2130  174.4860  145.1100 O   0  0  0  0  0  1  0  0  0  0  0  0
  196.3250  174.3430  144.2270 C   0  0  0  0  0  0  0  0  0  0  0  0
  196.0670  175.3910  143.3510 O   0  0  0  0  0  0  0  0  0  0  0  0
  191.8080  176.3060  147.5800 C   0  0  0  0  0  1  0  0  0  0  0  0
  191.2280  176.3310  146.1730 C   0  0  0  0  0  2  0  0  0  0  0  0
  1  5  1  0  0  0  0
  2 18  1  1  0  0  0
  3 15  1  0  0  0  0
  4 10  1  0  0  0  0
  5 19  1  0  0  0  0
  5 20  1  0  0  0  0
  7 21  1  0  0  0  0
  8  4  1  0  0  0  0
  8  2  1  0  0  0  0
  8 22  1  0  0  0  0
  9  1  1  0  0  0  0
  9 19  1  0  0  0  0
 10 14  1  0  0  0  0
 11  9  1  0  0  0  0
 12  7  2  0  0  0  0
 12 15  1  0  0  0  0
 13  3  1  0  0  0  0
 15 17  2  0  0  0  0
 16 11  1  0  0  0  0
 16 13  1  0  0  0  0
 17 24  1  0  0  0  0
 17  2  1  0  0  0  0
 19  4  1  0  0  0  0
 20 46  1  0  0  0  0
 20 23  1  0  0  0  0
 21 24  2  0  0  0  0
 22 14  1  0  0  0  0
 22 49  1  0  0  0  0
 23 10  1  0  0  0  0
 23  6  1  0  0  0  0
 25 27  1  0  0  0  0
 26 34  1  0  0  0  0
 27 16  1  0  0  0  0
 28 38  1  0  0  0  0
 28 31  2  0  0  0  0
 29 36  1  0  0  0  0
 30 32  1  0  0  0  0
 30 25  1  0  0  0  0
 31 33  1  0  0  0  0
 33 27  1  0  0  0  0
 34 25  1  0  0  0  0
 35 28  1  0  0  0  0
 36 26  1  0  0  0  0
 36 30  1  0  0  0  0
 37 29  1  0  0  0  0
 37 35  1  0  0  0  0
 39 41  2  0  0  0  0
 41 40  1  0  0  0  0
 42 38  1  0  0  0  0
 42 41  1  0  0  0  0
 43 38  1  0  0  0  0
 44 43  1  0  0  0  0
 46 45  1  0  0  0  0
 47 46  2  0  0  0  0
 49 48  1  0  0  0  0
M  END
>  <MODEL>
2

>  <REMARK>
 VINA RESULT:      -7.1      1.425      2.464
  Name = 
  6 active torsions:
  status: ('A' for Active; 'I' for Inactive)
    1  A    between atoms: CA_6  and  C_10
    2  A    between atoms: CA_6  and  C_16
    3  A    between atoms: CA_6  and  N_48
    4  A    between atoms: C_8  and  C_30
    5  A    between atoms: C_32  and  C_39
    6  A    between atoms: C_43  and  C_45
                            x       y       z     vdW  Elec       q    Type
                         _______ _______ _______ _____ _____    ______ ____

>  <TORSDO>
F 6

$$$$
=
 OpenBabel11062418183D

 49 55  0  0  1  0  0  0  0  0999 V2000
  189.2690  172.2460  139.3030 O   0  0  0  0  0  0  0  0  0  0  0  0
  194.5170  173.0560  139.5970 C   0  0  2  0  0  3  0  0  0  0  0  0
  193.2770  174.0290  142.0720 C   0  0  0  0  0  2  0  0  0  0  0  0
  192.2950  172.5320  138.5570 C   0  0  2  0  0  3  0  0  0  0  0  0
  189.7480  173.0060  138.2250 C   0  0  1  0  0  3  0  0  0  0  0  0
  190.7940  170.0050  137.3950 C   0  0  0  0  0  1  0  0  0  0  0  0
  196.1250  176.4710  141.5920 C   0  0  0  0  0  3  0  0  0  0  0  0
  193.4530  173.4960  138.5890 C   0  0  2  0  0  3  0  0  0  0  0  0
  190.3890  172.6060  140.0810 C   0  0  2  0  0  3  0  0  0  0  0  0
  192.3160  171.9740  137.1470 C   0  0  2  0  0  3  0  0  0  0  0  0
  189.9560  173.6050  141.1540 C   0  0  0  0  0  2  0  0  0  0  0  0
  195.0130  175.8240  142.1320 C   0  0  0  0  0  3  0  0  0  0  0  0
  192.1170  174.5840  141.5210 O   0  0  0  0  0  0  0  0  0  0  0  0
  192.8500  173.0670  136.2440 C   0  0  0  0  0  2  0  0  0  0  0  0
  194.4870  174.6950  141.4980 C   0  0  0  0  0  0  0  0  0  0  0  0
  191.0570  173.9340  142.1680 C   0  0  1  0  0  3  0  0  0  0  0  0
  195.1010  174.2240  140.3230 C   0  0  0  0  0  0  0  0  0  0  0  0
  195.5300  172.1660  139.0550 N   0  0  0  0  0  1  0  0  0  0  0  0
  191.0470  173.3370  138.9350 C   0  0  1  0  0  3  0  0  0  0  0  0
  189.7870  172.2390  136.8940 C   0  0  2  0  0  3  0  0  0  0  0  0
  196.6990  175.9830  140.4160 C   0  0  0  0  0  3  0  0  0  0  0  0
  193.7870  173.8750  137.1330 C   0  0  2  0  0  3  0  0  0  0  0  0
  191.0040  171.3360  136.7000 C   0  0  2  0  0  3  0  0  0  0  0  0
  196.1760  174.8830  139.8090 N   0  0  0  0  0  0  0  0  0  0  0  0
  190.9220  174.4960  144.6020 N   0  0  1  0  0  0  0  0  0  0  0  0
  189.4150  174.3530  146.5010 C   0  0  0  0  0  2  0  0  0  0  0  0
  190.4550  174.8510  143.2410 C   0  0  2  0  0  3  0  0  0  0  0  0
  188.5130  177.1300  144.1590 C   0  0  0  0  0  0  0  0  0  0  0  0
  189.6030  176.8240  147.1760 C   0  0  0  0  0  2  0  0  0  0  0  0
  191.0650  175.7240  145.3860 C   0  0  2  0  0  3  0  0  0  0  0  0
  188.4060  175.8360  144.1300 N   0  0  0  0  0  0  0  0  0  0  0  0
  192.4150  175.9510  145.6540 O   0  0  0  0  0  1  0  0  0  0  0  0
  188.9260  174.9730  143.0820 C   0  0  0  0  0  2  0  0  0  0  0  0
  190.0110  173.5970  145.3270 C   0  0  0  0  0  2  0  0  0  0  0  0
  188.2620  177.7940  145.3600 O   0  0  0  0  0  0  0  0  0  0  0  0
  190.3140  175.5470  146.6890 C   0  0  2  0  0  3  0  0  0  0  0  0
  188.2030  177.0950  146.6010 C   0  0  0  0  0  2  0  0  0  0  0  0
  188.9560  177.9030  142.9420 C   0  0  2  0  0  3  0  0  0  0  0  0
  186.7000  177.3300  140.1150 O   0  0  0  0  0  0  0  0  0  0  0  0
  186.3100  178.6340  141.9560 O   0  0  0  0  0  1  0  0  0  0  0  0
  187.1030  177.7540  141.2280 C   0  0  0  0  0  0  0  0  0  0  0  0
  188.3850  177.3620  141.7140 N   0  0  0  0  0  2  0  0  0  0  0  0
  190.4780  177.9200  142.8350 C   0  0  0  0  0  2  0  0  0  0  0  0
  191.0410  178.7340  143.8240 O   0  0  0  0  0  1  0  0  0  0  0  0
  189.5850  172.7120  134.5540 O   0  0  0  0  0  0  0  0  0  0  0  0
  189.5740  173.1660  135.7290 C   0  0  0  0  0  0  0  0  0  0  0  0
  189.4570  174.5370  135.9250 O   0  0  0  0  0  1  0  0  0  0  0  0
  195.7810  175.2270  136.2780 C   0  0  0  0  0  1  0  0  0  0  0  0
  195.2580  173.8600  136.6930 C   0  0  0  0  0  2  0  0  0  0  0  0
  1  9  1  0  0  0  0
  2 18  1  6  0  0  0
  2 17  1  0  0  0  0
  4  8  1  0  0  0  0
  4 19  1  0  0  0  0
  5 19  1  0  0  0  0
  5  1  1  0  0  0  0
  7 12  1  0  0  0  0
  8  2  1  0  0  0  0
  9 11  1  0  0  0  0
 10  4  1  0  0  0  0
 11 16  1  0  0  0  0
 13  3  1  0  0  0  0
 13 16  1  0  0  0  0
 14 22  1  0  0  0  0
 14 10  1  0  0  0  0
 15  3  1  0  0  0  0
 15 12  2  0  0  0  0
 16 27  1  0  0  0  0
 17 15  1  0  0  0  0
 19  9  1  0  0  0  0
 20  5  1  0  0  0  0
 21  7  2  0  0  0  0
 22  8  1  0  0  0  0
 23 20  1  0  0  0  0
 23 10  1  0  0  0  0
 23  6  1  0  0  0  0
 24 17  2  0  0  0  0
 24 21  1  0  0  0  0
 25 34  1  0  0  0  0
 25 30  1  0  0  0  0
 26 36  1  0  0  0  0
 27 25  1  0  0  0  0
 28 35  1  0  0  0  0
 30 32  1  0  0  0  0
 30 36  1  0  0  0  0
 31 28  2  0  0  0  0
 33 27  1  0  0  0  0
 33 31  1  0  0  0  0
 34 26  1  0  0  0  0
 35 37  1  0  0  0  0
 36 29  1  0  0  0  0
 37 29  1  0  0  0  0
 38 28  1  0  0  0  0
 39 41  2  0  0  0  0
 41 42  1  0  0  0  0
 41 40  1  0  0  0  0
 42 38  1  0  0  0  0
 43 38  1  0  0  0  0
 43 44  1  0  0  0  0
 45 46  2  0  0  0  0
 46 47  1  0  0  0  0
 46 20  1  0  0  0  0
 48 49  1  0  0  0  0
 49 22  1  0  0  0  0
M  END
>  <MODEL>
3

>  <REMARK>
 VINA RESULT:      -7.0      2.855      8.724
  Name = 
  6 active torsions:
  status: ('A' for Active; 'I' for Inactive)
    1  A    between atoms: CA_6  and  C_10
    2  A    between atoms: CA_6  and  C_16
    3  A    between atoms: CA_6  and  N_48
    4  A    between atoms: C_8  and  C_30
    5  A    between atoms: C_32  and  C_39
    6  A    between atoms: C_43  and  C_45
                            x       y       z     vdW  Elec       q    Type
                         _______ _______ _______ _____ _____    ______ ____

>  <TORSDO>
F 6

$$$$
=
 OpenBabel11062418183D

 49 55  0  0  1  0  0  0  0  0999 V2000
  189.6730  175.3040  142.6980 O   0  0  0  0  0  0  0  0  0  0  0  0
  194.9670  175.6350  143.0970 C   0  0  2  0  0  3  0  0  0  0  0  0
  194.2930  174.4580  140.4950 C   0  0  0  0  0  2  0  0  0  0  0  0
  192.5680  175.6580  143.8340 C   0  0  2  0  0  3  0  0  0  0  0  0
  190.1600  174.6470  143.8390 C   0  0  1  0  0  3  0  0  0  0  0  0
  190.4260  177.7900  144.7580 C   0  0  0  0  0  1  0  0  0  0  0  0
  197.5100  172.6720  141.3720 C   0  0  0  0  0  3  0  0  0  0  0  0
  193.8990  174.9640  143.9650 C   0  0  2  0  0  3  0  0  0  0  0  0
  190.9350  175.2020  142.0770 C   0  0  2  0  0  3  0  0  0  0  0  0
  192.2870  176.1870  145.2270 C   0  0  2  0  0  3  0  0  0  0  0  0
  190.8680  174.1500  140.9690 C   0  0  0  0  0  2  0  0  0  0  0  0
  196.3640  173.0750  140.6840 C   0  0  0  0  0  3  0  0  0  0  0  0
  193.2160  173.6600  140.8980 O   0  0  0  0  0  0  0  0  0  0  0  0
  192.9210  175.2190  146.2060 C   0  0  0  0  0  2  0  0  0  0  0  0
  195.5330  174.0560  141.2290 C   0  0  0  0  0  0  0  0  0  0  0  0
  192.1350  174.0780  140.1110 C   0  0  1  0  0  3  0  0  0  0  0  0
  195.8750  174.6300  142.4680 C   0  0  0  0  0  0  0  0  0  0  0  0
  195.6870  176.7130  143.7540 N   0  0  0  0  0  1  0  0  0  0  0  0
  191.5800  174.6110  143.3080 C   0  0  1  0  0  3  0  0  0  0  0  0
  189.8620  175.3840  145.1540 C   0  0  2  0  0  3  0  0  0  0  0  0
  197.8090  173.2530  142.6050 C   0  0  0  0  0  3  0  0  0  0  0  0
  194.1160  174.6430  145.4560 C   0  0  2  0  0  3  0  0  0  0  0  0
  190.8230  176.5230  145.4920 C   0  0  2  0  0  3  0  0  0  0  0  0
  196.9890  174.2070  143.1260 N   0  0  0  0  0  0  0  0  0  0  0  0
  192.2630  173.6170  137.6560 N   0  0  1  0  0  0  0  0  0  0  0  0
  190.8500  173.3700  135.6960 C   0  0  0  0  0  2  0  0  0  0  0  0
  191.8860  173.0710  138.9820 C   0  0  2  0  0  3  0  0  0  0  0  0
  190.7880  170.3450  137.8980 C   0  0  0  0  0  0  0  0  0  0  0  0
  191.8260  171.1160  134.9470 C   0  0  0  0  0  2  0  0  0  0  0  0
  192.8090  172.5330  136.8380 C   0  0  2  0  0  3  0  0  0  0  0  0
  190.2800  171.5390  137.9660 N   0  0  0  0  0  0  0  0  0  0  0  0
  194.1710  172.7500  136.6250 O   0  0  0  0  0  1  0  0  0  0  0  0
  190.4690  172.4710  139.0660 C   0  0  0  0  0  2  0  0  0  0  0  0
  191.1400  174.2190  136.9210 C   0  0  0  0  0  2  0  0  0  0  0  0
  190.7970  169.6930  136.6660 O   0  0  0  0  0  0  0  0  0  0  0  0
  192.0840  172.5260  135.5090 C   0  0  2  0  0  3  0  0  0  0  0  0
  190.5630  170.3960  135.4480 C   0  0  0  0  0  2  0  0  0  0  0  0
  191.4110  169.6930  139.1080 C   0  0  2  0  0  3  0  0  0  0  0  0
  194.9870  169.6790  139.8970 O   0  0  0  0  0  0  0  0  0  0  0  0
  193.2790  170.4320  141.2230 O   0  0  0  0  0  1  0  0  0  0  0  0
  193.7560  169.9000  140.0310 C   0  0  0  0  0  0  0  0  0  0  0  0
  192.8570  169.5650  138.9760 N   0  0  0  0  0  2  0  0  0  0  0  0
  190.7950  168.3210  139.3620 C   0  0  0  0  0  2  0  0  0  0  0  0
  190.4470  168.1680  140.7080 O   0  0  0  0  0  1  0  0  0  0  0  0
  189.6650  173.1780  146.0660 O   0  0  0  0  0  0  0  0  0  0  0  0
  189.7030  174.4160  146.2930 C   0  0  0  0  0  0  0  0  0  0  0  0
  189.5040  174.8740  147.5910 O   0  0  0  0  0  1  0  0  0  0  0  0
  196.4160  173.7670  146.1450 C   0  0  0  0  0  1  0  0  0  0  0  0
  195.4800  174.9650  146.0820 C   0  0  0  0  0  2  0  0  0  0  0  0
  1  5  1  0  0  0  0
  2 18  1  1  0  0  0
  2  8  1  0  0  0  0
  3 13  1  0  0  0  0
  3 15  1  0  0  0  0
  4  8  1  0  0  0  0
  4 10  1  0  0  0  0
  5 20  1  0  0  0  0
  6 23  1  0  0  0  0
  7 21  1  0  0  0  0
  8 22  1  0  0  0  0
  9  1  1  0  0  0  0
  9 19  1  0  0  0  0
 10 23  1  0  0  0  0
 10 14  1  0  0  0  0
 11  9  1  0  0  0  0
 12 15  1  0  0  0  0
 12  7  2  0  0  0  0
 15 17  2  0  0  0  0
 16 13  1  0  0  0  0
 16 11  1  0  0  0  0
 17  2  1  0  0  0  0
 17 24  1  0  0  0  0
 19  4  1  0  0  0  0
 19  5  1  0  0  0  0
 20 23  1  0  0  0  0
 20 46  1  0  0  0  0
 21 24  2  0  0  0  0
 22 49  1  0  0  0  0
 22 14  1  0  0  0  0
 25 27  1  0  0  0  0
 26 34  1  0  0  0  0
 27 33  1  0  0  0  0
 27 16  1  0  0  0  0
 28 31  2  0  0  0  0
 28 38  1  0  0  0  0
 29 37  1  0  0  0  0
 29 36  1  0  0  0  0
 30 25  1  0  0  0  0
 31 33  1  0  0  0  0
 32 30  1  0  0  0  0
 34 25  1  0  0  0  0
 35 28  1  0  0  0  0
 36 26  1  0  0  0  0
 36 30  1  0  0  0  0
 37 35  1  0  0  0  0
 38 43  1  0  0  0  0
 39 41  2  0  0  0  0
 41 40  1  0  0  0  0
 42 38  1  0  0  0  0
 42 41  1  0  0  0  0
 43 44  1  0  0  0  0
 45 46  2  0  0  0  0
 46 47  1  0  0  0  0
 49 48  1  0  0  0  0
M  END
>  <MODEL>
4

>  <REMARK>
 VINA RESULT:      -6.8      2.793      5.461
  Name = 
  6 active torsions:
  status: ('A' for Active; 'I' for Inactive)
    1  A    between atoms: CA_6  and  C_10
    2  A    between atoms: CA_6  and  C_16
    3  A    between atoms: CA_6  and  N_48
    4  A    between atoms: C_8  and  C_30
    5  A    between atoms: C_32  and  C_39
    6  A    between atoms: C_43  and  C_45
                            x       y       z     vdW  Elec       q    Type
                         _______ _______ _______ _____ _____    ______ ____

>  <TORSDO>
F 6

$$$$
=
 OpenBabel11062418183D

 49 55  0  0  1  0  0  0  0  0999 V2000
  191.2560  173.3030  145.0700 O   0  0  0  0  0  0  0  0  0  0  0  0
  187.0790  175.7180  142.8320 C   0  0  2  0  0  3  0  0  0  0  0  0
  188.2700  173.8910  140.8680 C   0  0  0  0  0  2  0  0  0  0  0  0
  188.8890  175.2730  144.5110 C   0  0  2  0  0  3  0  0  0  0  0  0
  191.3640  174.7010  145.1190 C   0  0  1  0  0  3  0  0  0  0  0  0
  189.1220  174.1570  147.4580 C   0  0  0  0  0  1  0  0  0  0  0  0
  187.0660  176.7360  138.6850 C   0  0  0  0  0  3  0  0  0  0  0  0
  188.3530  176.2470  143.4930 C   0  0  2  0  0  3  0  0  0  0  0  0
  190.3540  173.3910  143.9890 C   0  0  2  0  0  3  0  0  0  0  0  0
  188.8000  176.0240  145.8250 C   0  0  2  0  0  3  0  0  0  0  0  0
  191.0600  172.9490  142.7070 C   0  0  0  0  0  2  0  0  0  0  0  0
  187.6350  175.5280  139.0910 C   0  0  0  0  0  3  0  0  0  0  0  0
  189.6190  174.1050  141.1740 O   0  0  0  0  0  0  0  0  0  0  0  0
  188.9970  177.4930  145.5120 C   0  0  0  0  0  2  0  0  0  0  0  0
  187.6310  175.1750  140.4430 C   0  0  0  0  0  0  0  0  0  0  0  0
  190.1270  172.8390  141.4960 C   0  0  1  0  0  3  0  0  0  0  0  0
  187.0390  176.0470  141.3750 C   0  0  0  0  0  0  0  0  0  0  0  0
  185.8500  176.0690  143.5230 N   0  0  0  0  0  1  0  0  0  0  0  0
  190.3030  174.8990  144.0530 C   0  0  1  0  0  3  0  0  0  0  0  0
  191.1470  175.2910  146.5220 C   0  0  2  0  0  3  0  0  0  0  0  0
  186.5010  177.5830  139.6400 C   0  0  0  0  0  3  0  0  0  0  0  0
  188.4550  177.6600  144.0980 C   0  0  2  0  0  3  0  0  0  0  0  0
  189.6860  175.4640  146.9340 C   0  0  2  0  0  3  0  0  0  0  0  0
  186.5040  177.2270  140.9540 N   0  0  0  0  0  0  0  0  0  0  0  0
  190.5330  170.9020  139.9670 N   0  0  1  0  0  0  0  0  0  0  0  0
  192.1490  169.1440  139.5210 C   0  0  0  0  0  2  0  0  0  0  0  0
  190.9390  172.2830  140.3200 C   0  0  2  0  0  3  0  0  0  0  0  0
  193.2600  172.4740  138.2250 C   0  0  0  0  0  0  0  0  0  0  0  0
  192.3770  169.6240  137.0080 C   0  0  0  0  0  2  0  0  0  0  0  0
  190.6340  170.7380  138.5160 C   0  0  2  0  0  3  0  0  0  0  0  0
  193.1740  171.9310  139.4030 N   0  0  0  0  0  0  0  0  0  0  0  0
  189.3570  170.5890  137.9740 O   0  0  0  0  0  1  0  0  0  0  0  0
  192.4510  172.4900  140.5350 C   0  0  0  0  0  2  0  0  0  0  0  0
  191.3580  169.8620  140.6010 C   0  0  0  0  0  2  0  0  0  0  0  0
  193.6990  171.6900  137.1590 O   0  0  0  0  0  0  0  0  0  0  0  0
  191.4510  169.4950  138.2320 C   0  0  2  0  0  3  0  0  0  0  0  0
  193.7520  170.2690  137.2510 C   0  0  0  0  0  2  0  0  0  0  0  0
  192.8400  173.9050  137.9950 C   0  0  2  0  0  3  0  0  0  0  0  0
  190.5260  174.4520  135.2100 O   0  0  0  0  0  0  0  0  0  0  0  0
  189.9890  173.9800  137.3850 O   0  0  0  0  0  1  0  0  0  0  0  0
  190.9200  174.1770  136.3720 C   0  0  0  0  0  0  0  0  0  0  0  0
  192.3170  174.1110  136.6490 N   0  0  0  0  0  2  0  0  0  0  0  0
  194.0040  174.8590  138.2440 C   0  0  0  0  0  2  0  0  0  0  0  0
  194.8960  174.8550  137.1670 O   0  0  0  0  0  1  0  0  0  0  0  0
  192.7700  176.9100  145.8270 O   0  0  0  0  0  0  0  0  0  0  0  0
  191.9450  176.5510  146.7090 C   0  0  0  0  0  0  0  0  0  0  0  0
  191.8520  177.2810  147.8880 O   0  0  0  0  0  1  0  0  0  0  0  0
  186.4530  178.7230  145.2800 C   0  0  0  0  0  1  0  0  0  0  0  0
  187.2400  178.5930  143.9850 C   0  0  0  0  0  2  0  0  0  0  0  0
  1  5  1  0  0  0  0
  2  8  1  0  0  0  0
  2 18  1  1  0  0  0
  3 13  1  0  0  0  0
  4 10  1  0  0  0  0
  5 20  1  0  0  0  0
  7 12  2  0  0  0  0
  7 21  1  0  0  0  0
  8 22  1  0  0  0  0
  8  4  1  0  0  0  0
  9 19  1  0  0  0  0
  9  1  1  0  0  0  0
 10 23  1  0  0  0  0
 11  9  1  0  0  0  0
 12 15  1  0  0  0  0
 13 16  1  0  0  0  0
 14 10  1  0  0  0  0
 15  3  1  0  0  0  0
 15 17  2  0  0  0  0
 16 11  1  0  0  0  0
 17  2  1  0  0  0  0
 19  4  1  0  0  0  0
 19  5  1  0  0  0  0
 20 46  1  0  0  0  0
 20 23  1  0  0  0  0
 21 24  2  0  0  0  0
 22 14  1  0  0  0  0
 23  6  1  0  0  0  0
 24 17  1  0  0  0  0
 25 27  1  0  0  0  0
 25 34  1  0  0  0  0
 26 34  1  0  0  0  0
 27 33  1  0  0  0  0
 27 16  1  0  0  0  0
 28 31  2  0  0  0  0
 29 37  1  0  0  0  0
 29 36  1  0  0  0  0
 30 25  1  0  0  0  0
 31 33  1  0  0  0  0
 32 30  1  0  0  0  0
 35 37  1  0  0  0  0
 35 28  1  0  0  0  0
 36 30  1  0  0  0  0
 36 26  1  0  0  0  0
 38 28  1  0  0  0  0
 38 43  1  0  0  0  0
 39 41  2  0  0  0  0
 41 42  1  0  0  0  0
 41 40  1  0  0  0  0
 42 38  1  0  0  0  0
 44 43  1  0  0  0  0
 45 46  2  0  0  0  0
 46 47  1  0  0  0  0
 49 22  1  0  0  0  0
 49 48  1  0  0  0  0
M  END
>  <MODEL>
5

>  <REMARK>
 VINA RESULT:      -6.6      2.642      3.891
  Name = 
  6 active torsions:
  status: ('A' for Active; 'I' for Inactive)
    1  A    between atoms: CA_6  and  C_10
    2  A    between atoms: CA_6  and  C_16
    3  A    between atoms: CA_6  and  N_48
    4  A    between atoms: C_8  and  C_30
    5  A    between atoms: C_32  and  C_39
    6  A    between atoms: C_43  and  C_45
                            x       y       z     vdW  Elec       q    Type
                         _______ _______ _______ _____ _____    ______ ____

>  <TORSDO>
F 6

$$$$
=
 OpenBabel11062418183D

 49 55  0  0  1  0  0  0  0  0999 V2000
  194.8150  175.2890  137.8770 O   0  0  0  0  0  0  0  0  0  0  0  0
  191.3740  171.2560  138.3050 C   0  0  2  0  0  3  0  0  0  0  0  0
  191.3890  172.7500  140.8310 C   0  0  0  0  0  2  0  0  0  0  0  0
  193.2320  172.6420  137.3440 C   0  0  2  0  0  3  0  0  0  0  0  0
  195.4160  174.0490  137.6080 C   0  0  1  0  0  3  0  0  0  0  0  0
  193.6940  174.5290  134.8510 C   0  0  0  0  0  1  0  0  0  0  0  0
  190.8170  169.2000  142.0050 C   0  0  0  0  0  3  0  0  0  0  0  0
  192.8650  171.3180  137.9640 C   0  0  2  0  0  3  0  0  0  0  0  0
  193.7900  174.6550  138.6090 C   0  0  2  0  0  3  0  0  0  0  0  0
  193.7010  172.2810  135.9480 C   0  0  2  0  0  3  0  0  0  0  0  0
  193.9980  174.9200  140.1000 C   0  0  0  0  0  2  0  0  0  0  0  0
  190.9990  170.5830  142.0120 C   0  0  0  0  0  3  0  0  0  0  0  0
  192.7590  173.0270  140.9030 O   0  0  0  0  0  0  0  0  0  0  0  0
  194.3290  170.9050  136.0320 C   0  0  0  0  0  2  0  0  0  0  0  0
  191.1650  171.2710  140.8070 C   0  0  0  0  0  0  0  0  0  0  0  0
  192.8460  174.4240  140.9800 C   0  0  1  0  0  3  0  0  0  0  0  0
  191.1360  170.5490  139.5990 C   0  0  0  0  0  0  0  0  0  0  0  0
  190.5290  170.7640  137.2300 N   0  0  0  0  0  1  0  0  0  0  0  0
  194.2880  173.2730  138.2580 C   0  0  1  0  0  3  0  0  0  0  0  0
  195.7310  173.8230  136.1200 C   0  0  2  0  0  3  0  0  0  0  0  0
  190.8080  168.5150  140.7880 C   0  0  0  0  0  3  0  0  0  0  0  0
  193.5860  170.2130  137.1680 C   0  0  2  0  0  3  0  0  0  0  0  0
  194.5520  173.3510  135.2710 C   0  0  2  0  0  3  0  0  0  0  0  0
  190.9730  169.1970  139.6220 N   0  0  0  0  0  0  0  0  0  0  0  0
  191.9190  175.3600  143.1060 N   0  0  1  0  0  0  0  0  0  0  0  0
  191.9300  177.3820  144.4520 C   0  0  0  0  0  2  0  0  0  0  0  0
  193.1330  174.8530  142.4240 C   0  0  2  0  0  3  0  0  0  0  0  0
  195.0880  175.4060  144.8090 C   0  0  0  0  0  0  0  0  0  0  0  0
  192.5790  176.2320  146.6550 C   0  0  0  0  0  2  0  0  0  0  0  0
  191.9700  174.9660  144.5150 C   0  0  2  0  0  3  0  0  0  0  0  0
  194.5820  176.1670  143.8850 N   0  0  0  0  0  0  0  0  0  0  0  0
  190.9700  174.0280  144.7730 O   0  0  0  0  0  1  0  0  0  0  0  0
  194.3650  175.7770  142.5010 C   0  0  0  0  0  2  0  0  0  0  0  0
  191.7740  176.8230  143.0490 C   0  0  0  0  0  2  0  0  0  0  0  0
  194.9400  175.7870  146.1420 O   0  0  0  0  0  0  0  0  0  0  0  0
  191.7390  176.1980  145.3640 C   0  0  2  0  0  3  0  0  0  0  0  0
  194.0060  176.7900  146.5330 C   0  0  0  0  0  2  0  0  0  0  0  0
  195.7690  174.1050  144.4600 C   0  0  2  0  0  3  0  0  0  0  0  0
  194.1640  170.8150  144.5520 O   0  0  0  0  0  1  0  0  0  0  0  0
  195.1600  171.8210  142.7530 O   0  0  0  0  0  0  0  0  0  0  0  0
  194.7440  171.8260  144.0790 C   0  0  0  0  0  0  0  0  0  0  0  0
  195.0060  172.9490  144.9160 N   0  0  0  0  0  2  0  0  0  0  0  0
  197.1750  174.0560  145.0480 C   0  0  0  0  0  2  0  0  0  0  0  0
  197.1920  173.3470  146.2540 O   0  0  0  0  0  1  0  0  0  0  0  0
  197.3890  172.7090  134.7970 O   0  0  0  0  0  0  0  0  0  0  0  0
  196.9420  172.9470  135.9510 C   0  0  0  0  0  0  0  0  0  0  0  0
  197.5230  172.3200  137.0460 O   0  0  0  0  0  1  0  0  0  0  0  0
  192.8150  168.7110  135.2480 C   0  0  0  0  0  1  0  0  0  0  0  0
  192.7830  168.9730  136.7470 C   0  0  0  0  0  2  0  0  0  0  0  0
  1  9  1  0  0  0  0
  2 18  1  6  0  0  0
  2 17  1  0  0  0  0
  3 13  1  0  0  0  0
  4  8  1  0  0  0  0
  4 19  1  0  0  0  0
  5  1  1  0  0  0  0
  5 19  1  0  0  0  0
  6 23  1  0  0  0  0
  7 12  1  0  0  0  0
  8  2  1  0  0  0  0
  9 11  1  0  0  0  0
 10 14  1  0  0  0  0
 10  4  1  0  0  0  0
 11 16  1  0  0  0  0
 13 16  1  0  0  0  0
 14 22  1  0  0  0  0
 15  3  1  0  0  0  0
 15 12  2  0  0  0  0
 16 27  1  0  0  0  0
 17 24  2  0  0  0  0
 17 15  1  0  0  0  0
 19  9  1  0  0  0  0
 20  5  1  0  0  0  0
 21  7  2  0  0  0  0
 22  8  1  0  0  0  0
 23 10  1  0  0  0  0
 23 20  1  0  0  0  0
 24 21  1  0  0  0  0
 25 30  1  0  0  0  0
 26 36  1  0  0  0  0
 27 33  1  0  0  0  0
 27 25  1  0  0  0  0
 28 35  1  0  0  0  0
 30 32  1  0  0  0  0
 30 36  1  0  0  0  0
 31 28  2  0  0  0  0
 33 31  1  0  0  0  0
 34 25  1  0  0  0  0
 34 26  1  0  0  0  0
 35 37  1  0  0  0  0
 36 29  1  0  0  0  0
 37 29  1  0  0  0  0
 38 28  1  0  0  0  0
 38 42  1  0  0  0  0
 38 43  1  0  0  0  0
 40 41  2  0  0  0  0
 41 39  1  0  0  0  0
 41 42  1  0  0  0  0
 43 44  1  0  0  0  0
 45 46  2  0  0  0  0
 46 20  1  0  0  0  0
 46 47  1  0  0  0  0
 48 49  1  0  0  0  0
 49 22  1  0  0  0  0
M  END
>  <MODEL>
6

>  <REMARK>
 VINA RESULT:      -6.5      2.445      8.516
  Name = 
  6 active torsions:
  status: ('A' for Active; 'I' for Inactive)
    1  A    between atoms: CA_6  and  C_10
    2  A    between atoms: CA_6  and  C_16
    3  A    between atoms: CA_6  and  N_48
    4  A    between atoms: C_8  and  C_30
    5  A    between atoms: C_32  and  C_39
    6  A    between atoms: C_43  and  C_45
                            x       y       z     vdW  Elec       q    Type
                         _______ _______ _______ _____ _____    ______ ____

>  <TORSDO>
F 6

$$$$
=
 OpenBabel11062418183D

 49 55  0  0  1  0  0  0  0  0999 V2000
  188.8850  172.6600  141.1250 O   0  0  0  0  0  0  0  0  0  0  0  0
  192.9260  173.1720  144.5450 C   0  0  2  0  0  3  0  0  0  0  0  0
  190.6330  174.6910  145.5680 C   0  0  0  0  0  2  0  0  0  0  0  0
  191.7380  172.5980  142.4110 C   0  0  2  0  0  3  0  0  0  0  0  0
  190.0410  173.1610  140.5080 C   0  0  1  0  0  3  0  0  0  0  0  0
  190.8370  169.9940  140.8640 C   0  0  0  0  0  1  0  0  0  0  0  0
  193.5590  176.8020  146.7030 C   0  0  0  0  0  3  0  0  0  0  0  0
  192.7850  173.4730  143.0510 C   0  0  2  0  0  3  0  0  0  0  0  0
  189.3470  173.0940  142.3860 C   0  0  2  0  0  3  0  0  0  0  0  0
  192.5100  171.7740  141.4010 C   0  0  2  0  0  3  0  0  0  0  0  0
  188.5330  174.3100  142.8300 C   0  0  0  0  0  2  0  0  0  0  0  0
  192.2560  176.3470  146.4960 C   0  0  0  0  0  3  0  0  0  0  0  0
  190.1600  175.2010  144.3540 O   0  0  0  0  0  0  0  0  0  0  0  0
  193.6610  172.6310  140.9140 C   0  0  0  0  0  2  0  0  0  0  0  0
  192.0350  175.1520  145.8070 C   0  0  0  0  0  0  0  0  0  0  0  0
  188.8320  174.7600  144.2630 C   0  0  1  0  0  3  0  0  0  0  0  0
  193.1420  174.4200  145.3380 C   0  0  0  0  0  0  0  0  0  0  0  0
  193.8870  172.1300  144.8620 N   0  0  0  0  0  1  0  0  0  0  0  0
  190.6780  173.5410  141.8310 C   0  0  1  0  0  3  0  0  0  0  0  0
  190.7440  172.1470  139.5920 C   0  0  2  0  0  3  0  0  0  0  0  0
  194.6320  176.0560  146.2100 C   0  0  0  0  0  3  0  0  0  0  0  0
  193.9910  173.5360  142.0950 C   0  0  2  0  0  3  0  0  0  0  0  0
  191.6510  171.1470  140.3070 C   0  0  2  0  0  3  0  0  0  0  0  0
  194.4020  174.8950  145.5390 N   0  0  0  0  0  0  0  0  0  0  0  0
  188.1410  176.4670  145.9560 N   0  0  1  0  0  0  0  0  0  0  0  0
  186.3650  176.9590  147.5380 C   0  0  0  0  0  2  0  0  0  0  0  0
  187.8740  175.9060  144.6100 C   0  0  2  0  0  3  0  0  0  0  0  0
  185.3870  177.7120  144.0050 C   0  0  0  0  0  0  0  0  0  0  0  0
  185.9370  179.3560  146.7210 C   0  0  0  0  0  2  0  0  0  0  0  0
  187.8920  177.9100  145.9230 C   0  0  2  0  0  3  0  0  0  0  0  0
  185.5430  176.6260  144.7010 N   0  0  0  0  0  0  0  0  0  0  0  0
  189.0980  178.5940  146.0780 O   0  0  0  0  0  1  0  0  0  0  0  0
  186.4080  175.5140  144.3400 C   0  0  0  0  0  2  0  0  0  0  0  0
  187.3050  175.8860  147.0170 C   0  0  0  0  0  2  0  0  0  0  0  0
  184.7920  178.8160  144.6150 O   0  0  0  0  0  0  0  0  0  0  0  0
  186.9620  178.2590  147.0650 C   0  0  2  0  0  3  0  0  0  0  0  0
  184.6420  178.8960  146.0300 C   0  0  0  0  0  2  0  0  0  0  0  0
  185.8880  177.8050  142.5850 C   0  0  2  0  0  3  0  0  0  0  0  0
  189.3160  178.6790  141.6380 O   0  0  0  0  0  1  0  0  0  0  0  0
  188.1830  176.7580  141.1210 O   0  0  0  0  0  0  0  0  0  0  0  0
  188.2690  177.9920  141.7560 C   0  0  0  0  0  0  0  0  0  0  0  0
  187.1660  178.5020  142.5020 N   0  0  0  0  0  2  0  0  0  0  0  0
  184.8650  178.5030  141.6940 C   0  0  0  0  0  2  0  0  0  0  0  0
  185.1220  178.2520  140.3420 O   0  0  0  0  0  1  0  0  0  0  0  0
  192.4490  172.3020  137.9160 O   0  0  0  0  0  0  0  0  0  0  0  0
  191.4440  172.8380  138.4550 C   0  0  0  0  0  0  0  0  0  0  0  0
  191.0530  174.1090  138.0480 O   0  0  0  0  0  1  0  0  0  0  0  0
  196.1890  172.2350  141.9940 C   0  0  0  0  0  1  0  0  0  0  0  0
  195.3980  173.3400  142.6780 C   0  0  0  0  0  2  0  0  0  0  0  0
  1  9  1  0  0  0  0
  2 18  1  6  0  0  0
  2 17  1  0  0  0  0
  3 15  1  0  0  0  0
  4  8  1  0  0  0  0
  5  1  1  0  0  0  0
  5 19  1  0  0  0  0
  8  2  1  0  0  0  0
  9 11  1  0  0  0  0
 10  4  1  0  0  0  0
 11 16  1  0  0  0  0
 12  7  1  0  0  0  0
 13  3  1  0  0  0  0
 14 10  1  0  0  0  0
 14 22  1  0  0  0  0
 15 12  2  0  0  0  0
 16 13  1  0  0  0  0
 16 27  1  0  0  0  0
 17 24  2  0  0  0  0
 17 15  1  0  0  0  0
 19  9  1  0  0  0  0
 19  4  1  0  0  0  0
 20 23  1  0  0  0  0
 20  5  1  0  0  0  0
 21  7  2  0  0  0  0
 22 49  1  0  0  0  0
 22  8  1  0  0  0  0
 23  6  1  0  0  0  0
 23 10  1  0  0  0  0
 24 21  1  0  0  0  0
 25 34  1  0  0  0  0
 27 25  1  0  0  0  0
 28 35  1  0  0  0  0
 28 31  2  0  0  0  0
 29 36  1  0  0  0  0
 30 25  1  0  0  0  0
 30 32  1  0  0  0  0
 30 36  1  0  0  0  0
 33 27  1  0  0  0  0
 33 31  1  0  0  0  0
 34 26  1  0  0  0  0
 35 37  1  0  0  0  0
 36 26  1  0  0  0  0
 37 29  1  0  0  0  0
 38 28  1  0  0  0  0
 39 41  1  0  0  0  0
 40 41  2  0  0  0  0
 41 42  1  0  0  0  0
 42 38  1  0  0  0  0
 43 38  1  0  0  0  0
 44 43  1  0  0  0  0
 45 46  2  0  0  0  0
 46 20  1  0  0  0  0
 47 46  1  0  0  0  0
 48 49  1  0  0  0  0
M  END
>  <MODEL>
7

>  <REMARK>
 VINA RESULT:      -6.5      3.409      8.442
  Name = 
  6 active torsions:
  status: ('A' for Active; 'I' for Inactive)
    1  A    between atoms: CA_6  and  C_10
    2  A    between atoms: CA_6  and  C_16
    3  A    between atoms: CA_6  and  N_48
    4  A    between atoms: C_8  and  C_30
    5  A    between atoms: C_32  and  C_39
    6  A    between atoms: C_43  and  C_45
                            x       y       z     vdW  Elec       q    Type
                         _______ _______ _______ _____ _____    ______ ____

>  <TORSDO>
F 6

$$$$
=
 OpenBabel11062418183D

 49 55  0  0  1  0  0  0  0  0999 V2000
  189.2020  175.0720  142.5180 O   0  0  0  0  0  0  0  0  0  0  0  0
  194.4300  175.7040  143.2640 C   0  0  2  0  0  3  0  0  0  0  0  0
  194.0180  173.9280  140.9650 C   0  0  0  0  0  2  0  0  0  0  0  0
  191.9750  175.7990  143.7740 C   0  0  2  0  0  3  0  0  0  0  0  0
  189.5980  174.7180  143.8170 C   0  0  1  0  0  3  0  0  0  0  0  0
  189.7150  177.9970  143.9920 C   0  0  0  0  0  1  0  0  0  0  0  0
  197.1790  172.5280  142.4990 C   0  0  0  0  0  3  0  0  0  0  0  0
  193.3030  175.2090  144.1740 C   0  0  2  0  0  3  0  0  0  0  0  0
  190.5160  174.8810  142.0440 C   0  0  2  0  0  3  0  0  0  0  0  0
  191.5590  176.6240  144.9760 C   0  0  2  0  0  3  0  0  0  0  0  0
  190.5710  173.5990  141.2130 C   0  0  0  0  0  2  0  0  0  0  0  0
  196.0920  172.7130  141.6440 C   0  0  0  0  0  3  0  0  0  0  0  0
  192.9260  173.2020  141.4540 O   0  0  0  0  0  0  0  0  0  0  0  0
  192.1220  175.9370  146.2040 C   0  0  0  0  0  2  0  0  0  0  0  0
  195.1940  173.7590  141.8720 C   0  0  0  0  0  0  0  0  0  0  0  0
  191.9110  173.3810  140.5030 C   0  0  1  0  0  3  0  0  0  0  0  0
  195.4110  174.6190  142.9650 C   0  0  0  0  0  0  0  0  0  0  0  0
  195.0660  176.9330  143.7070 N   0  0  0  0  0  1  0  0  0  0  0  0
  191.0600  174.6190  143.4290 C   0  0  1  0  0  3  0  0  0  0  0  0
  189.1670  175.7280  144.8930 C   0  0  2  0  0  3  0  0  0  0  0  0
  197.3540  173.3920  143.5820 C   0  0  0  0  0  3  0  0  0  0  0  0
  193.3910  175.2520  145.7110 C   0  0  2  0  0  3  0  0  0  0  0  0
  190.0700  176.9530  145.0330 C   0  0  2  0  0  3  0  0  0  0  0  0
  196.4710  174.4060  143.7940 N   0  0  0  0  0  0  0  0  0  0  0  0
  191.5270  172.4700  138.2060 N   0  0  1  0  0  0  0  0  0  0  0  0
  189.8490  171.3210  136.8780 C   0  0  0  0  0  2  0  0  0  0  0  0
  191.7860  172.1300  139.6260 C   0  0  2  0  0  3  0  0  0  0  0  0
  191.6240  169.0250  139.2410 C   0  0  0  0  0  0  0  0  0  0  0  0
  191.3990  169.4460  136.0540 C   0  0  0  0  0  2  0  0  0  0  0  0
  192.2120  171.4950  137.3560 C   0  0  2  0  0  3  0  0  0  0  0  0
  190.7190  169.9490  139.3670 N   0  0  0  0  0  0  0  0  0  0  0  0
  193.2530  172.1240  136.6720 O   0  0  0  0  0  1  0  0  0  0  0  0
  190.8150  171.1050  140.2440 C   0  0  0  0  0  2  0  0  0  0  0  0
  190.1010  172.4640  137.8460 C   0  0  0  0  0  2  0  0  0  0  0  0
  191.5520  168.1660  138.1460 O   0  0  0  0  0  0  0  0  0  0  0  0
  191.2130  170.9440  136.3610 C   0  0  2  0  0  3  0  0  0  0  0  0
  190.7270  168.4580  137.0210 C   0  0  0  0  0  2  0  0  0  0  0  0
  192.7660  168.9150  140.2210 C   0  0  2  0  0  3  0  0  0  0  0  0
  196.0670  168.3580  138.7380 O   0  0  0  0  0  0  0  0  0  0  0  0
  195.0550  170.3700  139.1480 O   0  0  0  0  0  1  0  0  0  0  0  0
  195.0520  168.9800  139.1440 C   0  0  0  0  0  0  0  0  0  0  0  0
  193.9270  168.2560  139.6350 N   0  0  0  0  0  2  0  0  0  0  0  0
  192.3310  168.1670  141.4780 C   0  0  0  0  0  2  0  0  0  0  0  0
  192.5510  168.9390  142.6230 O   0  0  0  0  0  1  0  0  0  0  0  0
  188.4350  175.6920  147.1740 O   0  0  0  0  0  1  0  0  0  0  0  0
  188.9270  175.0450  146.2110 C   0  0  0  0  0  0  0  0  0  0  0  0
  189.3260  173.7290  146.4120 O   0  0  0  0  0  0  0  0  0  0  0  0
  194.5760  177.1870  146.8900 C   0  0  0  0  0  1  0  0  0  0  0  0
  194.6870  175.7670  146.3550 C   0  0  0  0  0  2  0  0  0  0  0  0
  1  5  1  0  0  0  0
  2 18  1  1  0  0  0
  2  8  1  0  0  0  0
  3 13  1  0  0  0  0
  3 15  1  0  0  0  0
  4  8  1  0  0  0  0
  4 10  1  0  0  0  0
  5 20  1  0  0  0  0
  6 23  1  0  0  0  0
  7 21  1  0  0  0  0
  8 22  1  0  0  0  0
  9  1  1  0  0  0  0
  9 19  1  0  0  0  0
 10 23  1  0  0  0  0
 10 14  1  0  0  0  0
 11  9  1  0  0  0  0
 12 15  1  0  0  0  0
 12  7  2  0  0  0  0
 15 17  2  0  0  0  0
 16 11  1  0  0  0  0
 16 13  1  0  0  0  0
 17  2  1  0  0  0  0
 17 24  1  0  0  0  0
 19  4  1  0  0  0  0
 19  5  1  0  0  0  0
 20 23  1  0  0  0  0
 20 46  1  0  0  0  0
 21 24  2  0  0  0  0
 22 14  1  0  0  0  0
 22 49  1  0  0  0  0
 25 27  1  0  0  0  0
 26 34  1  0  0  0  0
 27 33  1  0  0  0  0
 27 16  1  0  0  0  0
 28 31  2  0  0  0  0
 28 38  1  0  0  0  0
 29 36  1  0  0  0  0
 29 37  1  0  0  0  0
 30 25  1  0  0  0  0
 31 33  1  0  0  0  0
 32 30  1  0  0  0  0
 34 25  1  0  0  0  0
 35 28  1  0  0  0  0
 36 26  1  0  0  0  0
 36 30  1  0  0  0  0
 37 35  1  0  0  0  0
 38 43  1  0  0  0  0
 39 41  2  0  0  0  0
 41 40  1  0  0  0  0
 41 42  1  0  0  0  0
 42 38  1  0  0  0  0
 43 44  1  0  0  0  0
 46 47  2  0  0  0  0
 46 45  1  0  0  0  0
 49 48  1  0  0  0  0
M  END
>  <MODEL>
8

>  <REMARK>
 VINA RESULT:      -6.5      2.865      5.526
  Name = 
  6 active torsions:
  status: ('A' for Active; 'I' for Inactive)
    1  A    between atoms: CA_6  and  C_10
    2  A    between atoms: CA_6  and  C_16
    3  A    between atoms: CA_6  and  N_48
    4  A    between atoms: C_8  and  C_30
    5  A    between atoms: C_32  and  C_39
    6  A    between atoms: C_43  and  C_45
                            x       y       z     vdW  Elec       q    Type
                         _______ _______ _______ _____ _____    ______ ____

>  <TORSDO>
F 6

$$$$
=
 OpenBabel11062418183D

 49 55  0  0  1  0  0  0  0  0999 V2000
  189.6860  175.2020  142.6140 O   0  0  0  0  0  0  0  0  0  0  0  0
  194.9540  175.6920  143.1580 C   0  0  2  0  0  3  0  0  0  0  0  0
  194.3830  174.6000  140.4950 C   0  0  0  0  0  2  0  0  0  0  0  0
  192.5390  175.6050  143.8350 C   0  0  2  0  0  3  0  0  0  0  0  0
  190.1680  174.5160  143.7390 C   0  0  1  0  0  3  0  0  0  0  0  0
  190.3040  177.6260  144.7890 C   0  0  0  0  0  1  0  0  0  0  0  0
  197.6370  172.8870  141.3800 C   0  0  0  0  0  3  0  0  0  0  0  0
  193.8900  174.9500  143.9710 C   0  0  2  0  0  3  0  0  0  0  0  0
  190.9650  175.1680  142.0200 C   0  0  2  0  0  3  0  0  0  0  0  0
  192.2070  176.0670  145.2400 C   0  0  2  0  0  3  0  0  0  0  0  0
  190.9600  174.1610  140.8700 C   0  0  0  0  0  2  0  0  0  0  0  0
  196.4950  173.2800  140.6800 C   0  0  0  0  0  3  0  0  0  0  0  0
  193.3250  173.7510  140.8380 O   0  0  0  0  0  0  0  0  0  0  0  0
  192.8510  175.0820  146.1950 C   0  0  0  0  0  2  0  0  0  0  0  0
  195.6180  174.2100  141.2430 C   0  0  0  0  0  0  0  0  0  0  0  0
  192.2490  174.1660  140.0420 C   0  0  1  0  0  3  0  0  0  0  0  0
  195.9100  174.7440  142.5120 C   0  0  0  0  0  0  0  0  0  0  0  0
  195.6210  176.7650  143.8750 N   0  0  0  0  0  1  0  0  0  0  0  0
  191.6000  174.5490  143.2420 C   0  0  1  0  0  3  0  0  0  0  0  0
  189.8140  175.1890  145.0740 C   0  0  2  0  0  3  0  0  0  0  0  0
  197.8870  173.4270  142.6430 C   0  0  0  0  0  3  0  0  0  0  0  0
  194.0820  174.5760  145.4530 C   0  0  2  0  0  3  0  0  0  0  0  0
  190.7270  176.3440  145.4820 C   0  0  2  0  0  3  0  0  0  0  0  0
  197.0230  174.3310  143.1800 N   0  0  0  0  0  0  0  0  0  0  0  0
  190.6310  172.9970  138.5340 N   0  0  1  0  0  0  0  0  0  0  0  0
  189.6910  170.8000  138.1000 C   0  0  0  0  0  2  0  0  0  0  0  0
  192.0610  173.1980  138.8670 C   0  0  2  0  0  3  0  0  0  0  0  0
  193.1640  171.1640  136.7550 C   0  0  0  0  0  0  0  0  0  0  0  0
  190.1870  170.7910  135.5800 C   0  0  0  0  0  2  0  0  0  0  0  0
  190.5030  172.8380  137.0850 C   0  0  2  0  0  3  0  0  0  0  0  0
  192.6510  171.0170  137.9400 N   0  0  0  0  0  0  0  0  0  0  0  0
  189.8320  173.9400  136.5530 O   0  0  0  0  0  1  0  0  0  0  0  0
  192.8770  171.9050  139.0690 C   0  0  0  0  0  2  0  0  0  0  0  0
  190.0330  171.8160  139.1750 C   0  0  0  0  0  2  0  0  0  0  0  0
  192.6160  170.4410  135.6960 O   0  0  0  0  0  0  0  0  0  0  0  0
  189.7040  171.5810  136.8110 C   0  0  2  0  0  3  0  0  0  0  0  0
  191.3450  169.8050  135.8050 C   0  0  0  0  0  2  0  0  0  0  0  0
  194.2910  172.1370  136.5100 C   0  0  2  0  0  3  0  0  0  0  0  0
  193.9250  175.4520  134.9960 O   0  0  0  0  0  0  0  0  0  0  0  0
  194.8400  174.9530  137.0350 O   0  0  0  0  0  1  0  0  0  0  0  0
  194.2020  174.5790  135.8580 C   0  0  0  0  0  0  0  0  0  0  0  0
  193.8980  173.2090  135.6030 N   0  0  0  0  0  2  0  0  0  0  0  0
  195.5160  171.4190  135.9550 C   0  0  0  0  0  2  0  0  0  0  0  0
  195.9270  170.3910  136.8100 O   0  0  0  0  0  1  0  0  0  0  0  0
  189.6910  172.9410  145.8950 O   0  0  0  0  0  0  0  0  0  0  0  0
  189.6610  174.1700  146.1700 C   0  0  0  0  0  0  0  0  0  0  0  0
  189.3930  174.5660  147.4750 O   0  0  0  0  0  1  0  0  0  0  0  0
  196.3950  173.7510  146.1610 C   0  0  0  0  0  1  0  0  0  0  0  0
  195.4190  174.9170  146.1260 C   0  0  0  0  0  2  0  0  0  0  0  0
  1  5  1  0  0  0  0
  2 18  1  1  0  0  0
  2  8  1  0  0  0  0
  3 13  1  0  0  0  0
  3 15  1  0  0  0  0
  4  8  1  0  0  0  0
  4 10  1  0  0  0  0
  5 20  1  0  0  0  0
  6 23  1  0  0  0  0
  7 21  1  0  0  0  0
  8 22  1  0  0  0  0
  9  1  1  0  0  0  0
  9 19  1  0  0  0  0
 10 23  1  0  0  0  0
 10 14  1  0  0  0  0
 11  9  1  0  0  0  0
 12 15  1  0  0  0  0
 12  7  2  0  0  0  0
 15 17  2  0  0  0  0
 16 13  1  0  0  0  0
 16 11  1  0  0  0  0
 17  2  1  0  0  0  0
 17 24  1  0  0  0  0
 19  5  1  0  0  0  0
 19  4  1  0  0  0  0
 20 23  1  0  0  0  0
 20 46  1  0  0  0  0
 21 24  2  0  0  0  0
 22 49  1  0  0  0  0
 22 14  1  0  0  0  0
 25 27  1  0  0  0  0
 25 34  1  0  0  0  0
 26 34  1  0  0  0  0
 27 33  1  0  0  0  0
 27 16  1  0  0  0  0
 28 31  2  0  0  0  0
 29 37  1  0  0  0  0
 29 36  1  0  0  0  0
 30 25  1  0  0  0  0
 31 33  1  0  0  0  0
 32 30  1  0  0  0  0
 35 37  1  0  0  0  0
 35 28  1  0  0  0  0
 36 30  1  0  0  0  0
 36 26  1  0  0  0  0
 38 28  1  0  0  0  0
 39 41  2  0  0  0  0
 41 40  1  0  0  0  0
 42 41  1  0  0  0  0
 42 38  1  0  0  0  0
 43 38  1  0  0  0  0
 43 44  1  0  0  0  0
 45 46  2  0  0  0  0
 46 47  1  0  0  0  0
 49 48  1  0  0  0  0
M  END
>  <MODEL>
9

>  <REMARK>
 VINA RESULT:      -6.4      2.561      4.659
  Name = 
  6 active torsions:
  status: ('A' for Active; 'I' for Inactive)
    1  A    between atoms: CA_6  and  C_10
    2  A    between atoms: CA_6  and  C_16
    3  A    between atoms: CA_6  and  N_48
    4  A    between atoms: C_8  and  C_30
    5  A    between atoms: C_32  and  C_39
    6  A    between atoms: C_43  and  C_45
                            x       y       z     vdW  Elec       q    Type
                         _______ _______ _______ _____ _____    ______ ____

>  <TORSDO>
F 6

$$$$
