=
 OpenBabel11062418533D

 33 38  0  0  1  0  0  0  0  0999 V2000
  188.9740  175.3210  141.8340 C   0  0  0  0  0  0  0  0  0  0  0  0
  189.0410  172.5680  141.4330 C   0  0  0  0  0  3  0  0  0  0  0  0
  189.8790  173.1390  142.3940 C   0  0  0  0  0  3  0  0  0  0  0  0
  188.1350  174.7010  140.9030 C   0  0  0  0  0  3  0  0  0  0  0  0
  189.8470  174.5270  142.6060 C   0  0  0  0  0  0  0  0  0  0  0  0
  188.1900  173.3530  140.7180 N   0  0  0  0  0  0  0  0  0  0  0  0
  193.5080  176.7290  144.7750 C   0  0  0  0  0  2  0  0  0  0  0  0
  192.0630  175.5690  143.1080 C   0  0  0  0  0  2  0  0  0  0  0  0
  193.0830  173.4950  145.7300 C   0  0  0  0  0  2  0  0  0  0  0  0
  194.9340  176.5630  145.2740 C   0  0  0  0  0  2  0  0  0  0  0  0
  194.2970  174.5380  143.9140 C   0  0  1  0  0  0  0  0  0  0  0  0
  191.0460  174.2240  144.7910 C   0  0  0  0  0  2  0  0  0  0  0  0
  197.0410  173.6030  144.2270 O   0  0  0  0  0  1  0  0  0  0  0  0
  192.3140  174.6760  145.3490 N   0  0  2  0  0  0  0  0  0  0  0  0
  196.5390  175.8220  143.5040 C   0  0  0  0  0  2  0  0  0  0  0  0
  194.4420  174.2050  142.4230 C   0  0  0  0  0  1  0  0  0  0  0  0
  190.7190  175.1610  143.6520 C   0  0  2  0  0  3  0  0  0  0  0  0
  196.8820  174.9160  144.6810 C   0  0  1  0  0  3  0  0  0  0  0  0
  194.1500  173.2490  144.6890 C   0  0  0  0  0  2  0  0  0  0  0  0
  195.4490  175.3980  144.4710 C   0  0  1  0  0  0  0  0  0  0  0  0
  193.0350  175.3610  144.2670 C   0  0  1  0  0  0  0  0  0  0  0  0
  188.9010  176.7350  142.0180 N   0  0  0  0  0  2  0  0  0  0  0  0
  187.6680  178.6660  142.3850 O   0  0  0  0  0  0  0  0  0  0  0  0
  187.7710  177.4270  142.5730 C   0  0  0  0  0  0  0  0  0  0  0  0
  186.7410  176.7450  143.4330 C   0  0  2  0  0  3  0  0  0  0  0  0
  185.2460  177.7520  145.7080 C   0  0  0  0  0  0  0  0  0  0  0  0
  185.3920  177.4210  143.3430 C   0  0  0  0  0  0  0  0  0  0  0  0
  184.8190  177.5410  142.2260 O   0  0  0  0  0  0  0  0  0  0  0  0
  184.7420  177.9090  144.5210 N   0  0  0  0  0  0  0  0  0  0  0  0
  187.2070  176.5680  144.8540 C   0  0  0  0  0  3  0  0  0  0  0  0
  186.5210  177.0330  145.9010 C   0  0  0  0  0  0  0  0  0  0  0  0
  184.5130  178.2910  146.8810 C   0  0  0  0  0  1  0  0  0  0  0  0
  187.0150  176.8470  147.1500 F   0  0  0  0  0  0  0  0  0  0  0  0
  1 22  1  0  0  0  0
  1  5  1  0  0  0  0
  2  3  1  0  0  0  0
  3  5  2  0  0  0  0
  4  1  2  0  0  0  0
  6  4  1  0  0  0  0
  6  2  2  0  0  0  0
  7 10  1  0  0  0  0
  8 17  1  0  0  0  0
 11 16  1  6  0  0  0
 11 21  1  0  0  0  0
 11 20  1  0  0  0  0
 11 19  1  0  0  0  0
 14 12  1  6  0  0  0
 14  9  1  0  0  0  0
 15 18  1  0  0  0  0
 17  5  1  6  0  0  0
 17 12  1  0  0  0  0
 18 13  1  6  0  0  0
 19  9  1  0  0  0  0
 20 15  1  6  0  0  0
 20 18  1  0  0  0  0
 20 10  1  0  0  0  0
 21  8  1  6  0  0  0
 21  7  1  0  0  0  0
 21 14  1  0  0  0  0
 22 24  1  0  0  0  0
 23 24  2  0  0  0  0
 25 24  1  6  0  0  0
 25 30  1  0  0  0  0
 26 31  1  0  0  0  0
 26 32  1  0  0  0  0
 27 25  1  0  0  0  0
 27 29  1  0  0  0  0
 28 27  2  0  0  0  0
 29 26  2  0  0  0  0
 30 31  2  0  0  0  0
 31 33  1  0  0  0  0
M  END
>  <MODEL>
1

>  <REMARK>
 VINA RESULT:      -8.1      0.000      0.000
  Name = 
  3 active torsions:
  status: ('A' for Active; 'I' for Inactive)
    1  A    between atoms: C_1  and  C_27
    2  A    between atoms: C_2  and  N_8
    3  A    between atoms: C_20  and  C_24
                            x       y       z     vdW  Elec       q    Type
                         _______ _______ _______ _____ _____    ______ ____

>  <TORSDO>
F 3

$$$$
=
 OpenBabel11062418533D

 33 38  0  0  1  0  0  0  0  0999 V2000
  189.3760  176.7850  145.0580 C   0  0  0  0  0  0  0  0  0  0  0  0
  189.1180  174.8120  147.0030 C   0  0  0  0  0  3  0  0  0  0  0  0
  190.2320  174.7980  146.1600 C   0  0  0  0  0  3  0  0  0  0  0  0
  188.2930  176.7730  145.9430 C   0  0  0  0  0  3  0  0  0  0  0  0
  190.3720  175.7940  145.1800 C   0  0  0  0  0  0  0  0  0  0  0  0
  188.1830  175.7940  146.8820 N   0  0  0  0  0  0  0  0  0  0  0  0
  194.1240  174.4130  142.5390 C   0  0  0  0  0  2  0  0  0  0  0  0
  192.1930  174.4530  144.1150 C   0  0  0  0  0  2  0  0  0  0  0  0
  194.9650  176.2330  145.2840 C   0  0  0  0  0  2  0  0  0  0  0  0
  195.5530  173.8990  142.5900 C   0  0  0  0  0  2  0  0  0  0  0  0
  194.5850  173.8700  144.9170 C   0  0  1  0  0  0  0  0  0  0  0  0
  192.6960  176.6740  144.8170 C   0  0  0  0  0  2  0  0  0  0  0  0
  197.0440  172.5790  145.8050 O   0  0  0  0  0  1  0  0  0  0  0  0
  193.9300  176.1390  144.2580 N   0  0  2  0  0  0  0  0  0  0  0  0
  195.8180  171.7930  143.9140 C   0  0  0  0  0  2  0  0  0  0  0  0
  193.8320  172.7940  145.7130 C   0  0  0  0  0  1  0  0  0  0  0  0
  191.5740  175.8160  144.2790 C   0  0  2  0  0  3  0  0  0  0  0  0
  196.9700  172.6590  144.4110 C   0  0  1  0  0  3  0  0  0  0  0  0
  195.1820  174.8640  145.8870 C   0  0  0  0  0  2  0  0  0  0  0  0
  195.6580  173.3000  143.9680 C   0  0  1  0  0  0  0  0  0  0  0  0
  193.6910  174.7160  143.9790 C   0  0  1  0  0  0  0  0  0  0  0  0
  189.4790  177.8220  144.0810 N   0  0  0  0  0  2  0  0  0  0  0  0
  189.0670  178.6380  141.9480 O   0  0  0  0  0  0  0  0  0  0  0  0
  188.6810  177.8990  142.8890 C   0  0  0  0  0  0  0  0  0  0  0  0
  187.3610  177.1890  142.7450 C   0  0  2  0  0  3  0  0  0  0  0  0
  184.9870  177.9470  141.2570 C   0  0  0  0  0  0  0  0  0  0  0  0
  187.0840  176.7950  141.3120 C   0  0  0  0  0  0  0  0  0  0  0  0
  187.8930  176.0530  140.6940 O   0  0  0  0  0  0  0  0  0  0  0  0
  185.8940  177.2400  140.6530 N   0  0  0  0  0  0  0  0  0  0  0  0
  186.2250  177.9600  143.3650 C   0  0  0  0  0  3  0  0  0  0  0  0
  185.1340  178.3110  142.6810 C   0  0  0  0  0  0  0  0  0  0  0  0
  183.7820  178.3730  140.5030 C   0  0  0  0  0  1  0  0  0  0  0  0
  184.1610  179.0190  143.3060 F   0  0  0  0  0  0  0  0  0  0  0  0
  1  5  2  0  0  0  0
  1  4  1  0  0  0  0
  3  2  2  0  0  0  0
  4  6  2  0  0  0  0
  5  3  1  0  0  0  0
  6  2  1  0  0  0  0
  7 10  1  0  0  0  0
  8 17  1  0  0  0  0
  9 19  1  0  0  0  0
 11 16  1  1  0  0  0
 11 19  1  0  0  0  0
 14 12  1  1  0  0  0
 14  9  1  0  0  0  0
 15 20  1  0  0  0  0
 15 18  1  0  0  0  0
 17 12  1  0  0  0  0
 17  5  1  1  0  0  0
 18 13  1  1  0  0  0
 20 10  1  6  0  0  0
 20 18  1  0  0  0  0
 20 11  1  0  0  0  0
 21  7  1  6  0  0  0
 21  8  1  0  0  0  0
 21 14  1  0  0  0  0
 21 11  1  0  0  0  0
 22  1  1  0  0  0  0
 23 24  2  0  0  0  0
 24 22  1  0  0  0  0
 25 24  1  6  0  0  0
 25 30  1  0  0  0  0
 26 31  1  0  0  0  0
 27 25  1  0  0  0  0
 28 27  2  0  0  0  0
 29 26  2  0  0  0  0
 29 27  1  0  0  0  0
 31 33  1  0  0  0  0
 31 30  2  0  0  0  0
 32 26  1  0  0  0  0
M  END
>  <MODEL>
2

>  <REMARK>
 VINA RESULT:      -7.9      2.439      3.526
  Name = 
  3 active torsions:
  status: ('A' for Active; 'I' for Inactive)
    1  A    between atoms: C_1  and  C_27
    2  A    between atoms: C_2  and  N_8
    3  A    between atoms: C_20  and  C_24
                            x       y       z     vdW  Elec       q    Type
                         _______ _______ _______ _____ _____    ______ ____

>  <TORSDO>
F 3

$$$$
=
 OpenBabel11062418533D

 33 38  0  0  1  0  0  0  0  0999 V2000
  191.4460  172.4050  143.2200 C   0  0  0  0  0  0  0  0  0  0  0  0
  189.9300  172.2200  140.8940 C   0  0  0  0  0  3  0  0  0  0  0  0
  189.7120  173.2880  141.7680 C   0  0  0  0  0  3  0  0  0  0  0  0
  191.6470  171.3700  142.3010 C   0  0  0  0  0  3  0  0  0  0  0  0
  190.4770  173.3910  142.9410 C   0  0  0  0  0  0  0  0  0  0  0  0
  190.8880  171.2950  141.1730 N   0  0  0  0  0  0  0  0  0  0  0  0
  188.4440  176.6370  145.8210 C   0  0  0  0  0  2  0  0  0  0  0  0
  188.8240  174.8060  144.1720 C   0  0  0  0  0  2  0  0  0  0  0  0
  189.7740  177.9520  142.9830 C   0  0  0  0  0  2  0  0  0  0  0  0
  187.5950  177.8970  145.8630 C   0  0  0  0  0  2  0  0  0  0  0  0
  187.6130  176.9960  143.5090 C   0  0  1  0  0  0  0  0  0  0  0  0
  190.7910  175.8520  143.3270 C   0  0  0  0  0  2  0  0  0  0  0  0
  185.6950  179.0800  142.8150 O   0  0  0  0  0  1  0  0  0  0  0  0
  190.0190  176.9070  143.9730 N   0  0  2  0  0  0  0  0  0  0  0  0
  185.3880  177.6620  144.7110 C   0  0  0  0  0  2  0  0  0  0  0  0
  186.6920  176.0170  142.7670 C   0  0  0  0  0  1  0  0  0  0  0  0
  190.2790  174.5440  143.8840 C   0  0  2  0  0  3  0  0  0  0  0  0
  185.9040  179.0010  144.1960 C   0  0  1  0  0  3  0  0  0  0  0  0
  188.3500  177.8380  142.4920 C   0  0  0  0  0  2  0  0  0  0  0  0
  186.8790  177.8780  144.5380 C   0  0  1  0  0  0  0  0  0  0  0  0
  188.7250  176.3200  144.3460 C   0  0  1  0  0  0  0  0  0  0  0  0
  192.2520  172.4720  144.3970 N   0  0  0  0  0  2  0  0  0  0  0  0
  194.3090  172.7860  145.4240 O   0  0  0  0  0  0  0  0  0  0  0  0
  193.5560  173.0700  144.4580 C   0  0  0  0  0  0  0  0  0  0  0  0
  194.0360  174.0810  143.4510 C   0  0  2  0  0  3  0  0  0  0  0  0
  196.6110  175.3980  143.2090 C   0  0  0  0  0  0  0  0  0  0  0  0
  195.1940  173.5590  142.6320 C   0  0  0  0  0  0  0  0  0  0  0  0
  195.0630  172.5030  141.9570 O   0  0  0  0  0  0  0  0  0  0  0  0
  196.4370  174.2680  142.5940 N   0  0  0  0  0  0  0  0  0  0  0  0
  194.3260  175.4200  144.0770 C   0  0  0  0  0  3  0  0  0  0  0  0
  195.5110  176.0260  143.9690 C   0  0  0  0  0  0  0  0  0  0  0  0
  197.9320  176.0700  143.1260 C   0  0  0  0  0  1  0  0  0  0  0  0
  195.6990  177.2240  144.5750 F   0  0  0  0  0  0  0  0  0  0  0  0
  1 22  1  0  0  0  0
  2  6  2  0  0  0  0
  2  3  1  0  0  0  0
  3  5  2  0  0  0  0
  4  1  2  0  0  0  0
  5  1  1  0  0  0  0
  6  4  1  0  0  0  0
  7 10  1  0  0  0  0
 11 16  1  6  0  0  0
 11 21  1  0  0  0  0
 11 20  1  0  0  0  0
 12 17  1  0  0  0  0
 12 14  1  0  0  0  0
 14  9  1  6  0  0  0
 14 21  1  0  0  0  0
 17  5  1  6  0  0  0
 17  8  1  0  0  0  0
 18 13  1  6  0  0  0
 18 20  1  0  0  0  0
 18 15  1  0  0  0  0
 19  9  1  0  0  0  0
 19 11  1  0  0  0  0
 20 15  1  1  0  0  0
 20 10  1  0  0  0  0
 21  8  1  6  0  0  0
 21  7  1  0  0  0  0
 22 24  1  0  0  0  0
 24 23  2  0  0  0  0
 25 30  1  0  0  0  0
 25 24  1  1  0  0  0
 26 31  1  0  0  0  0
 27 25  1  0  0  0  0
 28 27  2  0  0  0  0
 29 27  1  0  0  0  0
 29 26  2  0  0  0  0
 31 30  2  0  0  0  0
 31 33  1  0  0  0  0
 32 26  1  0  0  0  0
M  END
>  <MODEL>
3

>  <REMARK>
 VINA RESULT:      -7.7      2.441      7.984
  Name = 
  3 active torsions:
  status: ('A' for Active; 'I' for Inactive)
    1  A    between atoms: C_1  and  C_27
    2  A    between atoms: C_2  and  N_8
    3  A    between atoms: C_20  and  C_24
                            x       y       z     vdW  Elec       q    Type
                         _______ _______ _______ _____ _____    ______ ____

>  <TORSDO>
F 3

$$$$
=
 OpenBabel11062418533D

 33 38  0  0  1  0  0  0  0  0999 V2000
  191.1360  172.3310  142.4690 C   0  0  0  0  0  0  0  0  0  0  0  0
  190.1810  173.4160  140.0910 C   0  0  0  0  0  3  0  0  0  0  0  0
  190.0150  174.1280  141.2820 C   0  0  0  0  0  3  0  0  0  0  0  0
  191.3030  171.6690  141.2490 C   0  0  0  0  0  3  0  0  0  0  0  0
  190.5000  173.5900  142.4850 C   0  0  0  0  0  0  0  0  0  0  0  0
  190.8210  172.2150  140.0980 N   0  0  0  0  0  0  0  0  0  0  0  0
  188.6300  175.6590  146.3820 C   0  0  0  0  0  2  0  0  0  0  0  0
  188.9180  174.5060  144.1900 C   0  0  0  0  0  2  0  0  0  0  0  0
  189.8950  177.8610  144.1230 C   0  0  0  0  0  2  0  0  0  0  0  0
  187.8100  176.8340  146.8880 C   0  0  0  0  0  2  0  0  0  0  0  0
  187.7330  176.8010  144.3680 C   0  0  1  0  0  0  0  0  0  0  0  0
  190.8780  175.7630  143.6840 C   0  0  0  0  0  2  0  0  0  0  0  0
  185.8370  179.0120  144.5080 O   0  0  0  0  0  1  0  0  0  0  0  0
  190.1500  176.5360  144.6820 N   0  0  2  0  0  0  0  0  0  0  0  0
  185.5620  177.0300  145.8090 C   0  0  0  0  0  2  0  0  0  0  0  0
  186.7680  176.1470  143.3700 C   0  0  0  0  0  1  0  0  0  0  0  0
  190.3570  174.3480  143.7740 C   0  0  2  0  0  3  0  0  0  0  0  0
  186.0890  178.4600  145.7680 C   0  0  1  0  0  3  0  0  0  0  0  0
  188.4530  177.9360  143.6770 C   0  0  0  0  0  2  0  0  0  0  0  0
  187.0510  177.2790  145.6650 C   0  0  1  0  0  0  0  0  0  0  0  0
  188.8560  175.8680  144.8780 C   0  0  1  0  0  0  0  0  0  0  0  0
  191.6510  171.7460  143.6660 N   0  0  0  0  0  2  0  0  0  0  0  0
  193.4400  171.1350  145.0110 O   0  0  0  0  0  0  0  0  0  0  0  0
  192.9870  171.9390  144.1580 C   0  0  0  0  0  0  0  0  0  0  0  0
  193.8430  173.1080  143.7490 C   0  0  2  0  0  3  0  0  0  0  0  0
  196.5410  173.8150  144.5540 C   0  0  0  0  0  0  0  0  0  0  0  0
  195.0980  172.6660  143.0310 C   0  0  0  0  0  0  0  0  0  0  0  0
  195.0130  171.9750  141.9800 O   0  0  0  0  0  0  0  0  0  0  0  0
  196.3890  173.0460  143.5190 N   0  0  0  0  0  0  0  0  0  0  0  0
  194.1310  174.0370  144.8990 C   0  0  0  0  0  3  0  0  0  0  0  0
  195.3720  174.3620  145.2710 C   0  0  0  0  0  0  0  0  0  0  0  0
  197.9140  174.1610  145.0020 C   0  0  0  0  0  1  0  0  0  0  0  0
  195.5490  175.1930  146.3280 F   0  0  0  0  0  0  0  0  0  0  0  0
  1  5  1  0  0  0  0
  1 22  1  0  0  0  0
  2  6  2  0  0  0  0
  2  3  1  0  0  0  0
  3  5  2  0  0  0  0
  4  1  2  0  0  0  0
  6  4  1  0  0  0  0
  7 10  1  0  0  0  0
  9 14  1  0  0  0  0
 11 16  1  6  0  0  0
 11 21  1  0  0  0  0
 11 20  1  0  0  0  0
 12 17  1  0  0  0  0
 14 12  1  6  0  0  0
 14 21  1  0  0  0  0
 17  5  1  6  0  0  0
 17  8  1  0  0  0  0
 18 13  1  6  0  0  0
 18 15  1  0  0  0  0
 19  9  1  0  0  0  0
 19 11  1  0  0  0  0
 20 18  1  0  0  0  0
 20 15  1  1  0  0  0
 20 10  1  0  0  0  0
 21  8  1  6  0  0  0
 21  7  1  0  0  0  0
 22 24  1  0  0  0  0
 24 23  2  0  0  0  0
 25 24  1  1  0  0  0
 25 30  1  0  0  0  0
 26 32  1  0  0  0  0
 26 31  1  0  0  0  0
 27 29  1  0  0  0  0
 27 25  1  0  0  0  0
 28 27  2  0  0  0  0
 29 26  2  0  0  0  0
 30 31  2  0  0  0  0
 31 33  1  0  0  0  0
M  END
>  <MODEL>
4

>  <REMARK>
 VINA RESULT:      -7.7      2.595      7.957
  Name = 
  3 active torsions:
  status: ('A' for Active; 'I' for Inactive)
    1  A    between atoms: C_1  and  C_27
    2  A    between atoms: C_2  and  N_8
    3  A    between atoms: C_20  and  C_24
                            x       y       z     vdW  Elec       q    Type
                         _______ _______ _______ _____ _____    ______ ____

>  <TORSDO>
F 3

$$$$
=
 OpenBabel11062418533D

 33 38  0  0  1  0  0  0  0  0999 V2000
  189.3910  176.7320  145.2130 C   0  0  0  0  0  0  0  0  0  0  0  0
  188.9310  174.9070  147.2620 C   0  0  0  0  0  3  0  0  0  0  0  0
  189.8120  174.5690  146.2320 C   0  0  0  0  0  3  0  0  0  0  0  0
  188.5390  177.0360  146.2790 C   0  0  0  0  0  3  0  0  0  0  0  0
  190.0540  175.4870  145.1980 C   0  0  0  0  0  0  0  0  0  0  0  0
  188.3230  176.1250  147.2680 N   0  0  0  0  0  0  0  0  0  0  0  0
  191.8740  174.0360  141.0090 C   0  0  0  0  0  2  0  0  0  0  0  0
  190.3400  174.5020  142.9180 C   0  0  0  0  0  2  0  0  0  0  0  0
  192.7520  172.0800  143.6470 C   0  0  0  0  0  2  0  0  0  0  0  0
  192.2020  172.8240  140.1540 C   0  0  0  0  0  2  0  0  0  0  0  0
  190.8500  172.0830  142.1490 C   0  0  1  0  0  0  0  0  0  0  0  0
  192.0770  174.1670  144.5140 C   0  0  0  0  0  2  0  0  0  0  0  0
  190.8160  169.4070  140.9920 O   0  0  0  0  0  1  0  0  0  0  0  0
  192.5040  173.4780  143.3030 N   0  0  2  0  0  0  0  0  0  0  0  0
  190.2370  171.3400  139.7170 C   0  0  0  0  0  2  0  0  0  0  0  0
  189.3410  171.9150  142.3720 C   0  0  0  0  0  1  0  0  0  0  0  0
  191.0170  175.1570  144.0930 C   0  0  2  0  0  3  0  0  0  0  0  0
  191.3330  170.3540  140.1030 C   0  0  1  0  0  3  0  0  0  0  0  0
  191.5890  171.2440  143.1660 C   0  0  0  0  0  2  0  0  0  0  0  0
  191.3040  171.7520  140.7140 C   0  0  1  0  0  0  0  0  0  0  0  0
  191.3730  173.5230  142.3650 C   0  0  1  0  0  0  0  0  0  0  0  0
  189.6100  177.7000  144.1860 N   0  0  0  0  0  2  0  0  0  0  0  0
  189.3020  178.4440  142.0100 O   0  0  0  0  0  0  0  0  0  0  0  0
  188.8330  177.8000  142.9820 C   0  0  0  0  0  0  0  0  0  0  0  0
  187.4460  177.2280  142.8580 C   0  0  2  0  0  3  0  0  0  0  0  0
  185.1770  178.1540  141.3030 C   0  0  0  0  0  0  0  0  0  0  0  0
  187.1380  176.7910  141.4440 C   0  0  0  0  0  0  0  0  0  0  0  0
  187.8680  175.9350  140.8760 O   0  0  0  0  0  0  0  0  0  0  0  0
  186.0070  177.3240  140.7480 N   0  0  0  0  0  0  0  0  0  0  0  0
  186.3950  178.1470  143.4230 C   0  0  0  0  0  3  0  0  0  0  0  0
  185.3510  178.5750  142.7080 C   0  0  0  0  0  0  0  0  0  0  0  0
  184.0290  178.6660  140.5130 C   0  0  0  0  0  1  0  0  0  0  0  0
  184.4550  179.4140  143.2830 F   0  0  0  0  0  0  0  0  0  0  0  0
  1  4  1  0  0  0  0
  2  6  1  0  0  0  0
  3  2  2  0  0  0  0
  4  6  2  0  0  0  0
  5  1  2  0  0  0  0
  5  3  1  0  0  0  0
  8 17  1  0  0  0  0
 10 20  1  0  0  0  0
 10  7  1  0  0  0  0
 11 21  1  0  0  0  0
 11 16  1  1  0  0  0
 11 19  1  0  0  0  0
 14  9  1  1  0  0  0
 14 12  1  0  0  0  0
 15 18  1  0  0  0  0
 17 12  1  0  0  0  0
 17  5  1  1  0  0  0
 18 20  1  0  0  0  0
 18 13  1  1  0  0  0
 19  9  1  0  0  0  0
 20 15  1  6  0  0  0
 20 11  1  0  0  0  0
 21  7  1  6  0  0  0
 21  8  1  0  0  0  0
 21 14  1  0  0  0  0
 22  1  1  0  0  0  0
 23 24  2  0  0  0  0
 24 22  1  0  0  0  0
 25 24  1  6  0  0  0
 25 30  1  0  0  0  0
 26 31  1  0  0  0  0
 27 25  1  0  0  0  0
 28 27  2  0  0  0  0
 29 26  2  0  0  0  0
 29 27  1  0  0  0  0
 31 33  1  0  0  0  0
 31 30  2  0  0  0  0
 32 26  1  0  0  0  0
M  END
>  <MODEL>
5

>  <REMARK>
 VINA RESULT:      -7.6      3.100      4.740
  Name = 
  3 active torsions:
  status: ('A' for Active; 'I' for Inactive)
    1  A    between atoms: C_1  and  C_27
    2  A    between atoms: C_2  and  N_8
    3  A    between atoms: C_20  and  C_24
                            x       y       z     vdW  Elec       q    Type
                         _______ _______ _______ _____ _____    ______ ____

>  <TORSDO>
F 3

$$$$
=
 OpenBabel11062418533D

 33 38  0  0  1  0  0  0  0  0999 V2000
  192.0130  175.6100  144.9130 C   0  0  0  0  0  0  0  0  0  0  0  0
  191.1450  175.8010  147.5500 C   0  0  0  0  0  3  0  0  0  0  0  0
  190.3000  176.2230  146.5200 C   0  0  0  0  0  3  0  0  0  0  0  0
  192.8120  175.1750  145.9750 C   0  0  0  0  0  3  0  0  0  0  0  0
  190.7280  176.1240  145.1870 C   0  0  0  0  0  0  0  0  0  0  0  0
  192.3700  175.2850  147.2580 N   0  0  0  0  0  0  0  0  0  0  0  0
  187.6450  178.6190  142.4970 C   0  0  0  0  0  2  0  0  0  0  0  0
  189.0700  177.8100  144.3770 C   0  0  0  0  0  2  0  0  0  0  0  0
  186.4010  175.6730  143.6490 C   0  0  0  0  0  2  0  0  0  0  0  0
  186.1920  179.0340  142.3410 C   0  0  0  0  0  2  0  0  0  0  0  0
  186.4900  177.9080  144.5760 C   0  0  1  0  0  0  0  0  0  0  0  0
  188.7530  175.5320  143.7560 C   0  0  0  0  0  2  0  0  0  0  0  0
  183.7120  178.5780  145.1590 O   0  0  0  0  0  1  0  0  0  0  0  0
  187.6430  176.2690  143.1640 N   0  0  2  0  0  0  0  0  0  0  0  0
  185.2580  180.2040  144.3450 C   0  0  0  0  0  2  0  0  0  0  0  0
  186.8260  178.4500  145.9730 C   0  0  0  0  0  1  0  0  0  0  0  0
  189.8280  176.5480  144.0610 C   0  0  2  0  0  3  0  0  0  0  0  0
  184.1660  179.2010  143.9920 C   0  0  1  0  0  3  0  0  0  0  0  0
  185.8200  176.5610  144.7250 C   0  0  0  0  0  2  0  0  0  0  0  0
  185.6320  178.8690  143.7290 C   0  0  1  0  0  0  0  0  0  0  0  0
  187.7220  177.6430  143.6780 C   0  0  1  0  0  0  0  0  0  0  0  0
  192.4900  175.4850  143.5720 N   0  0  0  0  0  2  0  0  0  0  0  0
  193.1390  174.1740  141.7720 O   0  0  0  0  0  0  0  0  0  0  0  0
  192.4080  174.2850  142.7880 C   0  0  0  0  0  0  0  0  0  0  0  0
  191.4290  173.1810  143.0880 C   0  0  2  0  0  3  0  0  0  0  0  0
  191.1480  170.5560  141.8820 C   0  0  0  0  0  0  0  0  0  0  0  0
  192.1200  171.9310  143.5820 C   0  0  0  0  0  0  0  0  0  0  0  0
  192.8470  171.9760  144.6110 O   0  0  0  0  0  0  0  0  0  0  0  0
  191.9390  170.6830  142.9040 N   0  0  0  0  0  0  0  0  0  0  0  0
  190.4970  172.9120  141.9360 C   0  0  0  0  0  3  0  0  0  0  0  0
  190.3690  171.7050  141.3790 C   0  0  0  0  0  0  0  0  0  0  0  0
  191.0180  169.2290  141.2290 C   0  0  0  0  0  1  0  0  0  0  0  0
  189.5200  171.5470  140.3330 F   0  0  0  0  0  0  0  0  0  0  0  0
  1  5  2  0  0  0  0
  1  4  1  0  0  0  0
  3  2  2  0  0  0  0
  4  6  2  0  0  0  0
  5  3  1  0  0  0  0
  6  2  1  0  0  0  0
  9 19  1  0  0  0  0
 10  7  1  0  0  0  0
 11 19  1  0  0  0  0
 11 16  1  1  0  0  0
 12 17  1  0  0  0  0
 14  9  1  1  0  0  0
 14 21  1  0  0  0  0
 14 12  1  0  0  0  0
 17  8  1  0  0  0  0
 17  5  1  1  0  0  0
 18 15  1  0  0  0  0
 18 13  1  1  0  0  0
 20 10  1  6  0  0  0
 20 18  1  0  0  0  0
 20 15  1  0  0  0  0
 20 11  1  0  0  0  0
 21  7  1  6  0  0  0
 21  8  1  0  0  0  0
 21 11  1  0  0  0  0
 22  1  1  0  0  0  0
 23 24  2  0  0  0  0
 24 22  1  0  0  0  0
 25 24  1  6  0  0  0
 25 27  1  0  0  0  0
 26 29  2  0  0  0  0
 27 28  2  0  0  0  0
 29 27  1  0  0  0  0
 30 25  1  0  0  0  0
 31 26  1  0  0  0  0
 31 30  2  0  0  0  0
 32 26  1  0  0  0  0
 33 31  1  0  0  0  0
M  END
>  <MODEL>
6

>  <REMARK>
 VINA RESULT:      -7.6      2.985      8.221
  Name = 
  3 active torsions:
  status: ('A' for Active; 'I' for Inactive)
    1  A    between atoms: C_1  and  C_27
    2  A    between atoms: C_2  and  N_8
    3  A    between atoms: C_20  and  C_24
                            x       y       z     vdW  Elec       q    Type
                         _______ _______ _______ _____ _____    ______ ____

>  <TORSDO>
F 3

$$$$
=
 OpenBabel11062418533D

 33 38  0  0  1  0  0  0  0  0999 V2000
  194.5400  175.2740  143.9220 C   0  0  0  0  0  0  0  0  0  0  0  0
  194.4810  177.5370  145.5400 C   0  0  0  0  0  3  0  0  0  0  0  0
  193.2910  176.8500  145.2820 C   0  0  0  0  0  3  0  0  0  0  0  0
  195.7080  175.9770  144.2310 C   0  0  0  0  0  3  0  0  0  0  0  0
  193.3140  175.7040  144.4720 C   0  0  0  0  0  0  0  0  0  0  0  0
  195.6550  177.0870  145.0190 N   0  0  0  0  0  0  0  0  0  0  0  0
  189.2320  174.1840  142.4740 C   0  0  0  0  0  2  0  0  0  0  0  0
  191.2770  175.4940  143.0380 C   0  0  0  0  0  2  0  0  0  0  0  0
  188.8210  175.6360  145.5200 C   0  0  0  0  0  2  0  0  0  0  0  0
  187.7640  174.5100  142.2540 C   0  0  0  0  0  2  0  0  0  0  0  0
  188.9090  176.5150  143.2660 C   0  0  1  0  0  0  0  0  0  0  0  0
  191.0790  174.9770  145.3550 C   0  0  0  0  0  2  0  0  0  0  0  0
  186.4030  177.9700  142.9420 O   0  0  0  0  0  1  0  0  0  0  0  0
  189.7520  174.7850  144.7850 N   0  0  2  0  0  0  0  0  0  0  0  0
  187.3780  176.7230  141.1550 C   0  0  0  0  0  2  0  0  0  0  0  0
  189.6010  177.7360  142.6440 C   0  0  0  0  0  1  0  0  0  0  0  0
  192.0530  174.9340  144.2010 C   0  0  2  0  0  3  0  0  0  0  0  0
  186.3720  176.7280  142.3010 C   0  0  1  0  0  3  0  0  0  0  0  0
  188.5050  176.8530  144.6830 C   0  0  0  0  0  2  0  0  0  0  0  0
  187.7070  176.0020  142.4490 C   0  0  1  0  0  0  0  0  0  0  0  0
  189.8110  175.2650  143.3970 C   0  0  1  0  0  0  0  0  0  0  0  0
  194.6130  174.1100  143.0970 N   0  0  0  0  0  2  0  0  0  0  0  0
  195.3940  171.9620  142.6960 O   0  0  0  0  0  0  0  0  0  0  0  0
  195.0480  172.8180  143.5490 C   0  0  0  0  0  0  0  0  0  0  0  0
  195.0380  172.4170  145.0000 C   0  0  2  0  0  3  0  0  0  0  0  0
  196.1290  170.0580  146.2920 C   0  0  0  0  0  0  0  0  0  0  0  0
  196.4350  172.3180  145.5700 C   0  0  0  0  0  0  0  0  0  0  0  0
  197.2000  173.3190  145.5400 O   0  0  0  0  0  0  0  0  0  0  0  0
  196.8930  171.1000  146.1670 N   0  0  0  0  0  0  0  0  0  0  0  0
  194.2230  171.1740  145.2460 C   0  0  0  0  0  3  0  0  0  0  0  0
  194.7240  170.0880  145.8380 C   0  0  0  0  0  0  0  0  0  0  0  0
  196.6800  168.8300  146.9190 C   0  0  0  0  0  1  0  0  0  0  0  0
  193.9300  169.0020  146.0090 F   0  0  0  0  0  0  0  0  0  0  0  0
  1  4  2  0  0  0  0
  1  5  1  0  0  0  0
  3  2  1  0  0  0  0
  4  6  1  0  0  0  0
  5  3  2  0  0  0  0
  6  2  2  0  0  0  0
  8 21  1  0  0  0  0
  8 17  1  0  0  0  0
 10 20  1  0  0  0  0
 10  7  1  0  0  0  0
 11 16  1  6  0  0  0
 11 21  1  0  0  0  0
 11 19  1  0  0  0  0
 14 12  1  1  0  0  0
 14  9  1  0  0  0  0
 15 18  1  0  0  0  0
 17  5  1  1  0  0  0
 17 12  1  0  0  0  0
 18 20  1  0  0  0  0
 18 13  1  1  0  0  0
 19  9  1  0  0  0  0
 20 15  1  6  0  0  0
 20 11  1  0  0  0  0
 21  7  1  6  0  0  0
 21 14  1  0  0  0  0
 22 24  1  0  0  0  0
 22  1  1  0  0  0  0
 23 24  2  0  0  0  0
 25 24  1  6  0  0  0
 25 30  1  0  0  0  0
 25 27  1  0  0  0  0
 26 32  1  0  0  0  0
 27 29  1  0  0  0  0
 28 27  2  0  0  0  0
 29 26  2  0  0  0  0
 30 31  2  0  0  0  0
 31 33  1  0  0  0  0
 31 26  1  0  0  0  0
M  END
>  <MODEL>
7

>  <REMARK>
 VINA RESULT:      -7.5      2.980      8.772
  Name = 
  3 active torsions:
  status: ('A' for Active; 'I' for Inactive)
    1  A    between atoms: C_1  and  C_27
    2  A    between atoms: C_2  and  N_8
    3  A    between atoms: C_20  and  C_24
                            x       y       z     vdW  Elec       q    Type
                         _______ _______ _______ _____ _____    ______ ____

>  <TORSDO>
F 3

$$$$
=
 OpenBabel11062418533D

 33 38  0  0  1  0  0  0  0  0999 V2000
  190.5120  172.7630  140.6740 C   0  0  0  0  0  0  0  0  0  0  0  0
  188.4710  173.6710  139.0150 C   0  0  0  0  0  3  0  0  0  0  0  0
  188.6300  174.2450  140.2790 C   0  0  0  0  0  3  0  0  0  0  0  0
  190.3300  172.2380  139.3910 C   0  0  0  0  0  3  0  0  0  0  0  0
  189.6620  173.7970  141.1190 C   0  0  0  0  0  0  0  0  0  0  0  0
  189.3200  172.6920  138.5990 N   0  0  0  0  0  0  0  0  0  0  0  0
  188.9010  175.4240  145.5620 C   0  0  0  0  0  2  0  0  0  0  0  0
  188.5920  174.5060  143.2640 C   0  0  0  0  0  2  0  0  0  0  0  0
  189.5490  177.8680  143.2900 C   0  0  0  0  0  2  0  0  0  0  0  0
  188.2540  176.5260  146.3840 C   0  0  0  0  0  2  0  0  0  0  0  0
  187.5170  176.7490  143.9840 C   0  0  1  0  0  0  0  0  0  0  0  0
  190.3620  175.8430  142.3940 C   0  0  0  0  0  2  0  0  0  0  0  0
  185.7460  178.9000  144.8430 O   0  0  0  0  0  1  0  0  0  0  0  0
  189.9290  176.4980  143.6220 N   0  0  2  0  0  0  0  0  0  0  0  0
  185.8030  176.7910  145.9590 C   0  0  0  0  0  2  0  0  0  0  0  0
  186.3170  176.1820  143.2110 C   0  0  0  0  0  1  0  0  0  0  0  0
  189.8700  174.4170  142.4720 C   0  0  2  0  0  3  0  0  0  0  0  0
  186.3140  178.2260  145.9290 C   0  0  1  0  0  3  0  0  0  0  0  0
  188.0410  177.9610  143.2480 C   0  0  0  0  0  2  0  0  0  0  0  0
  187.2050  177.0800  145.4560 C   0  0  1  0  0  0  0  0  0  0  0  0
  188.7260  175.7890  144.0820 C   0  0  1  0  0  0  0  0  0  0  0  0
  191.5780  172.2790  141.4920 N   0  0  0  0  0  2  0  0  0  0  0  0
  193.8440  171.9830  141.8930 O   0  0  0  0  0  0  0  0  0  0  0  0
  192.9470  172.6960  141.3750 C   0  0  0  0  0  0  0  0  0  0  0  0
  193.3510  173.9900  140.7210 C   0  0  2  0  0  3  0  0  0  0  0  0
  195.9910  175.1110  140.2720 C   0  0  0  0  0  0  0  0  0  0  0  0
  194.1820  173.7610  139.4790 C   0  0  0  0  0  0  0  0  0  0  0  0
  193.7190  173.0760  138.5280 O   0  0  0  0  0  0  0  0  0  0  0  0
  195.4870  174.3370  139.3590 N   0  0  0  0  0  0  0  0  0  0  0  0
  194.0050  174.9420  141.6880 C   0  0  0  0  0  3  0  0  0  0  0  0
  195.2200  175.4560  141.4840 C   0  0  0  0  0  0  0  0  0  0  0  0
  197.3540  175.6660  140.0780 C   0  0  0  0  0  1  0  0  0  0  0  0
  195.7480  176.2940  142.4110 F   0  0  0  0  0  0  0  0  0  0  0  0
  1  5  1  0  0  0  0
  1 22  1  0  0  0  0
  2  3  1  0  0  0  0
  3  5  2  0  0  0  0
  4  1  2  0  0  0  0
  6  2  2  0  0  0  0
  6  4  1  0  0  0  0
  7 10  1  0  0  0  0
  9 14  1  0  0  0  0
 11 16  1  6  0  0  0
 11 21  1  0  0  0  0
 11 20  1  0  0  0  0
 12 17  1  0  0  0  0
 14 12  1  6  0  0  0
 14 21  1  0  0  0  0
 17  5  1  6  0  0  0
 17  8  1  0  0  0  0
 18 13  1  6  0  0  0
 18 15  1  0  0  0  0
 19  9  1  0  0  0  0
 19 11  1  0  0  0  0
 20 18  1  0  0  0  0
 20 15  1  1  0  0  0
 20 10  1  0  0  0  0
 21  8  1  6  0  0  0
 21  7  1  0  0  0  0
 24 22  1  0  0  0  0
 24 23  2  0  0  0  0
 25 24  1  1  0  0  0
 25 30  1  0  0  0  0
 26 31  1  0  0  0  0
 27 25  1  0  0  0  0
 28 27  2  0  0  0  0
 29 27  1  0  0  0  0
 29 26  2  0  0  0  0
 31 30  2  0  0  0  0
 31 33  1  0  0  0  0
 32 26  1  0  0  0  0
M  END
>  <MODEL>
8

>  <REMARK>
 VINA RESULT:      -7.3      3.133      7.949
  Name = 
  3 active torsions:
  status: ('A' for Active; 'I' for Inactive)
    1  A    between atoms: C_1  and  C_27
    2  A    between atoms: C_2  and  N_8
    3  A    between atoms: C_20  and  C_24
                            x       y       z     vdW  Elec       q    Type
                         _______ _______ _______ _____ _____    ______ ____

>  <TORSDO>
F 3

$$$$
=
 OpenBabel11062418533D

 33 38  0  0  1  0  0  0  0  0999 V2000
  193.6570  174.4400  145.4430 C   0  0  0  0  0  0  0  0  0  0  0  0
  194.2230  177.1640  145.3990 C   0  0  0  0  0  3  0  0  0  0  0  0
  192.9460  176.7260  145.0370 C   0  0  0  0  0  3  0  0  0  0  0  0
  194.9110  174.9280  145.8230 C   0  0  0  0  0  3  0  0  0  0  0  0
  192.6510  175.3530  145.0640 C   0  0  0  0  0  0  0  0  0  0  0  0
  195.1690  176.2640  145.7860 N   0  0  0  0  0  0  0  0  0  0  0  0
  188.5380  174.5970  142.7230 C   0  0  0  0  0  2  0  0  0  0  0  0
  190.7670  175.4680  143.4250 C   0  0  0  0  0  2  0  0  0  0  0  0
  188.1840  176.3790  145.5960 C   0  0  0  0  0  2  0  0  0  0  0  0
  187.2130  175.2180  142.3160 C   0  0  0  0  0  2  0  0  0  0  0  0
  188.6860  177.0040  143.3110 C   0  0  1  0  0  0  0  0  0  0  0  0
  190.2350  175.2250  145.7350 C   0  0  0  0  0  2  0  0  0  0  0  0
  186.6250  178.9420  142.6050 O   0  0  0  0  0  1  0  0  0  0  0  0
  188.9600  175.2790  145.0310 N   0  0  2  0  0  0  0  0  0  0  0  0
  187.4530  177.3500  141.0310 C   0  0  0  0  0  2  0  0  0  0  0  0
  189.6970  177.9780  142.6900 C   0  0  0  0  0  1  0  0  0  0  0  0
  191.2780  174.8600  144.7040 C   0  0  2  0  0  3  0  0  0  0  0  0
  186.3700  177.6830  142.0510 C   0  0  1  0  0  3  0  0  0  0  0  0
  188.2380  177.5540  144.6460 C   0  0  0  0  0  2  0  0  0  0  0  0
  187.4820  176.6970  142.4000 C   0  0  1  0  0  0  0  0  0  0  0  0
  189.2590  175.6030  143.6300 C   0  0  1  0  0  0  0  0  0  0  0  0
  193.4010  173.0350  145.4910 N   0  0  0  0  0  2  0  0  0  0  0  0
  192.9150  171.0320  144.4270 O   0  0  0  0  0  0  0  0  0  0  0  0
  193.4730  172.1560  144.3580 C   0  0  0  0  0  0  0  0  0  0  0  0
  194.2530  172.4920  143.1150 C   0  0  2  0  0  3  0  0  0  0  0  0
  195.5480  174.9710  142.3380 C   0  0  0  0  0  0  0  0  0  0  0  0
  195.6890  172.8450  143.4250 C   0  0  0  0  0  0  0  0  0  0  0  0
  196.4260  172.0170  144.0270 O   0  0  0  0  0  0  0  0  0  0  0  0
  196.2330  174.1060  143.0220 N   0  0  0  0  0  0  0  0  0  0  0  0
  193.5680  173.5380  142.2750 C   0  0  0  0  0  3  0  0  0  0  0  0
  194.1620  174.6800  141.9180 C   0  0  0  0  0  0  0  0  0  0  0  0
  196.1820  176.2590  141.9600 C   0  0  0  0  0  1  0  0  0  0  0  0
  193.4730  175.5790  141.1730 F   0  0  0  0  0  0  0  0  0  0  0  0
  1 22  1  0  0  0  0
  1  4  1  0  0  0  0
  2  6  1  0  0  0  0
  3  5  1  0  0  0  0
  3  2  2  0  0  0  0
  5  1  2  0  0  0  0
  6  4  2  0  0  0  0
  8 21  1  0  0  0  0
  8 17  1  0  0  0  0
 10 20  1  0  0  0  0
 10  7  1  0  0  0  0
 11 16  1  6  0  0  0
 11 21  1  0  0  0  0
 11 19  1  0  0  0  0
 14  9  1  1  0  0  0
 14 12  1  0  0  0  0
 15 18  1  0  0  0  0
 17  5  1  1  0  0  0
 17 12  1  0  0  0  0
 18 20  1  0  0  0  0
 18 13  1  1  0  0  0
 19  9  1  0  0  0  0
 20 15  1  6  0  0  0
 20 11  1  0  0  0  0
 21  7  1  6  0  0  0
 21 14  1  0  0  0  0
 24 23  2  0  0  0  0
 24 22  1  0  0  0  0
 25 27  1  0  0  0  0
 25 24  1  1  0  0  0
 26 29  2  0  0  0  0
 27 28  2  0  0  0  0
 29 27  1  0  0  0  0
 30 25  1  0  0  0  0
 31 30  2  0  0  0  0
 31 26  1  0  0  0  0
 32 26  1  0  0  0  0
 33 31  1  0  0  0  0
M  END
>  <MODEL>
9

>  <REMARK>
 VINA RESULT:      -7.2      2.627      8.241
  Name = 
  3 active torsions:
  status: ('A' for Active; 'I' for Inactive)
    1  A    between atoms: C_1  and  C_27
    2  A    between atoms: C_2  and  N_8
    3  A    between atoms: C_20  and  C_24
                            x       y       z     vdW  Elec       q    Type
                         _______ _______ _______ _____ _____    ______ ____

>  <TORSDO>
F 3

$$$$
