=
 OpenBabel11062418303D

 54 56  0  0  1  0  0  0  0  0999 V2000
  190.2260  175.3440  143.9990 C   0  0  0  0  0  2  0  0  0  0  0  0
  190.1680  176.8530  143.9510 C   0  0  0  0  0  2  0  0  0  0  0  0
  188.7740  177.3550  143.5850 C   0  0  1  0  0  3  0  0  0  0  0  0
  188.4470  178.6110  141.4520 C   0  0  0  0  0  1  0  0  0  0  0  0
  188.6170  177.2370  142.0740 C   0  0  0  0  0  2  0  0  0  0  0  0
  187.6860  176.5460  144.3240 C   0  0  1  0  0  3  0  0  0  0  0  0
  187.0780  178.2780  145.8000 O   0  0  0  0  0  0  0  0  0  0  0  0
  187.3910  177.1020  145.6880 C   0  0  0  0  0  0  0  0  0  0  0  0
  187.4050  176.2080  146.8960 C   0  0  0  0  0  2  0  0  0  0  0  0
  189.0170  174.4730  147.1650 O   0  0  0  0  0  0  0  0  0  0  0  0
  189.7970  176.6540  147.5460 N   0  0  0  0  0  2  0  0  0  0  0  0
  191.9650  177.3040  148.1840 N   0  0  0  0  0  2  0  0  0  0  0  0
  188.7790  175.7090  147.1910 C   0  0  0  0  0  0  0  0  0  0  0  0
  191.1870  176.3680  147.7480 C   0  0  0  0  0  0  0  0  0  0  0  0
  191.7880  175.0620  147.3490 C   0  0  0  0  0  1  0  0  0  0  0  0
  186.2880  175.4740  142.6980 O   0  0  0  0  0  0  0  0  0  0  0  0
  186.4110  176.3950  143.5480 C   0  0  0  0  0  0  0  0  0  0  0  0
  185.3870  177.3170  143.7430 O   0  0  0  0  0  0  0  0  0  0  0  0
  185.1700  178.4060  142.8580 C   0  0  0  0  0  2  0  0  0  0  0  0
  183.7050  178.4800  142.4780 C   0  0  0  0  0  2  0  0  0  0  0  0
  183.5480  178.1610  141.0250 C   0  0  0  0  0  0  0  0  0  0  0  0
  180.9300  178.8960  142.1420 O   0  0  0  0  0  0  0  0  0  0  0  0
  184.5760  177.8920  140.3520 O   0  0  0  0  0  0  0  0  0  0  0  0
  182.2670  178.0940  140.3890 N   0  0  0  0  0  2  0  0  0  0  0  0
  181.0000  178.4240  140.9760 C   0  0  0  0  0  0  0  0  0  0  0  0
  179.7440  178.2680  140.1760 C   0  0  0  0  0  3  0  0  0  0  0  0
  179.1960  179.5190  139.8940 O   0  0  0  0  0  1  0  0  0  0  0  0
  178.8160  177.5000  140.8690 O   0  0  0  0  0  1  0  0  0  0  0  0
  191.2000  174.8020  142.9610 C   0  0  2  0  0  3  0  0  0  0  0  0
  189.5780  172.6190  140.2490 C   0  0  0  0  0  2  0  0  0  0  0  0
  190.3230  173.8040  140.8350 C   0  0  1  0  0  3  0  0  0  0  0  0
  189.1660  173.3660  142.5810 C   0  0  0  0  0  2  0  0  0  0  0  0
  188.8440  173.6210  141.1260 C   0  0  2  0  0  3  0  0  0  0  0  0
  190.6430  173.5410  142.2960 C   0  0  2  0  0  3  0  0  0  0  0  0
  192.5250  174.4630  143.6410 C   0  0  0  0  0  2  0  0  0  0  0  0
  193.5490  175.4600  143.3310 N   0  0  0  0  0  0  0  0  0  0  0  0
  193.8870  175.3530  141.9140 C   0  0  0  0  0  1  0  0  0  0  0  0
  194.7310  175.2350  144.1880 C   0  0  2  0  0  3  0  0  0  0  0  0
  196.0380  175.2520  143.3960 C   0  0  0  0  0  2  0  0  0  0  0  0
  196.6630  176.4940  143.5380 O   0  0  0  0  0  1  0  0  0  0  0  0
  194.6310  174.0460  145.1620 C   0  0  0  0  0  2  0  0  0  0  0  0
  195.5030  169.2760  144.3030 C   0  0  0  0  0  3  0  0  0  0  0  0
  196.4830  172.5170  145.8350 C   0  0  0  0  0  3  0  0  0  0  0  0
  195.4740  172.8400  144.7670 C   0  0  1  0  0  3  0  0  0  0  0  0
  196.3020  169.0340  145.3560 C   0  0  0  0  0  3  0  0  0  0  0  0
  195.3170  170.5930  143.5900 C   0  0  2  0  0  3  0  0  0  0  0  0
  193.8760  171.1510  145.4910 F   0  0  0  0  0  0  0  0  0  0  0  0
  196.8630  171.2860  146.0150 C   0  0  0  0  0  0  0  0  0  0  0  0
  194.5560  171.6620  144.3910 C   0  0  1  0  0  3  0  0  0  0  0  0
  197.1150  170.0150  146.1000 C   0  0  0  0  0  3  0  0  0  0  0  0
  194.5910  170.3420  142.2800 C   0  0  0  0  0  2  0  0  0  0  0  0
  193.5140  171.2110  142.1500 O   0  0  0  0  0  0  0  0  0  0  0  0
  192.4910  170.4300  141.6100 C   0  0  0  0  0  2  0  0  0  0  0  0
  192.1470  169.4180  142.5100 O   0  0  0  0  0  1  0  0  0  0  0  0
  2  1  1  0  0  0  0
  3  5  1  6  0  0  0
  3  2  1  0  0  0  0
  3  6  1  0  0  0  0
  4  5  1  0  0  0  0
  6 17  1  6  0  0  0
  6  8  1  0  0  0  0
  8  7  2  0  0  0  0
  8  9  1  0  0  0  0
  9 13  1  0  0  0  0
 10 13  2  0  0  0  0
 11 14  1  0  0  0  0
 13 11  1  0  0  0  0
 14 12  2  0  0  0  0
 15 14  1  0  0  0  0
 16 17  2  0  0  0  0
 17 18  1  0  0  0  0
 19 18  1  0  0  0  0
 20 19  1  0  0  0  0
 21 20  1  0  0  0  0
 23 21  2  0  0  0  0
 24 25  1  0  0  0  0
 24 21  1  0  0  0  0
 25 22  2  0  0  0  0
 26 28  1  0  0  0  0
 26 25  1  0  0  0  0
 27 26  1  0  0  0  0
 29 35  1  1  0  0  0
 29  1  1  0  0  0  0
 31 30  1  6  0  0  0
 31 33  1  0  0  0  0
 31 34  1  0  0  0  0
 33 30  1  6  0  0  0
 33 32  1  0  0  0  0
 34 32  1  0  0  0  0
 34 29  1  1  0  0  0
 36 35  1  0  0  0  0
 36 38  1  0  0  0  0
 37 36  1  0  0  0  0
 38 39  1  6  0  0  0
 38 41  1  0  0  0  0
 39 40  1  0  0  0  0
 42 45  2  0  0  0  0
 43 48  2  0  0  0  0
 44 41  1  1  0  0  0
 44 43  1  0  0  0  0
 45 50  1  0  0  0  0
 46 51  1  6  0  0  0
 46 42  1  0  0  0  0
 46 49  1  0  0  0  0
 48 50  2  0  0  0  0
 49 44  1  0  0  0  0
 49 47  1  1  0  0  0
 52 51  1  0  0  0  0
 53 52  1  0  0  0  0
 53 54  1  0  0  0  0
M  END
>  <MODEL>
1

>  <REMARK>
 VINA RESULT:      -6.0      0.000      0.000
  Name = 
  24 active torsions:
  status: ('A' for Active; 'I' for Inactive)
    1  A    between atoms: C_3  and  C_34
    2  A    between atoms: C_4  and  C_48
    3  A    between atoms: C_8  and  C_16
    4  A    between atoms: C_8  and  C_48
    5  A    between atoms: C_9  and  C_26
    6  A    between atoms: C_9  and  C_29
    7  A    between atoms: C_9  and  C_53
    8  A    between atoms: C_10  and  O_17
    9  A    between atoms: O_17  and  C_20
   10  A    between atoms: C_18  and  C_27
   11  A    between atoms: C_20  and  C_37
   12  A    between atoms: N_23  and  C_35
   13  A    between atoms: N_23  and  C_48
   14  A    between atoms: C_25  and  C_33
   15  A    between atoms: C_25  and  C_43
   16  A    between atoms: C_26  and  C_38
   17  A    between atoms: C_27  and  C_39
   18  A    between atoms: C_29  and  C_43
   19  A    between atoms: C_29  and  C_46
   20  A    between atoms: C_31  and  C_38
   21  A    between atoms: C_33  and  C_35
   22  A    between atoms: C_33  and  C_47
   23  A    between atoms: C_39  and  O_45
   24  A    between atoms: O_45  and  C_53
                            x       y       z     vdW  Elec       q    Type
                         _______ _______ _______ _____ _____    ______ ____

>  <TORSDO>
F 24

$$$$
=
 OpenBabel11062418303D

 54 56  0  0  1  0  0  0  0  0999 V2000
  191.9030  174.8080  143.8480 C   0  0  0  0  0  2  0  0  0  0  0  0
  193.1830  174.7900  144.6520 C   0  0  0  0  0  2  0  0  0  0  0  0
  193.9840  176.0780  144.4730 C   0  0  1  0  0  3  0  0  0  0  0  0
  193.2660  176.2110  146.8610 C   0  0  0  0  0  1  0  0  0  0  0  0
  193.6290  177.0110  145.6240 C   0  0  0  0  0  2  0  0  0  0  0  0
  195.4990  175.7830  144.4400 C   0  0  1  0  0  3  0  0  0  0  0  0
  196.1120  174.3010  146.1650 O   0  0  0  0  0  0  0  0  0  0  0  0
  195.8270  174.4210  144.9820 C   0  0  0  0  0  0  0  0  0  0  0  0
  195.7320  173.2060  144.1030 C   0  0  0  0  0  2  0  0  0  0  0  0
  197.4410  171.7720  144.9440 O   0  0  0  0  0  0  0  0  0  0  0  0
  195.2370  171.0380  145.2830 N   0  0  0  0  0  2  0  0  0  0  0  0
  194.5390  169.0490  146.3260 N   0  0  0  0  0  2  0  0  0  0  0  0
  196.2060  171.9820  144.8090 C   0  0  0  0  0  0  0  0  0  0  0  0
  195.5030  169.8740  146.0750 C   0  0  0  0  0  0  0  0  0  0  0  0
  196.8260  169.6510  146.7280 C   0  0  0  0  0  1  0  0  0  0  0  0
  197.3050  176.3630  142.9740 O   0  0  0  0  0  0  0  0  0  0  0  0
  196.1190  175.9550  143.0850 C   0  0  0  0  0  0  0  0  0  0  0  0
  195.3490  175.7060  141.9530 O   0  0  0  0  0  0  0  0  0  0  0  0
  195.8270  175.9630  140.6410 C   0  0  0  0  0  2  0  0  0  0  0  0
  194.9530  175.2580  139.6230 C   0  0  0  0  0  2  0  0  0  0  0  0
  195.6330  174.0110  139.1570 C   0  0  0  0  0  0  0  0  0  0  0  0
  193.4480  173.2930  140.9860 O   0  0  0  0  0  0  0  0  0  0  0  0
  196.5560  174.1080  138.3060 O   0  0  0  0  0  0  0  0  0  0  0  0
  195.3140  172.7190  139.6860 N   0  0  0  0  0  2  0  0  0  0  0  0
  194.2610  172.4080  140.6100 C   0  0  0  0  0  0  0  0  0  0  0  0
  194.0820  171.0000  141.0890 C   0  0  0  0  0  3  0  0  0  0  0  0
  194.8920  170.1360  140.3540 O   0  0  0  0  0  1  0  0  0  0  0  0
  192.7530  170.6090  140.9670 O   0  0  0  0  0  1  0  0  0  0  0  0
  190.9660  173.6910  144.2890 C   0  0  2  0  0  3  0  0  0  0  0  0
  189.6300  172.3660  140.9410 C   0  0  0  0  0  2  0  0  0  0  0  0
  190.0560  173.3940  141.9730 C   0  0  1  0  0  3  0  0  0  0  0  0
  189.4650  171.8880  143.3730 C   0  0  0  0  0  2  0  0  0  0  0  0
  188.8000  172.5710  142.2000 C   0  0  2  0  0  3  0  0  0  0  0  0
  190.7220  172.7020  143.1480 C   0  0  2  0  0  3  0  0  0  0  0  0
  189.6310  174.2940  144.7220 C   0  0  0  0  0  2  0  0  0  0  0  0
  189.7840  175.1100  145.9260 N   0  0  0  0  0  0  0  0  0  0  0  0
  189.2370  174.3680  147.0610 C   0  0  0  0  0  1  0  0  0  0  0  0
  189.0910  176.4000  145.7380 C   0  0  2  0  0  3  0  0  0  0  0  0
  190.0620  177.5770  145.6430 C   0  0  0  0  0  2  0  0  0  0  0  0
  190.1940  177.9760  144.3110 O   0  0  0  0  0  1  0  0  0  0  0  0
  187.9110  176.6670  146.6920 C   0  0  0  0  0  2  0  0  0  0  0  0
  184.6740  178.5390  143.4860 C   0  0  0  0  0  3  0  0  0  0  0  0
  185.5370  177.3990  146.9170 C   0  0  0  0  0  3  0  0  0  0  0  0
  186.5600  176.7910  145.9970 C   0  0  1  0  0  3  0  0  0  0  0  0
  183.8720  179.1630  144.3660 C   0  0  0  0  0  3  0  0  0  0  0  0
  185.5150  177.3110  143.7400 C   0  0  2  0  0  3  0  0  0  0  0  0
  187.0470  178.8760  144.8390 F   0  0  0  0  0  0  0  0  0  0  0  0
  184.5720  178.1200  146.4250 C   0  0  0  0  0  0  0  0  0  0  0  0
  186.7270  177.5350  144.6600 C   0  0  1  0  0  3  0  0  0  0  0  0
  183.6950  178.8390  145.7940 C   0  0  0  0  0  3  0  0  0  0  0  0
  185.9950  176.7630  142.4080 C   0  0  0  0  0  2  0  0  0  0  0  0
  186.4860  177.7910  141.6110 O   0  0  0  0  0  0  0  0  0  0  0  0
  185.8210  177.6440  140.3920 C   0  0  0  0  0  2  0  0  0  0  0  0
  186.7530  177.5670  139.3540 O   0  0  0  0  0  1  0  0  0  0  0  0
  1  2  1  0  0  0  0
  3  2  1  1  0  0  0
  3  5  1  0  0  0  0
  5  4  1  0  0  0  0
  6 17  1  6  0  0  0
  6  3  1  0  0  0  0
  6  8  1  0  0  0  0
  8  7  2  0  0  0  0
  9 13  1  0  0  0  0
  9  8  1  0  0  0  0
 11 14  1  0  0  0  0
 13 10  2  0  0  0  0
 13 11  1  0  0  0  0
 14 12  2  0  0  0  0
 14 15  1  0  0  0  0
 16 17  2  0  0  0  0
 18 17  1  0  0  0  0
 19 18  1  0  0  0  0
 20 19  1  0  0  0  0
 21 20  1  0  0  0  0
 21 24  1  0  0  0  0
 23 21  2  0  0  0  0
 24 25  1  0  0  0  0
 25 22  2  0  0  0  0
 25 26  1  0  0  0  0
 27 26  1  0  0  0  0
 28 26  1  0  0  0  0
 29  1  1  6  0  0  0
 29 35  1  0  0  0  0
 31 30  1  6  0  0  0
 31 33  1  0  0  0  0
 31 34  1  0  0  0  0
 33 30  1  6  0  0  0
 33 32  1  0  0  0  0
 34 32  1  0  0  0  0
 34 29  1  1  0  0  0
 35 36  1  0  0  0  0
 36 37  1  0  0  0  0
 38 39  1  1  0  0  0
 38 36  1  0  0  0  0
 38 41  1  0  0  0  0
 40 39  1  0  0  0  0
 42 46  1  0  0  0  0
 42 45  2  0  0  0  0
 44 41  1  1  0  0  0
 44 43  1  0  0  0  0
 45 50  1  0  0  0  0
 46 51  1  6  0  0  0
 46 49  1  0  0  0  0
 48 43  2  0  0  0  0
 49 47  1  1  0  0  0
 49 44  1  0  0  0  0
 50 48  2  0  0  0  0
 52 51  1  0  0  0  0
 53 52  1  0  0  0  0
 54 53  1  0  0  0  0
M  END
>  <MODEL>
2

>  <REMARK>
 VINA RESULT:      -5.9      3.330     10.029
  Name = 
  24 active torsions:
  status: ('A' for Active; 'I' for Inactive)
    1  A    between atoms: C_3  and  C_34
    2  A    between atoms: C_4  and  C_48
    3  A    between atoms: C_8  and  C_16
    4  A    between atoms: C_8  and  C_48
    5  A    between atoms: C_9  and  C_26
    6  A    between atoms: C_9  and  C_29
    7  A    between atoms: C_9  and  C_53
    8  A    between atoms: C_10  and  O_17
    9  A    between atoms: O_17  and  C_20
   10  A    between atoms: C_18  and  C_27
   11  A    between atoms: C_20  and  C_37
   12  A    between atoms: N_23  and  C_35
   13  A    between atoms: N_23  and  C_48
   14  A    between atoms: C_25  and  C_33
   15  A    between atoms: C_25  and  C_43
   16  A    between atoms: C_26  and  C_38
   17  A    between atoms: C_27  and  C_39
   18  A    between atoms: C_29  and  C_43
   19  A    between atoms: C_29  and  C_46
   20  A    between atoms: C_31  and  C_38
   21  A    between atoms: C_33  and  C_35
   22  A    between atoms: C_33  and  C_47
   23  A    between atoms: C_39  and  O_45
   24  A    between atoms: O_45  and  C_53
                            x       y       z     vdW  Elec       q    Type
                         _______ _______ _______ _____ _____    ______ ____

>  <TORSDO>
F 24

$$$$
=
 OpenBabel11062418303D

 54 56  0  0  1  0  0  0  0  0999 V2000
  191.8100  171.1480  142.6570 C   0  0  0  0  0  2  0  0  0  0  0  0
  191.8370  172.3340  141.7210 C   0  0  0  0  0  2  0  0  0  0  0  0
  191.6300  173.6500  142.4660 C   0  0  1  0  0  3  0  0  0  0  0  0
  193.6610  173.9340  141.0430 C   0  0  0  0  0  1  0  0  0  0  0  0
  192.7490  174.6000  142.0560 C   0  0  0  0  0  2  0  0  0  0  0  0
  190.2430  174.2510  142.1480 C   0  0  1  0  0  3  0  0  0  0  0  0
  189.0700  172.7420  143.5250 O   0  0  0  0  0  0  0  0  0  0  0  0
  189.1270  173.2870  142.4320 C   0  0  0  0  0  0  0  0  0  0  0  0
  188.0460  173.0480  141.4150 C   0  0  0  0  0  2  0  0  0  0  0  0
  188.2690  174.4780  139.5210 O   0  0  0  0  0  0  0  0  0  0  0  0
  189.2110  172.3400  139.2980 N   0  0  0  0  0  2  0  0  0  0  0  0
  190.3140  171.4540  137.4200 N   0  0  0  0  0  2  0  0  0  0  0  0
  188.5180  173.3550  140.0340 C   0  0  0  0  0  0  0  0  0  0  0  0
  189.8290  172.4950  138.0140 C   0  0  0  0  0  0  0  0  0  0  0  0
  190.0470  173.8370  137.4020 C   0  0  0  0  0  1  0  0  0  0  0  0
  190.3270  175.7290  144.0330 O   0  0  0  0  0  0  0  0  0  0  0  0
  189.9770  175.5570  142.8360 C   0  0  0  0  0  0  0  0  0  0  0  0
  189.2940  176.5560  142.1490 O   0  0  0  0  0  0  0  0  0  0  0  0
  188.6220  177.6120  142.8200 C   0  0  0  0  0  2  0  0  0  0  0  0
  187.2120  177.1850  143.1760 C   0  0  0  0  0  2  0  0  0  0  0  0
  186.3470  178.3950  143.3270 C   0  0  0  0  0  0  0  0  0  0  0  0
  187.1980  177.4760  145.9870 O   0  0  0  0  0  0  0  0  0  0  0  0
  185.9400  178.9800  142.2900 O   0  0  0  0  0  0  0  0  0  0  0  0
  185.9180  178.8760  144.6060 N   0  0  0  0  0  2  0  0  0  0  0  0
  186.3240  178.3790  145.8890 C   0  0  0  0  0  0  0  0  0  0  0  0
  185.7530  178.9790  147.1370 C   0  0  0  0  0  3  0  0  0  0  0  0
  186.6020  178.7390  148.2170 O   0  0  0  0  0  1  0  0  0  0  0  0
  184.4980  178.4440  147.4050 O   0  0  0  0  0  1  0  0  0  0  0  0
  192.9720  170.2050  142.3760 C   0  0  2  0  0  3  0  0  0  0  0  0
  191.7450  168.1740  139.3560 C   0  0  0  0  0  2  0  0  0  0  0  0
  192.4090  169.3180  140.1010 C   0  0  1  0  0  3  0  0  0  0  0  0
  190.9990  168.8260  141.6330 C   0  0  0  0  0  2  0  0  0  0  0  0
  190.9010  169.1510  140.1600 C   0  0  2  0  0  3  0  0  0  0  0  0
  192.5040  168.9850  141.5790 C   0  0  2  0  0  3  0  0  0  0  0  0
  193.5720  169.7350  143.7000 C   0  0  0  0  0  2  0  0  0  0  0  0
  195.0320  169.7040  143.6380 N   0  0  0  0  0  0  0  0  0  0  0  0
  195.5340  169.0520  144.8470 C   0  0  0  0  0  1  0  0  0  0  0  0
  195.5500  171.0810  143.5120 C   0  0  2  0  0  3  0  0  0  0  0  0
  196.8780  171.1390  142.7580 C   0  0  0  0  0  2  0  0  0  0  0  0
  197.9310  171.3030  143.6630 O   0  0  0  0  0  1  0  0  0  0  0  0
  195.5540  171.9130  144.8080 C   0  0  0  0  0  2  0  0  0  0  0  0
  194.7080  176.6880  145.6640 C   0  0  0  0  0  3  0  0  0  0  0  0
  193.5280  173.1660  145.5450 C   0  0  0  0  0  3  0  0  0  0  0  0
  194.7810  173.2220  144.7150 C   0  0  1  0  0  3  0  0  0  0  0  0
  193.6650  176.5510  146.5000 C   0  0  0  0  0  3  0  0  0  0  0  0
  195.1210  175.7370  144.5680 C   0  0  2  0  0  3  0  0  0  0  0  0
  196.0750  174.4150  146.3970 F   0  0  0  0  0  0  0  0  0  0  0  0
  193.0610  174.2530  146.0860 C   0  0  0  0  0  0  0  0  0  0  0  0
  195.7100  174.4020  145.0560 C   0  0  1  0  0  3  0  0  0  0  0  0
  192.7390  175.4060  146.5880 C   0  0  0  0  0  3  0  0  0  0  0  0
  196.1340  176.4300  143.6740 C   0  0  0  0  0  2  0  0  0  0  0  0
  196.5100  175.5930  142.6300 O   0  0  0  0  0  0  0  0  0  0  0  0
  196.5920  176.4310  141.5160 C   0  0  0  0  0  2  0  0  0  0  0  0
  195.3250  176.9300  141.2070 O   0  0  0  0  0  1  0  0  0  0  0  0
  2  1  1  0  0  0  0
  3  2  1  6  0  0  0
  4  5  1  0  0  0  0
  5  3  1  0  0  0  0
  6  8  1  1  0  0  0
  6  3  1  0  0  0  0
  6 17  1  0  0  0  0
  8  7  2  0  0  0  0
  9  8  1  0  0  0  0
 10 13  2  0  0  0  0
 11 13  1  0  0  0  0
 12 14  2  0  0  0  0
 13  9  1  0  0  0  0
 14 11  1  0  0  0  0
 15 14  1  0  0  0  0
 17 16  2  0  0  0  0
 18 19  1  0  0  0  0
 18 17  1  0  0  0  0
 19 20  1  0  0  0  0
 20 21  1  0  0  0  0
 21 24  1  0  0  0  0
 23 21  2  0  0  0  0
 24 25  1  0  0  0  0
 25 22  2  0  0  0  0
 25 26  1  0  0  0  0
 26 28  1  0  0  0  0
 26 27  1  0  0  0  0
 29  1  1  1  0  0  0
 29 35  1  0  0  0  0
 31 30  1  6  0  0  0
 31 33  1  0  0  0  0
 31 34  1  0  0  0  0
 33 30  1  6  0  0  0
 33 32  1  0  0  0  0
 34 32  1  0  0  0  0
 34 29  1  1  0  0  0
 36 35  1  0  0  0  0
 36 37  1  0  0  0  0
 38 39  1  1  0  0  0
 38 36  1  0  0  0  0
 38 41  1  0  0  0  0
 39 40  1  0  0  0  0
 42 45  2  0  0  0  0
 43 48  2  0  0  0  0
 44 41  1  1  0  0  0
 44 49  1  0  0  0  0
 44 43  1  0  0  0  0
 45 50  1  0  0  0  0
 46 51  1  6  0  0  0
 46 49  1  0  0  0  0
 46 42  1  0  0  0  0
 48 50  2  0  0  0  0
 49 47  1  1  0  0  0
 52 51  1  0  0  0  0
 53 52  1  0  0  0  0
 54 53  1  0  0  0  0
M  END
>  <MODEL>
3

>  <REMARK>
 VINA RESULT:      -5.9      3.226      6.300
  Name = 
  24 active torsions:
  status: ('A' for Active; 'I' for Inactive)
    1  A    between atoms: C_3  and  C_34
    2  A    between atoms: C_4  and  C_48
    3  A    between atoms: C_8  and  C_16
    4  A    between atoms: C_8  and  C_48
    5  A    between atoms: C_9  and  C_26
    6  A    between atoms: C_9  and  C_29
    7  A    between atoms: C_9  and  C_53
    8  A    between atoms: C_10  and  O_17
    9  A    between atoms: O_17  and  C_20
   10  A    between atoms: C_18  and  C_27
   11  A    between atoms: C_20  and  C_37
   12  A    between atoms: N_23  and  C_35
   13  A    between atoms: N_23  and  C_48
   14  A    between atoms: C_25  and  C_33
   15  A    between atoms: C_25  and  C_43
   16  A    between atoms: C_26  and  C_38
   17  A    between atoms: C_27  and  C_39
   18  A    between atoms: C_29  and  C_43
   19  A    between atoms: C_29  and  C_46
   20  A    between atoms: C_31  and  C_38
   21  A    between atoms: C_33  and  C_35
   22  A    between atoms: C_33  and  C_47
   23  A    between atoms: C_39  and  O_45
   24  A    between atoms: O_45  and  C_53
                            x       y       z     vdW  Elec       q    Type
                         _______ _______ _______ _____ _____    ______ ____

>  <TORSDO>
F 24

$$$$
=
 OpenBabel11062418303D

 54 56  0  0  1  0  0  0  0  0999 V2000
  192.3070  173.8320  145.1280 C   0  0  0  0  0  2  0  0  0  0  0  0
  193.7370  173.3450  145.1190 C   0  0  0  0  0  2  0  0  0  0  0  0
  194.6890  174.3910  144.5410 C   0  0  1  0  0  3  0  0  0  0  0  0
  196.5770  173.8830  146.0920 C   0  0  0  0  0  1  0  0  0  0  0  0
  195.5490  174.9210  145.6810 C   0  0  0  0  0  2  0  0  0  0  0  0
  195.5600  173.7820  143.4200 C   0  0  1  0  0  3  0  0  0  0  0  0
  194.1100  172.1940  142.4590 O   0  0  0  0  0  0  0  0  0  0  0  0
  195.1470  172.3780  143.0780 C   0  0  0  0  0  0  0  0  0  0  0  0
  196.0340  171.2160  143.4250 C   0  0  0  0  0  2  0  0  0  0  0  0
  194.2430  170.0390  144.4680 O   0  0  0  0  0  0  0  0  0  0  0  0
  196.2750  170.0520  145.6440 N   0  0  0  0  0  2  0  0  0  0  0  0
  196.7230  169.0640  147.7310 N   0  0  0  0  0  2  0  0  0  0  0  0
  195.4520  170.3910  144.5210 C   0  0  0  0  0  0  0  0  0  0  0  0
  195.9190  169.1790  146.7250 C   0  0  0  0  0  0  0  0  0  0  0  0
  194.7140  168.3030  146.6650 C   0  0  0  0  0  1  0  0  0  0  0  0
  195.0140  175.7220  142.1230 O   0  0  0  0  0  0  0  0  0  0  0  0
  195.6130  174.6160  142.1750 C   0  0  0  0  0  0  0  0  0  0  0  0
  196.2910  174.1270  141.0620 O   0  0  0  0  0  0  0  0  0  0  0  0
  196.8860  174.9860  140.1010 C   0  0  0  0  0  2  0  0  0  0  0  0
  196.0500  175.0090  138.8370 C   0  0  0  0  0  2  0  0  0  0  0  0
  196.1510  173.6860  138.1460 C   0  0  0  0  0  0  0  0  0  0  0  0
  193.4840  173.9440  139.3540 O   0  0  0  0  0  0  0  0  0  0  0  0
  197.2000  173.4200  137.5040 O   0  0  0  0  0  0  0  0  0  0  0  0
  195.1240  172.6930  138.2390 N   0  0  0  0  0  2  0  0  0  0  0  0
  193.8450  172.8390  138.8700 C   0  0  0  0  0  0  0  0  0  0  0  0
  192.8930  171.6820  138.9040 C   0  0  0  0  0  3  0  0  0  0  0  0
  193.5980  170.4820  138.9780 O   0  0  0  0  0  1  0  0  0  0  0  0
  192.0890  171.6790  137.7690 O   0  0  0  0  0  1  0  0  0  0  0  0
  191.9470  174.4920  143.8030 C   0  0  2  0  0  3  0  0  0  0  0  0
  190.7430  178.0980  143.2560 C   0  0  0  0  0  2  0  0  0  0  0  0
  191.3790  176.7640  142.9100 C   0  0  1  0  0  3  0  0  0  0  0  0
  191.8330  176.7050  145.0000 C   0  0  0  0  0  2  0  0  0  0  0  0
  192.0690  177.7000  143.8860 C   0  0  2  0  0  3  0  0  0  0  0  0
  191.1380  175.7710  144.0320 C   0  0  2  0  0  3  0  0  0  0  0  0
  191.1190  173.5200  142.9650 C   0  0  0  0  0  2  0  0  0  0  0  0
  189.7000  173.6000  143.3100 N   0  0  0  0  0  0  0  0  0  0  0  0
  189.3430  172.4120  144.0830 C   0  0  0  0  0  1  0  0  0  0  0  0
  188.8970  173.7030  142.0750 C   0  0  2  0  0  3  0  0  0  0  0  0
  189.7310  174.1360  140.8700 C   0  0  0  0  0  2  0  0  0  0  0  0
  189.6740  173.1550  139.8760 O   0  0  0  0  0  1  0  0  0  0  0  0
  187.5740  174.4800  142.2040 C   0  0  0  0  0  2  0  0  0  0  0  0
  186.5480  178.5140  144.8360 C   0  0  0  0  0  3  0  0  0  0  0  0
  187.2400  176.8710  141.5750 C   0  0  0  0  0  3  0  0  0  0  0  0
  187.7390  175.9310  142.6390 C   0  0  1  0  0  3  0  0  0  0  0  0
  186.0000  179.2500  143.8540 C   0  0  0  0  0  3  0  0  0  0  0  0
  187.5900  177.4330  144.6830 C   0  0  2  0  0  3  0  0  0  0  0  0
  185.7030  176.0430  143.9690 F   0  0  0  0  0  0  0  0  0  0  0  0
  186.7370  178.0210  141.9130 C   0  0  0  0  0  0  0  0  0  0  0  0
  187.0890  176.1390  144.0190 C   0  0  1  0  0  3  0  0  0  0  0  0
  186.2310  179.1120  142.4040 C   0  0  0  0  0  3  0  0  0  0  0  0
  188.1550  177.1010  146.0540 C   0  0  0  0  0  2  0  0  0  0  0  0
  187.8240  175.7990  146.4110 O   0  0  0  0  0  0  0  0  0  0  0  0
  189.0260  175.2320  146.8370 C   0  0  0  0  0  2  0  0  0  0  0  0
  188.7810  174.3430  147.8860 O   0  0  0  0  0  1  0  0  0  0  0  0
  2  1  1  0  0  0  0
  3  2  1  1  0  0  0
  3  5  1  0  0  0  0
  5  4  1  0  0  0  0
  6 17  1  6  0  0  0
  6  3  1  0  0  0  0
  7  8  2  0  0  0  0
  8  6  1  0  0  0  0
  8  9  1  0  0  0  0
  9 13  1  0  0  0  0
 10 13  2  0  0  0  0
 11 14  1  0  0  0  0
 13 11  1  0  0  0  0
 14 12  2  0  0  0  0
 15 14  1  0  0  0  0
 16 17  2  0  0  0  0
 18 17  1  0  0  0  0
 19 18  1  0  0  0  0
 20 19  1  0  0  0  0
 21 24  1  0  0  0  0
 21 20  1  0  0  0  0
 23 21  2  0  0  0  0
 24 25  1  0  0  0  0
 25 26  1  0  0  0  0
 25 22  2  0  0  0  0
 26 27  1  0  0  0  0
 28 26  1  0  0  0  0
 29 35  1  6  0  0  0
 29  1  1  0  0  0  0
 31 30  1  1  0  0  0
 31 33  1  0  0  0  0
 31 34  1  0  0  0  0
 33 30  1  1  0  0  0
 33 32  1  0  0  0  0
 34 29  1  6  0  0  0
 34 32  1  0  0  0  0
 35 36  1  0  0  0  0
 36 37  1  0  0  0  0
 38 39  1  6  0  0  0
 38 41  1  0  0  0  0
 38 36  1  0  0  0  0
 40 39  1  0  0  0  0
 43 48  2  0  0  0  0
 43 44  1  0  0  0  0
 44 41  1  6  0  0  0
 44 49  1  0  0  0  0
 45 42  2  0  0  0  0
 46 42  1  0  0  0  0
 46 51  1  1  0  0  0
 48 50  2  0  0  0  0
 49 47  1  6  0  0  0
 49 46  1  0  0  0  0
 50 45  1  0  0  0  0
 51 52  1  0  0  0  0
 52 53  1  0  0  0  0
 53 54  1  0  0  0  0
M  END
>  <MODEL>
4

>  <REMARK>
 VINA RESULT:      -5.8      3.994      9.932
  Name = 
  24 active torsions:
  status: ('A' for Active; 'I' for Inactive)
    1  A    between atoms: C_3  and  C_34
    2  A    between atoms: C_4  and  C_48
    3  A    between atoms: C_8  and  C_16
    4  A    between atoms: C_8  and  C_48
    5  A    between atoms: C_9  and  C_26
    6  A    between atoms: C_9  and  C_29
    7  A    between atoms: C_9  and  C_53
    8  A    between atoms: C_10  and  O_17
    9  A    between atoms: O_17  and  C_20
   10  A    between atoms: C_18  and  C_27
   11  A    between atoms: C_20  and  C_37
   12  A    between atoms: N_23  and  C_35
   13  A    between atoms: N_23  and  C_48
   14  A    between atoms: C_25  and  C_33
   15  A    between atoms: C_25  and  C_43
   16  A    between atoms: C_26  and  C_38
   17  A    between atoms: C_27  and  C_39
   18  A    between atoms: C_29  and  C_43
   19  A    between atoms: C_29  and  C_46
   20  A    between atoms: C_31  and  C_38
   21  A    between atoms: C_33  and  C_35
   22  A    between atoms: C_33  and  C_47
   23  A    between atoms: C_39  and  O_45
   24  A    between atoms: O_45  and  C_53
                            x       y       z     vdW  Elec       q    Type
                         _______ _______ _______ _____ _____    ______ ____

>  <TORSDO>
F 24

$$$$
=
 OpenBabel11062418303D

 54 56  0  0  1  0  0  0  0  0999 V2000
  193.2610  172.8330  145.2310 C   0  0  0  0  0  2  0  0  0  0  0  0
  192.0250  172.7870  144.3620 C   0  0  0  0  0  2  0  0  0  0  0  0
  191.0640  173.9300  144.6810 C   0  0  1  0  0  3  0  0  0  0  0  0
  189.6370  171.8880  144.8340 C   0  0  0  0  0  1  0  0  0  0  0  0
  189.8050  173.3250  145.2890 C   0  0  0  0  0  2  0  0  0  0  0  0
  191.7180  174.9450  145.6450 C   0  0  1  0  0  3  0  0  0  0  0  0
  192.7320  177.0690  145.5690 O   0  0  0  0  0  0  0  0  0  0  0  0
  192.1090  176.2190  144.9510 C   0  0  0  0  0  0  0  0  0  0  0  0
  191.8030  176.4180  143.4930 C   0  0  0  0  0  2  0  0  0  0  0  0
  190.2320  178.1790  143.8300 O   0  0  0  0  0  0  0  0  0  0  0  0
  189.4760  176.3750  142.5330 N   0  0  0  0  0  2  0  0  0  0  0  0
  187.3510  176.1040  141.5620 N   0  0  0  0  0  2  0  0  0  0  0  0
  190.4740  177.0640  143.2960 C   0  0  0  0  0  0  0  0  0  0  0  0
  188.1950  176.8900  142.1490 C   0  0  0  0  0  0  0  0  0  0  0  0
  187.8530  178.3350  142.2880 C   0  0  0  0  0  1  0  0  0  0  0  0
  191.4130  175.3170  147.9930 O   0  0  0  0  0  0  0  0  0  0  0  0
  190.8840  175.2560  146.8520 C   0  0  0  0  0  0  0  0  0  0  0  0
  189.5120  175.4260  146.7000 O   0  0  0  0  0  0  0  0  0  0  0  0
  188.8900  176.6980  146.8090 C   0  0  0  0  0  2  0  0  0  0  0  0
  187.3860  176.5530  146.6830 C   0  0  0  0  0  2  0  0  0  0  0  0
  186.7340  177.8760  146.9260 C   0  0  0  0  0  0  0  0  0  0  0  0
  185.5270  176.6250  144.5560 O   0  0  0  0  0  0  0  0  0  0  0  0
  187.0680  178.5350  147.9450 O   0  0  0  0  0  0  0  0  0  0  0  0
  185.7890  178.4440  146.0130 N   0  0  0  0  0  2  0  0  0  0  0  0
  185.2470  177.8190  144.8410 C   0  0  0  0  0  0  0  0  0  0  0  0
  184.2850  178.5700  143.9720 C   0  0  0  0  0  3  0  0  0  0  0  0
  184.3550  178.0990  142.6620 O   0  0  0  0  0  1  0  0  0  0  0  0
  184.5690  179.9310  143.9930 O   0  0  0  0  0  1  0  0  0  0  0  0
  194.5080  173.0800  144.3920 C   0  0  2  0  0  3  0  0  0  0  0  0
  196.2030  176.4290  143.5760 C   0  0  0  0  0  2  0  0  0  0  0  0
  195.4790  175.1220  143.3090 C   0  0  1  0  0  3  0  0  0  0  0  0
  196.4910  174.4730  145.0800 C   0  0  0  0  0  2  0  0  0  0  0  0
  196.9240  175.1040  143.7760 C   0  0  2  0  0  3  0  0  0  0  0  0
  195.0480  174.4940  144.6220 C   0  0  2  0  0  3  0  0  0  0  0  0
  194.1640  172.9110  142.9140 C   0  0  0  0  0  2  0  0  0  0  0  0
  194.7970  171.7180  142.3560 N   0  0  0  0  0  0  0  0  0  0  0  0
  195.5050  172.0950  141.1340 C   0  0  0  0  0  1  0  0  0  0  0  0
  193.7690  170.6920  142.0900 C   0  0  2  0  0  3  0  0  0  0  0  0
  193.9810  169.4230  142.9160 C   0  0  0  0  0  2  0  0  0  0  0  0
  195.2450  169.4490  143.5100 O   0  0  0  0  0  1  0  0  0  0  0  0
  193.4830  170.4050  140.6040 C   0  0  0  0  0  2  0  0  0  0  0  0
  190.1260  173.5340  138.8140 C   0  0  0  0  0  3  0  0  0  0  0  0
  191.1570  170.9740  141.3040 C   0  0  0  0  0  3  0  0  0  0  0  0
  192.0970  170.8350  140.1380 C   0  0  1  0  0  3  0  0  0  0  0  0
  189.4050  173.7030  139.9360 C   0  0  0  0  0  3  0  0  0  0  0  0
  190.9340  172.3170  138.4330 C   0  0  2  0  0  3  0  0  0  0  0  0
  192.5900  173.2150  139.9990 F   0  0  0  0  0  0  0  0  0  0  0  0
  190.1910  171.8440  141.2570 C   0  0  0  0  0  0  0  0  0  0  0  0
  192.2090  172.0980  139.2650 C   0  0  1  0  0  3  0  0  0  0  0  0
  189.3050  172.7760  141.0780 C   0  0  0  0  0  3  0  0  0  0  0  0
  191.3100  172.4200  136.9650 C   0  0  0  0  0  2  0  0  0  0  0  0
  192.4860  171.7220  136.7160 O   0  0  0  0  0  0  0  0  0  0  0  0
  192.5100  171.5500  135.3310 C   0  0  0  0  0  2  0  0  0  0  0  0
  191.4490  172.2490  134.7510 O   0  0  0  0  0  1  0  0  0  0  0  0
  2  1  1  0  0  0  0
  3  2  1  1  0  0  0
  3  5  1  0  0  0  0
  3  6  1  0  0  0  0
  4  5  1  0  0  0  0
  6  8  1  6  0  0  0
  6 17  1  0  0  0  0
  8  7  2  0  0  0  0
  9  8  1  0  0  0  0
 11 13  1  0  0  0  0
 12 14  2  0  0  0  0
 13  9  1  0  0  0  0
 13 10  2  0  0  0  0
 14 15  1  0  0  0  0
 14 11  1  0  0  0  0
 17 16  2  0  0  0  0
 18 19  1  0  0  0  0
 18 17  1  0  0  0  0
 20 19  1  0  0  0  0
 20 21  1  0  0  0  0
 21 23  2  0  0  0  0
 22 25  2  0  0  0  0
 24 21  1  0  0  0  0
 25 24  1  0  0  0  0
 26 28  1  0  0  0  0
 26 25  1  0  0  0  0
 27 26  1  0  0  0  0
 29 35  1  6  0  0  0
 29  1  1  0  0  0  0
 31 30  1  1  0  0  0
 31 33  1  0  0  0  0
 31 34  1  0  0  0  0
 33 30  1  1  0  0  0
 33 32  1  0  0  0  0
 34 29  1  6  0  0  0
 34 32  1  0  0  0  0
 36 35  1  0  0  0  0
 37 36  1  0  0  0  0
 38 41  1  6  0  0  0
 38 36  1  0  0  0  0
 38 39  1  0  0  0  0
 39 40  1  0  0  0  0
 42 45  2  0  0  0  0
 44 41  1  1  0  0  0
 44 43  1  0  0  0  0
 45 50  1  0  0  0  0
 46 51  1  6  0  0  0
 46 42  1  0  0  0  0
 46 49  1  0  0  0  0
 48 43  2  0  0  0  0
 49 47  1  1  0  0  0
 49 44  1  0  0  0  0
 50 48  2  0  0  0  0
 52 51  1  0  0  0  0
 53 52  1  0  0  0  0
 54 53  1  0  0  0  0
M  END
>  <MODEL>
5

>  <REMARK>
 VINA RESULT:      -5.7      2.918      6.377
  Name = 
  24 active torsions:
  status: ('A' for Active; 'I' for Inactive)
    1  A    between atoms: C_3  and  C_34
    2  A    between atoms: C_4  and  C_48
    3  A    between atoms: C_8  and  C_16
    4  A    between atoms: C_8  and  C_48
    5  A    between atoms: C_9  and  C_26
    6  A    between atoms: C_9  and  C_29
    7  A    between atoms: C_9  and  C_53
    8  A    between atoms: C_10  and  O_17
    9  A    between atoms: O_17  and  C_20
   10  A    between atoms: C_18  and  C_27
   11  A    between atoms: C_20  and  C_37
   12  A    between atoms: N_23  and  C_35
   13  A    between atoms: N_23  and  C_48
   14  A    between atoms: C_25  and  C_33
   15  A    between atoms: C_25  and  C_43
   16  A    between atoms: C_26  and  C_38
   17  A    between atoms: C_27  and  C_39
   18  A    between atoms: C_29  and  C_43
   19  A    between atoms: C_29  and  C_46
   20  A    between atoms: C_31  and  C_38
   21  A    between atoms: C_33  and  C_35
   22  A    between atoms: C_33  and  C_47
   23  A    between atoms: C_39  and  O_45
   24  A    between atoms: O_45  and  C_53
                            x       y       z     vdW  Elec       q    Type
                         _______ _______ _______ _____ _____    ______ ____

>  <TORSDO>
F 24

$$$$
=
 OpenBabel11062418303D

 54 56  0  0  1  0  0  0  0  0999 V2000
  192.3150  173.1200  145.1310 C   0  0  0  0  0  2  0  0  0  0  0  0
  191.4060  172.2910  144.2530 C   0  0  0  0  0  2  0  0  0  0  0  0
  192.0730  171.9280  142.9280 C   0  0  1  0  0  3  0  0  0  0  0  0
  194.5150  171.4100  142.9530 C   0  0  0  0  0  1  0  0  0  0  0  0
  193.1240  170.8620  143.2120 C   0  0  0  0  0  2  0  0  0  0  0  0
  191.0300  171.4250  141.9060 C   0  0  1  0  0  3  0  0  0  0  0  0
  188.7850  172.0940  142.1550 O   0  0  0  0  0  0  0  0  0  0  0  0
  189.8930  172.3910  141.7320 C   0  0  0  0  0  0  0  0  0  0  0  0
  190.1250  173.7410  141.1130 C   0  0  0  0  0  2  0  0  0  0  0  0
  188.2050  174.6340  140.0190 O   0  0  0  0  0  0  0  0  0  0  0  0
  189.6230  173.3280  138.6800 N   0  0  0  0  0  2  0  0  0  0  0  0
  189.3450  172.7870  136.4080 N   0  0  0  0  0  2  0  0  0  0  0  0
  189.2590  173.9510  139.9180 C   0  0  0  0  0  0  0  0  0  0  0  0
  188.9770  173.5120  137.4140 C   0  0  0  0  0  0  0  0  0  0  0  0
  187.9830  174.6010  137.1890 C   0  0  0  0  0  1  0  0  0  0  0  0
  191.2580  170.0250  139.9750 O   0  0  0  0  0  0  0  0  0  0  0  0
  191.6120  171.0770  140.5690 C   0  0  0  0  0  0  0  0  0  0  0  0
  192.5860  171.9050  140.0190 O   0  0  0  0  0  0  0  0  0  0  0  0
  193.2630  171.5800  138.8140 C   0  0  0  0  0  2  0  0  0  0  0  0
  193.0620  172.6820  137.7920 C   0  0  0  0  0  2  0  0  0  0  0  0
  194.2710  173.5610  137.7600 C   0  0  0  0  0  0  0  0  0  0  0  0
  191.9710  175.0430  136.6870 O   0  0  0  0  0  0  0  0  0  0  0  0
  195.3470  173.1250  138.2470 O   0  0  0  0  0  0  0  0  0  0  0  0
  194.2640  174.8530  137.1420 N   0  0  0  0  0  2  0  0  0  0  0  0
  193.1270  175.5330  136.5930 C   0  0  0  0  0  0  0  0  0  0  0  0
  193.2990  176.8760  135.9520 C   0  0  0  0  0  3  0  0  0  0  0  0
  192.2530  177.1220  135.0640 O   0  0  0  0  0  1  0  0  0  0  0  0
  194.5100  176.9400  135.2720 O   0  0  0  0  0  1  0  0  0  0  0  0
  192.1510  174.6050  144.8370 C   0  0  2  0  0  3  0  0  0  0  0  0
  195.9470  175.1850  144.9250 C   0  0  0  0  0  2  0  0  0  0  0  0
  194.6400  174.4310  145.0830 C   0  0  1  0  0  3  0  0  0  0  0  0
  193.8330  176.3790  145.4480 C   0  0  0  0  0  2  0  0  0  0  0  0
  194.9730  175.5720  146.0270 C   0  0  2  0  0  3  0  0  0  0  0  0
  193.5000  175.2460  144.5000 C   0  0  2  0  0  3  0  0  0  0  0  0
  191.5610  175.3000  146.0630 C   0  0  0  0  0  2  0  0  0  0  0  0
  190.2360  175.8460  145.7740 N   0  0  0  0  0  0  0  0  0  0  0  0
  189.2460  174.7860  145.9610 C   0  0  0  0  0  1  0  0  0  0  0  0
  190.2090  176.3740  144.3960 C   0  0  2  0  0  3  0  0  0  0  0  0
  190.4620  177.8800  144.3420 C   0  0  0  0  0  2  0  0  0  0  0  0
  191.3480  178.1760  143.3020 O   0  0  0  0  0  1  0  0  0  0  0  0
  189.0100  175.9320  143.5360 C   0  0  0  0  0  2  0  0  0  0  0  0
  184.5780  177.9640  142.8390 C   0  0  0  0  0  3  0  0  0  0  0  0
  188.0720  177.3650  141.7220 C   0  0  0  0  0  3  0  0  0  0  0  0
  188.0370  177.0540  143.1940 C   0  0  1  0  0  3  0  0  0  0  0  0
  184.6360  178.0960  141.5030 C   0  0  0  0  0  3  0  0  0  0  0  0
  185.7420  177.9620  143.8000 C   0  0  2  0  0  3  0  0  0  0  0  0
  186.0530  175.6500  143.0500 F   0  0  0  0  0  0  0  0  0  0  0  0
  187.0000  177.7990  141.1270 C   0  0  0  0  0  0  0  0  0  0  0  0
  186.6360  176.7120  143.7330 C   0  0  1  0  0  3  0  0  0  0  0  0
  185.8490  178.1880  140.6690 C   0  0  0  0  0  3  0  0  0  0  0  0
  185.2100  178.1180  145.2140 C   0  0  0  0  0  2  0  0  0  0  0  0
  186.2250  177.9010  146.1390 O   0  0  0  0  0  0  0  0  0  0  0  0
  185.9750  178.8180  147.1610 C   0  0  0  0  0  2  0  0  0  0  0  0
  184.8040  178.4640  147.8360 O   0  0  0  0  0  1  0  0  0  0  0  0
  2  1  1  0  0  0  0
  3  5  1  1  0  0  0
  3  2  1  0  0  0  0
  4  5  1  0  0  0  0
  6 17  1  6  0  0  0
  6  3  1  0  0  0  0
  8  6  1  0  0  0  0
  8  7  2  0  0  0  0
  9  8  1  0  0  0  0
 11 13  1  0  0  0  0
 12 14  2  0  0  0  0
 13 10  2  0  0  0  0
 13  9  1  0  0  0  0
 14 11  1  0  0  0  0
 15 14  1  0  0  0  0
 16 17  2  0  0  0  0
 18 17  1  0  0  0  0
 19 18  1  0  0  0  0
 20 19  1  0  0  0  0
 21 20  1  0  0  0  0
 21 23  2  0  0  0  0
 24 21  1  0  0  0  0
 25 22  2  0  0  0  0
 25 24  1  0  0  0  0
 26 25  1  0  0  0  0
 27 26  1  0  0  0  0
 28 26  1  0  0  0  0
 29  1  1  1  0  0  0
 29 35  1  0  0  0  0
 31 30  1  6  0  0  0
 31 33  1  0  0  0  0
 32 33  1  0  0  0  0
 33 30  1  6  0  0  0
 34 29  1  1  0  0  0
 34 31  1  0  0  0  0
 34 32  1  0  0  0  0
 36 37  1  0  0  0  0
 36 35  1  0  0  0  0
 38 41  1  1  0  0  0
 38 36  1  0  0  0  0
 39 38  1  0  0  0  0
 40 39  1  0  0  0  0
 42 46  1  0  0  0  0
 43 44  1  0  0  0  0
 44 41  1  6  0  0  0
 44 49  1  0  0  0  0
 45 42  2  0  0  0  0
 46 51  1  1  0  0  0
 48 43  2  0  0  0  0
 49 47  1  6  0  0  0
 49 46  1  0  0  0  0
 50 48  2  0  0  0  0
 50 45  1  0  0  0  0
 51 52  1  0  0  0  0
 52 53  1  0  0  0  0
 53 54  1  0  0  0  0
M  END
>  <MODEL>
6

>  <REMARK>
 VINA RESULT:      -5.7      3.768      9.920
  Name = 
  24 active torsions:
  status: ('A' for Active; 'I' for Inactive)
    1  A    between atoms: C_3  and  C_34
    2  A    between atoms: C_4  and  C_48
    3  A    between atoms: C_8  and  C_16
    4  A    between atoms: C_8  and  C_48
    5  A    between atoms: C_9  and  C_26
    6  A    between atoms: C_9  and  C_29
    7  A    between atoms: C_9  and  C_53
    8  A    between atoms: C_10  and  O_17
    9  A    between atoms: O_17  and  C_20
   10  A    between atoms: C_18  and  C_27
   11  A    between atoms: C_20  and  C_37
   12  A    between atoms: N_23  and  C_35
   13  A    between atoms: N_23  and  C_48
   14  A    between atoms: C_25  and  C_33
   15  A    between atoms: C_25  and  C_43
   16  A    between atoms: C_26  and  C_38
   17  A    between atoms: C_27  and  C_39
   18  A    between atoms: C_29  and  C_43
   19  A    between atoms: C_29  and  C_46
   20  A    between atoms: C_31  and  C_38
   21  A    between atoms: C_33  and  C_35
   22  A    between atoms: C_33  and  C_47
   23  A    between atoms: C_39  and  O_45
   24  A    between atoms: O_45  and  C_53
                            x       y       z     vdW  Elec       q    Type
                         _______ _______ _______ _____ _____    ______ ____

>  <TORSDO>
F 24

$$$$
=
 OpenBabel11062418303D

 54 56  0  0  1  0  0  0  0  0999 V2000
  193.5380  176.0350  146.2700 C   0  0  0  0  0  2  0  0  0  0  0  0
  192.5200  176.7850  145.4430 C   0  0  0  0  0  2  0  0  0  0  0  0
  191.0940  176.5150  145.9180 C   0  0  1  0  0  3  0  0  0  0  0  0
  190.5990  175.2710  148.0250 C   0  0  0  0  0  1  0  0  0  0  0  0
  191.0880  176.5830  147.4400 C   0  0  0  0  0  2  0  0  0  0  0  0
  190.1090  177.5380  145.3100 C   0  0  1  0  0  3  0  0  0  0  0  0
  191.2500  178.7120  143.6160 O   0  0  0  0  0  0  0  0  0  0  0  0
  190.4250  177.8480  143.8740 C   0  0  0  0  0  0  0  0  0  0  0  0
  189.7910  177.0560  142.7650 C   0  0  0  0  0  2  0  0  0  0  0  0
  191.6330  175.5790  142.4350 O   0  0  0  0  0  0  0  0  0  0  0  0
  189.5440  174.5510  142.7300 N   0  0  0  0  0  2  0  0  0  0  0  0
  189.0690  172.2470  142.7090 N   0  0  0  0  0  2  0  0  0  0  0  0
  190.3970  175.6990  142.6460 C   0  0  0  0  0  0  0  0  0  0  0  0
  189.9640  173.1810  142.7520 C   0  0  0  0  0  0  0  0  0  0  0  0
  191.3910  172.7980  142.9530 C   0  0  0  0  0  1  0  0  0  0  0  0
  188.3510  175.9310  145.5830 O   0  0  0  0  0  0  0  0  0  0  0  0
  188.6690  177.1410  145.4410 C   0  0  0  0  0  0  0  0  0  0  0  0
  187.6860  178.1230  145.3520 O   0  0  0  0  0  0  0  0  0  0  0  0
  186.4430  178.0130  146.0280 C   0  0  0  0  0  2  0  0  0  0  0  0
  185.3220  177.8280  145.0250 C   0  0  0  0  0  2  0  0  0  0  0  0
  185.3720  178.9250  144.0110 C   0  0  0  0  0  0  0  0  0  0  0  0
  186.0910  176.3840  142.7210 O   0  0  0  0  0  0  0  0  0  0  0  0
  185.0240  180.0840  144.3580 O   0  0  0  0  0  0  0  0  0  0  0  0
  185.8560  178.7170  142.6790 N   0  0  0  0  0  2  0  0  0  0  0  0
  186.2360  177.4650  142.0920 C   0  0  0  0  0  0  0  0  0  0  0  0
  186.7540  177.4270  140.6860 C   0  0  0  0  0  3  0  0  0  0  0  0
  185.6960  177.5260  139.7830 O   0  0  0  0  0  1  0  0  0  0  0  0
  187.4530  176.2480  140.4560 O   0  0  0  0  0  1  0  0  0  0  0  0
  194.6820  175.5290  145.3990 C   0  0  2  0  0  3  0  0  0  0  0  0
  195.2370  176.3120  141.6800 C   0  0  0  0  0  2  0  0  0  0  0  0
  194.8970  175.4790  142.9020 C   0  0  1  0  0  3  0  0  0  0  0  0
  196.2410  176.8150  143.8950 C   0  0  0  0  0  2  0  0  0  0  0  0
  196.3270  175.9320  142.6710 C   0  0  2  0  0  3  0  0  0  0  0  0
  194.8120  176.3710  144.1270 C   0  0  2  0  0  3  0  0  0  0  0  0
  194.4160  174.0760  145.0110 C   0  0  0  0  0  2  0  0  0  0  0  0
  195.3640  173.1730  145.6600 N   0  0  0  0  0  0  0  0  0  0  0  0
  196.4790  173.9640  146.1770 C   0  0  0  0  0  1  0  0  0  0  0  0
  195.8250  172.1600  144.6890 C   0  0  2  0  0  3  0  0  0  0  0  0
  197.3040  172.3170  144.3380 C   0  0  0  0  0  2  0  0  0  0  0  0
  197.9390  171.0730  144.3920 O   0  0  0  0  0  1  0  0  0  0  0  0
  194.9270  171.9680  143.4520 C   0  0  0  0  0  2  0  0  0  0  0  0
  195.7920  171.8130  138.6060 C   0  0  0  0  0  3  0  0  0  0  0  0
  195.4780  170.1020  141.8900 C   0  0  0  0  0  3  0  0  0  0  0  0
  195.6790  171.5620  142.1900 C   0  0  1  0  0  3  0  0  0  0  0  0
  195.4760  170.5240  138.3960 C   0  0  0  0  0  3  0  0  0  0  0  0
  196.3180  172.4190  139.8840 C   0  0  2  0  0  3  0  0  0  0  0  0
  193.9820  172.3190  140.6160 F   0  0  0  0  0  0  0  0  0  0  0  0
  195.4910  169.6860  140.6580 C   0  0  0  0  0  0  0  0  0  0  0  0
  195.2970  172.5010  141.0310 C   0  0  1  0  0  3  0  0  0  0  0  0
  195.4940  169.4300  139.3850 C   0  0  0  0  0  3  0  0  0  0  0  0
  196.8430  173.8130  139.5850 C   0  0  0  0  0  2  0  0  0  0  0  0
  197.2350  173.9060  138.2540 O   0  0  0  0  0  0  0  0  0  0  0  0
  196.6630  175.0950  137.7990 C   0  0  0  0  0  2  0  0  0  0  0  0
  197.5080  175.6950  136.8620 O   0  0  0  0  0  1  0  0  0  0  0  0
  2  1  1  0  0  0  0
  3  2  1  6  0  0  0
  3  5  1  0  0  0  0
  5  4  1  0  0  0  0
  6  8  1  6  0  0  0
  6 17  1  0  0  0  0
  6  3  1  0  0  0  0
  7  8  2  0  0  0  0
  9  8  1  0  0  0  0
 10 13  2  0  0  0  0
 11 14  1  0  0  0  0
 12 14  2  0  0  0  0
 13 11  1  0  0  0  0
 13  9  1  0  0  0  0
 14 15  1  0  0  0  0
 17 16  2  0  0  0  0
 18 17  1  0  0  0  0
 18 19  1  0  0  0  0
 20 19  1  0  0  0  0
 21 23  2  0  0  0  0
 21 20  1  0  0  0  0
 24 21  1  0  0  0  0
 25 24  1  0  0  0  0
 25 22  2  0  0  0  0
 26 25  1  0  0  0  0
 27 26  1  0  0  0  0
 28 26  1  0  0  0  0
 29 35  1  6  0  0  0
 29  1  1  0  0  0  0
 31 30  1  6  0  0  0
 31 34  1  0  0  0  0
 32 34  1  0  0  0  0
 33 30  1  6  0  0  0
 33 31  1  0  0  0  0
 33 32  1  0  0  0  0
 34 29  1  1  0  0  0
 35 36  1  0  0  0  0
 36 37  1  0  0  0  0
 38 41  1  6  0  0  0
 38 36  1  0  0  0  0
 39 40  1  0  0  0  0
 39 38  1  0  0  0  0
 42 46  1  0  0  0  0
 43 44  1  0  0  0  0
 44 41  1  1  0  0  0
 45 42  2  0  0  0  0
 45 50  1  0  0  0  0
 46 51  1  6  0  0  0
 46 49  1  0  0  0  0
 48 43  2  0  0  0  0
 49 47  1  6  0  0  0
 49 44  1  0  0  0  0
 50 48  2  0  0  0  0
 52 51  1  0  0  0  0
 53 52  1  0  0  0  0
 54 53  1  0  0  0  0
M  END
>  <MODEL>
7

>  <REMARK>
 VINA RESULT:      -5.5      3.130      5.398
  Name = 
  24 active torsions:
  status: ('A' for Active; 'I' for Inactive)
    1  A    between atoms: C_3  and  C_34
    2  A    between atoms: C_4  and  C_48
    3  A    between atoms: C_8  and  C_16
    4  A    between atoms: C_8  and  C_48
    5  A    between atoms: C_9  and  C_26
    6  A    between atoms: C_9  and  C_29
    7  A    between atoms: C_9  and  C_53
    8  A    between atoms: C_10  and  O_17
    9  A    between atoms: O_17  and  C_20
   10  A    between atoms: C_18  and  C_27
   11  A    between atoms: C_20  and  C_37
   12  A    between atoms: N_23  and  C_35
   13  A    between atoms: N_23  and  C_48
   14  A    between atoms: C_25  and  C_33
   15  A    between atoms: C_25  and  C_43
   16  A    between atoms: C_26  and  C_38
   17  A    between atoms: C_27  and  C_39
   18  A    between atoms: C_29  and  C_43
   19  A    between atoms: C_29  and  C_46
   20  A    between atoms: C_31  and  C_38
   21  A    between atoms: C_33  and  C_35
   22  A    between atoms: C_33  and  C_47
   23  A    between atoms: C_39  and  O_45
   24  A    between atoms: O_45  and  C_53
                            x       y       z     vdW  Elec       q    Type
                         _______ _______ _______ _____ _____    ______ ____

>  <TORSDO>
F 24

$$$$
=
 OpenBabel11062418303D

 54 56  0  0  1  0  0  0  0  0999 V2000
  191.3240  174.2600  142.0580 C   0  0  0  0  0  2  0  0  0  0  0  0
  191.1440  174.6730  143.5010 C   0  0  0  0  0  2  0  0  0  0  0  0
  192.1670  175.7260  143.9220 C   0  0  1  0  0  3  0  0  0  0  0  0
  191.4890  178.0590  143.3490 C   0  0  0  0  0  1  0  0  0  0  0  0
  191.4030  176.9580  144.3890 C   0  0  0  0  0  2  0  0  0  0  0  0
  193.0880  175.1830  145.0360 C   0  0  1  0  0  3  0  0  0  0  0  0
  192.5890  172.9450  145.5780 O   0  0  0  0  0  0  0  0  0  0  0  0
  193.2980  173.6990  144.9280 C   0  0  0  0  0  0  0  0  0  0  0  0
  194.3190  173.1400  143.9770 C   0  0  0  0  0  2  0  0  0  0  0  0
  194.4500  170.9140  143.1350 O   0  0  0  0  0  0  0  0  0  0  0  0
  194.6010  171.1300  145.4670 N   0  0  0  0  0  2  0  0  0  0  0  0
  194.8390  169.4060  147.0490 N   0  0  0  0  0  2  0  0  0  0  0  0
  194.4730  171.6670  144.1440 C   0  0  0  0  0  0  0  0  0  0  0  0
  194.8710  169.7640  145.8070 C   0  0  0  0  0  0  0  0  0  0  0  0
  195.3130  168.7720  144.7850 C   0  0  0  0  0  1  0  0  0  0  0  0
  195.1320  175.7620  146.1470 O   0  0  0  0  0  0  0  0  0  0  0  0
  194.4120  175.8810  145.1200 C   0  0  0  0  0  0  0  0  0  0  0  0
  194.8120  176.7010  144.0690 O   0  0  0  0  0  0  0  0  0  0  0  0
  195.9700  176.4280  143.2940 C   0  0  0  0  0  2  0  0  0  0  0  0
  195.5680  175.9980  141.8970 C   0  0  0  0  0  2  0  0  0  0  0  0
  196.7930  175.8080  141.0600 C   0  0  0  0  0  0  0  0  0  0  0  0
  194.4090  175.3560  139.4010 O   0  0  0  0  0  0  0  0  0  0  0  0
  197.9180  176.0300  141.5790 O   0  0  0  0  0  0  0  0  0  0  0  0
  196.7340  175.3280  139.7120 N   0  0  0  0  0  2  0  0  0  0  0  0
  195.5500  175.0810  138.9420 C   0  0  0  0  0  0  0  0  0  0  0  0
  195.6650  174.5460  137.5470 C   0  0  0  0  0  3  0  0  0  0  0  0
  196.2130  173.2640  137.5690 O   0  0  0  0  0  1  0  0  0  0  0  0
  196.4630  175.3790  136.7700 O   0  0  0  0  0  1  0  0  0  0  0  0
  189.9810  173.9600  141.4050 C   0  0  2  0  0  3  0  0  0  0  0  0
  189.2540  173.2640  137.6980 C   0  0  0  0  0  2  0  0  0  0  0  0
  189.1950  173.9980  139.0250 C   0  0  1  0  0  3  0  0  0  0  0  0
  189.4730  172.0440  139.8510 C   0  0  0  0  0  2  0  0  0  0  0  0
  188.4980  172.6570  138.8720 C   0  0  2  0  0  3  0  0  0  0  0  0
  190.1750  173.3770  140.0030 C   0  0  2  0  0  3  0  0  0  0  0  0
  189.1710  175.2500  141.3020 C   0  0  0  0  0  2  0  0  0  0  0  0
  188.1730  175.3350  142.3670 N   0  0  0  0  0  0  0  0  0  0  0  0
  187.7350  173.9820  142.7010 C   0  0  0  0  0  1  0  0  0  0  0  0
  187.0440  176.1740  141.9180 C   0  0  2  0  0  3  0  0  0  0  0  0
  187.5010  177.3860  141.1060 C   0  0  0  0  0  2  0  0  0  0  0  0
  186.4010  177.9870  140.4890 O   0  0  0  0  0  1  0  0  0  0  0  0
  186.0070  176.5290  143.0000 C   0  0  0  0  0  2  0  0  0  0  0  0
  186.9250  177.9270  147.6320 C   0  0  0  0  0  3  0  0  0  0  0  0
  185.6690  178.6800  144.2170 C   0  0  0  0  0  3  0  0  0  0  0  0
  186.5310  177.4550  144.0910 C   0  0  1  0  0  3  0  0  0  0  0  0
  186.0390  178.9340  147.7080 C   0  0  0  0  0  3  0  0  0  0  0  0
  187.6150  177.4190  146.3900 C   0  0  2  0  0  3  0  0  0  0  0  0
  185.4860  176.2880  145.9550 F   0  0  0  0  0  0  0  0  0  0  0  0
  185.5400  179.2660  145.3720 C   0  0  0  0  0  0  0  0  0  0  0  0
  186.7050  176.6690  145.4040 C   0  0  1  0  0  3  0  0  0  0  0  0
  185.4810  179.7150  146.5880 C   0  0  0  0  0  3  0  0  0  0  0  0
  188.7590  176.5090  146.8020 C   0  0  0  0  0  2  0  0  0  0  0  0
  188.7200  175.3240  146.0760 O   0  0  0  0  0  0  0  0  0  0  0  0
  189.6330  174.4850  146.7180 C   0  0  0  0  0  2  0  0  0  0  0  0
  190.3820  175.2210  147.6390 O   0  0  0  0  0  1  0  0  0  0  0  0
  1  2  1  0  0  0  0
  3  2  1  1  0  0  0
  3  5  1  0  0  0  0
  3  6  1  0  0  0  0
  4  5  1  0  0  0  0
  6  8  1  6  0  0  0
  6 17  1  0  0  0  0
  8  7  2  0  0  0  0
  9 13  1  0  0  0  0
  9  8  1  0  0  0  0
 10 13  2  0  0  0  0
 11 14  1  0  0  0  0
 13 11  1  0  0  0  0
 14 12  2  0  0  0  0
 15 14  1  0  0  0  0
 17 16  2  0  0  0  0
 18 17  1  0  0  0  0
 19 18  1  0  0  0  0
 20 19  1  0  0  0  0
 21 23  2  0  0  0  0
 21 20  1  0  0  0  0
 24 21  1  0  0  0  0
 25 22  2  0  0  0  0
 25 24  1  0  0  0  0
 26 27  1  0  0  0  0
 26 25  1  0  0  0  0
 28 26  1  0  0  0  0
 29 35  1  6  0  0  0
 29  1  1  0  0  0  0
 31 30  1  6  0  0  0
 31 34  1  0  0  0  0
 32 34  1  0  0  0  0
 33 30  1  6  0  0  0
 33 31  1  0  0  0  0
 33 32  1  0  0  0  0
 34 29  1  1  0  0  0
 35 36  1  0  0  0  0
 36 37  1  0  0  0  0
 38 39  1  1  0  0  0
 38 36  1  0  0  0  0
 38 41  1  0  0  0  0
 40 39  1  0  0  0  0
 42 45  2  0  0  0  0
 43 48  2  0  0  0  0
 44 41  1  6  0  0  0
 44 43  1  0  0  0  0
 44 49  1  0  0  0  0
 46 51  1  1  0  0  0
 46 42  1  0  0  0  0
 48 50  2  0  0  0  0
 49 47  1  1  0  0  0
 49 46  1  0  0  0  0
 50 45  1  0  0  0  0
 52 53  1  0  0  0  0
 52 51  1  0  0  0  0
 53 54  1  0  0  0  0
M  END
>  <MODEL>
8

>  <REMARK>
 VINA RESULT:      -5.5      3.453      9.786
  Name = 
  24 active torsions:
  status: ('A' for Active; 'I' for Inactive)
    1  A    between atoms: C_3  and  C_34
    2  A    between atoms: C_4  and  C_48
    3  A    between atoms: C_8  and  C_16
    4  A    between atoms: C_8  and  C_48
    5  A    between atoms: C_9  and  C_26
    6  A    between atoms: C_9  and  C_29
    7  A    between atoms: C_9  and  C_53
    8  A    between atoms: C_10  and  O_17
    9  A    between atoms: O_17  and  C_20
   10  A    between atoms: C_18  and  C_27
   11  A    between atoms: C_20  and  C_37
   12  A    between atoms: N_23  and  C_35
   13  A    between atoms: N_23  and  C_48
   14  A    between atoms: C_25  and  C_33
   15  A    between atoms: C_25  and  C_43
   16  A    between atoms: C_26  and  C_38
   17  A    between atoms: C_27  and  C_39
   18  A    between atoms: C_29  and  C_43
   19  A    between atoms: C_29  and  C_46
   20  A    between atoms: C_31  and  C_38
   21  A    between atoms: C_33  and  C_35
   22  A    between atoms: C_33  and  C_47
   23  A    between atoms: C_39  and  O_45
   24  A    between atoms: O_45  and  C_53
                            x       y       z     vdW  Elec       q    Type
                         _______ _______ _______ _____ _____    ______ ____

>  <TORSDO>
F 24

$$$$
=
 OpenBabel11062418303D

 54 56  0  0  1  0  0  0  0  0999 V2000
  190.7140  174.1920  144.5020 C   0  0  0  0  0  2  0  0  0  0  0  0
  191.2280  174.2990  143.0860 C   0  0  0  0  0  2  0  0  0  0  0  0
  190.9380  173.0350  142.2800 C   0  0  1  0  0  3  0  0  0  0  0  0
  189.5820  173.8450  140.3470 C   0  0  0  0  0  1  0  0  0  0  0  0
  189.5340  173.1630  141.7010 C   0  0  0  0  0  2  0  0  0  0  0  0
  191.9870  172.8410  141.1640 C   0  0  1  0  0  3  0  0  0  0  0  0
  194.1040  173.0900  142.1660 O   0  0  0  0  0  0  0  0  0  0  0  0
  193.2580  173.5920  141.4410 C   0  0  0  0  0  0  0  0  0  0  0  0
  193.5250  174.9130  140.7750 C   0  0  0  0  0  2  0  0  0  0  0  0
  195.8120  175.5320  140.5110 O   0  0  0  0  0  0  0  0  0  0  0  0
  194.9090  174.2140  138.7910 N   0  0  0  0  0  2  0  0  0  0  0  0
  195.9940  173.4690  136.8420 N   0  0  0  0  0  2  0  0  0  0  0  0
  194.8240  174.9050  140.0440 C   0  0  0  0  0  0  0  0  0  0  0  0
  196.0950  174.0080  138.0140 C   0  0  0  0  0  0  0  0  0  0  0  0
  197.4550  174.2750  138.5660 C   0  0  0  0  0  1  0  0  0  0  0  0
  191.8730  170.4920  141.6260 O   0  0  0  0  0  0  0  0  0  0  0  0
  192.2980  171.4040  140.8690 C   0  0  0  0  0  0  0  0  0  0  0  0
  193.1050  171.0960  139.7770 O   0  0  0  0  0  0  0  0  0  0  0  0
  193.2130  169.7770  139.2640 C   0  0  0  0  0  2  0  0  0  0  0  0
  192.4880  169.6760  137.9360 C   0  0  0  0  0  2  0  0  0  0  0  0
  193.0410  170.6900  136.9860 C   0  0  0  0  0  0  0  0  0  0  0  0
  190.3910  171.5700  137.9040 O   0  0  0  0  0  0  0  0  0  0  0  0
  194.2050  170.5240  136.5370 O   0  0  0  0  0  0  0  0  0  0  0  0
  192.2740  171.8070  136.5250 N   0  0  0  0  0  2  0  0  0  0  0  0
  190.9640  172.1880  136.9680 C   0  0  0  0  0  0  0  0  0  0  0  0
  190.2860  173.3760  136.3560 C   0  0  0  0  0  3  0  0  0  0  0  0
  190.9180  174.5500  136.7610 O   0  0  0  0  0  1  0  0  0  0  0  0
  188.9470  173.4170  136.7260 O   0  0  0  0  0  1  0  0  0  0  0  0
  191.4890  175.1140  145.4350 C   0  0  2  0  0  3  0  0  0  0  0  0
  195.3150  175.2880  145.7200 C   0  0  0  0  0  2  0  0  0  0  0  0
  193.8930  174.9430  146.1230 C   0  0  1  0  0  3  0  0  0  0  0  0
  193.4000  176.6960  145.0000 C   0  0  0  0  0  2  0  0  0  0  0  0
  194.3520  176.3900  146.1340 C   0  0  2  0  0  3  0  0  0  0  0  0
  192.9440  175.2520  144.9800 C   0  0  2  0  0  3  0  0  0  0  0  0
  191.4610  174.5400  146.8500 C   0  0  0  0  0  2  0  0  0  0  0  0
  190.4630  175.2170  147.6760 N   0  0  0  0  0  0  0  0  0  0  0  0
  189.1790  174.5400  147.5030 C   0  0  0  0  0  1  0  0  0  0  0  0
  190.3820  176.6380  147.2850 C   0  0  2  0  0  3  0  0  0  0  0  0
  191.3100  177.5270  148.1120 C   0  0  0  0  0  2  0  0  0  0  0  0
  190.5580  178.3140  148.9890 O   0  0  0  0  0  1  0  0  0  0  0  0
  188.9590  177.2120  147.1510 C   0  0  0  0  0  2  0  0  0  0  0  0
  187.1890  176.9890  142.5610 C   0  0  0  0  0  3  0  0  0  0  0  0
  189.8770  177.9330  144.9470 C   0  0  0  0  0  3  0  0  0  0  0  0
  188.6280  177.7510  145.7650 C   0  0  1  0  0  3  0  0  0  0  0  0
  188.3590  177.0320  141.9020 C   0  0  0  0  0  3  0  0  0  0  0  0
  186.8910  177.5800  143.9170 C   0  0  2  0  0  3  0  0  0  0  0  0
  188.0570  175.6020  144.7740 F   0  0  0  0  0  0  0  0  0  0  0  0
  189.8300  177.7970  143.6550 C   0  0  0  0  0  0  0  0  0  0  0  0
  187.5630  176.8600  145.0990 C   0  0  1  0  0  3  0  0  0  0  0  0
  189.6340  177.5940  142.3870 C   0  0  0  0  0  3  0  0  0  0  0  0
  185.3870  177.5860  144.1290 C   0  0  0  0  0  2  0  0  0  0  0  0
  184.7270  177.5480  142.9060 O   0  0  0  0  0  0  0  0  0  0  0  0
  183.8290  178.6160  142.9540 C   0  0  0  0  0  2  0  0  0  0  0  0
  183.6790  179.0460  144.2740 O   0  0  0  0  0  1  0  0  0  0  0  0
  2  1  1  0  0  0  0
  3  5  1  6  0  0  0
  3  2  1  0  0  0  0
  4  5  1  0  0  0  0
  6 17  1  1  0  0  0
  6  8  1  0  0  0  0
  6  3  1  0  0  0  0
  8  7  2  0  0  0  0
  9  8  1  0  0  0  0
 11 13  1  0  0  0  0
 12 14  2  0  0  0  0
 13 10  2  0  0  0  0
 13  9  1  0  0  0  0
 14 15  1  0  0  0  0
 14 11  1  0  0  0  0
 17 16  2  0  0  0  0
 18 17  1  0  0  0  0
 19 18  1  0  0  0  0
 20 19  1  0  0  0  0
 21 20  1  0  0  0  0
 23 21  2  0  0  0  0
 24 25  1  0  0  0  0
 24 21  1  0  0  0  0
 25 22  2  0  0  0  0
 26 28  1  0  0  0  0
 26 27  1  0  0  0  0
 26 25  1  0  0  0  0
 29  1  1  6  0  0  0
 29 35  1  0  0  0  0
 30 33  1  0  0  0  0
 31 30  1  6  0  0  0
 31 33  1  0  0  0  0
 33 32  1  6  0  0  0
 34 32  1  0  0  0  0
 34 29  1  1  0  0  0
 34 31  1  0  0  0  0
 35 36  1  0  0  0  0
 37 36  1  0  0  0  0
 38 41  1  1  0  0  0
 38 36  1  0  0  0  0
 38 39  1  0  0  0  0
 39 40  1  0  0  0  0
 42 46  1  0  0  0  0
 43 44  1  0  0  0  0
 44 41  1  1  0  0  0
 45 50  1  0  0  0  0
 45 42  2  0  0  0  0
 46 51  1  1  0  0  0
 46 49  1  0  0  0  0
 48 43  2  0  0  0  0
 49 47  1  6  0  0  0
 49 44  1  0  0  0  0
 50 48  2  0  0  0  0
 52 53  1  0  0  0  0
 52 51  1  0  0  0  0
 53 54  1  0  0  0  0
M  END
>  <MODEL>
9

>  <REMARK>
 VINA RESULT:      -5.5      3.398      9.462
  Name = 
  24 active torsions:
  status: ('A' for Active; 'I' for Inactive)
    1  A    between atoms: C_3  and  C_34
    2  A    between atoms: C_4  and  C_48
    3  A    between atoms: C_8  and  C_16
    4  A    between atoms: C_8  and  C_48
    5  A    between atoms: C_9  and  C_26
    6  A    between atoms: C_9  and  C_29
    7  A    between atoms: C_9  and  C_53
    8  A    between atoms: C_10  and  O_17
    9  A    between atoms: O_17  and  C_20
   10  A    between atoms: C_18  and  C_27
   11  A    between atoms: C_20  and  C_37
   12  A    between atoms: N_23  and  C_35
   13  A    between atoms: N_23  and  C_48
   14  A    between atoms: C_25  and  C_33
   15  A    between atoms: C_25  and  C_43
   16  A    between atoms: C_26  and  C_38
   17  A    between atoms: C_27  and  C_39
   18  A    between atoms: C_29  and  C_43
   19  A    between atoms: C_29  and  C_46
   20  A    between atoms: C_31  and  C_38
   21  A    between atoms: C_33  and  C_35
   22  A    between atoms: C_33  and  C_47
   23  A    between atoms: C_39  and  O_45
   24  A    between atoms: O_45  and  C_53
                            x       y       z     vdW  Elec       q    Type
                         _______ _______ _______ _____ _____    ______ ____

>  <TORSDO>
F 24

$$$$
