=
 OpenBabel11062420053D

 35 39  0  0  1  0  0  0  0  0999 V2000
  192.7890  173.5120  141.2930 C   0  0  1  0  0  3  0  0  0  0  0  0
  189.4350  176.1780  146.2700 C   0  0  0  0  0  0  0  0  0  0  0  0
  192.6020  174.4480  143.7270 C   0  0  2  0  0  3  0  0  0  0  0  0
  191.6750  175.7530  147.1160 C   0  0  0  0  0  3  0  0  0  0  0  0
  191.5730  176.8680  147.9520 C   0  0  0  0  0  3  0  0  0  0  0  0
  193.0100  173.2850  142.8010 C   0  0  0  0  0  2  0  0  0  0  0  0
  189.3400  177.2860  147.1210 C   0  0  0  0  0  3  0  0  0  0  0  0
  188.6310  175.7070  141.5040 C   0  0  0  0  0  2  0  0  0  0  0  0
  188.7990  174.0710  143.3440 O   0  0  0  0  0  0  0  0  0  0  0  0
  189.2600  174.6340  140.8560 O   0  0  0  0  0  0  0  0  0  0  0  0
  190.6110  175.3980  146.2790 C   0  0  0  0  0  0  0  0  0  0  0  0
  190.4050  177.6310  147.9570 C   0  0  0  0  0  0  0  0  0  0  0  0
  188.2220  175.3080  142.9370 C   0  0  1  0  0  3  0  0  0  0  0  0
  191.3280  173.4230  140.8500 C   0  0  0  0  0  2  0  0  0  0  0  0
  191.1000  174.6390  143.9880 C   0  0  1  0  0  3  0  0  0  0  0  0
  193.1940  175.6530  143.3500 O   0  0  0  0  0  1  0  0  0  0  0  0
  190.1720  173.9620  142.9800 C   0  0  2  0  0  3  0  0  0  0  0  0
  188.4240  176.4350  143.9780 C   0  0  2  0  0  3  0  0  0  0  0  0
  190.7650  174.1980  145.4030 C   0  0  0  0  0  2  0  0  0  0  0  0
  190.3040  178.7090  148.7710 F   0  0  0  0  0  0  0  0  0  0  0  0
  188.2680  175.8450  145.3880 C   0  0  0  0  0  2  0  0  0  0  0  0
  190.4600  174.4490  141.5540 C   0  0  2  0  0  3  0  0  0  0  0  0
  185.9290  179.0730  145.0710 C   0  0  0  0  0  0  0  0  0  0  0  0
  185.4330  179.5820  146.2270 F   0  0  0  0  0  0  0  0  0  0  0  0
  186.9040  178.1590  145.1030 C   0  0  0  0  0  3  0  0  0  0  0  0
  185.3610  179.5000  143.7470 C   0  0  0  0  0  2  0  0  0  0  0  0
  187.3990  177.5810  143.8020 C   0  0  2  0  0  3  0  0  0  0  0  0
  185.1320  178.2960  142.8180 C   0  0  0  0  0  2  0  0  0  0  0  0
  185.5590  176.0620  143.5250 F   0  0  0  0  0  0  0  0  0  0  0  0
  186.1760  177.1670  142.9600 C   0  0  2  0  0  3  0  0  0  0  0  0
  193.3800  174.6980  140.8460 O   0  0  0  0  0  0  0  0  0  0  0  0
  194.9340  174.2700  140.3130 P   0  0  0  0  0  0  0  0  0  0  0  0
  194.9450  172.8270  139.8610 O   0  0  0  0  0  1  0  0  0  0  0  0
  196.0550  174.4790  141.5650 O   0  0  0  0  0  1  0  0  0  0  0  0
  195.3650  175.2620  139.0140 O   0  0  0  0  0  0  0  0  0  0  0  0
  1 31  1  1  0  0  0
  1  6  1  0  0  0  0
  2 11  2  0  0  0  0
  2  7  1  0  0  0  0
  3 16  1  6  0  0  0
  3 15  1  0  0  0  0
  4  5  2  0  0  0  0
  5 12  1  0  0  0  0
  6  3  1  0  0  0  0
  7 12  2  0  0  0  0
 10  8  1  0  0  0  0
 10 22  1  0  0  0  0
 11  4  1  0  0  0  0
 12 20  1  0  0  0  0
 13  8  1  6  0  0  0
 13  9  1  0  0  0  0
 13 18  1  0  0  0  0
 14  1  1  0  0  0  0
 15 19  1  1  0  0  0
 17  9  1  1  0  0  0
 17 15  1  0  0  0  0
 18 21  1  1  0  0  0
 19 11  1  0  0  0  0
 21  2  1  0  0  0  0
 22 14  1  6  0  0  0
 22 17  1  0  0  0  0
 23 25  2  0  0  0  0
 23 24  1  0  0  0  0
 26 23  1  0  0  0  0
 27 18  1  0  0  0  0
 27 25  1  1  0  0  0
 28 30  1  0  0  0  0
 28 26  1  0  0  0  0
 30 29  1  1  0  0  0
 30 27  1  0  0  0  0
 32 31  1  0  0  0  0
 32 34  1  0  0  0  0
 33 32  1  0  0  0  0
 35 32  2  0  0  0  0
M  END
>  <MODEL>
1

>  <REMARK>
 VINA RESULT:      -8.4      0.000      0.000
  Name = 
  3 active torsions:
  status: ('A' for Active; 'I' for Inactive)
    1  A    between atoms: C_1  and  O_27
    2  A    between atoms: P_4  and  O_27
    3  A    between atoms: C_25  and  C_28
                            x       y       z     vdW  Elec       q    Type
                         _______ _______ _______ _____ _____    ______ ____

>  <TORSDO>
F 3

$$$$
=
 OpenBabel11062420053D

 35 39  0  0  1  0  0  0  0  0999 V2000
  186.8230  176.9250  144.1160 C   0  0  1  0  0  3  0  0  0  0  0  0
  191.5550  173.8460  140.7600 C   0  0  0  0  0  0  0  0  0  0  0  0
  187.7030  175.5650  142.0640 C   0  0  2  0  0  3  0  0  0  0  0  0
  189.5030  173.5060  139.5010 C   0  0  0  0  0  3  0  0  0  0  0  0
  190.2330  173.4980  138.3100 C   0  0  0  0  0  3  0  0  0  0  0  0
  186.6760  175.6890  143.2070 C   0  0  0  0  0  2  0  0  0  0  0  0
  192.2770  173.8240  139.5610 C   0  0  0  0  0  3  0  0  0  0  0  0
  191.5180  177.0210  144.4350 C   0  0  0  0  0  2  0  0  0  0  0  0
  190.7480  174.6850  144.2320 O   0  0  0  0  0  0  0  0  0  0  0  0
  190.3740  177.0410  145.2460 O   0  0  0  0  0  0  0  0  0  0  0  0
  190.1550  173.6710  140.7280 C   0  0  0  0  0  0  0  0  0  0  0  0
  191.6200  173.6530  138.3410 C   0  0  0  0  0  0  0  0  0  0  0  0
  191.8190  175.5840  143.9620 C   0  0  1  0  0  3  0  0  0  0  0  0
  187.9900  176.8460  145.1000 C   0  0  0  0  0  2  0  0  0  0  0  0
  189.1180  175.1010  142.4430 C   0  0  1  0  0  3  0  0  0  0  0  0
  187.7550  176.7140  141.2760 O   0  0  0  0  0  1  0  0  0  0  0  0
  189.4750  175.2430  143.9230 C   0  0  2  0  0  3  0  0  0  0  0  0
  192.3150  175.5020  142.4980 C   0  0  2  0  0  3  0  0  0  0  0  0
  189.3330  173.6730  141.9760 C   0  0  0  0  0  2  0  0  0  0  0  0
  192.3280  173.6400  137.1860 F   0  0  0  0  0  0  0  0  0  0  0  0
  192.3010  174.0330  142.0490 C   0  0  0  0  0  2  0  0  0  0  0  0
  189.3210  176.6970  144.3890 C   0  0  2  0  0  3  0  0  0  0  0  0
  195.6820  176.0210  140.8330 C   0  0  0  0  0  0  0  0  0  0  0  0
  196.3080  175.6710  139.6810 F   0  0  0  0  0  0  0  0  0  0  0  0
  194.4010  175.6940  141.0280 C   0  0  0  0  0  3  0  0  0  0  0  0
  196.4320  176.7440  141.9160 C   0  0  0  0  0  2  0  0  0  0  0  0
  193.7500  176.0580  142.3370 C   0  0  2  0  0  3  0  0  0  0  0  0
  196.1350  176.1470  143.3020 C   0  0  0  0  0  2  0  0  0  0  0  0
  194.7260  174.2460  143.5760 F   0  0  0  0  0  0  0  0  0  0  0  0
  194.6910  175.6280  143.4810 C   0  0  2  0  0  3  0  0  0  0  0  0
  186.8590  178.1170  143.3840 O   0  0  0  0  0  0  0  0  0  0  0  0
  185.3410  178.8430  143.6050 P   0  0  0  0  0  0  0  0  0  0  0  0
  185.5140  180.3020  143.9640 O   0  0  0  0  0  1  0  0  0  0  0  0
  184.4920  178.0530  144.8380 O   0  0  0  0  0  1  0  0  0  0  0  0
  184.4600  178.7280  142.1670 O   0  0  0  0  0  0  0  0  0  0  0  0
  1 31  1  6  0  0  0
  1 14  1  0  0  0  0
  2 21  1  0  0  0  0
  3 16  1  1  0  0  0
  3 15  1  0  0  0  0
  3  6  1  0  0  0  0
  4 11  2  0  0  0  0
  5 12  2  0  0  0  0
  5  4  1  0  0  0  0
  6  1  1  0  0  0  0
  7  2  2  0  0  0  0
  8 10  1  0  0  0  0
 11  2  1  0  0  0  0
 11 19  1  0  0  0  0
 12  7  1  0  0  0  0
 13  9  1  0  0  0  0
 13  8  1  6  0  0  0
 15 19  1  1  0  0  0
 15 17  1  0  0  0  0
 17  9  1  6  0  0  0
 17 22  1  0  0  0  0
 18 21  1  1  0  0  0
 18 13  1  0  0  0  0
 20 12  1  0  0  0  0
 22 14  1  1  0  0  0
 22 10  1  0  0  0  0
 23 25  2  0  0  0  0
 23 26  1  0  0  0  0
 24 23  1  0  0  0  0
 26 28  1  0  0  0  0
 27 25  1  6  0  0  0
 27 18  1  0  0  0  0
 27 30  1  0  0  0  0
 28 30  1  0  0  0  0
 30 29  1  6  0  0  0
 31 32  1  0  0  0  0
 32 33  1  0  0  0  0
 32 34  1  0  0  0  0
 35 32  2  0  0  0  0
M  END
>  <MODEL>
2

>  <REMARK>
 VINA RESULT:      -7.9      4.482      8.357
  Name = 
  3 active torsions:
  status: ('A' for Active; 'I' for Inactive)
    1  A    between atoms: C_1  and  O_27
    2  A    between atoms: P_4  and  O_27
    3  A    between atoms: C_25  and  C_28
                            x       y       z     vdW  Elec       q    Type
                         _______ _______ _______ _____ _____    ______ ____

>  <TORSDO>
F 3

$$$$
=
 OpenBabel11062420053D

 35 39  0  0  1  0  0  0  0  0999 V2000
  194.3560  173.7270  142.5340 C   0  0  1  0  0  3  0  0  0  0  0  0
  189.6840  176.2750  146.3820 C   0  0  0  0  0  0  0  0  0  0  0  0
  193.5230  174.8240  144.7550 C   0  0  2  0  0  3  0  0  0  0  0  0
  191.7180  176.2560  147.7120 C   0  0  0  0  0  3  0  0  0  0  0  0
  191.2960  177.4090  148.3780 C   0  0  0  0  0  3  0  0  0  0  0  0
  194.2680  173.6610  144.0700 C   0  0  0  0  0  2  0  0  0  0  0  0
  189.2650  177.4230  147.0640 C   0  0  0  0  0  3  0  0  0  0  0  0
  190.0110  175.2960  141.6360 C   0  0  0  0  0  2  0  0  0  0  0  0
  189.9760  173.8610  143.6440 O   0  0  0  0  0  0  0  0  0  0  0  0
  190.8970  174.2770  141.2560 O   0  0  0  0  0  0  0  0  0  0  0  0
  190.9170  175.6790  146.7200 C   0  0  0  0  0  0  0  0  0  0  0  0
  190.0680  177.9900  148.0570 C   0  0  0  0  0  0  0  0  0  0  0  0
  189.3510  174.9610  142.9890 C   0  0  1  0  0  3  0  0  0  0  0  0
  193.0520  173.3880  141.8130 C   0  0  0  0  0  2  0  0  0  0  0  0
  191.9890  174.8130  144.6790 C   0  0  1  0  0  3  0  0  0  0  0  0
  194.0270  176.0680  144.3750 O   0  0  0  0  0  1  0  0  0  0  0  0
  191.3970  173.9260  143.5840 C   0  0  2  0  0  3  0  0  0  0  0  0
  189.1760  176.1880  143.9170 C   0  0  2  0  0  3  0  0  0  0  0  0
  191.4100  174.4470  146.0350 C   0  0  0  0  0  2  0  0  0  0  0  0
  189.6560  179.1050  148.7060 F   0  0  0  0  0  0  0  0  0  0  0  0
  188.7900  175.7010  145.3210 C   0  0  0  0  0  2  0  0  0  0  0  0
  191.9280  174.3290  142.2020 C   0  0  2  0  0  3  0  0  0  0  0  0
  186.3680  178.7230  144.1830 C   0  0  0  0  0  0  0  0  0  0  0  0
  185.7190  179.4190  145.1510 F   0  0  0  0  0  0  0  0  0  0  0  0
  187.4110  177.9470  144.4970 C   0  0  0  0  0  3  0  0  0  0  0  0
  185.8970  178.7840  142.7580 C   0  0  0  0  0  2  0  0  0  0  0  0
  188.0780  177.1520  143.4060 C   0  0  2  0  0  3  0  0  0  0  0  0
  185.8650  177.3880  142.1140 C   0  0  0  0  0  2  0  0  0  0  0  0
  186.4110  175.4240  143.3450 F   0  0  0  0  0  0  0  0  0  0  0  0
  186.9830  176.4350  142.5900 C   0  0  2  0  0  3  0  0  0  0  0  0
  194.8770  174.9470  142.0870 O   0  0  0  0  0  0  0  0  0  0  0  0
  196.5540  174.7170  141.9600 P   0  0  0  0  0  0  0  0  0  0  0  0
  196.8580  173.2520  141.7370 O   0  0  0  0  0  1  0  0  0  0  0  0
  197.3210  175.2450  143.3740 O   0  0  0  0  0  1  0  0  0  0  0  0
  197.1360  175.6100  140.6480 O   0  0  0  0  0  0  0  0  0  0  0  0
  1 31  1  1  0  0  0
  1  6  1  0  0  0  0
  2 11  2  0  0  0  0
  2  7  1  0  0  0  0
  3 16  1  6  0  0  0
  4  5  2  0  0  0  0
  6  3  1  0  0  0  0
  7 12  2  0  0  0  0
 10  8  1  0  0  0  0
 10 22  1  0  0  0  0
 11  4  1  0  0  0  0
 12  5  1  0  0  0  0
 12 20  1  0  0  0  0
 13  8  1  6  0  0  0
 13  9  1  0  0  0  0
 13 18  1  0  0  0  0
 14  1  1  0  0  0  0
 15  3  1  0  0  0  0
 15 19  1  1  0  0  0
 17  9  1  6  0  0  0
 17 15  1  0  0  0  0
 18 21  1  1  0  0  0
 19 11  1  0  0  0  0
 21  2  1  0  0  0  0
 22 14  1  6  0  0  0
 22 17  1  0  0  0  0
 23 25  2  0  0  0  0
 23 24  1  0  0  0  0
 26 23  1  0  0  0  0
 27 18  1  0  0  0  0
 27 25  1  1  0  0  0
 28 30  1  0  0  0  0
 28 26  1  0  0  0  0
 30 29  1  1  0  0  0
 30 27  1  0  0  0  0
 32 31  1  0  0  0  0
 32 34  1  0  0  0  0
 33 32  1  0  0  0  0
 35 32  2  0  0  0  0
M  END
>  <MODEL>
3

>  <REMARK>
 VINA RESULT:      -7.9      1.265      1.428
  Name = 
  3 active torsions:
  status: ('A' for Active; 'I' for Inactive)
    1  A    between atoms: C_1  and  O_27
    2  A    between atoms: P_4  and  O_27
    3  A    between atoms: C_25  and  C_28
                            x       y       z     vdW  Elec       q    Type
                         _______ _______ _______ _____ _____    ______ ____

>  <TORSDO>
F 3

$$$$
=
 OpenBabel11062420053D

 35 39  0  0  1  0  0  0  0  0999 V2000
  192.9750  175.0170  144.5670 C   0  0  1  0  0  3  0  0  0  0  0  0
  186.6850  176.6680  145.4830 C   0  0  0  0  0  0  0  0  0  0  0  0
  191.0440  176.1280  145.9340 C   0  0  2  0  0  3  0  0  0  0  0  0
  187.8710  177.3880  147.4800 C   0  0  0  0  0  3  0  0  0  0  0  0
  186.9840  178.4580  147.6230 C   0  0  0  0  0  3  0  0  0  0  0  0
  192.2220  175.1350  145.9060 C   0  0  0  0  0  2  0  0  0  0  0  0
  185.7960  177.7370  145.6430 C   0  0  0  0  0  3  0  0  0  0  0  0
  189.2830  175.1940  141.6540 C   0  0  0  0  0  2  0  0  0  0  0  0
  188.6260  174.0860  143.7590 O   0  0  0  0  0  0  0  0  0  0  0  0
  190.4210  174.4180  141.9170 O   0  0  0  0  0  0  0  0  0  0  0  0
  187.7250  176.4860  146.4200 C   0  0  0  0  0  0  0  0  0  0  0  0
  185.9450  178.6300  146.7070 C   0  0  0  0  0  0  0  0  0  0  0  0
  188.1640  174.8740  142.6660 C   0  0  1  0  0  3  0  0  0  0  0  0
  192.2230  174.2390  143.4880 C   0  0  0  0  0  2  0  0  0  0  0  0
  189.7400  175.6850  145.2540 C   0  0  1  0  0  3  0  0  0  0  0  0
  191.4180  177.4010  145.5010 O   0  0  0  0  0  1  0  0  0  0  0  0
  189.8820  174.5310  144.2610 C   0  0  2  0  0  3  0  0  0  0  0  0
  187.3620  176.1180  143.1210 C   0  0  2  0  0  3  0  0  0  0  0  0
  188.6960  175.3570  146.3080 C   0  0  0  0  0  2  0  0  0  0  0  0
  185.0820  179.6650  146.8490 F   0  0  0  0  0  0  0  0  0  0  0  0
  186.4890  175.7340  144.3250 C   0  0  0  0  0  2  0  0  0  0  0  0
  190.8880  174.8780  143.1550 C   0  0  2  0  0  3  0  0  0  0  0  0
  186.4920  177.4370  139.6750 C   0  0  0  0  0  0  0  0  0  0  0  0
  187.1130  177.6640  138.4890 F   0  0  0  0  0  0  0  0  0  0  0  0
  187.1550  176.8590  140.6810 C   0  0  0  0  0  3  0  0  0  0  0  0
  185.0680  177.8700  139.8810 C   0  0  0  0  0  2  0  0  0  0  0  0
  186.4490  176.6650  141.9980 C   0  0  2  0  0  3  0  0  0  0  0  0
  184.8810  178.5600  141.2430 C   0  0  0  0  0  2  0  0  0  0  0  0
  186.7090  178.9400  142.7220 F   0  0  0  0  0  0  0  0  0  0  0  0
  185.7600  177.9910  142.3770 C   0  0  2  0  0  3  0  0  0  0  0  0
  193.3990  176.2620  144.0880 O   0  0  0  0  0  0  0  0  0  0  0  0
  194.9360  176.5200  144.7600 P   0  0  0  0  0  0  0  0  0  0  0  0
  195.3740  175.2940  145.5310 O   0  0  0  0  0  1  0  0  0  0  0  0
  194.9000  177.8570  145.7970 O   0  0  0  0  0  1  0  0  0  0  0  0
  196.0400  176.8150  143.5150 O   0  0  0  0  0  0  0  0  0  0  0  0
  1 31  1  6  0  0  0
  1  6  1  0  0  0  0
  2  7  2  0  0  0  0
  2 11  1  0  0  0  0
  3 16  1  6  0  0  0
  4  5  1  0  0  0  0
  6  3  1  0  0  0  0
  7 12  1  0  0  0  0
  8 10  1  0  0  0  0
 10 22  1  0  0  0  0
 11  4  2  0  0  0  0
 12 20  1  0  0  0  0
 12  5  2  0  0  0  0
 13  8  1  1  0  0  0
 13 18  1  0  0  0  0
 13  9  1  0  0  0  0
 14  1  1  0  0  0  0
 15  3  1  0  0  0  0
 15 19  1  1  0  0  0
 17  9  1  6  0  0  0
 17 15  1  0  0  0  0
 18 21  1  1  0  0  0
 19 11  1  0  0  0  0
 21  2  1  0  0  0  0
 22 14  1  1  0  0  0
 22 17  1  0  0  0  0
 23 26  1  0  0  0  0
 23 25  2  0  0  0  0
 24 23  1  0  0  0  0
 26 28  1  0  0  0  0
 27 25  1  6  0  0  0
 27 30  1  0  0  0  0
 27 18  1  0  0  0  0
 28 30  1  0  0  0  0
 30 29  1  6  0  0  0
 31 32  1  0  0  0  0
 32 33  1  0  0  0  0
 32 34  1  0  0  0  0
 35 32  2  0  0  0  0
M  END
>  <MODEL>
4

>  <REMARK>
 VINA RESULT:      -7.8      2.375      3.767
  Name = 
  3 active torsions:
  status: ('A' for Active; 'I' for Inactive)
    1  A    between atoms: C_1  and  O_27
    2  A    between atoms: P_4  and  O_27
    3  A    between atoms: C_25  and  C_28
                            x       y       z     vdW  Elec       q    Type
                         _______ _______ _______ _____ _____    ______ ____

>  <TORSDO>
F 3

$$$$
=
 OpenBabel11062420053D

 35 39  0  0  1  0  0  0  0  0999 V2000
  186.5950  176.9740  144.5910 C   0  0  1  0  0  3  0  0  0  0  0  0
  191.0200  173.2260  141.5090 C   0  0  0  0  0  0  0  0  0  0  0  0
  187.4710  175.6520  142.5130 C   0  0  2  0  0  3  0  0  0  0  0  0
  189.1640  173.4910  139.9620 C   0  0  0  0  0  3  0  0  0  0  0  0
  190.0510  173.4300  138.8840 C   0  0  0  0  0  3  0  0  0  0  0  0
  186.3300  175.8990  143.5200 C   0  0  0  0  0  2  0  0  0  0  0  0
  191.8980  173.1550  140.4210 C   0  0  0  0  0  3  0  0  0  0  0  0
  191.0940  175.9560  145.5260 C   0  0  0  0  0  2  0  0  0  0  0  0
  189.8830  173.8910  144.9260 O   0  0  0  0  0  0  0  0  0  0  0  0
  189.8690  176.1610  146.1780 O   0  0  0  0  0  0  0  0  0  0  0  0
  189.6380  173.3820  141.2740 C   0  0  0  0  0  0  0  0  0  0  0  0
  191.4170  173.2580  139.1140 C   0  0  0  0  0  0  0  0  0  0  0  0
  191.1510  174.5410  144.9150 C   0  0  1  0  0  3  0  0  0  0  0  0
  187.5510  176.5350  145.7000 C   0  0  0  0  0  2  0  0  0  0  0  0
  188.6770  174.8410  143.0100 C   0  0  1  0  0  3  0  0  0  0  0  0
  187.8890  176.8290  141.8920 O   0  0  0  0  0  1  0  0  0  0  0  0
  188.8230  174.7540  144.5290 C   0  0  2  0  0  3  0  0  0  0  0  0
  191.8380  174.4880  143.5290 C   0  0  2  0  0  3  0  0  0  0  0  0
  188.6520  173.4530  142.3940 C   0  0  0  0  0  2  0  0  0  0  0  0
  192.2770  173.1930  138.0690 F   0  0  0  0  0  0  0  0  0  0  0  0
  191.5800  173.1120  142.8970 C   0  0  0  0  0  2  0  0  0  0  0  0
  188.9130  176.1520  145.1550 C   0  0  2  0  0  3  0  0  0  0  0  0
  195.1870  174.9320  145.2520 C   0  0  0  0  0  0  0  0  0  0  0  0
  195.6890  174.9160  146.5130 F   0  0  0  0  0  0  0  0  0  0  0  0
  193.9010  174.6380  145.0360 C   0  0  0  0  0  3  0  0  0  0  0  0
  196.0600  175.3210  144.0920 C   0  0  0  0  0  2  0  0  0  0  0  0
  193.3660  174.7110  143.6290 C   0  0  2  0  0  3  0  0  0  0  0  0
  195.3380  176.2930  143.1440 C   0  0  0  0  0  2  0  0  0  0  0  0
  193.1460  177.1030  143.6050 F   0  0  0  0  0  0  0  0  0  0  0  0
  193.8190  176.0490  143.0090 C   0  0  2  0  0  3  0  0  0  0  0  0
  186.9980  178.1910  144.0300 O   0  0  0  0  0  0  0  0  0  0  0  0
  185.5690  179.0390  143.6830 P   0  0  0  0  0  0  0  0  0  0  0  0
  185.7860  180.5210  143.8890 O   0  0  0  0  0  1  0  0  0  0  0  0
  184.3180  178.5050  144.6910 O   0  0  0  0  0  1  0  0  0  0  0  0
  185.1390  178.7600  142.0730 O   0  0  0  0  0  0  0  0  0  0  0  0
  1 31  1  6  0  0  0
  1 14  1  0  0  0  0
  2 21  1  0  0  0  0
  3 16  1  1  0  0  0
  3 15  1  0  0  0  0
  3  6  1  0  0  0  0
  4 11  2  0  0  0  0
  5 12  2  0  0  0  0
  5  4  1  0  0  0  0
  6  1  1  0  0  0  0
  7  2  2  0  0  0  0
  8 10  1  0  0  0  0
 11  2  1  0  0  0  0
 11 19  1  0  0  0  0
 12  7  1  0  0  0  0
 13  9  1  0  0  0  0
 13  8  1  6  0  0  0
 15 19  1  1  0  0  0
 15 17  1  0  0  0  0
 17  9  1  6  0  0  0
 17 22  1  0  0  0  0
 18 21  1  1  0  0  0
 18 27  1  0  0  0  0
 18 13  1  0  0  0  0
 20 12  1  0  0  0  0
 22 14  1  1  0  0  0
 22 10  1  0  0  0  0
 23 24  1  0  0  0  0
 25 23  2  0  0  0  0
 26 23  1  0  0  0  0
 27 25  1  1  0  0  0
 28 26  1  0  0  0  0
 30 28  1  0  0  0  0
 30 29  1  1  0  0  0
 30 27  1  0  0  0  0
 32 33  1  0  0  0  0
 32 31  1  0  0  0  0
 32 34  1  0  0  0  0
 35 32  2  0  0  0  0
M  END
>  <MODEL>
5

>  <REMARK>
 VINA RESULT:      -7.8      4.090      8.005
  Name = 
  3 active torsions:
  status: ('A' for Active; 'I' for Inactive)
    1  A    between atoms: C_1  and  O_27
    2  A    between atoms: P_4  and  O_27
    3  A    between atoms: C_25  and  C_28
                            x       y       z     vdW  Elec       q    Type
                         _______ _______ _______ _____ _____    ______ ____

>  <TORSDO>
F 3

$$$$
=
 OpenBabel11062420053D

 35 39  0  0  1  0  0  0  0  0999 V2000
  187.3930  177.0920  143.8070 C   0  0  1  0  0  3  0  0  0  0  0  0
  193.4970  174.6720  143.9430 C   0  0  0  0  0  0  0  0  0  0  0  0
  189.9060  177.1730  144.5240 C   0  0  2  0  0  3  0  0  0  0  0  0
  193.5920  176.8100  145.0960 C   0  0  0  0  0  3  0  0  0  0  0  0
  194.6040  176.3210  145.9250 C   0  0  0  0  0  3  0  0  0  0  0  0
  188.7150  177.8820  143.8490 C   0  0  0  0  0  2  0  0  0  0  0  0
  194.5200  174.1960  144.7730 C   0  0  0  0  0  3  0  0  0  0  0  0
  189.1420  172.8320  142.8310 C   0  0  0  0  0  2  0  0  0  0  0  0
  190.5470  174.5670  141.7780 O   0  0  0  0  0  0  0  0  0  0  0  0
  188.1670  173.7340  142.3820 O   0  0  0  0  0  0  0  0  0  0  0  0
  193.0400  175.9980  144.1000 C   0  0  0  0  0  0  0  0  0  0  0  0
  195.0700  175.0160  145.7610 C   0  0  0  0  0  0  0  0  0  0  0  0
  190.5400  173.2550  142.3340 C   0  0  1  0  0  3  0  0  0  0  0  0
  187.3700  175.9590  142.7810 C   0  0  0  0  0  2  0  0  0  0  0  0
  190.6080  176.0680  143.7190 C   0  0  1  0  0  3  0  0  0  0  0  0
  189.5940  176.7270  145.8080 O   0  0  0  0  0  1  0  0  0  0  0  0
  189.7990  175.4950  142.5570 C   0  0  2  0  0  3  0  0  0  0  0  0
  191.6630  173.0420  143.3780 C   0  0  2  0  0  3  0  0  0  0  0  0
  191.9600  176.5640  143.2370 C   0  0  0  0  0  2  0  0  0  0  0  0
  196.0550  174.5420  146.5610 F   0  0  0  0  0  0  0  0  0  0  0  0
  192.9340  173.7570  142.8960 C   0  0  0  0  0  2  0  0  0  0  0  0
  188.4560  174.9330  143.0440 C   0  0  2  0  0  3  0  0  0  0  0  0
  193.6290  170.0430  144.6080 C   0  0  0  0  0  0  0  0  0  0  0  0
  194.7390  169.7920  145.3490 F   0  0  0  0  0  0  0  0  0  0  0  0
  193.1910  171.2960  144.4570 C   0  0  0  0  0  3  0  0  0  0  0  0
  192.9060  168.9200  143.9190 C   0  0  0  0  0  2  0  0  0  0  0  0
  191.9840  171.5440  143.5890 C   0  0  2  0  0  3  0  0  0  0  0  0
  192.5370  169.2920  142.4730 C   0  0  0  0  0  2  0  0  0  0  0  0
  193.1720  171.3750  141.5090 F   0  0  0  0  0  0  0  0  0  0  0  0
  192.1760  170.7790  142.2640 C   0  0  2  0  0  3  0  0  0  0  0  0
  187.0120  176.6330  145.0730 O   0  0  0  0  0  0  0  0  0  0  0  0
  185.6570  177.5560  145.5120 P   0  0  0  0  0  0  0  0  0  0  0  0
  184.8150  176.7930  146.5110 O   0  0  0  0  0  1  0  0  0  0  0  0
  184.7270  177.9120  144.1430 O   0  0  0  0  0  0  0  0  0  0  0  0
  186.1780  179.0010  146.2170 O   0  0  0  0  0  1  0  0  0  0  0  0
  1  6  1  0  0  0  0
  1 31  1  1  0  0  0
  2 11  2  0  0  0  0
  2  7  1  0  0  0  0
  3 16  1  1  0  0  0
  4  5  2  0  0  0  0
  6  3  1  0  0  0  0
  7 12  2  0  0  0  0
  9 13  1  0  0  0  0
 10  8  1  0  0  0  0
 10 22  1  0  0  0  0
 11  4  1  0  0  0  0
 12  5  1  0  0  0  0
 12 20  1  0  0  0  0
 13  8  1  1  0  0  0
 13 18  1  0  0  0  0
 14  1  1  0  0  0  0
 15 19  1  6  0  0  0
 15  3  1  0  0  0  0
 17  9  1  1  0  0  0
 17 22  1  0  0  0  0
 17 15  1  0  0  0  0
 18 21  1  6  0  0  0
 18 27  1  0  0  0  0
 19 11  1  0  0  0  0
 21  2  1  0  0  0  0
 22 14  1  6  0  0  0
 23 24  1  0  0  0  0
 25 23  2  0  0  0  0
 26 23  1  0  0  0  0
 27 25  1  1  0  0  0
 28 26  1  0  0  0  0
 30 29  1  1  0  0  0
 30 28  1  0  0  0  0
 30 27  1  0  0  0  0
 31 32  1  0  0  0  0
 32 35  1  0  0  0  0
 32 33  1  0  0  0  0
 34 32  2  0  0  0  0
M  END
>  <MODEL>
6

>  <REMARK>
 VINA RESULT:      -7.8      4.272      7.611
  Name = 
  3 active torsions:
  status: ('A' for Active; 'I' for Inactive)
    1  A    between atoms: C_1  and  O_27
    2  A    between atoms: P_4  and  O_27
    3  A    between atoms: C_25  and  C_28
                            x       y       z     vdW  Elec       q    Type
                         _______ _______ _______ _____ _____    ______ ____

>  <TORSDO>
F 3

$$$$
=
 OpenBabel11062420053D

 35 39  0  0  1  0  0  0  0  0999 V2000
  196.1890  172.7380  145.0650 C   0  0  1  0  0  3  0  0  0  0  0  0
  190.8080  175.1440  142.1680 C   0  0  0  0  0  0  0  0  0  0  0  0
  194.3170  172.6880  143.2410 C   0  0  2  0  0  3  0  0  0  0  0  0
  191.5050  173.2410  140.8250 C   0  0  0  0  0  3  0  0  0  0  0  0
  190.1720  172.9770  140.5030 C   0  0  0  0  0  3  0  0  0  0  0  0
  195.8230  172.6790  143.5690 C   0  0  0  0  0  2  0  0  0  0  0  0
  189.4770  174.8770  141.8290 C   0  0  0  0  0  3  0  0  0  0  0  0
  192.9500  175.8510  146.4690 C   0  0  0  0  0  2  0  0  0  0  0  0
  193.6370  176.3560  144.1520 O   0  0  0  0  0  0  0  0  0  0  0  0
  194.3310  175.6150  146.5380 O   0  0  0  0  0  0  0  0  0  0  0  0
  191.8320  174.3240  141.6480 C   0  0  0  0  0  0  0  0  0  0  0  0
  189.1580  173.7970  141.0010 C   0  0  0  0  0  0  0  0  0  0  0  0
  192.5700  176.4380  145.0940 C   0  0  1  0  0  3  0  0  0  0  0  0
  196.0030  174.1140  145.7040 C   0  0  0  0  0  2  0  0  0  0  0  0
  193.5860  174.0350  143.3530 C   0  0  1  0  0  3  0  0  0  0  0  0
  193.6230  171.6900  143.9250 O   0  0  0  0  0  1  0  0  0  0  0  0
  194.3010  175.0970  144.1880 C   0  0  2  0  0  3  0  0  0  0  0  0
  191.2340  175.8950  144.5330 C   0  0  2  0  0  3  0  0  0  0  0  0
  193.2720  174.5660  141.9660 C   0  0  0  0  0  2  0  0  0  0  0  0
  187.8660  173.5450  140.6850 F   0  0  0  0  0  0  0  0  0  0  0  0
  191.1050  176.3130  143.0610 C   0  0  0  0  0  2  0  0  0  0  0  0
  194.5660  174.5920  145.6120 C   0  0  2  0  0  3  0  0  0  0  0  0
  189.4080  177.8400  147.2280 C   0  0  0  0  0  0  0  0  0  0  0  0
  189.7070  178.6760  148.2550 F   0  0  0  0  0  0  0  0  0  0  0  0
  190.3730  177.4010  146.4140 C   0  0  0  0  0  3  0  0  0  0  0  0
  187.9960  177.3680  147.0200 C   0  0  0  0  0  2  0  0  0  0  0  0
  190.0120  176.4380  145.3130 C   0  0  2  0  0  3  0  0  0  0  0  0
  187.9440  175.8580  146.7300 C   0  0  0  0  0  2  0  0  0  0  0  0
  189.9050  174.5080  146.7390 F   0  0  0  0  0  0  0  0  0  0  0  0
  189.1400  175.3190  145.9170 C   0  0  2  0  0  3  0  0  0  0  0  0
  195.5400  171.7450  145.8060 O   0  0  0  0  0  0  0  0  0  0  0  0
  196.5070  170.3570  145.6700 P   0  0  0  0  0  0  0  0  0  0  0  0
  197.9040  170.7420  145.2350 O   0  0  0  0  0  1  0  0  0  0  0  0
  195.8370  169.2900  144.5390 O   0  0  0  0  0  0  0  0  0  0  0  0
  196.5880  169.5900  147.1740 O   0  0  0  0  0  1  0  0  0  0  0  0
  1 14  1  0  0  0  0
  1 31  1  1  0  0  0
  2 21  1  0  0  0  0
  3 15  1  0  0  0  0
  3  6  1  0  0  0  0
  3 16  1  1  0  0  0
  4 11  1  0  0  0  0
  5  4  2  0  0  0  0
  5 12  1  0  0  0  0
  6  1  1  0  0  0  0
  7  2  1  0  0  0  0
  8 10  1  0  0  0  0
  9 13  1  0  0  0  0
 11 19  1  0  0  0  0
 11  2  2  0  0  0  0
 12  7  2  0  0  0  0
 13  8  1  1  0  0  0
 15 19  1  6  0  0  0
 15 17  1  0  0  0  0
 17  9  1  1  0  0  0
 17 22  1  0  0  0  0
 18 21  1  6  0  0  0
 18 13  1  0  0  0  0
 18 27  1  0  0  0  0
 20 12  1  0  0  0  0
 22 14  1  6  0  0  0
 22 10  1  0  0  0  0
 23 24  1  0  0  0  0
 25 23  2  0  0  0  0
 26 23  1  0  0  0  0
 27 30  1  0  0  0  0
 27 25  1  1  0  0  0
 28 26  1  0  0  0  0
 30 28  1  0  0  0  0
 30 29  1  1  0  0  0
 32 31  1  0  0  0  0
 32 35  1  0  0  0  0
 33 32  1  0  0  0  0
 34 32  2  0  0  0  0
M  END
>  <MODEL>
7

>  <REMARK>
 VINA RESULT:      -7.7      3.215      5.737
  Name = 
  3 active torsions:
  status: ('A' for Active; 'I' for Inactive)
    1  A    between atoms: C_1  and  O_27
    2  A    between atoms: P_4  and  O_27
    3  A    between atoms: C_25  and  C_28
                            x       y       z     vdW  Elec       q    Type
                         _______ _______ _______ _____ _____    ______ ____

>  <TORSDO>
F 3

$$$$
=
 OpenBabel11062420053D

 35 39  0  0  1  0  0  0  0  0999 V2000
  193.3170  173.5650  140.5320 C   0  0  1  0  0  3  0  0  0  0  0  0
  190.1380  175.3420  145.9970 C   0  0  0  0  0  0  0  0  0  0  0  0
  193.2480  174.3480  143.0250 C   0  0  2  0  0  3  0  0  0  0  0  0
  192.5010  175.3140  146.5690 C   0  0  0  0  0  3  0  0  0  0  0  0
  192.2950  176.3540  147.4790 C   0  0  0  0  0  3  0  0  0  0  0  0
  193.7510  173.3230  141.9900 C   0  0  0  0  0  2  0  0  0  0  0  0
  189.9420  176.3760  146.9200 C   0  0  0  0  0  3  0  0  0  0  0  0
  188.8810  174.9230  141.3240 C   0  0  0  0  0  2  0  0  0  0  0  0
  189.5610  173.2740  143.0300 O   0  0  0  0  0  0  0  0  0  0  0  0
  189.6160  174.0170  140.5470 O   0  0  0  0  0  0  0  0  0  0  0  0
  191.4300  174.7980  145.8310 C   0  0  0  0  0  0  0  0  0  0  0  0
  191.0160  176.8820  147.6570 C   0  0  0  0  0  0  0  0  0  0  0  0
  188.7230  174.3950  142.7650 C   0  0  1  0  0  3  0  0  0  0  0  0
  191.8560  173.2200  140.2440 C   0  0  0  0  0  2  0  0  0  0  0  0
  191.7780  174.2400  143.4580 C   0  0  1  0  0  3  0  0  0  0  0  0
  193.5610  175.6580  142.6620 O   0  0  0  0  0  1  0  0  0  0  0  0
  190.8780  173.4430  142.5150 C   0  0  2  0  0  3  0  0  0  0  0  0
  188.8360  175.4960  143.8470 C   0  0  2  0  0  3  0  0  0  0  0  0
  191.6980  173.6860  144.8700 C   0  0  0  0  0  2  0  0  0  0  0  0
  190.8150  177.8860  148.5430 F   0  0  0  0  0  0  0  0  0  0  0  0
  188.9570  174.8300  145.2260 C   0  0  0  0  0  2  0  0  0  0  0  0
  190.9030  174.0330  141.0990 C   0  0  2  0  0  3  0  0  0  0  0  0
  186.3480  177.9870  142.4380 C   0  0  0  0  0  0  0  0  0  0  0  0
  186.0920  178.6070  141.2580 F   0  0  0  0  0  0  0  0  0  0  0  0
  187.3160  177.0690  142.5180 C   0  0  0  0  0  3  0  0  0  0  0  0
  185.5740  178.3540  143.6730 C   0  0  0  0  0  2  0  0  0  0  0  0
  187.6050  176.4340  143.8540 C   0  0  2  0  0  3  0  0  0  0  0  0
  186.5000  178.5140  144.8900 C   0  0  0  0  0  2  0  0  0  0  0  0
  188.8640  178.2910  144.7110 F   0  0  0  0  0  0  0  0  0  0  0  0
  187.7080  177.5530  144.9090 C   0  0  2  0  0  3  0  0  0  0  0  0
  193.6250  174.8600  140.0980 O   0  0  0  0  0  0  0  0  0  0  0  0
  194.6140  174.6700  138.7320 P   0  0  0  0  0  0  0  0  0  0  0  0
  195.9700  175.2910  138.9870 O   0  0  0  0  0  1  0  0  0  0  0  0
  193.8970  175.4070  137.3880 O   0  0  0  0  0  0  0  0  0  0  0  0
  194.8100  173.0200  138.4180 O   0  0  0  0  0  1  0  0  0  0  0  0
  1 31  1  1  0  0  0
  1  6  1  0  0  0  0
  2  7  1  0  0  0  0
  3 16  1  6  0  0  0
  3 15  1  0  0  0  0
  4  5  2  0  0  0  0
  5 12  1  0  0  0  0
  6  3  1  0  0  0  0
  7 12  2  0  0  0  0
 10 22  1  0  0  0  0
 10  8  1  0  0  0  0
 11  2  2  0  0  0  0
 11  4  1  0  0  0  0
 12 20  1  0  0  0  0
 13  8  1  6  0  0  0
 13  9  1  0  0  0  0
 13 18  1  0  0  0  0
 14  1  1  0  0  0  0
 15 19  1  1  0  0  0
 17  9  1  1  0  0  0
 17 15  1  0  0  0  0
 18 27  1  0  0  0  0
 18 21  1  1  0  0  0
 19 11  1  0  0  0  0
 21  2  1  0  0  0  0
 22 14  1  6  0  0  0
 22 17  1  0  0  0  0
 23 25  2  0  0  0  0
 23 26  1  0  0  0  0
 24 23  1  0  0  0  0
 26 28  1  0  0  0  0
 27 25  1  6  0  0  0
 27 30  1  0  0  0  0
 28 30  1  0  0  0  0
 30 29  1  6  0  0  0
 32 33  1  0  0  0  0
 32 31  1  0  0  0  0
 34 32  2  0  0  0  0
 35 32  1  0  0  0  0
M  END
>  <MODEL>
8

>  <REMARK>
 VINA RESULT:      -7.6      1.368      1.981
  Name = 
  3 active torsions:
  status: ('A' for Active; 'I' for Inactive)
    1  A    between atoms: C_1  and  O_27
    2  A    between atoms: P_4  and  O_27
    3  A    between atoms: C_25  and  C_28
                            x       y       z     vdW  Elec       q    Type
                         _______ _______ _______ _____ _____    ______ ____

>  <TORSDO>
F 3

$$$$
=
 OpenBabel11062420053D

 35 39  0  0  1  0  0  0  0  0999 V2000
  192.2200  176.2240  146.0420 C   0  0  1  0  0  3  0  0  0  0  0  0
  186.7960  176.3200  142.3410 C   0  0  0  0  0  0  0  0  0  0  0  0
  189.9530  177.2750  145.2760 C   0  0  2  0  0  3  0  0  0  0  0  0
  186.6010  178.1970  143.8740 C   0  0  0  0  0  3  0  0  0  0  0  0
  185.8960  178.9170  142.9070 C   0  0  0  0  0  3  0  0  0  0  0  0
  190.8270  176.7540  146.4330 C   0  0  0  0  0  2  0  0  0  0  0  0
  186.0780  177.0470  141.3830 C   0  0  0  0  0  3  0  0  0  0  0  0
  191.0410  173.9750  142.0790 C   0  0  0  0  0  2  0  0  0  0  0  0
  189.1660  173.8720  143.6810 O   0  0  0  0  0  0  0  0  0  0  0  0
  191.7260  173.7630  143.2840 O   0  0  0  0  0  0  0  0  0  0  0  0
  187.0470  176.8980  143.6030 C   0  0  0  0  0  0  0  0  0  0  0  0
  185.6320  178.3400  141.6630 C   0  0  0  0  0  0  0  0  0  0  0  0
  189.5170  173.8830  142.3000 C   0  0  1  0  0  3  0  0  0  0  0  0
  192.2050  174.8540  145.3640 C   0  0  0  0  0  2  0  0  0  0  0  0
  189.2860  176.2240  144.3750 C   0  0  1  0  0  3  0  0  0  0  0  0
  190.6130  178.2350  144.5080 O   0  0  0  0  0  1  0  0  0  0  0  0
  189.9010  174.8260  144.4400 C   0  0  2  0  0  3  0  0  0  0  0  0
  188.7060  174.9210  141.4850 C   0  0  2  0  0  3  0  0  0  0  0  0
  187.7970  176.1670  144.6680 C   0  0  0  0  0  2  0  0  0  0  0  0
  184.9430  179.0370  140.7270 F   0  0  0  0  0  0  0  0  0  0  0  0
  187.2580  174.9350  141.9970 C   0  0  0  0  0  2  0  0  0  0  0  0
  191.3930  174.8640  144.0830 C   0  0  2  0  0  3  0  0  0  0  0  0
  187.4420  175.0080  137.9120 C   0  0  0  0  0  0  0  0  0  0  0  0
  186.4500  175.6040  137.2010 F   0  0  0  0  0  0  0  0  0  0  0  0
  187.6170  175.3080  139.2030 C   0  0  0  0  0  3  0  0  0  0  0  0
  188.3260  173.9790  137.2660 C   0  0  0  0  0  2  0  0  0  0  0  0
  188.6970  174.5930  139.9730 C   0  0  2  0  0  3  0  0  0  0  0  0
  188.5260  172.7570  138.1780 C   0  0  0  0  0  2  0  0  0  0  0  0
  187.4390  172.5720  140.2890 F   0  0  0  0  0  0  0  0  0  0  0  0
  188.5770  173.0830  139.6870 C   0  0  2  0  0  3  0  0  0  0  0  0
  192.9450  177.1520  145.2860 O   0  0  0  0  0  0  0  0  0  0  0  0
  194.5820  176.8370  145.6080 P   0  0  0  0  0  0  0  0  0  0  0  0
  194.7100  176.0360  146.8850 O   0  0  0  0  0  1  0  0  0  0  0  0
  195.4340  178.2910  145.7640 O   0  0  0  0  0  1  0  0  0  0  0  0
  195.2350  175.9470  144.3280 O   0  0  0  0  0  0  0  0  0  0  0  0
  1 31  1  6  0  0  0
  1  6  1  0  0  0  0
  2 11  1  0  0  0  0
  3 16  1  6  0  0  0
  3  6  1  0  0  0  0
  5  4  1  0  0  0  0
  7 12  1  0  0  0  0
  7  2  2  0  0  0  0
  8 10  1  0  0  0  0
 10 22  1  0  0  0  0
 11  4  2  0  0  0  0
 11 19  1  0  0  0  0
 12  5  2  0  0  0  0
 13  8  1  1  0  0  0
 13  9  1  0  0  0  0
 14  1  1  0  0  0  0
 15 17  1  0  0  0  0
 15 19  1  1  0  0  0
 15  3  1  0  0  0  0
 17  9  1  6  0  0  0
 18 21  1  1  0  0  0
 18 13  1  0  0  0  0
 20 12  1  0  0  0  0
 21  2  1  0  0  0  0
 22 17  1  0  0  0  0
 22 14  1  1  0  0  0
 23 25  2  0  0  0  0
 24 23  1  0  0  0  0
 26 23  1  0  0  0  0
 26 28  1  0  0  0  0
 27 25  1  6  0  0  0
 27 18  1  0  0  0  0
 28 30  1  0  0  0  0
 30 27  1  0  0  0  0
 30 29  1  1  0  0  0
 31 32  1  0  0  0  0
 32 34  1  0  0  0  0
 32 33  1  0  0  0  0
 35 32  2  0  0  0  0
M  END
>  <MODEL>
9

>  <REMARK>
 VINA RESULT:      -7.5      2.957      5.770
  Name = 
  3 active torsions:
  status: ('A' for Active; 'I' for Inactive)
    1  A    between atoms: C_1  and  O_27
    2  A    between atoms: P_4  and  O_27
    3  A    between atoms: C_25  and  C_28
                            x       y       z     vdW  Elec       q    Type
                         _______ _______ _______ _____ _____    ______ ____

>  <TORSDO>
F 3

$$$$
