=
 OpenBabel11062420153D

 25 26  0  0  1  0  0  0  0  0999 V2000
  187.2840  177.7720  140.0780 N   0  0  0  0  0  1  0  0  0  0  0  0
  186.2820  177.6640  141.0840 C   0  0  0  0  0  0  0  0  0  0  0  0
  185.0010  178.2360  140.9710 N   0  0  0  0  0  0  0  0  0  0  0  0
  186.4180  177.0380  142.2300 C   0  0  1  0  0  3  0  0  0  0  0  0
  185.1340  177.1790  142.9840 C   0  0  2  0  0  3  0  0  0  0  0  0
  184.2380  177.9710  142.1210 N   0  0  0  0  0  2  0  0  0  0  0  0
  185.3470  177.8710  144.2980 C   0  0  0  0  0  0  0  0  0  0  0  0
  185.8090  179.1220  146.7640 C   0  0  0  0  0  0  0  0  0  0  0  0
  186.1200  176.8850  147.8680 C   0  0  0  0  0  1  0  0  0  0  0  0
  185.6110  177.1030  145.4370 C   0  0  0  0  0  3  0  0  0  0  0  0
  185.5510  179.8920  145.6260 C   0  0  0  0  0  3  0  0  0  0  0  0
  185.8400  177.7230  146.6690 C   0  0  0  0  0  0  0  0  0  0  0  0
  185.3220  179.2700  144.3960 C   0  0  0  0  0  3  0  0  0  0  0  0
  186.0310  179.7400  147.9510 F   0  0  0  0  0  0  0  0  0  0  0  0
  187.9510  175.1120  141.8380 C   0  0  0  0  0  1  0  0  0  0  0  0
  187.6270  176.3010  142.7260 C   0  0  1  0  0  3  0  0  0  0  0  0
  188.8190  177.2370  142.8400 C   0  0  0  0  0  2  0  0  0  0  0  0
  188.8210  177.8700  144.1050 O   0  0  0  0  0  0  0  0  0  0  0  0
  190.1050  177.9520  144.5930 N   0  0  0  0  0  0  0  0  0  0  0  0
  191.0720  178.1740  143.5210 C   0  0  0  0  0  1  0  0  0  0  0  0
  190.4790  176.7640  145.3640 C   0  0  0  0  0  2  0  0  0  0  0  0
  189.7100  176.7170  146.6760 C   0  0  0  0  0  2  0  0  0  0  0  0
  191.0890  175.2510  147.9530 O   0  0  0  0  0  1  0  0  0  0  0  0
  189.0100  174.4440  147.4250 O   0  0  0  0  0  0  0  0  0  0  0  0
  189.9770  175.4400  147.3960 C   0  0  0  0  0  0  0  0  0  0  0  0
  1  2  1  0  0  0  0
  2  4  1  0  0  0  0
  3  2  2  0  0  0  0
  3  6  1  0  0  0  0
  4 16  1  6  0  0  0
  4  5  1  0  0  0  0
  5  7  1  1  0  0  0
  6  5  1  0  0  0  0
  7 13  2  0  0  0  0
  7 10  1  0  0  0  0
  8 14  1  0  0  0  0
 10 12  2  0  0  0  0
 11  8  2  0  0  0  0
 12  8  1  0  0  0  0
 12  9  1  0  0  0  0
 13 11  1  0  0  0  0
 16 15  1  6  0  0  0
 16 17  1  0  0  0  0
 17 18  1  0  0  0  0
 18 19  1  0  0  0  0
 19 21  1  0  0  0  0
 20 19  1  0  0  0  0
 21 22  1  0  0  0  0
 22 25  1  0  0  0  0
 25 24  2  0  0  0  0
 25 23  1  0  0  0  0
M  END
>  <MODEL>
1

>  <REMARK>
 VINA RESULT:      -6.5      0.000      0.000
  Name = 
  8 active torsions:
  status: ('A' for Active; 'I' for Inactive)
    1  A    between atoms: C_1  and  C_6
    2  A    between atoms: C_1  and  N_14
    3  A    between atoms: C_2  and  C_13
    4  A    between atoms: C_6  and  C_25
    5  A    between atoms: C_12  and  C_21
    6  A    between atoms: N_14  and  O_20
    7  A    between atoms: O_20  and  C_22
    8  A    between atoms: C_21  and  C_22
                            x       y       z     vdW  Elec       q    Type
                         _______ _______ _______ _____ _____    ______ ____

>  <TORSDO>
F 8

$$$$
=
 OpenBabel11062420153D

 25 26  0  0  1  0  0  0  0  0999 V2000
  183.7630  178.0660  142.0480 N   0  0  0  0  0  1  0  0  0  0  0  0
  185.1370  178.0330  141.6750 C   0  0  0  0  0  0  0  0  0  0  0  0
  185.5820  177.7620  140.3670 N   0  0  0  0  0  0  0  0  0  0  0  0
  186.1510  178.2380  142.4840 C   0  0  1  0  0  3  0  0  0  0  0  0
  187.4080  178.1020  141.6860 C   0  0  2  0  0  3  0  0  0  0  0  0
  186.9860  177.7890  140.3080 N   0  0  0  0  0  2  0  0  0  0  0  0
  188.2830  177.0110  142.2290 C   0  0  0  0  0  0  0  0  0  0  0  0
  189.9280  175.0150  143.3090 C   0  0  0  0  0  0  0  0  0  0  0  0
  191.7080  176.7180  143.8080 C   0  0  0  0  0  1  0  0  0  0  0  0
  189.5450  177.3380  142.7360 C   0  0  0  0  0  3  0  0  0  0  0  0
  188.6650  174.6850  142.8080 C   0  0  0  0  0  3  0  0  0  0  0  0
  190.3690  176.3460  143.2740 C   0  0  0  0  0  0  0  0  0  0  0  0
  187.8430  175.6790  142.2720 C   0  0  0  0  0  3  0  0  0  0  0  0
  190.7150  174.0390  143.8290 F   0  0  0  0  0  0  0  0  0  0  0  0
  185.2400  179.7850  144.2130 C   0  0  0  0  0  1  0  0  0  0  0  0
  186.0960  178.5580  143.9480 C   0  0  1  0  0  3  0  0  0  0  0  0
  185.5940  177.3630  144.7420 C   0  0  0  0  0  2  0  0  0  0  0  0
  185.4060  177.7240  146.0970 O   0  0  0  0  0  0  0  0  0  0  0  0
  186.4090  177.1920  146.8740 N   0  0  0  0  0  0  0  0  0  0  0  0
  187.1080  178.2290  147.6290 C   0  0  0  0  0  1  0  0  0  0  0  0
  187.3690  176.4190  146.0820 C   0  0  0  0  0  2  0  0  0  0  0  0
  188.7870  176.6700  146.5700 C   0  0  0  0  0  2  0  0  0  0  0  0
  188.7270  174.5490  147.6530 O   0  0  0  0  0  1  0  0  0  0  0  0
  190.7690  175.1780  146.8220 O   0  0  0  0  0  0  0  0  0  0  0  0
  189.4160  175.4030  147.0370 C   0  0  0  0  0  0  0  0  0  0  0  0
  2  1  1  0  0  0  0
  2  4  1  0  0  0  0
  3  2  2  0  0  0  0
  4 16  1  6  0  0  0
  5  7  1  1  0  0  0
  5  4  1  0  0  0  0
  6  3  1  0  0  0  0
  6  5  1  0  0  0  0
  7 13  2  0  0  0  0
  7 10  1  0  0  0  0
  8 14  1  0  0  0  0
 10 12  2  0  0  0  0
 11  8  2  0  0  0  0
 12  8  1  0  0  0  0
 12  9  1  0  0  0  0
 13 11  1  0  0  0  0
 16 15  1  6  0  0  0
 16 17  1  0  0  0  0
 17 18  1  0  0  0  0
 18 19  1  0  0  0  0
 19 20  1  0  0  0  0
 21 22  1  0  0  0  0
 21 19  1  0  0  0  0
 22 25  1  0  0  0  0
 24 25  2  0  0  0  0
 25 23  1  0  0  0  0
M  END
>  <MODEL>
2

>  <REMARK>
 VINA RESULT:      -6.3      2.367      4.429
  Name = 
  8 active torsions:
  status: ('A' for Active; 'I' for Inactive)
    1  A    between atoms: C_1  and  C_6
    2  A    between atoms: C_1  and  N_14
    3  A    between atoms: C_2  and  C_13
    4  A    between atoms: C_6  and  C_25
    5  A    between atoms: C_12  and  C_21
    6  A    between atoms: N_14  and  O_20
    7  A    between atoms: O_20  and  C_22
    8  A    between atoms: C_21  and  C_22
                            x       y       z     vdW  Elec       q    Type
                         _______ _______ _______ _____ _____    ______ ____

>  <TORSDO>
F 8

$$$$
=
 OpenBabel11062420153D

 25 26  0  0  1  0  0  0  0  0999 V2000
  191.6960  175.0630  142.3230 N   0  0  0  0  0  1  0  0  0  0  0  0
  190.2850  174.9080  142.4350 C   0  0  0  0  0  0  0  0  0  0  0  0
  189.5790  173.8080  141.9130 N   0  0  0  0  0  0  0  0  0  0  0  0
  189.4700  175.7550  143.0200 C   0  0  1  0  0  3  0  0  0  0  0  0
  188.0820  175.2110  142.9020 C   0  0  2  0  0  3  0  0  0  0  0  0
  188.2030  173.9370  142.1700 N   0  0  0  0  0  2  0  0  0  0  0  0
  187.1860  176.1600  142.1640 C   0  0  0  0  0  0  0  0  0  0  0  0
  185.5180  177.9850  140.8420 C   0  0  0  0  0  0  0  0  0  0  0  0
  184.1190  178.2440  142.9140 C   0  0  0  0  0  1  0  0  0  0  0  0
  186.1020  176.7350  142.8350 C   0  0  0  0  0  3  0  0  0  0  0  0
  186.6040  177.4160  140.1700 C   0  0  0  0  0  3  0  0  0  0  0  0
  185.2670  177.6440  142.1790 C   0  0  0  0  0  0  0  0  0  0  0  0
  187.4380  176.5080  140.8280 C   0  0  0  0  0  3  0  0  0  0  0  0
  184.7180  178.8670  140.1910 F   0  0  0  0  0  0  0  0  0  0  0  0
  189.8910  178.1910  142.7050 C   0  0  0  0  0  1  0  0  0  0  0  0
  189.8310  177.0430  143.6980 C   0  0  1  0  0  3  0  0  0  0  0  0
  188.8590  177.3500  144.8260 C   0  0  0  0  0  2  0  0  0  0  0  0
  189.4620  177.0740  146.0760 O   0  0  0  0  0  0  0  0  0  0  0  0
  188.5920  176.3710  146.8780 N   0  0  0  0  0  0  0  0  0  0  0  0
  188.9800  174.9670  146.9860 C   0  0  0  0  0  1  0  0  0  0  0  0
  187.2070  176.4730  146.4120 C   0  0  0  0  0  2  0  0  0  0  0  0
  186.3070  176.9810  147.5270 C   0  0  0  0  0  2  0  0  0  0  0  0
  184.3400  177.7210  146.4030 O   0  0  0  0  0  0  0  0  0  0  0  0
  185.7040  179.3790  147.2040 O   0  0  0  0  0  1  0  0  0  0  0  0
  185.3890  178.0390  147.0220 C   0  0  0  0  0  0  0  0  0  0  0  0
  1  2  1  0  0  0  0
  2  4  1  0  0  0  0
  3  6  1  0  0  0  0
  3  2  2  0  0  0  0
  4 16  1  1  0  0  0
  5  7  1  6  0  0  0
  5  4  1  0  0  0  0
  6  5  1  0  0  0  0
  7 10  1  0  0  0  0
  8 12  1  0  0  0  0
 11 13  1  0  0  0  0
 11  8  2  0  0  0  0
 12 10  2  0  0  0  0
 12  9  1  0  0  0  0
 13  7  2  0  0  0  0
 14  8  1  0  0  0  0
 16 15  1  6  0  0  0
 16 17  1  0  0  0  0
 17 18  1  0  0  0  0
 18 19  1  0  0  0  0
 19 20  1  0  0  0  0
 21 19  1  0  0  0  0
 21 22  1  0  0  0  0
 23 25  2  0  0  0  0
 25 24  1  0  0  0  0
 25 22  1  0  0  0  0
M  END
>  <MODEL>
3

>  <REMARK>
 VINA RESULT:      -6.3      2.938      4.868
  Name = 
  8 active torsions:
  status: ('A' for Active; 'I' for Inactive)
    1  A    between atoms: C_1  and  C_6
    2  A    between atoms: C_1  and  N_14
    3  A    between atoms: C_2  and  C_13
    4  A    between atoms: C_6  and  C_25
    5  A    between atoms: C_12  and  C_21
    6  A    between atoms: N_14  and  O_20
    7  A    between atoms: O_20  and  C_22
    8  A    between atoms: C_21  and  C_22
                            x       y       z     vdW  Elec       q    Type
                         _______ _______ _______ _____ _____    ______ ____

>  <TORSDO>
F 8

$$$$
=
 OpenBabel11062420153D

 25 26  0  0  1  0  0  0  0  0999 V2000
  190.3880  174.8410  143.0450 N   0  0  0  0  0  1  0  0  0  0  0  0
  189.9150  175.1630  144.3490 C   0  0  0  0  0  0  0  0  0  0  0  0
  189.6530  174.2010  145.3420 N   0  0  0  0  0  0  0  0  0  0  0  0
  189.6570  176.3740  144.7880 C   0  0  0  0  0  0  0  0  0  0  0  0
  189.1760  176.2570  146.1990 C   0  0  2  0  0  3  0  0  0  0  0  0
  189.1900  174.8170  146.5180 N   0  0  0  0  0  0  0  0  0  0  0  0
  187.7930  176.8170  146.3520 C   0  0  0  0  0  0  0  0  0  0  0  0
  185.2370  177.9350  146.6200 C   0  0  0  0  0  0  0  0  0  0  0  0
  186.1470  179.7120  148.1460 C   0  0  0  0  0  1  0  0  0  0  0  0
  187.6010  177.9490  147.1520 C   0  0  0  0  0  3  0  0  0  0  0  0
  185.4260  176.8080  145.8160 C   0  0  0  0  0  3  0  0  0  0  0  0
  186.3280  178.5080  147.2900 C   0  0  0  0  0  0  0  0  0  0  0  0
  186.7000  176.2500  145.6790 C   0  0  0  0  0  3  0  0  0  0  0  0
  183.9940  178.4660  146.7420 F   0  0  0  0  0  0  0  0  0  0  0  0
  191.2520  177.8960  143.6240 C   0  0  0  0  0  1  0  0  0  0  0  0
  189.8080  177.6640  144.0380 C   0  0  1  0  0  3  0  0  0  0  0  0
  188.8840  177.6980  142.8310 C   0  0  0  0  0  2  0  0  0  0  0  0
  187.6210  178.2160  143.2020 O   0  0  0  0  0  0  0  0  0  0  0  0
  186.6590  177.8090  142.3060 N   0  0  0  0  0  0  0  0  0  0  0  0
  187.2140  177.6470  140.9640 C   0  0  0  0  0  1  0  0  0  0  0  0
  185.5170  178.7250  142.2670 C   0  0  0  0  0  2  0  0  0  0  0  0
  184.2170  177.9650  142.4800 C   0  0  0  0  0  2  0  0  0  0  0  0
  183.7370  178.0810  140.1490 O   0  0  0  0  0  0  0  0  0  0  0  0
  181.9600  178.4640  141.5450 O   0  0  0  0  0  1  0  0  0  0  0  0
  183.2970  178.1610  141.3250 C   0  0  0  0  0  0  0  0  0  0  0  0
  1  2  1  0  0  0  0
  2  4  2  0  0  0  0
  2  3  1  0  0  0  0
  3  6  2  0  0  0  0
  4  5  1  0  0  0  0
  5  7  1  6  0  0  0
  5  6  1  0  0  0  0
  7 10  1  0  0  0  0
  8 14  1  0  0  0  0
  8 12  1  0  0  0  0
 10 12  2  0  0  0  0
 11  8  2  0  0  0  0
 12  9  1  0  0  0  0
 13 11  1  0  0  0  0
 13  7  2  0  0  0  0
 16 15  1  6  0  0  0
 16  4  1  0  0  0  0
 17 18  1  0  0  0  0
 17 16  1  0  0  0  0
 19 18  1  0  0  0  0
 20 19  1  0  0  0  0
 21 19  1  0  0  0  0
 21 22  1  0  0  0  0
 23 25  2  0  0  0  0
 25 24  1  0  0  0  0
 25 22  1  0  0  0  0
M  END
>  <MODEL>
4

>  <REMARK>
 VINA RESULT:      -6.2      2.723      5.454
  Name = 
  8 active torsions:
  status: ('A' for Active; 'I' for Inactive)
    1  A    between atoms: C_1  and  C_6
    2  A    between atoms: C_1  and  N_14
    3  A    between atoms: C_2  and  C_13
    4  A    between atoms: C_6  and  C_25
    5  A    between atoms: C_12  and  C_21
    6  A    between atoms: N_14  and  O_20
    7  A    between atoms: O_20  and  C_22
    8  A    between atoms: C_21  and  C_22
                            x       y       z     vdW  Elec       q    Type
                         _______ _______ _______ _____ _____    ______ ____

>  <TORSDO>
F 8

$$$$
=
 OpenBabel11062420153D

 25 26  0  0  1  0  0  0  0  0999 V2000
  189.8660  173.1810  144.8150 N   0  0  0  0  0  1  0  0  0  0  0  0
  189.6450  174.5500  145.1400 C   0  0  0  0  0  0  0  0  0  0  0  0
  190.1140  175.1550  146.3210 N   0  0  0  0  0  0  0  0  0  0  0  0
  188.9810  175.4100  144.4030 C   0  0  0  0  0  0  0  0  0  0  0  0
  188.9820  176.7230  145.1180 C   0  0  2  0  0  3  0  0  0  0  0  0
  189.7350  176.5080  146.3670 N   0  0  0  0  0  0  0  0  0  0  0  0
  187.5860  177.1830  145.4160 C   0  0  0  0  0  0  0  0  0  0  0  0
  184.9640  178.0500  145.8970 C   0  0  0  0  0  0  0  0  0  0  0  0
  185.3280  180.0500  144.4190 C   0  0  0  0  0  1  0  0  0  0  0  0
  187.1150  178.3590  144.8230 C   0  0  0  0  0  3  0  0  0  0  0  0
  185.4300  176.8710  146.4870 C   0  0  0  0  0  3  0  0  0  0  0  0
  185.8080  178.7950  145.0620 C   0  0  0  0  0  0  0  0  0  0  0  0
  186.7360  176.4360  146.2470 C   0  0  0  0  0  3  0  0  0  0  0  0
  183.6920  178.4580  146.1380 F   0  0  0  0  0  0  0  0  0  0  0  0
  186.8220  175.0220  143.2180 C   0  0  0  0  0  1  0  0  0  0  0  0
  188.3290  175.1570  143.0750 C   0  0  1  0  0  3  0  0  0  0  0  0
  188.6850  176.2520  142.0830 C   0  0  0  0  0  2  0  0  0  0  0  0
  187.8140  176.2000  140.9690 O   0  0  0  0  0  0  0  0  0  0  0  0
  187.4840  177.4730  140.5650 N   0  0  0  0  0  0  0  0  0  0  0  0
  187.9490  178.4750  141.5210 C   0  0  0  0  0  1  0  0  0  0  0  0
  186.0440  177.6260  140.3420 C   0  0  0  0  0  2  0  0  0  0  0  0
  185.3160  177.8070  141.6650 C   0  0  0  0  0  2  0  0  0  0  0  0
  183.1060  178.2920  142.4130 O   0  0  0  0  0  1  0  0  0  0  0  0
  183.4010  178.2850  140.1400 O   0  0  0  0  0  0  0  0  0  0  0  0
  183.8850  178.1510  141.4350 C   0  0  0  0  0  0  0  0  0  0  0  0
  1  2  1  0  0  0  0
  2  3  1  0  0  0  0
  3  6  2  0  0  0  0
  4  5  1  0  0  0  0
  4  2  2  0  0  0  0
  5  7  1  1  0  0  0
  5  6  1  0  0  0  0
  7 13  1  0  0  0  0
  8 14  1  0  0  0  0
  8 11  1  0  0  0  0
  9 12  1  0  0  0  0
 10 12  1  0  0  0  0
 10  7  2  0  0  0  0
 12  8  2  0  0  0  0
 13 11  2  0  0  0  0
 16 15  1  1  0  0  0
 16  4  1  0  0  0  0
 17 16  1  0  0  0  0
 18 17  1  0  0  0  0
 19 18  1  0  0  0  0
 19 20  1  0  0  0  0
 21 19  1  0  0  0  0
 21 22  1  0  0  0  0
 24 25  2  0  0  0  0
 25 22  1  0  0  0  0
 25 23  1  0  0  0  0
M  END
>  <MODEL>
5

>  <REMARK>
 VINA RESULT:      -6.1      2.810      5.444
  Name = 
  8 active torsions:
  status: ('A' for Active; 'I' for Inactive)
    1  A    between atoms: C_1  and  C_6
    2  A    between atoms: C_1  and  N_14
    3  A    between atoms: C_2  and  C_13
    4  A    between atoms: C_6  and  C_25
    5  A    between atoms: C_12  and  C_21
    6  A    between atoms: N_14  and  O_20
    7  A    between atoms: O_20  and  C_22
    8  A    between atoms: C_21  and  C_22
                            x       y       z     vdW  Elec       q    Type
                         _______ _______ _______ _____ _____    ______ ____

>  <TORSDO>
F 8

$$$$
=
 OpenBabel11062420153D

 25 26  0  0  1  0  0  0  0  0999 V2000
  187.4040  177.3580  147.0890 N   0  0  0  0  0  1  0  0  0  0  0  0
  188.2060  176.3080  146.5580 C   0  0  0  0  0  0  0  0  0  0  0  0
  188.6020  175.1790  147.3000 N   0  0  0  0  0  0  0  0  0  0  0  0
  188.6800  176.2570  145.3340 C   0  0  0  0  0  0  0  0  0  0  0  0
  189.4720  174.9950  145.2030 C   0  0  2  0  0  3  0  0  0  0  0  0
  189.3930  174.3240  146.5130 N   0  0  0  0  0  0  0  0  0  0  0  0
  190.9000  175.2830  144.8430 C   0  0  0  0  0  0  0  0  0  0  0  0
  193.5910  175.7810  144.2370 C   0  0  0  0  0  0  0  0  0  0  0  0
  193.9810  176.6450  146.5640 C   0  0  0  0  0  1  0  0  0  0  0  0
  191.7510  175.8210  145.8140 C   0  0  0  0  0  3  0  0  0  0  0  0
  192.7430  175.2380  143.2660 C   0  0  0  0  0  3  0  0  0  0  0  0
  193.0940  176.0720  145.5150 C   0  0  0  0  0  0  0  0  0  0  0  0
  191.4020  174.9870  143.5670 C   0  0  0  0  0  3  0  0  0  0  0  0
  194.8910  176.0170  143.9290 F   0  0  0  0  0  0  0  0  0  0  0  0
  189.7310  178.1000  144.0250 C   0  0  0  0  0  1  0  0  0  0  0  0
  188.4820  177.2620  144.2390 C   0  0  1  0  0  3  0  0  0  0  0  0
  188.0590  176.5770  142.9490 C   0  0  0  0  0  2  0  0  0  0  0  0
  186.6540  176.4080  142.9280 O   0  0  0  0  0  0  0  0  0  0  0  0
  186.1060  177.1210  141.8870 N   0  0  0  0  0  0  0  0  0  0  0  0
  187.0700  177.3190  140.8080 C   0  0  0  0  0  1  0  0  0  0  0  0
  185.5730  178.4140  142.3230 C   0  0  0  0  0  2  0  0  0  0  0  0
  184.4100  178.2140  143.2830 C   0  0  0  0  0  2  0  0  0  0  0  0
  183.8310  178.8320  145.5110 O   0  0  0  0  0  1  0  0  0  0  0  0
  185.8520  179.6120  144.7620 O   0  0  0  0  0  0  0  0  0  0  0  0
  184.6790  178.8900  144.5830 C   0  0  0  0  0  0  0  0  0  0  0  0
  2  1  1  0  0  0  0
  2  3  1  0  0  0  0
  4  2  2  0  0  0  0
  5  7  1  1  0  0  0
  5  4  1  0  0  0  0
  5  6  1  0  0  0  0
  6  3  2  0  0  0  0
  7 10  1  0  0  0  0
  8 12  1  0  0  0  0
 11 13  1  0  0  0  0
 11  8  2  0  0  0  0
 12 10  2  0  0  0  0
 12  9  1  0  0  0  0
 13  7  2  0  0  0  0
 14  8  1  0  0  0  0
 16 15  1  6  0  0  0
 16  4  1  0  0  0  0
 17 16  1  0  0  0  0
 18 17  1  0  0  0  0
 19 21  1  0  0  0  0
 19 18  1  0  0  0  0
 20 19  1  0  0  0  0
 21 22  1  0  0  0  0
 22 25  1  0  0  0  0
 25 24  2  0  0  0  0
 25 23  1  0  0  0  0
M  END
>  <MODEL>
6

>  <REMARK>
 VINA RESULT:      -6.1      3.377      6.599
  Name = 
  8 active torsions:
  status: ('A' for Active; 'I' for Inactive)
    1  A    between atoms: C_1  and  C_6
    2  A    between atoms: C_1  and  N_14
    3  A    between atoms: C_2  and  C_13
    4  A    between atoms: C_6  and  C_25
    5  A    between atoms: C_12  and  C_21
    6  A    between atoms: N_14  and  O_20
    7  A    between atoms: O_20  and  C_22
    8  A    between atoms: C_21  and  C_22
                            x       y       z     vdW  Elec       q    Type
                         _______ _______ _______ _____ _____    ______ ____

>  <TORSDO>
F 8

$$$$
=
 OpenBabel11062420153D

 25 26  0  0  1  0  0  0  0  0999 V2000
  191.0810  175.1920  141.9690 N   0  0  0  0  0  1  0  0  0  0  0  0
  189.7350  175.2260  142.4330 C   0  0  0  0  0  0  0  0  0  0  0  0
  188.6530  174.6760  141.7210 N   0  0  0  0  0  0  0  0  0  0  0  0
  189.3300  175.7710  143.5570 C   0  0  1  0  0  3  0  0  0  0  0  0
  187.8490  175.5910  143.6460 C   0  0  2  0  0  3  0  0  0  0  0  0
  187.4500  174.8700  142.4230 N   0  0  0  0  0  2  0  0  0  0  0  0
  187.1430  176.9120  143.7320 C   0  0  0  0  0  0  0  0  0  0  0  0
  185.8690  179.3990  143.9560 C   0  0  0  0  0  0  0  0  0  0  0  0
  185.4380  178.9860  146.3970 C   0  0  0  0  0  1  0  0  0  0  0  0
  186.6220  177.3260  144.9620 C   0  0  0  0  0  3  0  0  0  0  0  0
  186.3940  178.9890  142.7260 C   0  0  0  0  0  3  0  0  0  0  0  0
  185.9840  178.5650  145.0780 C   0  0  0  0  0  0  0  0  0  0  0  0
  187.0310  177.7510  142.6130 C   0  0  0  0  0  3  0  0  0  0  0  0
  185.2550  180.6050  144.0500 F   0  0  0  0  0  0  0  0  0  0  0  0
  190.2320  177.9550  144.3520 C   0  0  0  0  0  1  0  0  0  0  0  0
  190.1740  176.4550  144.5910 C   0  0  1  0  0  3  0  0  0  0  0  0
  189.6670  176.1460  145.9910 C   0  0  0  0  0  2  0  0  0  0  0  0
  190.2420  174.9420  146.4600 O   0  0  0  0  0  0  0  0  0  0  0  0
  191.2480  175.2140  147.3580 N   0  0  0  0  0  0  0  0  0  0  0  0
  191.0940  176.5430  147.9460 C   0  0  0  0  0  1  0  0  0  0  0  0
  192.5770  175.0860  146.7550 C   0  0  0  0  0  2  0  0  0  0  0  0
  193.3130  176.4160  146.7990 C   0  0  0  0  0  2  0  0  0  0  0  0
  195.2990  175.2800  146.1320 O   0  0  0  0  0  1  0  0  0  0  0  0
  195.0590  177.4110  145.3230 O   0  0  0  0  0  0  0  0  0  0  0  0
  194.6040  176.3270  146.0620 C   0  0  0  0  0  0  0  0  0  0  0  0
  1  2  1  0  0  0  0
  2  4  1  0  0  0  0
  3  6  1  0  0  0  0
  3  2  2  0  0  0  0
  4  5  1  0  0  0  0
  4 16  1  1  0  0  0
  5  7  1  6  0  0  0
  6  5  1  0  0  0  0
  7 10  1  0  0  0  0
  8 14  1  0  0  0  0
  8 12  1  0  0  0  0
 10 12  2  0  0  0  0
 11  8  2  0  0  0  0
 12  9  1  0  0  0  0
 13 11  1  0  0  0  0
 13  7  2  0  0  0  0
 16 15  1  6  0  0  0
 16 17  1  0  0  0  0
 17 18  1  0  0  0  0
 18 19  1  0  0  0  0
 19 20  1  0  0  0  0
 21 22  1  0  0  0  0
 21 19  1  0  0  0  0
 24 25  2  0  0  0  0
 25 23  1  0  0  0  0
 25 22  1  0  0  0  0
M  END
>  <MODEL>
7

>  <REMARK>
 VINA RESULT:      -6.0      2.733      3.926
  Name = 
  8 active torsions:
  status: ('A' for Active; 'I' for Inactive)
    1  A    between atoms: C_1  and  C_6
    2  A    between atoms: C_1  and  N_14
    3  A    between atoms: C_2  and  C_13
    4  A    between atoms: C_6  and  C_25
    5  A    between atoms: C_12  and  C_21
    6  A    between atoms: N_14  and  O_20
    7  A    between atoms: O_20  and  C_22
    8  A    between atoms: C_21  and  C_22
                            x       y       z     vdW  Elec       q    Type
                         _______ _______ _______ _____ _____    ______ ____

>  <TORSDO>
F 8

$$$$
=
 OpenBabel11062420153D

 25 26  0  0  1  0  0  0  0  0999 V2000
  191.5610  178.1450  143.8170 N   0  0  0  0  0  1  0  0  0  0  0  0
  190.2940  177.5150  143.6620 C   0  0  0  0  0  0  0  0  0  0  0  0
  189.6280  177.3980  142.4270 N   0  0  0  0  0  0  0  0  0  0  0  0
  189.5870  176.9780  144.6290 C   0  0  1  0  0  3  0  0  0  0  0  0
  188.3260  176.4400  144.0320 C   0  0  2  0  0  3  0  0  0  0  0  0
  188.3980  176.7390  142.5890 N   0  0  0  0  0  2  0  0  0  0  0  0
  187.1160  177.0820  144.6430 C   0  0  0  0  0  0  0  0  0  0  0  0
  184.8280  178.2970  145.7130 C   0  0  0  0  0  0  0  0  0  0  0  0
  185.1910  180.3160  144.2630 C   0  0  0  0  0  1  0  0  0  0  0  0
  186.7270  178.3530  144.2080 C   0  0  0  0  0  3  0  0  0  0  0  0
  185.2120  177.0240  146.1460 C   0  0  0  0  0  3  0  0  0  0  0  0
  185.5870  178.9630  144.7410 C   0  0  0  0  0  0  0  0  0  0  0  0
  186.3510  176.4160  145.6120 C   0  0  0  0  0  3  0  0  0  0  0  0
  183.7180  178.8730  146.2400 F   0  0  0  0  0  0  0  0  0  0  0  0
  189.1750  177.9160  146.9020 C   0  0  0  0  0  1  0  0  0  0  0  0
  189.9490  176.8960  146.0830 C   0  0  1  0  0  3  0  0  0  0  0  0
  189.7290  175.4900  146.6150 C   0  0  0  0  0  2  0  0  0  0  0  0
  190.9510  174.7780  146.6270 O   0  0  0  0  0  0  0  0  0  0  0  0
  191.2460  174.3210  145.3630 N   0  0  0  0  0  0  0  0  0  0  0  0
  190.4160  173.1750  145.0010 C   0  0  0  0  0  1  0  0  0  0  0  0
  192.6630  173.9790  145.2160 C   0  0  0  0  0  2  0  0  0  0  0  0
  193.4590  175.1890  144.7540 C   0  0  0  0  0  2  0  0  0  0  0  0
  195.6030  175.2900  145.7880 O   0  0  0  0  0  0  0  0  0  0  0  0
  193.9300  176.4260  146.8670 O   0  0  0  0  0  1  0  0  0  0  0  0
  194.3950  175.6420  145.8200 C   0  0  0  0  0  0  0  0  0  0  0  0
  2  1  1  0  0  0  0
  2  4  1  0  0  0  0
  3  6  1  0  0  0  0
  3  2  2  0  0  0  0
  4 16  1  6  0  0  0
  5  4  1  0  0  0  0
  5  7  1  1  0  0  0
  6  5  1  0  0  0  0
  7 13  1  0  0  0  0
  8 11  1  0  0  0  0
  8 14  1  0  0  0  0
  9 12  1  0  0  0  0
 10  7  2  0  0  0  0
 10 12  1  0  0  0  0
 12  8  2  0  0  0  0
 13 11  2  0  0  0  0
 16 17  1  0  0  0  0
 16 15  1  1  0  0  0
 17 18  1  0  0  0  0
 19 18  1  0  0  0  0
 20 19  1  0  0  0  0
 21 19  1  0  0  0  0
 22 21  1  0  0  0  0
 22 25  1  0  0  0  0
 23 25  2  0  0  0  0
 25 24  1  0  0  0  0
M  END
>  <MODEL>
8

>  <REMARK>
 VINA RESULT:      -5.9      2.434      4.185
  Name = 
  8 active torsions:
  status: ('A' for Active; 'I' for Inactive)
    1  A    between atoms: C_1  and  C_6
    2  A    between atoms: C_1  and  N_14
    3  A    between atoms: C_2  and  C_13
    4  A    between atoms: C_6  and  C_25
    5  A    between atoms: C_12  and  C_21
    6  A    between atoms: N_14  and  O_20
    7  A    between atoms: O_20  and  C_22
    8  A    between atoms: C_21  and  C_22
                            x       y       z     vdW  Elec       q    Type
                         _______ _______ _______ _____ _____    ______ ____

>  <TORSDO>
F 8

$$$$
=
 OpenBabel11062420153D

 25 26  0  0  1  0  0  0  0  0999 V2000
  192.1800  174.1160  145.3930 N   0  0  0  0  0  1  0  0  0  0  0  0
  191.4950  175.2590  145.8970 C   0  0  0  0  0  0  0  0  0  0  0  0
  191.4840  175.6230  147.2560 N   0  0  0  0  0  0  0  0  0  0  0  0
  190.7920  176.1020  145.1780 C   0  0  0  0  0  0  0  0  0  0  0  0
  190.2410  177.1420  146.1010 C   0  0  2  0  0  3  0  0  0  0  0  0
  190.7200  176.7870  147.4500 N   0  0  0  0  0  0  0  0  0  0  0  0
  188.7420  177.1660  146.0640 C   0  0  0  0  0  0  0  0  0  0  0  0
  185.9430  177.2020  145.9160 C   0  0  0  0  0  0  0  0  0  0  0  0
  186.0360  178.9570  144.1200 C   0  0  0  0  0  1  0  0  0  0  0  0
  188.0970  178.0190  145.1620 C   0  0  0  0  0  3  0  0  0  0  0  0
  186.5850  176.3440  146.8140 C   0  0  0  0  0  3  0  0  0  0  0  0
  186.7010  178.0410  145.0870 C   0  0  0  0  0  0  0  0  0  0  0  0
  187.9810  176.3230  146.8870 C   0  0  0  0  0  3  0  0  0  0  0  0
  184.5870  177.2090  145.8550 F   0  0  0  0  0  0  0  0  0  0  0  0
  191.7360  176.6620  142.9400 C   0  0  0  0  0  1  0  0  0  0  0  0
  190.5620  176.0640  143.6960 C   0  0  1  0  0  3  0  0  0  0  0  0
  190.2820  174.6440  143.2310 C   0  0  0  0  0  2  0  0  0  0  0  0
  188.9640  174.2690  143.5840 O   0  0  0  0  0  0  0  0  0  0  0  0
  188.1730  174.2040  142.4600 N   0  0  0  0  0  0  0  0  0  0  0  0
  188.9680  173.9600  141.2590 C   0  0  0  0  0  1  0  0  0  0  0  0
  187.3610  175.4100  142.2850 C   0  0  0  0  0  2  0  0  0  0  0  0
  187.7370  176.1230  140.9950 C   0  0  0  0  0  2  0  0  0  0  0  0
  186.5060  178.1540  140.7980 O   0  0  0  0  0  0  0  0  0  0  0  0
  188.6310  178.3620  141.6330 O   0  0  0  0  0  1  0  0  0  0  0  0
  187.5800  177.5970  141.1430 C   0  0  0  0  0  0  0  0  0  0  0  0
  1  2  1  0  0  0  0
  2  3  1  0  0  0  0
  3  6  2  0  0  0  0
  4  2  2  0  0  0  0
  4  5  1  0  0  0  0
  5  7  1  1  0  0  0
  5  6  1  0  0  0  0
  7 13  1  0  0  0  0
  8 11  1  0  0  0  0
  9 12  1  0  0  0  0
 10  7  2  0  0  0  0
 11 13  2  0  0  0  0
 12 10  1  0  0  0  0
 12  8  2  0  0  0  0
 14  8  1  0  0  0  0
 16 15  1  6  0  0  0
 16  4  1  0  0  0  0
 17 18  1  0  0  0  0
 17 16  1  0  0  0  0
 19 18  1  0  0  0  0
 20 19  1  0  0  0  0
 21 19  1  0  0  0  0
 22 25  1  0  0  0  0
 22 21  1  0  0  0  0
 23 25  2  0  0  0  0
 25 24  1  0  0  0  0
M  END
>  <MODEL>
9

>  <REMARK>
 VINA RESULT:      -5.8      2.714      5.589
  Name = 
  8 active torsions:
  status: ('A' for Active; 'I' for Inactive)
    1  A    between atoms: C_1  and  C_6
    2  A    between atoms: C_1  and  N_14
    3  A    between atoms: C_2  and  C_13
    4  A    between atoms: C_6  and  C_25
    5  A    between atoms: C_12  and  C_21
    6  A    between atoms: N_14  and  O_20
    7  A    between atoms: O_20  and  C_22
    8  A    between atoms: C_21  and  C_22
                            x       y       z     vdW  Elec       q    Type
                         _______ _______ _______ _____ _____    ______ ____

>  <TORSDO>
F 8

$$$$
