=
 OpenBabel11072408533D

 60 66  0  0  1  0  0  0  0  0999 V2000
  189.2540  173.2340  143.3170 C   0  0  0  0  0  2  0  0  0  0  0  0
  188.5990  176.5130  145.0710 O   0  0  0  0  0  0  0  0  0  0  0  0
  192.6200  174.6380  144.0360 S   0  0  0  0  0  0  0  0  0  0  0  0
  189.9750  173.7670  140.3230 C   0  0  0  0  0  1  0  0  0  0  0  0
  192.8160  176.7370  147.5680 C   0  0  0  0  0  3  0  0  0  0  0  0
  196.9410  171.8010  142.7510 C   0  0  0  0  0  3  0  0  0  0  0  0
  193.0280  171.1020  143.6260 N   0  0  0  0  0  0  0  0  0  0  0  0
  192.2430  175.4290  145.6040 C   0  0  0  0  0  0  0  0  0  0  0  0
  186.9570  176.2730  146.6820 O   0  0  0  0  0  0  0  0  0  0  0  0
  196.2520  172.5430  143.8220 C   0  0  0  0  0  0  0  0  0  0  0  0
  194.6710  176.0940  146.0370 C   0  0  0  0  0  2  0  0  0  0  0  0
  196.2460  171.0700  141.8680 C   0  0  0  0  0  0  0  0  0  0  0  0
  194.1860  171.5040  143.1960 C   0  0  0  0  0  0  0  0  0  0  0  0
  195.2350  174.6970  145.8050 C   0  0  0  0  0  2  0  0  0  0  0  0
  191.6030  175.7730  143.0120 C   0  0  0  0  0  2  0  0  0  0  0  0
  190.4580  172.7160  142.5730 C   0  0  1  0  0  3  0  0  0  0  0  0
  190.3880  175.0710  142.3750 C   0  0  2  0  0  3  0  0  0  0  0  0
  190.9160  175.4500  146.0080 C   0  0  0  0  0  3  0  0  0  0  0  0
  189.1340  176.2840  147.4170 O   0  0  0  0  0  0  0  0  0  0  0  0
  191.4570  176.8020  147.9360 C   0  0  0  0  0  0  0  0  0  0  0  0
  196.5670  174.7460  145.0610 C   0  0  1  0  0  3  0  0  0  0  0  0
  196.9770  170.3600  140.7870 C   0  0  0  0  0  1  0  0  0  0  0  0
  190.5030  176.1580  147.1400 C   0  0  0  0  0  0  0  0  0  0  0  0
  187.7410  176.4610  143.9390 C   0  0  2  0  0  3  0  0  0  0  0  0
  193.2200  176.0550  146.4080 C   0  0  0  0  0  0  0  0  0  0  0  0
  194.9780  172.3630  144.0260 N   0  0  0  0  0  0  0  0  0  0  0  0
  189.4030  174.6850  143.3980 N   0  0  1  0  0  0  0  0  0  0  0  0
  188.1780  176.3420  146.3950 C   0  0  0  0  0  0  0  0  0  0  0  0
  191.6110  170.6930  141.6700 C   0  0  1  0  0  3  0  0  0  0  0  0
  190.2570  171.3380  141.9570 C   0  0  0  0  0  2  0  0  0  0  0  0
  194.7370  171.0400  141.8730 C   0  0  0  0  0  2  0  0  0  0  0  0
  197.0070  173.4070  144.6770 N   0  0  0  0  0  2  0  0  0  0  0  0
  192.1880  170.2780  142.9050 O   0  0  0  0  0  0  0  0  0  0  0  0
  190.8030  173.8260  141.6030 C   0  0  2  0  0  3  0  0  0  0  0  0
  188.1040  175.2620  143.0450 C   0  0  0  0  0  2  0  0  0  0  0  0
  196.4740  175.5460  143.9150 O   0  0  0  0  0  1  0  0  0  0  0  0
  192.6090  168.5310  140.8320 C   0  0  0  0  0  1  0  0  0  0  0  0
  191.4220  169.4840  140.7480 C   0  0  2  0  0  3  0  0  0  0  0  0
  192.7540  172.1810  136.8360 N   0  0  0  0  0  1  0  0  0  0  0  0
  190.1420  169.3830  138.5640 C   0  0  0  0  0  3  0  0  0  0  0  0
  191.8880  171.2090  137.4150 C   0  0  0  0  0  0  0  0  0  0  0  0
  192.0630  170.8370  138.7510 C   0  0  0  0  0  3  0  0  0  0  0  0
  189.9790  169.8040  137.2440 C   0  0  0  0  0  3  0  0  0  0  0  0
  191.1950  169.9080  139.3270 C   0  0  0  0  0  0  0  0  0  0  0  0
  190.8470  170.6980  136.6990 N   0  0  0  0  0  0  0  0  0  0  0  0
  187.8860  177.7390  143.1120 C   0  0  0  0  0  2  0  0  0  0  0  0
  186.5460  178.4040  142.7960 C   0  0  1  0  0  0  0  0  0  0  0  0
  185.3870  177.5090  142.8210 C   0  0  2  0  0  3  0  0  0  0  0  0
  186.3600  179.8720  143.1790 C   0  0  0  0  0  1  0  0  0  0  0  0
  185.9240  177.9930  141.1130 P   0  0  1  0  0  0  0  0  0  0  0  0
  184.7940  178.9760  140.3130 O   0  0  0  0  0  0  0  0  0  0  0  0
  186.4450  176.7830  140.3670 O   0  0  0  0  0  1  0  0  0  0  0  0
  184.0610  178.1860  143.1510 C   0  0  0  0  0  2  0  0  0  0  0  0
  184.0100  178.5440  144.6230 C   0  0  0  0  0  1  0  0  0  0  0  0
  191.0370  177.5380  149.0530 O   0  0  0  0  0  0  0  0  0  0  0  0
  191.9220  177.9810  150.0740 C   0  0  0  0  0  2  0  0  0  0  0  0
  191.2760  177.7820  151.4370 C   0  0  0  0  0  2  0  0  0  0  0  0
  192.1720  176.9320  152.3160 C   0  0  0  0  0  2  0  0  0  0  0  0
  191.2050  177.9600  154.3450 C   0  0  0  0  0  1  0  0  0  0  0  0
  191.4600  176.6550  153.6240 C   0  0  0  0  0  2  0  0  0  0  0  0
  1 27  1  0  0  0  0
  2 28  1  0  0  0  0
  3  8  1  0  0  0  0
  5 20  1  0  0  0  0
  6 10  1  0  0  0  0
  8 18  2  0  0  0  0
  8 25  1  0  0  0  0
 10 26  2  0  0  0  0
 10 32  1  0  0  0  0
 11 25  1  0  0  0  0
 12 31  1  0  0  0  0
 12  6  2  0  0  0  0
 13  7  2  0  0  0  0
 13 26  1  0  0  0  0
 14 11  1  0  0  0  0
 15  3  1  0  0  0  0
 16 30  1  6  0  0  0
 16  1  1  0  0  0  0
 17 15  1  1  0  0  0
 17 27  1  0  0  0  0
 18 23  1  0  0  0  0
 20 55  1  0  0  0  0
 21 36  1  6  0  0  0
 21 14  1  0  0  0  0
 22 12  1  0  0  0  0
 23 19  1  0  0  0  0
 23 20  2  0  0  0  0
 24 46  1  6  0  0  0
 24  2  1  0  0  0  0
 25  5  2  0  0  0  0
 27 35  1  6  0  0  0
 28  9  2  0  0  0  0
 28 19  1  0  0  0  0
 29 38  1  6  0  0  0
 29 30  1  0  0  0  0
 29 33  1  0  0  0  0
 31 13  1  0  0  0  0
 32 21  1  0  0  0  0
 33  7  1  0  0  0  0
 34  4  1  6  0  0  0
 34 17  1  0  0  0  0
 34 16  1  0  0  0  0
 35 24  1  0  0  0  0
 38 37  1  6  0  0  0
 39 41  1  0  0  0  0
 40 44  1  0  0  0  0
 41 42  1  0  0  0  0
 42 44  2  0  0  0  0
 43 40  2  0  0  0  0
 44 38  1  0  0  0  0
 45 43  1  0  0  0  0
 45 41  2  0  0  0  0
 47 48  1  0  0  0  0
 47 46  1  0  0  0  0
 47 49  1  1  0  0  0
 48 53  1  1  0  0  0
 50 51  2  6  0  0  0
 50 47  1  0  0  0  0
 50 48  1  0  0  0  0
 52 50  1  0  0  0  0
 53 54  1  0  0  0  0
 55 56  1  0  0  0  0
 56 57  1  0  0  0  0
 57 58  1  0  0  0  0
 58 60  1  0  0  0  0
 60 59  1  0  0  0  0
M  END
>  <MODEL>
1

>  <REMARK>
 VINA RESULT:      -8.5      0.000      0.000
  Name = 
  10 active torsions:
  status: ('A' for Active; 'I' for Inactive)
    1  A    between atoms: C_4  and  C_51
    2  A    between atoms: C_6  and  C_24
    3  A    between atoms: C_9  and  C_34
    4  A    between atoms: C_9  and  C_39
    5  A    between atoms: C_30  and  C_45
    6  A    between atoms: C_30  and  C_48
    7  A    between atoms: C_32  and  O_59
    8  A    between atoms: C_34  and  C_52
    9  A    between atoms: C_40  and  C_51
   10  A    between atoms: C_52  and  O_59
                            x       y       z     vdW  Elec       q    Type
                         _______ _______ _______ _____ _____    ______ ____

>  <TORSDO>
F 10

$$$$
=
 OpenBabel11072408533D

 60 66  0  0  1  0  0  0  0  0999 V2000
  190.1800  172.8310  143.0250 C   0  0  0  0  0  2  0  0  0  0  0  0
  189.4150  175.8040  145.2250 O   0  0  0  0  0  0  0  0  0  0  0  0
  193.2810  174.8800  142.9990 S   0  0  0  0  0  0  0  0  0  0  0  0
  189.9400  173.6560  140.0200 C   0  0  0  0  0  1  0  0  0  0  0  0
  194.0300  176.7910  146.5640 C   0  0  0  0  0  3  0  0  0  0  0  0
  197.5470  173.0950  140.3540 C   0  0  0  0  0  3  0  0  0  0  0  0
  194.2300  171.5370  142.1260 N   0  0  0  0  0  0  0  0  0  0  0  0
  193.2040  175.4930  144.6860 C   0  0  0  0  0  0  0  0  0  0  0  0
  188.3530  175.1390  147.1680 O   0  0  0  0  0  0  0  0  0  0  0  0
  197.0480  173.6180  141.6390 C   0  0  0  0  0  0  0  0  0  0  0  0
  195.4840  176.6360  144.5490 C   0  0  0  0  0  2  0  0  0  0  0  0
  196.7900  172.2790  139.6070 C   0  0  0  0  0  0  0  0  0  0  0  0
  195.1270  172.1970  141.4580 C   0  0  0  0  0  0  0  0  0  0  0  0
  196.2190  175.4040  144.0320 C   0  0  0  0  0  2  0  0  0  0  0  0
  191.8260  175.8230  142.3960 C   0  0  0  0  0  2  0  0  0  0  0  0
  191.2100  172.6200  141.9450 C   0  0  1  0  0  3  0  0  0  0  0  0
  190.6410  174.9130  142.0220 C   0  0  2  0  0  3  0  0  0  0  0  0
  192.0580  175.2110  145.4170 C   0  0  0  0  0  3  0  0  0  0  0  0
  190.6040  175.5750  147.3160 O   0  0  0  0  0  0  0  0  0  0  0  0
  192.8370  176.5470  147.2730 C   0  0  0  0  0  0  0  0  0  0  0  0
  197.2620  175.7720  142.9810 C   0  0  1  0  0  3  0  0  0  0  0  0
  197.3190  171.7960  138.3060 C   0  0  0  0  0  1  0  0  0  0  0  0
  191.8430  175.7560  146.6850 C   0  0  0  0  0  0  0  0  0  0  0  0
  188.3070  175.6280  144.3510 C   0  0  2  0  0  3  0  0  0  0  0  0
  194.2240  176.2710  145.2730 C   0  0  0  0  0  0  0  0  0  0  0  0
  195.9370  173.1620  142.1430 N   0  0  0  0  0  0  0  0  0  0  0  0
  190.0650  174.2760  143.2180 N   0  0  1  0  0  0  0  0  0  0  0  0
  189.4120  175.4800  146.5860 C   0  0  0  0  0  0  0  0  0  0  0  0
  192.4370  170.9360  140.5680 C   0  0  1  0  0  3  0  0  0  0  0  0
  191.1160  171.2630  141.2590 C   0  0  0  0  0  2  0  0  0  0  0  0
  195.3740  171.9290  139.9960 C   0  0  0  0  0  2  0  0  0  0  0  0
  197.8280  174.5780  142.3570 N   0  0  0  0  0  2  0  0  0  0  0  0
  193.3980  170.5910  141.5620 O   0  0  0  0  0  0  0  0  0  0  0  0
  191.0590  173.8260  141.0420 C   0  0  2  0  0  3  0  0  0  0  0  0
  188.6340  174.5800  143.2730 C   0  0  0  0  0  2  0  0  0  0  0  0
  196.7090  176.5920  141.9890 O   0  0  0  0  0  1  0  0  0  0  0  0
  193.4500  168.8380  139.5960 C   0  0  0  0  0  1  0  0  0  0  0  0
  192.2380  169.7630  139.6030 C   0  0  2  0  0  3  0  0  0  0  0  0
  192.5580  173.2570  136.1330 N   0  0  0  0  0  1  0  0  0  0  0  0
  191.2510  169.4390  137.2920 C   0  0  0  0  0  3  0  0  0  0  0  0
  192.1420  171.9500  136.5190 C   0  0  0  0  0  0  0  0  0  0  0  0
  192.3760  171.5090  137.8250 C   0  0  0  0  0  3  0  0  0  0  0  0
  191.0060  169.9260  136.0090 C   0  0  0  0  0  3  0  0  0  0  0  0
  191.9410  170.2410  138.2120 C   0  0  0  0  0  0  0  0  0  0  0  0
  191.4540  171.1590  135.6490 N   0  0  0  0  0  0  0  0  0  0  0  0
  187.9740  176.9480  143.6560 C   0  0  0  0  0  2  0  0  0  0  0  0
  186.9990  177.8170  144.4510 C   0  0  1  0  0  0  0  0  0  0  0  0
  185.5930  177.4110  144.3650 C   0  0  2  0  0  3  0  0  0  0  0  0
  187.5030  178.4820  145.7310 C   0  0  0  0  0  1  0  0  0  0  0  0
  185.9970  178.9310  143.3810 P   0  0  1  0  0  0  0  0  0  0  0  0
  185.2640  180.3340  143.9930 O   0  0  0  0  0  1  0  0  0  0  0  0
  185.8400  178.6520  141.9020 O   0  0  0  0  0  0  0  0  0  0  0  0
  184.7410  177.7940  145.5700 C   0  0  0  0  0  2  0  0  0  0  0  0
  184.8200  176.7140  146.6310 C   0  0  0  0  0  1  0  0  0  0  0  0
  192.6060  177.1190  148.5320 O   0  0  0  0  0  0  0  0  0  0  0  0
  191.3290  177.5730  148.9600 C   0  0  0  0  0  2  0  0  0  0  0  0
  191.4610  178.3110  150.2850 C   0  0  0  0  0  2  0  0  0  0  0  0
  191.8510  177.3400  151.3820 C   0  0  0  0  0  2  0  0  0  0  0  0
  191.5180  176.7710  153.7630 C   0  0  0  0  0  1  0  0  0  0  0  0
  191.2160  177.7850  152.6830 C   0  0  0  0  0  2  0  0  0  0  0  0
  2 28  1  0  0  0  0
  3  8  1  0  0  0  0
  5 20  1  0  0  0  0
  6 10  1  0  0  0  0
  8 25  1  0  0  0  0
  8 18  2  0  0  0  0
 10 26  2  0  0  0  0
 10 32  1  0  0  0  0
 11 25  1  0  0  0  0
 12 31  1  0  0  0  0
 12  6  2  0  0  0  0
 13  7  2  0  0  0  0
 13 26  1  0  0  0  0
 14 11  1  0  0  0  0
 15  3  1  0  0  0  0
 16 30  1  6  0  0  0
 16  1  1  0  0  0  0
 17 15  1  1  0  0  0
 17 27  1  0  0  0  0
 18 23  1  0  0  0  0
 20 55  1  0  0  0  0
 21 36  1  6  0  0  0
 21 14  1  0  0  0  0
 22 12  1  0  0  0  0
 23 20  2  0  0  0  0
 23 19  1  0  0  0  0
 24 46  1  6  0  0  0
 24  2  1  0  0  0  0
 25  5  2  0  0  0  0
 27  1  1  6  0  0  0
 27 35  1  0  0  0  0
 28  9  2  0  0  0  0
 28 19  1  0  0  0  0
 29 38  1  6  0  0  0
 29 30  1  0  0  0  0
 29 33  1  0  0  0  0
 31 13  1  0  0  0  0
 32 21  1  0  0  0  0
 33  7  1  0  0  0  0
 34  4  1  6  0  0  0
 34 16  1  0  0  0  0
 34 17  1  0  0  0  0
 35 24  1  0  0  0  0
 38 37  1  6  0  0  0
 39 41  1  0  0  0  0
 40 44  1  0  0  0  0
 41 42  1  0  0  0  0
 42 44  2  0  0  0  0
 43 40  2  0  0  0  0
 44 38  1  0  0  0  0
 45 43  1  0  0  0  0
 45 41  2  0  0  0  0
 46 47  1  0  0  0  0
 47 49  1  1  0  0  0
 48 47  1  0  0  0  0
 48 53  1  1  0  0  0
 50 52  2  6  0  0  0
 50 51  1  0  0  0  0
 50 48  1  0  0  0  0
 50 47  1  0  0  0  0
 53 54  1  0  0  0  0
 55 56  1  0  0  0  0
 56 57  1  0  0  0  0
 57 58  1  0  0  0  0
 58 60  1  0  0  0  0
 60 59  1  0  0  0  0
M  END
>  <MODEL>
2

>  <REMARK>
 VINA RESULT:      -7.7      1.618      1.818
  Name = 
  10 active torsions:
  status: ('A' for Active; 'I' for Inactive)
    1  A    between atoms: C_4  and  C_51
    2  A    between atoms: C_6  and  C_24
    3  A    between atoms: C_9  and  C_34
    4  A    between atoms: C_9  and  C_39
    5  A    between atoms: C_30  and  C_45
    6  A    between atoms: C_30  and  C_48
    7  A    between atoms: C_32  and  O_59
    8  A    between atoms: C_34  and  C_52
    9  A    between atoms: C_40  and  C_51
   10  A    between atoms: C_52  and  O_59
                            x       y       z     vdW  Elec       q    Type
                         _______ _______ _______ _____ _____    ______ ____

>  <TORSDO>
F 10

$$$$
=
 OpenBabel11072408533D

 60 66  0  0  1  0  0  0  0  0999 V2000
  189.6970  174.6470  139.8620 C   0  0  0  0  0  2  0  0  0  0  0  0
  192.8250  172.6600  139.1330 O   0  0  0  0  0  0  0  0  0  0  0  0
  191.5720  174.5780  143.0710 S   0  0  0  0  0  0  0  0  0  0  0  0
  187.6270  172.8410  141.3520 C   0  0  0  0  0  1  0  0  0  0  0  0
  195.6580  174.6640  142.6010 C   0  0  0  0  0  3  0  0  0  0  0  0
  189.6370  177.2360  147.2610 C   0  0  0  0  0  3  0  0  0  0  0  0
  189.3760  177.4060  143.2030 N   0  0  0  0  0  0  0  0  0  0  0  0
  193.2380  174.6320  142.4010 C   0  0  0  0  0  0  0  0  0  0  0  0
  193.7710  173.3180  137.1280 O   0  0  0  0  0  0  0  0  0  0  0  0
  190.8180  177.0110  146.4080 C   0  0  0  0  0  0  0  0  0  0  0  0
  194.3310  174.8290  144.7010 C   0  0  0  0  0  2  0  0  0  0  0  0
  188.4040  177.2450  146.7360 C   0  0  0  0  0  0  0  0  0  0  0  0
  189.4180  177.1060  144.4660 C   0  0  0  0  0  0  0  0  0  0  0  0
  193.4670  175.9990  145.1590 C   0  0  0  0  0  2  0  0  0  0  0  0
  191.1860  172.8900  142.4610 C   0  0  0  0  0  2  0  0  0  0  0  0
  188.9870  174.9640  141.1520 C   0  0  1  0  0  3  0  0  0  0  0  0
  190.0920  172.8850  141.3760 C   0  0  2  0  0  3  0  0  0  0  0  0
  193.3780  174.5290  141.0250 C   0  0  0  0  0  3  0  0  0  0  0  0
  194.7190  174.1580  139.0440 O   0  0  0  0  0  0  0  0  0  0  0  0
  195.7870  174.4990  141.2080 C   0  0  0  0  0  0  0  0  0  0  0  0
  193.0850  175.8720  146.6310 C   0  0  1  0  0  3  0  0  0  0  0  0
  187.2390  177.4480  147.6340 C   0  0  0  0  0  1  0  0  0  0  0  0
  194.6330  174.4230  140.4190 C   0  0  0  0  0  0  0  0  0  0  0  0
  191.7300  171.9410  138.5810 C   0  0  2  0  0  3  0  0  0  0  0  0
  194.3920  174.7320  143.2070 C   0  0  0  0  0  0  0  0  0  0  0  0
  190.6920  176.9850  145.1130 N   0  0  0  0  0  0  0  0  0  0  0  0
  190.5760  173.5100  140.1340 N   0  0  1  0  0  0  0  0  0  0  0  0
  193.7600  173.3820  138.3820 C   0  0  0  0  0  0  0  0  0  0  0  0
  187.3210  176.4440  142.2800 C   0  0  1  0  0  3  0  0  0  0  0  0
  187.6990  175.7560  140.9700 C   0  0  0  0  0  2  0  0  0  0  0  0
  188.1590  176.9420  145.2770 C   0  0  0  0  0  2  0  0  0  0  0  0
  192.1090  176.8900  147.0130 N   0  0  0  0  0  2  0  0  0  0  0  0
  188.2040  177.5430  142.4880 O   0  0  0  0  0  0  0  0  0  0  0  0
  188.8430  173.6220  141.8390 C   0  0  2  0  0  3  0  0  0  0  0  0
  190.3970  172.5660  139.0290 C   0  0  0  0  0  2  0  0  0  0  0  0
  192.5600  174.6030  146.9080 O   0  0  0  0  0  1  0  0  0  0  0  0
  185.5750  177.5650  140.8430 C   0  0  0  0  0  1  0  0  0  0  0  0
  185.8740  176.9420  142.2020 C   0  0  2  0  0  3  0  0  0  0  0  0
  184.0240  177.8870  146.6780 N   0  0  0  0  0  1  0  0  0  0  0  0
  185.9110  179.2730  143.1920 C   0  0  0  0  0  3  0  0  0  0  0  0
  184.6920  178.3490  145.5070 C   0  0  0  0  0  0  0  0  0  0  0  0
  184.9440  177.4570  144.4590 C   0  0  0  0  0  3  0  0  0  0  0  0
  185.6130  180.1390  144.2440 C   0  0  0  0  0  3  0  0  0  0  0  0
  185.5700  177.9180  143.3000 C   0  0  0  0  0  0  0  0  0  0  0  0
  185.0170  179.6650  145.3720 N   0  0  0  0  0  0  0  0  0  0  0  0
  191.7640  170.4880  139.0560 C   0  0  0  0  0  2  0  0  0  0  0  0
  192.3940  169.5380  138.0370 C   0  0  1  0  0  0  0  0  0  0  0  0
  193.1100  170.1920  136.9380 C   0  0  2  0  0  3  0  0  0  0  0  0
  192.8690  168.1690  138.5220 C   0  0  0  0  0  1  0  0  0  0  0  0
  191.4700  169.4810  136.4460 P   0  0  1  0  0  0  0  0  0  0  0  0
  191.6060  168.1670  135.3810 O   0  0  0  0  0  0  0  0  0  0  0  0
  190.5140  170.5910  136.0630 O   0  0  0  0  0  1  0  0  0  0  0  0
  194.2320  169.3640  136.3220 C   0  0  0  0  0  2  0  0  0  0  0  0
  195.5780  169.8640  136.8080 C   0  0  0  0  0  1  0  0  0  0  0  0
  197.0440  174.3610  140.6020 O   0  0  0  0  0  0  0  0  0  0  0  0
  197.8490  173.1970  140.7320 C   0  0  0  0  0  2  0  0  0  0  0  0
  197.2270  172.0490  139.9500 C   0  0  0  0  0  2  0  0  0  0  0  0
  196.7410  170.9750  140.9040 C   0  0  0  0  0  2  0  0  0  0  0  0
  194.4120  170.9640  141.7270 C   0  0  0  0  0  1  0  0  0  0  0  0
  195.3100  170.6210  140.5590 C   0  0  0  0  0  2  0  0  0  0  0  0
  1 27  1  0  0  0  0
  5 25  1  0  0  0  0
  7 13  2  0  0  0  0
  8  3  1  0  0  0  0
  8 25  2  0  0  0  0
  9 28  2  0  0  0  0
 10 32  1  0  0  0  0
 10  6  1  0  0  0  0
 11 14  1  0  0  0  0
 12  6  2  0  0  0  0
 12 22  1  0  0  0  0
 13 26  1  0  0  0  0
 13 31  1  0  0  0  0
 14 21  1  0  0  0  0
 15  3  1  0  0  0  0
 16  1  1  6  0  0  0
 16 34  1  0  0  0  0
 17 34  1  0  0  0  0
 17 15  1  1  0  0  0
 18  8  1  0  0  0  0
 19 23  1  0  0  0  0
 20  5  2  0  0  0  0
 21 36  1  6  0  0  0
 21 32  1  0  0  0  0
 23 18  2  0  0  0  0
 23 20  1  0  0  0  0
 24 35  1  0  0  0  0
 24 46  1  1  0  0  0
 24  2  1  0  0  0  0
 25 11  1  0  0  0  0
 26 10  2  0  0  0  0
 27 35  1  6  0  0  0
 27 17  1  0  0  0  0
 28 19  1  0  0  0  0
 28  2  1  0  0  0  0
 29 38  1  6  0  0  0
 29 33  1  0  0  0  0
 30 16  1  0  0  0  0
 30 29  1  0  0  0  0
 31 12  1  0  0  0  0
 33  7  1  0  0  0  0
 34  4  1  6  0  0  0
 38 37  1  6  0  0  0
 38 44  1  0  0  0  0
 40 44  2  0  0  0  0
 40 43  1  0  0  0  0
 41 39  1  0  0  0  0
 42 41  2  0  0  0  0
 43 45  2  0  0  0  0
 44 42  1  0  0  0  0
 45 41  1  0  0  0  0
 47 49  1  1  0  0  0
 47 46  1  0  0  0  0
 48 53  1  6  0  0  0
 48 47  1  0  0  0  0
 50 51  2  6  0  0  0
 50 48  1  0  0  0  0
 50 47  1  0  0  0  0
 52 50  1  0  0  0  0
 53 54  1  0  0  0  0
 55 56  1  0  0  0  0
 55 20  1  0  0  0  0
 57 56  1  0  0  0  0
 57 58  1  0  0  0  0
 60 58  1  0  0  0  0
 60 59  1  0  0  0  0
M  END
>  <MODEL>
3

>  <REMARK>
 VINA RESULT:      -7.7      3.381      9.696
  Name = 
  10 active torsions:
  status: ('A' for Active; 'I' for Inactive)
    1  A    between atoms: C_4  and  C_51
    2  A    between atoms: C_6  and  C_24
    3  A    between atoms: C_9  and  C_34
    4  A    between atoms: C_9  and  C_39
    5  A    between atoms: C_30  and  C_45
    6  A    between atoms: C_30  and  C_48
    7  A    between atoms: C_32  and  O_59
    8  A    between atoms: C_34  and  C_52
    9  A    between atoms: C_40  and  C_51
   10  A    between atoms: C_52  and  O_59
                            x       y       z     vdW  Elec       q    Type
                         _______ _______ _______ _____ _____    ______ ____

>  <TORSDO>
F 10

$$$$
=
 OpenBabel11072408533D

 60 66  0  0  1  0  0  0  0  0999 V2000
  195.1740  174.8850  141.1620 C   0  0  0  0  0  2  0  0  0  0  0  0
  193.7580  175.2840  144.6410 O   0  0  0  0  0  0  0  0  0  0  0  0
  191.6480  173.7330  140.9130 S   0  0  0  0  0  0  0  0  0  0  0  0
  195.8980  171.8870  140.6580 C   0  0  0  0  0  1  0  0  0  0  0  0
  189.0560  175.8050  143.3440 C   0  0  0  0  0  3  0  0  0  0  0  0
  189.7350  172.2500  136.1680 C   0  0  0  0  0  3  0  0  0  0  0  0
  192.6820  174.6590  137.6090 N   0  0  0  0  0  0  0  0  0  0  0  0
  190.9170  174.8740  142.0920 C   0  0  0  0  0  0  0  0  0  0  0  0
  194.3630  177.3240  145.5480 O   0  0  0  0  0  0  0  0  0  0  0  0
  189.5170  173.1020  137.3510 C   0  0  0  0  0  0  0  0  0  0  0  0
  188.5300  174.1100  141.5960 C   0  0  0  0  0  2  0  0  0  0  0  0
  190.9710  172.0440  135.6910 C   0  0  0  0  0  0  0  0  0  0  0  0
  191.8310  173.7230  137.3140 C   0  0  0  0  0  0  0  0  0  0  0  0
  188.6490  174.2740  140.0850 C   0  0  0  0  0  2  0  0  0  0  0  0
  192.6010  172.7740  142.1550 C   0  0  0  0  0  2  0  0  0  0  0  0
  194.7420  174.0360  139.9940 C   0  0  1  0  0  3  0  0  0  0  0  0
  194.1240  172.9500  142.0010 C   0  0  2  0  0  3  0  0  0  0  0  0
  191.7790  175.6780  142.8240 C   0  0  0  0  0  3  0  0  0  0  0  0
  192.2430  177.1660  144.6740 O   0  0  0  0  0  0  0  0  0  0  0  0
  189.9470  176.5710  144.1200 C   0  0  0  0  0  0  0  0  0  0  0  0
  187.9290  173.1530  139.3410 C   0  0  1  0  0  3  0  0  0  0  0  0
  191.1500  171.1570  134.5130 C   0  0  0  0  0  1  0  0  0  0  0  0
  191.3190  176.4970  143.8580 C   0  0  0  0  0  0  0  0  0  0  0  0
  195.0260  174.6530  144.7700 C   0  0  2  0  0  3  0  0  0  0  0  0
  189.5280  174.9540  142.3290 C   0  0  0  0  0  0  0  0  0  0  0  0
  190.5000  173.7990  137.8440 N   0  0  0  0  0  0  0  0  0  0  0  0
  194.5380  174.3180  142.3500 N   0  0  1  0  0  0  0  0  0  0  0  0
  193.4990  176.6200  144.9670 C   0  0  0  0  0  0  0  0  0  0  0  0
  194.9240  173.6750  137.5290 C   0  0  1  0  0  3  0  0  0  0  0  0
  195.6610  174.1400  138.7830 C   0  0  0  0  0  2  0  0  0  0  0  0
  192.1930  172.5970  136.3830 C   0  0  0  0  0  2  0  0  0  0  0  0
  188.2030  173.2090  137.9070 N   0  0  0  0  0  2  0  0  0  0  0  0
  193.9850  174.6790  137.1550 O   0  0  0  0  0  0  0  0  0  0  0  0
  194.5800  172.6490  140.5800 C   0  0  2  0  0  3  0  0  0  0  0  0
  195.5690  174.2500  143.3880 C   0  0  0  0  0  2  0  0  0  0  0  0
  188.3070  171.8970  139.8330 O   0  0  0  0  0  1  0  0  0  0  0  0
  195.4060  173.9990  135.0730 C   0  0  0  0  0  1  0  0  0  0  0  0
  195.9290  173.4480  136.3950 C   0  0  2  0  0  3  0  0  0  0  0  0
  194.7950  168.9300  134.7660 N   0  0  0  0  0  1  0  0  0  0  0  0
  197.4770  171.4760  136.7550 C   0  0  0  0  0  3  0  0  0  0  0  0
  195.7170  169.8030  135.4140 C   0  0  0  0  0  0  0  0  0  0  0  0
  195.3850  171.1490  135.5900 C   0  0  0  0  0  3  0  0  0  0  0  0
  197.7570  170.1200  136.5900 C   0  0  0  0  0  3  0  0  0  0  0  0
  196.2760  171.9960  136.2520 C   0  0  0  0  0  0  0  0  0  0  0  0
  196.8820  169.3170  135.9270 N   0  0  0  0  0  0  0  0  0  0  0  0
  194.8990  173.3920  145.6240 C   0  0  0  0  0  2  0  0  0  0  0  0
  196.1940  172.5820  145.6950 C   0  0  1  0  0  0  0  0  0  0  0  0
  196.3940  171.6330  144.5970 C   0  0  2  0  0  3  0  0  0  0  0  0
  197.4130  173.2260  146.3530 C   0  0  0  0  0  1  0  0  0  0  0  0
  195.9160  170.8330  146.2000 P   0  0  1  0  0  0  0  0  0  0  0  0
  197.1580  169.8890  146.8700 O   0  0  0  0  0  1  0  0  0  0  0  0
  194.5470  170.1980  146.0780 O   0  0  0  0  0  0  0  0  0  0  0  0
  197.8520  171.3160  144.2820 C   0  0  0  0  0  2  0  0  0  0  0  0
  197.9410  170.4220  143.0620 C   0  0  0  0  0  1  0  0  0  0  0  0
  189.4910  177.3690  145.1790 O   0  0  0  0  0  0  0  0  0  0  0  0
  188.6530  176.8830  146.2190 C   0  0  0  0  0  2  0  0  0  0  0  0
  187.3910  177.7290  146.3020 C   0  0  0  0  0  2  0  0  0  0  0  0
  186.1890  176.9120  145.8690 C   0  0  0  0  0  2  0  0  0  0  0  0
  185.6450  179.1720  145.0320 C   0  0  0  0  0  1  0  0  0  0  0  0
  185.4110  177.6920  144.8310 C   0  0  0  0  0  2  0  0  0  0  0  0
  2 24  1  0  0  0  0
  2 28  1  0  0  0  0
  3  8  1  0  0  0  0
  3 15  1  0  0  0  0
  5 20  1  0  0  0  0
  6 10  1  0  0  0  0
  8 25  1  0  0  0  0
  8 18  2  0  0  0  0
 10 26  2  0  0  0  0
 10 32  1  0  0  0  0
 11 25  1  0  0  0  0
 12  6  2  0  0  0  0
 12 31  1  0  0  0  0
 13  7  2  0  0  0  0
 13 26  1  0  0  0  0
 14 11  1  0  0  0  0
 16 30  1  6  0  0  0
 16 34  1  0  0  0  0
 16  1  1  0  0  0  0
 17 15  1  6  0  0  0
 17 27  1  0  0  0  0
 18 23  1  0  0  0  0
 19 28  1  0  0  0  0
 20 55  1  0  0  0  0
 21 36  1  1  0  0  0
 21 14  1  0  0  0  0
 22 12  1  0  0  0  0
 23 20  2  0  0  0  0
 23 19  1  0  0  0  0
 24 46  1  1  0  0  0
 25  5  2  0  0  0  0
 27  1  1  6  0  0  0
 27 35  1  0  0  0  0
 28  9  2  0  0  0  0
 29 38  1  6  0  0  0
 29 30  1  0  0  0  0
 31 13  1  0  0  0  0
 32 21  1  0  0  0  0
 33 29  1  0  0  0  0
 33  7  1  0  0  0  0
 34  4  1  1  0  0  0
 34 17  1  0  0  0  0
 35 24  1  0  0  0  0
 38 37  1  6  0  0  0
 39 41  1  0  0  0  0
 41 42  2  0  0  0  0
 41 45  1  0  0  0  0
 42 44  1  0  0  0  0
 43 40  1  0  0  0  0
 44 38  1  0  0  0  0
 44 40  2  0  0  0  0
 45 43  2  0  0  0  0
 46 47  1  0  0  0  0
 47 50  1  0  0  0  0
 47 49  1  1  0  0  0
 48 53  1  1  0  0  0
 48 47  1  0  0  0  0
 48 50  1  0  0  0  0
 50 52  2  1  0  0  0
 50 51  1  0  0  0  0
 54 53  1  0  0  0  0
 55 56  1  0  0  0  0
 56 57  1  0  0  0  0
 58 57  1  0  0  0  0
 60 59  1  0  0  0  0
 60 58  1  0  0  0  0
M  END
>  <MODEL>
4

>  <REMARK>
 VINA RESULT:      -7.3      3.762      8.278
  Name = 
  10 active torsions:
  status: ('A' for Active; 'I' for Inactive)
    1  A    between atoms: C_4  and  C_51
    2  A    between atoms: C_6  and  C_24
    3  A    between atoms: C_9  and  C_34
    4  A    between atoms: C_9  and  C_39
    5  A    between atoms: C_30  and  C_45
    6  A    between atoms: C_30  and  C_48
    7  A    between atoms: C_32  and  O_59
    8  A    between atoms: C_34  and  C_52
    9  A    between atoms: C_40  and  C_51
   10  A    between atoms: C_52  and  O_59
                            x       y       z     vdW  Elec       q    Type
                         _______ _______ _______ _____ _____    ______ ____

>  <TORSDO>
F 10

$$$$
=
 OpenBabel11072408533D

 60 66  0  0  1  0  0  0  0  0999 V2000
  191.5630  175.9680  143.6790 C   0  0  0  0  0  2  0  0  0  0  0  0
  187.9400  176.6410  142.8540 O   0  0  0  0  0  0  0  0  0  0  0  0
  190.4970  173.0930  141.5770 S   0  0  0  0  0  0  0  0  0  0  0  0
  191.7450  173.8620  145.9800 C   0  0  0  0  0  1  0  0  0  0  0  0
  187.7720  174.0960  138.6630 C   0  0  0  0  0  3  0  0  0  0  0  0
  194.0780  169.3760  140.2600 C   0  0  0  0  0  3  0  0  0  0  0  0
  194.0660  173.3030  141.3290 N   0  0  0  0  0  0  0  0  0  0  0  0
  189.3630  173.9680  140.4930 C   0  0  0  0  0  0  0  0  0  0  0  0
  187.6310  178.8470  142.2310 O   0  0  0  0  0  0  0  0  0  0  0  0
  193.0510  170.3040  139.7530 C   0  0  0  0  0  0  0  0  0  0  0  0
  188.9490  171.9290  139.0110 C   0  0  0  0  0  2  0  0  0  0  0  0
  194.8740  169.7270  141.2800 C   0  0  0  0  0  0  0  0  0  0  0  0
  193.9140  172.0210  141.1840 C   0  0  0  0  0  0  0  0  0  0  0  0
  190.4260  171.6320  138.7780 C   0  0  0  0  0  2  0  0  0  0  0  0
  189.4690  173.2610  143.0890 C   0  0  0  0  0  2  0  0  0  0  0  0
  192.3740  174.6980  143.6780 C   0  0  1  0  0  3  0  0  0  0  0  0
  190.1190  174.1680  144.1520 C   0  0  2  0  0  3  0  0  0  0  0  0
  189.0860  175.2950  140.7920 C   0  0  0  0  0  3  0  0  0  0  0  0
  187.7580  177.3010  140.5360 O   0  0  0  0  0  0  0  0  0  0  0  0
  187.4570  175.4230  139.0140 C   0  0  0  0  0  0  0  0  0  0  0  0
  190.7040  170.1320  138.7790 C   0  0  1  0  0  3  0  0  0  0  0  0
  195.8780  168.7520  141.7790 C   0  0  0  0  0  1  0  0  0  0  0  0
  188.1170  176.0200  140.0940 C   0  0  0  0  0  0  0  0  0  0  0  0
  188.1060  176.8740  144.2460 C   0  0  2  0  0  3  0  0  0  0  0  0
  188.7210  173.3600  139.3930 C   0  0  0  0  0  0  0  0  0  0  0  0
  193.0170  171.5350  140.1770 N   0  0  0  0  0  0  0  0  0  0  0  0
  190.1570  175.5690  143.7020 N   0  0  1  0  0  0  0  0  0  0  0  0
  187.7830  177.6470  141.8930 C   0  0  0  0  0  0  0  0  0  0  0  0
  194.6710  173.7180  143.6670 C   0  0  1  0  0  3  0  0  0  0  0  0
  193.8090  174.8820  144.1520 C   0  0  0  0  0  2  0  0  0  0  0  0
  194.7040  171.0380  142.0080 C   0  0  0  0  0  2  0  0  0  0  0  0
  192.1390  169.8600  138.7440 N   0  0  0  0  0  2  0  0  0  0  0  0
  194.9010  173.8730  142.2690 O   0  0  0  0  0  0  0  0  0  0  0  0
  191.5370  173.7200  144.4760 C   0  0  2  0  0  3  0  0  0  0  0  0
  189.4980  176.4060  144.7060 C   0  0  0  0  0  2  0  0  0  0  0  0
  190.1470  169.5170  139.9080 O   0  0  0  0  0  1  0  0  0  0  0  0
  197.1190  174.3250  143.5750 C   0  0  0  0  0  1  0  0  0  0  0  0
  196.0060  173.7160  144.4190 C   0  0  2  0  0  3  0  0  0  0  0  0
  194.9440  169.5920  146.9120 N   0  0  0  0  0  1  0  0  0  0  0  0
  197.5930  171.7420  144.4630 C   0  0  0  0  0  3  0  0  0  0  0  0
  195.8270  170.3120  146.0560 C   0  0  0  0  0  0  0  0  0  0  0  0
  195.5040  171.6170  145.6730 C   0  0  0  0  0  3  0  0  0  0  0  0
  197.8950  170.4500  144.8940 C   0  0  0  0  0  3  0  0  0  0  0  0
  196.3850  172.3330  144.8600 C   0  0  0  0  0  0  0  0  0  0  0  0
  197.0150  169.7650  145.6730 N   0  0  0  0  0  0  0  0  0  0  0  0
  187.0520  176.1000  145.0370 C   0  0  0  0  0  2  0  0  0  0  0  0
  186.0910  177.0070  145.8050 C   0  0  1  0  0  0  0  0  0  0  0  0
  186.3060  178.4440  145.6120 C   0  0  2  0  0  3  0  0  0  0  0  0
  184.6760  176.4980  146.0760 C   0  0  0  0  0  1  0  0  0  0  0  0
  186.8790  177.8150  147.2600 P   0  0  1  0  0  0  0  0  0  0  0  0
  185.9600  178.4100  148.5570 O   0  0  0  0  0  1  0  0  0  0  0  0
  188.3850  177.9240  147.3650 O   0  0  0  0  0  0  0  0  0  0  0  0
  185.0640  179.3080  145.7990 C   0  0  0  0  0  2  0  0  0  0  0  0
  184.4680  179.6650  144.4520 C   0  0  0  0  0  1  0  0  0  0  0  0
  186.4620  176.1410  138.3350 O   0  0  0  0  0  0  0  0  0  0  0  0
  186.2600  176.0580  136.9300 C   0  0  0  0  0  2  0  0  0  0  0  0
  187.4000  176.7560  136.2030 C   0  0  0  0  0  2  0  0  0  0  0  0
  187.8420  175.9250  135.0140 C   0  0  0  0  0  2  0  0  0  0  0  0
  189.7070  174.3880  135.5270 C   0  0  0  0  0  1  0  0  0  0  0  0
  189.3490  175.7770  135.0490 C   0  0  0  0  0  2  0  0  0  0  0  0
  2 24  1  0  0  0  0
  3 15  1  0  0  0  0
  5 20  2  0  0  0  0
  5 25  1  0  0  0  0
  6 12  2  0  0  0  0
  7 33  1  0  0  0  0
  8 18  1  0  0  0  0
  8  3  1  0  0  0  0
 10 26  2  0  0  0  0
 10  6  1  0  0  0  0
 11 25  1  0  0  0  0
 12 22  1  0  0  0  0
 12 31  1  0  0  0  0
 13  7  2  0  0  0  0
 13 31  1  0  0  0  0
 14 21  1  0  0  0  0
 14 11  1  0  0  0  0
 16  1  1  1  0  0  0
 16 30  1  0  0  0  0
 16 34  1  0  0  0  0
 17 15  1  6  0  0  0
 17 34  1  0  0  0  0
 19 28  1  0  0  0  0
 20 23  1  0  0  0  0
 21 36  1  1  0  0  0
 23 19  1  0  0  0  0
 23 18  2  0  0  0  0
 24 35  1  0  0  0  0
 24 46  1  1  0  0  0
 25  8  2  0  0  0  0
 26 13  1  0  0  0  0
 27  1  1  1  0  0  0
 27 17  1  0  0  0  0
 27 35  1  0  0  0  0
 28  9  2  0  0  0  0
 28  2  1  0  0  0  0
 29 30  1  0  0  0  0
 29 38  1  1  0  0  0
 32 21  1  0  0  0  0
 32 10  1  0  0  0  0
 33 29  1  0  0  0  0
 34  4  1  1  0  0  0
 38 37  1  6  0  0  0
 38 44  1  0  0  0  0
 40 44  2  0  0  0  0
 40 43  1  0  0  0  0
 41 39  1  0  0  0  0
 42 41  2  0  0  0  0
 43 45  2  0  0  0  0
 44 42  1  0  0  0  0
 45 41  1  0  0  0  0
 46 47  1  0  0  0  0
 47 49  1  1  0  0  0
 47 50  1  0  0  0  0
 48 53  1  1  0  0  0
 48 47  1  0  0  0  0
 48 50  1  0  0  0  0
 50 52  2  1  0  0  0
 50 51  1  0  0  0  0
 54 53  1  0  0  0  0
 55 20  1  0  0  0  0
 56 55  1  0  0  0  0
 57 56  1  0  0  0  0
 58 60  1  0  0  0  0
 58 57  1  0  0  0  0
 60 59  1  0  0  0  0
M  END
>  <MODEL>
5

>  <REMARK>
 VINA RESULT:      -6.4      3.118      8.020
  Name = 
  10 active torsions:
  status: ('A' for Active; 'I' for Inactive)
    1  A    between atoms: C_4  and  C_51
    2  A    between atoms: C_6  and  C_24
    3  A    between atoms: C_9  and  C_34
    4  A    between atoms: C_9  and  C_39
    5  A    between atoms: C_30  and  C_45
    6  A    between atoms: C_30  and  C_48
    7  A    between atoms: C_32  and  O_59
    8  A    between atoms: C_34  and  C_52
    9  A    between atoms: C_40  and  C_51
   10  A    between atoms: C_52  and  O_59
                            x       y       z     vdW  Elec       q    Type
                         _______ _______ _______ _____ _____    ______ ____

>  <TORSDO>
F 10

$$$$
=
 OpenBabel11072408533D

 60 66  0  0  1  0  0  0  0  0999 V2000
  189.2520  174.5220  139.7270 C   0  0  0  0  0  2  0  0  0  0  0  0
  192.1970  172.5380  138.4410 O   0  0  0  0  0  0  0  0  0  0  0  0
  191.6910  174.4790  142.5320 S   0  0  0  0  0  0  0  0  0  0  0  0
  187.5010  172.7210  141.5870 C   0  0  0  0  0  1  0  0  0  0  0  0
  195.6170  174.5710  141.3100 C   0  0  0  0  0  3  0  0  0  0  0  0
  190.5580  177.1600  146.9930 C   0  0  0  0  0  3  0  0  0  0  0  0
  189.5470  177.3020  143.0530 N   0  0  0  0  0  0  0  0  0  0  0  0
  193.2030  174.5320  141.5640 C   0  0  0  0  0  0  0  0  0  0  0  0
  192.7510  173.1850  136.2910 O   0  0  0  0  0  0  0  0  0  0  0  0
  191.5610  176.9310  145.9370 C   0  0  0  0  0  0  0  0  0  0  0  0
  194.7040  174.7470  143.6200 C   0  0  0  0  0  2  0  0  0  0  0  0
  189.2490  177.1620  146.7050 C   0  0  0  0  0  0  0  0  0  0  0  0
  189.8240  177.0110  144.2880 C   0  0  0  0  0  0  0  0  0  0  0  0
  193.9360  175.9180  144.2230 C   0  0  0  0  0  2  0  0  0  0  0  0
  191.2040  172.7860  142.0140 C   0  0  0  0  0  2  0  0  0  0  0  0
  188.7930  174.8460  141.1250 C   0  0  1  0  0  3  0  0  0  0  0  0
  189.9280  172.7710  141.1520 C   0  0  2  0  0  3  0  0  0  0  0  0
  193.0850  174.4200  140.1860 C   0  0  0  0  0  3  0  0  0  0  0  0
  194.0360  174.0400  137.9930 O   0  0  0  0  0  0  0  0  0  0  0  0
  195.4860  174.3970  139.9190 C   0  0  0  0  0  0  0  0  0  0  0  0
  193.8340  175.8000  145.7410 C   0  0  1  0  0  3  0  0  0  0  0  0
  188.2710  177.3690  147.8040 C   0  0  0  0  0  1  0  0  0  0  0  0
  194.2060  174.3140  139.3580 C   0  0  0  0  0  0  0  0  0  0  0  0
  191.0210  171.8130  138.1070 C   0  0  2  0  0  3  0  0  0  0  0  0
  194.4860  174.6400  142.1410 C   0  0  0  0  0  0  0  0  0  0  0  0
  191.1970  176.8970  144.6870 N   0  0  0  0  0  0  0  0  0  0  0  0
  190.1700  173.3900  139.8380 N   0  0  1  0  0  0  0  0  0  0  0  0
  192.9730  173.2570  137.5250 C   0  0  0  0  0  0  0  0  0  0  0  0
  187.3600  176.3290  142.5330 C   0  0  1  0  0  3  0  0  0  0  0  0
  187.4910  175.6340  141.1810 C   0  0  0  0  0  2  0  0  0  0  0  0
  188.7390  176.8490  145.3200 C   0  0  0  0  0  2  0  0  0  0  0  0
  192.9420  176.8170  146.2920 N   0  0  0  0  0  2  0  0  0  0  0  0
  188.2620  177.4320  142.5670 O   0  0  0  0  0  0  0  0  0  0  0  0
  188.7830  173.5080  141.8340 C   0  0  2  0  0  3  0  0  0  0  0  0
  189.7920  172.4380  138.7910 C   0  0  0  0  0  2  0  0  0  0  0  0
  193.3740  174.5310  146.1180 O   0  0  0  0  0  1  0  0  0  0  0  0
  185.4680  177.6740  141.5410 C   0  0  0  0  0  1  0  0  0  0  0  0
  185.9220  176.8240  142.7230 C   0  0  2  0  0  3  0  0  0  0  0  0
  184.9700  176.8920  147.5640 N   0  0  0  0  0  1  0  0  0  0  0  0
  185.9610  178.9770  144.0560 C   0  0  0  0  0  3  0  0  0  0  0  0
  185.3360  177.5920  146.3780 C   0  0  0  0  0  0  0  0  0  0  0  0
  185.4410  176.8960  145.1700 C   0  0  0  0  0  3  0  0  0  0  0  0
  185.8140  179.6410  145.2740 C   0  0  0  0  0  3  0  0  0  0  0  0
  185.7690  177.5890  144.0040 C   0  0  0  0  0  0  0  0  0  0  0  0
  185.5100  178.9430  146.4010 N   0  0  0  0  0  0  0  0  0  0  0  0
  191.1480  170.3630  138.5760 C   0  0  0  0  0  2  0  0  0  0  0  0
  192.0100  169.5060  137.6490 C   0  0  1  0  0  0  0  0  0  0  0  0
  192.8270  170.2560  136.6910 C   0  0  2  0  0  3  0  0  0  0  0  0
  192.5230  168.1660  138.1740 C   0  0  0  0  0  1  0  0  0  0  0  0
  191.3530  169.4260  135.9310 P   0  0  1  0  0  0  0  0  0  0  0  0
  191.7690  168.1660  134.8740 O   0  0  0  0  0  0  0  0  0  0  0  0
  190.3730  170.4640  135.4260 O   0  0  0  0  0  1  0  0  0  0  0  0
  194.1000  169.5470  136.2420 C   0  0  0  0  0  2  0  0  0  0  0  0
  194.9290  170.4660  135.3660 C   0  0  0  0  0  1  0  0  0  0  0  0
  196.6090  174.2580  139.0910 O   0  0  0  0  0  0  0  0  0  0  0  0
  197.6430  175.2300  139.0070 C   0  0  0  0  0  2  0  0  0  0  0  0
  197.9410  175.5420  137.5480 C   0  0  0  0  0  2  0  0  0  0  0  0
  197.5690  174.3570  136.6780 C   0  0  0  0  0  2  0  0  0  0  0  0
  195.8820  173.9330  134.9240 C   0  0  0  0  0  1  0  0  0  0  0  0
  196.9840  174.8640  135.3770 C   0  0  0  0  0  2  0  0  0  0  0  0
  1 27  1  0  0  0  0
  5 25  1  0  0  0  0
  7 13  2  0  0  0  0
  8 25  2  0  0  0  0
  8  3  1  0  0  0  0
  9 28  2  0  0  0  0
 10 32  1  0  0  0  0
 10  6  1  0  0  0  0
 11 14  1  0  0  0  0
 12  6  2  0  0  0  0
 12 22  1  0  0  0  0
 13 26  1  0  0  0  0
 13 31  1  0  0  0  0
 14 21  1  0  0  0  0
 15  3  1  0  0  0  0
 16  1  1  6  0  0  0
 16 30  1  0  0  0  0
 16 34  1  0  0  0  0
 17 34  1  0  0  0  0
 17 15  1  1  0  0  0
 18  8  1  0  0  0  0
 19 23  1  0  0  0  0
 20  5  2  0  0  0  0
 21 36  1  6  0  0  0
 21 32  1  0  0  0  0
 23 20  1  0  0  0  0
 23 18  2  0  0  0  0
 24  2  1  0  0  0  0
 24 46  1  1  0  0  0
 24 35  1  0  0  0  0
 25 11  1  0  0  0  0
 26 10  2  0  0  0  0
 27 35  1  6  0  0  0
 27 17  1  0  0  0  0
 28 19  1  0  0  0  0
 28  2  1  0  0  0  0
 29 33  1  0  0  0  0
 29 38  1  6  0  0  0
 30 29  1  0  0  0  0
 31 12  1  0  0  0  0
 33  7  1  0  0  0  0
 34  4  1  6  0  0  0
 38 37  1  6  0  0  0
 38 44  1  0  0  0  0
 40 43  1  0  0  0  0
 41 45  1  0  0  0  0
 41 39  1  0  0  0  0
 42 41  2  0  0  0  0
 43 45  2  0  0  0  0
 44 40  2  0  0  0  0
 44 42  1  0  0  0  0
 47 49  1  1  0  0  0
 47 46  1  0  0  0  0
 48 53  1  6  0  0  0
 48 47  1  0  0  0  0
 50 51  2  6  0  0  0
 50 48  1  0  0  0  0
 50 47  1  0  0  0  0
 52 50  1  0  0  0  0
 54 53  1  0  0  0  0
 55 20  1  0  0  0  0
 56 55  1  0  0  0  0
 57 56  1  0  0  0  0
 58 57  1  0  0  0  0
 59 60  1  0  0  0  0
 60 58  1  0  0  0  0
M  END
>  <MODEL>
6

>  <REMARK>
 VINA RESULT:      -6.2      3.920     10.134
  Name = 
  10 active torsions:
  status: ('A' for Active; 'I' for Inactive)
    1  A    between atoms: C_4  and  C_51
    2  A    between atoms: C_6  and  C_24
    3  A    between atoms: C_9  and  C_34
    4  A    between atoms: C_9  and  C_39
    5  A    between atoms: C_30  and  C_45
    6  A    between atoms: C_30  and  C_48
    7  A    between atoms: C_32  and  O_59
    8  A    between atoms: C_34  and  C_52
    9  A    between atoms: C_40  and  C_51
   10  A    between atoms: C_52  and  O_59
                            x       y       z     vdW  Elec       q    Type
                         _______ _______ _______ _____ _____    ______ ____

>  <TORSDO>
F 10

$$$$
=
 OpenBabel11072408533D

 60 66  0  0  1  0  0  0  0  0999 V2000
  194.3420  176.0590  141.2930 C   0  0  0  0  0  2  0  0  0  0  0  0
  191.6310  176.8000  143.8160 O   0  0  0  0  0  0  0  0  0  0  0  0
  191.7000  173.5230  140.6520 S   0  0  0  0  0  0  0  0  0  0  0  0
  196.0500  173.6290  142.2660 C   0  0  0  0  0  1  0  0  0  0  0  0
  187.8810  174.9210  141.2720 C   0  0  0  0  0  3  0  0  0  0  0  0
  192.3180  170.0980  136.6190 C   0  0  0  0  0  3  0  0  0  0  0  0
  193.6210  173.8160  137.6410 N   0  0  0  0  0  0  0  0  0  0  0  0
  190.2670  174.5380  141.0300 C   0  0  0  0  0  0  0  0  0  0  0  0
  191.2070  179.0710  143.9270 O   0  0  0  0  0  0  0  0  0  0  0  0
  191.4160  171.0790  137.2500 C   0  0  0  0  0  0  0  0  0  0  0  0
  188.6010  172.7430  140.3030 C   0  0  0  0  0  2  0  0  0  0  0  0
  193.6430  170.3000  136.6000 C   0  0  0  0  0  0  0  0  0  0  0  0
  193.2670  172.5700  137.5510 C   0  0  0  0  0  0  0  0  0  0  0  0
  189.2470  172.5050  138.9430 C   0  0  0  0  0  2  0  0  0  0  0  0
  192.3270  173.4450  142.3760 C   0  0  0  0  0  2  0  0  0  0  0  0
  194.6700  174.8140  140.5090 C   0  0  1  0  0  3  0  0  0  0  0  0
  193.6650  174.1880  142.5560 C   0  0  2  0  0  3  0  0  0  0  0  0
  190.4970  175.7990  141.5600 C   0  0  0  0  0  3  0  0  0  0  0  0
  189.7440  177.8030  142.6880 O   0  0  0  0  0  0  0  0  0  0  0  0
  188.1300  176.1750  141.8630 C   0  0  0  0  0  0  0  0  0  0  0  0
  189.2380  171.0260  138.5690 C   0  0  1  0  0  3  0  0  0  0  0  0
  194.5190  169.2740  135.9780 C   0  0  0  0  0  1  0  0  0  0  0  0
  189.4530  176.6090  142.0140 C   0  0  0  0  0  0  0  0  0  0  0  0
  192.8720  176.8210  144.5100 C   0  0  2  0  0  3  0  0  0  0  0  0
  188.9380  174.0960  140.8520 C   0  0  0  0  0  0  0  0  0  0  0  0
  191.8770  172.2300  137.6460 N   0  0  0  0  0  0  0  0  0  0  0  0
  193.4890  175.6410  142.4040 N   0  0  1  0  0  0  0  0  0  0  0  0
  190.8860  177.9380  143.4880 C   0  0  0  0  0  0  0  0  0  0  0  0
  195.8970  173.8790  138.5450 C   0  0  1  0  0  3  0  0  0  0  0  0
  195.9140  174.9430  139.6400 C   0  0  0  0  0  2  0  0  0  0  0  0
  194.2770  171.4830  137.2900 C   0  0  0  0  0  2  0  0  0  0  0  0
  190.0210  170.7820  137.3600 N   0  0  0  0  0  2  0  0  0  0  0  0
  194.9290  174.2480  137.5660 O   0  0  0  0  0  0  0  0  0  0  0  0
  194.7060  173.7150  141.5500 C   0  0  2  0  0  3  0  0  0  0  0  0
  194.0030  176.3070  143.6030 C   0  0  0  0  0  2  0  0  0  0  0  0
  189.7440  170.2390  139.6110 O   0  0  0  0  0  1  0  0  0  0  0  0
  197.4690  174.8400  136.8210 C   0  0  0  0  0  1  0  0  0  0  0  0
  197.2830  173.7800  137.9000 C   0  0  2  0  0  3  0  0  0  0  0  0
  197.8750  168.9270  138.5700 N   0  0  0  0  0  1  0  0  0  0  0  0
  197.6810  172.2060  135.9550 C   0  0  0  0  0  3  0  0  0  0  0  0
  197.7780  170.0370  137.6820 C   0  0  0  0  0  0  0  0  0  0  0  0
  197.5920  171.3220  138.2020 C   0  0  0  0  0  3  0  0  0  0  0  0
  197.9000  170.9140  135.4770 C   0  0  0  0  0  3  0  0  0  0  0  0
  197.5280  172.4120  137.3330 C   0  0  0  0  0  0  0  0  0  0  0  0
  197.9410  169.8640  136.3410 N   0  0  0  0  0  0  0  0  0  0  0  0
  192.7970  175.9210  145.7440 C   0  0  0  0  0  2  0  0  0  0  0  0
  191.4180  175.2920  145.9460 C   0  0  1  0  0  0  0  0  0  0  0  0
  190.3020  176.2420  145.9880 C   0  0  2  0  0  3  0  0  0  0  0  0
  191.1760  173.8870  145.3970 C   0  0  0  0  0  1  0  0  0  0  0  0
  190.7580  175.5480  147.6460 P   0  0  1  0  0  0  0  0  0  0  0  0
  189.5580  174.5400  148.2980 O   0  0  0  0  0  0  0  0  0  0  0  0
  191.3090  176.6410  148.5370 O   0  0  0  0  0  1  0  0  0  0  0  0
  188.9590  175.6720  145.5470 C   0  0  0  0  0  2  0  0  0  0  0  0
  187.8620  176.6970  145.7590 C   0  0  0  0  0  1  0  0  0  0  0  0
  187.0860  176.9740  142.3480 O   0  0  0  0  0  0  0  0  0  0  0  0
  186.4170  177.9480  141.5570 C   0  0  0  0  0  2  0  0  0  0  0  0
  185.0080  178.1660  142.0900 C   0  0  0  0  0  2  0  0  0  0  0  0
  184.9970  178.0270  143.6000 C   0  0  0  0  0  2  0  0  0  0  0  0
  185.5690  179.4050  145.5690 C   0  0  0  0  0  1  0  0  0  0  0  0
  184.8840  179.4030  144.2210 C   0  0  0  0  0  2  0  0  0  0  0  0
  2 24  1  0  0  0  0
  3  8  1  0  0  0  0
  3 15  1  0  0  0  0
  5 20  1  0  0  0  0
  6 10  1  0  0  0  0
  8 18  2  0  0  0  0
 10 32  1  0  0  0  0
 10 26  2  0  0  0  0
 11 25  1  0  0  0  0
 12  6  2  0  0  0  0
 12 31  1  0  0  0  0
 13  7  2  0  0  0  0
 13 26  1  0  0  0  0
 14 11  1  0  0  0  0
 16 30  1  1  0  0  0
 16  1  1  0  0  0  0
 16 34  1  0  0  0  0
 17 15  1  6  0  0  0
 18 23  1  0  0  0  0
 19 28  1  0  0  0  0
 20 23  2  0  0  0  0
 20 55  1  0  0  0  0
 21 14  1  0  0  0  0
 21 36  1  1  0  0  0
 22 12  1  0  0  0  0
 23 19  1  0  0  0  0
 24 46  1  1  0  0  0
 25  8  1  0  0  0  0
 25  5  2  0  0  0  0
 27  1  1  6  0  0  0
 27 17  1  0  0  0  0
 27 35  1  0  0  0  0
 28  2  1  0  0  0  0
 28  9  2  0  0  0  0
 29 38  1  6  0  0  0
 29 30  1  0  0  0  0
 31 13  1  0  0  0  0
 32 21  1  0  0  0  0
 33  7  1  0  0  0  0
 33 29  1  0  0  0  0
 34  4  1  1  0  0  0
 34 17  1  0  0  0  0
 35 24  1  0  0  0  0
 38 37  1  6  0  0  0
 40 44  1  0  0  0  0
 41 42  1  0  0  0  0
 41 39  1  0  0  0  0
 43 40  2  0  0  0  0
 43 45  1  0  0  0  0
 44 38  1  0  0  0  0
 44 42  2  0  0  0  0
 45 41  2  0  0  0  0
 46 47  1  0  0  0  0
 47 49  1  6  0  0  0
 47 48  1  0  0  0  0
 47 50  1  0  0  0  0
 48 53  1  6  0  0  0
 48 50  1  0  0  0  0
 50 51  2  1  0  0  0
 50 52  1  0  0  0  0
 53 54  1  0  0  0  0
 56 57  1  0  0  0  0
 56 55  1  0  0  0  0
 57 58  1  0  0  0  0
 58 60  1  0  0  0  0
 60 59  1  0  0  0  0
M  END
>  <MODEL>
7

>  <REMARK>
 VINA RESULT:      -6.2      3.310      7.288
  Name = 
  10 active torsions:
  status: ('A' for Active; 'I' for Inactive)
    1  A    between atoms: C_4  and  C_51
    2  A    between atoms: C_6  and  C_24
    3  A    between atoms: C_9  and  C_34
    4  A    between atoms: C_9  and  C_39
    5  A    between atoms: C_30  and  C_45
    6  A    between atoms: C_30  and  C_48
    7  A    between atoms: C_32  and  O_59
    8  A    between atoms: C_34  and  C_52
    9  A    between atoms: C_40  and  C_51
   10  A    between atoms: C_52  and  O_59
                            x       y       z     vdW  Elec       q    Type
                         _______ _______ _______ _____ _____    ______ ____

>  <TORSDO>
F 10

$$$$
=
 OpenBabel11072408533D

 60 66  0  0  1  0  0  0  0  0999 V2000
  191.4930  177.2260  144.0290 C   0  0  0  0  0  2  0  0  0  0  0  0
  187.7320  177.5560  143.9200 O   0  0  0  0  0  0  0  0  0  0  0  0
  190.3510  174.5510  141.7140 S   0  0  0  0  0  0  0  0  0  0  0  0
  192.2880  174.8680  145.9200 C   0  0  0  0  0  1  0  0  0  0  0  0
  187.0630  175.5940  139.4740 C   0  0  0  0  0  3  0  0  0  0  0  0
  193.9810  171.5080  139.2770 C   0  0  0  0  0  3  0  0  0  0  0  0
  193.7800  175.2260  140.9220 N   0  0  0  0  0  0  0  0  0  0  0  0
  188.9610  175.4180  140.9780 C   0  0  0  0  0  0  0  0  0  0  0  0
  187.1050  179.7710  143.7020 O   0  0  0  0  0  0  0  0  0  0  0  0
  192.7950  172.3640  139.0930 C   0  0  0  0  0  0  0  0  0  0  0  0
  188.4880  173.5610  139.2890 C   0  0  0  0  0  2  0  0  0  0  0  0
  194.9090  171.8140  140.1950 C   0  0  0  0  0  0  0  0  0  0  0  0
  193.7300  173.9660  140.6090 C   0  0  0  0  0  0  0  0  0  0  0  0
  189.9210  173.4800  138.7750 C   0  0  0  0  0  2  0  0  0  0  0  0
  189.6000  174.3880  143.3820 C   0  0  0  0  0  2  0  0  0  0  0  0
  192.4090  176.0760  143.7010 C   0  0  1  0  0  3  0  0  0  0  0  0
  190.3380  175.2160  144.4510 C   0  0  2  0  0  3  0  0  0  0  0  0
  188.6160  176.6480  141.5180 C   0  0  0  0  0  3  0  0  0  0  0  0
  187.0750  178.4940  141.7920 O   0  0  0  0  0  0  0  0  0  0  0  0
  186.6890  176.8140  140.0700 C   0  0  0  0  0  0  0  0  0  0  0  0
  190.3390  172.0390  138.5010 C   0  0  1  0  0  3  0  0  0  0  0  0
  196.0760  170.9100  140.3670 C   0  0  0  0  0  1  0  0  0  0  0  0
  187.4710  177.3370  141.1070 C   0  0  0  0  0  0  0  0  0  0  0  0
  188.1230  177.6190  145.2860 C   0  0  2  0  0  3  0  0  0  0  0  0
  188.1950  174.8890  139.9170 C   0  0  0  0  0  0  0  0  0  0  0  0
  192.7180  173.5130  139.7000 N   0  0  0  0  0  0  0  0  0  0  0  0
  190.1590  176.6590  144.2200 N   0  0  1  0  0  0  0  0  0  0  0  0
  187.3090  178.6550  143.1640 C   0  0  0  0  0  0  0  0  0  0  0  0
  194.7520  175.3940  143.1650 C   0  0  1  0  0  3  0  0  0  0  0  0
  193.8820  176.3680  143.9560 C   0  0  0  0  0  2  0  0  0  0  0  0
  194.7460  172.9850  141.1320 C   0  0  0  0  0  2  0  0  0  0  0  0
  191.7640  171.9510  138.1910 N   0  0  0  0  0  2  0  0  0  0  0  0
  194.7100  175.7620  141.7880 O   0  0  0  0  0  0  0  0  0  0  0  0
  191.8290  174.9050  144.4660 C   0  0  2  0  0  3  0  0  0  0  0  0
  189.6130  177.2670  145.4350 C   0  0  0  0  0  2  0  0  0  0  0  0
  190.0550  171.2150  139.5980 O   0  0  0  0  0  1  0  0  0  0  0  0
  197.1790  175.6960  142.5420 C   0  0  0  0  0  1  0  0  0  0  0  0
  196.1930  175.4540  143.6800 C   0  0  2  0  0  3  0  0  0  0  0  0
  197.8640  170.8110  143.6790 N   0  0  0  0  0  1  0  0  0  0  0  0
  196.4550  174.1330  145.8250 C   0  0  0  0  0  3  0  0  0  0  0  0
  197.4140  171.9500  144.4070 C   0  0  0  0  0  0  0  0  0  0  0  0
  197.0300  173.1030  143.7170 C   0  0  0  0  0  3  0  0  0  0  0  0
  196.8160  172.9540  146.4760 C   0  0  0  0  0  3  0  0  0  0  0  0
  196.5600  174.2070  144.4290 C   0  0  0  0  0  0  0  0  0  0  0  0
  197.2860  171.8960  145.7630 N   0  0  0  0  0  0  0  0  0  0  0  0
  187.3070  176.6230  146.1100 C   0  0  0  0  0  2  0  0  0  0  0  0
  185.9040  177.1280  146.4460 C   0  0  1  0  0  0  0  0  0  0  0  0
  185.6250  178.5070  146.0340 C   0  0  2  0  0  3  0  0  0  0  0  0
  184.7590  176.1160  146.4770 C   0  0  0  0  0  1  0  0  0  0  0  0
  185.8880  178.3080  147.8590 P   0  0  1  0  0  0  0  0  0  0  0  0
  184.4840  178.5920  148.7690 O   0  0  0  0  0  1  0  0  0  0  0  0
  187.1510  179.0260  148.2860 O   0  0  0  0  0  0  0  0  0  0  0  0
  184.1560  178.8080  145.7600 C   0  0  0  0  0  2  0  0  0  0  0  0
  183.9390  179.0430  144.2780 C   0  0  0  0  0  1  0  0  0  0  0  0
  185.5230  177.4900  139.6820 O   0  0  0  0  0  0  0  0  0  0  0  0
  184.6310  178.1010  140.6040 C   0  0  0  0  0  2  0  0  0  0  0  0
  183.1950  177.9010  140.1410 C   0  0  0  0  0  2  0  0  0  0  0  0
  182.2340  178.2880  141.2490 C   0  0  0  0  0  2  0  0  0  0  0  0
  180.3160  179.7740  140.7820 C   0  0  0  0  0  1  0  0  0  0  0  0
  180.8310  178.3550  140.6840 C   0  0  0  0  0  2  0  0  0  0  0  0
  2 24  1  0  0  0  0
  3 15  1  0  0  0  0
  5 25  2  0  0  0  0
  5 20  1  0  0  0  0
  6 12  2  0  0  0  0
  7 33  1  0  0  0  0
  8 18  2  0  0  0  0
  8  3  1  0  0  0  0
 10  6  1  0  0  0  0
 10 26  2  0  0  0  0
 11 25  1  0  0  0  0
 12 22  1  0  0  0  0
 12 31  1  0  0  0  0
 13  7  2  0  0  0  0
 13 31  1  0  0  0  0
 14 11  1  0  0  0  0
 16 30  1  1  0  0  0
 16  1  1  0  0  0  0
 16 34  1  0  0  0  0
 17 15  1  6  0  0  0
 17 34  1  0  0  0  0
 19 28  1  0  0  0  0
 20 23  2  0  0  0  0
 21 14  1  0  0  0  0
 21 36  1  1  0  0  0
 23 18  1  0  0  0  0
 23 19  1  0  0  0  0
 24 35  1  0  0  0  0
 24 46  1  1  0  0  0
 25  8  1  0  0  0  0
 26 13  1  0  0  0  0
 27  1  1  1  0  0  0
 27 17  1  0  0  0  0
 27 35  1  0  0  0  0
 28  9  2  0  0  0  0
 28  2  1  0  0  0  0
 29 38  1  1  0  0  0
 29 30  1  0  0  0  0
 32 21  1  0  0  0  0
 32 10  1  0  0  0  0
 33 29  1  0  0  0  0
 34  4  1  1  0  0  0
 38 37  1  6  0  0  0
 38 44  1  0  0  0  0
 39 41  1  0  0  0  0
 40 43  1  0  0  0  0
 41 45  1  0  0  0  0
 42 41  2  0  0  0  0
 42 44  1  0  0  0  0
 44 40  2  0  0  0  0
 45 43  2  0  0  0  0
 46 47  1  0  0  0  0
 47 49  1  6  0  0  0
 47 50  1  0  0  0  0
 48 53  1  1  0  0  0
 48 47  1  0  0  0  0
 48 50  1  0  0  0  0
 50 52  2  1  0  0  0
 50 51  1  0  0  0  0
 54 53  1  0  0  0  0
 55 20  1  0  0  0  0
 55 56  1  0  0  0  0
 57 56  1  0  0  0  0
 57 58  1  0  0  0  0
 60 59  1  0  0  0  0
 60 58  1  0  0  0  0
M  END
>  <MODEL>
8

>  <REMARK>
 VINA RESULT:      -6.1      3.140      7.694
  Name = 
  10 active torsions:
  status: ('A' for Active; 'I' for Inactive)
    1  A    between atoms: C_4  and  C_51
    2  A    between atoms: C_6  and  C_24
    3  A    between atoms: C_9  and  C_34
    4  A    between atoms: C_9  and  C_39
    5  A    between atoms: C_30  and  C_45
    6  A    between atoms: C_30  and  C_48
    7  A    between atoms: C_32  and  O_59
    8  A    between atoms: C_34  and  C_52
    9  A    between atoms: C_40  and  C_51
   10  A    between atoms: C_52  and  O_59
                            x       y       z     vdW  Elec       q    Type
                         _______ _______ _______ _____ _____    ______ ____

>  <TORSDO>
F 10

$$$$
=
 OpenBabel11072408533D

 60 66  0  0  1  0  0  0  0  0999 V2000
  188.9570  172.7610  142.9330 C   0  0  0  0  0  2  0  0  0  0  0  0
  187.7490  176.1260  144.1490 O   0  0  0  0  0  0  0  0  0  0  0  0
  192.0190  174.5400  144.0640 S   0  0  0  0  0  0  0  0  0  0  0  0
  190.1790  173.0530  140.0710 C   0  0  0  0  0  1  0  0  0  0  0  0
  191.4020  176.9960  147.3060 C   0  0  0  0  0  3  0  0  0  0  0  0
  196.7000  172.0040  143.8990 C   0  0  0  0  0  3  0  0  0  0  0  0
  192.7550  171.0340  144.1470 N   0  0  0  0  0  0  0  0  0  0  0  0
  191.3010  175.4470  145.4380 C   0  0  0  0  0  0  0  0  0  0  0  0
  185.8590  175.8980  145.4630 O   0  0  0  0  0  0  0  0  0  0  0  0
  195.7720  172.7830  144.7380 C   0  0  0  0  0  0  0  0  0  0  0  0
  193.5510  176.3770  146.2110 C   0  0  0  0  0  2  0  0  0  0  0  0
  196.2360  171.1260  142.9980 C   0  0  0  0  0  0  0  0  0  0  0  0
  193.9400  171.4970  143.8830 C   0  0  0  0  0  0  0  0  0  0  0  0
  194.2500  175.0220  146.2450 C   0  0  0  0  0  2  0  0  0  0  0  0
  191.1280  175.4650  142.7510 C   0  0  0  0  0  2  0  0  0  0  0  0
  190.3120  172.2860  142.4770 C   0  0  1  0  0  3  0  0  0  0  0  0
  190.1070  174.5920  141.9970 C   0  0  2  0  0  3  0  0  0  0  0  0
  189.9240  175.3850  145.5970 C   0  0  0  0  0  3  0  0  0  0  0  0
  187.8560  176.1870  146.5630 O   0  0  0  0  0  0  0  0  0  0  0  0
  189.9980  176.9700  147.4180 C   0  0  0  0  0  0  0  0  0  0  0  0
  195.6890  175.1200  145.7470 C   0  0  1  0  0  3  0  0  0  0  0  0
  197.2050  170.3810  142.1530 C   0  0  0  0  0  1  0  0  0  0  0  0
  189.2580  176.1620  146.5480 C   0  0  0  0  0  0  0  0  0  0  0  0
  187.1220  175.8790  142.8980 C   0  0  2  0  0  3  0  0  0  0  0  0
  192.0630  176.2400  146.3220 C   0  0  0  0  0  0  0  0  0  0  0  0
  194.4990  172.5070  144.7340 N   0  0  0  0  0  0  0  0  0  0  0  0
  188.9810  174.2210  142.8690 N   0  0  1  0  0  0  0  0  0  0  0  0
  187.1040  176.0510  145.3890 C   0  0  0  0  0  0  0  0  0  0  0  0
  191.7580  170.2980  142.0340 C   0  0  1  0  0  3  0  0  0  0  0  0
  190.3310  170.8390  142.0010 C   0  0  0  0  0  2  0  0  0  0  0  0
  194.7590  170.9550  142.7410 C   0  0  0  0  0  2  0  0  0  0  0  0
  196.2900  173.7960  145.6050 N   0  0  0  0  0  2  0  0  0  0  0  0
  192.1260  170.0660  143.3910 O   0  0  0  0  0  0  0  0  0  0  0  0
  190.7490  173.3190  141.4610 C   0  0  2  0  0  3  0  0  0  0  0  0
  187.7310  174.6350  142.2280 C   0  0  0  0  0  2  0  0  0  0  0  0
  195.7520  175.7880  144.5170 O   0  0  0  0  0  1  0  0  0  0  0  0
  193.1190  168.2300  141.5440 C   0  0  0  0  0  1  0  0  0  0  0  0
  191.8330  168.9900  141.2400 C   0  0  2  0  0  3  0  0  0  0  0  0
  193.9350  170.0110  136.8940 N   0  0  0  0  0  1  0  0  0  0  0  0
  190.4690  169.1800  139.1140 C   0  0  0  0  0  3  0  0  0  0  0  0
  192.7650  169.6990  137.6450 C   0  0  0  0  0  0  0  0  0  0  0  0
  192.8610  169.5100  139.0260 C   0  0  0  0  0  3  0  0  0  0  0  0
  190.4080  169.4080  137.7390 C   0  0  0  0  0  3  0  0  0  0  0  0
  191.7090  169.2350  139.7650 C   0  0  0  0  0  0  0  0  0  0  0  0
  191.5460  169.6580  137.0370 N   0  0  0  0  0  0  0  0  0  0  0  0
  187.3220  177.0750  141.9660 C   0  0  0  0  0  2  0  0  0  0  0  0
  186.1900  178.0990  142.0510 C   0  0  1  0  0  0  0  0  0  0  0  0
  184.8410  177.5300  142.1070 C   0  0  2  0  0  3  0  0  0  0  0  0
  186.4670  179.4250  142.7580 C   0  0  0  0  0  1  0  0  0  0  0  0
  185.2700  178.2810  140.4670 P   0  0  1  0  0  0  0  0  0  0  0  0
  184.3660  179.6730  140.1140 O   0  0  0  0  0  1  0  0  0  0  0  0
  185.3380  177.2060  139.4020 O   0  0  0  0  0  0  0  0  0  0  0  0
  183.8070  178.4000  142.8130 C   0  0  0  0  0  2  0  0  0  0  0  0
  182.4600  178.2700  142.1290 C   0  0  0  0  0  1  0  0  0  0  0  0
  189.3260  177.7720  148.3510 O   0  0  0  0  0  0  0  0  0  0  0  0
  188.6230  178.9570  147.9990 C   0  0  0  0  0  2  0  0  0  0  0  0
  187.1660  178.8360  148.4210 C   0  0  0  0  0  2  0  0  0  0  0  0
  186.3200  179.8380  147.6590 C   0  0  0  0  0  2  0  0  0  0  0  0
  184.4370  178.4600  146.8470 C   0  0  0  0  0  1  0  0  0  0  0  0
  185.7190  179.1560  146.4480 C   0  0  0  0  0  2  0  0  0  0  0  0
  2 28  1  0  0  0  0
  3  8  1  0  0  0  0
  5 20  1  0  0  0  0
  6 10  1  0  0  0  0
  8 18  2  0  0  0  0
  8 25  1  0  0  0  0
 10 32  1  0  0  0  0
 11 14  1  0  0  0  0
 11 25  1  0  0  0  0
 12  6  2  0  0  0  0
 13  7  2  0  0  0  0
 13 26  1  0  0  0  0
 15  3  1  0  0  0  0
 16 30  1  6  0  0  0
 16  1  1  0  0  0  0
 17 15  1  1  0  0  0
 17 27  1  0  0  0  0
 18 23  1  0  0  0  0
 20 55  1  0  0  0  0
 21 36  1  6  0  0  0
 21 14  1  0  0  0  0
 22 12  1  0  0  0  0
 23 19  1  0  0  0  0
 23 20  2  0  0  0  0
 24 46  1  6  0  0  0
 24  2  1  0  0  0  0
 25  5  2  0  0  0  0
 26 10  2  0  0  0  0
 27 35  1  6  0  0  0
 27  1  1  0  0  0  0
 28  9  2  0  0  0  0
 28 19  1  0  0  0  0
 29 38  1  6  0  0  0
 29 33  1  0  0  0  0
 30 29  1  0  0  0  0
 31 12  1  0  0  0  0
 31 13  1  0  0  0  0
 32 21  1  0  0  0  0
 33  7  1  0  0  0  0
 34  4  1  6  0  0  0
 34 17  1  0  0  0  0
 34 16  1  0  0  0  0
 35 24  1  0  0  0  0
 38 37  1  6  0  0  0
 39 41  1  0  0  0  0
 40 44  1  0  0  0  0
 41 42  1  0  0  0  0
 42 44  2  0  0  0  0
 43 40  2  0  0  0  0
 44 38  1  0  0  0  0
 45 41  2  0  0  0  0
 45 43  1  0  0  0  0
 46 47  1  0  0  0  0
 47 48  1  0  0  0  0
 47 49  1  1  0  0  0
 48 53  1  1  0  0  0
 50 52  2  6  0  0  0
 50 47  1  0  0  0  0
 50 48  1  0  0  0  0
 51 50  1  0  0  0  0
 54 53  1  0  0  0  0
 56 55  1  0  0  0  0
 56 57  1  0  0  0  0
 58 57  1  0  0  0  0
 60 59  1  0  0  0  0
 60 58  1  0  0  0  0
M  END
>  <MODEL>
9

>  <REMARK>
 VINA RESULT:      -5.9      1.842      2.513
  Name = 
  10 active torsions:
  status: ('A' for Active; 'I' for Inactive)
    1  A    between atoms: C_4  and  C_51
    2  A    between atoms: C_6  and  C_24
    3  A    between atoms: C_9  and  C_34
    4  A    between atoms: C_9  and  C_39
    5  A    between atoms: C_30  and  C_45
    6  A    between atoms: C_30  and  C_48
    7  A    between atoms: C_32  and  O_59
    8  A    between atoms: C_34  and  C_52
    9  A    between atoms: C_40  and  C_51
   10  A    between atoms: C_52  and  O_59
                            x       y       z     vdW  Elec       q    Type
                         _______ _______ _______ _____ _____    ______ ____

>  <TORSDO>
F 10

$$$$
