=
 OpenBabel11062422023D

 34 37  0  0  1  0  0  0  0  0999 V2000
  189.8140  175.1250  147.0920 N   0  0  0  0  0  0  0  0  0  0  0  0
  188.9910  174.2590  147.7280 O   0  0  0  0  0  1  0  0  0  0  0  0
  191.8650  176.3000  145.6250 C   0  0  0  0  0  0  0  0  0  0  0  0
  190.7400  175.9570  144.9880 C   0  0  0  0  0  3  0  0  0  0  0  0
  189.4740  175.6000  145.7400 C   0  0  2  0  0  3  0  0  0  0  0  0
  190.9700  175.6190  147.7790 C   0  0  0  0  0  3  0  0  0  0  0  0
  191.9530  176.1970  147.0920 C   0  0  0  0  0  3  0  0  0  0  0  0
  187.3960  176.4250  146.6390 C   0  0  0  0  0  2  0  0  0  0  0  0
  188.5700  176.7640  145.8060 N   0  0  2  0  0  0  0  0  0  0  0  0
  186.1740  177.2730  146.2940 C   0  0  0  0  0  2  0  0  0  0  0  0
  188.2010  177.1770  144.4320 C   0  0  0  0  0  2  0  0  0  0  0  0
  186.8800  176.5690  143.9500 C   0  0  0  0  0  2  0  0  0  0  0  0
  185.7210  176.9830  144.8610 C   0  0  2  0  0  3  0  0  0  0  0  0
  183.8500  179.0890  145.3690 O   0  0  0  0  0  1  0  0  0  0  0  0
  185.8820  179.4860  143.7790 O   0  0  0  0  0  0  0  0  0  0  0  0
  184.8660  178.4400  144.1820 P   0  0  1  0  0  0  0  0  0  0  0  0
  183.9250  177.9990  142.8400 O   0  0  0  0  0  0  0  0  0  0  0  0
  184.6330  178.4400  141.7190 C   0  0  0  0  0  2  0  0  0  0  0  0
  183.8070  178.2230  140.4660 C   0  0  0  0  0  2  0  0  0  0  0  0
  182.0360  178.2600  140.8690 S   0  0  0  0  0  1  0  0  0  0  0  0
  193.0630  176.7040  144.8370 C   0  0  0  0  0  2  0  0  0  0  0  0
  194.3210  176.6350  145.6920 C   0  0  2  0  0  3  0  0  0  0  0  0
  194.9440  178.0130  145.7950 C   0  0  0  0  0  1  0  0  0  0  0  0
  195.3260  175.6800  145.0680 C   0  0  0  0  0  2  0  0  0  0  0  0
  194.4540  170.8770  145.2560 C   0  0  0  0  0  2  0  0  0  0  0  0
  197.5460  171.3900  145.1000 C   0  0  0  0  0  2  0  0  0  0  0  0
  195.5840  169.4510  145.4170 S   0  0  0  0  0  0  0  0  0  0  0  0
  197.4910  174.0820  144.5940 O   0  0  0  0  0  1  0  0  0  0  0  0
  195.1560  172.1660  145.5590 C   0  0  2  0  0  3  0  0  0  0  0  0
  196.5980  172.2770  145.9310 C   0  0  2  0  0  3  0  0  0  0  0  0
  196.8600  170.2300  144.3730 C   0  0  0  0  0  2  0  0  0  0  0  0
  196.8890  173.7790  145.8230 C   0  0  2  0  0  3  0  0  0  0  0  0
  194.5460  173.3400  145.5390 C   0  0  0  0  0  2  0  0  0  0  0  0
  195.4970  174.4250  145.9250 C   0  0  2  0  0  3  0  0  0  0  0  0
  1  2  1  0  0  0  0
  1  6  1  0  0  0  0
  3  7  1  0  0  0  0
  4  3  2  0  0  0  0
  5  4  1  1  0  0  0
  5  9  1  0  0  0  0
  5  1  1  0  0  0  0
  7  6  2  0  0  0  0
  9 11  1  6  0  0  0
  9  8  1  0  0  0  0
 10  8  1  0  0  0  0
 12 11  1  0  0  0  0
 12 13  1  0  0  0  0
 13 16  1  6  0  0  0
 13 10  1  0  0  0  0
 16 15  2  6  0  0  0
 16 14  1  0  0  0  0
 17 16  1  0  0  0  0
 18 17  1  0  0  0  0
 19 20  1  0  0  0  0
 19 18  1  0  0  0  0
 21  3  1  0  0  0  0
 21 22  1  0  0  0  0
 22 23  1  6  0  0  0
 24 22  1  0  0  0  0
 25 27  1  0  0  0  0
 29 25  1  1  0  0  0
 29 30  1  0  0  0  0
 30 26  1  6  0  0  0
 31 26  1  0  0  0  0
 31 27  1  0  0  0  0
 32 28  1  6  0  0  0
 32 34  1  0  0  0  0
 32 30  1  0  0  0  0
 33 29  1  0  0  0  0
 33 34  1  0  0  0  0
 34 24  1  6  0  0  0
M  END
>  <MODEL>
1

>  <REMARK>
 VINA RESULT:      -7.9      0.000      0.000
  Name = 
  9 active torsions:
  status: ('A' for Active; 'I' for Inactive)
    1  A    between atoms: N_3  and  C_26
    2  A    between atoms: C_4  and  C_15
    3  A    between atoms: C_4  and  C_21
    4  A    between atoms: C_11  and  C_15
    5  A    between atoms: C_14  and  C_25
    6  A    between atoms: P_18  and  O_27
    7  A    between atoms: P_18  and  C_30
    8  A    between atoms: C_21  and  C_34
    9  A    between atoms: C_25  and  O_27
                            x       y       z     vdW  Elec       q    Type
                         _______ _______ _______ _____ _____    ______ ____

>  <TORSDO>
F 9

$$$$
=
 OpenBabel11062422023D

 34 37  0  0  1  0  0  0  0  0999 V2000
  189.8640  175.1940  147.1540 N   0  0  0  0  0  0  0  0  0  0  0  0
  188.9110  174.3990  147.6940 O   0  0  0  0  0  1  0  0  0  0  0  0
  192.1570  176.1980  145.9400 C   0  0  0  0  0  0  0  0  0  0  0  0
  191.0990  175.9180  145.1720 C   0  0  0  0  0  3  0  0  0  0  0  0
  189.7270  175.6620  145.7650 C   0  0  2  0  0  3  0  0  0  0  0  0
  190.9580  175.6240  147.9740 C   0  0  0  0  0  3  0  0  0  0  0  0
  192.0570  176.1200  147.4070 C   0  0  0  0  0  3  0  0  0  0  0  0
  187.9420  176.8850  146.8250 C   0  0  0  0  0  2  0  0  0  0  0  0
  188.9050  176.8860  145.7040 N   0  0  2  0  0  0  0  0  0  0  0  0
  186.7050  177.7290  146.5290 C   0  0  0  0  0  2  0  0  0  0  0  0
  188.2460  176.9680  144.3790 C   0  0  0  0  0  2  0  0  0  0  0  0
  186.8290  176.3860  144.3690 C   0  0  0  0  0  2  0  0  0  0  0  0
  185.9250  177.1280  145.3580 C   0  0  2  0  0  3  0  0  0  0  0  0
  183.6830  178.9030  145.4740 O   0  0  0  0  0  1  0  0  0  0  0  0
  185.8850  179.6370  144.2790 O   0  0  0  0  0  0  0  0  0  0  0  0
  184.9900  178.4380  144.5060 P   0  0  1  0  0  0  0  0  0  0  0  0
  184.3960  177.8680  143.0220 O   0  0  0  0  0  0  0  0  0  0  0  0
  184.9830  178.6760  142.0440 C   0  0  0  0  0  2  0  0  0  0  0  0
  185.2390  177.8650  140.7880 C   0  0  0  0  0  2  0  0  0  0  0  0
  186.9880  177.3860  140.6980 S   0  0  0  0  0  1  0  0  0  0  0  0
  193.4690  176.5030  145.3020 C   0  0  0  0  0  2  0  0  0  0  0  0
  194.2290  175.2230  144.9880 C   0  0  2  0  0  3  0  0  0  0  0  0
  195.4890  175.1590  145.8290 C   0  0  0  0  0  1  0  0  0  0  0  0
  194.6090  175.1870  143.5170 C   0  0  0  0  0  2  0  0  0  0  0  0
  190.7870  172.1630  143.8350 C   0  0  0  0  0  2  0  0  0  0  0  0
  190.2500  174.3240  141.6240 C   0  0  0  0  0  2  0  0  0  0  0  0
  189.2820  172.0080  142.8120 S   0  0  0  0  0  0  0  0  0  0  0  0
  192.3920  175.9580  142.1180 O   0  0  0  0  0  1  0  0  0  0  0  0
  191.8160  173.0210  143.1660 C   0  0  2  0  0  3  0  0  0  0  0  0
  191.6340  173.6790  141.8380 C   0  0  2  0  0  3  0  0  0  0  0  0
  189.1560  173.8100  142.5650 C   0  0  0  0  0  2  0  0  0  0  0  0
  192.8040  174.6670  141.7560 C   0  0  2  0  0  3  0  0  0  0  0  0
  193.0050  173.2630  143.6920 C   0  0  0  0  0  2  0  0  0  0  0  0
  193.8180  174.1120  142.7710 C   0  0  2  0  0  3  0  0  0  0  0  0
  1  2  1  0  0  0  0
  1  6  1  0  0  0  0
  3  7  1  0  0  0  0
  4  3  2  0  0  0  0
  5  4  1  1  0  0  0
  5  1  1  0  0  0  0
  7  6  2  0  0  0  0
  9 11  1  6  0  0  0
  9  5  1  0  0  0  0
  9  8  1  0  0  0  0
 10  8  1  0  0  0  0
 12 11  1  0  0  0  0
 12 13  1  0  0  0  0
 13 16  1  6  0  0  0
 13 10  1  0  0  0  0
 16 15  2  6  0  0  0
 16 14  1  0  0  0  0
 17 16  1  0  0  0  0
 18 17  1  0  0  0  0
 19 18  1  0  0  0  0
 20 19  1  0  0  0  0
 21  3  1  0  0  0  0
 22 21  1  0  0  0  0
 22 23  1  1  0  0  0
 24 22  1  0  0  0  0
 26 31  1  0  0  0  0
 27 25  1  0  0  0  0
 29 33  1  6  0  0  0
 29 25  1  0  0  0  0
 30 26  1  1  0  0  0
 30 29  1  0  0  0  0
 31 27  1  0  0  0  0
 32 30  1  0  0  0  0
 32 28  1  1  0  0  0
 32 34  1  0  0  0  0
 34 24  1  1  0  0  0
 34 33  1  0  0  0  0
M  END
>  <MODEL>
2

>  <REMARK>
 VINA RESULT:      -7.6      2.571      3.491
  Name = 
  9 active torsions:
  status: ('A' for Active; 'I' for Inactive)
    1  A    between atoms: N_3  and  C_26
    2  A    between atoms: C_4  and  C_15
    3  A    between atoms: C_4  and  C_21
    4  A    between atoms: C_11  and  C_15
    5  A    between atoms: C_14  and  C_25
    6  A    between atoms: P_18  and  O_27
    7  A    between atoms: P_18  and  C_30
    8  A    between atoms: C_21  and  C_34
    9  A    between atoms: C_25  and  O_27
                            x       y       z     vdW  Elec       q    Type
                         _______ _______ _______ _____ _____    ______ ____

>  <TORSDO>
F 9

$$$$
=
 OpenBabel11062422023D

 34 37  0  0  1  0  0  0  0  0999 V2000
  191.2430  176.5350  146.7030 N   0  0  0  0  0  0  0  0  0  0  0  0
  191.5510  176.7850  147.9970 O   0  0  0  0  0  1  0  0  0  0  0  0
  190.3170  176.6780  144.0830 C   0  0  0  0  0  0  0  0  0  0  0  0
  191.5680  177.0730  144.3400 C   0  0  0  0  0  3  0  0  0  0  0  0
  192.2530  176.7510  145.6530 C   0  0  2  0  0  3  0  0  0  0  0  0
  189.9540  175.9940  146.3870 C   0  0  0  0  0  3  0  0  0  0  0  0
  189.5040  176.0420  145.1340 C   0  0  0  0  0  3  0  0  0  0  0  0
  194.3020  175.7100  146.3780 C   0  0  0  0  0  2  0  0  0  0  0  0
  193.1170  175.5650  145.5060 N   0  0  2  0  0  0  0  0  0  0  0  0
  195.4940  174.8970  145.8790 C   0  0  0  0  0  2  0  0  0  0  0  0
  193.4710  175.3900  144.0770 C   0  0  0  0  0  2  0  0  0  0  0  0
  194.8120  176.0300  143.7020 C   0  0  0  0  0  2  0  0  0  0  0  0
  195.9560  175.4220  144.5180 C   0  0  2  0  0  3  0  0  0  0  0  0
  197.3120  174.6900  142.1060 O   0  0  0  0  0  0  0  0  0  0  0  0
  197.9410  173.5510  144.3680 O   0  0  0  0  0  1  0  0  0  0  0  0
  196.7610  174.0810  143.5850 P   0  0  1  0  0  0  0  0  0  0  0  0
  195.6560  172.8280  143.2810 O   0  0  0  0  0  0  0  0  0  0  0  0
  196.1700  171.7040  143.9350 C   0  0  0  0  0  2  0  0  0  0  0  0
  195.2650  171.3180  145.0890 C   0  0  0  0  0  2  0  0  0  0  0  0
  193.5310  171.6490  144.6640 S   0  0  0  0  0  1  0  0  0  0  0  0
  189.7130  176.9650  142.7520 C   0  0  0  0  0  2  0  0  0  0  0  0
  188.6850  175.9050  142.3830 C   0  0  2  0  0  3  0  0  0  0  0  0
  189.3750  174.7460  141.6910 C   0  0  0  0  0  1  0  0  0  0  0  0
  187.6380  176.4920  141.4500 C   0  0  0  0  0  2  0  0  0  0  0  0
  185.5150  176.7810  145.8390 C   0  0  0  0  0  2  0  0  0  0  0  0
  185.2580  179.5320  144.3510 C   0  0  0  0  0  2  0  0  0  0  0  0
  184.5130  178.0990  146.6100 S   0  0  0  0  0  0  0  0  0  0  0  0
  186.9070  179.0060  142.2280 O   0  0  0  0  0  1  0  0  0  0  0  0
  185.6820  177.0130  144.3680 C   0  0  2  0  0  3  0  0  0  0  0  0
  185.1170  178.1790  143.6260 C   0  0  2  0  0  3  0  0  0  0  0  0
  185.5140  179.4240  145.8570 C   0  0  0  0  0  2  0  0  0  0  0  0
  185.8200  178.1220  142.2640 C   0  0  2  0  0  3  0  0  0  0  0  0
  186.3440  176.1830  143.5790 C   0  0  0  0  0  2  0  0  0  0  0  0
  186.2980  176.6630  142.1660 C   0  0  2  0  0  3  0  0  0  0  0  0
  1  2  1  0  0  0  0
  3  4  2  0  0  0  0
  3  7  1  0  0  0  0
  5  4  1  6  0  0  0
  5  1  1  0  0  0  0
  6  1  1  0  0  0  0
  7  6  2  0  0  0  0
  9 11  1  6  0  0  0
  9  5  1  0  0  0  0
  9  8  1  0  0  0  0
 10  8  1  0  0  0  0
 12 11  1  0  0  0  0
 12 13  1  0  0  0  0
 13 16  1  6  0  0  0
 13 10  1  0  0  0  0
 16 14  2  6  0  0  0
 16 15  1  0  0  0  0
 17 16  1  0  0  0  0
 17 18  1  0  0  0  0
 18 19  1  0  0  0  0
 20 19  1  0  0  0  0
 21  3  1  0  0  0  0
 22 23  1  6  0  0  0
 22 21  1  0  0  0  0
 24 22  1  0  0  0  0
 25 27  1  0  0  0  0
 26 31  1  0  0  0  0
 29 33  1  6  0  0  0
 29 25  1  0  0  0  0
 30 26  1  1  0  0  0
 30 29  1  0  0  0  0
 31 27  1  0  0  0  0
 32 28  1  1  0  0  0
 32 30  1  0  0  0  0
 34 24  1  1  0  0  0
 34 32  1  0  0  0  0
 34 33  1  0  0  0  0
M  END
>  <MODEL>
3

>  <REMARK>
 VINA RESULT:      -7.4      3.111     10.008
  Name = 
  9 active torsions:
  status: ('A' for Active; 'I' for Inactive)
    1  A    between atoms: N_3  and  C_26
    2  A    between atoms: C_4  and  C_15
    3  A    between atoms: C_4  and  C_21
    4  A    between atoms: C_11  and  C_15
    5  A    between atoms: C_14  and  C_25
    6  A    between atoms: P_18  and  O_27
    7  A    between atoms: P_18  and  C_30
    8  A    between atoms: C_21  and  C_34
    9  A    between atoms: C_25  and  O_27
                            x       y       z     vdW  Elec       q    Type
                         _______ _______ _______ _____ _____    ______ ____

>  <TORSDO>
F 9

$$$$
=
 OpenBabel11062422023D

 34 37  0  0  1  0  0  0  0  0999 V2000
  186.9920  176.9940  141.0320 N   0  0  0  0  0  0  0  0  0  0  0  0
  186.5670  176.7690  139.7660 O   0  0  0  0  0  1  0  0  0  0  0  0
  187.1650  177.5920  143.7430 C   0  0  0  0  0  0  0  0  0  0  0  0
  186.9970  176.3160  143.3810 C   0  0  0  0  0  3  0  0  0  0  0  0
  187.1950  175.8600  141.9490 C   0  0  2  0  0  3  0  0  0  0  0  0
  187.3040  178.3340  141.4330 C   0  0  0  0  0  3  0  0  0  0  0  0
  187.4050  178.6320  142.7270 C   0  0  0  0  0  3  0  0  0  0  0  0
  188.5930  174.5400  140.4980 C   0  0  0  0  0  2  0  0  0  0  0  0
  188.5410  175.2810  141.7760 N   0  0  2  0  0  0  0  0  0  0  0  0
  189.6620  173.4490  140.5030 C   0  0  0  0  0  2  0  0  0  0  0  0
  188.8650  174.4340  142.9470 C   0  0  0  0  0  2  0  0  0  0  0  0
  188.5390  172.9530  142.7330 C   0  0  0  0  0  2  0  0  0  0  0  0
  189.3220  172.3840  141.5470 C   0  0  2  0  0  3  0  0  0  0  0  0
  190.6910  169.9030  141.9510 O   0  0  0  0  0  1  0  0  0  0  0  0
  192.0210  172.0490  141.2850 O   0  0  0  0  0  0  0  0  0  0  0  0
  190.8510  171.5790  142.1220 P   0  0  1  0  0  0  0  0  0  0  0  0
  191.1270  171.9360  143.7580 O   0  0  0  0  0  0  0  0  0  0  0  0
  192.2130  172.8170  143.7750 C   0  0  0  0  0  2  0  0  0  0  0  0
  193.1920  172.4120  144.8590 C   0  0  0  0  0  2  0  0  0  0  0  0
  194.2000  171.0080  144.3010 S   0  0  0  0  0  1  0  0  0  0  0  0
  187.0200  177.9760  145.1750 C   0  0  0  0  0  2  0  0  0  0  0  0
  187.4890  176.8520  146.0880 C   0  0  2  0  0  3  0  0  0  0  0  0
  186.4930  176.6610  147.2150 C   0  0  0  0  0  1  0  0  0  0  0  0
  188.8500  177.1880  146.6760 C   0  0  0  0  0  2  0  0  0  0  0  0
  192.8510  176.6520  143.9260 C   0  0  0  0  0  2  0  0  0  0  0  0
  193.5880  176.2960  146.9550 C   0  0  0  0  0  2  0  0  0  0  0  0
  194.5500  176.1370  144.3550 S   0  0  0  0  0  0  0  0  0  0  0  0
  191.2070  177.0870  148.0540 O   0  0  0  0  0  1  0  0  0  0  0  0
  191.8950  176.3650  145.0440 C   0  0  2  0  0  3  0  0  0  0  0  0
  192.2800  175.7510  146.3490 C   0  0  2  0  0  3  0  0  0  0  0  0
  194.5050  177.0080  145.9560 C   0  0  0  0  0  2  0  0  0  0  0  0
  191.0440  175.9630  147.2320 C   0  0  2  0  0  3  0  0  0  0  0  0
  190.5990  176.6200  144.9670 C   0  0  0  0  0  2  0  0  0  0  0  0
  189.9100  176.1860  146.2180 C   0  0  2  0  0  3  0  0  0  0  0  0
  1  6  1  0  0  0  0
  1  5  1  0  0  0  0
  2  1  1  0  0  0  0
  3 21  1  0  0  0  0
  4  3  2  0  0  0  0
  5  4  1  1  0  0  0
  6  7  2  0  0  0  0
  7  3  1  0  0  0  0
  8 10  1  0  0  0  0
  9  8  1  6  0  0  0
  9  5  1  0  0  0  0
  9 11  1  0  0  0  0
 10 13  1  0  0  0  0
 12 11  1  0  0  0  0
 13 16  1  1  0  0  0
 13 12  1  0  0  0  0
 14 16  1  0  0  0  0
 16 15  2  6  0  0  0
 16 17  1  0  0  0  0
 17 18  1  0  0  0  0
 18 19  1  0  0  0  0
 20 19  1  0  0  0  0
 21 22  1  0  0  0  0
 22 24  1  0  0  0  0
 22 23  1  1  0  0  0
 25 27  1  0  0  0  0
 27 31  1  0  0  0  0
 29 25  1  6  0  0  0
 29 30  1  0  0  0  0
 30 26  1  1  0  0  0
 30 32  1  0  0  0  0
 31 26  1  0  0  0  0
 32 28  1  1  0  0  0
 33 29  1  0  0  0  0
 33 34  1  0  0  0  0
 34 24  1  1  0  0  0
 34 32  1  0  0  0  0
M  END
>  <MODEL>
4

>  <REMARK>
 VINA RESULT:      -7.3      4.133      7.601
  Name = 
  9 active torsions:
  status: ('A' for Active; 'I' for Inactive)
    1  A    between atoms: N_3  and  C_26
    2  A    between atoms: C_4  and  C_15
    3  A    between atoms: C_4  and  C_21
    4  A    between atoms: C_11  and  C_15
    5  A    between atoms: C_14  and  C_25
    6  A    between atoms: P_18  and  O_27
    7  A    between atoms: P_18  and  C_30
    8  A    between atoms: C_21  and  C_34
    9  A    between atoms: C_25  and  O_27
                            x       y       z     vdW  Elec       q    Type
                         _______ _______ _______ _____ _____    ______ ____

>  <TORSDO>
F 9

$$$$
=
 OpenBabel11062422023D

 34 37  0  0  1  0  0  0  0  0999 V2000
  194.8240  175.9290  144.0540 N   0  0  0  0  0  0  0  0  0  0  0  0
  195.7000  176.4590  143.1690 O   0  0  0  0  0  1  0  0  0  0  0  0
  193.0400  175.5070  146.1470 C   0  0  0  0  0  0  0  0  0  0  0  0
  192.5510  175.8630  144.9540 C   0  0  0  0  0  3  0  0  0  0  0  0
  193.3990  175.8180  143.6980 C   0  0  2  0  0  3  0  0  0  0  0  0
  195.3160  175.4190  145.3000 C   0  0  0  0  0  3  0  0  0  0  0  0
  194.4710  175.1980  146.3060 C   0  0  0  0  0  3  0  0  0  0  0  0
  193.3000  174.8320  141.5020 C   0  0  0  0  0  2  0  0  0  0  0  0
  193.1420  174.5740  142.9490 N   0  0  2  0  0  0  0  0  0  0  0  0
  192.5040  173.8500  140.6460 C   0  0  0  0  0  2  0  0  0  0  0  0
  191.7980  174.0590  143.3000 C   0  0  0  0  0  2  0  0  0  0  0  0
  190.7040  174.5060  142.3250 C   0  0  0  0  0  2  0  0  0  0  0  0
  191.0050  174.0220  140.9040 C   0  0  2  0  0  3  0  0  0  0  0  0
  191.2030  171.1670  140.8430 O   0  0  0  0  0  0  0  0  0  0  0  0
  188.9540  172.3190  141.4960 O   0  0  0  0  0  1  0  0  0  0  0  0
  190.1410  172.4550  140.5680 P   0  0  1  0  0  0  0  0  0  0  0  0
  189.6230  172.4010  138.9530 O   0  0  0  0  0  0  0  0  0  0  0  0
  188.3120  172.8850  138.9580 C   0  0  0  0  0  2  0  0  0  0  0  0
  188.1930  174.0680  138.0180 C   0  0  0  0  0  2  0  0  0  0  0  0
  189.6140  174.1160  136.8870 S   0  0  0  0  0  1  0  0  0  0  0  0
  192.1460  175.5090  147.3380 C   0  0  0  0  0  2  0  0  0  0  0  0
  191.3310  176.7930  147.4020 C   0  0  2  0  0  3  0  0  0  0  0  0
  191.5690  177.4820  148.7300 C   0  0  0  0  0  1  0  0  0  0  0  0
  189.8500  176.4800  147.2600 C   0  0  0  0  0  2  0  0  0  0  0  0
  188.4090  177.6750  142.7480 C   0  0  0  0  0  2  0  0  0  0  0  0
  185.9010  177.1840  144.5690 C   0  0  0  0  0  2  0  0  0  0  0  0
  186.7530  178.0250  142.0640 S   0  0  0  0  0  0  0  0  0  0  0  0
  187.1810  176.1650  146.7660 O   0  0  0  0  0  1  0  0  0  0  0  0
  188.3900  177.6630  144.2470 C   0  0  2  0  0  3  0  0  0  0  0  0
  187.1700  177.8950  145.0780 C   0  0  2  0  0  3  0  0  0  0  0  0
  185.9570  176.7540  143.1000 C   0  0  0  0  0  2  0  0  0  0  0  0
  187.6040  177.4720  146.4870 C   0  0  2  0  0  3  0  0  0  0  0  0
  189.4720  177.4610  144.9800 C   0  0  0  0  0  2  0  0  0  0  0  0
  189.1390  177.5510  146.4330 C   0  0  2  0  0  3  0  0  0  0  0  0
  1  6  1  0  0  0  0
  2  1  1  0  0  0  0
  3  7  1  0  0  0  0
  3 21  1  0  0  0  0
  4  3  2  0  0  0  0
  5  1  1  0  0  0  0
  5  4  1  1  0  0  0
  6  7  2  0  0  0  0
  9  8  1  6  0  0  0
  9 11  1  0  0  0  0
  9  5  1  0  0  0  0
 10 13  1  0  0  0  0
 10  8  1  0  0  0  0
 12 11  1  0  0  0  0
 13 16  1  1  0  0  0
 13 12  1  0  0  0  0
 16 14  2  1  0  0  0
 16 15  1  0  0  0  0
 17 18  1  0  0  0  0
 17 16  1  0  0  0  0
 19 18  1  0  0  0  0
 20 19  1  0  0  0  0
 21 22  1  0  0  0  0
 22 23  1  1  0  0  0
 24 22  1  0  0  0  0
 27 25  1  0  0  0  0
 27 31  1  0  0  0  0
 29 25  1  6  0  0  0
 29 33  1  0  0  0  0
 29 30  1  0  0  0  0
 30 26  1  6  0  0  0
 30 32  1  0  0  0  0
 31 26  1  0  0  0  0
 32 28  1  6  0  0  0
 33 34  1  0  0  0  0
 34 32  1  0  0  0  0
 34 24  1  1  0  0  0
M  END
>  <MODEL>
5

>  <REMARK>
 VINA RESULT:      -7.3      4.365      7.962
  Name = 
  9 active torsions:
  status: ('A' for Active; 'I' for Inactive)
    1  A    between atoms: N_3  and  C_26
    2  A    between atoms: C_4  and  C_15
    3  A    between atoms: C_4  and  C_21
    4  A    between atoms: C_11  and  C_15
    5  A    between atoms: C_14  and  C_25
    6  A    between atoms: P_18  and  O_27
    7  A    between atoms: P_18  and  C_30
    8  A    between atoms: C_21  and  C_34
    9  A    between atoms: C_25  and  O_27
                            x       y       z     vdW  Elec       q    Type
                         _______ _______ _______ _____ _____    ______ ____

>  <TORSDO>
F 9

$$$$
=
 OpenBabel11062422023D

 34 37  0  0  1  0  0  0  0  0999 V2000
  190.6770  175.6410  147.4630 N   0  0  0  0  0  0  0  0  0  0  0  0
  191.4280  175.2900  148.5330 O   0  0  0  0  0  1  0  0  0  0  0  0
  188.8270  176.8070  145.7430 C   0  0  0  0  0  0  0  0  0  0  0  0
  190.0490  177.3440  145.8250 C   0  0  0  0  0  3  0  0  0  0  0  0
  191.1990  176.6130  146.4880 C   0  0  2  0  0  3  0  0  0  0  0  0
  189.4090  175.0030  147.2630 C   0  0  0  0  0  3  0  0  0  0  0  0
  188.5200  175.5420  146.4310 C   0  0  0  0  0  3  0  0  0  0  0  0
  192.8050  174.8540  146.1170 C   0  0  0  0  0  2  0  0  0  0  0  0
  192.0340  175.9390  145.4740 N   0  0  2  0  0  0  0  0  0  0  0  0
  194.0820  174.5170  145.3510 C   0  0  0  0  0  2  0  0  0  0  0  0
  192.8960  176.9410  144.8050 C   0  0  0  0  0  2  0  0  0  0  0  0
  194.2910  177.0540  145.4290 C   0  0  0  0  0  2  0  0  0  0  0  0
  195.0320  175.7160  145.3590 C   0  0  2  0  0  3  0  0  0  0  0  0
  195.2380  174.9920  142.5970 O   0  0  0  0  0  0  0  0  0  0  0  0
  196.5370  177.0600  143.5180 O   0  0  0  0  0  1  0  0  0  0  0  0
  196.1040  175.6580  143.8880 P   0  0  1  0  0  0  0  0  0  0  0  0
  197.4660  174.6910  144.1890 O   0  0  0  0  0  0  0  0  0  0  0  0
  197.2210  173.4790  143.5380 C   0  0  0  0  0  2  0  0  0  0  0  0
  197.8420  172.3370  144.3180 C   0  0  0  0  0  2  0  0  0  0  0  0
  196.8160  171.9350  145.7630 S   0  0  0  0  0  1  0  0  0  0  0  0
  187.7480  177.5410  145.0250 C   0  0  0  0  0  2  0  0  0  0  0  0
  187.9570  177.4730  143.5180 C   0  0  2  0  0  3  0  0  0  0  0  0
  187.0150  178.4410  142.8290 C   0  0  0  0  0  1  0  0  0  0  0  0
  187.6810  176.0660  143.0150 C   0  0  0  0  0  2  0  0  0  0  0  0
  191.9750  173.8170  142.4060 C   0  0  0  0  0  2  0  0  0  0  0  0
  189.6940  172.1350  141.0580 C   0  0  0  0  0  2  0  0  0  0  0  0
  192.4380  172.3450  141.4290 S   0  0  0  0  0  0  0  0  0  0  0  0
  187.5370  173.5280  142.0120 O   0  0  0  0  0  1  0  0  0  0  0  0
  190.6090  174.3110  142.0340 C   0  0  2  0  0  3  0  0  0  0  0  0
  189.7310  173.6750  141.0080 C   0  0  2  0  0  3  0  0  0  0  0  0
  190.8690  171.4940  141.8010 C   0  0  0  0  0  2  0  0  0  0  0  0
  188.3680  174.3420  141.2300 C   0  0  2  0  0  3  0  0  0  0  0  0
  190.0580  175.3830  142.5800 C   0  0  0  0  0  2  0  0  0  0  0  0
  188.7180  175.6420  141.9740 C   0  0  2  0  0  3  0  0  0  0  0  0
  1  2  1  0  0  0  0
  3  4  2  0  0  0  0
  3  7  1  0  0  0  0
  5  4  1  6  0  0  0
  5  1  1  0  0  0  0
  6  1  1  0  0  0  0
  7  6  2  0  0  0  0
  9 11  1  1  0  0  0
  9  8  1  0  0  0  0
  9  5  1  0  0  0  0
 10 13  1  0  0  0  0
 10  8  1  0  0  0  0
 11 12  1  0  0  0  0
 13 16  1  6  0  0  0
 13 12  1  0  0  0  0
 15 16  1  0  0  0  0
 16 14  2  6  0  0  0
 16 17  1  0  0  0  0
 18 17  1  0  0  0  0
 18 19  1  0  0  0  0
 19 20  1  0  0  0  0
 21  3  1  0  0  0  0
 22 23  1  6  0  0  0
 22 21  1  0  0  0  0
 24 22  1  0  0  0  0
 26 31  1  0  0  0  0
 27 31  1  0  0  0  0
 27 25  1  0  0  0  0
 29 25  1  6  0  0  0
 29 33  1  0  0  0  0
 30 26  1  1  0  0  0
 30 32  1  0  0  0  0
 30 29  1  0  0  0  0
 32 34  1  0  0  0  0
 32 28  1  1  0  0  0
 34 33  1  0  0  0  0
 34 24  1  1  0  0  0
M  END
>  <MODEL>
6

>  <REMARK>
 VINA RESULT:      -7.2      3.917      8.474
  Name = 
  9 active torsions:
  status: ('A' for Active; 'I' for Inactive)
    1  A    between atoms: N_3  and  C_26
    2  A    between atoms: C_4  and  C_15
    3  A    between atoms: C_4  and  C_21
    4  A    between atoms: C_11  and  C_15
    5  A    between atoms: C_14  and  C_25
    6  A    between atoms: P_18  and  O_27
    7  A    between atoms: P_18  and  C_30
    8  A    between atoms: C_21  and  C_34
    9  A    between atoms: C_25  and  O_27
                            x       y       z     vdW  Elec       q    Type
                         _______ _______ _______ _____ _____    ______ ____

>  <TORSDO>
F 9

$$$$
=
 OpenBabel11062422023D

 34 37  0  0  1  0  0  0  0  0999 V2000
  190.0720  174.4760  142.3810 N   0  0  0  0  0  0  0  0  0  0  0  0
  190.1790  173.8720  141.1750 O   0  0  0  0  0  1  0  0  0  0  0  0
  190.5630  175.7910  144.7830 C   0  0  0  0  0  0  0  0  0  0  0  0
  190.2350  176.5210  143.7120 C   0  0  0  0  0  3  0  0  0  0  0  0
  189.6600  175.8880  142.4600 C   0  0  2  0  0  3  0  0  0  0  0  0
  190.2940  173.7040  143.5680 C   0  0  0  0  0  3  0  0  0  0  0  0
  190.5160  174.3200  144.7280 C   0  0  0  0  0  3  0  0  0  0  0  0
  187.7780  176.9420  141.3880 C   0  0  0  0  0  2  0  0  0  0  0  0
  188.1890  176.0050  142.4540 N   0  0  2  0  0  0  0  0  0  0  0  0
  186.4210  177.5830  141.6700 C   0  0  0  0  0  2  0  0  0  0  0  0
  187.7250  176.4210  143.7980 C   0  0  0  0  0  2  0  0  0  0  0  0
  187.5350  177.9350  143.9320 C   0  0  0  0  0  2  0  0  0  0  0  0
  186.5000  178.4490  142.9290 C   0  0  2  0  0  3  0  0  0  0  0  0
  184.5470  180.1590  144.1350 O   0  0  0  0  0  1  0  0  0  0  0  0
  183.7990  178.0940  142.7260 O   0  0  0  0  0  0  0  0  0  0  0  0
  184.8560  178.5520  143.7060 P   0  0  1  0  0  0  0  0  0  0  0  0
  184.8050  177.5940  145.1060 O   0  0  0  0  0  0  0  0  0  0  0  0
  184.3660  178.4400  146.1290 C   0  0  0  0  0  2  0  0  0  0  0  0
  185.4810  178.6590  147.1330 C   0  0  0  0  0  2  0  0  0  0  0  0
  186.3590  177.1000  147.4440 S   0  0  0  0  0  1  0  0  0  0  0  0
  191.0650  176.4700  146.0110 C   0  0  0  0  0  2  0  0  0  0  0  0
  191.9880  175.5520  146.7980 C   0  0  2  0  0  3  0  0  0  0  0  0
  191.4480  175.3690  148.2030 C   0  0  0  0  0  1  0  0  0  0  0  0
  193.3830  176.1530  146.8750 C   0  0  0  0  0  2  0  0  0  0  0  0
  193.8560  172.3460  143.8520 C   0  0  0  0  0  2  0  0  0  0  0  0
  194.8040  174.9690  142.4140 C   0  0  0  0  0  2  0  0  0  0  0  0
  194.6130  172.2070  142.1960 S   0  0  0  0  0  0  0  0  0  0  0  0
  193.9670  176.7880  144.2830 O   0  0  0  0  0  1  0  0  0  0  0  0
  194.2280  173.6370  144.5160 C   0  0  2  0  0  3  0  0  0  0  0  0
  195.0960  174.6850  143.9000 C   0  0  2  0  0  3  0  0  0  0  0  0
  194.0310  173.8600  141.6930 C   0  0  0  0  0  2  0  0  0  0  0  0
  194.9100  175.8990  144.8180 C   0  0  2  0  0  3  0  0  0  0  0  0
  193.8290  173.9610  145.7350 C   0  0  0  0  0  2  0  0  0  0  0  0
  194.3970  175.2840  146.1320 C   0  0  2  0  0  3  0  0  0  0  0  0
  1  5  1  0  0  0  0
  1  6  1  0  0  0  0
  2  1  1  0  0  0  0
  3 21  1  0  0  0  0
  4  3  2  0  0  0  0
  5  4  1  1  0  0  0
  6  7  2  0  0  0  0
  7  3  1  0  0  0  0
  8 10  1  0  0  0  0
  9  8  1  6  0  0  0
  9  5  1  0  0  0  0
  9 11  1  0  0  0  0
 10 13  1  0  0  0  0
 11 12  1  0  0  0  0
 13 16  1  1  0  0  0
 13 12  1  0  0  0  0
 16 15  2  6  0  0  0
 16 14  1  0  0  0  0
 16 17  1  0  0  0  0
 17 18  1  0  0  0  0
 18 19  1  0  0  0  0
 19 20  1  0  0  0  0
 21 22  1  0  0  0  0
 22 24  1  0  0  0  0
 22 23  1  1  0  0  0
 27 25  1  0  0  0  0
 29 25  1  1  0  0  0
 29 33  1  0  0  0  0
 30 26  1  6  0  0  0
 30 29  1  0  0  0  0
 30 32  1  0  0  0  0
 31 27  1  0  0  0  0
 31 26  1  0  0  0  0
 32 28  1  6  0  0  0
 32 34  1  0  0  0  0
 33 34  1  0  0  0  0
 34 24  1  6  0  0  0
M  END
>  <MODEL>
7

>  <REMARK>
 VINA RESULT:      -7.2      2.885      3.865
  Name = 
  9 active torsions:
  status: ('A' for Active; 'I' for Inactive)
    1  A    between atoms: N_3  and  C_26
    2  A    between atoms: C_4  and  C_15
    3  A    between atoms: C_4  and  C_21
    4  A    between atoms: C_11  and  C_15
    5  A    between atoms: C_14  and  C_25
    6  A    between atoms: P_18  and  O_27
    7  A    between atoms: P_18  and  C_30
    8  A    between atoms: C_21  and  C_34
    9  A    between atoms: C_25  and  O_27
                            x       y       z     vdW  Elec       q    Type
                         _______ _______ _______ _____ _____    ______ ____

>  <TORSDO>
F 9

$$$$
=
 OpenBabel11062422023D

 34 37  0  0  1  0  0  0  0  0999 V2000
  190.5850  176.6570  147.3580 N   0  0  0  0  0  0  0  0  0  0  0  0
  190.9620  177.3430  148.4620 O   0  0  0  0  0  1  0  0  0  0  0  0
  190.0060  174.6810  145.4870 C   0  0  0  0  0  0  0  0  0  0  0  0
  189.0320  175.0870  146.3080 C   0  0  0  0  0  3  0  0  0  0  0  0
  189.1620  176.3490  147.1370 C   0  0  2  0  0  3  0  0  0  0  0  0
  191.5760  176.3040  146.3850 C   0  0  0  0  0  3  0  0  0  0  0  0
  191.3080  175.3700  145.4740 C   0  0  0  0  0  3  0  0  0  0  0  0
  187.3930  177.9740  147.3400 C   0  0  0  0  0  2  0  0  0  0  0  0
  188.4800  177.4750  146.4710 N   0  0  2  0  0  0  0  0  0  0  0  0
  186.2920  178.6760  146.5500 C   0  0  0  0  0  2  0  0  0  0  0  0
  187.9980  177.0370  145.1400 C   0  0  0  0  0  2  0  0  0  0  0  0
  186.5410  176.5640  145.1480 C   0  0  0  0  0  2  0  0  0  0  0  0
  185.6040  177.6830  145.6110 C   0  0  2  0  0  3  0  0  0  0  0  0
  183.3280  179.0410  144.5280 O   0  0  0  0  0  1  0  0  0  0  0  0
  185.7420  179.8060  143.8970 O   0  0  0  0  0  0  0  0  0  0  0  0
  184.9150  178.5700  144.1780 P   0  0  1  0  0  0  0  0  0  0  0  0
  184.8970  177.5620  142.8130 O   0  0  0  0  0  0  0  0  0  0  0  0
  184.2480  178.2910  141.8120 C   0  0  0  0  0  2  0  0  0  0  0  0
  185.0240  178.1900  140.5130 C   0  0  0  0  0  2  0  0  0  0  0  0
  186.6910  177.5410  140.8270 S   0  0  0  0  0  1  0  0  0  0  0  0
  189.8020  173.4680  144.6470 C   0  0  0  0  0  2  0  0  0  0  0  0
  190.2330  173.7260  143.2100 C   0  0  2  0  0  3  0  0  0  0  0  0
  189.0110  173.9830  142.3500 C   0  0  0  0  0  1  0  0  0  0  0  0
  190.9820  172.5210  142.6640 C   0  0  0  0  0  2  0  0  0  0  0  0
  194.3490  176.0410  143.0180 C   0  0  0  0  0  2  0  0  0  0  0  0
  195.1070  173.6530  144.9070 C   0  0  0  0  0  2  0  0  0  0  0  0
  195.9550  176.0920  143.8870 S   0  0  0  0  0  0  0  0  0  0  0  0
  192.7930  172.2030  144.6840 O   0  0  0  0  0  1  0  0  0  0  0  0
  193.8170  174.6430  142.9370 C   0  0  2  0  0  3  0  0  0  0  0  0
  194.5010  173.4440  143.5050 C   0  0  2  0  0  3  0  0  0  0  0  0
  195.3260  175.1180  145.2940 C   0  0  0  0  0  2  0  0  0  0  0  0
  193.4290  172.3480  143.4430 C   0  0  2  0  0  3  0  0  0  0  0  0
  192.6810  174.3390  142.3300 C   0  0  0  0  0  2  0  0  0  0  0  0
  192.4450  172.8660  142.3810 C   0  0  2  0  0  3  0  0  0  0  0  0
  1  2  1  0  0  0  0
  3  4  2  0  0  0  0
  5  4  1  6  0  0  0
  5  1  1  0  0  0  0
  6  1  1  0  0  0  0
  7  3  1  0  0  0  0
  7  6  2  0  0  0  0
  9 11  1  6  0  0  0
  9  5  1  0  0  0  0
  9  8  1  0  0  0  0
 10  8  1  0  0  0  0
 11 12  1  0  0  0  0
 12 13  1  0  0  0  0
 13 16  1  6  0  0  0
 13 10  1  0  0  0  0
 16 15  2  6  0  0  0
 16 14  1  0  0  0  0
 17 16  1  0  0  0  0
 18 17  1  0  0  0  0
 19 20  1  0  0  0  0
 19 18  1  0  0  0  0
 21  3  1  0  0  0  0
 22 23  1  6  0  0  0
 22 21  1  0  0  0  0
 24 22  1  0  0  0  0
 25 27  1  0  0  0  0
 26 31  1  0  0  0  0
 27 31  1  0  0  0  0
 29 33  1  6  0  0  0
 29 25  1  0  0  0  0
 29 30  1  0  0  0  0
 30 26  1  1  0  0  0
 32 30  1  0  0  0  0
 32 28  1  1  0  0  0
 33 34  1  0  0  0  0
 34 24  1  1  0  0  0
 34 32  1  0  0  0  0
M  END
>  <MODEL>
8

>  <REMARK>
 VINA RESULT:      -7.0      2.582      3.640
  Name = 
  9 active torsions:
  status: ('A' for Active; 'I' for Inactive)
    1  A    between atoms: N_3  and  C_26
    2  A    between atoms: C_4  and  C_15
    3  A    between atoms: C_4  and  C_21
    4  A    between atoms: C_11  and  C_15
    5  A    between atoms: C_14  and  C_25
    6  A    between atoms: P_18  and  O_27
    7  A    between atoms: P_18  and  C_30
    8  A    between atoms: C_21  and  C_34
    9  A    between atoms: C_25  and  O_27
                            x       y       z     vdW  Elec       q    Type
                         _______ _______ _______ _____ _____    ______ ____

>  <TORSDO>
F 9

$$$$
=
 OpenBabel11062422023D

 34 37  0  0  1  0  0  0  0  0999 V2000
  194.4520  177.2550  145.6070 N   0  0  0  0  0  0  0  0  0  0  0  0
  195.3080  178.3030  145.5980 O   0  0  0  0  0  1  0  0  0  0  0  0
  192.2030  175.6210  145.7370 C   0  0  0  0  0  0  0  0  0  0  0  0
  192.5990  176.0680  144.5410 C   0  0  0  0  0  3  0  0  0  0  0  0
  193.9620  176.6980  144.3350 C   0  0  2  0  0  3  0  0  0  0  0  0
  194.0910  176.6610  146.8600 C   0  0  0  0  0  3  0  0  0  0  0  0
  193.0260  175.8650  146.9350 C   0  0  0  0  0  3  0  0  0  0  0  0
  196.0800  176.4060  143.2240 C   0  0  0  0  0  2  0  0  0  0  0  0
  194.9120  175.7050  143.7980 N   0  0  2  0  0  0  0  0  0  0  0  0
  196.7870  175.5770  142.1540 C   0  0  0  0  0  2  0  0  0  0  0  0
  194.2170  174.8420  142.8150 C   0  0  0  0  0  2  0  0  0  0  0  0
  194.3780  175.3200  141.3680 C   0  0  0  0  0  2  0  0  0  0  0  0
  195.8540  175.3500  140.9630 C   0  0  2  0  0  3  0  0  0  0  0  0
  197.9300  173.9020  139.6270 O   0  0  0  0  0  0  0  0  0  0  0  0
  196.1480  172.6360  141.0520 O   0  0  0  0  0  1  0  0  0  0  0  0
  196.3120  173.8080  140.1090 P   0  0  1  0  0  0  0  0  0  0  0  0
  195.3430  173.5860  138.7330 O   0  0  0  0  0  0  0  0  0  0  0  0
  195.6000  174.6840  137.9080 C   0  0  0  0  0  2  0  0  0  0  0  0
  194.2950  175.2830  137.4220 C   0  0  0  0  0  2  0  0  0  0  0  0
  192.9130  174.1690  137.8060 S   0  0  0  0  0  1  0  0  0  0  0  0
  190.8790  174.9520  145.8720 C   0  0  0  0  0  2  0  0  0  0  0  0
  190.1180  175.4950  147.0740 C   0  0  2  0  0  3  0  0  0  0  0  0
  189.0730  174.4880  147.5120 C   0  0  0  0  0  1  0  0  0  0  0  0
  189.4310  176.8020  146.7120 C   0  0  0  0  0  2  0  0  0  0  0  0
  184.9220  178.6210  146.2430 C   0  0  0  0  0  2  0  0  0  0  0  0
  186.3470  178.5800  143.4470 C   0  0  0  0  0  2  0  0  0  0  0  0
  183.9540  179.0790  144.7640 S   0  0  0  0  0  0  0  0  0  0  0  0
  188.8710  177.9190  144.2820 O   0  0  0  0  0  1  0  0  0  0  0  0
  186.1320  177.8160  145.8750 C   0  0  2  0  0  3  0  0  0  0  0  0
  186.5080  177.4460  144.4780 C   0  0  2  0  0  3  0  0  0  0  0  0
  185.4210  179.7170  143.8900 C   0  0  0  0  0  2  0  0  0  0  0  0
  187.9430  176.9220  144.6140 C   0  0  2  0  0  3  0  0  0  0  0  0
  186.9790  177.3390  146.7720 C   0  0  0  0  0  2  0  0  0  0  0  0
  188.0520  176.5460  146.1020 C   0  0  2  0  0  3  0  0  0  0  0  0
  1  6  1  0  0  0  0
  2  1  1  0  0  0  0
  3 21  1  0  0  0  0
  3  7  1  0  0  0  0
  4  3  2  0  0  0  0
  5  4  1  1  0  0  0
  5  1  1  0  0  0  0
  6  7  2  0  0  0  0
  8  9  1  0  0  0  0
  9 11  1  6  0  0  0
  9  5  1  0  0  0  0
 10  8  1  0  0  0  0
 12 11  1  0  0  0  0
 13 16  1  1  0  0  0
 13 12  1  0  0  0  0
 13 10  1  0  0  0  0
 16 14  2  6  0  0  0
 16 15  1  0  0  0  0
 17 16  1  0  0  0  0
 18 17  1  0  0  0  0
 19 20  1  0  0  0  0
 19 18  1  0  0  0  0
 21 22  1  0  0  0  0
 22 23  1  6  0  0  0
 24 22  1  0  0  0  0
 26 31  1  0  0  0  0
 27 25  1  0  0  0  0
 29 25  1  1  0  0  0
 29 33  1  0  0  0  0
 30 26  1  6  0  0  0
 30 32  1  0  0  0  0
 30 29  1  0  0  0  0
 31 27  1  0  0  0  0
 32 28  1  1  0  0  0
 32 34  1  0  0  0  0
 34 24  1  1  0  0  0
 34 33  1  0  0  0  0
M  END
>  <MODEL>
9

>  <REMARK>
 VINA RESULT:      -7.0      4.390      9.788
  Name = 
  9 active torsions:
  status: ('A' for Active; 'I' for Inactive)
    1  A    between atoms: N_3  and  C_26
    2  A    between atoms: C_4  and  C_15
    3  A    between atoms: C_4  and  C_21
    4  A    between atoms: C_11  and  C_15
    5  A    between atoms: C_14  and  C_25
    6  A    between atoms: P_18  and  O_27
    7  A    between atoms: P_18  and  C_30
    8  A    between atoms: C_21  and  C_34
    9  A    between atoms: C_25  and  O_27
                            x       y       z     vdW  Elec       q    Type
                         _______ _______ _______ _____ _____    ______ ____

>  <TORSDO>
F 9

$$$$
