=
 OpenBabel11062420573D

 31 36  0  0  1  0  0  0  0  0999 V2000
  193.6130  176.0480  143.9120 C   0  0  2  0  0  3  0  0  0  0  0  0
  193.0360  176.4180  145.2090 C   0  0  2  0  0  0  0  0  0  0  0  0
  190.4550  175.4130  145.0480 C   0  0  0  0  0  0  0  0  0  0  0  0
  191.7690  175.7320  144.7480 C   0  0  0  0  0  0  0  0  0  0  0  0
  194.3080  176.3270  146.0890 C   0  0  2  0  0  3  0  0  0  0  0  0
  192.3730  175.3410  143.5320 C   0  0  0  0  0  0  0  0  0  0  0  0
  191.7010  174.6010  142.5830 C   0  0  0  0  0  3  0  0  0  0  0  0
  194.6830  175.1580  144.0770 O   0  0  0  0  0  0  0  0  0  0  0  0
  195.3410  175.6520  145.2050 C   0  0  2  0  0  3  0  0  0  0  0  0
  190.4050  174.2690  142.8910 N   0  0  0  0  0  0  0  0  0  0  0  0
  189.7820  174.6480  144.0650 C   0  0  0  0  0  3  0  0  0  0  0  0
  193.2220  175.4270  146.4000 C   0  0  0  0  0  2  0  0  0  0  0  0
  189.6730  175.9050  146.5380 S   0  0  0  0  0  0  0  0  0  0  0  0
  190.0260  174.9340  147.6330 O   0  0  0  0  0  0  0  0  0  0  0  0
  190.1560  177.2820  146.9040 O   0  0  0  0  0  0  0  0  0  0  0  0
  187.9570  175.9180  146.2850 N   0  0  0  0  0  2  0  0  0  0  0  0
  185.5440  178.7830  146.4860 C   0  0  1  0  0  3  0  0  0  0  0  0
  184.0560  178.5570  146.3060 C   0  0  0  0  0  1  0  0  0  0  0  0
  186.1780  177.5490  147.1280 C   0  0  0  0  0  2  0  0  0  0  0  0
  186.1670  178.8860  145.2160 O   0  0  0  0  0  0  0  0  0  0  0  0
  187.0770  177.8630  145.0180 C   0  0  0  0  0  0  0  0  0  0  0  0
  187.1150  177.0630  146.0770 C   0  0  0  0  0  0  0  0  0  0  0  0
  185.9930  176.4280  142.9570 N   0  0  0  0  0  1  0  0  0  0  0  0
  187.9110  177.7550  143.7710 C   0  0  1  0  0  3  0  0  0  0  0  0
  187.3060  176.9760  142.6440 C   0  0  2  0  0  3  0  0  0  0  0  0
  187.2520  178.3810  142.6950 O   0  0  0  0  0  0  0  0  0  0  0  0
  196.0000  174.5670  145.9130 N   0  0  0  0  0  2  0  0  0  0  0  0
  196.2250  173.5090  144.9400 C   0  0  0  0  0  2  0  0  0  0  0  0
  195.8100  172.1670  145.5210 C   0  0  0  0  0  2  0  0  0  0  0  0
  193.6500  171.8400  144.3150 C   0  0  0  0  0  1  0  0  0  0  0  0
  194.2980  172.0710  145.6680 C   0  0  0  0  0  2  0  0  0  0  0  0
  1  6  1  6  0  0  0
  1  8  1  0  0  0  0
  1  2  1  0  0  0  0
  2  5  1  0  0  0  0
  2 12  1  1  0  0  0
  3 13  1  0  0  0  0
  4  3  1  0  0  0  0
  4  2  1  0  0  0  0
  5 12  1  1  0  0  0
  6  4  2  0  0  0  0
  7 10  2  0  0  0  0
  7  6  1  0  0  0  0
  8  9  1  0  0  0  0
  9 27  1  1  0  0  0
  9  5  1  0  0  0  0
 10 11  1  0  0  0  0
 11  3  2  0  0  0  0
 13 15  2  0  0  0  0
 13 14  2  0  0  0  0
 16 13  1  0  0  0  0
 17 18  1  6  0  0  0
 17 19  1  0  0  0  0
 20 17  1  0  0  0  0
 21 20  1  0  0  0  0
 21 22  2  0  0  0  0
 22 16  1  0  0  0  0
 22 19  1  0  0  0  0
 24 21  1  1  0  0  0
 25 26  1  0  0  0  0
 25 23  1  1  0  0  0
 25 24  1  0  0  0  0
 26 24  1  0  0  0  0
 28 29  1  0  0  0  0
 28 27  1  0  0  0  0
 29 31  1  0  0  0  0
 30 31  1  0  0  0  0
M  END
>  <MODEL>
1

>  <REMARK>
 VINA RESULT:      -7.0      0.000      0.000
  Name = 
  8 active torsions:
  status: ('A' for Active; 'I' for Inactive)
    1  A    between atoms: C_5  and  S_15
    2  A    between atoms: C_6  and  C_8
    3  A    between atoms: C_6  and  N_25
    4  A    between atoms: C_8  and  C_27
    5  A    between atoms: S_15  and  N_29
    6  A    between atoms: C_17  and  C_24
    7  A    between atoms: C_23  and  N_25
    8  A    between atoms: N_29  and  C_31
                            x       y       z     vdW  Elec       q    Type
                         _______ _______ _______ _____ _____    ______ ____

>  <TORSDO>
F 8

$$$$
=
 OpenBabel11062420573D

 31 36  0  0  1  0  0  0  0  0999 V2000
  187.0480  177.0260  146.2870 C   0  0  2  0  0  3  0  0  0  0  0  0
  187.7280  176.5300  145.0850 C   0  0  2  0  0  0  0  0  0  0  0  0
  186.6890  178.1380  143.0770 C   0  0  0  0  0  0  0  0  0  0  0  0
  186.9630  177.5860  144.3170 C   0  0  0  0  0  0  0  0  0  0  0  0
  189.0820  176.1160  145.7130 C   0  0  2  0  0  3  0  0  0  0  0  0
  186.3690  178.0770  145.5010 C   0  0  0  0  0  0  0  0  0  0  0  0
  185.5000  179.1470  145.4970 C   0  0  0  0  0  3  0  0  0  0  0  0
  187.9670  177.5740  147.1920 O   0  0  0  0  0  0  0  0  0  0  0  0
  189.0530  176.6990  147.1140 C   0  0  2  0  0  3  0  0  0  0  0  0
  185.2460  179.7060  144.2700 N   0  0  0  0  0  0  0  0  0  0  0  0
  185.8000  179.2400  143.0920 C   0  0  0  0  0  3  0  0  0  0  0  0
  189.1070  177.1600  144.7150 C   0  0  0  0  0  2  0  0  0  0  0  0
  187.3940  177.5340  141.5890 S   0  0  0  0  0  0  0  0  0  0  0  0
  186.5060  177.9000  140.4310 O   0  0  0  0  0  0  0  0  0  0  0  0
  188.7490  178.1610  141.4100 O   0  0  0  0  0  0  0  0  0  0  0  0
  187.5400  175.8100  141.7060 N   0  0  0  0  0  2  0  0  0  0  0  0
  189.2170  173.7940  139.0230 C   0  0  1  0  0  3  0  0  0  0  0  0
  188.6420  172.4620  138.5810 C   0  0  0  0  0  1  0  0  0  0  0  0
  188.0830  174.7250  139.4560 C   0  0  0  0  0  2  0  0  0  0  0  0
  189.9970  173.6120  140.1940 O   0  0  0  0  0  0  0  0  0  0  0  0
  189.4630  174.3030  141.2660 C   0  0  0  0  0  0  0  0  0  0  0  0
  188.3610  174.9480  140.9020 C   0  0  0  0  0  0  0  0  0  0  0  0
  188.8720  172.2020  142.9160 N   0  0  0  0  0  1  0  0  0  0  0  0
  190.1150  174.3170  142.6220 C   0  0  1  0  0  3  0  0  0  0  0  0
  189.7940  173.1580  143.5150 C   0  0  2  0  0  3  0  0  0  0  0  0
  190.9760  173.2100  142.7540 O   0  0  0  0  0  0  0  0  0  0  0  0
  190.2880  177.4100  147.4050 N   0  0  0  0  0  2  0  0  0  0  0  0
  191.2110  176.4320  147.9600 C   0  0  0  0  0  2  0  0  0  0  0  0
  192.4680  176.3590  147.1090 C   0  0  0  0  0  2  0  0  0  0  0  0
  192.9290  175.2430  144.9250 C   0  0  0  0  0  1  0  0  0  0  0  0
  192.5680  175.0250  146.3830 C   0  0  0  0  0  2  0  0  0  0  0  0
  1  6  1  6  0  0  0
  1  8  1  0  0  0  0
  2 12  1  1  0  0  0
  2  5  1  0  0  0  0
  2  1  1  0  0  0  0
  3 11  2  0  0  0  0
  3  4  1  0  0  0  0
  4  2  1  0  0  0  0
  4  6  2  0  0  0  0
  5 12  1  6  0  0  0
  5  9  1  0  0  0  0
  7  6  1  0  0  0  0
  9  8  1  0  0  0  0
  9 27  1  6  0  0  0
 10  7  2  0  0  0  0
 11 10  1  0  0  0  0
 13 16  1  0  0  0  0
 13  3  1  0  0  0  0
 14 13  2  0  0  0  0
 15 13  2  0  0  0  0
 17 18  1  1  0  0  0
 17 19  1  0  0  0  0
 17 20  1  0  0  0  0
 19 22  1  0  0  0  0
 20 21  1  0  0  0  0
 22 21  2  0  0  0  0
 22 16  1  0  0  0  0
 24 21  1  6  0  0  0
 24 26  1  0  0  0  0
 24 25  1  0  0  0  0
 25 23  1  6  0  0  0
 26 25  1  0  0  0  0
 27 28  1  0  0  0  0
 29 28  1  0  0  0  0
 30 31  1  0  0  0  0
 31 29  1  0  0  0  0
M  END
>  <MODEL>
2

>  <REMARK>
 VINA RESULT:      -6.8      2.875      6.523
  Name = 
  8 active torsions:
  status: ('A' for Active; 'I' for Inactive)
    1  A    between atoms: C_5  and  S_15
    2  A    between atoms: C_6  and  C_8
    3  A    between atoms: C_6  and  N_25
    4  A    between atoms: C_8  and  C_27
    5  A    between atoms: S_15  and  N_29
    6  A    between atoms: C_17  and  C_24
    7  A    between atoms: C_23  and  N_25
    8  A    between atoms: N_29  and  C_31
                            x       y       z     vdW  Elec       q    Type
                         _______ _______ _______ _____ _____    ______ ____

>  <TORSDO>
F 8

$$$$
=
 OpenBabel11062420573D

 31 36  0  0  1  0  0  0  0  0999 V2000
  193.1910  175.4310  143.5810 C   0  0  2  0  0  3  0  0  0  0  0  0
  192.8230  176.0340  144.8670 C   0  0  2  0  0  0  0  0  0  0  0  0
  190.6470  174.5090  145.6650 C   0  0  0  0  0  0  0  0  0  0  0  0
  191.7270  174.9940  144.9460 C   0  0  0  0  0  0  0  0  0  0  0  0
  194.2280  176.4700  145.3540 C   0  0  2  0  0  3  0  0  0  0  0  0
  192.1420  174.4020  143.7330 C   0  0  0  0  0  0  0  0  0  0  0  0
  191.5150  173.2950  143.2030 C   0  0  0  0  0  3  0  0  0  0  0  0
  194.4740  174.8710  143.6390 O   0  0  0  0  0  0  0  0  0  0  0  0
  195.1940  175.7980  144.3950 C   0  0  2  0  0  3  0  0  0  0  0  0
  190.4580  172.8030  143.9280 N   0  0  0  0  0  0  0  0  0  0  0  0
  190.0180  173.3680  145.1100 C   0  0  0  0  0  3  0  0  0  0  0  0
  193.5250  175.4930  146.1520 C   0  0  0  0  0  2  0  0  0  0  0  0
  190.0950  175.2380  147.1610 S   0  0  0  0  0  0  0  0  0  0  0  0
  188.8940  174.4870  147.6700 O   0  0  0  0  0  0  0  0  0  0  0  0
  191.2070  175.1640  148.1710 O   0  0  0  0  0  0  0  0  0  0  0  0
  189.6760  176.8920  146.8490 N   0  0  0  0  0  2  0  0  0  0  0  0
  186.2700  178.1960  145.9700 C   0  0  1  0  0  3  0  0  0  0  0  0
  185.0900  177.2530  145.8360 C   0  0  0  0  0  1  0  0  0  0  0  0
  187.2420  177.6570  147.0200 C   0  0  0  0  0  2  0  0  0  0  0  0
  187.0140  178.2020  144.7630 O   0  0  0  0  0  0  0  0  0  0  0  0
  188.2960  177.7230  144.9600 C   0  0  0  0  0  0  0  0  0  0  0  0
  188.4770  177.3860  146.2310 C   0  0  0  0  0  0  0  0  0  0  0  0
  188.0240  175.6620  143.1820 N   0  0  0  0  0  1  0  0  0  0  0  0
  189.3130  177.6590  143.8530 C   0  0  1  0  0  3  0  0  0  0  0  0
  189.1510  176.5340  142.8780 C   0  0  2  0  0  3  0  0  0  0  0  0
  188.6810  177.8320  142.6070 O   0  0  0  0  0  0  0  0  0  0  0  0
  196.2620  175.1280  145.1200 N   0  0  0  0  0  2  0  0  0  0  0  0
  196.3160  173.7640  144.6170 C   0  0  0  0  0  2  0  0  0  0  0  0
  196.5460  172.7930  145.7640 C   0  0  0  0  0  2  0  0  0  0  0  0
  194.2080  171.9410  145.5780 C   0  0  0  0  0  1  0  0  0  0  0  0
  195.6750  171.5530  145.6220 C   0  0  0  0  0  2  0  0  0  0  0  0
  1  8  1  1  0  0  0
  1  6  1  0  0  0  0
  1  2  1  0  0  0  0
  2  4  1  0  0  0  0
  2  5  1  0  0  0  0
  2 12  1  1  0  0  0
  3 13  1  0  0  0  0
  4  3  2  0  0  0  0
  5 12  1  1  0  0  0
  6  4  1  0  0  0  0
  7  6  2  0  0  0  0
  7 10  1  0  0  0  0
  8  9  1  0  0  0  0
  9 27  1  1  0  0  0
  9  5  1  0  0  0  0
 10 11  2  0  0  0  0
 11  3  1  0  0  0  0
 13 14  2  0  0  0  0
 13 15  2  0  0  0  0
 16 13  1  0  0  0  0
 17 18  1  6  0  0  0
 17 19  1  0  0  0  0
 20 21  1  0  0  0  0
 20 17  1  0  0  0  0
 21 22  2  0  0  0  0
 22 16  1  0  0  0  0
 22 19  1  0  0  0  0
 24 21  1  1  0  0  0
 25 23  1  1  0  0  0
 25 24  1  0  0  0  0
 26 25  1  0  0  0  0
 26 24  1  0  0  0  0
 28 27  1  0  0  0  0
 28 29  1  0  0  0  0
 30 31  1  0  0  0  0
 31 29  1  0  0  0  0
M  END
>  <MODEL>
3

>  <REMARK>
 VINA RESULT:      -6.7      1.295      1.353
  Name = 
  8 active torsions:
  status: ('A' for Active; 'I' for Inactive)
    1  A    between atoms: C_5  and  S_15
    2  A    between atoms: C_6  and  C_8
    3  A    between atoms: C_6  and  N_25
    4  A    between atoms: C_8  and  C_27
    5  A    between atoms: S_15  and  N_29
    6  A    between atoms: C_17  and  C_24
    7  A    between atoms: C_23  and  N_25
    8  A    between atoms: N_29  and  C_31
                            x       y       z     vdW  Elec       q    Type
                         _______ _______ _______ _____ _____    ______ ____

>  <TORSDO>
F 8

$$$$
=
 OpenBabel11062420573D

 31 36  0  0  1  0  0  0  0  0999 V2000
  185.1270  179.2300  144.5310 C   0  0  2  0  0  3  0  0  0  0  0  0
  186.2430  178.6650  143.7640 C   0  0  2  0  0  0  0  0  0  0  0  0
  187.5420  177.0810  145.6340 C   0  0  0  0  0  0  0  0  0  0  0  0
  186.6320  177.9300  145.0280 C   0  0  0  0  0  0  0  0  0  0  0  0
  185.5710  178.5730  142.3700 C   0  0  2  0  0  3  0  0  0  0  0  0
  185.5160  178.4470  145.7220 C   0  0  0  0  0  0  0  0  0  0  0  0
  185.2520  178.1210  147.0350 C   0  0  0  0  0  3  0  0  0  0  0  0
  183.8970  178.8040  144.0140 O   0  0  0  0  0  0  0  0  0  0  0  0
  184.1000  178.8400  142.6330 C   0  0  2  0  0  3  0  0  0  0  0  0
  186.1450  177.2630  147.6280 N   0  0  0  0  0  0  0  0  0  0  0  0
  187.2530  176.7520  146.9810 C   0  0  0  0  0  3  0  0  0  0  0  0
  185.9920  177.3360  142.9850 C   0  0  0  0  0  2  0  0  0  0  0  0
  188.9490  176.4440  144.8030 S   0  0  0  0  0  0  0  0  0  0  0  0
  188.5080  175.4610  143.7520 O   0  0  0  0  0  0  0  0  0  0  0  0
  189.6840  177.5850  144.1560 O   0  0  0  0  0  0  0  0  0  0  0  0
  189.9680  175.6560  145.9650 N   0  0  0  0  0  2  0  0  0  0  0  0
  193.6670  175.8610  146.5550 C   0  0  1  0  0  3  0  0  0  0  0  0
  194.4610  177.0660  146.0880 C   0  0  0  0  0  1  0  0  0  0  0  0
  192.2490  176.2920  146.9290 C   0  0  0  0  0  2  0  0  0  0  0  0
  193.4930  174.9580  145.4740 O   0  0  0  0  0  0  0  0  0  0  0  0
  192.1560  174.8110  145.1520 C   0  0  0  0  0  0  0  0  0  0  0  0
  191.4010  175.5610  145.9460 C   0  0  0  0  0  0  0  0  0  0  0  0
  192.1740  175.8080  142.6050 N   0  0  0  0  0  1  0  0  0  0  0  0
  191.6840  173.8800  144.0690 C   0  0  1  0  0  3  0  0  0  0  0  0
  191.7070  174.4300  142.6760 C   0  0  2  0  0  3  0  0  0  0  0  0
  192.7370  173.6100  143.1730 O   0  0  0  0  0  0  0  0  0  0  0  0
  183.2680  177.8420  141.9790 N   0  0  0  0  0  2  0  0  0  0  0  0
  182.8950  178.3930  140.6850 C   0  0  0  0  0  2  0  0  0  0  0  0
  181.4050  178.2100  140.4490 C   0  0  0  0  0  2  0  0  0  0  0  0
  180.0960  180.3310  140.5640 C   0  0  0  0  0  1  0  0  0  0  0  0
  180.5850  179.1260  141.3460 C   0  0  0  0  0  2  0  0  0  0  0  0
  1  8  1  6  0  0  0
  1  6  1  0  0  0  0
  2 12  1  1  0  0  0
  2  1  1  0  0  0  0
  2  4  1  0  0  0  0
  3 11  1  0  0  0  0
  4  3  2  0  0  0  0
  4  6  1  0  0  0  0
  5  9  1  0  0  0  0
  5 12  1  1  0  0  0
  5  2  1  0  0  0  0
  6  7  2  0  0  0  0
  7 10  1  0  0  0  0
  9 27  1  6  0  0  0
  9  8  1  0  0  0  0
 11 10  2  0  0  0  0
 13  3  1  0  0  0  0
 13 16  1  0  0  0  0
 14 13  2  0  0  0  0
 15 13  2  0  0  0  0
 17 18  1  6  0  0  0
 17 19  1  0  0  0  0
 20 17  1  0  0  0  0
 21 20  1  0  0  0  0
 21 22  2  0  0  0  0
 22 16  1  0  0  0  0
 22 19  1  0  0  0  0
 24 21  1  1  0  0  0
 25 23  1  1  0  0  0
 25 26  1  0  0  0  0
 25 24  1  0  0  0  0
 26 24  1  0  0  0  0
 28 27  1  0  0  0  0
 29 28  1  0  0  0  0
 29 31  1  0  0  0  0
 30 31  1  0  0  0  0
M  END
>  <MODEL>
4

>  <REMARK>
 VINA RESULT:      -6.5      2.907      9.072
  Name = 
  8 active torsions:
  status: ('A' for Active; 'I' for Inactive)
    1  A    between atoms: C_5  and  S_15
    2  A    between atoms: C_6  and  C_8
    3  A    between atoms: C_6  and  N_25
    4  A    between atoms: C_8  and  C_27
    5  A    between atoms: S_15  and  N_29
    6  A    between atoms: C_17  and  C_24
    7  A    between atoms: C_23  and  N_25
    8  A    between atoms: N_29  and  C_31
                            x       y       z     vdW  Elec       q    Type
                         _______ _______ _______ _____ _____    ______ ____

>  <TORSDO>
F 8

$$$$
=
 OpenBabel11062420573D

 31 36  0  0  1  0  0  0  0  0999 V2000
  189.4410  177.4440  146.7540 C   0  0  2  0  0  3  0  0  0  0  0  0
  189.7040  177.6040  145.3200 C   0  0  2  0  0  0  0  0  0  0  0  0
  191.9010  175.9620  144.9050 C   0  0  0  0  0  0  0  0  0  0  0  0
  190.8430  176.6250  145.5030 C   0  0  0  0  0  0  0  0  0  0  0  0
  188.2540  177.8200  144.8190 C   0  0  2  0  0  3  0  0  0  0  0  0
  190.5280  176.4490  146.8680 C   0  0  0  0  0  0  0  0  0  0  0  0
  191.2380  175.5920  147.6820 C   0  0  0  0  0  3  0  0  0  0  0  0
  188.1850  176.8610  146.9710 O   0  0  0  0  0  0  0  0  0  0  0  0
  187.3780  177.4710  146.0080 C   0  0  2  0  0  3  0  0  0  0  0  0
  192.2740  174.9200  147.0820 N   0  0  0  0  0  0  0  0  0  0  0  0
  192.6160  175.0810  145.7530 C   0  0  0  0  0  3  0  0  0  0  0  0
  188.9560  176.6560  144.3310 C   0  0  0  0  0  2  0  0  0  0  0  0
  192.3290  176.1790  143.2180 S   0  0  0  0  0  0  0  0  0  0  0  0
  191.9350  177.5620  142.7750 O   0  0  0  0  0  0  0  0  0  0  0  0
  193.8160  176.0030  143.0730 O   0  0  0  0  0  0  0  0  0  0  0  0
  191.4890  174.9890  142.2760 N   0  0  0  0  0  2  0  0  0  0  0  0
  191.4540  171.4250  143.4470 C   0  0  1  0  0  3  0  0  0  0  0  0
  191.9210  170.3060  142.5370 C   0  0  0  0  0  1  0  0  0  0  0  0
  192.2380  172.7020  143.1370 C   0  0  0  0  0  2  0  0  0  0  0  0
  190.1060  171.7520  143.1480 O   0  0  0  0  0  0  0  0  0  0  0  0
  189.9940  173.0510  142.6880 C   0  0  0  0  0  0  0  0  0  0  0  0
  191.1840  173.6360  142.6510 C   0  0  0  0  0  0  0  0  0  0  0  0
  189.1180  172.6650  140.1250 N   0  0  0  0  0  1  0  0  0  0  0  0
  188.6690  173.6710  142.3360 C   0  0  1  0  0  3  0  0  0  0  0  0
  188.1920  173.4460  140.9340 C   0  0  2  0  0  3  0  0  0  0  0  0
  187.7370  172.6650  142.0120 O   0  0  0  0  0  0  0  0  0  0  0  0
  186.3040  176.5730  145.6160 N   0  0  0  0  0  2  0  0  0  0  0  0
  185.1260  176.9800  146.3670 C   0  0  0  0  0  2  0  0  0  0  0  0
  185.0350  178.4970  146.4160 C   0  0  0  0  0  2  0  0  0  0  0  0
  185.0940  179.7590  144.2640 C   0  0  0  0  0  1  0  0  0  0  0  0
  184.2050  179.0400  145.2620 C   0  0  0  0  0  2  0  0  0  0  0  0
  1  6  1  6  0  0  0
  1  8  1  0  0  0  0
  2 12  1  1  0  0  0
  2  4  1  0  0  0  0
  2  1  1  0  0  0  0
  3  4  2  0  0  0  0
  3 11  1  0  0  0  0
  4  6  1  0  0  0  0
  5 12  1  6  0  0  0
  5  2  1  0  0  0  0
  5  9  1  0  0  0  0
  6  7  2  0  0  0  0
  9 27  1  6  0  0  0
  9  8  1  0  0  0  0
 10  7  1  0  0  0  0
 11 10  2  0  0  0  0
 13  3  1  0  0  0  0
 14 13  2  0  0  0  0
 15 13  2  0  0  0  0
 16 22  1  0  0  0  0
 16 13  1  0  0  0  0
 17 18  1  6  0  0  0
 19 17  1  0  0  0  0
 20 17  1  0  0  0  0
 21 20  1  0  0  0  0
 22 21  2  0  0  0  0
 22 19  1  0  0  0  0
 24 21  1  6  0  0  0
 25 23  1  6  0  0  0
 25 26  1  0  0  0  0
 25 24  1  0  0  0  0
 26 24  1  0  0  0  0
 27 28  1  0  0  0  0
 28 29  1  0  0  0  0
 30 31  1  0  0  0  0
 31 29  1  0  0  0  0
M  END
>  <MODEL>
5

>  <REMARK>
 VINA RESULT:      -6.4      2.648      7.324
  Name = 
  8 active torsions:
  status: ('A' for Active; 'I' for Inactive)
    1  A    between atoms: C_5  and  S_15
    2  A    between atoms: C_6  and  C_8
    3  A    between atoms: C_6  and  N_25
    4  A    between atoms: C_8  and  C_27
    5  A    between atoms: S_15  and  N_29
    6  A    between atoms: C_17  and  C_24
    7  A    between atoms: C_23  and  N_25
    8  A    between atoms: N_29  and  C_31
                            x       y       z     vdW  Elec       q    Type
                         _______ _______ _______ _____ _____    ______ ____

>  <TORSDO>
F 8

$$$$
=
 OpenBabel11062420573D

 31 36  0  0  1  0  0  0  0  0999 V2000
  192.8100  175.4080  143.4240 C   0  0  2  0  0  3  0  0  0  0  0  0
  192.3560  176.1560  144.6020 C   0  0  2  0  0  0  0  0  0  0  0  0
  190.3050  174.5710  145.5900 C   0  0  0  0  0  0  0  0  0  0  0  0
  191.3550  175.0420  144.8210 C   0  0  0  0  0  0  0  0  0  0  0  0
  193.7030  176.7870  145.0360 C   0  0  2  0  0  3  0  0  0  0  0  0
  191.8540  174.3190  143.7150 C   0  0  0  0  0  0  0  0  0  0  0  0
  191.3420  173.0930  143.3480 C   0  0  0  0  0  3  0  0  0  0  0  0
  194.1360  174.9830  143.5810 O   0  0  0  0  0  0  0  0  0  0  0  0
  194.7500  176.0730  144.2000 C   0  0  2  0  0  3  0  0  0  0  0  0
  190.3140  172.6180  144.1240 N   0  0  0  0  0  0  0  0  0  0  0  0
  189.7950  173.3080  145.2030 C   0  0  0  0  0  3  0  0  0  0  0  0
  193.0690  175.8770  145.9620 C   0  0  0  0  0  2  0  0  0  0  0  0
  189.6510  175.4580  146.9540 S   0  0  0  0  0  0  0  0  0  0  0  0
  188.5910  174.6290  147.6290 O   0  0  0  0  0  0  0  0  0  0  0  0
  190.7660  175.7440  147.9220 O   0  0  0  0  0  0  0  0  0  0  0  0
  188.9660  176.9420  146.3720 N   0  0  0  0  0  2  0  0  0  0  0  0
  187.0160  177.3180  143.1890 C   0  0  1  0  0  3  0  0  0  0  0  0
  186.9130  178.6640  142.4990 C   0  0  0  0  0  1  0  0  0  0  0  0
  188.3650  177.2080  143.9010 C   0  0  0  0  0  2  0  0  0  0  0  0
  186.0550  177.2410  144.2290 O   0  0  0  0  0  0  0  0  0  0  0  0
  186.6610  177.1140  145.4660 C   0  0  0  0  0  0  0  0  0  0  0  0
  187.9820  177.1010  145.3370 C   0  0  0  0  0  0  0  0  0  0  0  0
  185.5700  179.4070  146.4820 N   0  0  0  0  0  1  0  0  0  0  0  0
  185.8740  176.9690  146.7400 C   0  0  1  0  0  3  0  0  0  0  0  0
  185.2710  178.2280  147.2840 C   0  0  2  0  0  3  0  0  0  0  0  0
  184.5270  177.3140  146.5150 O   0  0  0  0  0  0  0  0  0  0  0  0
  195.8540  175.6190  145.0310 N   0  0  0  0  0  2  0  0  0  0  0  0
  196.7260  174.8320  144.1710 C   0  0  0  0  0  2  0  0  0  0  0  0
  197.6070  173.9230  145.0120 C   0  0  0  0  0  2  0  0  0  0  0  0
  196.6750  171.7820  145.8920 C   0  0  0  0  0  1  0  0  0  0  0  0
  196.8160  173.2730  146.1390 C   0  0  0  0  0  2  0  0  0  0  0  0
  1  8  1  1  0  0  0
  1  6  1  0  0  0  0
  1  2  1  0  0  0  0
  2  4  1  0  0  0  0
  2  5  1  0  0  0  0
  2 12  1  1  0  0  0
  3 13  1  0  0  0  0
  4  3  2  0  0  0  0
  5 12  1  1  0  0  0
  6  4  1  0  0  0  0
  7  6  2  0  0  0  0
  7 10  1  0  0  0  0
  8  9  1  0  0  0  0
  9 27  1  1  0  0  0
  9  5  1  0  0  0  0
 10 11  2  0  0  0  0
 11  3  1  0  0  0  0
 13 14  2  0  0  0  0
 13 15  2  0  0  0  0
 16 13  1  0  0  0  0
 17 18  1  1  0  0  0
 17 19  1  0  0  0  0
 17 20  1  0  0  0  0
 19 22  1  0  0  0  0
 20 21  1  0  0  0  0
 22 21  2  0  0  0  0
 22 16  1  0  0  0  0
 24 21  1  6  0  0  0
 24 25  1  0  0  0  0
 25 23  1  6  0  0  0
 26 24  1  0  0  0  0
 26 25  1  0  0  0  0
 28 29  1  0  0  0  0
 28 27  1  0  0  0  0
 29 31  1  0  0  0  0
 30 31  1  0  0  0  0
M  END
>  <MODEL>
6

>  <REMARK>
 VINA RESULT:      -6.4      1.589      2.562
  Name = 
  8 active torsions:
  status: ('A' for Active; 'I' for Inactive)
    1  A    between atoms: C_5  and  S_15
    2  A    between atoms: C_6  and  C_8
    3  A    between atoms: C_6  and  N_25
    4  A    between atoms: C_8  and  C_27
    5  A    between atoms: S_15  and  N_29
    6  A    between atoms: C_17  and  C_24
    7  A    between atoms: C_23  and  N_25
    8  A    between atoms: N_29  and  C_31
                            x       y       z     vdW  Elec       q    Type
                         _______ _______ _______ _____ _____    ______ ____

>  <TORSDO>
F 8

$$$$
=
 OpenBabel11062420573D

 31 36  0  0  1  0  0  0  0  0999 V2000
  188.1440  176.8200  142.1810 C   0  0  2  0  0  3  0  0  0  0  0  0
  187.8180  175.9000  143.2760 C   0  0  2  0  0  0  0  0  0  0  0  0
  189.9380  176.2470  145.0310 C   0  0  0  0  0  0  0  0  0  0  0  0
  189.0880  176.3770  143.9450 C   0  0  0  0  0  0  0  0  0  0  0  0
  186.2710  175.9880  143.2270 C   0  0  2  0  0  3  0  0  0  0  0  0
  189.3440  177.2940  142.9020 C   0  0  0  0  0  0  0  0  0  0  0  0
  190.4410  178.1290  142.9110 C   0  0  0  0  0  3  0  0  0  0  0  0
  187.1800  177.8300  142.0700 O   0  0  0  0  0  0  0  0  0  0  0  0
  185.9800  177.1530  142.2990 C   0  0  2  0  0  3  0  0  0  0  0  0
  191.2710  178.0130  143.9980 N   0  0  0  0  0  0  0  0  0  0  0  0
  191.0560  177.1160  145.0280 C   0  0  0  0  0  3  0  0  0  0  0  0
  186.9220  176.4370  144.4360 C   0  0  0  0  0  2  0  0  0  0  0  0
  189.6570  175.1010  146.3280 S   0  0  0  0  0  0  0  0  0  0  0  0
  190.7140  175.2740  147.3860 O   0  0  0  0  0  0  0  0  0  0  0  0
  188.2990  175.3650  146.9180 O   0  0  0  0  0  0  0  0  0  0  0  0
  189.7250  173.4960  145.6740 N   0  0  0  0  0  2  0  0  0  0  0  0
  190.4190  172.3100  142.1830 C   0  0  1  0  0  3  0  0  0  0  0  0
  190.4770  170.8290  141.8650 C   0  0  0  0  0  1  0  0  0  0  0  0
  189.4220  172.5540  143.3160 C   0  0  0  0  0  2  0  0  0  0  0  0
  191.6680  172.7330  142.7070 O   0  0  0  0  0  0  0  0  0  0  0  0
  191.5390  173.1830  144.0090 C   0  0  0  0  0  0  0  0  0  0  0  0
  190.2780  173.0920  144.4110 C   0  0  0  0  0  0  0  0  0  0  0  0
  193.3730  171.3550  144.8910 N   0  0  0  0  0  1  0  0  0  0  0  0
  192.7020  173.7300  144.7920 C   0  0  1  0  0  3  0  0  0  0  0  0
  193.7070  172.7240  145.2620 C   0  0  2  0  0  3  0  0  0  0  0  0
  193.9050  173.4900  144.0990 O   0  0  0  0  0  0  0  0  0  0  0  0
  185.0030  178.0540  142.8890 N   0  0  0  0  0  2  0  0  0  0  0  0
  185.7150  179.2780  143.2240 C   0  0  0  0  0  2  0  0  0  0  0  0
  185.3980  179.6920  144.6530 C   0  0  0  0  0  2  0  0  0  0  0  0
  184.4440  178.4070  146.5670 C   0  0  0  0  0  1  0  0  0  0  0  0
  184.1710  178.9630  145.1810 C   0  0  0  0  0  2  0  0  0  0  0  0
  1  8  1  1  0  0  0
  1  6  1  0  0  0  0
  1  2  1  0  0  0  0
  2  4  1  0  0  0  0
  2 12  1  1  0  0  0
  3 13  1  0  0  0  0
  4  3  2  0  0  0  0
  5  2  1  0  0  0  0
  5 12  1  1  0  0  0
  6  7  2  0  0  0  0
  6  4  1  0  0  0  0
  7 10  1  0  0  0  0
  8  9  1  0  0  0  0
  9 27  1  1  0  0  0
  9  5  1  0  0  0  0
 10 11  2  0  0  0  0
 11  3  1  0  0  0  0
 13 15  2  0  0  0  0
 13 14  2  0  0  0  0
 16 13  1  0  0  0  0
 17 18  1  1  0  0  0
 17 20  1  0  0  0  0
 17 19  1  0  0  0  0
 19 22  1  0  0  0  0
 20 21  1  0  0  0  0
 21 22  2  0  0  0  0
 22 16  1  0  0  0  0
 24 21  1  6  0  0  0
 24 25  1  0  0  0  0
 25 23  1  6  0  0  0
 26 24  1  0  0  0  0
 26 25  1  0  0  0  0
 27 28  1  0  0  0  0
 28 29  1  0  0  0  0
 29 31  1  0  0  0  0
 31 30  1  0  0  0  0
M  END
>  <MODEL>
7

>  <REMARK>
 VINA RESULT:      -6.4      2.219      7.675
  Name = 
  8 active torsions:
  status: ('A' for Active; 'I' for Inactive)
    1  A    between atoms: C_5  and  S_15
    2  A    between atoms: C_6  and  C_8
    3  A    between atoms: C_6  and  N_25
    4  A    between atoms: C_8  and  C_27
    5  A    between atoms: S_15  and  N_29
    6  A    between atoms: C_17  and  C_24
    7  A    between atoms: C_23  and  N_25
    8  A    between atoms: N_29  and  C_31
                            x       y       z     vdW  Elec       q    Type
                         _______ _______ _______ _____ _____    ______ ____

>  <TORSDO>
F 8

$$$$
=
 OpenBabel11062420573D

 31 36  0  0  1  0  0  0  0  0999 V2000
  192.3100  173.6860  143.5850 C   0  0  2  0  0  3  0  0  0  0  0  0
  191.4320  173.6220  144.7580 C   0  0  2  0  0  0  0  0  0  0  0  0
  190.8400  176.2900  145.2360 C   0  0  0  0  0  0  0  0  0  0  0  0
  191.3420  175.1300  144.6710 C   0  0  0  0  0  0  0  0  0  0  0  0
  190.7330  172.2680  144.4780 C   0  0  2  0  0  3  0  0  0  0  0  0
  192.1440  175.1530  143.5080 C   0  0  0  0  0  0  0  0  0  0  0  0
  192.4560  176.3250  142.8540 C   0  0  0  0  0  3  0  0  0  0  0  0
  191.7240  173.0450  142.4850 O   0  0  0  0  0  0  0  0  0  0  0  0
  191.1250  171.9190  143.0530 C   0  0  2  0  0  3  0  0  0  0  0  0
  191.9400  177.4720  143.4040 N   0  0  0  0  0  0  0  0  0  0  0  0
  191.1650  177.4850  144.5480 C   0  0  0  0  0  3  0  0  0  0  0  0
  189.9000  173.4480  144.5130 C   0  0  0  0  0  2  0  0  0  0  0  0
  189.8620  176.2930  146.6920 S   0  0  0  0  0  0  0  0  0  0  0  0
  190.2820  175.1530  147.5800 O   0  0  0  0  0  0  0  0  0  0  0  0
  190.0690  177.6000  147.4080 O   0  0  0  0  0  0  0  0  0  0  0  0
  188.1970  176.1150  146.2400 N   0  0  0  0  0  2  0  0  0  0  0  0
  185.4910  178.6880  146.6030 C   0  0  1  0  0  3  0  0  0  0  0  0
  184.0300  178.2920  146.5220 C   0  0  0  0  0  1  0  0  0  0  0  0
  186.3030  177.5380  147.2010 C   0  0  0  0  0  2  0  0  0  0  0  0
  186.0130  178.8510  145.2930 O   0  0  0  0  0  0  0  0  0  0  0  0
  187.0190  177.9380  145.0360 C   0  0  0  0  0  0  0  0  0  0  0  0
  187.2170  177.1550  146.0890 C   0  0  0  0  0  0  0  0  0  0  0  0
  185.9410  176.4160  143.0340 N   0  0  0  0  0  1  0  0  0  0  0  0
  187.7740  177.9160  143.7350 C   0  0  1  0  0  3  0  0  0  0  0  0
  187.1730  177.0890  142.6410 C   0  0  2  0  0  3  0  0  0  0  0  0
  186.9900  178.4820  142.7120 O   0  0  0  0  0  0  0  0  0  0  0  0
  189.9590  171.5290  142.2760 N   0  0  0  0  0  2  0  0  0  0  0  0
  190.3910  171.4530  140.8880 C   0  0  0  0  0  2  0  0  0  0  0  0
  189.4730  172.2870  140.0100 C   0  0  0  0  0  2  0  0  0  0  0  0
  188.8710  174.5430  140.8900 C   0  0  0  0  0  1  0  0  0  0  0  0
  188.4760  173.0790  140.8440 C   0  0  0  0  0  2  0  0  0  0  0  0
  1  8  1  6  0  0  0
  1  2  1  0  0  0  0
  2 12  1  6  0  0  0
  3 13  1  0  0  0  0
  4  2  1  0  0  0  0
  4  3  1  0  0  0  0
  5 12  1  6  0  0  0
  5  2  1  0  0  0  0
  6  1  1  0  0  0  0
  6  4  2  0  0  0  0
  7 10  2  0  0  0  0
  7  6  1  0  0  0  0
  8  9  1  0  0  0  0
  9 27  1  6  0  0  0
  9  5  1  0  0  0  0
 10 11  1  0  0  0  0
 11  3  2  0  0  0  0
 13 15  2  0  0  0  0
 13 14  2  0  0  0  0
 16 13  1  0  0  0  0
 17 18  1  6  0  0  0
 17 19  1  0  0  0  0
 20 17  1  0  0  0  0
 21 20  1  0  0  0  0
 21 22  2  0  0  0  0
 22 16  1  0  0  0  0
 22 19  1  0  0  0  0
 24 21  1  1  0  0  0
 25 26  1  0  0  0  0
 25 23  1  1  0  0  0
 25 24  1  0  0  0  0
 26 24  1  0  0  0  0
 28 27  1  0  0  0  0
 29 31  1  0  0  0  0
 29 28  1  0  0  0  0
 31 30  1  0  0  0  0
M  END
>  <MODEL>
8

>  <REMARK>
 VINA RESULT:      -6.4      2.218      3.742
  Name = 
  8 active torsions:
  status: ('A' for Active; 'I' for Inactive)
    1  A    between atoms: C_5  and  S_15
    2  A    between atoms: C_6  and  C_8
    3  A    between atoms: C_6  and  N_25
    4  A    between atoms: C_8  and  C_27
    5  A    between atoms: S_15  and  N_29
    6  A    between atoms: C_17  and  C_24
    7  A    between atoms: C_23  and  N_25
    8  A    between atoms: N_29  and  C_31
                            x       y       z     vdW  Elec       q    Type
                         _______ _______ _______ _____ _____    ______ ____

>  <TORSDO>
F 8

$$$$
=
 OpenBabel11062420573D

 31 36  0  0  1  0  0  0  0  0999 V2000
  189.4270  177.5540  146.7060 C   0  0  2  0  0  3  0  0  0  0  0  0
  189.6220  177.5300  145.2520 C   0  0  2  0  0  0  0  0  0  0  0  0
  191.7580  175.7880  144.9410 C   0  0  0  0  0  0  0  0  0  0  0  0
  190.7460  176.5490  145.5020 C   0  0  0  0  0  0  0  0  0  0  0  0
  188.1540  177.7250  144.7970 C   0  0  2  0  0  3  0  0  0  0  0  0
  190.4960  176.5500  146.8910 C   0  0  0  0  0  0  0  0  0  0  0  0
  191.2260  175.7790  147.7700 C   0  0  0  0  0  3  0  0  0  0  0  0
  188.1710  177.0380  147.0510 O   0  0  0  0  0  0  0  0  0  0  0  0
  187.3310  177.5490  146.0600 C   0  0  2  0  0  3  0  0  0  0  0  0
  192.2160  175.0100  147.2100 N   0  0  0  0  0  0  0  0  0  0  0  0
  192.4950  174.9970  145.8570 C   0  0  0  0  0  3  0  0  0  0  0  0
  188.8040  176.4900  144.4240 C   0  0  0  0  0  2  0  0  0  0  0  0
  192.1060  175.7850  143.2220 S   0  0  0  0  0  0  0  0  0  0  0  0
  190.9630  175.1450  142.4810 O   0  0  0  0  0  0  0  0  0  0  0  0
  192.2780  177.2070  142.7630 O   0  0  0  0  0  0  0  0  0  0  0  0
  193.5660  174.8880  142.9550 N   0  0  0  0  0  2  0  0  0  0  0  0
  196.5630  176.4910  141.3670 C   0  0  1  0  0  3  0  0  0  0  0  0
  197.3610  175.7610  140.3040 C   0  0  0  0  0  1  0  0  0  0  0  0
  195.0940  176.0760  141.2840 C   0  0  0  0  0  2  0  0  0  0  0  0
  196.9830  176.0660  142.6540 O   0  0  0  0  0  0  0  0  0  0  0  0
  195.9560  175.4400  143.3360 C   0  0  0  0  0  0  0  0  0  0  0  0
  194.8560  175.4080  142.5940 C   0  0  0  0  0  0  0  0  0  0  0  0
  196.6710  172.8120  143.5930 N   0  0  0  0  0  1  0  0  0  0  0  0
  196.1160  174.9280  144.7420 C   0  0  1  0  0  3  0  0  0  0  0  0
  196.5180  173.4910  144.8740 C   0  0  2  0  0  3  0  0  0  0  0  0
  197.4520  174.5390  144.9640 O   0  0  0  0  0  0  0  0  0  0  0  0
  186.2190  176.6410  145.8320 N   0  0  0  0  0  2  0  0  0  0  0  0
  185.1220  177.1080  146.6660 C   0  0  0  0  0  2  0  0  0  0  0  0
  184.9890  178.6180  146.5570 C   0  0  0  0  0  2  0  0  0  0  0  0
  184.8130  179.6080  144.2740 C   0  0  0  0  0  1  0  0  0  0  0  0
  184.0390  179.0110  145.4350 C   0  0  0  0  0  2  0  0  0  0  0  0
  1  6  1  1  0  0  0
  1  8  1  0  0  0  0
  2 12  1  1  0  0  0
  2  4  1  0  0  0  0
  2  1  1  0  0  0  0
  3  4  2  0  0  0  0
  3 11  1  0  0  0  0
  4  6  1  0  0  0  0
  5 12  1  6  0  0  0
  5  2  1  0  0  0  0
  5  9  1  0  0  0  0
  6  7  2  0  0  0  0
  9 27  1  6  0  0  0
  9  8  1  0  0  0  0
 10  7  1  0  0  0  0
 11 10  2  0  0  0  0
 13  3  1  0  0  0  0
 14 13  2  0  0  0  0
 15 13  2  0  0  0  0
 16 13  1  0  0  0  0
 17 18  1  6  0  0  0
 17 20  1  0  0  0  0
 19 17  1  0  0  0  0
 19 22  1  0  0  0  0
 20 21  1  0  0  0  0
 22 16  1  0  0  0  0
 22 21  2  0  0  0  0
 24 21  1  6  0  0  0
 24 25  1  0  0  0  0
 24 26  1  0  0  0  0
 25 23  1  6  0  0  0
 25 26  1  0  0  0  0
 27 28  1  0  0  0  0
 29 28  1  0  0  0  0
 30 31  1  0  0  0  0
 31 29  1  0  0  0  0
M  END
>  <MODEL>
9

>  <REMARK>
 VINA RESULT:      -6.4      2.561      8.661
  Name = 
  8 active torsions:
  status: ('A' for Active; 'I' for Inactive)
    1  A    between atoms: C_5  and  S_15
    2  A    between atoms: C_6  and  C_8
    3  A    between atoms: C_6  and  N_25
    4  A    between atoms: C_8  and  C_27
    5  A    between atoms: S_15  and  N_29
    6  A    between atoms: C_17  and  C_24
    7  A    between atoms: C_23  and  N_25
    8  A    between atoms: N_29  and  C_31
                            x       y       z     vdW  Elec       q    Type
                         _______ _______ _______ _____ _____    ______ ____

>  <TORSDO>
F 8

$$$$
