=
 OpenBabel11062421283D

 66 70  0  0  1  0  0  0  0  0999 V2000
  190.9790  173.1760  142.6530 C   0  0  0  0  0  0  0  0  0  0  0  0
  190.0030  172.1910  142.4200 C   0  0  0  0  0  0  0  0  0  0  0  0
  188.6740  172.5630  142.2000 C   0  0  0  0  0  3  0  0  0  0  0  0
  190.6030  174.5280  142.6780 C   0  0  0  0  0  3  0  0  0  0  0  0
  188.3060  173.9110  142.2280 C   0  0  0  0  0  3  0  0  0  0  0  0
  189.2710  174.8950  142.4680 C   0  0  0  0  0  0  0  0  0  0  0  0
  192.3090  172.7900  142.8550 O   0  0  0  0  0  0  0  0  0  0  0  0
  193.0550  173.1240  144.0210 C   0  0  2  0  0  3  0  0  0  0  0  0
  192.9070  170.7060  144.6190 O   0  0  0  0  0  0  0  0  0  0  0  0
  193.6410  171.8840  144.6210 C   0  0  0  0  0  0  0  0  0  0  0  0
  194.7970  171.8980  145.1210 O   0  0  0  0  0  1  0  0  0  0  0  0
  192.1320  173.8210  145.0080 C   0  0  0  0  0  2  0  0  0  0  0  0
  192.9200  174.5020  146.1250 C   0  0  0  0  0  2  0  0  0  0  0  0
  191.6920  176.7000  145.9530 C   0  0  0  0  0  0  0  0  0  0  0  0
  192.4950  177.2750  143.5340 S   0  0  0  0  0  0  0  0  0  0  0  0
  194.7320  176.0730  144.2730 O   0  0  0  0  0  0  0  0  0  0  0  0
  193.5910  176.3620  144.6010 C   0  0  0  0  0  0  0  0  0  0  0  0
  193.0280  176.0200  145.9360 C   0  0  2  0  0  3  0  0  0  0  0  0
  191.3390  177.3170  144.8710 N   0  0  0  0  0  0  0  0  0  0  0  0
  190.7940  176.6550  147.1150 C   0  0  0  0  0  0  0  0  0  0  0  0
  191.1960  176.1700  148.2080 O   0  0  0  0  0  0  0  0  0  0  0  0
  189.4850  177.1290  146.9880 O   0  0  0  0  0  0  0  0  0  0  0  0
  188.3460  176.2750  147.0580 C   0  0  2  0  0  3  0  0  0  0  0  0
  188.3820  175.2430  145.9440 C   0  0  0  0  0  1  0  0  0  0  0  0
  185.8510  179.0810  147.5610 C   0  0  0  0  0  3  0  0  0  0  0  0
  187.0290  178.3270  147.6040 C   0  0  0  0  0  3  0  0  0  0  0  0
  185.9540  176.5780  146.3150 C   0  0  0  0  0  3  0  0  0  0  0  0
  184.7780  177.3320  146.2710 C   0  0  0  0  0  3  0  0  0  0  0  0
  184.7280  178.5840  146.8930 C   0  0  0  0  0  3  0  0  0  0  0  0
  187.0880  177.0770  146.9740 C   0  0  0  0  0  0  0  0  0  0  0  0
  188.8810  176.3340  142.5280 C   0  0  0  0  0  2  0  0  0  0  0  0
  186.7600  177.6430  141.6270 C   0  0  2  0  0  3  0  0  0  0  0  0
  187.7480  175.8190  140.3430 O   0  0  0  0  0  1  0  0  0  0  0  0
  187.8740  176.6820  141.4320 C   0  0  2  0  0  0  0  0  0  0  0  0
  187.9790  178.0210  141.0170 O   0  0  0  0  0  0  0  0  0  0  0  0
  186.7000  178.2040  143.0420 C   0  0  0  0  0  2  0  0  0  0  0  0
  184.2550  178.5380  142.7040 O   0  0  0  0  0  0  0  0  0  0  0  0
  185.4570  179.0010  143.2250 C   0  0  0  0  0  0  0  0  0  0  0  0
  185.4910  180.0840  143.8680 O   0  0  0  0  0  1  0  0  0  0  0  0
  190.3840  170.7510  142.3450 C   0  0  0  0  0  2  0  0  0  0  0  0
  191.2920  170.5200  141.1500 C   0  0  0  0  0  2  0  0  0  0  0  0
  190.8270  171.3370  139.9450 C   0  0  2  0  0  3  0  0  0  0  0  0
  190.4060  169.3190  139.1710 O   0  0  0  0  0  1  0  0  0  0  0  0
  190.0480  170.5840  139.0410 O   0  0  0  0  0  0  0  0  0  0  0  0
  191.9490  172.1500  139.2700 C   0  0  1  0  0  3  0  0  0  0  0  0
  195.6200  172.0130  140.5120 C   0  0  0  0  0  1  0  0  0  0  0  0
  194.2930  172.5610  140.1250 C   0  0  0  0  0  0  0  0  0  0  0  0
  194.0790  173.7980  140.2150 O   0  0  0  0  0  0  0  0  0  0  0  0
  193.2820  171.6810  139.6340 N   0  0  0  0  0  2  0  0  0  0  0  0
  191.7760  172.2630  137.7470 C   0  0  1  0  0  3  0  0  0  0  0  0
  191.2690  174.9480  135.3480 C   0  0  0  0  0  3  0  0  0  0  0  0
  190.6740  174.3450  136.5800 C   0  0  2  0  0  3  0  0  0  0  0  0
  192.9820  173.9460  136.3230 N   0  0  0  0  0  0  0  0  0  0  0  0
  192.5270  174.6980  135.2420 N   0  0  0  0  0  0  0  0  0  0  0  0
  191.9130  173.7380  137.2940 C   0  0  2  0  0  3  0  0  0  0  0  0
  189.6280  172.7780  134.9180 O   0  0  0  0  0  0  0  0  0  0  0  0
  188.6970  173.0720  136.9870 O   0  0  0  0  0  1  0  0  0  0  0  0
  189.6100  173.3670  136.1770 C   0  0  0  0  0  0  0  0  0  0  0  0
  194.8580  175.0190  137.2410 O   0  0  0  0  0  1  0  0  0  0  0  0
  194.4040  173.8430  136.6390 C   0  0  2  0  0  3  0  0  0  0  0  0
  195.2220  173.5230  135.3910 C   0  0  0  0  0  2  0  0  0  0  0  0
  196.2920  172.4720  135.6580 C   0  0  0  0  0  2  0  0  0  0  0  0
  196.3410  171.4720  134.5170 C   0  0  0  0  0  2  0  0  0  0  0  0
  195.6540  170.1810  134.9180 C   0  0  0  0  0  1  0  0  0  0  0  0
  192.0090  170.4620  136.0490 C   0  0  0  0  0  1  0  0  0  0  0  0
  192.7600  171.3500  137.0200 C   0  0  0  0  0  2  0  0  0  0  0  0
  1  4  1  0  0  0  0
  1  7  1  0  0  0  0
  2  1  2  0  0  0  0
  3  5  2  0  0  0  0
  3  2  1  0  0  0  0
  5  6  1  0  0  0  0
  6 31  1  0  0  0  0
  6  4  2  0  0  0  0
  7  8  1  0  0  0  0
  8 10  1  0  0  0  0
  8 12  1  1  0  0  0
  9 10  2  0  0  0  0
 10 11  1  0  0  0  0
 12 13  1  0  0  0  0
 14 20  1  0  0  0  0
 15 17  1  0  0  0  0
 15 19  1  0  0  0  0
 16 17  2  0  0  0  0
 17 18  1  0  0  0  0
 18 14  1  0  0  0  0
 18 13  1  6  0  0  0
 19 14  2  0  0  0  0
 20 21  2  0  0  0  0
 22 23  1  0  0  0  0
 22 20  1  0  0  0  0
 23 24  1  6  0  0  0
 25 26  1  0  0  0  0
 27 30  1  0  0  0  0
 28 27  2  0  0  0  0
 28 29  1  0  0  0  0
 29 25  2  0  0  0  0
 30 23  1  0  0  0  0
 30 26  2  0  0  0  0
 32 36  1  1  0  0  0
 34 33  1  6  0  0  0
 34 32  1  0  0  0  0
 34 31  1  0  0  0  0
 35 34  1  0  0  0  0
 35 32  1  0  0  0  0
 36 38  1  0  0  0  0
 37 38  2  0  0  0  0
 38 39  1  0  0  0  0
 40  2  1  0  0  0  0
 41 40  1  0  0  0  0
 42 41  1  1  0  0  0
 44 43  1  0  0  0  0
 44 42  1  0  0  0  0
 45 49  1  6  0  0  0
 45 42  1  0  0  0  0
 47 48  2  0  0  0  0
 47 46  1  0  0  0  0
 49 47  1  0  0  0  0
 50 66  1  6  0  0  0
 50 45  1  0  0  0  0
 51 52  1  0  0  0  0
 52 58  1  6  0  0  0
 52 55  1  0  0  0  0
 53 60  1  0  0  0  0
 53 55  1  0  0  0  0
 54 51  2  0  0  0  0
 54 53  1  0  0  0  0
 55 50  1  6  0  0  0
 56 58  2  0  0  0  0
 58 57  1  0  0  0  0
 60 59  1  6  0  0  0
 61 62  1  0  0  0  0
 61 60  1  0  0  0  0
 63 64  1  0  0  0  0
 63 62  1  0  0  0  0
 65 66  1  0  0  0  0
M  END
>  <MODEL>
1

>  <REMARK>
 VINA RESULT:      -5.9      0.000      0.000
  Name = 
  28 active torsions:
  status: ('A' for Active; 'I' for Inactive)
    1  A    between atoms: C_1  and  C_55
    2  A    between atoms: C_3  and  C_14
    3  A    between atoms: C_3  and  C_24
    4  A    between atoms: O_4  and  C_10
    5  A    between atoms: O_4  and  C_63
    6  A    between atoms: C_7  and  C_53
    7  A    between atoms: C_7  and  C_66
    8  A    between atoms: C_8  and  C_62
    9  A    between atoms: C_11  and  C_61
   10  A    between atoms: C_12  and  C_28
   11  A    between atoms: C_12  and  C_52
   12  A    between atoms: C_13  and  N_23
   13  A    between atoms: C_13  and  C_57
   14  A    between atoms: C_14  and  C_27
   15  A    between atoms: C_14  and  O_37
   16  A    between atoms: C_15  and  O_41
   17  A    between atoms: C_15  and  C_48
   18  A    between atoms: C_16  and  C_58
   19  A    between atoms: C_16  and  C_63
   20  A    between atoms: C_20  and  C_35
   21  A    between atoms: C_20  and  C_57
   22  A    between atoms: C_24  and  C_26
   23  A    between atoms: C_27  and  N_46
   24  A    between atoms: C_27  and  C_62
   25  A    between atoms: C_38  and  C_62
   26  A    between atoms: O_41  and  C_55
   27  A    between atoms: C_45  and  C_58
   28  A    between atoms: C_60  and  C_63
                            x       y       z     vdW  Elec       q    Type
                         _______ _______ _______ _____ _____    ______ ____

>  <TORSDO>
F 28

$$$$
=
 OpenBabel11062421283D

 66 70  0  0  1  0  0  0  0  0999 V2000
  192.7820  173.3830  140.5770 C   0  0  0  0  0  0  0  0  0  0  0  0
  192.7540  173.2390  141.9750 C   0  0  0  0  0  0  0  0  0  0  0  0
  193.6600  173.9480  142.7690 C   0  0  0  0  0  3  0  0  0  0  0  0
  193.7360  174.2280  139.9900 C   0  0  0  0  0  3  0  0  0  0  0  0
  194.6080  174.7870  142.1770 C   0  0  0  0  0  3  0  0  0  0  0  0
  194.6470  174.9270  140.7850 C   0  0  0  0  0  0  0  0  0  0  0  0
  191.8590  172.6790  139.7960 O   0  0  0  0  0  0  0  0  0  0  0  0
  191.9990  172.4910  138.3920 C   0  0  2  0  0  3  0  0  0  0  0  0
  189.9350  171.7630  137.1930 O   0  0  0  0  0  0  0  0  0  0  0  0
  190.7040  172.7980  137.7070 C   0  0  0  0  0  0  0  0  0  0  0  0
  190.3010  173.9870  137.5980 O   0  0  0  0  0  1  0  0  0  0  0  0
  192.4240  171.0550  138.1320 C   0  0  0  0  0  2  0  0  0  0  0  0
  193.9420  170.9370  137.9970 C   0  0  0  0  0  2  0  0  0  0  0  0
  195.8040  169.6620  139.1260 C   0  0  0  0  0  0  0  0  0  0  0  0
  196.4290  168.1980  137.0540 S   0  0  0  0  0  0  0  0  0  0  0  0
  193.8360  168.2820  136.5420 O   0  0  0  0  0  0  0  0  0  0  0  0
  194.7290  168.6820  137.2740 C   0  0  0  0  0  0  0  0  0  0  0  0
  194.4740  169.5690  138.4410 C   0  0  2  0  0  3  0  0  0  0  0  0
  196.7960  169.0570  138.5550 N   0  0  0  0  0  0  0  0  0  0  0  0
  196.0070  170.4250  140.3660 C   0  0  0  0  0  0  0  0  0  0  0  0
  195.9640  171.6860  140.3480 O   0  0  0  0  0  0  0  0  0  0  0  0
  196.2760  169.7410  141.5550 O   0  0  0  0  0  0  0  0  0  0  0  0
  195.2940  169.5430  142.5680 C   0  0  2  0  0  3  0  0  0  0  0  0
  193.8960  169.5890  141.9750 C   0  0  0  0  0  1  0  0  0  0  0  0
  194.4980  171.7300  145.5570 C   0  0  0  0  0  3  0  0  0  0  0  0
  194.4000  170.7460  144.5670 C   0  0  0  0  0  3  0  0  0  0  0  0
  196.5570  171.4170  143.6910 C   0  0  0  0  0  3  0  0  0  0  0  0
  196.6550  172.3990  144.6810 C   0  0  0  0  0  3  0  0  0  0  0  0
  195.6260  172.5540  145.6150 C   0  0  0  0  0  3  0  0  0  0  0  0
  195.4330  170.5800  143.6360 C   0  0  0  0  0  0  0  0  0  0  0  0
  195.6740  175.7990  140.1440 C   0  0  0  0  0  2  0  0  0  0  0  0
  197.5490  174.5220  138.7740 C   0  0  2  0  0  3  0  0  0  0  0  0
  197.6170  174.6130  141.2110 O   0  0  0  0  0  1  0  0  0  0  0  0
  197.0220  175.0860  140.0420 C   0  0  2  0  0  0  0  0  0  0  0  0
  197.9410  175.7950  139.2490 O   0  0  0  0  0  0  0  0  0  0  0  0
  196.5860  174.6850  137.6050 C   0  0  0  0  0  2  0  0  0  0  0  0
  197.0240  172.2940  137.0600 O   0  0  0  0  0  1  0  0  0  0  0  0
  196.7890  173.5910  136.6180 C   0  0  0  0  0  0  0  0  0  0  0  0
  196.7270  173.8350  135.3840 O   0  0  0  0  0  0  0  0  0  0  0  0
  191.7230  172.3800  142.6270 C   0  0  0  0  0  2  0  0  0  0  0  0
  190.5470  173.2330  143.0670 C   0  0  0  0  0  2  0  0  0  0  0  0
  190.5960  173.4980  144.5720 C   0  0  2  0  0  3  0  0  0  0  0  0
  189.3050  171.7140  144.5570 O   0  0  0  0  0  1  0  0  0  0  0  0
  189.6250  172.7670  145.2880 O   0  0  0  0  0  0  0  0  0  0  0  0
  190.6470  174.9930  144.9420 C   0  0  1  0  0  3  0  0  0  0  0  0
  194.1060  176.0150  146.3660 C   0  0  0  0  0  1  0  0  0  0  0  0
  192.7040  175.5230  146.3140 C   0  0  0  0  0  0  0  0  0  0  0  0
  192.1330  175.1520  147.3730 O   0  0  0  0  0  0  0  0  0  0  0  0
  192.0110  175.4980  145.0670 N   0  0  0  0  0  2  0  0  0  0  0  0
  189.7930  175.8720  144.0140 C   0  0  1  0  0  3  0  0  0  0  0  0
  186.2910  176.2950  143.1340 C   0  0  0  0  0  3  0  0  0  0  0  0
  187.4910  175.4630  142.8120 C   0  0  2  0  0  3  0  0  0  0  0  0
  187.5350  176.4400  144.9560 N   0  0  0  0  0  0  0  0  0  0  0  0
  186.3600  176.8170  144.3080 N   0  0  0  0  0  0  0  0  0  0  0  0
  188.2960  175.4990  144.1410 C   0  0  2  0  0  3  0  0  0  0  0  0
  188.1000  177.4100  141.3450 O   0  0  0  0  0  1  0  0  0  0  0  0
  188.8460  175.3030  140.8550 O   0  0  0  0  0  0  0  0  0  0  0  0
  188.1820  176.0490  141.6160 C   0  0  0  0  0  0  0  0  0  0  0  0
  188.2540  175.4250  146.9470 O   0  0  0  0  0  1  0  0  0  0  0  0
  187.6900  176.5800  146.4020 C   0  0  2  0  0  3  0  0  0  0  0  0
  186.3550  176.8980  147.0690 C   0  0  0  0  0  2  0  0  0  0  0  0
  185.9070  178.3300  146.8080 C   0  0  0  0  0  2  0  0  0  0  0  0
  184.3930  178.4210  146.8440 C   0  0  0  0  0  2  0  0  0  0  0  0
  183.8690  179.0000  145.5440 C   0  0  0  0  0  1  0  0  0  0  0  0
  190.9500  177.9270  143.2280 C   0  0  0  0  0  1  0  0  0  0  0  0
  190.0370  177.3520  144.2920 C   0  0  0  0  0  2  0  0  0  0  0  0
  1  2  1  0  0  0  0
  2 40  1  0  0  0  0
  2  3  2  0  0  0  0
  4  1  2  0  0  0  0
  4  6  1  0  0  0  0
  5  3  1  0  0  0  0
  6  5  2  0  0  0  0
  7  1  1  0  0  0  0
  8 12  1  1  0  0  0
  8  7  1  0  0  0  0
  9 10  2  0  0  0  0
 10  8  1  0  0  0  0
 11 10  1  0  0  0  0
 13 12  1  0  0  0  0
 14 20  1  0  0  0  0
 15 17  1  0  0  0  0
 15 19  1  0  0  0  0
 16 17  2  0  0  0  0
 17 18  1  0  0  0  0
 18 13  1  6  0  0  0
 18 14  1  0  0  0  0
 19 14  2  0  0  0  0
 20 22  1  0  0  0  0
 21 20  2  0  0  0  0
 22 23  1  0  0  0  0
 23 24  1  6  0  0  0
 23 30  1  0  0  0  0
 25 29  1  0  0  0  0
 26 25  2  0  0  0  0
 27 28  1  0  0  0  0
 28 29  2  0  0  0  0
 30 27  2  0  0  0  0
 30 26  1  0  0  0  0
 31  6  1  0  0  0  0
 32 36  1  6  0  0  0
 32 35  1  0  0  0  0
 32 34  1  0  0  0  0
 34 31  1  0  0  0  0
 34 33  1  1  0  0  0
 35 34  1  0  0  0  0
 38 37  1  0  0  0  0
 38 36  1  0  0  0  0
 39 38  2  0  0  0  0
 40 41  1  0  0  0  0
 42 41  1  6  0  0  0
 42 45  1  0  0  0  0
 42 44  1  0  0  0  0
 43 44  1  0  0  0  0
 45 49  1  6  0  0  0
 47 46  1  0  0  0  0
 47 48  2  0  0  0  0
 49 47  1  0  0  0  0
 50 66  1  1  0  0  0
 50 45  1  0  0  0  0
 51 54  2  0  0  0  0
 52 58  1  6  0  0  0
 52 51  1  0  0  0  0
 52 55  1  0  0  0  0
 53 60  1  0  0  0  0
 54 53  1  0  0  0  0
 55 50  1  6  0  0  0
 55 53  1  0  0  0  0
 56 58  1  0  0  0  0
 57 58  2  0  0  0  0
 60 59  1  1  0  0  0
 60 61  1  0  0  0  0
 62 63  1  0  0  0  0
 62 61  1  0  0  0  0
 64 63  1  0  0  0  0
 65 66  1  0  0  0  0
M  END
>  <MODEL>
2

>  <REMARK>
 VINA RESULT:      -5.7      2.908      9.970
  Name = 
  28 active torsions:
  status: ('A' for Active; 'I' for Inactive)
    1  A    between atoms: C_1  and  C_55
    2  A    between atoms: C_3  and  C_14
    3  A    between atoms: C_3  and  C_24
    4  A    between atoms: O_4  and  C_10
    5  A    between atoms: O_4  and  C_63
    6  A    between atoms: C_7  and  C_53
    7  A    between atoms: C_7  and  C_66
    8  A    between atoms: C_8  and  C_62
    9  A    between atoms: C_11  and  C_61
   10  A    between atoms: C_12  and  C_28
   11  A    between atoms: C_12  and  C_52
   12  A    between atoms: C_13  and  N_23
   13  A    between atoms: C_13  and  C_57
   14  A    between atoms: C_14  and  C_27
   15  A    between atoms: C_14  and  O_37
   16  A    between atoms: C_15  and  O_41
   17  A    between atoms: C_15  and  C_48
   18  A    between atoms: C_16  and  C_58
   19  A    between atoms: C_16  and  C_63
   20  A    between atoms: C_20  and  C_35
   21  A    between atoms: C_20  and  C_57
   22  A    between atoms: C_24  and  C_26
   23  A    between atoms: C_27  and  N_46
   24  A    between atoms: C_27  and  C_62
   25  A    between atoms: C_38  and  C_62
   26  A    between atoms: O_41  and  C_55
   27  A    between atoms: C_45  and  C_58
   28  A    between atoms: C_60  and  C_63
                            x       y       z     vdW  Elec       q    Type
                         _______ _______ _______ _____ _____    ______ ____

>  <TORSDO>
F 28

$$$$
=
 OpenBabel11062421283D

 66 70  0  0  1  0  0  0  0  0999 V2000
  194.0190  175.1430  141.1300 C   0  0  0  0  0  0  0  0  0  0  0  0
  192.6820  174.9150  141.5010 C   0  0  0  0  0  0  0  0  0  0  0  0
  191.8040  174.3000  140.6030 C   0  0  0  0  0  3  0  0  0  0  0  0
  194.4550  174.7660  139.8510 C   0  0  0  0  0  3  0  0  0  0  0  0
  192.2440  173.9280  139.3310 C   0  0  0  0  0  3  0  0  0  0  0  0
  193.5710  174.1610  138.9530 C   0  0  0  0  0  0  0  0  0  0  0  0
  194.8910  175.7450  142.0440 O   0  0  0  0  0  0  0  0  0  0  0  0
  195.8790  175.0270  142.7750 C   0  0  2  0  0  3  0  0  0  0  0  0
  197.7340  174.6840  141.1400 O   0  0  0  0  0  0  0  0  0  0  0  0
  197.2410  175.3590  142.2480 C   0  0  0  0  0  0  0  0  0  0  0  0
  197.9410  176.2520  142.7960 O   0  0  0  0  0  1  0  0  0  0  0  0
  195.5960  173.5390  142.6480 C   0  0  0  0  0  2  0  0  0  0  0  0
  196.4470  172.7230  143.6200 C   0  0  0  0  0  2  0  0  0  0  0  0
  194.3930  171.7180  144.6880 C   0  0  0  0  0  0  0  0  0  0  0  0
  193.6060  173.9060  145.8800 S   0  0  0  0  0  0  0  0  0  0  0  0
  196.1940  174.3840  146.1410 O   0  0  0  0  0  0  0  0  0  0  0  0
  195.3540  173.6320  145.6710 C   0  0  0  0  0  0  0  0  0  0  0  0
  195.7110  172.3950  144.9240 C   0  0  2  0  0  3  0  0  0  0  0  0
  193.3370  172.3450  145.0950 N   0  0  0  0  0  0  0  0  0  0  0  0
  194.2770  170.4240  144.0020 C   0  0  0  0  0  0  0  0  0  0  0  0
  195.1960  169.5660  144.1090 O   0  0  0  0  0  0  0  0  0  0  0  0
  193.1550  170.1670  143.2100 O   0  0  0  0  0  0  0  0  0  0  0  0
  192.6420  171.1090  142.2720 C   0  0  2  0  0  3  0  0  0  0  0  0
  191.1240  171.1480  142.3300 C   0  0  0  0  0  1  0  0  0  0  0  0
  194.9000  170.5280  139.2870 C   0  0  0  0  0  3  0  0  0  0  0  0
  194.4590  170.8170  140.5830 C   0  0  0  0  0  3  0  0  0  0  0  0
  192.1690  170.4420  139.8850 C   0  0  0  0  0  3  0  0  0  0  0  0
  192.6090  170.1510  138.5910 C   0  0  0  0  0  3  0  0  0  0  0  0
  193.9750  170.1930  138.2930 C   0  0  0  0  0  3  0  0  0  0  0  0
  193.0930  170.7660  140.8890 C   0  0  0  0  0  0  0  0  0  0  0  0
  194.0410  173.7920  137.5860 C   0  0  0  0  0  2  0  0  0  0  0  0
  193.2480  175.4630  135.6870 C   0  0  2  0  0  3  0  0  0  0  0  0
  195.5130  175.5710  136.5890 O   0  0  0  0  0  1  0  0  0  0  0  0
  194.2320  175.0310  136.7110 C   0  0  2  0  0  0  0  0  0  0  0  0
  193.2790  176.0280  136.9830 O   0  0  0  0  0  0  0  0  0  0  0  0
  192.0600  174.5180  135.5680 C   0  0  0  0  0  2  0  0  0  0  0  0
  190.8130  176.5720  134.9120 O   0  0  0  0  0  0  0  0  0  0  0  0
  190.7960  175.2940  135.4600 C   0  0  0  0  0  0  0  0  0  0  0  0
  189.7090  174.7880  135.8460 O   0  0  0  0  0  1  0  0  0  0  0  0
  192.2050  175.2680  142.8690 C   0  0  0  0  0  2  0  0  0  0  0  0
  192.1470  176.7770  143.0210 C   0  0  0  0  0  2  0  0  0  0  0  0
  190.7850  177.2210  143.5520 C   0  0  2  0  0  3  0  0  0  0  0  0
  191.9030  179.1150  143.6410 O   0  0  0  0  0  1  0  0  0  0  0  0
  190.6790  178.6220  143.6850 O   0  0  0  0  0  0  0  0  0  0  0  0
  190.3140  176.4420  144.7960 C   0  0  1  0  0  3  0  0  0  0  0  0
  191.3690  177.0000  148.4850 C   0  0  0  0  0  1  0  0  0  0  0  0
  190.8910  176.3170  147.2550 C   0  0  0  0  0  0  0  0  0  0  0  0
  190.5990  175.0930  147.2940 O   0  0  0  0  0  0  0  0  0  0  0  0
  190.7450  177.0610  146.0450 N   0  0  0  0  0  2  0  0  0  0  0  0
  188.8040  176.1540  144.7890 C   0  0  1  0  0  3  0  0  0  0  0  0
  185.7200  177.9420  144.0760 C   0  0  0  0  0  3  0  0  0  0  0  0
  186.8300  177.8650  145.0750 C   0  0  2  0  0  3  0  0  0  0  0  0
  187.4060  177.0930  142.9250 N   0  0  0  0  0  0  0  0  0  0  0  0
  186.0740  177.5020  142.9200 N   0  0  0  0  0  0  0  0  0  0  0  0
  188.0250  177.3640  144.2180 C   0  0  2  0  0  3  0  0  0  0  0  0
  187.2030  176.8230  147.3310 O   0  0  0  0  0  1  0  0  0  0  0  0
  185.3260  176.3320  146.1170 O   0  0  0  0  0  0  0  0  0  0  0  0
  186.4100  176.9630  146.1980 C   0  0  0  0  0  0  0  0  0  0  0  0
  188.2940  178.1220  141.0110 O   0  0  0  0  0  1  0  0  0  0  0  0
  188.1550  176.9070  141.6850 C   0  0  2  0  0  3  0  0  0  0  0  0
  187.4860  175.8660  140.7920 C   0  0  0  0  0  2  0  0  0  0  0  0
  188.3980  174.6780  140.5090 C   0  0  0  0  0  2  0  0  0  0  0  0
  188.2850  174.2650  139.0540 C   0  0  0  0  0  2  0  0  0  0  0  0
  188.5540  172.7810  138.9050 C   0  0  0  0  0  1  0  0  0  0  0  0
  189.5440  173.8210  144.3540 C   0  0  0  0  0  1  0  0  0  0  0  0
  188.5000  174.8680  144.0250 C   0  0  0  0  0  2  0  0  0  0  0  0
  1  2  1  0  0  0  0
  1  7  1  0  0  0  0
  2 40  1  0  0  0  0
  3  2  2  0  0  0  0
  4  1  2  0  0  0  0
  5  3  1  0  0  0  0
  6  5  2  0  0  0  0
  6  4  1  0  0  0  0
  7  8  1  0  0  0  0
  8 12  1  6  0  0  0
  9 10  2  0  0  0  0
 10  8  1  0  0  0  0
 10 11  1  0  0  0  0
 12 13  1  0  0  0  0
 14 18  1  0  0  0  0
 14 19  2  0  0  0  0
 17 15  1  0  0  0  0
 17 16  2  0  0  0  0
 18 13  1  6  0  0  0
 18 17  1  0  0  0  0
 19 15  1  0  0  0  0
 20 21  2  0  0  0  0
 20 14  1  0  0  0  0
 22 20  1  0  0  0  0
 23 24  1  6  0  0  0
 23 22  1  0  0  0  0
 25 26  1  0  0  0  0
 26 30  2  0  0  0  0
 27 30  1  0  0  0  0
 28 27  2  0  0  0  0
 29 28  1  0  0  0  0
 29 25  2  0  0  0  0
 30 23  1  0  0  0  0
 31  6  1  0  0  0  0
 32 36  1  1  0  0  0
 32 34  1  0  0  0  0
 32 35  1  0  0  0  0
 34 33  1  6  0  0  0
 34 35  1  0  0  0  0
 34 31  1  0  0  0  0
 37 38  2  0  0  0  0
 38 36  1  0  0  0  0
 38 39  1  0  0  0  0
 40 41  1  0  0  0  0
 42 41  1  1  0  0  0
 42 44  1  0  0  0  0
 42 45  1  0  0  0  0
 43 44  1  0  0  0  0
 45 49  1  1  0  0  0
 47 48  2  0  0  0  0
 47 46  1  0  0  0  0
 49 47  1  0  0  0  0
 50 66  1  6  0  0  0
 50 45  1  0  0  0  0
 51 52  1  0  0  0  0
 52 58  1  1  0  0  0
 53 55  1  0  0  0  0
 54 53  1  0  0  0  0
 54 51  2  0  0  0  0
 55 50  1  1  0  0  0
 55 52  1  0  0  0  0
 57 58  2  0  0  0  0
 58 56  1  0  0  0  0
 60 59  1  6  0  0  0
 60 53  1  0  0  0  0
 61 60  1  0  0  0  0
 62 61  1  0  0  0  0
 63 62  1  0  0  0  0
 64 63  1  0  0  0  0
 66 65  1  0  0  0  0
M  END
>  <MODEL>
3

>  <REMARK>
 VINA RESULT:      -5.6      2.886      8.554
  Name = 
  28 active torsions:
  status: ('A' for Active; 'I' for Inactive)
    1  A    between atoms: C_1  and  C_55
    2  A    between atoms: C_3  and  C_14
    3  A    between atoms: C_3  and  C_24
    4  A    between atoms: O_4  and  C_10
    5  A    between atoms: O_4  and  C_63
    6  A    between atoms: C_7  and  C_53
    7  A    between atoms: C_7  and  C_66
    8  A    between atoms: C_8  and  C_62
    9  A    between atoms: C_11  and  C_61
   10  A    between atoms: C_12  and  C_28
   11  A    between atoms: C_12  and  C_52
   12  A    between atoms: C_13  and  N_23
   13  A    between atoms: C_13  and  C_57
   14  A    between atoms: C_14  and  C_27
   15  A    between atoms: C_14  and  O_37
   16  A    between atoms: C_15  and  O_41
   17  A    between atoms: C_15  and  C_48
   18  A    between atoms: C_16  and  C_58
   19  A    between atoms: C_16  and  C_63
   20  A    between atoms: C_20  and  C_35
   21  A    between atoms: C_20  and  C_57
   22  A    between atoms: C_24  and  C_26
   23  A    between atoms: C_27  and  N_46
   24  A    between atoms: C_27  and  C_62
   25  A    between atoms: C_38  and  C_62
   26  A    between atoms: O_41  and  C_55
   27  A    between atoms: C_45  and  C_58
   28  A    between atoms: C_60  and  C_63
                            x       y       z     vdW  Elec       q    Type
                         _______ _______ _______ _____ _____    ______ ____

>  <TORSDO>
F 28

$$$$
=
 OpenBabel11062421283D

 66 70  0  0  1  0  0  0  0  0999 V2000
  193.5110  175.2500  141.8670 C   0  0  0  0  0  0  0  0  0  0  0  0
  192.1290  175.2010  142.1200 C   0  0  0  0  0  0  0  0  0  0  0  0
  191.2990  174.4190  141.3120 C   0  0  0  0  0  3  0  0  0  0  0  0
  194.0430  174.5250  140.7900 C   0  0  0  0  0  3  0  0  0  0  0  0
  191.8340  173.6990  140.2400 C   0  0  0  0  0  3  0  0  0  0  0  0
  193.2080  173.7530  139.9780 C   0  0  0  0  0  0  0  0  0  0  0  0
  194.3330  176.0240  142.6940 O   0  0  0  0  0  0  0  0  0  0  0  0
  195.6590  175.6520  143.0540 C   0  0  2  0  0  3  0  0  0  0  0  0
  197.3840  177.4510  143.1850 O   0  0  0  0  0  1  0  0  0  0  0  0
  196.6400  176.5780  142.4040 C   0  0  0  0  0  0  0  0  0  0  0  0
  196.8010  176.5670  141.1540 O   0  0  0  0  0  0  0  0  0  0  0  0
  195.8980  174.2150  142.6180 C   0  0  0  0  0  2  0  0  0  0  0  0
  196.7980  173.4740  143.6060 C   0  0  0  0  0  2  0  0  0  0  0  0
  194.9160  171.8800  144.1400 C   0  0  0  0  0  0  0  0  0  0  0  0
  193.5180  173.5710  145.5590 S   0  0  0  0  0  0  0  0  0  0  0  0
  195.8820  174.4920  146.3080 O   0  0  0  0  0  0  0  0  0  0  0  0
  195.2950  173.7010  145.5850 C   0  0  0  0  0  0  0  0  0  0  0  0
  196.0080  172.7430  144.6980 C   0  0  2  0  0  3  0  0  0  0  0  0
  193.7040  172.1850  144.4770 N   0  0  0  0  0  0  0  0  0  0  0  0
  195.1780  170.7600  143.2260 C   0  0  0  0  0  0  0  0  0  0  0  0
  195.6740  169.6860  143.6650 O   0  0  0  0  0  0  0  0  0  0  0  0
  194.8970  170.9060  141.8640 O   0  0  0  0  0  0  0  0  0  0  0  0
  194.6340  169.7980  141.0080 C   0  0  2  0  0  3  0  0  0  0  0  0
  195.6010  169.7860  139.8360 C   0  0  0  0  0  1  0  0  0  0  0  0
  191.6600  169.6710  138.6650 C   0  0  0  0  0  3  0  0  0  0  0  0
  192.9680  169.6010  139.1570 C   0  0  0  0  0  3  0  0  0  0  0  0
  192.1670  170.1850  141.3680 C   0  0  0  0  0  3  0  0  0  0  0  0
  190.8600  170.2530  140.8770 C   0  0  0  0  0  3  0  0  0  0  0  0
  190.6070  169.9940  139.5260 C   0  0  0  0  0  3  0  0  0  0  0  0
  193.2260  169.8480  140.5110 C   0  0  0  0  0  0  0  0  0  0  0  0
  193.7830  173.0100  138.8180 C   0  0  0  0  0  2  0  0  0  0  0  0
  193.5910  173.0140  136.1750 C   0  0  2  0  0  3  0  0  0  0  0  0
  193.2220  175.0530  137.4640 O   0  0  0  0  0  1  0  0  0  0  0  0
  193.4020  173.6700  137.4930 C   0  0  2  0  0  0  0  0  0  0  0  0
  192.3470  173.0010  136.8480 O   0  0  0  0  0  0  0  0  0  0  0  0
  194.2450  171.6430  136.2810 C   0  0  0  0  0  2  0  0  0  0  0  0
  196.1310  172.5870  134.9540 O   0  0  0  0  0  1  0  0  0  0  0  0
  195.3130  171.5040  135.2540 C   0  0  0  0  0  0  0  0  0  0  0  0
  195.4880  170.4010  134.6710 O   0  0  0  0  0  0  0  0  0  0  0  0
  191.5470  175.9280  143.2850 C   0  0  0  0  0  2  0  0  0  0  0  0
  190.4810  176.8980  142.8050 C   0  0  0  0  0  2  0  0  0  0  0  0
  189.9300  177.7240  143.9670 C   0  0  2  0  0  3  0  0  0  0  0  0
  191.5160  179.1870  143.5280 O   0  0  0  0  0  1  0  0  0  0  0  0
  190.8940  178.5890  144.5280 O   0  0  0  0  0  0  0  0  0  0  0  0
  189.1560  176.8960  145.0110 C   0  0  1  0  0  3  0  0  0  0  0  0
  191.0850  175.3460  147.9960 C   0  0  0  0  0  1  0  0  0  0  0  0
  190.3020  175.4460  146.7370 C   0  0  0  0  0  0  0  0  0  0  0  0
  189.9860  174.3980  146.1130 O   0  0  0  0  0  0  0  0  0  0  0  0
  189.8950  176.7270  146.2580 N   0  0  0  0  0  2  0  0  0  0  0  0
  187.7310  177.4180  145.2550 C   0  0  1  0  0  3  0  0  0  0  0  0
  185.0380  178.7770  143.2250 C   0  0  0  0  0  3  0  0  0  0  0  0
  186.0560  179.1750  144.2460 C   0  0  2  0  0  3  0  0  0  0  0  0
  186.6260  177.2550  143.0050 N   0  0  0  0  0  0  0  0  0  0  0  0
  185.3840  177.7200  142.5780 N   0  0  0  0  0  0  0  0  0  0  0  0
  187.2010  178.1540  144.0000 C   0  0  2  0  0  3  0  0  0  0  0  0
  184.2260  178.4540  145.8090 O   0  0  0  0  0  0  0  0  0  0  0  0
  185.9850  179.7020  146.5720 O   0  0  0  0  0  1  0  0  0  0  0  0
  185.4230  179.1290  145.6050 C   0  0  0  0  0  0  0  0  0  0  0  0
  187.2850  176.6110  140.8450 O   0  0  0  0  0  1  0  0  0  0  0  0
  187.4080  176.3150  142.2040 C   0  0  2  0  0  3  0  0  0  0  0  0
  186.9890  174.8750  142.4850 C   0  0  0  0  0  2  0  0  0  0  0  0
  188.1210  173.8870  142.2350 C   0  0  0  0  0  2  0  0  0  0  0  0
  187.6190  172.7100  141.4190 C   0  0  0  0  0  2  0  0  0  0  0  0
  188.2100  172.7470  140.0230 C   0  0  0  0  0  1  0  0  0  0  0  0
  186.6290  176.3130  147.1900 C   0  0  0  0  0  1  0  0  0  0  0  0
  186.8040  176.2850  145.6850 C   0  0  0  0  0  2  0  0  0  0  0  0
  1  2  1  0  0  0  0
  1  7  1  0  0  0  0
  2 40  1  0  0  0  0
  3  2  2  0  0  0  0
  4  1  2  0  0  0  0
  5  3  1  0  0  0  0
  6  5  2  0  0  0  0
  6  4  1  0  0  0  0
  7  8  1  0  0  0  0
  8 12  1  6  0  0  0
 10  8  1  0  0  0  0
 10  9  1  0  0  0  0
 11 10  2  0  0  0  0
 12 13  1  0  0  0  0
 14 19  2  0  0  0  0
 14 18  1  0  0  0  0
 15 17  1  0  0  0  0
 17 16  2  0  0  0  0
 18 13  1  6  0  0  0
 18 17  1  0  0  0  0
 19 15  1  0  0  0  0
 20 21  2  0  0  0  0
 20 14  1  0  0  0  0
 22 20  1  0  0  0  0
 23 24  1  6  0  0  0
 23 22  1  0  0  0  0
 25 26  2  0  0  0  0
 25 29  1  0  0  0  0
 26 30  1  0  0  0  0
 28 27  1  0  0  0  0
 29 28  2  0  0  0  0
 30 23  1  0  0  0  0
 30 27  2  0  0  0  0
 31  6  1  0  0  0  0
 32 36  1  1  0  0  0
 32 35  1  0  0  0  0
 32 34  1  0  0  0  0
 34 33  1  6  0  0  0
 34 31  1  0  0  0  0
 35 34  1  0  0  0  0
 37 38  1  0  0  0  0
 38 36  1  0  0  0  0
 39 38  2  0  0  0  0
 41 40  1  0  0  0  0
 42 41  1  6  0  0  0
 42 44  1  0  0  0  0
 42 45  1  0  0  0  0
 43 44  1  0  0  0  0
 45 50  1  0  0  0  0
 45 49  1  1  0  0  0
 47 46  1  0  0  0  0
 48 47  2  0  0  0  0
 49 47  1  0  0  0  0
 50 66  1  6  0  0  0
 51 52  1  0  0  0  0
 52 58  1  1  0  0  0
 53 55  1  0  0  0  0
 54 53  1  0  0  0  0
 54 51  2  0  0  0  0
 55 52  1  0  0  0  0
 55 50  1  1  0  0  0
 58 56  2  0  0  0  0
 58 57  1  0  0  0  0
 60 59  1  6  0  0  0
 60 61  1  0  0  0  0
 60 53  1  0  0  0  0
 62 61  1  0  0  0  0
 63 62  1  0  0  0  0
 64 63  1  0  0  0  0
 66 65  1  0  0  0  0
M  END
>  <MODEL>
4

>  <REMARK>
 VINA RESULT:      -5.4      2.812      9.290
  Name = 
  28 active torsions:
  status: ('A' for Active; 'I' for Inactive)
    1  A    between atoms: C_1  and  C_55
    2  A    between atoms: C_3  and  C_14
    3  A    between atoms: C_3  and  C_24
    4  A    between atoms: O_4  and  C_10
    5  A    between atoms: O_4  and  C_63
    6  A    between atoms: C_7  and  C_53
    7  A    between atoms: C_7  and  C_66
    8  A    between atoms: C_8  and  C_62
    9  A    between atoms: C_11  and  C_61
   10  A    between atoms: C_12  and  C_28
   11  A    between atoms: C_12  and  C_52
   12  A    between atoms: C_13  and  N_23
   13  A    between atoms: C_13  and  C_57
   14  A    between atoms: C_14  and  C_27
   15  A    between atoms: C_14  and  O_37
   16  A    between atoms: C_15  and  O_41
   17  A    between atoms: C_15  and  C_48
   18  A    between atoms: C_16  and  C_58
   19  A    between atoms: C_16  and  C_63
   20  A    between atoms: C_20  and  C_35
   21  A    between atoms: C_20  and  C_57
   22  A    between atoms: C_24  and  C_26
   23  A    between atoms: C_27  and  N_46
   24  A    between atoms: C_27  and  C_62
   25  A    between atoms: C_38  and  C_62
   26  A    between atoms: O_41  and  C_55
   27  A    between atoms: C_45  and  C_58
   28  A    between atoms: C_60  and  C_63
                            x       y       z     vdW  Elec       q    Type
                         _______ _______ _______ _____ _____    ______ ____

>  <TORSDO>
F 28

$$$$
=
 OpenBabel11062421283D

 66 70  0  0  1  0  0  0  0  0999 V2000
  188.7690  175.6230  141.2710 C   0  0  0  0  0  0  0  0  0  0  0  0
  189.6860  176.0600  142.2430 C   0  0  0  0  0  0  0  0  0  0  0  0
  189.4680  177.2650  142.9180 C   0  0  0  0  0  3  0  0  0  0  0  0
  187.6480  176.4140  140.9750 C   0  0  0  0  0  3  0  0  0  0  0  0
  188.3510  178.0480  142.6170 C   0  0  0  0  0  3  0  0  0  0  0  0
  187.4390  177.6230  141.6430 C   0  0  0  0  0  0  0  0  0  0  0  0
  188.9910  174.4070  140.6150 O   0  0  0  0  0  0  0  0  0  0  0  0
  187.9860  173.4150  140.4400 C   0  0  2  0  0  3  0  0  0  0  0  0
  189.2100  171.9590  142.0550 O   0  0  0  0  0  0  0  0  0  0  0  0
  188.0020  172.4660  141.5980 C   0  0  0  0  0  0  0  0  0  0  0  0
  186.9300  172.1290  142.1670 O   0  0  0  0  0  1  0  0  0  0  0  0
  188.2470  172.6810  139.1340 C   0  0  0  0  0  2  0  0  0  0  0  0
  189.3520  171.6390  139.2900 C   0  0  0  0  0  2  0  0  0  0  0  0
  191.5470  172.7840  138.8010 C   0  0  0  0  0  0  0  0  0  0  0  0
  190.7210  174.0660  136.6800 S   0  0  0  0  0  0  0  0  0  0  0  0
  189.2420  171.9120  136.2750 O   0  0  0  0  0  0  0  0  0  0  0  0
  190.0230  172.4660  137.0330 C   0  0  0  0  0  0  0  0  0  0  0  0
  190.5010  171.8360  138.2940 C   0  0  2  0  0  3  0  0  0  0  0  0
  191.7290  173.8680  138.1190 N   0  0  0  0  0  0  0  0  0  0  0  0
  192.3180  172.5340  140.0270 C   0  0  0  0  0  0  0  0  0  0  0  0
  192.2300  171.4200  140.6140 O   0  0  0  0  0  0  0  0  0  0  0  0
  193.1240  173.5490  140.5480 O   0  0  0  0  0  0  0  0  0  0  0  0
  194.4980  173.6970  140.2010 C   0  0  2  0  0  3  0  0  0  0  0  0
  195.2030  172.3510  140.2250 C   0  0  0  0  0  1  0  0  0  0  0  0
  196.1540  176.8270  141.5450 C   0  0  0  0  0  3  0  0  0  0  0  0
  195.4970  175.9330  140.6930 C   0  0  0  0  0  3  0  0  0  0  0  0
  195.5270  174.2510  142.4370 C   0  0  0  0  0  3  0  0  0  0  0  0
  196.1820  175.1450  143.2890 C   0  0  0  0  0  3  0  0  0  0  0  0
  196.4940  176.4330  142.8430 C   0  0  0  0  0  3  0  0  0  0  0  0
  195.1720  174.6460  141.1380 C   0  0  0  0  0  0  0  0  0  0  0  0
  186.2590  178.4670  141.2970 C   0  0  0  0  0  2  0  0  0  0  0  0
  183.9100  178.4830  142.5240 C   0  0  2  0  0  3  0  0  0  0  0  0
  185.8650  179.5270  143.5430 O   0  0  0  0  0  1  0  0  0  0  0  0
  185.3760  178.7150  142.5190 C   0  0  2  0  0  0  0  0  0  0  0  0
  184.8220  177.5270  143.0270 O   0  0  0  0  0  0  0  0  0  0  0  0
  183.3770  178.0220  141.1740 C   0  0  0  0  0  2  0  0  0  0  0  0
  181.2100  177.8950  139.9510 O   0  0  0  0  0  0  0  0  0  0  0  0
  181.9210  178.3100  141.0710 C   0  0  0  0  0  0  0  0  0  0  0  0
  181.3290  178.9100  142.0070 O   0  0  0  0  0  1  0  0  0  0  0  0
  190.8620  175.2180  142.6070 C   0  0  0  0  0  2  0  0  0  0  0  0
  192.0120  176.1040  143.0520 C   0  0  0  0  0  2  0  0  0  0  0  0
  192.1870  176.0500  144.5700 C   0  0  2  0  0  3  0  0  0  0  0  0
  193.7130  177.6350  144.6480 O   0  0  0  0  0  1  0  0  0  0  0  0
  193.4970  176.3750  144.9810 O   0  0  0  0  0  0  0  0  0  0  0  0
  191.6330  174.7660  145.2180 C   0  0  1  0  0  3  0  0  0  0  0  0
  194.1990  171.8590  145.1850 C   0  0  0  0  0  1  0  0  0  0  0  0
  193.0960  172.7570  144.7520 C   0  0  0  0  0  0  0  0  0  0  0  0
  192.5220  172.5530  143.6500 O   0  0  0  0  0  0  0  0  0  0  0  0
  192.6850  173.8290  145.6000 N   0  0  0  0  0  2  0  0  0  0  0  0
  190.6670  175.0480  146.3800 C   0  0  1  0  0  3  0  0  0  0  0  0
  189.9220  178.2790  147.8710 C   0  0  0  0  0  3  0  0  0  0  0  0
  190.9670  177.5660  147.0730 C   0  0  2  0  0  3  0  0  0  0  0  0
  188.8010  176.6590  146.8680 N   0  0  0  0  0  0  0  0  0  0  0  0
  188.7590  177.7470  147.7380 N   0  0  0  0  0  0  0  0  0  0  0  0
  190.1370  176.5010  146.3030 C   0  0  2  0  0  3  0  0  0  0  0  0
  193.3490  177.0080  147.6440 O   0  0  0  0  0  0  0  0  0  0  0  0
  191.6660  176.5960  149.1380 O   0  0  0  0  0  1  0  0  0  0  0  0
  192.0090  177.0280  148.0090 C   0  0  0  0  0  0  0  0  0  0  0  0
  187.4500  176.5780  144.9500 O   0  0  0  0  0  1  0  0  0  0  0  0
  187.5890  176.1160  146.2610 C   0  0  2  0  0  3  0  0  0  0  0  0
  186.3570  176.4640  147.0910 C   0  0  0  0  0  2  0  0  0  0  0  0
  185.1480  176.7860  146.2210 C   0  0  0  0  0  2  0  0  0  0  0  0
  184.5220  178.0970  146.6580 C   0  0  0  0  0  2  0  0  0  0  0  0
  185.5970  179.0760  147.0910 C   0  0  0  0  0  1  0  0  0  0  0  0
  189.5520  173.2160  145.1230 C   0  0  0  0  0  1  0  0  0  0  0  0
  189.5320  174.0290  146.4010 C   0  0  0  0  0  2  0  0  0  0  0  0
  1  2  1  0  0  0  0
  2 40  1  0  0  0  0
  2  3  2  0  0  0  0
  4  1  2  0  0  0  0
  4  6  1  0  0  0  0
  5  3  1  0  0  0  0
  6  5  2  0  0  0  0
  7  1  1  0  0  0  0
  8 12  1  6  0  0  0
  8  7  1  0  0  0  0
  8 10  1  0  0  0  0
 10  9  2  0  0  0  0
 10 11  1  0  0  0  0
 12 13  1  0  0  0  0
 14 20  1  0  0  0  0
 15 17  1  0  0  0  0
 15 19  1  0  0  0  0
 16 17  2  0  0  0  0
 17 18  1  0  0  0  0
 18 14  1  0  0  0  0
 18 13  1  1  0  0  0
 19 14  2  0  0  0  0
 20 22  1  0  0  0  0
 20 21  2  0  0  0  0
 23 24  1  1  0  0  0
 23 22  1  0  0  0  0
 23 30  1  0  0  0  0
 25 29  1  0  0  0  0
 26 30  1  0  0  0  0
 26 25  2  0  0  0  0
 27 28  1  0  0  0  0
 29 28  2  0  0  0  0
 30 27  2  0  0  0  0
 31  6  1  0  0  0  0
 31 34  1  0  0  0  0
 32 36  1  6  0  0  0
 32 35  1  0  0  0  0
 34 32  1  0  0  0  0
 34 35  1  0  0  0  0
 34 33  1  1  0  0  0
 37 38  2  0  0  0  0
 38 36  1  0  0  0  0
 38 39  1  0  0  0  0
 40 41  1  0  0  0  0
 42 41  1  6  0  0  0
 42 44  1  0  0  0  0
 42 45  1  0  0  0  0
 43 44  1  0  0  0  0
 45 49  1  1  0  0  0
 45 50  1  0  0  0  0
 47 46  1  0  0  0  0
 47 49  1  0  0  0  0
 48 47  2  0  0  0  0
 50 66  1  6  0  0  0
 52 51  1  0  0  0  0
 52 58  1  1  0  0  0
 53 54  1  0  0  0  0
 54 51  2  0  0  0  0
 55 50  1  1  0  0  0
 55 53  1  0  0  0  0
 55 52  1  0  0  0  0
 56 58  2  0  0  0  0
 58 57  1  0  0  0  0
 60 59  1  6  0  0  0
 60 53  1  0  0  0  0
 60 61  1  0  0  0  0
 62 63  1  0  0  0  0
 62 61  1  0  0  0  0
 63 64  1  0  0  0  0
 65 66  1  0  0  0  0
M  END
>  <MODEL>
5

>  <REMARK>
 VINA RESULT:      -5.3      2.469      9.168
  Name = 
  28 active torsions:
  status: ('A' for Active; 'I' for Inactive)
    1  A    between atoms: C_1  and  C_55
    2  A    between atoms: C_3  and  C_14
    3  A    between atoms: C_3  and  C_24
    4  A    between atoms: O_4  and  C_10
    5  A    between atoms: O_4  and  C_63
    6  A    between atoms: C_7  and  C_53
    7  A    between atoms: C_7  and  C_66
    8  A    between atoms: C_8  and  C_62
    9  A    between atoms: C_11  and  C_61
   10  A    between atoms: C_12  and  C_28
   11  A    between atoms: C_12  and  C_52
   12  A    between atoms: C_13  and  N_23
   13  A    between atoms: C_13  and  C_57
   14  A    between atoms: C_14  and  C_27
   15  A    between atoms: C_14  and  O_37
   16  A    between atoms: C_15  and  O_41
   17  A    between atoms: C_15  and  C_48
   18  A    between atoms: C_16  and  C_58
   19  A    between atoms: C_16  and  C_63
   20  A    between atoms: C_20  and  C_35
   21  A    between atoms: C_20  and  C_57
   22  A    between atoms: C_24  and  C_26
   23  A    between atoms: C_27  and  N_46
   24  A    between atoms: C_27  and  C_62
   25  A    between atoms: C_38  and  C_62
   26  A    between atoms: O_41  and  C_55
   27  A    between atoms: C_45  and  C_58
   28  A    between atoms: C_60  and  C_63
                            x       y       z     vdW  Elec       q    Type
                         _______ _______ _______ _____ _____    ______ ____

>  <TORSDO>
F 28

$$$$
=
 OpenBabel11062421283D

 66 70  0  0  1  0  0  0  0  0999 V2000
  194.1710  174.7810  141.3650 C   0  0  0  0  0  0  0  0  0  0  0  0
  192.7810  174.6950  141.5560 C   0  0  0  0  0  0  0  0  0  0  0  0
  191.9890  174.0150  140.6260 C   0  0  0  0  0  3  0  0  0  0  0  0
  194.7500  174.1940  140.2300 C   0  0  0  0  0  3  0  0  0  0  0  0
  192.5720  173.4330  139.4970 C   0  0  0  0  0  3  0  0  0  0  0  0
  193.9540  173.5230  139.2970 C   0  0  0  0  0  0  0  0  0  0  0  0
  194.9530  175.4510  142.3130 O   0  0  0  0  0  0  0  0  0  0  0  0
  196.1360  174.9030  142.8840 C   0  0  2  0  0  3  0  0  0  0  0  0
  197.8240  176.7250  143.1320 O   0  0  0  0  0  1  0  0  0  0  0  0
  197.3330  175.6570  142.3930 C   0  0  0  0  0  0  0  0  0  0  0  0
  197.9030  175.3280  141.3190 O   0  0  0  0  0  0  0  0  0  0  0  0
  196.2270  173.4340  142.5030 C   0  0  0  0  0  2  0  0  0  0  0  0
  197.3360  172.7230  143.2770 C   0  0  0  0  0  2  0  0  0  0  0  0
  195.7880  170.7350  143.4170 C   0  0  0  0  0  0  0  0  0  0  0  0
  194.3760  171.6270  145.4260 S   0  0  0  0  0  0  0  0  0  0  0  0
  196.6670  172.6740  146.2320 O   0  0  0  0  0  0  0  0  0  0  0  0
  196.1030  172.0550  145.3420 C   0  0  0  0  0  0  0  0  0  0  0  0
  196.8140  171.5610  144.1310 C   0  0  2  0  0  3  0  0  0  0  0  0
  194.6030  170.7010  143.9380 N   0  0  0  0  0  0  0  0  0  0  0  0
  196.0760  170.0180  142.1670 C   0  0  0  0  0  0  0  0  0  0  0  0
  197.0150  169.1760  142.1210 O   0  0  0  0  0  0  0  0  0  0  0  0
  195.3180  170.2980  141.0260 O   0  0  0  0  0  0  0  0  0  0  0  0
  194.9790  169.3050  140.0630 C   0  0  2  0  0  3  0  0  0  0  0  0
  195.5900  169.6390  138.7120 C   0  0  0  0  0  1  0  0  0  0  0  0
  191.4180  168.1670  140.6750 C   0  0  0  0  0  3  0  0  0  0  0  0
  192.8040  168.3160  140.7940 C   0  0  0  0  0  3  0  0  0  0  0  0
  192.7910  169.8900  138.9520 C   0  0  0  0  0  3  0  0  0  0  0  0
  191.4060  169.7430  138.8340 C   0  0  0  0  0  3  0  0  0  0  0  0
  190.7200  168.8830  139.6980 C   0  0  0  0  0  3  0  0  0  0  0  0
  193.4950  169.1840  139.9390 C   0  0  0  0  0  0  0  0  0  0  0  0
  194.5800  172.9300  138.0800 C   0  0  0  0  0  2  0  0  0  0  0  0
  193.8630  173.8970  135.7180 C   0  0  2  0  0  3  0  0  0  0  0  0
  195.8230  174.7610  136.8860 O   0  0  0  0  0  1  0  0  0  0  0  0
  194.6850  173.9580  136.9530 C   0  0  2  0  0  0  0  0  0  0  0  0
  193.5100  174.7180  136.8140 O   0  0  0  0  0  0  0  0  0  0  0  0
  192.9460  172.6820  135.6740 C   0  0  0  0  0  2  0  0  0  0  0  0
  191.1050  173.9530  134.5780 O   0  0  0  0  0  0  0  0  0  0  0  0
  191.5240  173.1150  135.6040 C   0  0  0  0  0  0  0  0  0  0  0  0
  190.6970  172.7060  136.4620 O   0  0  0  0  0  1  0  0  0  0  0  0
  192.1470  175.2730  142.7760 C   0  0  0  0  0  2  0  0  0  0  0  0
  191.9360  176.7650  142.5890 C   0  0  0  0  0  2  0  0  0  0  0  0
  190.7780  177.2660  143.4520 C   0  0  2  0  0  3  0  0  0  0  0  0
  192.0740  179.0440  143.5310 O   0  0  0  0  0  1  0  0  0  0  0  0
  190.8180  178.6600  143.6650 O   0  0  0  0  0  0  0  0  0  0  0  0
  190.5590  176.4470  144.7400 C   0  0  1  0  0  3  0  0  0  0  0  0
  193.2120  176.5740  147.5650 C   0  0  0  0  0  1  0  0  0  0  0  0
  192.3590  176.0430  146.4690 C   0  0  0  0  0  0  0  0  0  0  0  0
  192.4760  174.8410  146.1140 O   0  0  0  0  0  0  0  0  0  0  0  0
  191.4010  176.8960  145.8440 N   0  0  0  0  0  2  0  0  0  0  0  0
  189.0790  176.3540  145.1470 C   0  0  1  0  0  3  0  0  0  0  0  0
  185.8200  176.7210  143.5800 C   0  0  0  0  0  3  0  0  0  0  0  0
  186.8330  177.4790  144.3780 C   0  0  2  0  0  3  0  0  0  0  0  0
  187.7200  175.6770  143.1460 N   0  0  0  0  0  0  0  0  0  0  0  0
  186.3440  175.7420  142.9320 N   0  0  0  0  0  0  0  0  0  0  0  0
  188.1660  176.7910  143.9760 C   0  0  2  0  0  3  0  0  0  0  0  0
  185.5680  176.4370  146.2820 O   0  0  0  0  0  0  0  0  0  0  0  0
  186.9850  178.1960  146.6490 O   0  0  0  0  0  1  0  0  0  0  0  0
  186.4670  177.3950  145.8310 C   0  0  0  0  0  0  0  0  0  0  0  0
  188.4780  175.3630  140.9470 O   0  0  0  0  0  1  0  0  0  0  0  0
  188.5970  174.9130  142.2630 C   0  0  2  0  0  3  0  0  0  0  0  0
  188.3000  173.4190  142.3530 C   0  0  0  0  0  2  0  0  0  0  0  0
  189.3800  172.6620  143.1170 C   0  0  0  0  0  2  0  0  0  0  0  0
  189.8810  171.4910  142.2940 C   0  0  0  0  0  2  0  0  0  0  0  0
  191.2910  171.1200  142.7090 C   0  0  0  0  0  1  0  0  0  0  0  0
  188.9080  174.8850  147.1460 C   0  0  0  0  0  1  0  0  0  0  0  0
  188.7410  174.9500  145.6410 C   0  0  0  0  0  2  0  0  0  0  0  0
  1  2  1  0  0  0  0
  1  7  1  0  0  0  0
  2 40  1  0  0  0  0
  3  2  2  0  0  0  0
  4  1  2  0  0  0  0
  5  3  1  0  0  0  0
  6  5  2  0  0  0  0
  6  4  1  0  0  0  0
  7  8  1  0  0  0  0
  8 12  1  6  0  0  0
 10  8  1  0  0  0  0
 10  9  1  0  0  0  0
 11 10  2  0  0  0  0
 12 13  1  0  0  0  0
 14 19  2  0  0  0  0
 14 18  1  0  0  0  0
 17 15  1  0  0  0  0
 17 16  2  0  0  0  0
 18 13  1  6  0  0  0
 18 17  1  0  0  0  0
 19 15  1  0  0  0  0
 20 14  1  0  0  0  0
 21 20  2  0  0  0  0
 22 20  1  0  0  0  0
 23 24  1  6  0  0  0
 23 22  1  0  0  0  0
 25 26  1  0  0  0  0
 27 30  1  0  0  0  0
 28 27  2  0  0  0  0
 28 29  1  0  0  0  0
 29 25  2  0  0  0  0
 30 23  1  0  0  0  0
 30 26  2  0  0  0  0
 31  6  1  0  0  0  0
 32 36  1  1  0  0  0
 32 35  1  0  0  0  0
 32 34  1  0  0  0  0
 34 33  1  6  0  0  0
 34 31  1  0  0  0  0
 35 34  1  0  0  0  0
 37 38  2  0  0  0  0
 38 36  1  0  0  0  0
 38 39  1  0  0  0  0
 41 40  1  0  0  0  0
 42 41  1  1  0  0  0
 42 44  1  0  0  0  0
 42 45  1  0  0  0  0
 43 44  1  0  0  0  0
 45 50  1  0  0  0  0
 45 49  1  1  0  0  0
 47 46  1  0  0  0  0
 48 47  2  0  0  0  0
 49 47  1  0  0  0  0
 50 66  1  6  0  0  0
 51 52  1  0  0  0  0
 52 58  1  1  0  0  0
 53 55  1  0  0  0  0
 54 53  1  0  0  0  0
 54 51  2  0  0  0  0
 55 52  1  0  0  0  0
 55 50  1  1  0  0  0
 58 56  2  0  0  0  0
 58 57  1  0  0  0  0
 60 59  1  6  0  0  0
 60 61  1  0  0  0  0
 60 53  1  0  0  0  0
 61 62  1  0  0  0  0
 63 64  1  0  0  0  0
 63 62  1  0  0  0  0
 66 65  1  0  0  0  0
M  END
>  <MODEL>
6

>  <REMARK>
 VINA RESULT:      -5.1      2.845      9.024
  Name = 
  28 active torsions:
  status: ('A' for Active; 'I' for Inactive)
    1  A    between atoms: C_1  and  C_55
    2  A    between atoms: C_3  and  C_14
    3  A    between atoms: C_3  and  C_24
    4  A    between atoms: O_4  and  C_10
    5  A    between atoms: O_4  and  C_63
    6  A    between atoms: C_7  and  C_53
    7  A    between atoms: C_7  and  C_66
    8  A    between atoms: C_8  and  C_62
    9  A    between atoms: C_11  and  C_61
   10  A    between atoms: C_12  and  C_28
   11  A    between atoms: C_12  and  C_52
   12  A    between atoms: C_13  and  N_23
   13  A    between atoms: C_13  and  C_57
   14  A    between atoms: C_14  and  C_27
   15  A    between atoms: C_14  and  O_37
   16  A    between atoms: C_15  and  O_41
   17  A    between atoms: C_15  and  C_48
   18  A    between atoms: C_16  and  C_58
   19  A    between atoms: C_16  and  C_63
   20  A    between atoms: C_20  and  C_35
   21  A    between atoms: C_20  and  C_57
   22  A    between atoms: C_24  and  C_26
   23  A    between atoms: C_27  and  N_46
   24  A    between atoms: C_27  and  C_62
   25  A    between atoms: C_38  and  C_62
   26  A    between atoms: O_41  and  C_55
   27  A    between atoms: C_45  and  C_58
   28  A    between atoms: C_60  and  C_63
                            x       y       z     vdW  Elec       q    Type
                         _______ _______ _______ _____ _____    ______ ____

>  <TORSDO>
F 28

$$$$
=
 OpenBabel11062421283D

 66 70  0  0  1  0  0  0  0  0999 V2000
  191.5060  173.1710  142.6520 C   0  0  0  0  0  0  0  0  0  0  0  0
  191.1210  171.8240  142.5430 C   0  0  0  0  0  0  0  0  0  0  0  0
  189.7660  171.4910  142.4440 C   0  0  0  0  0  3  0  0  0  0  0  0
  190.5220  174.1710  142.6780 C   0  0  0  0  0  3  0  0  0  0  0  0
  188.7920  172.4910  142.4720 C   0  0  0  0  0  3  0  0  0  0  0  0
  189.1690  173.8340  142.5900 C   0  0  0  0  0  0  0  0  0  0  0  0
  192.8660  173.4910  142.7340 O   0  0  0  0  0  0  0  0  0  0  0  0
  193.4420  174.1980  143.8270 C   0  0  2  0  0  3  0  0  0  0  0  0
  195.1020  172.3360  143.9010 O   0  0  0  0  0  0  0  0  0  0  0  0
  194.8220  173.6810  144.0950 C   0  0  0  0  0  0  0  0  0  0  0  0
  195.7330  174.4570  144.4880 O   0  0  0  0  0  1  0  0  0  0  0  0
  192.5510  174.0220  145.0460 C   0  0  0  0  0  2  0  0  0  0  0  0
  193.0190  174.8930  146.2110 C   0  0  0  0  0  2  0  0  0  0  0  0
  190.9840  176.3450  145.8700 C   0  0  0  0  0  0  0  0  0  0  0  0
  191.9000  177.6160  143.7790 S   0  0  0  0  0  0  0  0  0  0  0  0
  194.2400  177.3830  144.9890 O   0  0  0  0  0  0  0  0  0  0  0  0
  193.0540  177.0930  145.0310 C   0  0  0  0  0  0  0  0  0  0  0  0
  192.4560  176.3180  146.1530 C   0  0  2  0  0  3  0  0  0  0  0  0
  190.6120  176.9270  144.7750 N   0  0  0  0  0  0  0  0  0  0  0  0
  189.9930  175.7190  146.7560 C   0  0  0  0  0  0  0  0  0  0  0  0
  190.3680  174.9310  147.6680 O   0  0  0  0  0  0  0  0  0  0  0  0
  188.6350  175.9850  146.5620 O   0  0  0  0  0  0  0  0  0  0  0  0
  187.7700  176.3880  147.6200 C   0  0  2  0  0  3  0  0  0  0  0  0
  187.2280  175.1760  148.3590 C   0  0  0  0  0  1  0  0  0  0  0  0
  185.2490  179.1900  147.2420 C   0  0  0  0  0  3  0  0  0  0  0  0
  186.3200  178.4210  147.7090 C   0  0  0  0  0  3  0  0  0  0  0  0
  185.8720  176.7620  146.0000 C   0  0  0  0  0  3  0  0  0  0  0  0
  184.8030  177.5320  145.5320 C   0  0  0  0  0  3  0  0  0  0  0  0
  184.4930  178.7460  146.1520 C   0  0  0  0  0  3  0  0  0  0  0  0
  186.6410  177.2090  147.0850 C   0  0  0  0  0  0  0  0  0  0  0  0
  188.1330  174.9050  142.6490 C   0  0  0  0  0  2  0  0  0  0  0  0
  187.0630  176.7500  141.0740 C   0  0  2  0  0  3  0  0  0  0  0  0
  188.4070  174.9350  140.1490 O   0  0  0  0  0  1  0  0  0  0  0  0
  187.9780  175.6020  141.2970 C   0  0  2  0  0  0  0  0  0  0  0  0
  188.4430  176.9280  141.3240 O   0  0  0  0  0  0  0  0  0  0  0  0
  186.2650  177.1230  142.3160 C   0  0  0  0  0  2  0  0  0  0  0  0
  184.6060  178.5790  141.1600 O   0  0  0  0  0  0  0  0  0  0  0  0
  185.6010  178.4410  142.1210 C   0  0  0  0  0  0  0  0  0  0  0  0
  185.9260  179.4230  142.8390 O   0  0  0  0  0  1  0  0  0  0  0  0
  192.1490  170.7450  142.4700 C   0  0  0  0  0  2  0  0  0  0  0  0
  193.0470  170.9710  141.2670 C   0  0  0  0  0  2  0  0  0  0  0  0
  192.5890  170.1280  140.0770 C   0  0  2  0  0  3  0  0  0  0  0  0
  193.8160  168.5710  141.0340 O   0  0  0  0  0  1  0  0  0  0  0  0
  192.7300  168.7420  140.3020 O   0  0  0  0  0  0  0  0  0  0  0  0
  193.1540  170.5980  138.7230 C   0  0  1  0  0  3  0  0  0  0  0  0
  196.1860  168.4720  137.5730 C   0  0  0  0  0  1  0  0  0  0  0  0
  195.4020  169.5520  138.2290 C   0  0  0  0  0  0  0  0  0  0  0  0
  195.9980  170.4370  138.8970 O   0  0  0  0  0  0  0  0  0  0  0  0
  193.9840  169.5860  138.0760 N   0  0  0  0  0  2  0  0  0  0  0  0
  192.0710  171.1420  137.7760 C   0  0  1  0  0  3  0  0  0  0  0  0
  190.6840  174.3630  136.8190 C   0  0  0  0  0  3  0  0  0  0  0  0
  190.6990  173.3780  137.9440 C   0  0  2  0  0  3  0  0  0  0  0  0
  192.5780  173.2620  136.5270 N   0  0  0  0  0  0  0  0  0  0  0  0
  191.7210  174.2600  136.0660 N   0  0  0  0  0  0  0  0  0  0  0  0
  192.0830  172.6900  137.7740 C   0  0  2  0  0  3  0  0  0  0  0  0
  188.9410  171.8850  138.9400 O   0  0  0  0  0  1  0  0  0  0  0  0
  189.0050  172.2650  136.6850 O   0  0  0  0  0  0  0  0  0  0  0  0
  189.5050  172.4790  137.8180 C   0  0  0  0  0  0  0  0  0  0  0  0
  194.1910  172.0160  135.3610 O   0  0  0  0  0  1  0  0  0  0  0  0
  193.9700  173.1860  136.0900 C   0  0  2  0  0  3  0  0  0  0  0  0
  194.9230  173.2720  137.2790 C   0  0  0  0  0  2  0  0  0  0  0  0
  194.9140  174.6510  137.9270 C   0  0  0  0  0  2  0  0  0  0  0  0
  195.3880  174.5570  139.3650 C   0  0  0  0  0  2  0  0  0  0  0  0
  194.5680  175.4740  140.2510 C   0  0  0  0  0  1  0  0  0  0  0  0
  191.1900  169.5060  136.1250 C   0  0  0  0  0  1  0  0  0  0  0  0
  192.2410  170.5690  136.3720 C   0  0  0  0  0  2  0  0  0  0  0  0
  1  4  1  0  0  0  0
  1  7  1  0  0  0  0
  2  1  2  0  0  0  0
  3  5  2  0  0  0  0
  3  2  1  0  0  0  0
  5  6  1  0  0  0  0
  6 31  1  0  0  0  0
  6  4  2  0  0  0  0
  7  8  1  0  0  0  0
  8 10  1  0  0  0  0
  8 12  1  1  0  0  0
  9 10  2  0  0  0  0
 10 11  1  0  0  0  0
 12 13  1  0  0  0  0
 14 18  1  0  0  0  0
 14 20  1  0  0  0  0
 15 19  1  0  0  0  0
 15 17  1  0  0  0  0
 16 17  2  0  0  0  0
 17 18  1  0  0  0  0
 18 13  1  6  0  0  0
 19 14  2  0  0  0  0
 20 21  2  0  0  0  0
 22 20  1  0  0  0  0
 22 23  1  0  0  0  0
 23 24  1  6  0  0  0
 25 26  1  0  0  0  0
 27 30  1  0  0  0  0
 28 27  2  0  0  0  0
 28 29  1  0  0  0  0
 29 25  2  0  0  0  0
 30 23  1  0  0  0  0
 30 26  2  0  0  0  0
 32 34  1  0  0  0  0
 32 35  1  0  0  0  0
 32 36  1  1  0  0  0
 34 33  1  6  0  0  0
 34 35  1  0  0  0  0
 34 31  1  0  0  0  0
 37 38  2  0  0  0  0
 38 36  1  0  0  0  0
 38 39  1  0  0  0  0
 40  2  1  0  0  0  0
 41 40  1  0  0  0  0
 42 44  1  0  0  0  0
 42 41  1  1  0  0  0
 44 43  1  0  0  0  0
 45 49  1  6  0  0  0
 45 42  1  0  0  0  0
 46 47  1  0  0  0  0
 47 48  2  0  0  0  0
 49 47  1  0  0  0  0
 50 66  1  6  0  0  0
 50 45  1  0  0  0  0
 51 52  1  0  0  0  0
 52 58  1  6  0  0  0
 53 55  1  0  0  0  0
 54 53  1  0  0  0  0
 54 51  2  0  0  0  0
 55 50  1  6  0  0  0
 55 52  1  0  0  0  0
 57 58  2  0  0  0  0
 58 56  1  0  0  0  0
 60 59  1  1  0  0  0
 60 53  1  0  0  0  0
 60 61  1  0  0  0  0
 61 62  1  0  0  0  0
 62 63  1  0  0  0  0
 63 64  1  0  0  0  0
 65 66  1  0  0  0  0
M  END
>  <MODEL>
7

>  <REMARK>
 VINA RESULT:      -4.5      1.624      2.228
  Name = 
  28 active torsions:
  status: ('A' for Active; 'I' for Inactive)
    1  A    between atoms: C_1  and  C_55
    2  A    between atoms: C_3  and  C_14
    3  A    between atoms: C_3  and  C_24
    4  A    between atoms: O_4  and  C_10
    5  A    between atoms: O_4  and  C_63
    6  A    between atoms: C_7  and  C_53
    7  A    between atoms: C_7  and  C_66
    8  A    between atoms: C_8  and  C_62
    9  A    between atoms: C_11  and  C_61
   10  A    between atoms: C_12  and  C_28
   11  A    between atoms: C_12  and  C_52
   12  A    between atoms: C_13  and  N_23
   13  A    between atoms: C_13  and  C_57
   14  A    between atoms: C_14  and  C_27
   15  A    between atoms: C_14  and  O_37
   16  A    between atoms: C_15  and  O_41
   17  A    between atoms: C_15  and  C_48
   18  A    between atoms: C_16  and  C_58
   19  A    between atoms: C_16  and  C_63
   20  A    between atoms: C_20  and  C_35
   21  A    between atoms: C_20  and  C_57
   22  A    between atoms: C_24  and  C_26
   23  A    between atoms: C_27  and  N_46
   24  A    between atoms: C_27  and  C_62
   25  A    between atoms: C_38  and  C_62
   26  A    between atoms: O_41  and  C_55
   27  A    between atoms: C_45  and  C_58
   28  A    between atoms: C_60  and  C_63
                            x       y       z     vdW  Elec       q    Type
                         _______ _______ _______ _____ _____    ______ ____

>  <TORSDO>
F 28

$$$$
=
 OpenBabel11062421283D

 66 70  0  0  1  0  0  0  0  0999 V2000
  193.4120  173.4780  143.4110 C   0  0  0  0  0  0  0  0  0  0  0  0
  193.0670  174.4210  144.3940 C   0  0  0  0  0  0  0  0  0  0  0  0
  193.9710  174.7270  145.4160 C   0  0  0  0  0  3  0  0  0  0  0  0
  194.6590  172.8380  143.4750 C   0  0  0  0  0  3  0  0  0  0  0  0
  195.2110  174.0850  145.4750 C   0  0  0  0  0  3  0  0  0  0  0  0
  195.5560  173.1380  144.5040 C   0  0  0  0  0  0  0  0  0  0  0  0
  192.5040  173.1930  142.3840 O   0  0  0  0  0  0  0  0  0  0  0  0
  192.0830  171.8750  142.0510 C   0  0  2  0  0  3  0  0  0  0  0  0
  190.3810  171.3010  143.7830 O   0  0  0  0  0  0  0  0  0  0  0  0
  191.6690  171.1460  143.2920 C   0  0  0  0  0  0  0  0  0  0  0  0
  192.4780  170.3890  143.8920 O   0  0  0  0  0  1  0  0  0  0  0  0
  193.2300  171.1570  141.3580 C   0  0  0  0  0  2  0  0  0  0  0  0
  192.8910  170.8390  139.9020 C   0  0  0  0  0  2  0  0  0  0  0  0
  194.8610  171.1810  138.3620 C   0  0  0  0  0  0  0  0  0  0  0  0
  193.9770  169.6460  136.4410 S   0  0  0  0  0  0  0  0  0  0  0  0
  192.9700  168.2010  138.4140 O   0  0  0  0  0  0  0  0  0  0  0  0
  193.5700  169.2250  138.1240 C   0  0  0  0  0  0  0  0  0  0  0  0
  194.0570  170.1890  139.1480 C   0  0  2  0  0  3  0  0  0  0  0  0
  194.8870  171.0220  137.0780 N   0  0  0  0  0  0  0  0  0  0  0  0
  195.5650  172.3070  138.9900 C   0  0  0  0  0  0  0  0  0  0  0  0
  196.8260  172.3220  139.0320 O   0  0  0  0  0  0  0  0  0  0  0  0
  194.8240  173.3450  139.5630 O   0  0  0  0  0  0  0  0  0  0  0  0
  195.1760  174.7170  139.4130 C   0  0  2  0  0  3  0  0  0  0  0  0
  196.1910  174.8890  138.2950 C   0  0  0  0  0  1  0  0  0  0  0  0
  195.4610  176.6850  142.6370 C   0  0  0  0  0  3  0  0  0  0  0  0
  194.9530  176.1460  141.4500 C   0  0  0  0  0  3  0  0  0  0  0  0
  197.0200  174.9240  141.1230 C   0  0  0  0  0  3  0  0  0  0  0  0
  197.5260  175.4610  142.3100 C   0  0  0  0  0  3  0  0  0  0  0  0
  196.7450  176.3410  143.0670 C   0  0  0  0  0  3  0  0  0  0  0  0
  195.7260  175.2570  140.6930 C   0  0  0  0  0  0  0  0  0  0  0  0
  196.8660  172.4280  144.5760 C   0  0  0  0  0  2  0  0  0  0  0  0
  197.1170  169.8180  144.1870 C   0  0  2  0  0  3  0  0  0  0  0  0
  195.7680  170.6890  146.0230 O   0  0  0  0  0  1  0  0  0  0  0  0
  196.6850  170.9730  145.0120 C   0  0  2  0  0  0  0  0  0  0  0  0
  197.9140  170.3280  145.2370 O   0  0  0  0  0  0  0  0  0  0  0  0
  197.7090  170.2330  142.8460 C   0  0  0  0  0  2  0  0  0  0  0  0
  195.8810  168.7820  141.9750 O   0  0  0  0  0  1  0  0  0  0  0  0
  197.0690  169.4670  141.7440 C   0  0  0  0  0  0  0  0  0  0  0  0
  197.5900  169.4550  140.5980 O   0  0  0  0  0  0  0  0  0  0  0  0
  191.7660  175.1470  144.3240 C   0  0  0  0  0  2  0  0  0  0  0  0
  190.7680  174.5070  145.2720 C   0  0  0  0  0  2  0  0  0  0  0  0
  190.1650  175.5480  146.2150 C   0  0  2  0  0  3  0  0  0  0  0  0
  191.2790  175.2440  148.0890 O   0  0  0  0  0  1  0  0  0  0  0  0
  190.0830  175.0960  147.5490 O   0  0  0  0  0  0  0  0  0  0  0  0
  188.8610  176.1830  145.6930 C   0  0  1  0  0  3  0  0  0  0  0  0
  186.8300  178.4650  148.0810 C   0  0  0  0  0  1  0  0  0  0  0  0
  187.2020  177.2930  147.2450 C   0  0  0  0  0  0  0  0  0  0  0  0
  186.4300  176.3010  147.1820 O   0  0  0  0  0  0  0  0  0  0  0  0
  188.4220  177.3140  146.5040 N   0  0  0  0  0  2  0  0  0  0  0  0
  188.9220  176.5380  144.1980 C   0  0  1  0  0  3  0  0  0  0  0  0
  187.0960  175.6830  141.1740 C   0  0  0  0  0  3  0  0  0  0  0  0
  187.9570  175.0790  142.2370 C   0  0  2  0  0  3  0  0  0  0  0  0
  186.8330  177.0410  142.8970 N   0  0  0  0  0  0  0  0  0  0  0  0
  186.5090  176.7550  141.5720 N   0  0  0  0  0  0  0  0  0  0  0  0
  187.6740  175.9920  143.4620 C   0  0  2  0  0  3  0  0  0  0  0  0
  190.1200  176.2290  141.6750 O   0  0  0  0  0  1  0  0  0  0  0  0
  189.9050  173.9640  141.4270 O   0  0  0  0  0  0  0  0  0  0  0  0
  189.3780  175.0560  141.7550 C   0  0  0  0  0  0  0  0  0  0  0  0
  185.2820  177.2710  144.6440 O   0  0  0  0  0  1  0  0  0  0  0  0
  186.0350  177.9670  143.6970 C   0  0  2  0  0  3  0  0  0  0  0  0
  185.1340  178.8220  142.8100 C   0  0  0  0  0  2  0  0  0  0  0  0
  183.7180  178.2650  142.7210 C   0  0  0  0  0  2  0  0  0  0  0  0
  183.0670  178.6960  141.4210 C   0  0  0  0  0  2  0  0  0  0  0  0
  181.5990  178.3160  141.4150 C   0  0  0  0  0  1  0  0  0  0  0  0
  190.5570  178.3880  143.9070 C   0  0  0  0  0  1  0  0  0  0  0  0
  189.0850  178.0430  144.0040 C   0  0  0  0  0  2  0  0  0  0  0  0
  1  4  2  0  0  0  0
  1  2  1  0  0  0  0
  2  3  2  0  0  0  0
  3  5  1  0  0  0  0
  4  6  1  0  0  0  0
  6 31  1  0  0  0  0
  6  5  2  0  0  0  0
  7  1  1  0  0  0  0
  8 12  1  1  0  0  0
  8  7  1  0  0  0  0
  8 10  1  0  0  0  0
 10  9  2  0  0  0  0
 10 11  1  0  0  0  0
 13 12  1  0  0  0  0
 14 20  1  0  0  0  0
 14 18  1  0  0  0  0
 15 19  1  0  0  0  0
 15 17  1  0  0  0  0
 17 16  2  0  0  0  0
 17 18  1  0  0  0  0
 18 13  1  6  0  0  0
 19 14  2  0  0  0  0
 20 21  2  0  0  0  0
 20 22  1  0  0  0  0
 23 24  1  6  0  0  0
 23 22  1  0  0  0  0
 23 30  1  0  0  0  0
 25 29  1  0  0  0  0
 26 25  2  0  0  0  0
 27 28  1  0  0  0  0
 28 29  2  0  0  0  0
 30 27  2  0  0  0  0
 30 26  1  0  0  0  0
 31 34  1  0  0  0  0
 32 36  1  6  0  0  0
 32 34  1  0  0  0  0
 32 35  1  0  0  0  0
 34 35  1  0  0  0  0
 34 33  1  1  0  0  0
 38 37  1  0  0  0  0
 38 36  1  0  0  0  0
 39 38  2  0  0  0  0
 40  2  1  0  0  0  0
 40 41  1  0  0  0  0
 42 41  1  6  0  0  0
 42 44  1  0  0  0  0
 44 43  1  0  0  0  0
 45 42  1  0  0  0  0
 45 49  1  1  0  0  0
 47 46  1  0  0  0  0
 48 47  2  0  0  0  0
 49 47  1  0  0  0  0
 50 66  1  1  0  0  0
 50 45  1  0  0  0  0
 51 54  2  0  0  0  0
 51 52  1  0  0  0  0
 52 58  1  6  0  0  0
 52 55  1  0  0  0  0
 53 55  1  0  0  0  0
 53 60  1  0  0  0  0
 54 53  1  0  0  0  0
 55 50  1  6  0  0  0
 56 58  1  0  0  0  0
 57 58  2  0  0  0  0
 60 59  1  1  0  0  0
 61 60  1  0  0  0  0
 62 61  1  0  0  0  0
 63 62  1  0  0  0  0
 64 63  1  0  0  0  0
 65 66  1  0  0  0  0
M  END
>  <MODEL>
8

>  <REMARK>
 VINA RESULT:      -4.5      3.016     10.176
  Name = 
  28 active torsions:
  status: ('A' for Active; 'I' for Inactive)
    1  A    between atoms: C_1  and  C_55
    2  A    between atoms: C_3  and  C_14
    3  A    between atoms: C_3  and  C_24
    4  A    between atoms: O_4  and  C_10
    5  A    between atoms: O_4  and  C_63
    6  A    between atoms: C_7  and  C_53
    7  A    between atoms: C_7  and  C_66
    8  A    between atoms: C_8  and  C_62
    9  A    between atoms: C_11  and  C_61
   10  A    between atoms: C_12  and  C_28
   11  A    between atoms: C_12  and  C_52
   12  A    between atoms: C_13  and  N_23
   13  A    between atoms: C_13  and  C_57
   14  A    between atoms: C_14  and  C_27
   15  A    between atoms: C_14  and  O_37
   16  A    between atoms: C_15  and  O_41
   17  A    between atoms: C_15  and  C_48
   18  A    between atoms: C_16  and  C_58
   19  A    between atoms: C_16  and  C_63
   20  A    between atoms: C_20  and  C_35
   21  A    between atoms: C_20  and  C_57
   22  A    between atoms: C_24  and  C_26
   23  A    between atoms: C_27  and  N_46
   24  A    between atoms: C_27  and  C_62
   25  A    between atoms: C_38  and  C_62
   26  A    between atoms: O_41  and  C_55
   27  A    between atoms: C_45  and  C_58
   28  A    between atoms: C_60  and  C_63
                            x       y       z     vdW  Elec       q    Type
                         _______ _______ _______ _____ _____    ______ ____

>  <TORSDO>
F 28

$$$$
=
 OpenBabel11062421283D

 66 70  0  0  1  0  0  0  0  0999 V2000
  192.5820  171.4120  141.8760 C   0  0  0  0  0  0  0  0  0  0  0  0
  191.3370  171.9950  142.1730 C   0  0  0  0  0  0  0  0  0  0  0  0
  190.1850  171.5510  141.5180 C   0  0  0  0  0  3  0  0  0  0  0  0
  192.6570  170.3990  140.9080 C   0  0  0  0  0  3  0  0  0  0  0  0
  190.2660  170.5420  140.5550 C   0  0  0  0  0  3  0  0  0  0  0  0
  191.5040  169.9650  140.2480 C   0  0  0  0  0  0  0  0  0  0  0  0
  193.7250  171.8550  142.5500 O   0  0  0  0  0  0  0  0  0  0  0  0
  194.8920  171.0580  142.7250 C   0  0  2  0  0  3  0  0  0  0  0  0
  196.6360  170.7230  144.4790 O   0  0  0  0  0  0  0  0  0  0  0  0
  195.3570  171.1470  144.1460 C   0  0  0  0  0  0  0  0  0  0  0  0
  194.6010  171.6090  145.0410 O   0  0  0  0  0  1  0  0  0  0  0  0
  195.9670  171.5500  141.7700 C   0  0  0  0  0  2  0  0  0  0  0  0
  195.4330  172.6380  140.8400 C   0  0  0  0  0  2  0  0  0  0  0  0
  196.2490  174.8650  139.9780 C   0  0  0  0  0  0  0  0  0  0  0  0
  196.3740  174.1570  137.4660 S   0  0  0  0  0  0  0  0  0  0  0  0
  197.0760  171.7990  138.4360 O   0  0  0  0  0  0  0  0  0  0  0  0
  196.7070  172.9310  138.7130 C   0  0  0  0  0  0  0  0  0  0  0  0
  196.5480  173.4020  140.1160 C   0  0  2  0  0  3  0  0  0  0  0  0
  196.1400  175.3240  138.7720 N   0  0  0  0  0  0  0  0  0  0  0  0
  196.0490  175.7470  141.1350 C   0  0  0  0  0  0  0  0  0  0  0  0
  196.1100  177.0000  140.9940 O   0  0  0  0  0  0  0  0  0  0  0  0
  195.8180  175.1860  142.3940 O   0  0  0  0  0  0  0  0  0  0  0  0
  196.5140  175.6050  143.5640 C   0  0  2  0  0  3  0  0  0  0  0  0
  197.4810  174.5290  144.0270 C   0  0  0  0  0  1  0  0  0  0  0  0
  194.5520  177.5730  146.1390 C   0  0  0  0  0  3  0  0  0  0  0  0
  195.4310  177.2540  145.0980 C   0  0  0  0  0  3  0  0  0  0  0  0
  194.7890  174.9240  145.2750 C   0  0  0  0  0  3  0  0  0  0  0  0
  193.9110  175.2430  146.3140 C   0  0  0  0  0  3  0  0  0  0  0  0
  193.7910  176.5690  146.7440 C   0  0  0  0  0  3  0  0  0  0  0  0
  195.5460  175.9300  144.6560 C   0  0  0  0  0  0  0  0  0  0  0  0
  191.6030  168.9070  139.2010 C   0  0  0  0  0  2  0  0  0  0  0  0
  192.2090  169.8610  136.8030 C   0  0  2  0  0  3  0  0  0  0  0  0
  193.8980  168.7680  138.1830 O   0  0  0  0  0  1  0  0  0  0  0  0
  192.6080  169.2930  138.1150 C   0  0  2  0  0  0  0  0  0  0  0  0
  192.6290  170.6790  137.8780 O   0  0  0  0  0  0  0  0  0  0  0  0
  190.6980  169.9700  136.6370 C   0  0  0  0  0  2  0  0  0  0  0  0
  191.0180  172.1020  135.3890 O   0  0  0  0  0  0  0  0  0  0  0  0
  190.3150  171.3770  136.3440 C   0  0  0  0  0  0  0  0  0  0  0  0
  189.3420  171.9050  136.9450 O   0  0  0  0  0  1  0  0  0  0  0  0
  191.2250  173.0430  143.2270 C   0  0  0  0  0  2  0  0  0  0  0  0
  190.4210  174.2190  142.7010 C   0  0  0  0  0  2  0  0  0  0  0  0
  188.9690  174.1430  143.1740 C   0  0  2  0  0  3  0  0  0  0  0  0
  188.6930  174.4080  141.0060 O   0  0  0  0  0  1  0  0  0  0  0  0
  188.0490  174.0640  142.1070 O   0  0  0  0  0  0  0  0  0  0  0  0
  188.6010  175.2000  144.2340 C   0  0  1  0  0  3  0  0  0  0  0  0
  190.4980  175.5550  147.5970 C   0  0  0  0  0  1  0  0  0  0  0  0
  189.3780  175.3960  146.6320 C   0  0  0  0  0  0  0  0  0  0  0  0
  188.1980  175.2910  147.0570 O   0  0  0  0  0  0  0  0  0  0  0  0
  189.6500  175.3880  145.2310 N   0  0  0  0  0  2  0  0  0  0  0  0
  188.1490  176.5350  143.6190 C   0  0  1  0  0  3  0  0  0  0  0  0
  185.0890  177.9770  142.2900 C   0  0  0  0  0  3  0  0  0  0  0  0
  186.1000  176.9100  142.0170 C   0  0  2  0  0  3  0  0  0  0  0  0
  185.9460  177.5450  144.2810 N   0  0  0  0  0  0  0  0  0  0  0  0
  185.0440  178.3000  143.5340 N   0  0  0  0  0  0  0  0  0  0  0  0
  186.6110  176.5550  143.4410 C   0  0  2  0  0  3  0  0  0  0  0  0
  187.2190  176.9700  139.7680 O   0  0  0  0  0  0  0  0  0  0  0  0
  187.9200  178.3470  141.4560 O   0  0  0  0  0  1  0  0  0  0  0  0
  187.1310  177.4490  141.0700 C   0  0  0  0  0  0  0  0  0  0  0  0
  185.2590  176.2280  146.0990 O   0  0  0  0  0  1  0  0  0  0  0  0
  185.8400  177.4440  145.7340 C   0  0  2  0  0  3  0  0  0  0  0  0
  185.0510  178.6160  146.3090 C   0  0  0  0  0  2  0  0  0  0  0  0
  185.9540  179.7690  146.7280 C   0  0  0  0  0  2  0  0  0  0  0  0
  186.6470  179.4440  148.0380 C   0  0  0  0  0  2  0  0  0  0  0  0
  185.9550  178.2830  148.7260 C   0  0  0  0  0  1  0  0  0  0  0  0
  190.0440  178.0900  144.0310 C   0  0  0  0  0  1  0  0  0  0  0  0
  188.6410  177.7120  144.4570 C   0  0  0  0  0  2  0  0  0  0  0  0
  1  2  1  0  0  0  0
  1  7  1  0  0  0  0
  2 40  1  0  0  0  0
  3  2  2  0  0  0  0
  4  1  2  0  0  0  0
  5  3  1  0  0  0  0
  6  5  2  0  0  0  0
  6  4  1  0  0  0  0
  7  8  1  0  0  0  0
  8 12  1  6  0  0  0
  8 10  1  0  0  0  0
 10  9  2  0  0  0  0
 10 11  1  0  0  0  0
 13 12  1  0  0  0  0
 14 18  1  0  0  0  0
 14 20  1  0  0  0  0
 15 17  1  0  0  0  0
 15 19  1  0  0  0  0
 16 17  2  0  0  0  0
 17 18  1  0  0  0  0
 18 13  1  6  0  0  0
 19 14  2  0  0  0  0
 20 22  1  0  0  0  0
 21 20  2  0  0  0  0
 22 23  1  0  0  0  0
 23 24  1  1  0  0  0
 23 30  1  0  0  0  0
 25 29  1  0  0  0  0
 26 25  2  0  0  0  0
 27 28  1  0  0  0  0
 28 29  2  0  0  0  0
 30 26  1  0  0  0  0
 30 27  2  0  0  0  0
 31  6  1  0  0  0  0
 32 36  1  1  0  0  0
 32 35  1  0  0  0  0
 32 34  1  0  0  0  0
 34 33  1  1  0  0  0
 34 31  1  0  0  0  0
 35 34  1  0  0  0  0
 37 38  2  0  0  0  0
 38 36  1  0  0  0  0
 38 39  1  0  0  0  0
 41 40  1  0  0  0  0
 42 41  1  6  0  0  0
 42 45  1  0  0  0  0
 43 44  1  0  0  0  0
 44 42  1  0  0  0  0
 45 49  1  1  0  0  0
 47 48  2  0  0  0  0
 47 46  1  0  0  0  0
 49 47  1  0  0  0  0
 50 45  1  0  0  0  0
 50 66  1  1  0  0  0
 51 54  2  0  0  0  0
 52 58  1  6  0  0  0
 52 51  1  0  0  0  0
 52 55  1  0  0  0  0
 53 60  1  0  0  0  0
 54 53  1  0  0  0  0
 55 50  1  6  0  0  0
 55 53  1  0  0  0  0
 56 58  2  0  0  0  0
 58 57  1  0  0  0  0
 60 59  1  6  0  0  0
 60 61  1  0  0  0  0
 61 62  1  0  0  0  0
 62 63  1  0  0  0  0
 63 64  1  0  0  0  0
 65 66  1  0  0  0  0
M  END
>  <MODEL>
9

>  <REMARK>
 VINA RESULT:      -4.4      2.528      8.990
  Name = 
  28 active torsions:
  status: ('A' for Active; 'I' for Inactive)
    1  A    between atoms: C_1  and  C_55
    2  A    between atoms: C_3  and  C_14
    3  A    between atoms: C_3  and  C_24
    4  A    between atoms: O_4  and  C_10
    5  A    between atoms: O_4  and  C_63
    6  A    between atoms: C_7  and  C_53
    7  A    between atoms: C_7  and  C_66
    8  A    between atoms: C_8  and  C_62
    9  A    between atoms: C_11  and  C_61
   10  A    between atoms: C_12  and  C_28
   11  A    between atoms: C_12  and  C_52
   12  A    between atoms: C_13  and  N_23
   13  A    between atoms: C_13  and  C_57
   14  A    between atoms: C_14  and  C_27
   15  A    between atoms: C_14  and  O_37
   16  A    between atoms: C_15  and  O_41
   17  A    between atoms: C_15  and  C_48
   18  A    between atoms: C_16  and  C_58
   19  A    between atoms: C_16  and  C_63
   20  A    between atoms: C_20  and  C_35
   21  A    between atoms: C_20  and  C_57
   22  A    between atoms: C_24  and  C_26
   23  A    between atoms: C_27  and  N_46
   24  A    between atoms: C_27  and  C_62
   25  A    between atoms: C_38  and  C_62
   26  A    between atoms: O_41  and  C_55
   27  A    between atoms: C_45  and  C_58
   28  A    between atoms: C_60  and  C_63
                            x       y       z     vdW  Elec       q    Type
                         _______ _______ _______ _____ _____    ______ ____

>  <TORSDO>
F 28

$$$$
