=
 OpenBabel11072409283D

 40 45  0  0  1  0  0  0  0  0999 V2000
  190.0360  177.9530  142.3750 N   0  0  0  0  0  2  0  0  0  0  0  0
  188.6900  177.4950  144.2730 N   0  0  0  0  0  0  0  0  0  0  0  0
  188.8510  177.8230  142.8800 C   0  0  0  0  0  0  0  0  0  0  0  0
  189.5350  176.4760  146.3270 C   0  0  2  0  0  3  0  0  0  0  0  0
  190.3820  175.9450  145.1620 C   0  0  1  0  0  3  0  0  0  0  0  0
  189.8590  177.3790  145.1490 C   0  0  1  0  0  3  0  0  0  0  0  0
  192.7170  176.8920  144.9230 C   0  0  0  0  0  3  0  0  0  0  0  0
  192.4160  174.7780  146.0660 C   0  0  0  0  0  3  0  0  0  0  0  0
  191.8660  175.8890  145.4130 C   0  0  0  0  0  0  0  0  0  0  0  0
  194.0980  176.8010  145.1200 C   0  0  0  0  0  3  0  0  0  0  0  0
  193.7970  174.6890  146.2620 C   0  0  0  0  0  3  0  0  0  0  0  0
  194.6380  175.7020  145.7920 C   0  0  0  0  0  3  0  0  0  0  0  0
  190.3090  176.9640  147.5450 C   0  0  0  0  0  2  0  0  0  0  0  0
  189.8470  178.2280  147.9100 O   0  0  0  0  0  1  0  0  0  0  0  0
  187.6610  178.1830  142.0410 C   0  0  0  0  0  2  0  0  0  0  0  0
  187.4160  177.1630  140.9330 C   0  0  0  0  0  2  0  0  0  0  0  0
  187.1630  175.8410  141.4900 N   0  0  0  0  0  2  0  0  0  0  0  0
  188.1840  174.9390  140.9740 C   0  0  0  0  0  2  0  0  0  0  0  0
  188.4510  172.7260  142.0940 C   0  0  0  0  0  2  0  0  0  0  0  0
  190.5910  172.2980  143.3170 C   0  0  0  0  0  0  0  0  0  0  0  0
  191.2680  171.5770  144.0960 O   0  0  0  0  0  0  0  0  0  0  0  0
  189.2070  171.9970  143.1070 N   0  0  0  0  0  2  0  0  0  0  0  0
  188.8470  174.1990  142.1220 C   0  0  1  0  0  3  0  0  0  0  0  0
  190.3440  174.3400  142.0380 C   0  0  0  0  0  3  0  0  0  0  0  0
  191.1850  173.4790  142.6330 C   0  0  0  0  0  0  0  0  0  0  0  0
  192.6550  173.7140  142.5480 C   0  0  0  0  0  0  0  0  0  0  0  0
  195.4320  174.1460  142.4090 C   0  0  0  0  0  3  0  0  0  0  0  0
  194.5530  175.0630  141.8140 C   0  0  0  0  0  0  0  0  0  0  0  0
  193.5550  172.8100  143.1410 C   0  0  0  0  0  3  0  0  0  0  0  0
  194.9330  173.0240  143.0720 C   0  0  0  0  0  3  0  0  0  0  0  0
  193.1750  174.8400  141.8900 C   0  0  0  0  0  3  0  0  0  0  0  0
  196.2670  176.8080  141.4400 C   0  0  0  0  0  1  0  0  0  0  0  0
  195.0200  176.1970  141.1420 O   0  0  0  0  0  0  0  0  0  0  0  0
  187.3780  177.0840  144.7730 C   0  0  0  0  0  2  0  0  0  0  0  0
  184.9170  176.8410  146.6760 C   0  0  0  0  0  2  0  0  0  0  0  0
  185.6060  178.8350  144.6710 C   0  0  0  0  0  2  0  0  0  0  0  0
  184.4130  179.0340  145.5850 C   0  0  0  0  0  2  0  0  0  0  0  0
  186.7030  178.2290  145.5200 C   0  0  1  0  0  3  0  0  0  0  0  0
  184.6900  178.3230  146.9040 C   0  0  2  0  0  3  0  0  0  0  0  0
  186.1050  177.7760  146.8500 C   0  0  1  0  0  3  0  0  0  0  0  0
  1  3  2  0  0  0  0
  2 34  1  0  0  0  0
  3  2  1  0  0  0  0
  4 13  1  1  0  0  0
  5  9  1  1  0  0  0
  5  4  1  0  0  0  0
  6  2  1  6  0  0  0
  6  5  1  0  0  0  0
  6  4  1  0  0  0  0
  7 10  2  0  0  0  0
  7  9  1  0  0  0  0
  8 11  1  0  0  0  0
  9  8  2  0  0  0  0
 10 12  1  0  0  0  0
 12 11  2  0  0  0  0
 13 14  1  0  0  0  0
 15  3  1  0  0  0  0
 16 17  1  0  0  0  0
 16 15  1  0  0  0  0
 18 17  1  0  0  0  0
 19 23  1  0  0  0  0
 19 22  1  0  0  0  0
 20 21  2  0  0  0  0
 22 20  1  0  0  0  0
 23 18  1  6  0  0  0
 24 23  1  0  0  0  0
 24 25  2  0  0  0  0
 25 20  1  0  0  0  0
 26 25  1  0  0  0  0
 26 29  1  0  0  0  0
 27 30  1  0  0  0  0
 28 31  1  0  0  0  0
 28 27  2  0  0  0  0
 30 29  2  0  0  0  0
 31 26  2  0  0  0  0
 33 32  1  0  0  0  0
 33 28  1  0  0  0  0
 35 39  1  0  0  0  0
 36 38  1  0  0  0  0
 36 37  1  0  0  0  0
 38 34  1  6  0  0  0
 38 40  1  0  0  0  0
 39 37  1  6  0  0  0
 40 35  1  6  0  0  0
 40 39  1  0  0  0  0
M  END
>  <MODEL>
1

>  <REMARK>
 VINA RESULT:      -7.3      0.000      0.000
  Name = 
  12 active torsions:
  status: ('A' for Active; 'I' for Inactive)
    1  A    between atoms: C_3  and  N_5
    2  A    between atoms: C_3  and  C_30
    3  A    between atoms: C_4  and  C_40
    4  A    between atoms: N_5  and  C_29
    5  A    between atoms: C_12  and  O_13
    6  A    between atoms: C_15  and  C_29
    7  A    between atoms: C_15  and  C_33
    8  A    between atoms: N_17  and  C_36
    9  A    between atoms: N_17  and  C_37
   10  A    between atoms: C_19  and  C_32
   11  A    between atoms: C_21  and  C_36
   12  A    between atoms: C_28  and  C_34
                            x       y       z     vdW  Elec       q    Type
                         _______ _______ _______ _____ _____    ______ ____

>  <TORSDO>
F 12

$$$$
=
 OpenBabel11072409283D

 40 45  0  0  1  0  0  0  0  0999 V2000
  188.8270  178.1810  141.8320 N   0  0  0  0  0  2  0  0  0  0  0  0
  189.4800  175.9370  142.2310 N   0  0  0  0  0  0  0  0  0  0  0  0
  188.5030  176.9280  141.8620 C   0  0  0  0  0  0  0  0  0  0  0  0
  190.8250  176.6930  144.1270 C   0  0  2  0  0  3  0  0  0  0  0  0
  191.3960  175.3470  143.6590 C   0  0  1  0  0  3  0  0  0  0  0  0
  190.8260  176.3400  142.6490 C   0  0  1  0  0  3  0  0  0  0  0  0
  193.6670  175.0750  144.7450 C   0  0  0  0  0  3  0  0  0  0  0  0
  193.5440  175.4880  142.3620 C   0  0  0  0  0  3  0  0  0  0  0  0
  192.8990  175.2710  143.5870 C   0  0  0  0  0  0  0  0  0  0  0  0
  195.0620  175.0570  144.6700 C   0  0  0  0  0  3  0  0  0  0  0  0
  194.9400  175.4700  142.2890 C   0  0  0  0  0  3  0  0  0  0  0  0
  195.6990  175.2510  143.4430 C   0  0  0  0  0  3  0  0  0  0  0  0
  191.8410  177.8010  144.3660 C   0  0  0  0  0  2  0  0  0  0  0  0
  191.4510  178.9450  143.6700 O   0  0  0  0  0  1  0  0  0  0  0  0
  187.0650  176.5450  141.6730 C   0  0  0  0  0  2  0  0  0  0  0  0
  186.1770  177.7640  141.4380 C   0  0  0  0  0  2  0  0  0  0  0  0
  185.3630  178.0490  142.6120 N   0  0  0  0  0  2  0  0  0  0  0  0
  185.8940  179.2500  143.2400 C   0  0  0  0  0  2  0  0  0  0  0  0
  184.5790  178.4550  145.2050 C   0  0  0  0  0  2  0  0  0  0  0  0
  185.8530  177.6540  147.2030 C   0  0  0  0  0  0  0  0  0  0  0  0
  185.8610  177.2860  148.4070 O   0  0  0  0  0  0  0  0  0  0  0  0
  184.6450  178.1700  146.6340 N   0  0  0  0  0  2  0  0  0  0  0  0
  185.8890  179.0900  144.7490 C   0  0  1  0  0  3  0  0  0  0  0  0
  187.0580  178.2480  145.1890 C   0  0  0  0  0  3  0  0  0  0  0  0
  187.0800  177.5990  146.3630 C   0  0  0  0  0  0  0  0  0  0  0  0
  188.2960  176.8270  146.7510 C   0  0  0  0  0  0  0  0  0  0  0  0
  190.5770  175.3510  147.4840 C   0  0  0  0  0  3  0  0  0  0  0  0
  190.5050  176.7190  147.7860 C   0  0  0  0  0  0  0  0  0  0  0  0
  188.3890  175.4530  146.4620 C   0  0  0  0  0  3  0  0  0  0  0  0
  189.5200  174.7210  146.8250 C   0  0  0  0  0  3  0  0  0  0  0  0
  189.3670  177.4440  147.4180 C   0  0  0  0  0  3  0  0  0  0  0  0
  191.3350  178.1990  149.5860 C   0  0  0  0  0  1  0  0  0  0  0  0
  191.5460  177.3810  148.4440 O   0  0  0  0  0  0  0  0  0  0  0  0
  189.1970  174.5200  142.0030 C   0  0  0  0  0  2  0  0  0  0  0  0
  188.0340  172.7470  139.7130 C   0  0  0  0  0  2  0  0  0  0  0  0
  190.5960  172.6680  141.0920 C   0  0  0  0  0  2  0  0  0  0  0  0
  190.3340  171.7820  139.8900 C   0  0  0  0  0  2  0  0  0  0  0  0
  189.9610  174.0070  140.7870 C   0  0  1  0  0  3  0  0  0  0  0  0
  189.3350  172.4840  138.9790 C   0  0  2  0  0  3  0  0  0  0  0  0
  189.0610  173.8600  139.5610 C   0  0  1  0  0  3  0  0  0  0  0  0
  1  3  2  0  0  0  0
  3  2  1  0  0  0  0
  4 13  1  6  0  0  0
  5  9  1  6  0  0  0
  5  4  1  0  0  0  0
  6  2  1  1  0  0  0
  6  5  1  0  0  0  0
  6  4  1  0  0  0  0
  8  9  1  0  0  0  0
  9  7  2  0  0  0  0
 10  7  1  0  0  0  0
 11  8  2  0  0  0  0
 11 12  1  0  0  0  0
 12 10  2  0  0  0  0
 14 13  1  0  0  0  0
 15  3  1  0  0  0  0
 16 15  1  0  0  0  0
 16 17  1  0  0  0  0
 17 18  1  0  0  0  0
 19 22  1  0  0  0  0
 20 21  2  0  0  0  0
 22 20  1  0  0  0  0
 23 18  1  6  0  0  0
 23 24  1  0  0  0  0
 23 19  1  0  0  0  0
 24 25  2  0  0  0  0
 25 26  1  0  0  0  0
 25 20  1  0  0  0  0
 26 31  1  0  0  0  0
 27 28  1  0  0  0  0
 28 33  1  0  0  0  0
 29 26  2  0  0  0  0
 29 30  1  0  0  0  0
 30 27  2  0  0  0  0
 31 28  2  0  0  0  0
 33 32  1  0  0  0  0
 34  2  1  0  0  0  0
 37 36  1  0  0  0  0
 38 36  1  0  0  0  0
 38 34  1  1  0  0  0
 39 40  1  0  0  0  0
 39 35  1  1  0  0  0
 39 37  1  0  0  0  0
 40 35  1  1  0  0  0
 40 38  1  0  0  0  0
M  END
>  <MODEL>
2

>  <REMARK>
 VINA RESULT:      -6.9      2.167      6.222
  Name = 
  12 active torsions:
  status: ('A' for Active; 'I' for Inactive)
    1  A    between atoms: C_3  and  N_5
    2  A    between atoms: C_3  and  C_30
    3  A    between atoms: C_4  and  C_40
    4  A    between atoms: N_5  and  C_29
    5  A    between atoms: C_12  and  O_13
    6  A    between atoms: C_15  and  C_29
    7  A    between atoms: C_15  and  C_33
    8  A    between atoms: N_17  and  C_36
    9  A    between atoms: N_17  and  C_37
   10  A    between atoms: C_19  and  C_32
   11  A    between atoms: C_21  and  C_36
   12  A    between atoms: C_28  and  C_34
                            x       y       z     vdW  Elec       q    Type
                         _______ _______ _______ _____ _____    ______ ____

>  <TORSDO>
F 12

$$$$
=
 OpenBabel11072409283D

 40 45  0  0  1  0  0  0  0  0999 V2000
  188.2050  174.7640  142.5730 N   0  0  0  0  0  2  0  0  0  0  0  0
  189.9210  175.9520  143.6990 N   0  0  0  0  0  0  0  0  0  0  0  0
  189.4470  175.1260  142.6180 C   0  0  0  0  0  0  0  0  0  0  0  0
  189.5320  177.5890  145.4710 C   0  0  2  0  0  3  0  0  0  0  0  0
  188.3430  177.6610  144.5030 C   0  0  1  0  0  3  0  0  0  0  0  0
  189.0240  176.3260  144.7960 C   0  0  1  0  0  3  0  0  0  0  0  0
  186.4160  176.6440  145.7920 C   0  0  0  0  0  3  0  0  0  0  0  0
  186.2440  178.9380  145.0320 C   0  0  0  0  0  3  0  0  0  0  0  0
  186.9860  177.7550  145.1490 C   0  0  0  0  0  0  0  0  0  0  0  0
  185.1360  176.7310  146.3440 C   0  0  0  0  0  3  0  0  0  0  0  0
  184.9630  179.0220  145.5840 C   0  0  0  0  0  3  0  0  0  0  0  0
  184.4100  177.9200  146.2430 C   0  0  0  0  0  3  0  0  0  0  0  0
  189.1830  177.5260  146.9520 C   0  0  0  0  0  2  0  0  0  0  0  0
  189.4740  176.2530  147.4430 O   0  0  0  0  0  1  0  0  0  0  0  0
  190.4110  174.5400  141.6300 C   0  0  0  0  0  2  0  0  0  0  0  0
  189.9740  173.1540  141.1620 C   0  0  0  0  0  2  0  0  0  0  0  0
  190.8720  172.1260  141.6710 N   0  0  0  0  0  2  0  0  0  0  0  0
  190.6920  172.0550  143.1140 C   0  0  0  0  0  2  0  0  0  0  0  0
  192.0540  169.9870  142.8050 C   0  0  0  0  0  2  0  0  0  0  0  0
  194.3100  169.9150  143.8840 C   0  0  0  0  0  0  0  0  0  0  0  0
  195.3340  169.2590  144.2090 O   0  0  0  0  0  0  0  0  0  0  0  0
  193.1840  169.2270  143.3280 N   0  0  0  0  0  2  0  0  0  0  0  0
  191.7630  171.1690  143.7250 C   0  0  1  0  0  3  0  0  0  0  0  0
  193.0190  171.9620  143.9700 C   0  0  0  0  0  3  0  0  0  0  0  0
  194.2250  171.3860  144.0930 C   0  0  0  0  0  0  0  0  0  0  0  0
  195.4160  172.2340  144.3870 C   0  0  0  0  0  0  0  0  0  0  0  0
  197.6550  173.8380  144.9630 C   0  0  0  0  0  3  0  0  0  0  0  0
  197.2530  173.6550  143.6320 C   0  0  0  0  0  0  0  0  0  0  0  0
  195.8360  172.4350  145.7150 C   0  0  0  0  0  3  0  0  0  0  0  0
  196.9470  173.2300  146.0010 C   0  0  0  0  0  3  0  0  0  0  0  0
  196.1380  172.8570  143.3560 C   0  0  0  0  0  3  0  0  0  0  0  0
  197.4920  175.4380  141.9340 C   0  0  0  0  0  1  0  0  0  0  0  0
  197.9390  174.2490  142.5690 O   0  0  0  0  0  0  0  0  0  0  0  0
  191.2380  176.5800  143.6060 C   0  0  0  0  0  2  0  0  0  0  0  0
  192.7650  176.4850  146.3260 C   0  0  0  0  0  2  0  0  0  0  0  0
  193.6920  176.1320  143.5900 C   0  0  0  0  0  2  0  0  0  0  0  0
  194.6180  175.8770  144.7610 C   0  0  0  0  0  2  0  0  0  0  0  0
  192.3350  175.5910  143.9870 C   0  0  1  0  0  3  0  0  0  0  0  0
  193.7820  175.4230  145.9510 C   0  0  2  0  0  3  0  0  0  0  0  0
  192.3440  175.2890  145.4840 C   0  0  1  0  0  3  0  0  0  0  0  0
  1  3  2  0  0  0  0
  3  2  1  0  0  0  0
  4 13  1  1  0  0  0
  5  6  1  0  0  0  0
  5  9  1  1  0  0  0
  5  4  1  0  0  0  0
  6  2  1  6  0  0  0
  6  4  1  0  0  0  0
  7 10  1  0  0  0  0
  8  9  1  0  0  0  0
  8 11  2  0  0  0  0
  9  7  2  0  0  0  0
 11 12  1  0  0  0  0
 12 10  2  0  0  0  0
 13 14  1  0  0  0  0
 15  3  1  0  0  0  0
 16 15  1  0  0  0  0
 16 17  1  0  0  0  0
 17 18  1  0  0  0  0
 19 22  1  0  0  0  0
 19 23  1  0  0  0  0
 20 25  1  0  0  0  0
 20 21  2  0  0  0  0
 22 20  1  0  0  0  0
 23 18  1  6  0  0  0
 23 24  1  0  0  0  0
 24 25  2  0  0  0  0
 25 26  1  0  0  0  0
 26 29  1  0  0  0  0
 27 30  1  0  0  0  0
 28 27  2  0  0  0  0
 29 30  2  0  0  0  0
 31 28  1  0  0  0  0
 31 26  2  0  0  0  0
 32 33  1  0  0  0  0
 33 28  1  0  0  0  0
 34  2  1  0  0  0  0
 36 38  1  0  0  0  0
 36 37  1  0  0  0  0
 38 34  1  1  0  0  0
 38 40  1  0  0  0  0
 39 37  1  6  0  0  0
 39 35  1  0  0  0  0
 40 39  1  0  0  0  0
 40 35  1  1  0  0  0
M  END
>  <MODEL>
3

>  <REMARK>
 VINA RESULT:      -6.3      2.076      5.539
  Name = 
  12 active torsions:
  status: ('A' for Active; 'I' for Inactive)
    1  A    between atoms: C_3  and  N_5
    2  A    between atoms: C_3  and  C_30
    3  A    between atoms: C_4  and  C_40
    4  A    between atoms: N_5  and  C_29
    5  A    between atoms: C_12  and  O_13
    6  A    between atoms: C_15  and  C_29
    7  A    between atoms: C_15  and  C_33
    8  A    between atoms: N_17  and  C_36
    9  A    between atoms: N_17  and  C_37
   10  A    between atoms: C_19  and  C_32
   11  A    between atoms: C_21  and  C_36
   12  A    between atoms: C_28  and  C_34
                            x       y       z     vdW  Elec       q    Type
                         _______ _______ _______ _____ _____    ______ ____

>  <TORSDO>
F 12

$$$$
=
 OpenBabel11072409283D

 40 45  0  0  1  0  0  0  0  0999 V2000
  192.7420  172.2060  142.3740 N   0  0  0  0  0  2  0  0  0  0  0  0
  192.4950  173.6520  144.2370 N   0  0  0  0  0  0  0  0  0  0  0  0
  192.1080  172.5000  143.4630 C   0  0  0  0  0  0  0  0  0  0  0  0
  194.6110  174.7140  144.8450 C   0  0  2  0  0  3  0  0  0  0  0  0
  194.8810  173.7890  143.6500 C   0  0  1  0  0  3  0  0  0  0  0  0
  193.5580  174.5420  143.7630 C   0  0  1  0  0  3  0  0  0  0  0  0
  195.2340  175.1820  141.5650 C   0  0  0  0  0  3  0  0  0  0  0  0
  197.1200  174.0050  142.5270 C   0  0  0  0  0  3  0  0  0  0  0  0
  195.7650  174.3630  142.5740 C   0  0  0  0  0  0  0  0  0  0  0  0
  196.0570  175.6660  140.5450 C   0  0  0  0  0  3  0  0  0  0  0  0
  197.9410  174.4900  141.5060 C   0  0  0  0  0  3  0  0  0  0  0  0
  197.4110  175.3230  140.5160 C   0  0  0  0  0  3  0  0  0  0  0  0
  195.1910  176.1190  144.7450 C   0  0  0  0  0  2  0  0  0  0  0  0
  194.2120  177.0490  145.0940 O   0  0  0  0  0  1  0  0  0  0  0  0
  190.8690  171.7320  143.8130 C   0  0  0  0  0  2  0  0  0  0  0  0
  189.9580  171.5390  142.6030 C   0  0  0  0  0  2  0  0  0  0  0  0
  188.6440  172.1180  142.8440 N   0  0  0  0  0  2  0  0  0  0  0  0
  188.5280  173.3140  142.0220 C   0  0  0  0  0  2  0  0  0  0  0  0
  190.2130  175.1440  141.8380 C   0  0  0  0  0  2  0  0  0  0  0  0
  189.8010  177.2340  143.1500 C   0  0  0  0  0  0  0  0  0  0  0  0
  190.2130  178.3440  143.5760 O   0  0  0  0  0  0  0  0  0  0  0  0
  190.7100  176.3610  142.4710 N   0  0  0  0  0  2  0  0  0  0  0  0
  189.1630  174.4950  142.7340 C   0  0  1  0  0  3  0  0  0  0  0  0
  188.1110  175.5000  143.1200 C   0  0  0  0  0  3  0  0  0  0  0  0
  188.3970  176.7880  143.3640 C   0  0  0  0  0  0  0  0  0  0  0  0
  187.3080  177.7130  143.7920 C   0  0  0  0  0  0  0  0  0  0  0  0
  185.2560  179.4690  144.5800 C   0  0  0  0  0  3  0  0  0  0  0  0
  185.9760  178.7580  145.5520 C   0  0  0  0  0  0  0  0  0  0  0  0
  186.5750  178.4400  142.8370 C   0  0  0  0  0  3  0  0  0  0  0  0
  185.5570  179.3120  143.2270 C   0  0  0  0  0  3  0  0  0  0  0  0
  186.9950  177.8880  145.1500 C   0  0  0  0  0  3  0  0  0  0  0  0
  186.2430  178.0250  147.8990 C   0  0  0  0  0  1  0  0  0  0  0  0
  185.7000  178.8930  146.9150 O   0  0  0  0  0  0  0  0  0  0  0  0
  191.9680  173.8270  145.5900 C   0  0  0  0  0  2  0  0  0  0  0  0
  191.3670  175.9580  147.7890 C   0  0  0  0  0  2  0  0  0  0  0  0
  189.6010  174.2040  146.2790 C   0  0  0  0  0  2  0  0  0  0  0  0
  189.0370  175.2770  147.1900 C   0  0  0  0  0  2  0  0  0  0  0  0
  190.8040  174.8130  145.5920 C   0  0  1  0  0  3  0  0  0  0  0  0
  190.0290  176.4310  147.2520 C   0  0  2  0  0  3  0  0  0  0  0  0
  191.1620  176.1240  146.2900 C   0  0  1  0  0  3  0  0  0  0  0  0
  1  3  2  0  0  0  0
  2 34  1  0  0  0  0
  3 15  1  0  0  0  0
  3  2  1  0  0  0  0
  4 13  1  6  0  0  0
  5  9  1  6  0  0  0
  5  6  1  0  0  0  0
  5  4  1  0  0  0  0
  6  2  1  1  0  0  0
  6  4  1  0  0  0  0
  7  9  1  0  0  0  0
  8  9  2  0  0  0  0
 10  7  2  0  0  0  0
 11  8  1  0  0  0  0
 12 10  1  0  0  0  0
 12 11  2  0  0  0  0
 13 14  1  0  0  0  0
 16 17  1  0  0  0  0
 16 15  1  0  0  0  0
 18 17  1  0  0  0  0
 19 22  1  0  0  0  0
 19 23  1  0  0  0  0
 20 25  1  0  0  0  0
 20 21  2  0  0  0  0
 22 20  1  0  0  0  0
 23 18  1  6  0  0  0
 23 24  1  0  0  0  0
 24 25  2  0  0  0  0
 25 26  1  0  0  0  0
 26 31  1  0  0  0  0
 27 28  1  0  0  0  0
 28 33  1  0  0  0  0
 29 30  1  0  0  0  0
 29 26  2  0  0  0  0
 30 27  2  0  0  0  0
 31 28  2  0  0  0  0
 33 32  1  0  0  0  0
 36 37  1  0  0  0  0
 38 34  1  1  0  0  0
 38 36  1  0  0  0  0
 38 40  1  0  0  0  0
 39 37  1  6  0  0  0
 39 35  1  0  0  0  0
 40 39  1  0  0  0  0
 40 35  1  1  0  0  0
M  END
>  <MODEL>
4

>  <REMARK>
 VINA RESULT:      -6.3      2.032      6.609
  Name = 
  12 active torsions:
  status: ('A' for Active; 'I' for Inactive)
    1  A    between atoms: C_3  and  N_5
    2  A    between atoms: C_3  and  C_30
    3  A    between atoms: C_4  and  C_40
    4  A    between atoms: N_5  and  C_29
    5  A    between atoms: C_12  and  O_13
    6  A    between atoms: C_15  and  C_29
    7  A    between atoms: C_15  and  C_33
    8  A    between atoms: N_17  and  C_36
    9  A    between atoms: N_17  and  C_37
   10  A    between atoms: C_19  and  C_32
   11  A    between atoms: C_21  and  C_36
   12  A    between atoms: C_28  and  C_34
                            x       y       z     vdW  Elec       q    Type
                         _______ _______ _______ _____ _____    ______ ____

>  <TORSDO>
F 12

$$$$
=
 OpenBabel11072409283D

 40 45  0  0  1  0  0  0  0  0999 V2000
  194.0330  175.4200  142.0850 N   0  0  0  0  0  2  0  0  0  0  0  0
  193.9290  173.5360  143.5210 N   0  0  0  0  0  0  0  0  0  0  0  0
  194.5500  174.7540  143.0670 C   0  0  0  0  0  0  0  0  0  0  0  0
  191.9600  172.1100  143.7730 C   0  0  2  0  0  3  0  0  0  0  0  0
  191.4680  173.5310  143.4610 C   0  0  1  0  0  3  0  0  0  0  0  0
  192.7530  172.9990  142.8300 C   0  0  1  0  0  3  0  0  0  0  0  0
  190.6130  173.7890  141.0920 C   0  0  0  0  0  3  0  0  0  0  0  0
  189.0180  173.6310  142.9090 C   0  0  0  0  0  3  0  0  0  0  0  0
  190.3460  173.6230  142.4610 C   0  0  0  0  0  0  0  0  0  0  0  0
  189.5610  173.9230  140.1820 C   0  0  0  0  0  3  0  0  0  0  0  0
  187.9680  173.7660  141.9970 C   0  0  0  0  0  3  0  0  0  0  0  0
  188.2390  173.9080  140.6330 C   0  0  0  0  0  3  0  0  0  0  0  0
  191.3170  170.9900  142.9650 C   0  0  0  0  0  2  0  0  0  0  0  0
  192.2600  169.9900  142.7300 O   0  0  0  0  0  1  0  0  0  0  0  0
  195.8840  175.1740  143.6070 C   0  0  0  0  0  2  0  0  0  0  0  0
  195.8040  176.5070  144.3460 C   0  0  0  0  0  2  0  0  0  0  0  0
  195.0710  176.3660  145.5960 N   0  0  0  0  0  2  0  0  0  0  0  0
  193.8780  177.1970  145.5070 C   0  0  0  0  0  2  0  0  0  0  0  0
  192.1920  176.2220  147.0660 C   0  0  0  0  0  2  0  0  0  0  0  0
  189.9030  175.7730  146.1620 C   0  0  0  0  0  0  0  0  0  0  0  0
  188.7620  175.2590  146.3060 O   0  0  0  0  0  0  0  0  0  0  0  0
  190.9180  175.5130  147.1370 N   0  0  0  0  0  2  0  0  0  0  0  0
  192.6360  176.3300  145.6110 C   0  0  1  0  0  3  0  0  0  0  0  0
  191.5280  176.9040  144.7670 C   0  0  0  0  0  3  0  0  0  0  0  0
  190.2340  176.6180  144.9820 C   0  0  0  0  0  0  0  0  0  0  0  0
  189.1970  177.1840  144.0720 C   0  0  0  0  0  0  0  0  0  0  0  0
  187.2570  178.2560  142.3390 C   0  0  0  0  0  3  0  0  0  0  0  0
  187.0140  178.2200  143.7200 C   0  0  0  0  0  0  0  0  0  0  0  0
  189.4200  177.2340  142.6840 C   0  0  0  0  0  3  0  0  0  0  0  0
  188.4580  177.7660  141.8230 C   0  0  0  0  0  3  0  0  0  0  0  0
  187.9850  177.6870  144.5730 C   0  0  0  0  0  3  0  0  0  0  0  0
  184.5990  178.7270  143.5490 C   0  0  0  0  0  1  0  0  0  0  0  0
  185.8230  178.7040  144.2690 O   0  0  0  0  0  0  0  0  0  0  0  0
  194.3480  172.9380  144.7880 C   0  0  0  0  0  2  0  0  0  0  0  0
  194.5810  169.9720  145.7310 C   0  0  0  0  0  2  0  0  0  0  0  0
  196.5140  172.1490  145.7390 C   0  0  0  0  0  2  0  0  0  0  0  0
  196.9310  170.7400  146.1110 C   0  0  0  0  0  2  0  0  0  0  0  0
  195.5480  172.0210  144.5810 C   0  0  1  0  0  3  0  0  0  0  0  0
  196.0380  169.7570  145.3640 C   0  0  2  0  0  3  0  0  0  0  0  0
  195.1370  170.5560  144.4400 C   0  0  1  0  0  3  0  0  0  0  0  0
  1  3  2  0  0  0  0
  2 34  1  0  0  0  0
  3  2  1  0  0  0  0
  3 15  1  0  0  0  0
  4 13  1  6  0  0  0
  5  9  1  6  0  0  0
  5  4  1  0  0  0  0
  6  5  1  0  0  0  0
  6  2  1  1  0  0  0
  6  4  1  0  0  0  0
  7  9  1  0  0  0  0
  9  8  2  0  0  0  0
 10 12  1  0  0  0  0
 10  7  2  0  0  0  0
 11  8  1  0  0  0  0
 12 11  2  0  0  0  0
 14 13  1  0  0  0  0
 15 16  1  0  0  0  0
 16 17  1  0  0  0  0
 18 17  1  0  0  0  0
 19 22  1  0  0  0  0
 20 21  2  0  0  0  0
 20 22  1  0  0  0  0
 23 18  1  1  0  0  0
 23 19  1  0  0  0  0
 24 25  2  0  0  0  0
 24 23  1  0  0  0  0
 25 20  1  0  0  0  0
 26 31  1  0  0  0  0
 26 25  1  0  0  0  0
 27 28  1  0  0  0  0
 28 33  1  0  0  0  0
 28 31  2  0  0  0  0
 29 26  2  0  0  0  0
 30 27  2  0  0  0  0
 30 29  1  0  0  0  0
 32 33  1  0  0  0  0
 36 37  1  0  0  0  0
 38 34  1  1  0  0  0
 38 36  1  0  0  0  0
 39 35  1  1  0  0  0
 39 37  1  0  0  0  0
 40 38  1  0  0  0  0
 40 39  1  0  0  0  0
 40 35  1  1  0  0  0
M  END
>  <MODEL>
5

>  <REMARK>
 VINA RESULT:      -6.2      2.584      8.224
  Name = 
  12 active torsions:
  status: ('A' for Active; 'I' for Inactive)
    1  A    between atoms: C_3  and  N_5
    2  A    between atoms: C_3  and  C_30
    3  A    between atoms: C_4  and  C_40
    4  A    between atoms: N_5  and  C_29
    5  A    between atoms: C_12  and  O_13
    6  A    between atoms: C_15  and  C_29
    7  A    between atoms: C_15  and  C_33
    8  A    between atoms: N_17  and  C_36
    9  A    between atoms: N_17  and  C_37
   10  A    between atoms: C_19  and  C_32
   11  A    between atoms: C_21  and  C_36
   12  A    between atoms: C_28  and  C_34
                            x       y       z     vdW  Elec       q    Type
                         _______ _______ _______ _____ _____    ______ ____

>  <TORSDO>
F 12

$$$$
=
 OpenBabel11072409283D

 40 45  0  0  1  0  0  0  0  0999 V2000
  190.7950  176.6980  147.6330 N   0  0  0  0  0  2  0  0  0  0  0  0
  190.3650  176.2770  145.3390 N   0  0  0  0  0  0  0  0  0  0  0  0
  191.1450  176.1030  146.5380 C   0  0  0  0  0  0  0  0  0  0  0  0
  188.3720  176.9370  144.0870 C   0  0  2  0  0  3  0  0  0  0  0  0
  187.9100  176.4060  145.4510 C   0  0  1  0  0  3  0  0  0  0  0  0
  189.2160  177.1860  145.3260 C   0  0  1  0  0  3  0  0  0  0  0  0
  187.1540  178.1350  147.1380 C   0  0  0  0  0  3  0  0  0  0  0  0
  185.4900  176.9770  145.8130 C   0  0  0  0  0  3  0  0  0  0  0  0
  186.8340  177.2130  146.1300 C   0  0  0  0  0  0  0  0  0  0  0  0
  186.1410  178.8410  147.7930 C   0  0  0  0  0  3  0  0  0  0  0  0
  184.4780  177.6830  146.4700 C   0  0  0  0  0  3  0  0  0  0  0  0
  184.8040  178.6170  147.4580 C   0  0  0  0  0  3  0  0  0  0  0  0
  187.7550  178.2550  143.6410 C   0  0  0  0  0  2  0  0  0  0  0  0
  187.5890  178.2440  142.2570 O   0  0  0  0  0  1  0  0  0  0  0  0
  192.4540  175.3740  146.4930 C   0  0  0  0  0  2  0  0  0  0  0  0
  193.6410  176.3320  146.5550 C   0  0  0  0  0  2  0  0  0  0  0  0
  193.9730  176.8350  145.2290 N   0  0  0  0  0  2  0  0  0  0  0  0
  194.6440  175.7650  144.5040 C   0  0  0  0  0  2  0  0  0  0  0  0
  195.8070  175.9760  142.3060 C   0  0  0  0  0  2  0  0  0  0  0  0
  194.5730  175.2180  140.2670 C   0  0  0  0  0  0  0  0  0  0  0  0
  194.4930  175.1490  139.0120 O   0  0  0  0  0  0  0  0  0  0  0  0
  195.6060  176.0100  140.8620 N   0  0  0  0  0  2  0  0  0  0  0  0
  194.4530  175.9550  143.0100 C   0  0  1  0  0  3  0  0  0  0  0  0
  193.5900  174.8560  142.4500 C   0  0  0  0  0  3  0  0  0  0  0  0
  193.5980  174.5220  141.1500 C   0  0  0  0  0  0  0  0  0  0  0  0
  192.6760  173.4570  140.6610 C   0  0  0  0  0  0  0  0  0  0  0  0
  190.9540  171.4320  139.7390 C   0  0  0  0  0  3  0  0  0  0  0  0
  190.6580  172.7760  139.4670 C   0  0  0  0  0  0  0  0  0  0  0  0
  192.9540  172.1020  140.9180 C   0  0  0  0  0  3  0  0  0  0  0  0
  192.1000  171.0970  140.4610 C   0  0  0  0  0  3  0  0  0  0  0  0
  191.5210  173.7750  139.9280 C   0  0  0  0  0  3  0  0  0  0  0  0
  188.2000  172.8870  139.2070 C   0  0  0  0  0  1  0  0  0  0  0  0
  189.5180  173.1450  138.7460 O   0  0  0  0  0  0  0  0  0  0  0  0
  190.5970  175.4020  144.1910 C   0  0  0  0  0  2  0  0  0  0  0  0
  191.5020  172.4160  144.2460 C   0  0  0  0  0  2  0  0  0  0  0  0
  189.3170  173.7360  142.8470 C   0  0  0  0  0  2  0  0  0  0  0  0
  189.4490  172.2260  142.8320 C   0  0  0  0  0  2  0  0  0  0  0  0
  189.6790  174.1850  144.2460 C   0  0  1  0  0  3  0  0  0  0  0  0
  190.1280  171.7850  144.1220 C   0  0  2  0  0  3  0  0  0  0  0  0
  190.3180  173.0150  144.9910 C   0  0  1  0  0  3  0  0  0  0  0  0
  2  3  1  0  0  0  0
  3  1  2  0  0  0  0
  4 13  1  1  0  0  0
  4  6  1  0  0  0  0
  4  5  1  0  0  0  0
  5  9  1  1  0  0  0
  6  2  1  6  0  0  0
  6  5  1  0  0  0  0
  7 10  1  0  0  0  0
  8  9  1  0  0  0  0
  8 11  2  0  0  0  0
  9  7  2  0  0  0  0
 11 12  1  0  0  0  0
 12 10  2  0  0  0  0
 14 13  1  0  0  0  0
 15  3  1  0  0  0  0
 15 16  1  0  0  0  0
 17 16  1  0  0  0  0
 18 17  1  0  0  0  0
 19 23  1  0  0  0  0
 20 22  1  0  0  0  0
 20 25  1  0  0  0  0
 21 20  2  0  0  0  0
 22 19  1  0  0  0  0
 23 18  1  1  0  0  0
 24 23  1  0  0  0  0
 25 24  2  0  0  0  0
 26 29  1  0  0  0  0
 26 25  1  0  0  0  0
 27 30  1  0  0  0  0
 28 27  2  0  0  0  0
 28 31  1  0  0  0  0
 30 29  2  0  0  0  0
 31 26  2  0  0  0  0
 33 32  1  0  0  0  0
 33 28  1  0  0  0  0
 34  2  1  0  0  0  0
 36 38  1  0  0  0  0
 37 36  1  0  0  0  0
 38 34  1  6  0  0  0
 38 40  1  0  0  0  0
 39 37  1  6  0  0  0
 39 35  1  0  0  0  0
 39 40  1  0  0  0  0
 40 35  1  6  0  0  0
M  END
>  <MODEL>
6

>  <REMARK>
 VINA RESULT:      -6.1      2.532      6.349
  Name = 
  12 active torsions:
  status: ('A' for Active; 'I' for Inactive)
    1  A    between atoms: C_3  and  N_5
    2  A    between atoms: C_3  and  C_30
    3  A    between atoms: C_4  and  C_40
    4  A    between atoms: N_5  and  C_29
    5  A    between atoms: C_12  and  O_13
    6  A    between atoms: C_15  and  C_29
    7  A    between atoms: C_15  and  C_33
    8  A    between atoms: N_17  and  C_36
    9  A    between atoms: N_17  and  C_37
   10  A    between atoms: C_19  and  C_32
   11  A    between atoms: C_21  and  C_36
   12  A    between atoms: C_28  and  C_34
                            x       y       z     vdW  Elec       q    Type
                         _______ _______ _______ _____ _____    ______ ____

>  <TORSDO>
F 12

$$$$
=
 OpenBabel11072409283D

 40 45  0  0  1  0  0  0  0  0999 V2000
  190.0540  173.3500  145.7230 N   0  0  0  0  0  2  0  0  0  0  0  0
  188.9490  175.2770  144.8920 N   0  0  0  0  0  0  0  0  0  0  0  0
  189.5090  174.4990  145.9670 C   0  0  0  0  0  0  0  0  0  0  0  0
  189.2160  175.8580  142.5330 C   0  0  2  0  0  3  0  0  0  0  0  0
  190.3060  174.8370  142.8860 C   0  0  1  0  0  3  0  0  0  0  0  0
  188.9230  174.7470  143.5260 C   0  0  1  0  0  3  0  0  0  0  0  0
  189.8150  172.5410  141.9380 C   0  0  0  0  0  3  0  0  0  0  0  0
  191.5210  173.9060  140.8930 C   0  0  0  0  0  3  0  0  0  0  0  0
  190.5280  173.7490  141.8690 C   0  0  0  0  0  0  0  0  0  0  0  0
  190.0670  171.5210  141.0180 C   0  0  0  0  0  3  0  0  0  0  0  0
  191.7720  172.8840  139.9730 C   0  0  0  0  0  3  0  0  0  0  0  0
  191.0430  171.6930  140.0330 C   0  0  0  0  0  3  0  0  0  0  0  0
  188.4390  175.5870  141.2520 C   0  0  0  0  0  2  0  0  0  0  0  0
  187.2530  176.3200  141.2660 O   0  0  0  0  0  1  0  0  0  0  0  0
  189.3190  174.9240  147.3920 C   0  0  0  0  0  2  0  0  0  0  0  0
  190.4280  175.8650  147.8580 C   0  0  0  0  0  2  0  0  0  0  0  0
  191.7390  175.3320  147.5150 N   0  0  0  0  0  2  0  0  0  0  0  0
  192.5180  176.4150  146.9300 C   0  0  0  0  0  2  0  0  0  0  0  0
  194.7090  176.3560  145.7390 C   0  0  0  0  0  2  0  0  0  0  0  0
  195.1700  174.3920  144.2600 C   0  0  0  0  0  0  0  0  0  0  0  0
  195.8920  173.8360  143.3910 O   0  0  0  0  0  0  0  0  0  0  0  0
  195.4340  175.7500  144.6270 N   0  0  0  0  0  2  0  0  0  0  0  0
  193.2490  175.9180  145.6960 C   0  0  1  0  0  3  0  0  0  0  0  0
  193.1560  174.4180  145.6030 C   0  0  0  0  0  3  0  0  0  0  0  0
  194.0260  173.6820  144.8940 C   0  0  0  0  0  0  0  0  0  0  0  0
  193.8380  172.2060  144.8080 C   0  0  0  0  0  0  0  0  0  0  0  0
  193.4610  169.4220  144.6370 C   0  0  0  0  0  3  0  0  0  0  0  0
  194.3860  169.9450  145.5530 C   0  0  0  0  0  0  0  0  0  0  0  0
  192.9140  171.6580  143.9000 C   0  0  0  0  0  3  0  0  0  0  0  0
  192.7270  170.2770  143.8140 C   0  0  0  0  0  3  0  0  0  0  0  0
  194.5650  171.3300  145.6310 C   0  0  0  0  0  3  0  0  0  0  0  0
  194.6030  168.5240  147.5660 C   0  0  0  0  0  1  0  0  0  0  0  0
  195.1380  169.1170  146.3910 O   0  0  0  0  0  0  0  0  0  0  0  0
  188.5850  176.6750  145.1230 C   0  0  0  0  0  2  0  0  0  0  0  0
  186.4240  178.6380  144.0200 C   0  0  0  0  0  2  0  0  0  0  0  0
  187.0390  177.7840  146.7340 C   0  0  0  0  0  2  0  0  0  0  0  0
  185.8190  178.6370  146.4460 C   0  0  0  0  0  2  0  0  0  0  0  0
  187.1420  176.7840  145.6020 C   0  0  1  0  0  3  0  0  0  0  0  0
  185.3370  178.3320  145.0340 C   0  0  2  0  0  3  0  0  0  0  0  0
  186.1930  177.2060  144.4820 C   0  0  1  0  0  3  0  0  0  0  0  0
  1  3  2  0  0  0  0
  2 34  1  0  0  0  0
  2  3  1  0  0  0  0
  3 15  1  0  0  0  0
  4 13  1  6  0  0  0
  4  5  1  0  0  0  0
  4  6  1  0  0  0  0
  5  9  1  6  0  0  0
  5  6  1  0  0  0  0
  6  2  1  1  0  0  0
  8  9  2  0  0  0  0
  9  7  1  0  0  0  0
 10  7  2  0  0  0  0
 11 12  2  0  0  0  0
 11  8  1  0  0  0  0
 12 10  1  0  0  0  0
 13 14  1  0  0  0  0
 15 16  1  0  0  0  0
 17 16  1  0  0  0  0
 18 17  1  0  0  0  0
 20 22  1  0  0  0  0
 20 25  1  0  0  0  0
 21 20  2  0  0  0  0
 22 19  1  0  0  0  0
 23 19  1  0  0  0  0
 23 18  1  1  0  0  0
 24 23  1  0  0  0  0
 25 24  2  0  0  0  0
 26 25  1  0  0  0  0
 26 31  1  0  0  0  0
 27 28  1  0  0  0  0
 28 31  2  0  0  0  0
 28 33  1  0  0  0  0
 29 26  2  0  0  0  0
 30 29  1  0  0  0  0
 30 27  2  0  0  0  0
 33 32  1  0  0  0  0
 37 36  1  0  0  0  0
 38 34  1  6  0  0  0
 38 36  1  0  0  0  0
 39 35  1  6  0  0  0
 39 37  1  0  0  0  0
 40 35  1  6  0  0  0
 40 39  1  0  0  0  0
 40 38  1  0  0  0  0
M  END
>  <MODEL>
7

>  <REMARK>
 VINA RESULT:      -6.1      2.811      5.586
  Name = 
  12 active torsions:
  status: ('A' for Active; 'I' for Inactive)
    1  A    between atoms: C_3  and  N_5
    2  A    between atoms: C_3  and  C_30
    3  A    between atoms: C_4  and  C_40
    4  A    between atoms: N_5  and  C_29
    5  A    between atoms: C_12  and  O_13
    6  A    between atoms: C_15  and  C_29
    7  A    between atoms: C_15  and  C_33
    8  A    between atoms: N_17  and  C_36
    9  A    between atoms: N_17  and  C_37
   10  A    between atoms: C_19  and  C_32
   11  A    between atoms: C_21  and  C_36
   12  A    between atoms: C_28  and  C_34
                            x       y       z     vdW  Elec       q    Type
                         _______ _______ _______ _____ _____    ______ ____

>  <TORSDO>
F 12

$$$$
=
 OpenBabel11072409283D

 40 45  0  0  1  0  0  0  0  0999 V2000
  187.5960  174.9770  142.5070 N   0  0  0  0  0  2  0  0  0  0  0  0
  189.4680  175.4540  143.8820 N   0  0  0  0  0  0  0  0  0  0  0  0
  188.8720  174.8810  142.7020 C   0  0  0  0  0  0  0  0  0  0  0  0
  189.2900  177.3590  145.4020 C   0  0  2  0  0  3  0  0  0  0  0  0
  188.1100  177.4340  144.4230 C   0  0  1  0  0  3  0  0  0  0  0  0
  188.6310  176.0830  144.9070 C   0  0  1  0  0  3  0  0  0  0  0  0
  186.0680  176.8310  145.7910 C   0  0  0  0  0  3  0  0  0  0  0  0
  186.2000  179.0280  144.7810 C   0  0  0  0  0  3  0  0  0  0  0  0
  186.7790  177.7780  145.0370 C   0  0  0  0  0  0  0  0  0  0  0  0
  184.8110  177.1470  146.3130 C   0  0  0  0  0  3  0  0  0  0  0  0
  184.9430  179.3420  145.3030 C   0  0  0  0  0  3  0  0  0  0  0  0
  184.2490  178.4030  146.0730 C   0  0  0  0  0  3  0  0  0  0  0  0
  188.9470  177.5470  146.8740 C   0  0  0  0  0  2  0  0  0  0  0  0
  190.1210  177.5460  147.6270 O   0  0  0  0  0  1  0  0  0  0  0  0
  189.6860  174.0270  141.7770 C   0  0  0  0  0  2  0  0  0  0  0  0
  189.0360  173.8970  140.4020 C   0  0  0  0  0  2  0  0  0  0  0  0
  190.0230  173.5410  139.3920 N   0  0  0  0  0  2  0  0  0  0  0  0
  191.0160  172.6830  140.0240 C   0  0  0  0  0  2  0  0  0  0  0  0
  192.3100  174.1100  138.4390 C   0  0  0  0  0  2  0  0  0  0  0  0
  194.6320  174.7630  139.1030 C   0  0  0  0  0  0  0  0  0  0  0  0
  195.7400  175.2790  138.8010 O   0  0  0  0  0  0  0  0  0  0  0  0
  193.6500  174.5620  138.0800 N   0  0  0  0  0  2  0  0  0  0  0  0
  192.4040  173.0500  139.5330 C   0  0  1  0  0  3  0  0  0  0  0  0
  193.2460  173.5520  140.6760 C   0  0  0  0  0  3  0  0  0  0  0  0
  194.3280  174.3250  140.4920 C   0  0  0  0  0  0  0  0  0  0  0  0
  195.1420  174.7390  141.6700 C   0  0  0  0  0  0  0  0  0  0  0  0
  196.6750  175.5430  143.8890 C   0  0  0  0  0  3  0  0  0  0  0  0
  196.8630  174.2670  143.3380 C   0  0  0  0  0  0  0  0  0  0  0  0
  194.9740  176.0150  142.2380 C   0  0  0  0  0  3  0  0  0  0  0  0
  195.7340  176.4150  143.3390 C   0  0  0  0  0  3  0  0  0  0  0  0
  196.0970  173.8770  142.2340 C   0  0  0  0  0  3  0  0  0  0  0  0
  197.6710  171.9620  143.7300 C   0  0  0  0  0  1  0  0  0  0  0  0
  197.7970  173.3700  143.8640 O   0  0  0  0  0  0  0  0  0  0  0  0
  190.9220  175.5850  143.9670 C   0  0  0  0  0  2  0  0  0  0  0  0
  193.3260  175.9860  145.9160 C   0  0  0  0  0  2  0  0  0  0  0  0
  192.5930  173.7490  144.2040 C   0  0  0  0  0  2  0  0  0  0  0  0
  193.7400  173.6300  145.1880 C   0  0  0  0  0  2  0  0  0  0  0  0
  191.5040  174.5330  144.9050 C   0  0  1  0  0  3  0  0  0  0  0  0
  193.4600  174.5460  146.3730 C   0  0  2  0  0  3  0  0  0  0  0  0
  192.0810  175.1510  146.1770 C   0  0  1  0  0  3  0  0  0  0  0  0
  1  3  2  0  0  0  0
  2 34  1  0  0  0  0
  3  2  1  0  0  0  0
  4 13  1  1  0  0  0
  5  6  1  0  0  0  0
  5  9  1  1  0  0  0
  5  4  1  0  0  0  0
  6  2  1  6  0  0  0
  6  4  1  0  0  0  0
  7 10  1  0  0  0  0
  8  9  1  0  0  0  0
  8 11  2  0  0  0  0
  9  7  2  0  0  0  0
 11 12  1  0  0  0  0
 12 10  2  0  0  0  0
 13 14  1  0  0  0  0
 15  3  1  0  0  0  0
 16 15  1  0  0  0  0
 17 18  1  0  0  0  0
 17 16  1  0  0  0  0
 19 23  1  0  0  0  0
 20 25  1  0  0  0  0
 21 20  2  0  0  0  0
 22 19  1  0  0  0  0
 22 20  1  0  0  0  0
 23 18  1  1  0  0  0
 23 24  1  0  0  0  0
 25 24  2  0  0  0  0
 25 26  1  0  0  0  0
 26 31  2  0  0  0  0
 26 29  1  0  0  0  0
 28 33  1  0  0  0  0
 28 27  2  0  0  0  0
 29 30  2  0  0  0  0
 30 27  1  0  0  0  0
 31 28  1  0  0  0  0
 32 33  1  0  0  0  0
 35 39  1  0  0  0  0
 36 38  1  0  0  0  0
 36 37  1  0  0  0  0
 38 34  1  6  0  0  0
 38 40  1  0  0  0  0
 39 37  1  6  0  0  0
 40 35  1  6  0  0  0
 40 39  1  0  0  0  0
M  END
>  <MODEL>
8

>  <REMARK>
 VINA RESULT:      -6.1      2.172      5.788
  Name = 
  12 active torsions:
  status: ('A' for Active; 'I' for Inactive)
    1  A    between atoms: C_3  and  N_5
    2  A    between atoms: C_3  and  C_30
    3  A    between atoms: C_4  and  C_40
    4  A    between atoms: N_5  and  C_29
    5  A    between atoms: C_12  and  O_13
    6  A    between atoms: C_15  and  C_29
    7  A    between atoms: C_15  and  C_33
    8  A    between atoms: N_17  and  C_36
    9  A    between atoms: N_17  and  C_37
   10  A    between atoms: C_19  and  C_32
   11  A    between atoms: C_21  and  C_36
   12  A    between atoms: C_28  and  C_34
                            x       y       z     vdW  Elec       q    Type
                         _______ _______ _______ _____ _____    ______ ____

>  <TORSDO>
F 12

$$$$
=
 OpenBabel11072409283D

 40 45  0  0  1  0  0  0  0  0999 V2000
  189.6260  174.9150  147.7080 N   0  0  0  0  0  2  0  0  0  0  0  0
  189.7850  175.6910  145.4730 N   0  0  0  0  0  0  0  0  0  0  0  0
  190.3670  175.1430  146.6710 C   0  0  0  0  0  0  0  0  0  0  0  0
  188.0740  177.0740  146.5360 C   0  0  2  0  0  3  0  0  0  0  0  0
  188.2100  177.5410  145.0790 C   0  0  1  0  0  3  0  0  0  0  0  0
  188.3690  176.0650  145.4390 C   0  0  1  0  0  3  0  0  0  0  0  0
  186.3930  176.8820  143.4450 C   0  0  0  0  0  3  0  0  0  0  0  0
  186.2640  179.0370  144.5420 C   0  0  0  0  0  3  0  0  0  0  0  0
  186.9140  177.8090  144.3610 C   0  0  0  0  0  0  0  0  0  0  0  0
  185.2150  177.1660  142.7480 C   0  0  0  0  0  3  0  0  0  0  0  0
  185.0860  179.3200  143.8440 C   0  0  0  0  0  3  0  0  0  0  0  0
  184.5600  178.3830  142.9500 C   0  0  0  0  0  3  0  0  0  0  0  0
  186.6520  176.8530  147.0340 C   0  0  0  0  0  2  0  0  0  0  0  0
  186.3190  177.8550  147.9450 O   0  0  0  0  0  1  0  0  0  0  0  0
  191.8540  174.9900  146.7930 C   0  0  0  0  0  2  0  0  0  0  0  0
  192.5480  176.3310  147.0170 C   0  0  0  0  0  2  0  0  0  0  0  0
  193.8520  176.3570  146.3700 N   0  0  0  0  0  2  0  0  0  0  0  0
  193.6660  176.8590  145.0160 C   0  0  0  0  0  2  0  0  0  0  0  0
  195.9660  176.3240  144.2110 C   0  0  0  0  0  2  0  0  0  0  0  0
  196.3610  174.0410  143.2690 C   0  0  0  0  0  0  0  0  0  0  0  0
  197.1110  173.2370  142.6560 O   0  0  0  0  0  0  0  0  0  0  0  0
  196.7440  175.4160  143.3760 N   0  0  0  0  0  2  0  0  0  0  0  0
  194.4790  176.0270  144.0400 C   0  0  1  0  0  3  0  0  0  0  0  0
  194.2110  174.5610  144.2540 C   0  0  0  0  0  3  0  0  0  0  0  0
  195.0650  173.6050  143.8570 C   0  0  0  0  0  0  0  0  0  0  0  0
  194.7060  172.1720  144.0580 C   0  0  0  0  0  0  0  0  0  0  0  0
  194.0100  169.4690  144.4200 C   0  0  0  0  0  3  0  0  0  0  0  0
  194.6410  170.1710  145.4570 C   0  0  0  0  0  0  0  0  0  0  0  0
  194.0690  171.4480  143.0330 C   0  0  0  0  0  3  0  0  0  0  0  0
  193.7240  170.1070  143.2120 C   0  0  0  0  0  3  0  0  0  0  0  0
  194.9810  171.5150  145.2680 C   0  0  0  0  0  3  0  0  0  0  0  0
  196.2720  169.2870  147.0940 C   0  0  0  0  0  1  0  0  0  0  0  0
  194.9420  169.5630  146.6790 O   0  0  0  0  0  0  0  0  0  0  0  0
  190.5550  175.6920  144.2290 C   0  0  0  0  0  2  0  0  0  0  0  0
  190.9700  172.5990  144.1960 C   0  0  0  0  0  2  0  0  0  0  0  0
  190.8810  174.5490  142.0370 C   0  0  0  0  0  2  0  0  0  0  0  0
  190.9380  173.0640  141.7400 C   0  0  0  0  0  2  0  0  0  0  0  0
  189.9560  174.7160  143.2230 C   0  0  1  0  0  3  0  0  0  0  0  0
  190.2660  172.3150  142.8830 C   0  0  2  0  0  3  0  0  0  0  0  0
  189.6910  173.3440  143.8400 C   0  0  1  0  0  3  0  0  0  0  0  0
  2  3  1  0  0  0  0
  3 15  1  0  0  0  0
  3  1  2  0  0  0  0
  4 13  1  6  0  0  0
  5  9  1  6  0  0  0
  5  6  1  0  0  0  0
  5  4  1  0  0  0  0
  6  2  1  1  0  0  0
  6  4  1  0  0  0  0
  7  9  1  0  0  0  0
  9  8  2  0  0  0  0
 10 12  1  0  0  0  0
 10  7  2  0  0  0  0
 11  8  1  0  0  0  0
 12 11  2  0  0  0  0
 13 14  1  0  0  0  0
 15 16  1  0  0  0  0
 17 16  1  0  0  0  0
 18 17  1  0  0  0  0
 20 22  1  0  0  0  0
 20 25  1  0  0  0  0
 21 20  2  0  0  0  0
 22 19  1  0  0  0  0
 23 19  1  0  0  0  0
 23 24  1  0  0  0  0
 23 18  1  1  0  0  0
 25 26  1  0  0  0  0
 25 24  2  0  0  0  0
 26 31  1  0  0  0  0
 27 28  1  0  0  0  0
 28 33  1  0  0  0  0
 29 30  1  0  0  0  0
 29 26  2  0  0  0  0
 30 27  2  0  0  0  0
 31 28  2  0  0  0  0
 33 32  1  0  0  0  0
 34  2  1  0  0  0  0
 36 38  1  0  0  0  0
 37 36  1  0  0  0  0
 38 40  1  0  0  0  0
 38 34  1  1  0  0  0
 39 37  1  6  0  0  0
 39 40  1  0  0  0  0
 39 35  1  0  0  0  0
 40 35  1  1  0  0  0
M  END
>  <MODEL>
9

>  <REMARK>
 VINA RESULT:      -6.0      2.691      6.550
  Name = 
  12 active torsions:
  status: ('A' for Active; 'I' for Inactive)
    1  A    between atoms: C_3  and  N_5
    2  A    between atoms: C_3  and  C_30
    3  A    between atoms: C_4  and  C_40
    4  A    between atoms: N_5  and  C_29
    5  A    between atoms: C_12  and  O_13
    6  A    between atoms: C_15  and  C_29
    7  A    between atoms: C_15  and  C_33
    8  A    between atoms: N_17  and  C_36
    9  A    between atoms: N_17  and  C_37
   10  A    between atoms: C_19  and  C_32
   11  A    between atoms: C_21  and  C_36
   12  A    between atoms: C_28  and  C_34
                            x       y       z     vdW  Elec       q    Type
                         _______ _______ _______ _____ _____    ______ ____

>  <TORSDO>
F 12

$$$$
