=
 OpenBabel11062420213D

 53 58  0  0  1  0  0  0  0  0999 V2000
  190.9420  172.4880  140.6180 C   0  0  0  0  0  0  0  0  0  0  0  0
  189.1940  172.4560  138.7490 C   0  0  0  0  0  2  0  0  0  0  0  0
  190.4440  170.9000  142.5090 C   0  0  0  0  0  1  0  0  0  0  0  0
  190.2110  173.4260  141.1380 C   0  0  0  0  0  0  0  0  0  0  0  0
  189.2480  174.2820  141.2530 C   0  0  0  0  0  0  0  0  0  0  0  0
  191.3370  170.2210  140.2950 C   0  0  0  0  0  3  0  0  0  0  0  0
  188.8300  173.9590  138.7540 C   0  0  0  0  0  2  0  0  0  0  0  0
  190.6670  172.1740  139.1710 C   0  0  2  0  0  3  0  0  0  0  0  0
  188.4260  174.4420  140.0870 N   0  0  0  0  0  2  0  0  0  0  0  0
  190.9550  170.7120  139.1220 C   0  0  0  0  0  0  0  0  0  0  0  0
  191.3960  171.2640  141.3630 C   0  0  1  0  0  0  0  0  0  0  0  0
  190.1970  168.6870  137.9090 O   0  0  0  0  0  1  0  0  0  0  0  0
  190.8770  169.8990  137.8990 C   0  0  0  0  0  0  0  0  0  0  0  0
  191.4220  170.2930  136.8340 O   0  0  0  0  0  0  0  0  0  0  0  0
  192.7860  171.4650  141.8100 N   0  0  0  0  0  2  0  0  0  0  0  0
  195.5670  171.7300  144.2600 O   0  0  0  0  0  0  0  0  0  0  0  0
  192.8920  172.0800  143.1410 C   0  0  1  0  0  3  0  0  0  0  0  0
  194.9810  169.8350  143.0440 O   0  0  0  0  0  1  0  0  0  0  0  0
  194.7000  170.6160  144.1700 C   0  0  2  0  0  3  0  0  0  0  0  0
  193.2220  171.0340  144.2140 C   0  0  0  0  0  2  0  0  0  0  0  0
  195.3700  172.5650  143.1390 C   0  0  0  0  0  2  0  0  0  0  0  0
  193.9670  173.1750  143.1670 C   0  0  1  0  0  3  0  0  0  0  0  0
  193.7790  174.2910  142.1360 C   0  0  0  0  0  2  0  0  0  0  0  0
  193.6630  175.6760  142.7660 C   0  0  0  0  0  2  0  0  0  0  0  0
  195.9590  176.3790  142.4270 C   0  0  0  0  0  3  0  0  0  0  0  0
  197.2280  176.7980  142.8110 O   0  0  0  0  0  1  0  0  0  0  0  0
  194.9890  176.1120  143.3030 C   0  0  0  0  0  0  0  0  0  0  0  0
  195.1650  176.2470  144.7660 C   0  0  0  0  0  0  0  0  0  0  0  0
  194.7340  177.3810  145.4430 O   0  0  0  0  0  1  0  0  0  0  0  0
  195.7160  175.3220  145.4210 O   0  0  0  0  0  0  0  0  0  0  0  0
  188.6940  174.6140  142.5980 C   0  0  0  0  0  2  0  0  0  0  0  0
  189.0050  175.9170  144.6680 C   0  0  1  0  0  3  0  0  0  0  0  0
  189.6460  175.5530  143.3390 C   0  0  1  0  0  0  0  0  0  0  0  0
  190.1560  174.9290  144.6200 C   0  0  1  0  0  3  0  0  0  0  0  0
  189.1480  176.9780  143.5940 C   0  0  1  0  0  3  0  0  0  0  0  0
  185.4610  178.4660  141.9200 C   0  0  0  0  0  2  0  0  0  0  0  0
  186.0140  179.1440  143.1730 C   0  0  2  0  0  3  0  0  0  0  0  0
  186.9930  178.2220  143.9190 C   0  0  0  0  0  2  0  0  0  0  0  0
  187.7860  177.2950  142.9880 C   0  0  1  0  0  3  0  0  0  0  0  0
  187.9450  177.9140  141.6020 C   0  0  0  0  0  2  0  0  0  0  0  0
  186.2300  176.8980  140.3070 F   0  0  0  0  0  0  0  0  0  0  0  0
  186.5760  178.0790  140.9350 C   0  0  1  0  0  3  0  0  0  0  0  0
  184.8700  179.5490  144.0830 C   0  0  0  0  0  2  0  0  0  0  0  0
  184.1290  177.1420  146.7400 O   0  0  0  0  0  0  0  0  0  0  0  0
  184.6120  178.1610  146.1820 C   0  0  0  0  0  0  0  0  0  0  0  0
  184.3640  178.3840  144.7930 N   0  0  0  0  0  2  0  0  0  0  0  0
  185.4550  179.1040  146.9800 C   0  0  0  0  0  2  0  0  0  0  0  0
  187.4910  177.8170  147.3460 N   0  0  0  0  0  1  0  0  0  0  0  0
  186.3030  178.3480  147.9900 C   0  0  0  0  0  2  0  0  0  0  0  0
  191.3620  175.5690  145.0160 O   0  0  0  0  0  0  0  0  0  0  0  0
  191.9550  175.3210  146.2550 C   0  0  0  0  0  0  0  0  0  0  0  0
  192.7390  174.3470  146.4120 O   0  0  0  0  0  0  0  0  0  0  0  0
  191.6780  176.1830  147.3500 N   0  0  0  0  0  1  0  0  0  0  0  0
  1  4  2  0  0  0  0
  1 11  1  0  0  0  0
  2  7  1  0  0  0  0
  4  5  2  0  0  0  0
  5 31  1  0  0  0  0
  6 11  1  0  0  0  0
  7  9  1  0  0  0  0
  8  2  1  1  0  0  0
  8  1  1  0  0  0  0
  9  5  1  0  0  0  0
 10  8  1  0  0  0  0
 10  6  2  0  0  0  0
 11 15  1  0  0  0  0
 11  3  1  1  0  0  0
 13 12  1  0  0  0  0
 13 10  1  0  0  0  0
 14 13  2  0  0  0  0
 17 15  1  6  0  0  0
 17 22  1  0  0  0  0
 17 20  1  0  0  0  0
 19 18  1  6  0  0  0
 19 20  1  0  0  0  0
 19 16  1  0  0  0  0
 21 22  1  0  0  0  0
 21 16  1  0  0  0  0
 22 23  1  6  0  0  0
 23 24  1  0  0  0  0
 24 27  1  0  0  0  0
 25 26  1  0  0  0  0
 25 27  2  0  0  0  0
 27 28  1  0  0  0  0
 28 30  2  0  0  0  0
 28 29  1  0  0  0  0
 31 33  1  0  0  0  0
 33 35  1  0  0  0  0
 33 34  1  0  0  0  0
 33 32  1  0  0  0  0
 34 32  1  0  0  0  0
 34 50  1  0  0  0  0
 35 32  1  0  0  0  0
 36 37  1  0  0  0  0
 37 38  1  0  0  0  0
 37 43  1  0  0  0  0
 39 35  1  0  0  0  0
 39 38  1  0  0  0  0
 40 39  1  0  0  0  0
 41 42  1  0  0  0  0
 42 40  1  0  0  0  0
 42 36  1  0  0  0  0
 43 46  1  0  0  0  0
 45 44  2  0  0  0  0
 45 47  1  0  0  0  0
 46 45  1  0  0  0  0
 47 49  1  0  0  0  0
 48 49  1  0  0  0  0
 50 51  1  0  0  0  0
 51 52  2  0  0  0  0
 51 53  1  0  0  0  0
M  END
>  <MODEL>
1

>  <REMARK>
 VINA RESULT:      -7.2      0.000      0.000
  Name = 
  16 active torsions:
  status: ('A' for Active; 'I' for Inactive)
    1  A    between atoms: C_6  and  N_15
    2  A    between atoms: O_10  and  C_16
    3  A    between atoms: O_10  and  C_44
    4  A    between atoms: C_11  and  C_43
    5  A    between atoms: C_14  and  C_20
    6  A    between atoms: N_15  and  C_52
    7  A    between atoms: C_20  and  C_28
    8  A    between atoms: C_21  and  C_47
    9  A    between atoms: C_22  and  C_38
   10  A    between atoms: C_26  and  C_42
   11  A    between atoms: C_29  and  C_51
   12  A    between atoms: C_34  and  C_38
   13  A    between atoms: N_35  and  C_43
   14  A    between atoms: C_41  and  C_45
   15  A    between atoms: C_41  and  C_53
   16  A    between atoms: C_42  and  C_53
                            x       y       z     vdW  Elec       q    Type
                         _______ _______ _______ _____ _____    ______ ____

>  <TORSDO>
F 16

$$$$
=
 OpenBabel11062420213D

 53 58  0  0  1  0  0  0  0  0999 V2000
  189.8750  174.8030  143.2520 C   0  0  0  0  0  0  0  0  0  0  0  0
  188.3130  174.0460  141.3710 C   0  0  0  0  0  2  0  0  0  0  0  0
  192.0090  175.8670  142.4400 C   0  0  0  0  0  1  0  0  0  0  0  0
  190.3750  173.6080  143.1710 C   0  0  0  0  0  0  0  0  0  0  0  0
  190.5230  172.3860  142.7740 C   0  0  0  0  0  0  0  0  0  0  0  0
  189.7920  176.9830  142.4510 C   0  0  0  0  0  3  0  0  0  0  0  0
  188.1790  172.5590  141.7730 C   0  0  0  0  0  2  0  0  0  0  0  0
  188.5400  174.9970  142.5830 C   0  0  2  0  0  3  0  0  0  0  0  0
  189.4840  171.8890  141.9160 N   0  0  0  0  0  2  0  0  0  0  0  0
  188.6380  176.4130  142.1270 C   0  0  0  0  0  0  0  0  0  0  0  0
  190.6950  176.0620  143.2060 C   0  0  1  0  0  0  0  0  0  0  0  0
  187.2590  176.8350  140.1090 O   0  0  0  0  0  0  0  0  0  0  0  0
  187.5560  177.1310  141.4350 C   0  0  0  0  0  0  0  0  0  0  0  0
  186.8900  178.0160  142.0340 O   0  0  0  0  0  1  0  0  0  0  0  0
  190.8960  176.5510  144.5810 N   0  0  0  0  0  2  0  0  0  0  0  0
  190.7520  176.7120  148.2910 O   0  0  0  0  0  0  0  0  0  0  0  0
  190.1030  175.8270  145.5850 C   0  0  1  0  0  3  0  0  0  0  0  0
  192.6790  176.7250  146.9870 O   0  0  0  0  0  1  0  0  0  0  0  0
  191.6870  175.9310  147.5720 C   0  0  2  0  0  3  0  0  0  0  0  0
  191.0030  175.0270  146.5360 C   0  0  0  0  0  2  0  0  0  0  0  0
  190.0890  177.5820  147.3990 C   0  0  0  0  0  2  0  0  0  0  0  0
  189.2350  176.7860  146.4110 C   0  0  1  0  0  3  0  0  0  0  0  0
  188.2860  177.6660  145.5950 C   0  0  0  0  0  2  0  0  0  0  0  0
  186.9170  177.0300  145.3760 C   0  0  0  0  0  2  0  0  0  0  0  0
  185.5680  177.7730  147.2490 C   0  0  0  0  0  3  0  0  0  0  0  0
  184.5970  178.5340  147.8910 O   0  0  0  0  0  1  0  0  0  0  0  0
  185.8450  177.9000  145.9500 C   0  0  0  0  0  0  0  0  0  0  0  0
  185.1560  178.8710  145.0700 C   0  0  0  0  0  0  0  0  0  0  0  0
  183.7860  178.7960  144.8480 O   0  0  0  0  0  1  0  0  0  0  0  0
  185.8130  179.7870  144.5080 O   0  0  0  0  0  0  0  0  0  0  0  0
  191.8820  171.7720  142.7200 C   0  0  0  0  0  2  0  0  0  0  0  0
  193.8290  171.4000  141.2550 C   0  0  1  0  0  3  0  0  0  0  0  0
  192.6640  172.3350  141.5340 C   0  0  1  0  0  0  0  0  0  0  0  0
  192.6160  171.4020  140.3430 C   0  0  1  0  0  3  0  0  0  0  0  0
  194.1010  172.7850  141.8090 C   0  0  1  0  0  3  0  0  0  0  0  0
  195.8850  172.6430  145.7340 C   0  0  0  0  0  2  0  0  0  0  0  0
  196.5990  171.9290  144.5870 C   0  0  2  0  0  3  0  0  0  0  0  0
  195.6330  171.6310  143.4280 C   0  0  0  0  0  2  0  0  0  0  0  0
  194.5310  172.6890  143.2680 C   0  0  1  0  0  3  0  0  0  0  0  0
  194.9970  174.0490  143.7810 C   0  0  0  0  0  2  0  0  0  0  0  0
  194.0920  174.1850  145.9760 F   0  0  0  0  0  0  0  0  0  0  0  0
  195.2720  173.9790  145.2870 C   0  0  1  0  0  3  0  0  0  0  0  0
  197.2270  170.6440  145.0940 C   0  0  0  0  0  2  0  0  0  0  0  0
  195.2740  168.9200  147.6670 O   0  0  0  0  0  0  0  0  0  0  0  0
  195.7260  169.1950  146.5250 C   0  0  0  0  0  0  0  0  0  0  0  0
  196.6440  170.2800  146.3770 N   0  0  0  0  0  2  0  0  0  0  0  0
  195.2750  168.3950  145.3450 C   0  0  0  0  0  2  0  0  0  0  0  0
  193.0900  169.2020  144.6310 N   0  0  0  0  0  1  0  0  0  0  0  0
  193.7730  168.1690  145.3880 C   0  0  0  0  0  2  0  0  0  0  0  0
  192.9020  172.1280  139.1550 O   0  0  0  0  0  0  0  0  0  0  0  0
  191.9150  172.4170  138.2130 C   0  0  0  0  0  0  0  0  0  0  0  0
  192.2160  172.6350  137.0080 O   0  0  0  0  0  0  0  0  0  0  0  0
  190.5520  172.4560  138.6140 N   0  0  0  0  0  1  0  0  0  0  0  0
  2  7  1  0  0  0  0
  4  1  2  0  0  0  0
  5  4  2  0  0  0  0
  6 11  1  0  0  0  0
  7  9  1  0  0  0  0
  8  2  1  6  0  0  0
  8  1  1  0  0  0  0
  9  5  1  0  0  0  0
 10  6  2  0  0  0  0
 10  8  1  0  0  0  0
 11  3  1  6  0  0  0
 11  1  1  0  0  0  0
 11 15  1  0  0  0  0
 12 13  2  0  0  0  0
 13 14  1  0  0  0  0
 13 10  1  0  0  0  0
 17 15  1  6  0  0  0
 17 22  1  0  0  0  0
 17 20  1  0  0  0  0
 19 18  1  6  0  0  0
 19 16  1  0  0  0  0
 20 19  1  0  0  0  0
 21 16  1  0  0  0  0
 22 23  1  6  0  0  0
 22 21  1  0  0  0  0
 24 23  1  0  0  0  0
 24 27  1  0  0  0  0
 25 26  1  0  0  0  0
 27 25  2  0  0  0  0
 28 27  1  0  0  0  0
 29 28  1  0  0  0  0
 30 28  2  0  0  0  0
 31  5  1  0  0  0  0
 32 33  1  0  0  0  0
 32 35  1  0  0  0  0
 33 35  1  0  0  0  0
 33 31  1  0  0  0  0
 34 32  1  0  0  0  0
 34 33  1  0  0  0  0
 35 39  1  0  0  0  0
 37 43  1  0  0  0  0
 37 36  1  0  0  0  0
 38 37  1  0  0  0  0
 39 38  1  0  0  0  0
 39 40  1  0  0  0  0
 40 42  1  0  0  0  0
 42 36  1  0  0  0  0
 42 41  1  0  0  0  0
 43 46  1  0  0  0  0
 45 44  2  0  0  0  0
 46 45  1  0  0  0  0
 47 49  1  0  0  0  0
 47 45  1  0  0  0  0
 48 49  1  0  0  0  0
 50 34  1  0  0  0  0
 51 53  1  0  0  0  0
 51 50  1  0  0  0  0
 52 51  2  0  0  0  0
M  END
>  <MODEL>
2

>  <REMARK>
 VINA RESULT:      -7.2      2.928      9.085
  Name = 
  16 active torsions:
  status: ('A' for Active; 'I' for Inactive)
    1  A    between atoms: C_6  and  N_15
    2  A    between atoms: O_10  and  C_16
    3  A    between atoms: O_10  and  C_44
    4  A    between atoms: C_11  and  C_43
    5  A    between atoms: C_14  and  C_20
    6  A    between atoms: N_15  and  C_52
    7  A    between atoms: C_20  and  C_28
    8  A    between atoms: C_21  and  C_47
    9  A    between atoms: C_22  and  C_38
   10  A    between atoms: C_26  and  C_42
   11  A    between atoms: C_29  and  C_51
   12  A    between atoms: C_34  and  C_38
   13  A    between atoms: N_35  and  C_43
   14  A    between atoms: C_41  and  C_45
   15  A    between atoms: C_41  and  C_53
   16  A    between atoms: C_42  and  C_53
                            x       y       z     vdW  Elec       q    Type
                         _______ _______ _______ _____ _____    ______ ____

>  <TORSDO>
F 16

$$$$
=
 OpenBabel11062420213D

 53 58  0  0  1  0  0  0  0  0999 V2000
  191.8760  173.4170  141.0690 C   0  0  0  0  0  0  0  0  0  0  0  0
  189.8950  172.1310  140.0850 C   0  0  0  0  0  2  0  0  0  0  0  0
  192.8380  172.3730  143.1510 C   0  0  0  0  0  1  0  0  0  0  0  0
  190.9780  174.0690  141.7440 C   0  0  0  0  0  0  0  0  0  0  0  0
  189.8080  174.4380  142.1520 C   0  0  0  0  0  0  0  0  0  0  0  0
  193.2180  171.5330  140.8460 C   0  0  0  0  0  3  0  0  0  0  0  0
  188.8580  173.2780  140.0840 C   0  0  0  0  0  2  0  0  0  0  0  0
  191.3610  172.6220  139.8990 C   0  0  2  0  0  3  0  0  0  0  0  0
  188.7020  173.9030  141.4110 N   0  0  0  0  0  2  0  0  0  0  0  0
  192.3030  171.4660  139.8860 C   0  0  0  0  0  0  0  0  0  0  0  0
  193.0790  172.7610  141.6860 C   0  0  1  0  0  0  0  0  0  0  0  0
  191.6630  169.1710  139.1980 O   0  0  0  0  0  1  0  0  0  0  0  0
  192.2650  170.3860  138.8890 C   0  0  0  0  0  0  0  0  0  0  0  0
  192.7740  170.5500  137.7490 O   0  0  0  0  0  0  0  0  0  0  0  0
  194.2480  173.6410  141.5080 N   0  0  0  0  0  2  0  0  0  0  0  0
  196.1900  176.8040  141.3300 O   0  0  0  0  0  0  0  0  0  0  0  0
  193.8950  175.0110  141.1070 C   0  0  1  0  0  3  0  0  0  0  0  0
  196.2510  175.2480  143.0590 O   0  0  0  0  0  1  0  0  0  0  0  0
  195.5610  176.3310  142.5060 C   0  0  2  0  0  3  0  0  0  0  0  0
  194.0800  175.9970  142.2690 C   0  0  0  0  0  2  0  0  0  0  0  0
  196.1770  175.7860  140.3540 C   0  0  0  0  0  2  0  0  0  0  0  0
  194.7430  175.4820  139.9170 C   0  0  1  0  0  3  0  0  0  0  0  0
  194.6710  174.5860  138.6780 C   0  0  0  0  0  2  0  0  0  0  0  0
  193.4590  174.8770  137.7980 C   0  0  0  0  0  2  0  0  0  0  0  0
  195.1380  175.5850  136.1970 C   0  0  0  0  0  3  0  0  0  0  0  0
  195.6290  176.2740  135.0950 O   0  0  0  0  0  1  0  0  0  0  0  0
  193.8700  175.6740  136.6010 C   0  0  0  0  0  0  0  0  0  0  0  0
  192.8600  176.5070  135.9080 C   0  0  0  0  0  0  0  0  0  0  0  0
  193.1090  177.8410  135.6090 O   0  0  0  0  0  1  0  0  0  0  0  0
  191.7520  176.0080  135.5790 O   0  0  0  0  0  0  0  0  0  0  0  0
  189.6080  174.8750  143.5650 C   0  0  0  0  0  2  0  0  0  0  0  0
  189.8550  176.8450  145.0260 C   0  0  1  0  0  3  0  0  0  0  0  0
  190.4850  176.0900  143.8680 C   0  0  1  0  0  0  0  0  0  0  0  0
  191.0970  176.0020  145.2490 C   0  0  1  0  0  3  0  0  0  0  0  0
  189.8550  177.4670  143.6420 C   0  0  1  0  0  3  0  0  0  0  0  0
  185.9030  177.9950  141.9940 C   0  0  0  0  0  2  0  0  0  0  0  0
  186.3030  178.8390  143.2030 C   0  0  2  0  0  3  0  0  0  0  0  0
  187.4770  178.2020  143.9650 C   0  0  0  0  0  2  0  0  0  0  0  0
  188.4480  177.4350  143.0560 C   0  0  1  0  0  3  0  0  0  0  0  0
  188.4430  178.0080  141.6410 C   0  0  0  0  0  2  0  0  0  0  0  0
  186.9880  176.5680  140.4330 F   0  0  0  0  0  0  0  0  0  0  0  0
  187.0630  177.8250  141.0010 C   0  0  1  0  0  3  0  0  0  0  0  0
  185.1100  179.0170  144.1230 C   0  0  0  0  0  2  0  0  0  0  0  0
  185.9030  179.6580  147.6390 O   0  0  0  0  0  0  0  0  0  0  0  0
  185.5150  179.0300  146.6200 C   0  0  0  0  0  0  0  0  0  0  0  0
  185.5230  179.6830  145.3490 N   0  0  0  0  0  2  0  0  0  0  0  0
  185.0340  177.6220  146.7650 C   0  0  0  0  0  2  0  0  0  0  0  0
  187.1390  176.4250  147.0330 N   0  0  0  0  0  1  0  0  0  0  0  0
  185.9260  176.8410  147.7150 C   0  0  0  0  0  2  0  0  0  0  0  0
  192.2450  176.8380  145.3160 O   0  0  0  0  0  0  0  0  0  0  0  0
  193.4670  176.3730  145.8030 C   0  0  0  0  0  0  0  0  0  0  0  0
  193.6770  175.1390  145.9500 O   0  0  0  0  0  0  0  0  0  0  0  0
  194.4920  177.3030  146.1280 N   0  0  0  0  0  1  0  0  0  0  0  0
  1 11  1  0  0  0  0
  1  4  2  0  0  0  0
  4  5  2  0  0  0  0
  5 31  1  0  0  0  0
  6 11  1  0  0  0  0
  7  2  1  0  0  0  0
  7  9  1  0  0  0  0
  8  2  1  1  0  0  0
  8  1  1  0  0  0  0
  9  5  1  0  0  0  0
 10  8  1  0  0  0  0
 10  6  2  0  0  0  0
 11  3  1  1  0  0  0
 13 12  1  0  0  0  0
 13 10  1  0  0  0  0
 14 13  2  0  0  0  0
 15 11  1  0  0  0  0
 16 19  1  0  0  0  0
 17 15  1  1  0  0  0
 17 20  1  0  0  0  0
 19 18  1  6  0  0  0
 20 19  1  0  0  0  0
 21 16  1  0  0  0  0
 22 23  1  6  0  0  0
 22 21  1  0  0  0  0
 22 17  1  0  0  0  0
 24 23  1  0  0  0  0
 25 27  2  0  0  0  0
 26 25  1  0  0  0  0
 27 24  1  0  0  0  0
 28 27  1  0  0  0  0
 29 28  1  0  0  0  0
 30 28  2  0  0  0  0
 31 33  1  0  0  0  0
 32 34  1  0  0  0  0
 33 32  1  0  0  0  0
 33 34  1  0  0  0  0
 34 50  1  0  0  0  0
 35 33  1  0  0  0  0
 35 32  1  0  0  0  0
 36 37  1  0  0  0  0
 37 38  1  0  0  0  0
 37 43  1  0  0  0  0
 39 35  1  0  0  0  0
 39 38  1  0  0  0  0
 40 39  1  0  0  0  0
 41 42  1  0  0  0  0
 42 40  1  0  0  0  0
 42 36  1  0  0  0  0
 43 46  1  0  0  0  0
 45 47  1  0  0  0  0
 45 44  2  0  0  0  0
 46 45  1  0  0  0  0
 47 49  1  0  0  0  0
 48 49  1  0  0  0  0
 50 51  1  0  0  0  0
 51 52  2  0  0  0  0
 51 53  1  0  0  0  0
M  END
>  <MODEL>
3

>  <REMARK>
 VINA RESULT:      -7.1      2.693      3.803
  Name = 
  16 active torsions:
  status: ('A' for Active; 'I' for Inactive)
    1  A    between atoms: C_6  and  N_15
    2  A    between atoms: O_10  and  C_16
    3  A    between atoms: O_10  and  C_44
    4  A    between atoms: C_11  and  C_43
    5  A    between atoms: C_14  and  C_20
    6  A    between atoms: N_15  and  C_52
    7  A    between atoms: C_20  and  C_28
    8  A    between atoms: C_21  and  C_47
    9  A    between atoms: C_22  and  C_38
   10  A    between atoms: C_26  and  C_42
   11  A    between atoms: C_29  and  C_51
   12  A    between atoms: C_34  and  C_38
   13  A    between atoms: N_35  and  C_43
   14  A    between atoms: C_41  and  C_45
   15  A    between atoms: C_41  and  C_53
   16  A    between atoms: C_42  and  C_53
                            x       y       z     vdW  Elec       q    Type
                         _______ _______ _______ _____ _____    ______ ____

>  <TORSDO>
F 16

$$$$
=
 OpenBabel11062420213D

 53 58  0  0  1  0  0  0  0  0999 V2000
  193.7790  172.1190  142.9650 C   0  0  0  0  0  0  0  0  0  0  0  0
  196.2160  171.6580  143.5920 C   0  0  0  0  0  2  0  0  0  0  0  0
  193.4030  174.3820  141.9250 C   0  0  0  0  0  1  0  0  0  0  0  0
  193.6720  172.5920  144.1690 C   0  0  0  0  0  0  0  0  0  0  0  0
  194.0120  172.9110  145.3750 C   0  0  0  0  0  0  0  0  0  0  0  0
  194.4040  172.4390  140.7490 C   0  0  0  0  0  3  0  0  0  0  0  0
  196.0080  171.3420  145.0920 C   0  0  0  0  0  2  0  0  0  0  0  0
  194.9970  171.2730  142.7030 C   0  0  2  0  0  3  0  0  0  0  0  0
  195.2890  172.4140  145.8040 N   0  0  0  0  0  2  0  0  0  0  0  0
  195.2740  171.5830  141.2720 C   0  0  0  0  0  0  0  0  0  0  0  0
  193.3570  172.8620  141.7290 C   0  0  1  0  0  0  0  0  0  0  0  0
  197.0130  171.7050  139.5090 O   0  0  0  0  0  0  0  0  0  0  0  0
  196.3620  170.9710  140.4940 C   0  0  0  0  0  0  0  0  0  0  0  0
  196.7150  169.7830  140.7130 O   0  0  0  0  0  1  0  0  0  0  0  0
  192.0310  172.3750  141.3070 N   0  0  0  0  0  2  0  0  0  0  0  0
  189.2650  171.5180  138.9790 O   0  0  0  0  0  0  0  0  0  0  0  0
  191.5550  172.9780  140.0540 C   0  0  1  0  0  3  0  0  0  0  0  0
  190.7450  170.0200  139.9670 O   0  0  0  0  0  1  0  0  0  0  0  0
  190.5500  170.9310  138.9240 C   0  0  2  0  0  3  0  0  0  0  0  0
  191.6630  171.9900  138.8840 C   0  0  0  0  0  2  0  0  0  0  0  0
  189.1390  172.2530  140.1770 C   0  0  0  0  0  2  0  0  0  0  0  0
  190.0980  173.4460  140.1760 C   0  0  1  0  0  3  0  0  0  0  0  0
  189.8290  174.4320  141.3140 C   0  0  0  0  0  2  0  0  0  0  0  0
  188.3440  174.6880  141.5480 C   0  0  0  0  0  2  0  0  0  0  0  0
  189.1870  176.9110  142.0280 C   0  0  0  0  0  3  0  0  0  0  0  0
  189.0980  178.2540  142.3730 O   0  0  0  0  0  1  0  0  0  0  0  0
  188.1200  176.1150  141.9350 C   0  0  0  0  0  0  0  0  0  0  0  0
  186.7390  176.5880  142.1800 C   0  0  0  0  0  0  0  0  0  0  0  0
  186.1970  177.6390  141.4490 O   0  0  0  0  0  0  0  0  0  0  0  0
  186.0310  176.0350  143.0640 O   0  0  0  0  0  1  0  0  0  0  0  0
  193.4370  174.1250  146.0230 C   0  0  0  0  0  2  0  0  0  0  0  0
  193.6400  176.5810  146.0870 C   0  0  1  0  0  3  0  0  0  0  0  0
  193.7460  175.3640  145.1830 C   0  0  1  0  0  0  0  0  0  0  0  0
  195.0010  176.0600  145.6630 C   0  0  1  0  0  3  0  0  0  0  0  0
  192.6080  176.3710  144.9960 C   0  0  1  0  0  3  0  0  0  0  0  0
  188.5810  175.4790  146.2620 C   0  0  0  0  0  2  0  0  0  0  0  0
  188.9070  176.9090  145.8310 C   0  0  2  0  0  3  0  0  0  0  0  0
  190.4170  177.1860  145.9100 C   0  0  0  0  0  2  0  0  0  0  0  0
  191.2780  175.9500  145.6100 C   0  0  1  0  0  3  0  0  0  0  0  0
  190.5440  174.9800  144.6880 C   0  0  0  0  0  2  0  0  0  0  0  0
  189.6340  173.3500  146.1600 F   0  0  0  0  0  0  0  0  0  0  0  0
  189.2900  174.4380  145.3810 C   0  0  1  0  0  3  0  0  0  0  0  0
  188.1440  177.8920  146.6990 C   0  0  0  0  0  2  0  0  0  0  0  0
  184.5540  177.1800  146.6150 O   0  0  0  0  0  0  0  0  0  0  0  0
  185.6540  177.6970  146.2930 C   0  0  0  0  0  0  0  0  0  0  0  0
  186.8320  177.3520  147.0250 N   0  0  0  0  0  2  0  0  0  0  0  0
  185.7020  178.6790  145.1660 C   0  0  0  0  0  2  0  0  0  0  0  0
  183.9120  178.8350  143.5200 N   0  0  0  0  0  1  0  0  0  0  0  0
  184.3150  179.2190  144.8610 C   0  0  0  0  0  2  0  0  0  0  0  0
  195.5270  176.8700  144.6190 O   0  0  0  0  0  0  0  0  0  0  0  0
  196.3100  176.3350  143.5950 C   0  0  0  0  0  0  0  0  0  0  0  0
  196.2900  176.8340  142.4390 O   0  0  0  0  0  0  0  0  0  0  0  0
  197.1470  175.2180  143.8640 N   0  0  0  0  0  1  0  0  0  0  0  0
  1  4  2  0  0  0  0
  2  7  1  0  0  0  0
  4  5  2  0  0  0  0
  5  9  1  0  0  0  0
  5 31  1  0  0  0  0
  6 10  2  0  0  0  0
  6 11  1  0  0  0  0
  7  9  1  0  0  0  0
  8  1  1  0  0  0  0
  8  2  1  1  0  0  0
 10  8  1  0  0  0  0
 11  3  1  1  0  0  0
 11  1  1  0  0  0  0
 12 13  2  0  0  0  0
 13 14  1  0  0  0  0
 13 10  1  0  0  0  0
 15 11  1  0  0  0  0
 16 21  1  0  0  0  0
 17 22  1  0  0  0  0
 17 15  1  1  0  0  0
 19 16  1  0  0  0  0
 19 18  1  1  0  0  0
 20 19  1  0  0  0  0
 20 17  1  0  0  0  0
 22 21  1  0  0  0  0
 22 23  1  1  0  0  0
 23 24  1  0  0  0  0
 24 27  1  0  0  0  0
 25 26  1  0  0  0  0
 27 25  2  0  0  0  0
 27 28  1  0  0  0  0
 28 30  1  0  0  0  0
 29 28  2  0  0  0  0
 33 34  1  0  0  0  0
 33 31  1  0  0  0  0
 33 32  1  0  0  0  0
 34 32  1  0  0  0  0
 35 33  1  0  0  0  0
 35 39  1  0  0  0  0
 35 32  1  0  0  0  0
 37 38  1  0  0  0  0
 37 36  1  0  0  0  0
 37 43  1  0  0  0  0
 39 38  1  0  0  0  0
 40 42  1  0  0  0  0
 40 39  1  0  0  0  0
 42 41  1  0  0  0  0
 42 36  1  0  0  0  0
 43 46  1  0  0  0  0
 45 44  2  0  0  0  0
 45 46  1  0  0  0  0
 47 45  1  0  0  0  0
 48 49  1  0  0  0  0
 49 47  1  0  0  0  0
 50 34  1  0  0  0  0
 51 53  1  0  0  0  0
 51 50  1  0  0  0  0
 52 51  2  0  0  0  0
M  END
>  <MODEL>
4

>  <REMARK>
 VINA RESULT:      -7.0      2.504      5.904
  Name = 
  16 active torsions:
  status: ('A' for Active; 'I' for Inactive)
    1  A    between atoms: C_6  and  N_15
    2  A    between atoms: O_10  and  C_16
    3  A    between atoms: O_10  and  C_44
    4  A    between atoms: C_11  and  C_43
    5  A    between atoms: C_14  and  C_20
    6  A    between atoms: N_15  and  C_52
    7  A    between atoms: C_20  and  C_28
    8  A    between atoms: C_21  and  C_47
    9  A    between atoms: C_22  and  C_38
   10  A    between atoms: C_26  and  C_42
   11  A    between atoms: C_29  and  C_51
   12  A    between atoms: C_34  and  C_38
   13  A    between atoms: N_35  and  C_43
   14  A    between atoms: C_41  and  C_45
   15  A    between atoms: C_41  and  C_53
   16  A    between atoms: C_42  and  C_53
                            x       y       z     vdW  Elec       q    Type
                         _______ _______ _______ _____ _____    ______ ____

>  <TORSDO>
F 16

$$$$
=
 OpenBabel11062420213D

 53 58  0  0  1  0  0  0  0  0999 V2000
  191.2770  173.2340  139.4710 C   0  0  0  0  0  0  0  0  0  0  0  0
  189.2660  172.1360  138.3300 C   0  0  0  0  0  2  0  0  0  0  0  0
  192.8050  171.6040  140.6340 C   0  0  0  0  0  1  0  0  0  0  0  0
  190.4990  173.3300  140.5060 C   0  0  0  0  0  0  0  0  0  0  0  0
  189.4260  173.2400  141.2220 C   0  0  0  0  0  0  0  0  0  0  0  0
  192.7190  171.9490  138.1780 C   0  0  0  0  0  3  0  0  0  0  0  0
  188.1430  172.9340  139.0340 C   0  0  0  0  0  2  0  0  0  0  0  0
  190.5880  172.9430  138.1640 C   0  0  2  0  0  3  0  0  0  0  0  0
  188.2390  172.8710  140.5040 N   0  0  0  0  0  2  0  0  0  0  0  0
  191.6160  172.1250  137.4600 C   0  0  0  0  0  0  0  0  0  0  0  0
  192.6530  172.6310  139.5060 C   0  0  1  0  0  0  0  0  0  0  0  0
  191.1290  170.2700  135.8880 O   0  0  0  0  0  1  0  0  0  0  0  0
  191.4580  171.6050  136.0930 C   0  0  0  0  0  0  0  0  0  0  0  0
  191.6180  172.3610  135.0980 O   0  0  0  0  0  0  0  0  0  0  0  0
  193.6480  173.7160  139.5770 N   0  0  0  0  0  2  0  0  0  0  0  0
  196.9990  175.3130  139.7400 O   0  0  0  0  0  0  0  0  0  0  0  0
  194.9240  173.3050  140.1790 C   0  0  1  0  0  3  0  0  0  0  0  0
  195.6160  175.2060  137.8720 O   0  0  0  0  0  1  0  0  0  0  0  0
  196.5550  174.5240  138.6530 C   0  0  2  0  0  3  0  0  0  0  0  0
  196.0210  173.1600  139.1150 C   0  0  0  0  0  2  0  0  0  0  0  0
  195.9070  175.5940  140.5880 C   0  0  0  0  0  2  0  0  0  0  0  0
  195.3920  174.3090  141.2410 C   0  0  1  0  0  3  0  0  0  0  0  0
  194.3920  174.5700  142.3690 C   0  0  0  0  0  2  0  0  0  0  0  0
  194.4640  175.9920  142.9180 C   0  0  0  0  0  2  0  0  0  0  0  0
  194.1080  176.7670  145.1880 C   0  0  0  0  0  3  0  0  0  0  0  0
  194.3290  176.8220  146.5590 O   0  0  0  0  0  1  0  0  0  0  0  0
  194.8000  175.9680  144.3740 C   0  0  0  0  0  0  0  0  0  0  0  0
  195.8620  175.0550  144.8540 C   0  0  0  0  0  0  0  0  0  0  0  0
  195.5950  174.0730  145.8010 O   0  0  0  0  0  1  0  0  0  0  0  0
  197.0330  175.1600  144.4020 O   0  0  0  0  0  0  0  0  0  0  0  0
  189.5180  172.9660  142.6850 C   0  0  0  0  0  2  0  0  0  0  0  0
  190.9360  173.2980  144.6750 C   0  0  1  0  0  3  0  0  0  0  0  0
  190.9590  173.1470  143.1630 C   0  0  1  0  0  0  0  0  0  0  0  0
  191.4010  171.9980  144.0430 C   0  0  1  0  0  3  0  0  0  0  0  0
  191.3050  174.4890  143.8120 C   0  0  1  0  0  3  0  0  0  0  0  0
  188.4870  177.7410  144.1190 C   0  0  0  0  0  2  0  0  0  0  0  0
  189.2940  177.3620  145.3590 C   0  0  2  0  0  3  0  0  0  0  0  0
  189.8380  175.9270  145.2540 C   0  0  0  0  0  2  0  0  0  0  0  0
  190.1710  175.5070  143.8150 C   0  0  1  0  0  3  0  0  0  0  0  0
  190.5330  176.7180  142.9590 C   0  0  0  0  0  2  0  0  0  0  0  0
  188.5250  177.2340  141.7970 F   0  0  0  0  0  0  0  0  0  0  0  0
  189.3300  177.6580  142.8360 C   0  0  1  0  0  3  0  0  0  0  0  0
  188.4310  177.5100  146.5980 C   0  0  0  0  0  2  0  0  0  0  0  0
  184.9540  176.4020  146.3130 O   0  0  0  0  0  0  0  0  0  0  0  0
  185.9280  177.1900  146.4280 C   0  0  0  0  0  0  0  0  0  0  0  0
  187.2540  176.6620  146.4870 N   0  0  0  0  0  2  0  0  0  0  0  0
  185.6740  178.6610  146.5230 C   0  0  0  0  0  2  0  0  0  0  0  0
  185.4830  179.8960  144.4310 N   0  0  0  0  0  1  0  0  0  0  0  0
  184.7450  179.1210  145.4120 C   0  0  0  0  0  2  0  0  0  0  0  0
  192.8210  171.9300  144.0620 O   0  0  0  0  0  0  0  0  0  0  0  0
  193.4970  170.7850  144.4840 C   0  0  0  0  0  0  0  0  0  0  0  0
  193.3350  169.6830  143.8940 O   0  0  0  0  0  0  0  0  0  0  0  0
  194.3900  170.8640  145.5870 N   0  0  0  0  0  1  0  0  0  0  0  0
  1 11  1  0  0  0  0
  1  4  2  0  0  0  0
  2  7  1  0  0  0  0
  4  5  2  0  0  0  0
  5 31  1  0  0  0  0
  6 11  1  0  0  0  0
  7  9  1  0  0  0  0
  8  2  1  1  0  0  0
  8  1  1  0  0  0  0
  9  5  1  0  0  0  0
 10  8  1  0  0  0  0
 10  6  2  0  0  0  0
 11 15  1  0  0  0  0
 11  3  1  1  0  0  0
 12 13  1  0  0  0  0
 13 10  1  0  0  0  0
 14 13  2  0  0  0  0
 16 21  1  0  0  0  0
 17 15  1  6  0  0  0
 17 22  1  0  0  0  0
 19 18  1  1  0  0  0
 19 20  1  0  0  0  0
 19 16  1  0  0  0  0
 20 17  1  0  0  0  0
 21 22  1  0  0  0  0
 22 23  1  1  0  0  0
 23 24  1  0  0  0  0
 24 27  1  0  0  0  0
 25 26  1  0  0  0  0
 27 28  1  0  0  0  0
 27 25  2  0  0  0  0
 28 29  1  0  0  0  0
 30 28  2  0  0  0  0
 31 33  1  0  0  0  0
 33 35  1  0  0  0  0
 33 34  1  0  0  0  0
 33 32  1  0  0  0  0
 34 50  1  0  0  0  0
 34 32  1  0  0  0  0
 35 39  1  0  0  0  0
 35 32  1  0  0  0  0
 36 37  1  0  0  0  0
 37 43  1  0  0  0  0
 38 37  1  0  0  0  0
 39 38  1  0  0  0  0
 40 39  1  0  0  0  0
 41 42  1  0  0  0  0
 42 40  1  0  0  0  0
 42 36  1  0  0  0  0
 44 45  2  0  0  0  0
 45 46  1  0  0  0  0
 45 47  1  0  0  0  0
 46 43  1  0  0  0  0
 48 49  1  0  0  0  0
 49 47  1  0  0  0  0
 50 51  1  0  0  0  0
 51 53  1  0  0  0  0
 52 51  2  0  0  0  0
M  END
>  <MODEL>
5

>  <REMARK>
 VINA RESULT:      -7.0      2.080      3.501
  Name = 
  16 active torsions:
  status: ('A' for Active; 'I' for Inactive)
    1  A    between atoms: C_6  and  N_15
    2  A    between atoms: O_10  and  C_16
    3  A    between atoms: O_10  and  C_44
    4  A    between atoms: C_11  and  C_43
    5  A    between atoms: C_14  and  C_20
    6  A    between atoms: N_15  and  C_52
    7  A    between atoms: C_20  and  C_28
    8  A    between atoms: C_21  and  C_47
    9  A    between atoms: C_22  and  C_38
   10  A    between atoms: C_26  and  C_42
   11  A    between atoms: C_29  and  C_51
   12  A    between atoms: C_34  and  C_38
   13  A    between atoms: N_35  and  C_43
   14  A    between atoms: C_41  and  C_45
   15  A    between atoms: C_41  and  C_53
   16  A    between atoms: C_42  and  C_53
                            x       y       z     vdW  Elec       q    Type
                         _______ _______ _______ _____ _____    ______ ____

>  <TORSDO>
F 16

$$$$
=
 OpenBabel11062420213D

 53 58  0  0  1  0  0  0  0  0999 V2000
  192.0210  173.3340  141.7550 C   0  0  0  0  0  0  0  0  0  0  0  0
  190.1990  171.9680  140.5870 C   0  0  0  0  0  2  0  0  0  0  0  0
  192.7430  172.3860  143.9740 C   0  0  0  0  0  1  0  0  0  0  0  0
  191.0360  173.9880  142.2920 C   0  0  0  0  0  0  0  0  0  0  0  0
  189.8180  174.3440  142.5420 C   0  0  0  0  0  0  0  0  0  0  0  0
  193.4160  171.4750  141.7650 C   0  0  0  0  0  3  0  0  0  0  0  0
  189.1480  173.0910  140.4190 C   0  0  0  0  0  2  0  0  0  0  0  0
  191.6670  172.4870  140.5610 C   0  0  2  0  0  3  0  0  0  0  0  0
  188.8200  173.7570  141.6930 N   0  0  0  0  0  2  0  0  0  0  0  0
  192.6250  171.3540  140.7050 C   0  0  0  0  0  0  0  0  0  0  0  0
  193.1530  172.7280  142.5360 C   0  0  1  0  0  0  0  0  0  0  0  0
  192.4950  168.9350  140.1750 O   0  0  0  0  0  1  0  0  0  0  0  0
  192.7290  170.2380  139.7520 C   0  0  0  0  0  0  0  0  0  0  0  0
  193.0280  170.4520  138.5470 O   0  0  0  0  0  0  0  0  0  0  0  0
  194.3170  173.6290  142.4670 N   0  0  0  0  0  2  0  0  0  0  0  0
  196.2570  176.7940  142.3050 O   0  0  0  0  0  0  0  0  0  0  0  0
  193.9860  174.9830  142.0000 C   0  0  1  0  0  3  0  0  0  0  0  0
  196.2150  175.2970  144.0850 O   0  0  0  0  0  1  0  0  0  0  0  0
  195.5570  176.3570  143.4540 C   0  0  2  0  0  3  0  0  0  0  0  0
  194.0950  176.0070  143.1370 C   0  0  0  0  0  2  0  0  0  0  0  0
  196.3080  175.7440  141.3640 C   0  0  0  0  0  2  0  0  0  0  0  0
  194.9050  175.4170  140.8490 C   0  0  1  0  0  3  0  0  0  0  0  0
  194.9130  174.4810  139.6390 C   0  0  0  0  0  2  0  0  0  0  0  0
  193.7340  174.7060  138.6980 C   0  0  0  0  0  2  0  0  0  0  0  0
  195.5440  175.0870  137.1290 C   0  0  0  0  0  3  0  0  0  0  0  0
  196.1130  175.3720  135.8930 O   0  0  0  0  0  1  0  0  0  0  0  0
  194.2250  175.0290  137.3230 C   0  0  0  0  0  0  0  0  0  0  0  0
  193.2420  175.2510  136.2390 C   0  0  0  0  0  0  0  0  0  0  0  0
  193.0130  174.2870  135.2650 O   0  0  0  0  0  0  0  0  0  0  0  0
  192.5930  176.3300  136.1890 O   0  0  0  0  0  1  0  0  0  0  0  0
  189.4400  174.8250  143.9030 C   0  0  0  0  0  2  0  0  0  0  0  0
  189.6020  176.7810  145.3940 C   0  0  1  0  0  3  0  0  0  0  0  0
  190.3250  176.0030  144.3070 C   0  0  1  0  0  0  0  0  0  0  0  0
  190.7780  175.8890  145.7470 C   0  0  1  0  0  3  0  0  0  0  0  0
  189.7790  177.4040  144.0230 C   0  0  1  0  0  3  0  0  0  0  0  0
  186.0640  178.0930  141.9400 C   0  0  0  0  0  2  0  0  0  0  0  0
  186.3740  178.9440  143.1710 C   0  0  2  0  0  3  0  0  0  0  0  0
  187.4220  178.2650  144.0690 C   0  0  0  0  0  2  0  0  0  0  0  0
  188.4450  177.4300  143.2860 C   0  0  1  0  0  3  0  0  0  0  0  0
  188.6250  177.9700  141.8690 C   0  0  0  0  0  2  0  0  0  0  0  0
  187.2360  176.5770  140.5330 F   0  0  0  0  0  0  0  0  0  0  0  0
  187.3150  177.8420  141.0840 C   0  0  1  0  0  3  0  0  0  0  0  0
  185.0980  179.2020  143.9500 C   0  0  0  0  0  2  0  0  0  0  0  0
  184.4330  176.7910  146.6230 O   0  0  0  0  0  0  0  0  0  0  0  0
  184.8200  177.8540  146.0720 C   0  0  0  0  0  0  0  0  0  0  0  0
  184.6940  177.9960  144.6560 N   0  0  0  0  0  2  0  0  0  0  0  0
  185.4220  178.9370  146.9090 C   0  0  0  0  0  2  0  0  0  0  0  0
  187.0460  179.4150  148.6620 N   0  0  0  0  0  1  0  0  0  0  0  0
  186.5830  178.4020  147.7310 C   0  0  0  0  0  2  0  0  0  0  0  0
  191.9440  176.6770  145.9450 O   0  0  0  0  0  0  0  0  0  0  0  0
  193.1400  176.1230  146.4020 C   0  0  0  0  0  0  0  0  0  0  0  0
  193.2780  174.8740  146.4980 O   0  0  0  0  0  0  0  0  0  0  0  0
  194.2190  176.9770  146.7550 N   0  0  0  0  0  1  0  0  0  0  0  0
  1  4  2  0  0  0  0
  1 11  1  0  0  0  0
  4  5  2  0  0  0  0
  5 31  1  0  0  0  0
  6 11  1  0  0  0  0
  7  2  1  0  0  0  0
  7  9  1  0  0  0  0
  8  2  1  1  0  0  0
  8 10  1  0  0  0  0
  8  1  1  0  0  0  0
  9  5  1  0  0  0  0
 10  6  2  0  0  0  0
 11  3  1  1  0  0  0
 13 12  1  0  0  0  0
 13 10  1  0  0  0  0
 14 13  2  0  0  0  0
 15 11  1  0  0  0  0
 16 19  1  0  0  0  0
 17 15  1  1  0  0  0
 17 20  1  0  0  0  0
 19 18  1  6  0  0  0
 20 19  1  0  0  0  0
 21 16  1  0  0  0  0
 22 23  1  6  0  0  0
 22 21  1  0  0  0  0
 22 17  1  0  0  0  0
 24 23  1  0  0  0  0
 25 27  2  0  0  0  0
 26 25  1  0  0  0  0
 27 24  1  0  0  0  0
 28 27  1  0  0  0  0
 29 28  2  0  0  0  0
 30 28  1  0  0  0  0
 31 33  1  0  0  0  0
 32 34  1  0  0  0  0
 33 32  1  0  0  0  0
 33 34  1  0  0  0  0
 34 50  1  0  0  0  0
 35 33  1  0  0  0  0
 35 32  1  0  0  0  0
 36 37  1  0  0  0  0
 37 43  1  0  0  0  0
 37 38  1  0  0  0  0
 39 35  1  0  0  0  0
 39 38  1  0  0  0  0
 40 39  1  0  0  0  0
 41 42  1  0  0  0  0
 42 40  1  0  0  0  0
 42 36  1  0  0  0  0
 43 46  1  0  0  0  0
 45 44  2  0  0  0  0
 45 47  1  0  0  0  0
 46 45  1  0  0  0  0
 47 49  1  0  0  0  0
 49 48  1  0  0  0  0
 50 51  1  0  0  0  0
 51 52  2  0  0  0  0
 51 53  1  0  0  0  0
M  END
>  <MODEL>
6

>  <REMARK>
 VINA RESULT:      -7.0      2.334      3.649
  Name = 
  16 active torsions:
  status: ('A' for Active; 'I' for Inactive)
    1  A    between atoms: C_6  and  N_15
    2  A    between atoms: O_10  and  C_16
    3  A    between atoms: O_10  and  C_44
    4  A    between atoms: C_11  and  C_43
    5  A    between atoms: C_14  and  C_20
    6  A    between atoms: N_15  and  C_52
    7  A    between atoms: C_20  and  C_28
    8  A    between atoms: C_21  and  C_47
    9  A    between atoms: C_22  and  C_38
   10  A    between atoms: C_26  and  C_42
   11  A    between atoms: C_29  and  C_51
   12  A    between atoms: C_34  and  C_38
   13  A    between atoms: N_35  and  C_43
   14  A    between atoms: C_41  and  C_45
   15  A    between atoms: C_41  and  C_53
   16  A    between atoms: C_42  and  C_53
                            x       y       z     vdW  Elec       q    Type
                         _______ _______ _______ _____ _____    ______ ____

>  <TORSDO>
F 16

$$$$
=
 OpenBabel11062420213D

 53 58  0  0  1  0  0  0  0  0999 V2000
  192.2250  172.4840  141.9830 C   0  0  0  0  0  0  0  0  0  0  0  0
  190.6370  171.9850  140.0390 C   0  0  0  0  0  2  0  0  0  0  0  0
  191.6760  171.2270  144.0970 C   0  0  0  0  0  1  0  0  0  0  0  0
  191.3960  173.4410  142.2720 C   0  0  0  0  0  0  0  0  0  0  0  0
  190.3760  174.2290  142.1620 C   0  0  0  0  0  0  0  0  0  0  0  0
  192.7840  170.2320  142.1100 C   0  0  0  0  0  3  0  0  0  0  0  0
  190.1810  173.4330  139.7430 C   0  0  0  0  0  2  0  0  0  0  0  0
  192.0860  171.8970  140.6040 C   0  0  2  0  0  3  0  0  0  0  0  0
  189.6420  174.1140  140.9340 N   0  0  0  0  0  2  0  0  0  0  0  0
  192.4680  170.4760  140.8450 C   0  0  0  0  0  0  0  0  0  0  0  0
  192.6930  171.4520  142.9700 C   0  0  1  0  0  0  0  0  0  0  0  0
  193.4340  169.6000  138.7350 O   0  0  0  0  0  0  0  0  0  0  0  0
  192.5390  169.4530  139.7890 C   0  0  0  0  0  0  0  0  0  0  0  0
  191.7950  168.4390  139.8310 O   0  0  0  0  0  1  0  0  0  0  0  0
  194.0270  171.8340  143.4650 N   0  0  0  0  0  2  0  0  0  0  0  0
  197.0430  171.2760  145.5630 O   0  0  0  0  0  0  0  0  0  0  0  0
  194.2150  171.5830  144.9010 C   0  0  1  0  0  3  0  0  0  0  0  0
  196.6290  170.3420  143.4720 O   0  0  0  0  0  1  0  0  0  0  0  0
  196.3820  170.2510  144.8460 C   0  0  2  0  0  3  0  0  0  0  0  0
  194.8760  170.2200  145.1470 C   0  0  0  0  0  2  0  0  0  0  0  0
  196.5420  172.5290  145.1510 C   0  0  0  0  0  2  0  0  0  0  0  0
  195.0730  172.6760  145.5530 C   0  0  1  0  0  3  0  0  0  0  0  0
  194.5450  174.1020  145.3800 C   0  0  0  0  0  2  0  0  0  0  0  0
  195.6400  175.1120  145.0510 C   0  0  0  0  0  2  0  0  0  0  0  0
  194.1730  175.7030  143.2120 C   0  0  0  0  0  3  0  0  0  0  0  0
  193.8500  176.2190  141.9630 O   0  0  0  0  0  1  0  0  0  0  0  0
  195.4200  175.6870  143.6890 C   0  0  0  0  0  0  0  0  0  0  0  0
  196.5760  176.2270  142.9380 C   0  0  0  0  0  0  0  0  0  0  0  0
  197.0070  175.6360  141.7560 O   0  0  0  0  0  0  0  0  0  0  0  0
  197.1880  177.2400  143.3690 O   0  0  0  0  0  1  0  0  0  0  0  0
  189.6970  174.7530  143.3830 C   0  0  0  0  0  2  0  0  0  0  0  0
  189.6540  176.5390  145.0820 C   0  0  1  0  0  3  0  0  0  0  0  0
  190.4560  175.9630  143.9260 C   0  0  1  0  0  0  0  0  0  0  0  0
  190.9150  175.7370  145.3500 C   0  0  1  0  0  3  0  0  0  0  0  0
  189.7700  177.3250  143.7890 C   0  0  1  0  0  3  0  0  0  0  0  0
  186.0200  177.8610  141.7260 C   0  0  0  0  0  2  0  0  0  0  0  0
  186.2500  178.6330  143.0240 C   0  0  2  0  0  3  0  0  0  0  0  0
  187.3480  177.9760  143.8770 C   0  0  0  0  0  2  0  0  0  0  0  0
  188.4430  177.2970  143.0410 C   0  0  1  0  0  3  0  0  0  0  0  0
  188.5820  177.9630  141.6750 C   0  0  0  0  0  2  0  0  0  0  0  0
  187.3250  176.5700  140.2150 F   0  0  0  0  0  0  0  0  0  0  0  0
  187.2920  177.7880  140.8670 C   0  0  1  0  0  3  0  0  0  0  0  0
  184.9530  178.7180  143.8070 C   0  0  0  0  0  2  0  0  0  0  0  0
  184.5890  176.6020  146.7720 O   0  0  0  0  0  0  0  0  0  0  0  0
  184.7280  177.6490  146.0880 C   0  0  0  0  0  0  0  0  0  0  0  0
  184.8130  177.5510  144.6650 N   0  0  0  0  0  2  0  0  0  0  0  0
  184.8230  178.9700  146.7820 C   0  0  0  0  0  2  0  0  0  0  0  0
  186.5780  178.4350  148.3850 N   0  0  0  0  0  1  0  0  0  0  0  0
  186.2490  179.2460  147.2270 C   0  0  0  0  0  2  0  0  0  0  0  0
  191.9930  176.6130  145.6500 O   0  0  0  0  0  0  0  0  0  0  0  0
  192.4700  176.7760  146.9510 C   0  0  0  0  0  0  0  0  0  0  0  0
  193.6800  177.0560  147.1650 O   0  0  0  0  0  0  0  0  0  0  0  0
  191.5780  176.6350  148.0480 N   0  0  0  0  0  1  0  0  0  0  0  0
  1  4  2  0  0  0  0
  1 11  1  0  0  0  0
  5  4  2  0  0  0  0
  5 31  1  0  0  0  0
  6 11  1  0  0  0  0
  7  2  1  0  0  0  0
  7  9  1  0  0  0  0
  8  2  1  1  0  0  0
  8 10  1  0  0  0  0
  8  1  1  0  0  0  0
  9  5  1  0  0  0  0
 10  6  2  0  0  0  0
 11 15  1  0  0  0  0
 11  3  1  1  0  0  0
 12 13  2  0  0  0  0
 13 14  1  0  0  0  0
 13 10  1  0  0  0  0
 17 15  1  6  0  0  0
 17 20  1  0  0  0  0
 17 22  1  0  0  0  0
 19 18  1  6  0  0  0
 19 20  1  0  0  0  0
 19 16  1  0  0  0  0
 21 22  1  0  0  0  0
 21 16  1  0  0  0  0
 22 23  1  6  0  0  0
 24 23  1  0  0  0  0
 25 27  2  0  0  0  0
 26 25  1  0  0  0  0
 27 24  1  0  0  0  0
 28 30  1  0  0  0  0
 28 27  1  0  0  0  0
 29 28  2  0  0  0  0
 31 33  1  0  0  0  0
 32 34  1  0  0  0  0
 33 32  1  0  0  0  0
 33 34  1  0  0  0  0
 34 50  1  0  0  0  0
 35 33  1  0  0  0  0
 35 32  1  0  0  0  0
 36 37  1  0  0  0  0
 37 43  1  0  0  0  0
 37 38  1  0  0  0  0
 39 35  1  0  0  0  0
 39 38  1  0  0  0  0
 40 39  1  0  0  0  0
 41 42  1  0  0  0  0
 42 40  1  0  0  0  0
 42 36  1  0  0  0  0
 43 46  1  0  0  0  0
 45 44  2  0  0  0  0
 45 47  1  0  0  0  0
 46 45  1  0  0  0  0
 47 49  1  0  0  0  0
 49 48  1  0  0  0  0
 50 51  1  0  0  0  0
 51 52  2  0  0  0  0
 51 53  1  0  0  0  0
M  END
>  <MODEL>
7

>  <REMARK>
 VINA RESULT:      -6.9      1.488      2.014
  Name = 
  16 active torsions:
  status: ('A' for Active; 'I' for Inactive)
    1  A    between atoms: C_6  and  N_15
    2  A    between atoms: O_10  and  C_16
    3  A    between atoms: O_10  and  C_44
    4  A    between atoms: C_11  and  C_43
    5  A    between atoms: C_14  and  C_20
    6  A    between atoms: N_15  and  C_52
    7  A    between atoms: C_20  and  C_28
    8  A    between atoms: C_21  and  C_47
    9  A    between atoms: C_22  and  C_38
   10  A    between atoms: C_26  and  C_42
   11  A    between atoms: C_29  and  C_51
   12  A    between atoms: C_34  and  C_38
   13  A    between atoms: N_35  and  C_43
   14  A    between atoms: C_41  and  C_45
   15  A    between atoms: C_41  and  C_53
   16  A    between atoms: C_42  and  C_53
                            x       y       z     vdW  Elec       q    Type
                         _______ _______ _______ _____ _____    ______ ____

>  <TORSDO>
F 16

$$$$
=
 OpenBabel11062420213D

 53 58  0  0  1  0  0  0  0  0999 V2000
  192.2150  172.7160  141.7060 C   0  0  0  0  0  0  0  0  0  0  0  0
  190.5740  171.7520  139.9950 C   0  0  0  0  0  2  0  0  0  0  0  0
  192.0070  171.7030  144.0030 C   0  0  0  0  0  1  0  0  0  0  0  0
  191.2850  173.5890  141.9450 C   0  0  0  0  0  0  0  0  0  0  0  0
  190.1580  174.2150  141.8300 C   0  0  0  0  0  0  0  0  0  0  0  0
  193.0940  170.5950  142.0660 C   0  0  0  0  0  3  0  0  0  0  0  0
  189.8990  173.0740  139.5600 C   0  0  0  0  0  2  0  0  0  0  0  0
  192.0590  171.9300  140.4300 C   0  0  2  0  0  3  0  0  0  0  0  0
  189.3590  173.8370  140.6990 N   0  0  0  0  0  2  0  0  0  0  0  0
  192.6530  170.6180  140.8140 C   0  0  0  0  0  0  0  0  0  0  0  0
  192.8950  171.8990  142.7680 C   0  0  1  0  0  0  0  0  0  0  0  0
  191.6930  168.6680  139.6200 O   0  0  0  0  0  1  0  0  0  0  0  0
  192.7890  169.4770  139.8950 C   0  0  0  0  0  0  0  0  0  0  0  0
  193.8960  169.2240  139.3500 O   0  0  0  0  0  0  0  0  0  0  0  0
  194.1950  172.5160  143.0860 N   0  0  0  0  0  2  0  0  0  0  0  0
  196.7270  174.5330  144.9110 O   0  0  0  0  0  0  0  0  0  0  0  0
  194.0930  173.6710  143.9890 C   0  0  1  0  0  3  0  0  0  0  0  0
  196.6920  172.2140  144.7220 O   0  0  0  0  0  1  0  0  0  0  0  0
  196.1800  173.3240  145.4020 C   0  0  2  0  0  3  0  0  0  0  0  0
  194.6440  173.3400  145.3830 C   0  0  0  0  0  2  0  0  0  0  0  0
  196.3610  174.6930  143.5580 C   0  0  0  0  0  2  0  0  0  0  0  0
  194.8480  174.8860  143.4320 C   0  0  1  0  0  3  0  0  0  0  0  0
  194.4150  175.3300  142.0330 C   0  0  0  0  0  2  0  0  0  0  0  0
  195.5580  175.3290  141.0230 C   0  0  0  0  0  2  0  0  0  0  0  0
  195.7590  173.0810  140.1340 C   0  0  0  0  0  3  0  0  0  0  0  0
  195.5710  172.0610  139.2090 O   0  0  0  0  0  1  0  0  0  0  0  0
  195.2990  174.3200  139.9510 C   0  0  0  0  0  0  0  0  0  0  0  0
  194.5330  174.7240  138.7500 C   0  0  0  0  0  0  0  0  0  0  0  0
  193.1550  174.5560  138.6840 O   0  0  0  0  0  1  0  0  0  0  0  0
  195.1300  175.2320  137.7640 O   0  0  0  0  0  0  0  0  0  0  0  0
  189.5040  174.8110  143.0310 C   0  0  0  0  0  2  0  0  0  0  0  0
  189.7240  176.4280  144.8790 C   0  0  1  0  0  3  0  0  0  0  0  0
  190.3650  175.9440  143.5890 C   0  0  1  0  0  0  0  0  0  0  0  0
  190.9760  175.5720  144.9220 C   0  0  1  0  0  3  0  0  0  0  0  0
  189.7180  177.3300  143.6590 C   0  0  1  0  0  3  0  0  0  0  0  0
  185.8280  178.1600  141.9890 C   0  0  0  0  0  2  0  0  0  0  0  0
  186.3110  179.0130  143.1620 C   0  0  2  0  0  3  0  0  0  0  0  0
  187.4220  178.2990  143.9510 C   0  0  0  0  0  2  0  0  0  0  0  0
  188.3130  177.4070  143.0740 C   0  0  1  0  0  3  0  0  0  0  0  0
  188.3580  177.9190  141.6370 C   0  0  0  0  0  2  0  0  0  0  0  0
  186.7690  176.5730  140.4890 F   0  0  0  0  0  0  0  0  0  0  0  0
  186.9640  177.8400  141.0040 C   0  0  1  0  0  3  0  0  0  0  0  0
  185.1430  179.3400  144.0720 C   0  0  0  0  0  2  0  0  0  0  0  0
  184.3780  176.9230  146.7130 O   0  0  0  0  0  0  0  0  0  0  0  0
  184.7990  177.9810  146.1780 C   0  0  0  0  0  0  0  0  0  0  0  0
  184.6980  178.1380  144.7610 N   0  0  0  0  0  2  0  0  0  0  0  0
  185.4170  179.0410  147.0330 C   0  0  0  0  0  2  0  0  0  0  0  0
  187.3910  177.6360  147.2890 N   0  0  0  0  0  1  0  0  0  0  0  0
  186.4150  178.4360  148.0060 C   0  0  0  0  0  2  0  0  0  0  0  0
  192.1140  176.3880  145.1710 O   0  0  0  0  0  0  0  0  0  0  0  0
  192.6920  176.4800  146.4370 C   0  0  0  0  0  0  0  0  0  0  0  0
  191.9820  176.4240  147.4770 O   0  0  0  0  0  0  0  0  0  0  0  0
  194.1010  176.6280  146.5560 N   0  0  0  0  0  1  0  0  0  0  0  0
  1  4  2  0  0  0  0
  1 11  1  0  0  0  0
  5  4  2  0  0  0  0
  5 31  1  0  0  0  0
  6 11  1  0  0  0  0
  7  2  1  0  0  0  0
  7  9  1  0  0  0  0
  8  2  1  1  0  0  0
  8 10  1  0  0  0  0
  8  1  1  0  0  0  0
  9  5  1  0  0  0  0
 10  6  2  0  0  0  0
 11 15  1  0  0  0  0
 11  3  1  1  0  0  0
 12 13  1  0  0  0  0
 13 10  1  0  0  0  0
 14 13  2  0  0  0  0
 16 19  1  0  0  0  0
 17 15  1  6  0  0  0
 17 20  1  0  0  0  0
 19 18  1  6  0  0  0
 20 19  1  0  0  0  0
 21 16  1  0  0  0  0
 22 23  1  6  0  0  0
 22 21  1  0  0  0  0
 22 17  1  0  0  0  0
 24 23  1  0  0  0  0
 26 25  1  0  0  0  0
 27 25  2  0  0  0  0
 27 24  1  0  0  0  0
 28 27  1  0  0  0  0
 29 28  1  0  0  0  0
 30 28  2  0  0  0  0
 31 33  1  0  0  0  0
 32 34  1  0  0  0  0
 33 35  1  0  0  0  0
 33 32  1  0  0  0  0
 33 34  1  0  0  0  0
 34 50  1  0  0  0  0
 35 32  1  0  0  0  0
 36 37  1  0  0  0  0
 37 38  1  0  0  0  0
 37 43  1  0  0  0  0
 39 35  1  0  0  0  0
 39 38  1  0  0  0  0
 40 39  1  0  0  0  0
 41 42  1  0  0  0  0
 42 40  1  0  0  0  0
 42 36  1  0  0  0  0
 43 46  1  0  0  0  0
 45 44  2  0  0  0  0
 45 47  1  0  0  0  0
 46 45  1  0  0  0  0
 47 49  1  0  0  0  0
 48 49  1  0  0  0  0
 50 51  1  0  0  0  0
 51 53  1  0  0  0  0
 51 52  2  0  0  0  0
M  END
>  <MODEL>
8

>  <REMARK>
 VINA RESULT:      -6.9      1.937      2.675
  Name = 
  16 active torsions:
  status: ('A' for Active; 'I' for Inactive)
    1  A    between atoms: C_6  and  N_15
    2  A    between atoms: O_10  and  C_16
    3  A    between atoms: O_10  and  C_44
    4  A    between atoms: C_11  and  C_43
    5  A    between atoms: C_14  and  C_20
    6  A    between atoms: N_15  and  C_52
    7  A    between atoms: C_20  and  C_28
    8  A    between atoms: C_21  and  C_47
    9  A    between atoms: C_22  and  C_38
   10  A    between atoms: C_26  and  C_42
   11  A    between atoms: C_29  and  C_51
   12  A    between atoms: C_34  and  C_38
   13  A    between atoms: N_35  and  C_43
   14  A    between atoms: C_41  and  C_45
   15  A    between atoms: C_41  and  C_53
   16  A    between atoms: C_42  and  C_53
                            x       y       z     vdW  Elec       q    Type
                         _______ _______ _______ _____ _____    ______ ____

>  <TORSDO>
F 16

$$$$
=
 OpenBabel11062420213D

 53 58  0  0  1  0  0  0  0  0999 V2000
  190.3010  174.8790  143.1080 C   0  0  0  0  0  0  0  0  0  0  0  0
  188.7440  174.2000  141.1940 C   0  0  0  0  0  2  0  0  0  0  0  0
  192.2090  176.3610  142.3950 C   0  0  0  0  0  1  0  0  0  0  0  0
  190.9570  173.7980  142.8130 C   0  0  0  0  0  0  0  0  0  0  0  0
  191.2490  172.6880  142.2160 C   0  0  0  0  0  0  0  0  0  0  0  0
  189.8620  177.1200  142.6780 C   0  0  0  0  0  3  0  0  0  0  0  0
  188.8450  172.6650  141.3540 C   0  0  0  0  0  2  0  0  0  0  0  0
  188.9110  174.9740  142.5350 C   0  0  2  0  0  3  0  0  0  0  0  0
  190.2380  172.1830  141.3320 N   0  0  0  0  0  2  0  0  0  0  0  0
  188.7810  176.4420  142.3130 C   0  0  0  0  0  0  0  0  0  0  0  0
  190.9320  176.2370  143.2350 C   0  0  1  0  0  0  0  0  0  0  0  0
  186.3140  176.5660  142.0890 O   0  0  0  0  0  1  0  0  0  0  0  0
  187.5670  177.0900  141.7920 C   0  0  0  0  0  0  0  0  0  0  0  0
  187.6500  178.1230  141.0760 O   0  0  0  0  0  0  0  0  0  0  0  0
  191.1500  176.5310  144.6630 N   0  0  0  0  0  2  0  0  0  0  0  0
  191.0650  176.1450  148.3570 O   0  0  0  0  0  0  0  0  0  0  0  0
  190.3350  175.7040  145.5640 C   0  0  1  0  0  3  0  0  0  0  0  0
  192.9720  176.2590  147.0300 O   0  0  0  0  0  1  0  0  0  0  0  0
  191.9490  175.4350  147.5120 C   0  0  2  0  0  3  0  0  0  0  0  0
  191.2060  174.7290  146.3670 C   0  0  0  0  0  2  0  0  0  0  0  0
  190.4350  177.1690  147.6180 C   0  0  0  0  0  2  0  0  0  0  0  0
  189.5270  176.5700  146.5410 C   0  0  1  0  0  3  0  0  0  0  0  0
  188.6140  177.6060  145.8840 C   0  0  0  0  0  2  0  0  0  0  0  0
  187.1780  177.1200  145.7160 C   0  0  0  0  0  2  0  0  0  0  0  0
  186.2480  178.9870  144.4780 C   0  0  0  0  0  3  0  0  0  0  0  0
  185.4200  180.0830  144.2690 O   0  0  0  0  0  1  0  0  0  0  0  0
  186.2460  178.2840  145.6130 C   0  0  0  0  0  0  0  0  0  0  0  0
  185.3550  178.5970  146.7520 C   0  0  0  0  0  0  0  0  0  0  0  0
  185.7770  179.4120  147.7960 O   0  0  0  0  0  1  0  0  0  0  0  0
  184.1880  178.1220  146.7880 O   0  0  0  0  0  0  0  0  0  0  0  0
  192.6740  172.3000  142.0070 C   0  0  0  0  0  2  0  0  0  0  0  0
  194.2450  171.2990  140.3920 C   0  0  1  0  0  3  0  0  0  0  0  0
  192.9430  172.0720  140.5200 C   0  0  1  0  0  0  0  0  0  0  0  0
  192.9160  170.6010  140.1690 C   0  0  1  0  0  3  0  0  0  0  0  0
  194.1890  172.7440  139.9350 C   0  0  1  0  0  3  0  0  0  0  0  0
  196.8570  175.0820  142.3890 C   0  0  0  0  0  2  0  0  0  0  0  0
  197.2510  173.6430  142.0570 C   0  0  2  0  0  3  0  0  0  0  0  0
  196.0260  172.8110  141.6440 C   0  0  0  0  0  2  0  0  0  0  0  0
  194.9530  173.6300  140.9120 C   0  0  1  0  0  3  0  0  0  0  0  0
  195.5720  174.8210  140.1850 C   0  0  0  0  0  2  0  0  0  0  0  0
  195.2260  176.6510  141.6630 F   0  0  0  0  0  0  0  0  0  0  0  0
  196.1980  175.7890  141.1940 C   0  0  1  0  0  3  0  0  0  0  0  0
  197.9410  173.0120  143.2510 C   0  0  0  0  0  2  0  0  0  0  0  0
  196.8340  173.7940  146.6530 O   0  0  0  0  0  0  0  0  0  0  0  0
  197.0860  173.1040  145.6310 C   0  0  0  0  0  0  0  0  0  0  0  0
  197.6050  173.7450  144.4630 N   0  0  0  0  0  2  0  0  0  0  0  0
  196.8160  171.6340  145.6530 C   0  0  0  0  0  2  0  0  0  0  0  0
  195.2020  170.4770  144.2410 N   0  0  0  0  0  1  0  0  0  0  0  0
  195.3460  171.3500  145.3920 C   0  0  0  0  0  2  0  0  0  0  0  0
  192.6760  170.4460  138.7760 O   0  0  0  0  0  0  0  0  0  0  0  0
  191.3970  170.2120  138.2710 C   0  0  0  0  0  0  0  0  0  0  0  0
  191.0660  170.6310  137.1290 O   0  0  0  0  0  0  0  0  0  0  0  0
  190.4580  169.4820  139.0490 N   0  0  0  0  0  1  0  0  0  0  0  0
  1 11  1  0  0  0  0
  2  7  1  0  0  0  0
  4  1  2  0  0  0  0
  5  4  2  0  0  0  0
  6 11  1  0  0  0  0
  8  2  1  6  0  0  0
  8  1  1  0  0  0  0
  9  7  1  0  0  0  0
  9  5  1  0  0  0  0
 10  8  1  0  0  0  0
 10  6  2  0  0  0  0
 11  3  1  6  0  0  0
 11 15  1  0  0  0  0
 13 12  1  0  0  0  0
 13 10  1  0  0  0  0
 14 13  2  0  0  0  0
 17 15  1  1  0  0  0
 17 20  1  0  0  0  0
 17 22  1  0  0  0  0
 19 18  1  6  0  0  0
 19 16  1  0  0  0  0
 20 19  1  0  0  0  0
 21 16  1  0  0  0  0
 22 23  1  6  0  0  0
 22 21  1  0  0  0  0
 24 23  1  0  0  0  0
 25 27  2  0  0  0  0
 26 25  1  0  0  0  0
 27 24  1  0  0  0  0
 27 28  1  0  0  0  0
 28 30  2  0  0  0  0
 28 29  1  0  0  0  0
 31  5  1  0  0  0  0
 32 33  1  0  0  0  0
 33 31  1  0  0  0  0
 34 32  1  0  0  0  0
 34 33  1  0  0  0  0
 35 32  1  0  0  0  0
 35 33  1  0  0  0  0
 35 39  1  0  0  0  0
 37 36  1  0  0  0  0
 37 43  1  0  0  0  0
 38 37  1  0  0  0  0
 39 38  1  0  0  0  0
 40 39  1  0  0  0  0
 40 42  1  0  0  0  0
 42 41  1  0  0  0  0
 42 36  1  0  0  0  0
 43 46  1  0  0  0  0
 45 47  1  0  0  0  0
 45 44  2  0  0  0  0
 46 45  1  0  0  0  0
 48 49  1  0  0  0  0
 49 47  1  0  0  0  0
 50 34  1  0  0  0  0
 51 50  1  0  0  0  0
 51 53  1  0  0  0  0
 52 51  2  0  0  0  0
M  END
>  <MODEL>
9

>  <REMARK>
 VINA RESULT:      -6.8      2.748      8.889
  Name = 
  16 active torsions:
  status: ('A' for Active; 'I' for Inactive)
    1  A    between atoms: C_6  and  N_15
    2  A    between atoms: O_10  and  C_16
    3  A    between atoms: O_10  and  C_44
    4  A    between atoms: C_11  and  C_43
    5  A    between atoms: C_14  and  C_20
    6  A    between atoms: N_15  and  C_52
    7  A    between atoms: C_20  and  C_28
    8  A    between atoms: C_21  and  C_47
    9  A    between atoms: C_22  and  C_38
   10  A    between atoms: C_26  and  C_42
   11  A    between atoms: C_29  and  C_51
   12  A    between atoms: C_34  and  C_38
   13  A    between atoms: N_35  and  C_43
   14  A    between atoms: C_41  and  C_45
   15  A    between atoms: C_41  and  C_53
   16  A    between atoms: C_42  and  C_53
                            x       y       z     vdW  Elec       q    Type
                         _______ _______ _______ _____ _____    ______ ____

>  <TORSDO>
F 16

$$$$
