=
 OpenBabel11062418203D

 49 52  0  0  1  0  0  0  0  0999 V2000
  188.5720  177.0160  147.5160 C   0  0  2  0  0  3  0  0  0  0  0  0
  189.9550  174.3240  146.0710 C   0  0  0  0  0  2  0  0  0  0  0  0
  191.1090  175.3340  146.1160 C   0  0  2  0  0  3  0  0  0  0  0  0
  188.9500  174.5170  147.2020 C   0  0  0  0  0  2  0  0  0  0  0  0
  190.0840  177.2370  147.3530 C   0  0  0  0  0  2  0  0  0  0  0  0
  190.6270  176.7810  146.0060 C   0  0  0  0  0  2  0  0  0  0  0  0
  188.0570  175.7100  146.8870 C   0  0  0  0  0  2  0  0  0  0  0  0
  187.7930  178.2360  147.0100 C   0  0  2  0  0  3  0  0  0  0  0  0
  186.7930  178.6810  148.0590 C   0  0  2  0  0  3  0  0  0  0  0  0
  185.4990  178.0780  147.7550 N   0  0  0  0  0  2  0  0  0  0  0  0
  186.9300  177.8910  145.8210 C   0  0  0  0  0  2  0  0  0  0  0  0
  185.5570  177.5890  146.3830 C   0  0  2  0  0  3  0  0  0  0  0  0
  186.6710  180.1280  148.0390 N   0  0  0  0  0  1  0  0  0  0  0  0
  184.4760  178.2760  145.5610 C   0  0  0  0  0  2  0  0  0  0  0  0
  185.0010  178.7330  144.2080 C   0  0  0  0  0  2  0  0  0  0  0  0
  184.4840  177.8400  143.0890 C   0  0  0  0  0  2  0  0  0  0  0  0
  185.2710  177.9980  141.7820 C   0  0  1  0  0  3  0  0  0  0  0  0
  187.7200  177.5500  141.1150 C   0  0  0  0  0  2  0  0  0  0  0  0
  188.9570  176.4310  142.9980 N   0  0  0  0  0  0  0  0  0  0  0  0
  188.6900  177.7010  142.2920 C   0  0  0  0  0  2  0  0  0  0  0  0
  187.9050  175.4180  142.8310 C   0  0  0  0  0  2  0  0  0  0  0  0
  186.5170  176.0500  142.7990 C   0  0  0  0  0  2  0  0  0  0  0  0
  186.3780  176.9540  141.5680 C   0  0  0  0  0  3  0  0  0  0  0  0
  189.8730  174.7020  141.6470 N   0  0  0  0  0  1  0  0  0  0  0  0
  190.1810  175.8800  142.4410 C   0  0  0  0  0  2  0  0  0  0  0  0
  184.4080  178.1750  140.6150 N   0  0  0  0  0  0  0  0  0  0  0  0
  183.3200  178.7840  140.7000 O   0  0  0  0  0  0  0  0  0  0  0  0
  184.7500  177.5720  139.4280 O   0  0  0  0  0  0  0  0  0  0  0  0
  192.1360  174.9890  145.0310 C   0  0  2  0  0  3  0  0  0  0  0  0
  193.0490  173.8720  145.4530 C   0  0  0  0  0  3  0  0  0  0  0  0
  193.0610  172.6600  144.8840 C   0  0  0  0  0  0  0  0  0  0  0  0
  191.9860  172.2340  143.5100 S   0  0  0  0  0  1  0  0  0  0  0  0
  195.2100  172.2540  145.7900 O   0  0  0  0  0  1  0  0  0  0  0  0
  194.0330  171.6360  145.3690 C   0  0  0  0  0  2  0  0  0  0  0  0
  192.9170  176.1670  144.6630 N   0  0  0  0  0  2  0  0  0  0  0  0
  194.6210  177.3930  145.8740 C   0  0  0  0  0  2  0  0  0  0  0  0
  195.3210  176.2030  144.2280 C   0  0  2  0  0  3  0  0  0  0  0  0
  195.6830  177.5590  144.8040 C   0  0  0  0  0  2  0  0  0  0  0  0
  194.2330  176.0510  145.2830 C   0  0  2  0  0  3  0  0  0  0  0  0
  196.4700  175.2370  144.4930 C   0  0  0  0  0  2  0  0  0  0  0  0
  196.9230  174.5290  143.2230 C   0  0  0  0  0  2  0  0  0  0  0  0
  197.4940  175.5000  142.1950 C   0  0  0  0  0  2  0  0  0  0  0  0
  197.0880  175.1300  140.8080 C   0  0  0  0  0  0  0  0  0  0  0  0
  195.7330  174.7610  140.5400 N   0  0  0  0  0  2  0  0  0  0  0  0
  197.9410  175.1470  139.8840 O   0  0  0  0  0  0  0  0  0  0  0  0
  193.6840  174.0410  139.0210 O   0  0  0  0  0  0  0  0  0  0  0  0
  195.1730  174.2660  138.9790 S   0  0  0  0  0  0  0  0  0  0  0  0
  195.9980  172.7610  138.5330 C   0  0  0  0  0  1  0  0  0  0  0  0
  195.5010  175.3170  137.9550 O   0  0  0  0  0  0  0  0  0  0  0  0
  1  7  1  6  0  0  0
  2  3  1  0  0  0  0
  2  4  1  0  0  0  0
  3 29  1  6  0  0  0
  5  1  1  0  0  0  0
  6  3  1  0  0  0  0
  6  5  1  0  0  0  0
  7  4  1  0  0  0  0
  8 11  1  6  0  0  0
  8  1  1  0  0  0  0
  8  9  1  0  0  0  0
  9 13  1  6  0  0  0
 10  9  1  0  0  0  0
 11 12  1  0  0  0  0
 12 14  1  6  0  0  0
 12 10  1  0  0  0  0
 15 14  1  0  0  0  0
 16 15  1  0  0  0  0
 17 16  1  1  0  0  0
 18 23  1  0  0  0  0
 18 20  1  0  0  0  0
 20 19  1  0  0  0  0
 21 19  1  0  0  0  0
 22 21  1  0  0  0  0
 23 17  1  0  0  0  0
 23 22  1  0  0  0  0
 24 25  1  0  0  0  0
 25 19  1  0  0  0  0
 26 27  2  0  0  0  0
 26 17  1  0  0  0  0
 28 26  2  0  0  0  0
 29 30  1  1  0  0  0
 31 34  1  0  0  0  0
 31 30  2  0  0  0  0
 32 31  1  0  0  0  0
 34 33  1  0  0  0  0
 35 29  1  0  0  0  0
 37 40  1  1  0  0  0
 37 38  1  0  0  0  0
 37 39  1  0  0  0  0
 38 36  1  0  0  0  0
 39 35  1  6  0  0  0
 39 36  1  0  0  0  0
 41 40  1  0  0  0  0
 42 41  1  0  0  0  0
 43 42  1  0  0  0  0
 44 43  1  0  0  0  0
 45 43  2  0  0  0  0
 47 46  2  0  0  0  0
 47 44  1  0  0  0  0
 48 47  1  0  0  0  0
 49 47  2  0  0  0  0
M  END
>  <MODEL>
1

>  <REMARK>
 VINA RESULT:      -6.4      0.000      0.000
  Name = 
  18 active torsions:
  status: ('A' for Active; 'I' for Inactive)
    1  A    between atoms: C_2  and  C_47
    2  A    between atoms: C_3  and  C_13
    3  A    between atoms: C_3  and  C_39
    4  A    between atoms: C_5  and  C_17
    5  A    between atoms: C_5  and  C_26
    6  A    between atoms: N_7  and  C_29
    7  A    between atoms: C_8  and  C_10
    8  A    between atoms: N_9  and  C_11
    9  A    between atoms: N_12  and  S_24
   10  A    between atoms: C_13  and  C_22
   11  A    between atoms: C_15  and  C_34
   12  A    between atoms: C_18  and  C_43
   13  A    between atoms: C_22  and  C_29
   14  A    between atoms: C_23  and  C_34
   15  A    between atoms: C_26  and  C_47
   16  A    between atoms: C_29  and  C_31
   17  A    between atoms: C_34  and  N_45
   18  A    between atoms: C_35  and  N_45
                            x       y       z     vdW  Elec       q    Type
                         _______ _______ _______ _____ _____    ______ ____

>  <TORSDO>
F 18

$$$$
=
 OpenBabel11062418203D

 49 52  0  0  1  0  0  0  0  0999 V2000
  193.2390  176.3880  145.3330 C   0  0  2  0  0  3  0  0  0  0  0  0
  195.3640  173.8030  145.5520 C   0  0  0  0  0  2  0  0  0  0  0  0
  194.3230  173.3210  144.5330 C   0  0  2  0  0  3  0  0  0  0  0  0
  195.5400  175.3180  145.5540 C   0  0  0  0  0  2  0  0  0  0  0  0
  192.8810  175.3350  144.2730 C   0  0  0  0  0  2  0  0  0  0  0  0
  192.9340  173.9040  144.7910 C   0  0  0  0  0  2  0  0  0  0  0  0
  194.3690  175.9610  146.2860 C   0  0  0  0  0  2  0  0  0  0  0  0
  191.9860  176.8280  146.1000 C   0  0  2  0  0  3  0  0  0  0  0  0
  192.0330  176.2910  147.5170 C   0  0  2  0  0  3  0  0  0  0  0  0
  191.2840  175.0380  147.5660 N   0  0  0  0  0  2  0  0  0  0  0  0
  190.7360  176.2050  145.5260 C   0  0  0  0  0  2  0  0  0  0  0  0
  190.4760  174.9650  146.3550 C   0  0  2  0  0  3  0  0  0  0  0  0
  191.4330  177.2510  148.4260 N   0  0  0  0  0  1  0  0  0  0  0  0
  189.0060  174.8730  146.7390 C   0  0  0  0  0  2  0  0  0  0  0  0
  188.4380  176.2300  147.1260 C   0  0  0  0  0  2  0  0  0  0  0  0
  187.1110  176.4880  146.4260 C   0  0  0  0  0  2  0  0  0  0  0  0
  186.8350  177.9790  146.1920 C   0  0  1  0  0  3  0  0  0  0  0  0
  187.2940  177.3230  143.7420 C   0  0  0  0  0  2  0  0  0  0  0  0
  185.1700  177.3970  142.3960 N   0  0  0  0  0  0  0  0  0  0  0  0
  186.1360  176.5400  143.1130 C   0  0  0  0  0  2  0  0  0  0  0  0
  185.1640  178.7990  142.8410 C   0  0  0  0  0  2  0  0  0  0  0  0
  185.3840  178.9110  144.3450 C   0  0  0  0  0  2  0  0  0  0  0  0
  186.7810  178.3980  144.7140 C   0  0  0  0  0  3  0  0  0  0  0  0
  185.2640  178.6860  140.4000 N   0  0  0  0  0  1  0  0  0  0  0  0
  185.5500  177.3900  140.9930 C   0  0  0  0  0  2  0  0  0  0  0  0
  185.7090  178.4810  146.9790 N   0  0  0  0  0  0  0  0  0  0  0  0
  185.8000  179.5380  147.6380 O   0  0  0  0  0  0  0  0  0  0  0  0
  184.5670  177.7230  147.0770 O   0  0  0  0  0  0  0  0  0  0  0  0
  194.3040  171.7890  144.5030 C   0  0  2  0  0  3  0  0  0  0  0  0
  195.6720  171.2030  144.7170 C   0  0  0  0  0  3  0  0  0  0  0  0
  195.9200  170.1510  145.5080 C   0  0  0  0  0  0  0  0  0  0  0  0
  194.6180  169.2920  146.3980 S   0  0  0  0  0  1  0  0  0  0  0  0
  197.3610  168.5620  146.5090 O   0  0  0  0  0  1  0  0  0  0  0  0
  197.3170  169.6370  145.6230 C   0  0  0  0  0  2  0  0  0  0  0  0
  193.7380  171.3020  143.2480 N   0  0  0  0  0  2  0  0  0  0  0  0
  192.2680  169.3930  142.9820 C   0  0  0  0  0  2  0  0  0  0  0  0
  191.4300  171.2970  142.4440 C   0  0  2  0  0  3  0  0  0  0  0  0
  191.3360  169.8870  141.8910 C   0  0  0  0  0  2  0  0  0  0  0  0
  192.3920  170.8070  143.5190 C   0  0  2  0  0  3  0  0  0  0  0  0
  190.0860  171.6750  143.0540 C   0  0  0  0  0  2  0  0  0  0  0  0
  190.0060  173.1610  143.3800 C   0  0  0  0  0  2  0  0  0  0  0  0
  188.8540  173.8470  142.6550 C   0  0  0  0  0  2  0  0  0  0  0  0
  188.7480  173.3900  141.2380 C   0  0  0  0  0  0  0  0  0  0  0  0
  189.7450  173.7810  140.2910 N   0  0  0  0  0  2  0  0  0  0  0  0
  187.7830  172.6630  140.8890 O   0  0  0  0  0  0  0  0  0  0  0  0
  190.9140  173.8670  137.9140 O   0  0  0  0  0  0  0  0  0  0  0  0
  189.6860  173.3480  138.6160 S   0  0  0  0  0  0  0  0  0  0  0  0
  188.2310  174.0630  137.8970 C   0  0  0  0  0  1  0  0  0  0  0  0
  189.6110  171.8520  138.4710 O   0  0  0  0  0  0  0  0  0  0  0  0
  1  5  1  6  0  0  0
  1  8  1  0  0  0  0
  1  7  1  0  0  0  0
  2  4  1  0  0  0  0
  3 29  1  1  0  0  0
  3  6  1  0  0  0  0
  3  2  1  0  0  0  0
  4  7  1  0  0  0  0
  5  6  1  0  0  0  0
  8 11  1  6  0  0  0
  8  9  1  0  0  0  0
  9 10  1  0  0  0  0
  9 13  1  1  0  0  0
 11 12  1  0  0  0  0
 12 14  1  1  0  0  0
 12 10  1  0  0  0  0
 14 15  1  0  0  0  0
 16 15  1  0  0  0  0
 17 16  1  6  0  0  0
 17 26  1  0  0  0  0
 18 23  1  0  0  0  0
 19 21  1  0  0  0  0
 19 20  1  0  0  0  0
 20 18  1  0  0  0  0
 21 22  1  0  0  0  0
 22 23  1  0  0  0  0
 23 17  1  0  0  0  0
 24 25  1  0  0  0  0
 25 19  1  0  0  0  0
 26 28  2  0  0  0  0
 26 27  2  0  0  0  0
 29 30  1  6  0  0  0
 30 31  2  0  0  0  0
 31 34  1  0  0  0  0
 31 32  1  0  0  0  0
 34 33  1  0  0  0  0
 35 29  1  0  0  0  0
 36 39  1  0  0  0  0
 37 40  1  1  0  0  0
 37 39  1  0  0  0  0
 38 37  1  0  0  0  0
 38 36  1  0  0  0  0
 39 35  1  6  0  0  0
 40 41  1  0  0  0  0
 42 41  1  0  0  0  0
 43 42  1  0  0  0  0
 44 43  1  0  0  0  0
 45 43  2  0  0  0  0
 46 47  2  0  0  0  0
 47 44  1  0  0  0  0
 48 47  1  0  0  0  0
 49 47  2  0  0  0  0
M  END
>  <MODEL>
2

>  <REMARK>
 VINA RESULT:      -6.2      3.059      5.874
  Name = 
  18 active torsions:
  status: ('A' for Active; 'I' for Inactive)
    1  A    between atoms: C_2  and  C_47
    2  A    between atoms: C_3  and  C_13
    3  A    between atoms: C_3  and  C_39
    4  A    between atoms: C_5  and  C_17
    5  A    between atoms: C_5  and  C_26
    6  A    between atoms: N_7  and  C_29
    7  A    between atoms: C_8  and  C_10
    8  A    between atoms: N_9  and  C_11
    9  A    between atoms: N_12  and  S_24
   10  A    between atoms: C_13  and  C_22
   11  A    between atoms: C_15  and  C_34
   12  A    between atoms: C_18  and  C_43
   13  A    between atoms: C_22  and  C_29
   14  A    between atoms: C_23  and  C_34
   15  A    between atoms: C_26  and  C_47
   16  A    between atoms: C_29  and  C_31
   17  A    between atoms: C_34  and  N_45
   18  A    between atoms: C_35  and  N_45
                            x       y       z     vdW  Elec       q    Type
                         _______ _______ _______ _____ _____    ______ ____

>  <TORSDO>
F 18

$$$$
=
 OpenBabel11062418203D

 49 52  0  0  1  0  0  0  0  0999 V2000
  191.0160  174.3600  145.2620 C   0  0  2  0  0  3  0  0  0  0  0  0
  193.0170  172.2010  143.6540 C   0  0  0  0  0  2  0  0  0  0  0  0
  193.9890  173.2720  144.1650 C   0  0  2  0  0  3  0  0  0  0  0  0
  191.7860  172.0410  144.5400 C   0  0  0  0  0  2  0  0  0  0  0  0
  192.4860  174.7440  145.4970 C   0  0  0  0  0  2  0  0  0  0  0  0
  193.3480  174.6580  144.2460 C   0  0  0  0  0  2  0  0  0  0  0  0
  190.8230  173.1930  144.2790 C   0  0  0  0  0  2  0  0  0  0  0  0
  190.1980  175.5900  144.8510 C   0  0  2  0  0  3  0  0  0  0  0  0
  190.8460  176.8470  145.3990 C   0  0  2  0  0  3  0  0  0  0  0  0
  190.2030  177.1890  146.6640 N   0  0  0  0  0  2  0  0  0  0  0  0
  188.8310  175.5880  145.4900 C   0  0  0  0  0  2  0  0  0  0  0  0
  188.9600  176.4310  146.7420 C   0  0  2  0  0  3  0  0  0  0  0  0
  190.6740  177.9390  144.4570 N   0  0  0  0  0  1  0  0  0  0  0  0
  187.7910  177.3970  146.8630 C   0  0  0  0  0  2  0  0  0  0  0  0
  186.5200  176.6910  147.3100 C   0  0  0  0  0  2  0  0  0  0  0  0
  185.4440  176.7680  146.2350 C   0  0  0  0  0  2  0  0  0  0  0  0
  185.8210  177.6990  145.0750 C   0  0  1  0  0  3  0  0  0  0  0  0
  184.7240  177.5770  142.7460 C   0  0  0  0  0  2  0  0  0  0  0  0
  186.4100  178.0800  140.9480 N   0  0  0  0  0  0  0  0  0  0  0  0
  185.2990  178.6060  141.7660 C   0  0  0  0  0  2  0  0  0  0  0  0
  187.1040  176.9300  141.5450 C   0  0  0  0  0  2  0  0  0  0  0  0
  187.2070  177.0610  143.0610 C   0  0  0  0  0  2  0  0  0  0  0  0
  185.8090  177.0340  143.6890 C   0  0  0  0  0  3  0  0  0  0  0  0
  186.7520  176.7100  139.0350 N   0  0  0  0  0  1  0  0  0  0  0  0
  185.8400  177.6360  139.6880 C   0  0  0  0  0  2  0  0  0  0  0  0
  185.1070  178.9740  145.1120 N   0  0  0  0  0  0  0  0  0  0  0  0
  185.6610  180.0370  144.7610 O   0  0  0  0  0  0  0  0  0  0  0  0
  183.8380  179.0190  145.6400 O   0  0  0  0  0  0  0  0  0  0  0  0
  195.2530  173.2760  143.2970 C   0  0  2  0  0  3  0  0  0  0  0  0
  196.1510  172.1100  143.6020 C   0  0  0  0  0  3  0  0  0  0  0  0
  196.9010  172.0130  144.7070 C   0  0  0  0  0  0  0  0  0  0  0  0
  196.8970  173.2750  145.9840 S   0  0  0  0  0  1  0  0  0  0  0  0
  197.1430  169.6940  144.2950 O   0  0  0  0  0  1  0  0  0  0  0  0
  197.7350  170.7920  144.9180 C   0  0  0  0  0  2  0  0  0  0  0  0
  195.9840  174.5300  143.4520 N   0  0  0  0  0  2  0  0  0  0  0  0
  196.6840  176.4350  142.1260 C   0  0  0  0  0  2  0  0  0  0  0  0
  195.3190  175.0810  141.1650 C   0  0  2  0  0  3  0  0  0  0  0  0
  195.5060  176.5870  141.1820 C   0  0  0  0  0  2  0  0  0  0  0  0
  196.4810  174.9310  142.1390 C   0  0  2  0  0  3  0  0  0  0  0  0
  195.6990  174.5560  139.7860 C   0  0  0  0  0  2  0  0  0  0  0  0
  194.5930  173.7050  139.1770 C   0  0  0  0  0  2  0  0  0  0  0  0
  193.3280  174.5120  138.9070 C   0  0  0  0  0  2  0  0  0  0  0  0
  192.1060  173.6590  138.9880 C   0  0  0  0  0  0  0  0  0  0  0  0
  191.9320  172.7730  140.0970 N   0  0  0  0  0  2  0  0  0  0  0  0
  191.2380  173.7250  138.0810 O   0  0  0  0  0  0  0  0  0  0  0  0
  190.3950  170.9230  138.9840 O   0  0  0  0  0  0  0  0  0  0  0  0
  190.5800  171.7060  140.2590 S   0  0  0  0  0  0  0  0  0  0  0  0
  189.1300  172.6730  140.5870 C   0  0  0  0  0  1  0  0  0  0  0  0
  190.8000  170.7620  141.4080 O   0  0  0  0  0  0  0  0  0  0  0  0
  1  7  1  6  0  0  0
  1  5  1  0  0  0  0
  2  3  1  0  0  0  0
  2  4  1  0  0  0  0
  3 29  1  6  0  0  0
  3  6  1  0  0  0  0
  6  5  1  0  0  0  0
  7  4  1  0  0  0  0
  8  1  1  0  0  0  0
  8  9  1  0  0  0  0
  8 11  1  1  0  0  0
  9 13  1  6  0  0  0
  9 10  1  0  0  0  0
 10 12  1  0  0  0  0
 11 12  1  0  0  0  0
 12 14  1  6  0  0  0
 14 15  1  0  0  0  0
 16 15  1  0  0  0  0
 17 26  1  0  0  0  0
 17 16  1  1  0  0  0
 18 23  1  0  0  0  0
 19 21  1  0  0  0  0
 19 20  1  0  0  0  0
 20 18  1  0  0  0  0
 21 22  1  0  0  0  0
 22 23  1  0  0  0  0
 23 17  1  0  0  0  0
 24 25  1  0  0  0  0
 25 19  1  0  0  0  0
 26 28  2  0  0  0  0
 27 26  2  0  0  0  0
 29 35  1  0  0  0  0
 29 30  1  1  0  0  0
 30 31  2  0  0  0  0
 31 34  1  0  0  0  0
 31 32  1  0  0  0  0
 33 34  1  0  0  0  0
 36 39  1  0  0  0  0
 37 40  1  6  0  0  0
 37 38  1  0  0  0  0
 37 39  1  0  0  0  0
 38 36  1  0  0  0  0
 39 35  1  1  0  0  0
 41 40  1  0  0  0  0
 42 43  1  0  0  0  0
 42 41  1  0  0  0  0
 43 44  1  0  0  0  0
 44 47  1  0  0  0  0
 45 43  2  0  0  0  0
 46 47  2  0  0  0  0
 47 48  1  0  0  0  0
 47 49  2  0  0  0  0
M  END
>  <MODEL>
3

>  <REMARK>
 VINA RESULT:      -6.1      2.661      4.513
  Name = 
  18 active torsions:
  status: ('A' for Active; 'I' for Inactive)
    1  A    between atoms: C_2  and  C_47
    2  A    between atoms: C_3  and  C_13
    3  A    between atoms: C_3  and  C_39
    4  A    between atoms: C_5  and  C_17
    5  A    between atoms: C_5  and  C_26
    6  A    between atoms: N_7  and  C_29
    7  A    between atoms: C_8  and  C_10
    8  A    between atoms: N_9  and  C_11
    9  A    between atoms: N_12  and  S_24
   10  A    between atoms: C_13  and  C_22
   11  A    between atoms: C_15  and  C_34
   12  A    between atoms: C_18  and  C_43
   13  A    between atoms: C_22  and  C_29
   14  A    between atoms: C_23  and  C_34
   15  A    between atoms: C_26  and  C_47
   16  A    between atoms: C_29  and  C_31
   17  A    between atoms: C_34  and  N_45
   18  A    between atoms: C_35  and  N_45
                            x       y       z     vdW  Elec       q    Type
                         _______ _______ _______ _____ _____    ______ ____

>  <TORSDO>
F 18

$$$$
=
 OpenBabel11062418203D

 49 52  0  0  1  0  0  0  0  0999 V2000
  192.7300  175.9020  144.8570 C   0  0  2  0  0  3  0  0  0  0  0  0
  195.7480  174.5560  145.4330 C   0  0  0  0  0  2  0  0  0  0  0  0
  195.7560  174.8110  143.9200 C   0  0  2  0  0  3  0  0  0  0  0  0
  194.8650  175.5380  146.1970 C   0  0  0  0  0  2  0  0  0  0  0  0
  193.5780  175.9690  143.5770 C   0  0  0  0  0  2  0  0  0  0  0  0
  194.3640  174.6960  143.2970 C   0  0  0  0  0  2  0  0  0  0  0  0
  193.4030  175.1480  146.0170 C   0  0  0  0  0  2  0  0  0  0  0  0
  191.3360  175.3420  144.5490 C   0  0  2  0  0  3  0  0  0  0  0  0
  190.4280  176.4560  144.0670 C   0  0  2  0  0  3  0  0  0  0  0  0
  189.6670  176.9640  145.2050 N   0  0  0  0  0  2  0  0  0  0  0  0
  190.6500  174.8400  145.7970 C   0  0  0  0  0  2  0  0  0  0  0  0
  189.7850  175.9860  146.2800 C   0  0  2  0  0  3  0  0  0  0  0  0
  189.5130  175.9430  143.0620 N   0  0  0  0  0  1  0  0  0  0  0  0
  188.3970  175.4890  146.6590 C   0  0  0  0  0  2  0  0  0  0  0  0
  187.4990  176.6270  147.1220 C   0  0  0  0  0  2  0  0  0  0  0  0
  186.5220  177.0340  146.0270 C   0  0  0  0  0  2  0  0  0  0  0  0
  186.2500  178.5430  145.9960 C   0  0  1  0  0  3  0  0  0  0  0  0
  186.5150  179.0840  143.4900 C   0  0  0  0  0  2  0  0  0  0  0  0
  184.9260  177.7000  142.1150 N   0  0  0  0  0  0  0  0  0  0  0  0
  186.3140  177.8550  142.5950 C   0  0  0  0  0  2  0  0  0  0  0  0
  183.9210  178.3670  142.9560 C   0  0  0  0  0  2  0  0  0  0  0  0
  184.2800  178.2810  144.4350 C   0  0  0  0  0  2  0  0  0  0  0  0
  185.5790  179.0480  144.7090 C   0  0  0  0  0  3  0  0  0  0  0  0
  183.5250  178.1340  140.2440 N   0  0  0  0  0  1  0  0  0  0  0  0
  184.8590  178.3050  140.7960 C   0  0  0  0  0  2  0  0  0  0  0  0
  185.6070  179.0320  147.2150 N   0  0  0  0  0  0  0  0  0  0  0  0
  184.4790  178.6200  147.5610 O   0  0  0  0  0  0  0  0  0  0  0  0
  186.2060  180.0370  147.9360 O   0  0  0  0  0  0  0  0  0  0  0  0
  196.7630  173.8720  143.2470 C   0  0  2  0  0  3  0  0  0  0  0  0
  197.3200  172.8580  144.2070 C   0  0  0  0  0  3  0  0  0  0  0  0
  196.7710  171.6560  144.4280 C   0  0  0  0  0  0  0  0  0  0  0  0
  195.2970  171.1020  143.5650 S   0  0  0  0  0  1  0  0  0  0  0  0
  196.5870  170.4750  146.4710 O   0  0  0  0  0  1  0  0  0  0  0  0
  197.4280  170.7180  145.3850 C   0  0  0  0  0  2  0  0  0  0  0  0
  197.8480  174.6310  142.6310 N   0  0  0  0  0  2  0  0  0  0  0  0
  197.8310  175.5240  140.3770 C   0  0  0  0  0  2  0  0  0  0  0  0
  196.5380  173.8430  140.7250 C   0  0  2  0  0  3  0  0  0  0  0  0
  196.4450  175.1200  139.9100 C   0  0  0  0  0  2  0  0  0  0  0  0
  197.9150  174.2640  141.2200 C   0  0  2  0  0  3  0  0  0  0  0  0
  196.6460  172.6600  139.7700 C   0  0  0  0  0  2  0  0  0  0  0  0
  195.7130  171.5220  140.1650 C   0  0  0  0  0  2  0  0  0  0  0  0
  194.7970  171.1060  139.0200 C   0  0  0  0  0  2  0  0  0  0  0  0
  193.3600  171.1570  139.4220 C   0  0  0  0  0  0  0  0  0  0  0  0
  193.0010  171.6840  140.7010 N   0  0  0  0  0  2  0  0  0  0  0  0
  192.4770  170.7380  138.6310 O   0  0  0  0  0  0  0  0  0  0  0  0
  191.3260  172.4700  142.6000 O   0  0  0  0  0  0  0  0  0  0  0  0
  191.3720  171.7390  141.2820 S   0  0  0  0  0  0  0  0  0  0  0  0
  190.7880  170.0780  141.4930 C   0  0  0  0  0  1  0  0  0  0  0  0
  190.4900  172.4370  140.2830 O   0  0  0  0  0  0  0  0  0  0  0  0
  1  5  1  6  0  0  0
  1  7  1  0  0  0  0
  2  4  1  0  0  0  0
  3 29  1  6  0  0  0
  3  2  1  0  0  0  0
  6  5  1  0  0  0  0
  6  3  1  0  0  0  0
  7  4  1  0  0  0  0
  8  1  1  0  0  0  0
  8 11  1  1  0  0  0
  9 13  1  6  0  0  0
  9  8  1  0  0  0  0
  9 10  1  0  0  0  0
 10 12  1  0  0  0  0
 11 12  1  0  0  0  0
 12 14  1  6  0  0  0
 14 15  1  0  0  0  0
 16 15  1  0  0  0  0
 17 16  1  1  0  0  0
 17 26  1  0  0  0  0
 18 23  1  0  0  0  0
 19 20  1  0  0  0  0
 19 21  1  0  0  0  0
 20 18  1  0  0  0  0
 21 22  1  0  0  0  0
 22 23  1  0  0  0  0
 23 17  1  0  0  0  0
 24 25  1  0  0  0  0
 25 19  1  0  0  0  0
 26 27  2  0  0  0  0
 26 28  2  0  0  0  0
 29 30  1  1  0  0  0
 30 31  2  0  0  0  0
 31 34  1  0  0  0  0
 32 31  1  0  0  0  0
 34 33  1  0  0  0  0
 35 29  1  0  0  0  0
 36 39  1  0  0  0  0
 37 40  1  6  0  0  0
 37 39  1  0  0  0  0
 38 36  1  0  0  0  0
 38 37  1  0  0  0  0
 39 35  1  1  0  0  0
 40 41  1  0  0  0  0
 42 43  1  0  0  0  0
 42 41  1  0  0  0  0
 43 44  1  0  0  0  0
 44 47  1  0  0  0  0
 45 43  2  0  0  0  0
 47 48  1  0  0  0  0
 47 46  2  0  0  0  0
 49 47  2  0  0  0  0
M  END
>  <MODEL>
4

>  <REMARK>
 VINA RESULT:      -6.0      2.705      5.303
  Name = 
  18 active torsions:
  status: ('A' for Active; 'I' for Inactive)
    1  A    between atoms: C_2  and  C_47
    2  A    between atoms: C_3  and  C_13
    3  A    between atoms: C_3  and  C_39
    4  A    between atoms: C_5  and  C_17
    5  A    between atoms: C_5  and  C_26
    6  A    between atoms: N_7  and  C_29
    7  A    between atoms: C_8  and  C_10
    8  A    between atoms: N_9  and  C_11
    9  A    between atoms: N_12  and  S_24
   10  A    between atoms: C_13  and  C_22
   11  A    between atoms: C_15  and  C_34
   12  A    between atoms: C_18  and  C_43
   13  A    between atoms: C_22  and  C_29
   14  A    between atoms: C_23  and  C_34
   15  A    between atoms: C_26  and  C_47
   16  A    between atoms: C_29  and  C_31
   17  A    between atoms: C_34  and  N_45
   18  A    between atoms: C_35  and  N_45
                            x       y       z     vdW  Elec       q    Type
                         _______ _______ _______ _____ _____    ______ ____

>  <TORSDO>
F 18

$$$$
=
 OpenBabel11062418203D

 49 52  0  0  1  0  0  0  0  0999 V2000
  192.4650  175.7050  147.2360 C   0  0  2  0  0  3  0  0  0  0  0  0
  189.6030  177.4520  147.1420 C   0  0  0  0  0  2  0  0  0  0  0  0
  189.2310  176.1260  146.4650 C   0  0  2  0  0  3  0  0  0  0  0  0
  190.7160  177.3030  148.1740 C   0  0  0  0  0  2  0  0  0  0  0  0
  191.3280  174.8070  146.7220 C   0  0  0  0  0  2  0  0  0  0  0  0
  190.4090  175.4950  145.7220 C   0  0  0  0  0  2  0  0  0  0  0  0
  192.0550  177.1710  147.4570 C   0  0  0  0  0  2  0  0  0  0  0  0
  193.6940  175.5910  146.3250 C   0  0  2  0  0  3  0  0  0  0  0  0
  193.8000  176.8200  145.4450 C   0  0  2  0  0  3  0  0  0  0  0  0
  193.1680  176.5310  144.1610 N   0  0  0  0  0  2  0  0  0  0  0  0
  193.5500  174.4580  145.3380 C   0  0  0  0  0  2  0  0  0  0  0  0
  193.0090  175.0840  144.0700 C   0  0  2  0  0  3  0  0  0  0  0  0
  195.1980  177.1540  145.2340 N   0  0  0  0  0  1  0  0  0  0  0  0
  193.7650  174.5730  142.8520 C   0  0  0  0  0  2  0  0  0  0  0  0
  192.8210  174.0220  141.7930 C   0  0  0  0  0  2  0  0  0  0  0  0
  191.9100  172.9500  142.3770 C   0  0  0  0  0  2  0  0  0  0  0  0
  192.2310  171.5420  141.8580 C   0  0  1  0  0  3  0  0  0  0  0  0
  194.5090  170.4560  142.3840 C   0  0  0  0  0  2  0  0  0  0  0  0
  195.3950  171.2860  144.5870 N   0  0  0  0  0  0  0  0  0  0  0  0
  195.4620  171.4070  143.1170 C   0  0  0  0  0  2  0  0  0  0  0  0
  194.1300  170.7280  145.0880 C   0  0  0  0  0  2  0  0  0  0  0  0
  192.9410  171.2020  144.2590 C   0  0  0  0  0  2  0  0  0  0  0  0
  193.0520  170.6740  142.8240 C   0  0  0  0  0  3  0  0  0  0  0  0
  196.2410  169.9510  146.3640 N   0  0  0  0  0  1  0  0  0  0  0  0
  196.4570  170.3810  144.9920 C   0  0  0  0  0  2  0  0  0  0  0  0
  191.0610  170.8550  141.3130 N   0  0  0  0  0  0  0  0  0  0  0  0
  190.4500  169.9910  141.9770 O   0  0  0  0  0  0  0  0  0  0  0  0
  190.6900  171.0890  140.0100 O   0  0  0  0  0  0  0  0  0  0  0  0
  188.0230  176.3400  145.5460 C   0  0  2  0  0  3  0  0  0  0  0  0
  188.3230  177.3070  144.4350 C   0  0  0  0  0  3  0  0  0  0  0  0
  188.2690  176.9930  143.1340 C   0  0  0  0  0  0  0  0  0  0  0  0
  187.7980  175.3580  142.5610 S   0  0  0  0  0  1  0  0  0  0  0  0
  187.6770  177.9330  141.0440 O   0  0  0  0  0  1  0  0  0  0  0  0
  188.5600  178.0460  142.1170 C   0  0  0  0  0  2  0  0  0  0  0  0
  186.8640  176.7920  146.3100 N   0  0  0  0  0  2  0  0  0  0  0  0
  185.8340  178.9150  146.8680 C   0  0  0  0  0  2  0  0  0  0  0  0
  185.0410  177.9190  145.1360 C   0  0  2  0  0  3  0  0  0  0  0  0
  184.4510  178.7380  146.2690 C   0  0  0  0  0  2  0  0  0  0  0  0
  186.4250  178.0690  145.7550 C   0  0  2  0  0  3  0  0  0  0  0  0
  184.9370  178.7230  143.8450 C   0  0  0  0  0  2  0  0  0  0  0  0
  183.6370  178.4430  143.1020 C   0  0  0  0  0  2  0  0  0  0  0  0
  183.8540  178.2920  141.6010 C   0  0  0  0  0  2  0  0  0  0  0  0
  182.5600  178.1260  140.8750 C   0  0  0  0  0  0  0  0  0  0  0  0
  181.3530  178.6300  141.4520 N   0  0  0  0  0  2  0  0  0  0  0  0
  182.5420  177.5430  139.7610 O   0  0  0  0  0  0  0  0  0  0  0  0
  179.9220  177.6030  139.4710 O   0  0  0  0  0  0  0  0  0  0  0  0
  179.7980  178.4420  140.7180 S   0  0  0  0  0  0  0  0  0  0  0  0
  179.1670  180.0470  140.3050 C   0  0  0  0  0  1  0  0  0  0  0  0
  178.8480  177.7840  141.6810 O   0  0  0  0  0  0  0  0  0  0  0  0
  1  5  1  6  0  0  0
  1  7  1  0  0  0  0
  2  4  1  0  0  0  0
  3 29  1  6  0  0  0
  3  2  1  0  0  0  0
  6  3  1  0  0  0  0
  6  5  1  0  0  0  0
  7  4  1  0  0  0  0
  8 11  1  6  0  0  0
  8  1  1  0  0  0  0
  9 13  1  6  0  0  0
  9  8  1  0  0  0  0
 10  9  1  0  0  0  0
 12 14  1  6  0  0  0
 12 10  1  0  0  0  0
 12 11  1  0  0  0  0
 15 16  1  0  0  0  0
 15 14  1  0  0  0  0
 17 16  1  1  0  0  0
 17 23  1  0  0  0  0
 18 23  1  0  0  0  0
 18 20  1  0  0  0  0
 19 25  1  0  0  0  0
 19 21  1  0  0  0  0
 20 19  1  0  0  0  0
 22 21  1  0  0  0  0
 23 22  1  0  0  0  0
 25 24  1  0  0  0  0
 26 17  1  0  0  0  0
 26 27  2  0  0  0  0
 28 26  2  0  0  0  0
 29 30  1  6  0  0  0
 29 35  1  0  0  0  0
 31 30  2  0  0  0  0
 32 31  1  0  0  0  0
 33 34  1  0  0  0  0
 34 31  1  0  0  0  0
 37 40  1  6  0  0  0
 37 39  1  0  0  0  0
 37 38  1  0  0  0  0
 38 36  1  0  0  0  0
 39 35  1  1  0  0  0
 39 36  1  0  0  0  0
 41 40  1  0  0  0  0
 42 41  1  0  0  0  0
 43 44  1  0  0  0  0
 43 42  1  0  0  0  0
 45 43  2  0  0  0  0
 46 47  2  0  0  0  0
 47 44  1  0  0  0  0
 47 49  2  0  0  0  0
 48 47  1  0  0  0  0
M  END
>  <MODEL>
5

>  <REMARK>
 VINA RESULT:      -5.8      3.506      9.923
  Name = 
  18 active torsions:
  status: ('A' for Active; 'I' for Inactive)
    1  A    between atoms: C_2  and  C_47
    2  A    between atoms: C_3  and  C_13
    3  A    between atoms: C_3  and  C_39
    4  A    between atoms: C_5  and  C_17
    5  A    between atoms: C_5  and  C_26
    6  A    between atoms: N_7  and  C_29
    7  A    between atoms: C_8  and  C_10
    8  A    between atoms: N_9  and  C_11
    9  A    between atoms: N_12  and  S_24
   10  A    between atoms: C_13  and  C_22
   11  A    between atoms: C_15  and  C_34
   12  A    between atoms: C_18  and  C_43
   13  A    between atoms: C_22  and  C_29
   14  A    between atoms: C_23  and  C_34
   15  A    between atoms: C_26  and  C_47
   16  A    between atoms: C_29  and  C_31
   17  A    between atoms: C_34  and  N_45
   18  A    between atoms: C_35  and  N_45
                            x       y       z     vdW  Elec       q    Type
                         _______ _______ _______ _____ _____    ______ ____

>  <TORSDO>
F 18

$$$$
=
 OpenBabel11062418203D

 49 52  0  0  1  0  0  0  0  0999 V2000
  188.7700  176.9690  147.3380 C   0  0  2  0  0  3  0  0  0  0  0  0
  189.9600  174.3320  145.6420 C   0  0  0  0  0  2  0  0  0  0  0  0
  191.0900  175.3640  145.5310 C   0  0  2  0  0  3  0  0  0  0  0  0
  189.1380  174.4840  146.9170 C   0  0  0  0  0  2  0  0  0  0  0  0
  190.2350  177.2230  146.9510 C   0  0  0  0  0  2  0  0  0  0  0  0
  190.5730  176.8040  145.5270 C   0  0  0  0  0  2  0  0  0  0  0  0
  188.1870  175.6650  146.7670 C   0  0  0  0  0  2  0  0  0  0  0  0
  187.9020  178.1830  146.9840 C   0  0  2  0  0  3  0  0  0  0  0  0
  186.8970  178.4380  148.0900 C   0  0  2  0  0  3  0  0  0  0  0  0
  185.6390  177.7860  147.7360 N   0  0  0  0  0  2  0  0  0  0  0  0
  187.0400  177.9150  145.7750 C   0  0  0  0  0  2  0  0  0  0  0  0
  185.7010  177.4600  146.3160 C   0  0  2  0  0  3  0  0  0  0  0  0
  186.6780  179.8660  148.2350 N   0  0  0  0  0  1  0  0  0  0  0  0
  184.5600  178.1590  145.5920 C   0  0  0  0  0  2  0  0  0  0  0  0
  185.0730  179.1250  144.5340 C   0  0  0  0  0  2  0  0  0  0  0  0
  184.6500  178.6850  143.1390 C   0  0  0  0  0  2  0  0  0  0  0  0
  185.8390  178.4500  142.1980 C   0  0  1  0  0  3  0  0  0  0  0  0
  186.4990  176.0250  142.7690 C   0  0  0  0  0  2  0  0  0  0  0  0
  188.5390  175.3350  141.4700 N   0  0  0  0  0  0  0  0  0  0  0  0
  187.0670  175.2670  141.5640 C   0  0  0  0  0  2  0  0  0  0  0  0
  189.1330  176.4890  142.1620 C   0  0  0  0  0  2  0  0  0  0  0  0
  188.2560  177.7300  142.0370 C   0  0  0  0  0  2  0  0  0  0  0  0
  186.9170  177.5040  142.7490 C   0  0  0  0  0  3  0  0  0  0  0  0
  188.9480  173.0100  141.1870 N   0  0  0  0  0  1  0  0  0  0  0  0
  189.0650  174.1360  142.1000 C   0  0  0  0  0  2  0  0  0  0  0  0
  185.4300  178.1290  140.8310 N   0  0  0  0  0  0  0  0  0  0  0  0
  186.2720  177.9960  139.9180 O   0  0  0  0  0  0  0  0  0  0  0  0
  184.0910  178.0740  140.5250 O   0  0  0  0  0  0  0  0  0  0  0  0
  191.9440  175.0610  144.2950 C   0  0  2  0  0  3  0  0  0  0  0  0
  191.9380  173.5970  143.9500 C   0  0  0  0  0  3  0  0  0  0  0  0
  192.2660  173.1110  142.7460 C   0  0  0  0  0  0  0  0  0  0  0  0
  192.7850  174.1700  141.3920 S   0  0  0  0  0  1  0  0  0  0  0  0
  192.3460  170.9680  143.7480 O   0  0  0  0  0  1  0  0  0  0  0  0
  192.2510  171.6340  142.5270 C   0  0  0  0  0  2  0  0  0  0  0  0
  193.3150  175.5280  144.4840 N   0  0  0  0  0  2  0  0  0  0  0  0
  194.8180  175.5280  146.3860 C   0  0  0  0  0  2  0  0  0  0  0  0
  195.2050  174.0330  144.8910 C   0  0  2  0  0  3  0  0  0  0  0  0
  196.0650  174.9150  145.7760 C   0  0  0  0  0  2  0  0  0  0  0  0
  193.9530  174.6720  145.4790 C   0  0  2  0  0  3  0  0  0  0  0  0
  195.3440  172.5890  145.3560 C   0  0  0  0  0  2  0  0  0  0  0  0
  195.7190  171.6560  144.2120 C   0  0  0  0  0  2  0  0  0  0  0  0
  196.1740  172.4180  142.9730 C   0  0  0  0  0  2  0  0  0  0  0  0
  195.8290  171.6840  141.7200 C   0  0  0  0  0  0  0  0  0  0  0  0
  195.8830  172.3620  140.4630 N   0  0  0  0  0  2  0  0  0  0  0  0
  195.4940  170.4730  141.7800 O   0  0  0  0  0  0  0  0  0  0  0  0
  195.8270  172.5230  137.8180 O   0  0  0  0  0  0  0  0  0  0  0  0
  195.4530  171.6160  138.9620 S   0  0  0  0  0  0  0  0  0  0  0  0
  193.7040  171.3260  138.9540 C   0  0  0  0  0  1  0  0  0  0  0  0
  196.1610  170.2970  138.8180 O   0  0  0  0  0  0  0  0  0  0  0  0
  1  7  1  6  0  0  0
  2  4  1  0  0  0  0
  3 29  1  6  0  0  0
  3  2  1  0  0  0  0
  5  1  1  0  0  0  0
  6  3  1  0  0  0  0
  6  5  1  0  0  0  0
  7  4  1  0  0  0  0
  8 11  1  6  0  0  0
  8  1  1  0  0  0  0
  8  9  1  0  0  0  0
  9 13  1  6  0  0  0
 10  9  1  0  0  0  0
 11 12  1  0  0  0  0
 12 14  1  6  0  0  0
 12 10  1  0  0  0  0
 15 14  1  0  0  0  0
 16 15  1  0  0  0  0
 17 23  1  0  0  0  0
 17 16  1  1  0  0  0
 19 20  1  0  0  0  0
 19 25  1  0  0  0  0
 19 21  1  0  0  0  0
 20 18  1  0  0  0  0
 22 21  1  0  0  0  0
 22 23  1  0  0  0  0
 23 18  1  0  0  0  0
 24 25  1  0  0  0  0
 26 17  1  0  0  0  0
 27 26  2  0  0  0  0
 28 26  2  0  0  0  0
 29 30  1  1  0  0  0
 29 35  1  0  0  0  0
 31 30  2  0  0  0  0
 32 31  1  0  0  0  0
 34 31  1  0  0  0  0
 34 33  1  0  0  0  0
 37 40  1  1  0  0  0
 37 39  1  0  0  0  0
 37 38  1  0  0  0  0
 38 36  1  0  0  0  0
 39 35  1  6  0  0  0
 39 36  1  0  0  0  0
 41 40  1  0  0  0  0
 42 41  1  0  0  0  0
 43 45  2  0  0  0  0
 43 42  1  0  0  0  0
 44 43  1  0  0  0  0
 46 47  2  0  0  0  0
 47 44  1  0  0  0  0
 48 47  1  0  0  0  0
 49 47  2  0  0  0  0
M  END
>  <MODEL>
6

>  <REMARK>
 VINA RESULT:      -5.8      1.825      2.264
  Name = 
  18 active torsions:
  status: ('A' for Active; 'I' for Inactive)
    1  A    between atoms: C_2  and  C_47
    2  A    between atoms: C_3  and  C_13
    3  A    between atoms: C_3  and  C_39
    4  A    between atoms: C_5  and  C_17
    5  A    between atoms: C_5  and  C_26
    6  A    between atoms: N_7  and  C_29
    7  A    between atoms: C_8  and  C_10
    8  A    between atoms: N_9  and  C_11
    9  A    between atoms: N_12  and  S_24
   10  A    between atoms: C_13  and  C_22
   11  A    between atoms: C_15  and  C_34
   12  A    between atoms: C_18  and  C_43
   13  A    between atoms: C_22  and  C_29
   14  A    between atoms: C_23  and  C_34
   15  A    between atoms: C_26  and  C_47
   16  A    between atoms: C_29  and  C_31
   17  A    between atoms: C_34  and  N_45
   18  A    between atoms: C_35  and  N_45
                            x       y       z     vdW  Elec       q    Type
                         _______ _______ _______ _____ _____    ______ ____

>  <TORSDO>
F 18

$$$$
=
 OpenBabel11062418203D

 49 52  0  0  1  0  0  0  0  0999 V2000
  190.4100  175.5380  146.6510 C   0  0  2  0  0  3  0  0  0  0  0  0
  191.6030  173.2840  144.4720 C   0  0  0  0  0  2  0  0  0  0  0  0
  192.8680  173.8210  145.1550 C   0  0  2  0  0  3  0  0  0  0  0  0
  190.3730  173.3350  145.3720 C   0  0  0  0  0  2  0  0  0  0  0  0
  191.9180  175.3480  146.8780 C   0  0  0  0  0  2  0  0  0  0  0  0
  192.7270  175.2800  145.5900 C   0  0  0  0  0  2  0  0  0  0  0  0
  189.8560  174.7670  145.4400 C   0  0  0  0  0  2  0  0  0  0  0  0
  190.0600  177.0290  146.5840 C   0  0  2  0  0  3  0  0  0  0  0  0
  189.0530  177.3710  147.6640 C   0  0  2  0  0  3  0  0  0  0  0  0
  187.7130  177.3160  147.0870 N   0  0  0  0  0  2  0  0  0  0  0  0
  189.3390  177.3740  145.3040 C   0  0  0  0  0  2  0  0  0  0  0  0
  187.8620  177.3220  145.6360 C   0  0  2  0  0  3  0  0  0  0  0  0
  189.3090  178.7090  148.1680 N   0  0  0  0  0  1  0  0  0  0  0  0
  187.1380  178.5310  145.0630 C   0  0  0  0  0  2  0  0  0  0  0  0
  185.6290  178.3340  145.0580 C   0  0  0  0  0  2  0  0  0  0  0  0
  185.2180  177.2790  144.0410 C   0  0  0  0  0  2  0  0  0  0  0  0
  185.5880  177.6580  142.6010 C   0  0  1  0  0  3  0  0  0  0  0  0
  187.6690  177.1430  141.1700 C   0  0  0  0  0  2  0  0  0  0  0  0
  189.1250  175.4380  142.3120 N   0  0  0  0  0  0  0  0  0  0  0  0
  188.9170  176.8700  142.0190 C   0  0  0  0  0  2  0  0  0  0  0  0
  187.9020  174.6240  142.2330 C   0  0  0  0  0  2  0  0  0  0  0  0
  186.6860  175.3870  142.7460 C   0  0  0  0  0  2  0  0  0  0  0  0
  186.4020  176.5950  141.8460 C   0  0  0  0  0  3  0  0  0  0  0  0
  189.4400  173.8170  140.6010 N   0  0  0  0  0  1  0  0  0  0  0  0
  190.0500  174.9260  141.3150 C   0  0  0  0  0  2  0  0  0  0  0  0
  184.4510  178.1690  141.8350 N   0  0  0  0  0  0  0  0  0  0  0  0
  183.3240  178.2970  142.3580 O   0  0  0  0  0  0  0  0  0  0  0  0
  184.6000  178.4130  140.4910 O   0  0  0  0  0  0  0  0  0  0  0  0
  194.0770  173.6130  144.2350 C   0  0  2  0  0  3  0  0  0  0  0  0
  195.2960  173.1740  144.9970 C   0  0  0  0  0  3  0  0  0  0  0  0
  195.5200  171.9130  145.3900 C   0  0  0  0  0  0  0  0  0  0  0  0
  194.3780  170.5770  145.0220 S   0  0  0  0  0  1  0  0  0  0  0  0
  197.4520  170.5480  145.4740 O   0  0  0  0  0  1  0  0  0  0  0  0
  196.7830  171.5890  146.1170 C   0  0  0  0  0  2  0  0  0  0  0  0
  194.3660  174.8260  143.4760 N   0  0  0  0  0  2  0  0  0  0  0  0
  196.0190  176.5500  143.8940 C   0  0  0  0  0  2  0  0  0  0  0  0
  196.3720  175.3170  142.1700 C   0  0  2  0  0  3  0  0  0  0  0  0
  196.5590  176.7870  142.4960 C   0  0  0  0  0  2  0  0  0  0  0  0
  195.7990  175.0850  143.5630 C   0  0  2  0  0  3  0  0  0  0  0  0
  197.7450  174.6680  142.0360 C   0  0  0  0  0  2  0  0  0  0  0  0
  197.7080  173.4390  141.1360 C   0  0  0  0  0  2  0  0  0  0  0  0
  197.4700  172.1560  141.9250 C   0  0  0  0  0  2  0  0  0  0  0  0
  196.1450  171.5520  141.6000 C   0  0  0  0  0  0  0  0  0  0  0  0
  195.1530  172.3350  140.9310 N   0  0  0  0  0  2  0  0  0  0  0  0
  195.9100  170.3580  141.9180 O   0  0  0  0  0  0  0  0  0  0  0  0
  192.9280  171.1880  141.8030 O   0  0  0  0  0  0  0  0  0  0  0  0
  193.5690  171.7460  140.5580 S   0  0  0  0  0  0  0  0  0  0  0  0
  193.7120  170.4740  139.3310 C   0  0  0  0  0  1  0  0  0  0  0  0
  192.7210  172.8580  140.0040 O   0  0  0  0  0  0  0  0  0  0  0  0
  1  7  1  6  0  0  0
  1  5  1  0  0  0  0
  2  3  1  0  0  0  0
  2  4  1  0  0  0  0
  3 29  1  6  0  0  0
  3  6  1  0  0  0  0
  4  7  1  0  0  0  0
  6  5  1  0  0  0  0
  8 11  1  6  0  0  0
  8  1  1  0  0  0  0
  8  9  1  0  0  0  0
  9 13  1  6  0  0  0
 10  9  1  0  0  0  0
 11 12  1  0  0  0  0
 12 14  1  1  0  0  0
 12 10  1  0  0  0  0
 15 14  1  0  0  0  0
 16 15  1  0  0  0  0
 17 16  1  1  0  0  0
 18 23  1  0  0  0  0
 18 20  1  0  0  0  0
 20 19  1  0  0  0  0
 21 19  1  0  0  0  0
 21 22  1  0  0  0  0
 23 17  1  0  0  0  0
 23 22  1  0  0  0  0
 24 25  1  0  0  0  0
 25 19  1  0  0  0  0
 26 27  2  0  0  0  0
 26 17  1  0  0  0  0
 28 26  2  0  0  0  0
 29 30  1  1  0  0  0
 30 31  2  0  0  0  0
 31 34  1  0  0  0  0
 32 31  1  0  0  0  0
 33 34  1  0  0  0  0
 35 29  1  0  0  0  0
 37 40  1  1  0  0  0
 37 38  1  0  0  0  0
 37 39  1  0  0  0  0
 38 36  1  0  0  0  0
 39 35  1  6  0  0  0
 39 36  1  0  0  0  0
 41 42  1  0  0  0  0
 41 40  1  0  0  0  0
 43 45  2  0  0  0  0
 43 42  1  0  0  0  0
 44 43  1  0  0  0  0
 47 44  1  0  0  0  0
 47 46  2  0  0  0  0
 48 47  1  0  0  0  0
 49 47  2  0  0  0  0
M  END
>  <MODEL>
7

>  <REMARK>
 VINA RESULT:      -5.7      1.940      2.572
  Name = 
  18 active torsions:
  status: ('A' for Active; 'I' for Inactive)
    1  A    between atoms: C_2  and  C_47
    2  A    between atoms: C_3  and  C_13
    3  A    between atoms: C_3  and  C_39
    4  A    between atoms: C_5  and  C_17
    5  A    between atoms: C_5  and  C_26
    6  A    between atoms: N_7  and  C_29
    7  A    between atoms: C_8  and  C_10
    8  A    between atoms: N_9  and  C_11
    9  A    between atoms: N_12  and  S_24
   10  A    between atoms: C_13  and  C_22
   11  A    between atoms: C_15  and  C_34
   12  A    between atoms: C_18  and  C_43
   13  A    between atoms: C_22  and  C_29
   14  A    between atoms: C_23  and  C_34
   15  A    between atoms: C_26  and  C_47
   16  A    between atoms: C_29  and  C_31
   17  A    between atoms: C_34  and  N_45
   18  A    between atoms: C_35  and  N_45
                            x       y       z     vdW  Elec       q    Type
                         _______ _______ _______ _____ _____    ______ ____

>  <TORSDO>
F 18

$$$$
=
 OpenBabel11062418203D

 49 52  0  0  1  0  0  0  0  0999 V2000
  193.8920  176.3420  145.5050 C   0  0  2  0  0  3  0  0  0  0  0  0
  195.7090  173.6190  144.7710 C   0  0  0  0  0  2  0  0  0  0  0  0
  194.9710  173.9170  143.4590 C   0  0  2  0  0  3  0  0  0  0  0  0
  195.9690  174.8690  145.6060 C   0  0  0  0  0  2  0  0  0  0  0  0
  193.7850  176.0390  144.0020 C   0  0  0  0  0  2  0  0  0  0  0  0
  193.6030  174.5610  143.6870 C   0  0  0  0  0  2  0  0  0  0  0  0
  194.6800  175.2880  146.3020 C   0  0  0  0  0  2  0  0  0  0  0  0
  192.5020  176.5860  146.1050 C   0  0  2  0  0  3  0  0  0  0  0  0
  192.0440  175.3560  146.8610 C   0  0  2  0  0  3  0  0  0  0  0  0
  191.2120  174.5460  145.9750 N   0  0  0  0  0  2  0  0  0  0  0  0
  191.4550  176.7550  145.0310 C   0  0  0  0  0  2  0  0  0  0  0  0
  190.8330  175.3860  144.8450 C   0  0  2  0  0  3  0  0  0  0  0  0
  191.2690  175.7540  148.0240 N   0  0  0  0  0  1  0  0  0  0  0  0
  189.3160  175.4880  144.7820 C   0  0  0  0  0  2  0  0  0  0  0  0
  188.7980  176.6760  145.5800 C   0  0  0  0  0  2  0  0  0  0  0  0
  187.2750  176.6940  145.6070 C   0  0  0  0  0  2  0  0  0  0  0  0
  186.6970  178.0850  145.8960 C   0  0  1  0  0  3  0  0  0  0  0  0
  186.7590  178.7080  143.3960 C   0  0  0  0  0  2  0  0  0  0  0  0
  184.8590  177.6100  142.1650 N   0  0  0  0  0  0  0  0  0  0  0  0
  186.2990  177.5610  142.4890 C   0  0  0  0  0  2  0  0  0  0  0  0
  184.0490  178.3610  143.1370 C   0  0  0  0  0  2  0  0  0  0  0  0
  184.5520  178.1570  144.5620 C   0  0  0  0  0  2  0  0  0  0  0  0
  185.9640  178.7350  144.7120 C   0  0  0  0  0  3  0  0  0  0  0  0
  185.8370  177.9080  140.0190 N   0  0  0  0  0  1  0  0  0  0  0  0
  184.7310  178.2830  140.8840 C   0  0  0  0  0  2  0  0  0  0  0  0
  185.9400  178.1390  147.1460 N   0  0  0  0  0  0  0  0  0  0  0  0
  185.3650  179.1870  147.5100 O   0  0  0  0  0  0  0  0  0  0  0  0
  185.9470  177.0500  147.9840 O   0  0  0  0  0  0  0  0  0  0  0  0
  194.8690  172.6360  142.6250 C   0  0  2  0  0  3  0  0  0  0  0  0
  194.2660  171.5010  143.4050 C   0  0  0  0  0  3  0  0  0  0  0  0
  193.5080  170.5390  142.8610 C   0  0  0  0  0  0  0  0  0  0  0  0
  193.1430  170.4820  141.1040 S   0  0  0  0  0  1  0  0  0  0  0  0
  193.9480  169.0790  144.6720 O   0  0  0  0  0  1  0  0  0  0  0  0
  192.9860  169.4430  143.7310 C   0  0  0  0  0  2  0  0  0  0  0  0
  196.1770  172.2500  142.1040 N   0  0  0  0  0  2  0  0  0  0  0  0
  197.6380  173.1140  140.3730 C   0  0  0  0  0  2  0  0  0  0  0  0
  195.7100  174.0510  140.5180 C   0  0  2  0  0  3  0  0  0  0  0  0
  197.1190  174.5320  140.2270 C   0  0  0  0  0  2  0  0  0  0  0  0
  196.2360  172.6320  140.6960 C   0  0  2  0  0  3  0  0  0  0  0  0
  194.8810  174.1630  139.2430 C   0  0  0  0  0  2  0  0  0  0  0  0
  193.3930  174.2890  139.5410 C   0  0  0  0  0  2  0  0  0  0  0  0
  192.5350  173.6000  138.4860 C   0  0  0  0  0  2  0  0  0  0  0  0
  191.2780  173.0520  139.0750 C   0  0  0  0  0  0  0  0  0  0  0  0
  190.5870  173.7920  140.0840 N   0  0  0  0  0  2  0  0  0  0  0  0
  190.8360  171.9430  138.6790 O   0  0  0  0  0  0  0  0  0  0  0  0
  188.5040  174.3500  141.6250 O   0  0  0  0  0  0  0  0  0  0  0  0
  189.1530  173.2210  140.8660 S   0  0  0  0  0  0  0  0  0  0  0  0
  189.5970  171.9190  141.9850 C   0  0  0  0  0  1  0  0  0  0  0  0
  188.1910  172.6740  139.8480 O   0  0  0  0  0  0  0  0  0  0  0  0
  1  5  1  6  0  0  0
  1  8  1  0  0  0  0
  1  7  1  0  0  0  0
  2  4  1  0  0  0  0
  3 29  1  1  0  0  0
  3  6  1  0  0  0  0
  3  2  1  0  0  0  0
  4  7  1  0  0  0  0
  6  5  1  0  0  0  0
  8 11  1  6  0  0  0
  8  9  1  0  0  0  0
  9 13  1  1  0  0  0
 10  9  1  0  0  0  0
 12 14  1  1  0  0  0
 12 11  1  0  0  0  0
 12 10  1  0  0  0  0
 14 15  1  0  0  0  0
 15 16  1  0  0  0  0
 17 16  1  6  0  0  0
 17 26  1  0  0  0  0
 18 23  1  0  0  0  0
 19 20  1  0  0  0  0
 19 21  1  0  0  0  0
 20 18  1  0  0  0  0
 21 22  1  0  0  0  0
 22 23  1  0  0  0  0
 23 17  1  0  0  0  0
 24 25  1  0  0  0  0
 25 19  1  0  0  0  0
 26 27  2  0  0  0  0
 26 28  2  0  0  0  0
 29 30  1  1  0  0  0
 31 30  2  0  0  0  0
 31 34  1  0  0  0  0
 32 31  1  0  0  0  0
 34 33  1  0  0  0  0
 35 29  1  0  0  0  0
 36 39  1  0  0  0  0
 37 40  1  6  0  0  0
 37 39  1  0  0  0  0
 38 36  1  0  0  0  0
 38 37  1  0  0  0  0
 39 35  1  1  0  0  0
 40 41  1  0  0  0  0
 42 43  1  0  0  0  0
 42 41  1  0  0  0  0
 43 44  1  0  0  0  0
 44 47  1  0  0  0  0
 45 43  2  0  0  0  0
 47 46  2  0  0  0  0
 47 48  1  0  0  0  0
 49 47  2  0  0  0  0
M  END
>  <MODEL>
8

>  <REMARK>
 VINA RESULT:      -5.7      2.907      5.572
  Name = 
  18 active torsions:
  status: ('A' for Active; 'I' for Inactive)
    1  A    between atoms: C_2  and  C_47
    2  A    between atoms: C_3  and  C_13
    3  A    between atoms: C_3  and  C_39
    4  A    between atoms: C_5  and  C_17
    5  A    between atoms: C_5  and  C_26
    6  A    between atoms: N_7  and  C_29
    7  A    between atoms: C_8  and  C_10
    8  A    between atoms: N_9  and  C_11
    9  A    between atoms: N_12  and  S_24
   10  A    between atoms: C_13  and  C_22
   11  A    between atoms: C_15  and  C_34
   12  A    between atoms: C_18  and  C_43
   13  A    between atoms: C_22  and  C_29
   14  A    between atoms: C_23  and  C_34
   15  A    between atoms: C_26  and  C_47
   16  A    between atoms: C_29  and  C_31
   17  A    between atoms: C_34  and  N_45
   18  A    between atoms: C_35  and  N_45
                            x       y       z     vdW  Elec       q    Type
                         _______ _______ _______ _____ _____    ______ ____

>  <TORSDO>
F 18

$$$$
=
 OpenBabel11062418203D

 49 52  0  0  1  0  0  0  0  0999 V2000
  194.1890  170.2220  141.5070 C   0  0  2  0  0  3  0  0  0  0  0  0
  190.8710  170.4450  141.9440 C   0  0  0  0  0  2  0  0  0  0  0  0
  191.0710  170.9180  140.4980 C   0  0  2  0  0  3  0  0  0  0  0  0
  191.9310  169.4460  142.3960 C   0  0  0  0  0  2  0  0  0  0  0  0
  193.5140  170.5620  140.1690 C   0  0  0  0  0  2  0  0  0  0  0  0
  192.4170  171.6110  140.2870 C   0  0  0  0  0  2  0  0  0  0  0  0
  193.2250  170.1890  142.7060 C   0  0  0  0  0  2  0  0  0  0  0  0
  195.3800  171.1540  141.7620 C   0  0  2  0  0  3  0  0  0  0  0  0
  196.6490  170.3400  141.9160 C   0  0  2  0  0  3  0  0  0  0  0  0
  196.8840  170.1080  143.3390 N   0  0  0  0  0  2  0  0  0  0  0  0
  195.2530  171.8700  143.0840 C   0  0  0  0  0  2  0  0  0  0  0  0
  196.0410  171.0410  144.0780 C   0  0  2  0  0  3  0  0  0  0  0  0
  197.7720  171.0670  141.3510 N   0  0  0  0  0  1  0  0  0  0  0  0
  196.9190  171.9300  144.9450 C   0  0  0  0  0  2  0  0  0  0  0  0
  196.0940  172.7600  145.9180 C   0  0  0  0  0  2  0  0  0  0  0  0
  196.4150  174.2420  145.7820 C   0  0  0  0  0  2  0  0  0  0  0  0
  195.7090  174.9010  144.5900 C   0  0  1  0  0  3  0  0  0  0  0  0
  193.1380  175.0820  144.6240 C   0  0  0  0  0  2  0  0  0  0  0  0
  192.3040  175.3690  146.9800 N   0  0  0  0  0  0  0  0  0  0  0  0
  192.5160  174.4270  145.8620 C   0  0  0  0  0  2  0  0  0  0  0  0
  193.1700  176.5570  146.9370 C   0  0  0  0  0  2  0  0  0  0  0  0
  194.5630  176.2180  146.4170 C   0  0  0  0  0  2  0  0  0  0  0  0
  194.4820  175.7490  144.9590 C   0  0  0  0  0  3  0  0  0  0  0  0
  190.0490  174.7080  146.6190 N   0  0  0  0  0  1  0  0  0  0  0  0
  190.9300  175.8310  146.8960 C   0  0  0  0  0  2  0  0  0  0  0  0
  196.6340  175.5830  143.6860 N   0  0  0  0  0  0  0  0  0  0  0  0
  197.8050  175.1760  143.5300 O   0  0  0  0  0  0  0  0  0  0  0  0
  196.2420  176.7510  143.0770 O   0  0  0  0  0  0  0  0  0  0  0  0
  189.8960  171.8100  140.0820 C   0  0  2  0  0  3  0  0  0  0  0  0
  190.3180  172.8870  139.1210 C   0  0  0  0  0  3  0  0  0  0  0  0
  190.2800  172.7570  137.7880 C   0  0  0  0  0  0  0  0  0  0  0  0
  189.6860  171.2640  136.9860 S   0  0  0  0  0  1  0  0  0  0  0  0
  190.0490  173.8450  135.6990 O   0  0  0  0  0  1  0  0  0  0  0  0
  190.6980  173.9060  136.9310 C   0  0  0  0  0  2  0  0  0  0  0  0
  189.2550  172.4030  141.2530 N   0  0  0  0  0  2  0  0  0  0  0  0
  190.5690  174.0890  142.3970 C   0  0  0  0  0  2  0  0  0  0  0  0
  188.5090  174.5910  142.0450 C   0  0  2  0  0  3  0  0  0  0  0  0
  189.4930  174.8220  143.1760 C   0  0  0  0  0  2  0  0  0  0  0  0
  189.5790  173.8250  141.2770 C   0  0  2  0  0  3  0  0  0  0  0  0
  188.2130  175.9260  141.3730 C   0  0  0  0  0  2  0  0  0  0  0  0
  186.9240  176.5520  141.8910 C   0  0  0  0  0  2  0  0  0  0  0  0
  187.1910  177.6990  142.8600 C   0  0  0  0  0  2  0  0  0  0  0  0
  186.4800  177.4960  144.1570 C   0  0  0  0  0  0  0  0  0  0  0  0
  186.5430  178.5080  145.1650 N   0  0  0  0  0  2  0  0  0  0  0  0
  185.8300  176.4370  144.3520 O   0  0  0  0  0  0  0  0  0  0  0  0
  186.2750  177.0810  147.3820 O   0  0  0  0  0  0  0  0  0  0  0  0
  185.7990  178.3480  146.7190 S   0  0  0  0  0  0  0  0  0  0  0  0
  184.0400  178.2920  146.5030 C   0  0  0  0  0  1  0  0  0  0  0  0
  186.1410  179.5330  147.5810 O   0  0  0  0  0  0  0  0  0  0  0  0
  1  5  1  6  0  0  0
  1  8  1  0  0  0  0
  1  7  1  0  0  0  0
  2  4  1  0  0  0  0
  3 29  1  1  0  0  0
  3  2  1  0  0  0  0
  4  7  1  0  0  0  0
  5  6  1  0  0  0  0
  6  3  1  0  0  0  0
  8  9  1  0  0  0  0
  8 11  1  1  0  0  0
  9 13  1  1  0  0  0
  9 10  1  0  0  0  0
 10 12  1  0  0  0  0
 11 12  1  0  0  0  0
 12 14  1  6  0  0  0
 14 15  1  0  0  0  0
 16 15  1  0  0  0  0
 17 23  1  0  0  0  0
 17 16  1  1  0  0  0
 18 23  1  0  0  0  0
 18 20  1  0  0  0  0
 20 19  1  0  0  0  0
 21 19  1  0  0  0  0
 22 21  1  0  0  0  0
 23 22  1  0  0  0  0
 24 25  1  0  0  0  0
 25 19  1  0  0  0  0
 26 17  1  0  0  0  0
 27 26  2  0  0  0  0
 28 26  2  0  0  0  0
 29 30  1  6  0  0  0
 29 35  1  0  0  0  0
 31 30  2  0  0  0  0
 32 31  1  0  0  0  0
 33 34  1  0  0  0  0
 34 31  1  0  0  0  0
 36 38  1  0  0  0  0
 37 40  1  6  0  0  0
 37 38  1  0  0  0  0
 39 35  1  1  0  0  0
 39 37  1  0  0  0  0
 39 36  1  0  0  0  0
 40 41  1  0  0  0  0
 41 42  1  0  0  0  0
 42 43  1  0  0  0  0
 43 45  2  0  0  0  0
 43 44  1  0  0  0  0
 44 47  1  0  0  0  0
 47 46  2  0  0  0  0
 47 49  2  0  0  0  0
 48 47  1  0  0  0  0
M  END
>  <MODEL>
9

>  <REMARK>
 VINA RESULT:      -5.7      3.869     10.310
  Name = 
  18 active torsions:
  status: ('A' for Active; 'I' for Inactive)
    1  A    between atoms: C_2  and  C_47
    2  A    between atoms: C_3  and  C_13
    3  A    between atoms: C_3  and  C_39
    4  A    between atoms: C_5  and  C_17
    5  A    between atoms: C_5  and  C_26
    6  A    between atoms: N_7  and  C_29
    7  A    between atoms: C_8  and  C_10
    8  A    between atoms: N_9  and  C_11
    9  A    between atoms: N_12  and  S_24
   10  A    between atoms: C_13  and  C_22
   11  A    between atoms: C_15  and  C_34
   12  A    between atoms: C_18  and  C_43
   13  A    between atoms: C_22  and  C_29
   14  A    between atoms: C_23  and  C_34
   15  A    between atoms: C_26  and  C_47
   16  A    between atoms: C_29  and  C_31
   17  A    between atoms: C_34  and  N_45
   18  A    between atoms: C_35  and  N_45
                            x       y       z     vdW  Elec       q    Type
                         _______ _______ _______ _____ _____    ______ ____

>  <TORSDO>
F 18

$$$$
