=
 OpenBabel11062421463D

 70 73  0  0  1  0  0  0  0  0999 V2000
  193.2840  172.4610  138.3200 C   0  0  1  0  0  3  0  0  0  0  0  0
  195.4750  169.8760  141.4740 C   0  0  2  0  0  0  0  0  0  0  0  0
  194.8860  170.7000  139.0650 C   0  0  0  0  0  3  0  0  0  0  0  0
  196.9830  169.8720  141.7090 C   0  0  0  0  0  1  0  0  0  0  0  0
  193.7040  171.2980  139.1950 C   0  0  0  0  0  0  0  0  0  0  0  0
  193.4670  171.6140  141.6120 C   0  0  1  0  0  3  0  0  0  0  0  0
  195.3080  169.5670  139.9690 C   0  0  0  0  0  2  0  0  0  0  0  0
  194.9430  171.2530  141.9220 C   0  0  0  0  0  2  0  0  0  0  0  0
  192.8470  170.9740  140.3760 C   0  0  0  0  0  2  0  0  0  0  0  0
  192.6980  170.4870  143.6150 O   0  0  0  0  0  1  0  0  0  0  0  0
  192.4990  171.6000  142.7890 C   0  0  1  0  0  3  0  0  0  0  0  0
  192.4400  172.9300  143.5730 C   0  0  0  0  0  0  0  0  0  0  0  0
  191.3860  173.8310  142.9470 C   0  0  0  0  0  1  0  0  0  0  0  0
  192.0210  172.6680  145.0170 C   0  0  0  0  0  1  0  0  0  0  0  0
  193.7730  173.6950  143.5480 C   0  0  0  0  0  2  0  0  0  0  0  0
  194.1980  174.1910  144.9230 C   0  0  0  0  0  2  0  0  0  0  0  0
  195.5310  174.7550  144.8360 N   0  0  0  0  0  2  0  0  0  0  0  0
  196.5040  172.7820  145.9210 O   0  0  0  0  0  1  0  0  0  0  0  0
  196.6630  174.0250  145.3090 C   0  0  0  0  0  0  0  0  0  0  0  0
  197.8200  174.5020  145.1690 O   0  0  0  0  0  0  0  0  0  0  0  0
  194.7950  168.7540  142.2780 C   0  0  0  0  0  2  0  0  0  0  0  0
  195.6330  168.1660  143.4200 C   0  0  0  0  0  2  0  0  0  0  0  0
  196.6140  169.2990  145.3770 C   0  0  0  0  0  1  0  0  0  0  0  0
  195.3180  168.8840  144.7190 C   0  0  0  0  0  2  0  0  0  0  0  0
  193.1700  172.0620  136.8440 C   0  0  0  0  0  2  0  0  0  0  0  0
  194.5270  171.9200  136.1550 C   0  0  1  0  0  3  0  0  0  0  0  0
  194.4260  171.0850  135.0310 O   0  0  0  0  0  1  0  0  0  0  0  0
  194.9930  173.3020  135.7360 C   0  0  0  0  0  2  0  0  0  0  0  0
  196.3790  173.2910  135.5490 O   0  0  0  0  0  0  0  0  0  0  0  0
  196.9040  172.4780  136.5660 C   0  0  2  0  0  3  0  0  0  0  0  0
  197.1360  174.2230  139.7910 C   0  0  0  0  0  2  0  0  0  0  0  0
  197.5800  173.3170  137.6620 C   0  0  2  0  0  3  0  0  0  0  0  0
  197.1890  172.9190  139.0680 C   0  0  0  0  0  2  0  0  0  0  0  0
  197.3160  174.6880  137.4500 O   0  0  0  0  0  0  0  0  0  0  0  0
  196.8440  175.2010  138.6820 C   0  0  0  0  0  2  0  0  0  0  0  0
  197.8440  171.3960  135.9990 C   0  0  2  0  0  3  0  0  0  0  0  0
  197.9410  171.5260  134.6260 F   0  0  0  0  0  0  0  0  0  0  0  0
  197.3610  170.0670  136.3340 N   0  0  0  0  0  1  0  0  0  0  0  0
  192.0880  173.2670  138.8310 C   0  0  0  0  0  2  0  0  0  0  0  0
  191.0080  173.4560  137.7710 C   0  0  0  0  0  2  0  0  0  0  0  0
  189.6850  173.1370  138.4350 C   0  0  0  0  0  2  0  0  0  0  0  0
  188.5590  174.0570  137.9270 C   0  0  0  0  0  2  0  0  0  0  0  0
  187.8340  175.6340  141.2000 N   0  0  0  0  0  0  0  0  0  0  0  0
  185.5140  180.2570  144.1840 C   0  0  0  0  0  1  0  0  0  0  0  0
  188.2430  175.0690  138.9230 N   0  0  0  0  0  0  0  0  0  0  0  0
  186.6980  176.3790  143.0200 C   0  0  0  0  0  0  0  0  0  0  0  0
  185.3310  178.8480  143.6470 C   0  0  1  0  0  3  0  0  0  0  0  0
  187.4970  176.9790  140.9920 N   0  0  0  0  0  0  0  0  0  0  0  0
  185.9610  178.6450  142.2370 C   0  0  1  0  0  3  0  0  0  0  0  0
  186.7920  177.3850  142.1580 C   0  0  0  0  0  0  0  0  0  0  0  0
  187.3770  175.1720  142.5000 C   0  0  0  0  0  3  0  0  0  0  0  0
  185.5290  177.7370  144.7160 C   0  0  1  0  0  3  0  0  0  0  0  0
  188.1120  174.7060  140.1590 C   0  0  0  0  0  3  0  0  0  0  0  0
  185.6670  176.3520  144.0880 C   0  0  0  0  0  2  0  0  0  0  0  0
  183.5190  178.4420  141.4580 C   0  0  0  0  0  0  0  0  0  0  0  0
  184.9230  178.5510  141.2160 N   0  0  0  0  0  2  0  0  0  0  0  0
  183.0710  178.4520  142.6370 O   0  0  0  0  0  0  0  0  0  0  0  0
  182.6740  176.9730  139.6810 C   0  0  0  0  0  1  0  0  0  0  0  0
  182.5900  178.3620  140.2940 C   0  0  0  0  0  3  0  0  0  0  0  0
  181.1530  178.6430  140.7050 C   0  0  0  0  0  1  0  0  0  0  0  0
  186.6460  178.0180  145.7350 C   0  0  0  0  0  2  0  0  0  0  0  0
  188.0270  177.7510  145.1460 C   0  0  0  0  0  2  0  0  0  0  0  0
  189.0420  177.4930  146.2560 C   0  0  0  0  0  2  0  0  0  0  0  0
  191.2220  176.3870  146.9840 C   0  0  0  0  0  1  0  0  0  0  0  0
  190.1720  176.5130  145.8680 C   0  0  2  0  0  0  0  0  0  0  0  0
  190.6430  176.3940  143.4910 O   0  0  0  0  0  0  0  0  0  0  0  0
  190.8410  176.9990  144.5910 C   0  0  0  0  0  0  0  0  0  0  0  0
  191.6530  178.1350  144.6100 O   0  0  0  0  0  1  0  0  0  0  0  0
  189.2500  174.3670  146.9850 C   0  0  0  0  0  1  0  0  0  0  0  0
  189.5170  175.1330  145.6760 C   0  0  0  0  0  2  0  0  0  0  0  0
  1 25  1  6  0  0  0
  1 39  1  0  0  0  0
  1  5  1  0  0  0  0
  2  4  1  1  0  0  0
  2  8  1  0  0  0  0
  2 21  1  0  0  0  0
  3  5  2  0  0  0  0
  3  7  1  0  0  0  0
  5  9  1  0  0  0  0
  6  8  1  0  0  0  0
  6 11  1  1  0  0  0
  7  2  1  0  0  0  0
  9  6  1  0  0  0  0
 11 12  1  0  0  0  0
 11 10  1  1  0  0  0
 12 14  1  0  0  0  0
 13 12  1  0  0  0  0
 15 12  1  0  0  0  0
 15 16  1  0  0  0  0
 17 16  1  0  0  0  0
 17 19  1  0  0  0  0
 19 18  1  0  0  0  0
 20 19  2  0  0  0  0
 21 22  1  0  0  0  0
 22 24  1  0  0  0  0
 24 23  1  0  0  0  0
 26 27  1  6  0  0  0
 26 25  1  0  0  0  0
 28 26  1  0  0  0  0
 29 28  1  0  0  0  0
 30 29  1  6  0  0  0
 32 30  1  6  0  0  0
 32 33  1  0  0  0  0
 33 31  1  0  0  0  0
 34 32  1  0  0  0  0
 34 35  1  0  0  0  0
 35 31  1  0  0  0  0
 36 37  1  6  0  0  0
 36 38  1  0  0  0  0
 36 30  1  0  0  0  0
 40 41  1  0  0  0  0
 40 39  1  0  0  0  0
 42 41  1  0  0  0  0
 42 45  1  0  0  0  0
 43 51  1  0  0  0  0
 45 53  2  0  0  0  0
 46 54  1  0  0  0  0
 47 44  1  1  0  0  0
 47 52  1  0  0  0  0
 48 43  1  0  0  0  0
 48 50  2  0  0  0  0
 49 56  1  6  0  0  0
 49 47  1  0  0  0  0
 50 49  1  0  0  0  0
 50 46  1  0  0  0  0
 51 46  2  0  0  0  0
 52 61  1  6  0  0  0
 53 43  1  0  0  0  0
 54 52  1  0  0  0  0
 55 57  2  0  0  0  0
 56 55  1  0  0  0  0
 58 59  1  0  0  0  0
 59 60  1  0  0  0  0
 59 55  1  0  0  0  0
 62 61  1  0  0  0  0
 62 63  1  0  0  0  0
 65 63  1  0  0  0  0
 65 64  1  1  0  0  0
 66 67  2  0  0  0  0
 67 68  1  0  0  0  0
 67 65  1  0  0  0  0
 70 65  1  0  0  0  0
 70 69  1  0  0  0  0
M  END
>  <MODEL>
1

>  <REMARK>
 VINA RESULT:      -4.8      0.000      0.000
  Name = 
  29 active torsions:
  status: ('A' for Active; 'I' for Inactive)
    1  A    between atoms: C_1  and  C_46
    2  A    between atoms: C_1  and  C_65
    3  A    between atoms: N_2  and  C_15
    4  A    between atoms: C_3  and  O_5
    5  A    between atoms: C_3  and  C_13
    6  A    between atoms: C_3  and  C_27
    7  A    between atoms: O_5  and  C_60
    8  A    between atoms: C_8  and  C_23
    9  A    between atoms: C_9  and  N_17
   10  A    between atoms: C_9  and  C_46
   11  A    between atoms: C_14  and  C_20
   12  A    between atoms: C_14  and  C_56
   13  A    between atoms: C_15  and  C_69
   14  A    between atoms: C_16  and  C_32
   15  A    between atoms: C_20  and  C_24
   16  A    between atoms: C_21  and  C_23
   17  A    between atoms: C_21  and  C_38
   18  A    between atoms: C_24  and  C_55
   19  A    between atoms: C_31  and  N_63
   20  A    between atoms: C_33  and  C_56
   21  A    between atoms: C_37  and  C_41
   22  A    between atoms: C_37  and  C_69
   23  A    between atoms: C_40  and  C_56
   24  A    between atoms: C_41  and  C_57
   25  A    between atoms: C_43  and  C_47
   26  A    between atoms: C_43  and  C_51
   27  A    between atoms: C_43  and  C_65
   28  A    between atoms: C_47  and  C_48
   29  A    between atoms: C_48  and  C_60
                            x       y       z     vdW  Elec       q    Type
                         _______ _______ _______ _____ _____    ______ ____

>  <TORSDO>
F 29

$$$$
=
 OpenBabel11062421463D

 70 73  0  0  1  0  0  0  0  0999 V2000
  196.2920  173.5230  142.7630 C   0  0  1  0  0  3  0  0  0  0  0  0
  196.4800  170.0630  139.6930 C   0  0  2  0  0  0  0  0  0  0  0  0
  196.7200  171.1720  142.0470 C   0  0  0  0  0  3  0  0  0  0  0  0
  195.6470  168.7860  139.7600 C   0  0  0  0  0  1  0  0  0  0  0  0
  196.8060  172.4760  141.7960 C   0  0  0  0  0  0  0  0  0  0  0  0
  196.0570  172.6790  139.4740 C   0  0  1  0  0  3  0  0  0  0  0  0
  197.2010  170.1380  141.0580 C   0  0  0  0  0  2  0  0  0  0  0  0
  195.5130  171.2290  139.3990 C   0  0  0  0  0  2  0  0  0  0  0  0
  197.2130  172.9320  140.4320 C   0  0  0  0  0  2  0  0  0  0  0  0
  196.6380  172.5120  137.1260 O   0  0  0  0  0  1  0  0  0  0  0  0
  196.2680  173.3980  138.1460 C   0  0  1  0  0  3  0  0  0  0  0  0
  195.1050  174.3310  137.7420 C   0  0  0  0  0  0  0  0  0  0  0  0
  194.4790  174.9190  138.9970 C   0  0  0  0  0  1  0  0  0  0  0  0
  195.6330  175.4930  136.9060 C   0  0  0  0  0  1  0  0  0  0  0  0
  193.9940  173.5990  136.9730 C   0  0  0  0  0  2  0  0  0  0  0  0
  192.6110  174.1760  137.2360 C   0  0  0  0  0  2  0  0  0  0  0  0
  191.6220  173.1220  137.1150 N   0  0  0  0  0  2  0  0  0  0  0  0
  192.0670  172.3570  139.4030 O   0  0  0  0  0  1  0  0  0  0  0  0
  191.3470  172.2510  138.2140 C   0  0  0  0  0  0  0  0  0  0  0  0
  190.4420  171.3820  138.1130 O   0  0  0  0  0  0  0  0  0  0  0  0
  197.5450  169.9620  138.5870 C   0  0  0  0  0  2  0  0  0  0  0  0
  197.0580  169.3630  137.2610 C   0  0  0  0  0  2  0  0  0  0  0  0
  197.4200  169.2590  134.8260 C   0  0  0  0  0  1  0  0  0  0  0  0
  197.9410  169.8360  136.1220 C   0  0  0  0  0  2  0  0  0  0  0  0
  197.0820  173.5330  144.0770 C   0  0  0  0  0  2  0  0  0  0  0  0
  196.4920  172.6030  145.1380 C   0  0  1  0  0  3  0  0  0  0  0  0
  197.0090  172.9110  146.4070 O   0  0  0  0  0  1  0  0  0  0  0  0
  194.9850  172.7760  145.1350 C   0  0  0  0  0  2  0  0  0  0  0  0
  194.3730  171.5460  145.3950 O   0  0  0  0  0  0  0  0  0  0  0  0
  194.1400  170.9520  144.1430 C   0  0  2  0  0  3  0  0  0  0  0  0
  190.6080  171.6800  143.4400 C   0  0  0  0  0  2  0  0  0  0  0  0
  192.9630  171.6220  143.4160 C   0  0  2  0  0  3  0  0  0  0  0  0
  191.7890  171.9400  144.3140 C   0  0  0  0  0  2  0  0  0  0  0  0
  192.5470  170.8170  142.3320 O   0  0  0  0  0  0  0  0  0  0  0  0
  191.1450  170.6700  142.4560 C   0  0  0  0  0  2  0  0  0  0  0  0
  193.9570  169.4260  144.2640 C   0  0  2  0  0  3  0  0  0  0  0  0
  193.1440  169.1310  145.3430 F   0  0  0  0  0  0  0  0  0  0  0  0
  195.2420  168.7660  144.4210 N   0  0  0  0  0  1  0  0  0  0  0  0
  196.0770  174.9150  142.1680 C   0  0  0  0  0  2  0  0  0  0  0  0
  195.6450  175.9420  143.2090 C   0  0  0  0  0  2  0  0  0  0  0  0
  194.2110  175.6170  143.5710 C   0  0  0  0  0  2  0  0  0  0  0  0
  193.4530  174.9910  142.3860 C   0  0  0  0  0  2  0  0  0  0  0  0
  190.0760  176.3910  142.9890 N   0  0  0  0  0  0  0  0  0  0  0  0
  184.9940  178.5120  140.6810 C   0  0  0  0  0  1  0  0  0  0  0  0
  192.1970  175.6890  142.1610 N   0  0  0  0  0  0  0  0  0  0  0  0
  187.8160  176.5580  143.1330 C   0  0  0  0  0  0  0  0  0  0  0  0
  185.7490  177.3310  141.2670 C   0  0  1  0  0  3  0  0  0  0  0  0
  189.5970  176.9500  141.7970 N   0  0  0  0  0  0  0  0  0  0  0  0
  187.2320  177.2610  140.7980 C   0  0  1  0  0  3  0  0  0  0  0  0
  188.1850  177.0290  141.9470 C   0  0  0  0  0  0  0  0  0  0  0  0
  188.9930  176.1290  143.9210 C   0  0  0  0  0  3  0  0  0  0  0  0
  185.4290  177.0600  142.7630 C   0  0  1  0  0  3  0  0  0  0  0  0
  191.3180  175.7070  143.1120 C   0  0  0  0  0  3  0  0  0  0  0  0
  186.4300  176.0990  143.4020 C   0  0  0  0  0  2  0  0  0  0  0  0
  187.1710  176.2380  138.4390 C   0  0  0  0  0  0  0  0  0  0  0  0
  187.4220  176.1720  139.8440 N   0  0  0  0  0  2  0  0  0  0  0  0
  186.7770  177.3130  137.9100 O   0  0  0  0  0  0  0  0  0  0  0  0
  188.1240  175.4490  136.3180 C   0  0  0  0  0  1  0  0  0  0  0  0
  187.4270  175.0300  137.6030 C   0  0  0  0  0  3  0  0  0  0  0  0
  188.2910  174.0160  138.3350 C   0  0  0  0  0  1  0  0  0  0  0  0
  185.2260  178.3250  143.6160 C   0  0  0  0  0  2  0  0  0  0  0  0
  186.3230  178.4810  144.6630 C   0  0  0  0  0  2  0  0  0  0  0  0
  185.7160  178.6990  146.0460 C   0  0  0  0  0  2  0  0  0  0  0  0
  185.8620  176.9440  147.8920 C   0  0  0  0  0  1  0  0  0  0  0  0
  186.5620  178.1300  147.2070 C   0  0  2  0  0  0  0  0  0  0  0  0
  187.5030  178.9920  149.2700 O   0  0  0  0  0  1  0  0  0  0  0  0
  186.8180  179.2290  148.2270 C   0  0  0  0  0  0  0  0  0  0  0  0
  186.3290  180.5190  148.0080 O   0  0  0  0  0  0  0  0  0  0  0  0
  189.1490  178.0890  147.3090 C   0  0  0  0  0  1  0  0  0  0  0  0
  187.8740  177.6120  146.5890 C   0  0  0  0  0  2  0  0  0  0  0  0
  1 39  1  6  0  0  0
  1 25  1  0  0  0  0
  2  4  1  6  0  0  0
  2  7  1  0  0  0  0
  5  3  2  0  0  0  0
  5  1  1  0  0  0  0
  6 11  1  6  0  0  0
  6  9  1  0  0  0  0
  7  3  1  0  0  0  0
  8  6  1  0  0  0  0
  8  2  1  0  0  0  0
  9  5  1  0  0  0  0
 11 10  1  6  0  0  0
 12 11  1  0  0  0  0
 12 13  1  0  0  0  0
 14 12  1  0  0  0  0
 15 16  1  0  0  0  0
 15 12  1  0  0  0  0
 17 16  1  0  0  0  0
 17 19  1  0  0  0  0
 19 18  1  0  0  0  0
 20 19  2  0  0  0  0
 21  2  1  0  0  0  0
 22 21  1  0  0  0  0
 23 24  1  0  0  0  0
 24 22  1  0  0  0  0
 25 26  1  0  0  0  0
 26 27  1  1  0  0  0
 28 26  1  0  0  0  0
 28 29  1  0  0  0  0
 30 36  1  0  0  0  0
 30 29  1  1  0  0  0
 31 33  1  0  0  0  0
 32 30  1  1  0  0  0
 32 33  1  0  0  0  0
 34 35  1  0  0  0  0
 34 32  1  0  0  0  0
 35 31  1  0  0  0  0
 36 38  1  1  0  0  0
 36 37  1  0  0  0  0
 39 40  1  0  0  0  0
 40 41  1  0  0  0  0
 42 41  1  0  0  0  0
 43 53  1  0  0  0  0
 43 51  1  0  0  0  0
 45 42  1  0  0  0  0
 45 53  2  0  0  0  0
 46 54  1  0  0  0  0
 46 51  2  0  0  0  0
 47 44  1  1  0  0  0
 47 52  1  0  0  0  0
 48 50  2  0  0  0  0
 48 43  1  0  0  0  0
 49 56  1  6  0  0  0
 49 47  1  0  0  0  0
 49 50  1  0  0  0  0
 50 46  1  0  0  0  0
 52 54  1  0  0  0  0
 52 61  1  1  0  0  0
 55 56  1  0  0  0  0
 57 55  2  0  0  0  0
 58 59  1  0  0  0  0
 59 60  1  0  0  0  0
 59 55  1  0  0  0  0
 61 62  1  0  0  0  0
 62 63  1  0  0  0  0
 63 65  1  0  0  0  0
 65 64  1  1  0  0  0
 65 67  1  0  0  0  0
 67 66  1  0  0  0  0
 68 67  2  0  0  0  0
 70 65  1  0  0  0  0
 70 69  1  0  0  0  0
M  END
>  <MODEL>
2

>  <REMARK>
 VINA RESULT:      -4.6      2.882      6.536
  Name = 
  29 active torsions:
  status: ('A' for Active; 'I' for Inactive)
    1  A    between atoms: C_1  and  C_46
    2  A    between atoms: C_1  and  C_65
    3  A    between atoms: N_2  and  C_15
    4  A    between atoms: C_3  and  O_5
    5  A    between atoms: C_3  and  C_13
    6  A    between atoms: C_3  and  C_27
    7  A    between atoms: O_5  and  C_60
    8  A    between atoms: C_8  and  C_23
    9  A    between atoms: C_9  and  N_17
   10  A    between atoms: C_9  and  C_46
   11  A    between atoms: C_14  and  C_20
   12  A    between atoms: C_14  and  C_56
   13  A    between atoms: C_15  and  C_69
   14  A    between atoms: C_16  and  C_32
   15  A    between atoms: C_20  and  C_24
   16  A    between atoms: C_21  and  C_23
   17  A    between atoms: C_21  and  C_38
   18  A    between atoms: C_24  and  C_55
   19  A    between atoms: C_31  and  N_63
   20  A    between atoms: C_33  and  C_56
   21  A    between atoms: C_37  and  C_41
   22  A    between atoms: C_37  and  C_69
   23  A    between atoms: C_40  and  C_56
   24  A    between atoms: C_41  and  C_57
   25  A    between atoms: C_43  and  C_47
   26  A    between atoms: C_43  and  C_51
   27  A    between atoms: C_43  and  C_65
   28  A    between atoms: C_47  and  C_48
   29  A    between atoms: C_48  and  C_60
                            x       y       z     vdW  Elec       q    Type
                         _______ _______ _______ _____ _____    ______ ____

>  <TORSDO>
F 29

$$$$
=
 OpenBabel11062421463D

 70 73  0  0  1  0  0  0  0  0999 V2000
  188.3210  174.2840  141.9700 C   0  0  1  0  0  3  0  0  0  0  0  0
  191.0600  177.3950  144.0340 C   0  0  2  0  0  0  0  0  0  0  0  0
  190.5210  175.2830  142.5910 C   0  0  0  0  0  3  0  0  0  0  0  0
  192.0180  178.3350  143.3100 C   0  0  0  0  0  1  0  0  0  0  0  0
  189.2800  174.9490  142.9360 C   0  0  0  0  0  0  0  0  0  0  0  0
  188.4430  176.9280  144.1120 C   0  0  1  0  0  3  0  0  0  0  0  0
  191.4540  175.9790  143.5520 C   0  0  0  0  0  2  0  0  0  0  0  0
  189.6250  177.8320  143.6750 C   0  0  0  0  0  2  0  0  0  0  0  0
  188.7270  175.4360  144.2370 C   0  0  0  0  0  2  0  0  0  0  0  0
  188.0800  178.6340  145.7940 O   0  0  0  0  0  1  0  0  0  0  0  0
  187.5920  177.4300  145.2730 C   0  0  1  0  0  3  0  0  0  0  0  0
  186.0770  177.4730  144.9720 C   0  0  0  0  0  0  0  0  0  0  0  0
  185.3780  176.3890  145.7780 C   0  0  0  0  0  1  0  0  0  0  0  0
  185.4960  178.8150  145.4060 C   0  0  0  0  0  1  0  0  0  0  0  0
  185.7570  177.2220  143.4890 C   0  0  0  0  0  2  0  0  0  0  0  0
  186.0020  178.4430  142.6150 C   0  0  0  0  0  2  0  0  0  0  0  0
  185.5260  178.1730  141.2720 N   0  0  0  0  0  2  0  0  0  0  0  0
  183.2030  178.0670  142.0510 O   0  0  0  0  0  1  0  0  0  0  0  0
  184.1300  178.0210  141.0110 C   0  0  0  0  0  0  0  0  0  0  0  0
  183.7280  177.8480  139.8300 O   0  0  0  0  0  0  0  0  0  0  0  0
  191.2730  177.4640  145.5560 C   0  0  0  0  0  2  0  0  0  0  0  0
  191.2740  176.1110  146.2800 C   0  0  0  0  0  2  0  0  0  0  0  0
  191.4960  175.1250  148.5270 C   0  0  0  0  0  1  0  0  0  0  0  0
  190.9660  176.3090  147.7520 C   0  0  0  0  0  2  0  0  0  0  0  0
  188.6220  174.6510  140.5120 C   0  0  0  0  0  2  0  0  0  0  0  0
  189.2050  173.4880  139.7090 C   0  0  1  0  0  3  0  0  0  0  0  0
  188.2250  172.5110  139.4720 O   0  0  0  0  0  1  0  0  0  0  0  0
  189.7230  174.0340  138.3920 C   0  0  0  0  0  2  0  0  0  0  0  0
  189.3270  173.1910  137.3490 O   0  0  0  0  0  0  0  0  0  0  0  0
  190.4990  172.5740  136.8800 C   0  0  2  0  0  3  0  0  0  0  0  0
  192.2480  175.6830  136.0010 C   0  0  0  0  0  2  0  0  0  0  0  0
  191.3110  173.5210  135.9830 C   0  0  2  0  0  3  0  0  0  0  0  0
  192.2950  174.3860  136.7380 C   0  0  0  0  0  2  0  0  0  0  0  0
  190.4370  174.3260  135.2180 O   0  0  0  0  0  0  0  0  0  0  0  0
  190.8690  175.6630  135.3910 C   0  0  0  0  0  2  0  0  0  0  0  0
  190.1940  171.2330  136.1840 C   0  0  2  0  0  3  0  0  0  0  0  0
  189.1440  171.3880  135.2960 F   0  0  0  0  0  0  0  0  0  0  0  0
  189.8640  170.2090  137.1610 N   0  0  0  0  0  1  0  0  0  0  0  0
  188.1000  172.7870  142.1920 C   0  0  0  0  0  2  0  0  0  0  0  0
  188.5540  172.3220  143.5710 C   0  0  0  0  0  2  0  0  0  0  0  0
  190.0380  172.0400  143.4700 C   0  0  0  0  0  2  0  0  0  0  0  0
  190.3600  171.1150  142.2810 C   0  0  0  0  0  2  0  0  0  0  0  0
  193.3570  171.3030  140.1110 N   0  0  0  0  0  0  0  0  0  0  0  0
  197.9410  174.5510  138.0890 C   0  0  0  0  0  1  0  0  0  0  0  0
  191.4490  171.6660  141.4900 N   0  0  0  0  0  0  0  0  0  0  0  0
  195.5290  171.3700  139.4510 C   0  0  0  0  0  0  0  0  0  0  0  0
  197.4350  173.5100  139.0720 C   0  0  1  0  0  3  0  0  0  0  0  0
  193.7380  172.6460  139.9780 N   0  0  0  0  0  0  0  0  0  0  0  0
  196.0100  173.8260  139.6160 C   0  0  1  0  0  3  0  0  0  0  0  0
  195.0990  172.6210  139.5660 C   0  0  0  0  0  0  0  0  0  0  0  0
  194.4480  170.4090  139.7640 C   0  0  0  0  0  3  0  0  0  0  0  0
  197.7680  172.0470  138.6660 C   0  0  1  0  0  3  0  0  0  0  0  0
  192.2820  170.8510  140.9260 C   0  0  0  0  0  3  0  0  0  0  0  0
  196.9730  171.0280  139.4800 C   0  0  0  0  0  2  0  0  0  0  0  0
  196.3140  175.6080  141.4440 C   0  0  0  0  0  0  0  0  0  0  0  0
  196.0740  174.2700  141.0050 N   0  0  0  0  0  2  0  0  0  0  0  0
  196.4640  176.5390  140.6060 O   0  0  0  0  0  0  0  0  0  0  0  0
  196.6900  174.6180  143.6600 C   0  0  0  0  0  1  0  0  0  0  0  0
  196.3390  175.8930  142.9080 C   0  0  0  0  0  3  0  0  0  0  0  0
  197.3540  176.9730  143.2500 C   0  0  0  0  0  1  0  0  0  0  0  0
  197.6830  171.7650  137.1560 C   0  0  0  0  0  2  0  0  0  0  0  0
  196.3160  171.2170  136.7600 C   0  0  0  0  0  2  0  0  0  0  0  0
  196.4680  169.9960  135.8590 C   0  0  0  0  0  2  0  0  0  0  0  0
  195.3080  168.1660  134.5130 C   0  0  0  0  0  1  0  0  0  0  0  0
  195.1630  169.1990  135.6430 C   0  0  2  0  0  0  0  0  0  0  0  0
  192.9750  169.7440  134.7470 O   0  0  0  0  0  0  0  0  0  0  0  0
  194.0340  170.1630  135.3110 C   0  0  0  0  0  0  0  0  0  0  0  0
  194.1390  171.5140  135.6520 O   0  0  0  0  0  1  0  0  0  0  0  0
  193.4440  168.5540  137.4690 C   0  0  0  0  0  1  0  0  0  0  0  0
  194.8890  168.4340  136.9510 C   0  0  0  0  0  2  0  0  0  0  0  0
  1 25  1  6  0  0  0
  1 39  1  0  0  0  0
  1  5  1  0  0  0  0
  2  4  1  6  0  0  0
  2 21  1  0  0  0  0
  3  5  2  0  0  0  0
  3  7  1  0  0  0  0
  5  9  1  0  0  0  0
  6  9  1  0  0  0  0
  6 11  1  1  0  0  0
  7  2  1  0  0  0  0
  8  2  1  0  0  0  0
  8  6  1  0  0  0  0
 11 10  1  6  0  0  0
 12 11  1  0  0  0  0
 12 14  1  0  0  0  0
 12 13  1  0  0  0  0
 15 12  1  0  0  0  0
 16 15  1  0  0  0  0
 17 16  1  0  0  0  0
 19 17  1  0  0  0  0
 19 18  1  0  0  0  0
 20 19  2  0  0  0  0
 21 22  1  0  0  0  0
 22 24  1  0  0  0  0
 24 23  1  0  0  0  0
 26 27  1  6  0  0  0
 26 25  1  0  0  0  0
 28 26  1  0  0  0  0
 29 28  1  0  0  0  0
 30 29  1  6  0  0  0
 31 33  1  0  0  0  0
 32 33  1  0  0  0  0
 32 30  1  1  0  0  0
 34 35  1  0  0  0  0
 34 32  1  0  0  0  0
 35 31  1  0  0  0  0
 36 37  1  6  0  0  0
 36 30  1  0  0  0  0
 36 38  1  0  0  0  0
 39 40  1  0  0  0  0
 41 40  1  0  0  0  0
 42 41  1  0  0  0  0
 43 53  1  0  0  0  0
 45 42  1  0  0  0  0
 46 54  1  0  0  0  0
 46 50  1  0  0  0  0
 46 51  2  0  0  0  0
 47 44  1  6  0  0  0
 47 49  1  0  0  0  0
 48 43  1  0  0  0  0
 49 56  1  1  0  0  0
 50 49  1  0  0  0  0
 50 48  2  0  0  0  0
 51 43  1  0  0  0  0
 52 61  1  6  0  0  0
 52 47  1  0  0  0  0
 52 54  1  0  0  0  0
 53 45  2  0  0  0  0
 55 59  1  0  0  0  0
 56 55  1  0  0  0  0
 57 55  2  0  0  0  0
 59 60  1  0  0  0  0
 59 58  1  0  0  0  0
 62 61  1  0  0  0  0
 63 62  1  0  0  0  0
 65 64  1  6  0  0  0
 65 63  1  0  0  0  0
 65 70  1  0  0  0  0
 66 67  2  0  0  0  0
 67 65  1  0  0  0  0
 67 68  1  0  0  0  0
 70 69  1  0  0  0  0
M  END
>  <MODEL>
3

>  <REMARK>
 VINA RESULT:      -4.1      2.856     10.263
  Name = 
  29 active torsions:
  status: ('A' for Active; 'I' for Inactive)
    1  A    between atoms: C_1  and  C_46
    2  A    between atoms: C_1  and  C_65
    3  A    between atoms: N_2  and  C_15
    4  A    between atoms: C_3  and  O_5
    5  A    between atoms: C_3  and  C_13
    6  A    between atoms: C_3  and  C_27
    7  A    between atoms: O_5  and  C_60
    8  A    between atoms: C_8  and  C_23
    9  A    between atoms: C_9  and  N_17
   10  A    between atoms: C_9  and  C_46
   11  A    between atoms: C_14  and  C_20
   12  A    between atoms: C_14  and  C_56
   13  A    between atoms: C_15  and  C_69
   14  A    between atoms: C_16  and  C_32
   15  A    between atoms: C_20  and  C_24
   16  A    between atoms: C_21  and  C_23
   17  A    between atoms: C_21  and  C_38
   18  A    between atoms: C_24  and  C_55
   19  A    between atoms: C_31  and  N_63
   20  A    between atoms: C_33  and  C_56
   21  A    between atoms: C_37  and  C_41
   22  A    between atoms: C_37  and  C_69
   23  A    between atoms: C_40  and  C_56
   24  A    between atoms: C_41  and  C_57
   25  A    between atoms: C_43  and  C_47
   26  A    between atoms: C_43  and  C_51
   27  A    between atoms: C_43  and  C_65
   28  A    between atoms: C_47  and  C_48
   29  A    between atoms: C_48  and  C_60
                            x       y       z     vdW  Elec       q    Type
                         _______ _______ _______ _____ _____    ______ ____

>  <TORSDO>
F 29

$$$$
=
 OpenBabel11062421463D

 70 73  0  0  1  0  0  0  0  0999 V2000
  193.5060  172.3500  138.8050 C   0  0  1  0  0  3  0  0  0  0  0  0
  196.4470  171.7630  142.3320 C   0  0  2  0  0  0  0  0  0  0  0  0
  195.6990  171.7430  139.8270 C   0  0  0  0  0  3  0  0  0  0  0  0
  197.7560  172.5250  142.5160 C   0  0  0  0  0  1  0  0  0  0  0  0
  194.3690  171.7150  139.8750 C   0  0  0  0  0  0  0  0  0  0  0  0
  193.8500  172.3180  142.1910 C   0  0  1  0  0  3  0  0  0  0  0  0
  196.5470  171.1390  140.9200 C   0  0  0  0  0  2  0  0  0  0  0  0
  195.2960  172.7720  142.5200 C   0  0  0  0  0  2  0  0  0  0  0  0
  193.6930  171.2440  141.1230 C   0  0  0  0  0  2  0  0  0  0  0  0
  192.9150  170.7070  143.7430 O   0  0  0  0  0  1  0  0  0  0  0  0
  192.9290  172.0590  143.3790 C   0  0  1  0  0  3  0  0  0  0  0  0
  193.1650  173.0050  144.5770 C   0  0  0  0  0  0  0  0  0  0  0  0
  191.8210  173.4060  145.1670 C   0  0  0  0  0  1  0  0  0  0  0  0
  193.9470  172.2810  145.6690 C   0  0  0  0  0  1  0  0  0  0  0  0
  193.8970  174.2970  144.1810 C   0  0  0  0  0  2  0  0  0  0  0  0
  193.1940  175.5520  144.6770 C   0  0  0  0  0  2  0  0  0  0  0  0
  194.1080  176.6760  144.5930 N   0  0  0  0  0  2  0  0  0  0  0  0
  193.8970  177.1050  146.9990 O   0  0  0  0  0  1  0  0  0  0  0  0
  194.4660  177.4120  145.7630 C   0  0  0  0  0  0  0  0  0  0  0  0
  195.3080  178.3450  145.6840 O   0  0  0  0  0  0  0  0  0  0  0  0
  196.3300  170.6220  143.3580 C   0  0  0  0  0  2  0  0  0  0  0  0
  196.1440  169.2210  142.7610 C   0  0  0  0  0  2  0  0  0  0  0  0
  194.5700  168.1710  144.3390 C   0  0  0  0  0  1  0  0  0  0  0  0
  196.0070  168.1970  143.8710 C   0  0  0  0  0  2  0  0  0  0  0  0
  192.9360  171.3120  137.8310 C   0  0  0  0  0  2  0  0  0  0  0  0
  193.9770  170.7780  136.8470 C   0  0  1  0  0  3  0  0  0  0  0  0
  193.7030  169.4420  136.5140 O   0  0  0  0  0  1  0  0  0  0  0  0
  193.9370  171.6420  135.6010 C   0  0  0  0  0  2  0  0  0  0  0  0
  195.0280  171.3310  134.7820 O   0  0  0  0  0  0  0  0  0  0  0  0
  196.1530  171.9070  135.3950 C   0  0  2  0  0  3  0  0  0  0  0  0
  197.7960  175.1830  135.1430 C   0  0  0  0  0  2  0  0  0  0  0  0
  196.5370  173.2360  134.7270 C   0  0  2  0  0  3  0  0  0  0  0  0
  197.9390  173.7010  135.0480 C   0  0  0  0  0  2  0  0  0  0  0  0
  195.5990  174.2360  135.0680 O   0  0  0  0  0  0  0  0  0  0  0  0
  196.3460  175.3480  135.5240 C   0  0  0  0  0  2  0  0  0  0  0  0
  197.3360  170.9200  135.4500 C   0  0  2  0  0  3  0  0  0  0  0  0
  197.0750  169.8230  134.6490 F   0  0  0  0  0  0  0  0  0  0  0  0
  197.5800  170.4850  136.8150 N   0  0  0  0  0  1  0  0  0  0  0  0
  192.4660  173.3510  139.3100 C   0  0  0  0  0  2  0  0  0  0  0  0
  191.0390  172.9530  138.9480 C   0  0  0  0  0  2  0  0  0  0  0  0
  190.2160  173.0870  140.2120 C   0  0  0  0  0  2  0  0  0  0  0  0
  188.7650  173.5010  139.9030 C   0  0  0  0  0  2  0  0  0  0  0  0
  187.8360  175.6000  142.8120 N   0  0  0  0  0  0  0  0  0  0  0  0
  185.3560  180.6460  144.8210 C   0  0  0  0  0  1  0  0  0  0  0  0
  188.3910  174.6640  140.6930 N   0  0  0  0  0  0  0  0  0  0  0  0
  186.5860  176.6330  144.4010 C   0  0  0  0  0  0  0  0  0  0  0  0
  185.1990  179.1670  144.5150 C   0  0  1  0  0  3  0  0  0  0  0  0
  187.5230  176.8890  142.3600 N   0  0  0  0  0  0  0  0  0  0  0  0
  185.9200  178.7340  143.2050 C   0  0  1  0  0  3  0  0  0  0  0  0
  186.7440  177.4820  143.3920 C   0  0  0  0  0  0  0  0  0  0  0  0
  187.2900  175.3590  144.1360 C   0  0  0  0  0  3  0  0  0  0  0  0
  185.3160  178.2510  145.7650 C   0  0  1  0  0  3  0  0  0  0  0  0
  188.1760  174.5120  141.9600 C   0  0  0  0  0  3  0  0  0  0  0  0
  185.4860  176.7800  145.3880 C   0  0  0  0  0  2  0  0  0  0  0  0
  183.5440  178.2930  142.3250 C   0  0  0  0  0  0  0  0  0  0  0  0
  184.9510  178.4670  142.1460 N   0  0  0  0  0  2  0  0  0  0  0  0
  183.0270  178.3970  143.4700 O   0  0  0  0  0  0  0  0  0  0  0  0
  181.6620  179.1440  140.9970 C   0  0  0  0  0  1  0  0  0  0  0  0
  182.6920  178.0320  141.1290 C   0  0  0  0  0  3  0  0  0  0  0  0
  183.5210  177.9630  139.8560 C   0  0  0  0  0  1  0  0  0  0  0  0
  186.3660  178.7020  146.7960 C   0  0  0  0  0  2  0  0  0  0  0  0
  187.7840  178.3840  146.3340 C   0  0  0  0  0  2  0  0  0  0  0  0
  188.2410  177.0420  146.8960 C   0  0  0  0  0  2  0  0  0  0  0  0
  190.3880  176.9070  145.5250 C   0  0  0  0  0  1  0  0  0  0  0  0
  189.7750  176.8590  146.9350 C   0  0  2  0  0  0  0  0  0  0  0  0
  191.2370  175.3400  148.1360 O   0  0  0  0  0  1  0  0  0  0  0  0
  190.1050  175.5250  147.5890 C   0  0  0  0  0  0  0  0  0  0  0  0
  189.1540  174.5030  147.6220 O   0  0  0  0  0  0  0  0  0  0  0  0
  191.1290  177.6360  149.0000 C   0  0  0  0  0  1  0  0  0  0  0  0
  190.3430  178.0410  147.7390 C   0  0  0  0  0  2  0  0  0  0  0  0
  1 25  1  1  0  0  0
  1 39  1  0  0  0  0
  1  5  1  0  0  0  0
  2  4  1  1  0  0  0
  2  8  1  0  0  0  0
  2 21  1  0  0  0  0
  3  5  2  0  0  0  0
  3  7  1  0  0  0  0
  5  9  1  0  0  0  0
  6  8  1  0  0  0  0
  6 11  1  1  0  0  0
  7  2  1  0  0  0  0
  9  6  1  0  0  0  0
 11 10  1  1  0  0  0
 11 12  1  0  0  0  0
 12 13  1  0  0  0  0
 12 14  1  0  0  0  0
 15 12  1  0  0  0  0
 15 16  1  0  0  0  0
 17 16  1  0  0  0  0
 17 19  1  0  0  0  0
 19 18  1  0  0  0  0
 20 19  2  0  0  0  0
 22 21  1  0  0  0  0
 22 24  1  0  0  0  0
 24 23  1  0  0  0  0
 26 27  1  6  0  0  0
 26 25  1  0  0  0  0
 28 26  1  0  0  0  0
 29 28  1  0  0  0  0
 30 29  1  6  0  0  0
 30 36  1  0  0  0  0
 31 35  1  0  0  0  0
 32 33  1  0  0  0  0
 32 34  1  0  0  0  0
 32 30  1  1  0  0  0
 33 31  1  0  0  0  0
 34 35  1  0  0  0  0
 36 37  1  6  0  0  0
 36 38  1  0  0  0  0
 40 39  1  0  0  0  0
 40 41  1  0  0  0  0
 42 41  1  0  0  0  0
 42 45  1  0  0  0  0
 43 51  1  0  0  0  0
 45 53  2  0  0  0  0
 46 54  1  0  0  0  0
 47 44  1  1  0  0  0
 47 52  1  0  0  0  0
 48 43  1  0  0  0  0
 48 50  2  0  0  0  0
 49 56  1  6  0  0  0
 49 50  1  0  0  0  0
 49 47  1  0  0  0  0
 50 46  1  0  0  0  0
 51 46  2  0  0  0  0
 52 61  1  6  0  0  0
 53 43  1  0  0  0  0
 54 52  1  0  0  0  0
 55 57  2  0  0  0  0
 56 55  1  0  0  0  0
 58 59  1  0  0  0  0
 59 55  1  0  0  0  0
 60 59  1  0  0  0  0
 62 61  1  0  0  0  0
 62 63  1  0  0  0  0
 63 65  1  0  0  0  0
 65 64  1  6  0  0  0
 65 67  1  0  0  0  0
 65 70  1  0  0  0  0
 67 68  2  0  0  0  0
 67 66  1  0  0  0  0
 70 69  1  0  0  0  0
M  END
>  <MODEL>
4

>  <REMARK>
 VINA RESULT:      -3.7      1.798      2.330
  Name = 
  29 active torsions:
  status: ('A' for Active; 'I' for Inactive)
    1  A    between atoms: C_1  and  C_46
    2  A    between atoms: C_1  and  C_65
    3  A    between atoms: N_2  and  C_15
    4  A    between atoms: C_3  and  O_5
    5  A    between atoms: C_3  and  C_13
    6  A    between atoms: C_3  and  C_27
    7  A    between atoms: O_5  and  C_60
    8  A    between atoms: C_8  and  C_23
    9  A    between atoms: C_9  and  N_17
   10  A    between atoms: C_9  and  C_46
   11  A    between atoms: C_14  and  C_20
   12  A    between atoms: C_14  and  C_56
   13  A    between atoms: C_15  and  C_69
   14  A    between atoms: C_16  and  C_32
   15  A    between atoms: C_20  and  C_24
   16  A    between atoms: C_21  and  C_23
   17  A    between atoms: C_21  and  C_38
   18  A    between atoms: C_24  and  C_55
   19  A    between atoms: C_31  and  N_63
   20  A    between atoms: C_33  and  C_56
   21  A    between atoms: C_37  and  C_41
   22  A    between atoms: C_37  and  C_69
   23  A    between atoms: C_40  and  C_56
   24  A    between atoms: C_41  and  C_57
   25  A    between atoms: C_43  and  C_47
   26  A    between atoms: C_43  and  C_51
   27  A    between atoms: C_43  and  C_65
   28  A    between atoms: C_47  and  C_48
   29  A    between atoms: C_48  and  C_60
                            x       y       z     vdW  Elec       q    Type
                         _______ _______ _______ _____ _____    ______ ____

>  <TORSDO>
F 29

$$$$
=
 OpenBabel11062421463D

 70 73  0  0  1  0  0  0  0  0999 V2000
  196.8510  173.8190  142.5870 C   0  0  1  0  0  3  0  0  0  0  0  0
  196.1830  170.1580  139.8330 C   0  0  2  0  0  0  0  0  0  0  0  0
  197.4600  171.6170  141.5860 C   0  0  0  0  0  3  0  0  0  0  0  0
  196.0290  168.7180  140.3120 C   0  0  0  0  0  1  0  0  0  0  0  0
  196.9540  172.8390  141.4370 C   0  0  0  0  0  0  0  0  0  0  0  0
  194.9160  172.4770  140.1280 C   0  0  1  0  0  3  0  0  0  0  0  0
  197.5220  170.6370  140.4400 C   0  0  0  0  0  2  0  0  0  0  0  0
  194.9370  170.9370  140.3030 C   0  0  0  0  0  2  0  0  0  0  0  0
  196.2600  173.1920  140.1600 C   0  0  0  0  0  2  0  0  0  0  0  0
  194.5920  172.8570  137.7560 O   0  0  0  0  0  1  0  0  0  0  0  0
  194.0210  173.0270  139.0230 C   0  0  1  0  0  3  0  0  0  0  0  0
  192.5570  172.5380  139.0960 C   0  0  0  0  0  0  0  0  0  0  0  0
  192.0360  172.3150  137.6840 C   0  0  0  0  0  1  0  0  0  0  0  0
  192.4870  171.2020  139.8280 C   0  0  0  0  0  1  0  0  0  0  0  0
  191.6230  173.5540  139.7750 C   0  0  0  0  0  2  0  0  0  0  0  0
  191.3570  173.2290  141.2380 C   0  0  0  0  0  2  0  0  0  0  0  0
  190.0080  173.6360  141.5800 N   0  0  0  0  0  2  0  0  0  0  0  0
  189.1000  171.4940  140.8030 O   0  0  0  0  0  0  0  0  0  0  0  0
  188.9080  172.7470  141.3840 C   0  0  0  0  0  0  0  0  0  0  0  0
  187.7510  173.0920  141.7440 O   0  0  0  0  0  1  0  0  0  0  0  0
  196.2990  170.2140  138.2990 C   0  0  0  0  0  2  0  0  0  0  0  0
  197.6190  170.7840  137.7630 C   0  0  0  0  0  2  0  0  0  0  0  0
  197.8080  171.2360  135.3480 C   0  0  0  0  0  1  0  0  0  0  0  0
  197.9390  170.1720  136.4130 C   0  0  0  0  0  2  0  0  0  0  0  0
  197.6600  173.3660  143.8070 C   0  0  0  0  0  2  0  0  0  0  0  0
  196.7830  172.9550  144.9900 C   0  0  1  0  0  3  0  0  0  0  0  0
  197.0650  173.7490  146.1140 O   0  0  0  0  0  1  0  0  0  0  0  0
  195.3310  173.1270  144.5850 C   0  0  0  0  0  2  0  0  0  0  0  0
  194.6880  171.8850  144.6170 O   0  0  0  0  0  0  0  0  0  0  0  0
  193.3120  172.1560  144.5310 C   0  0  2  0  0  3  0  0  0  0  0  0
  191.5740  174.9500  146.1660 C   0  0  0  0  0  2  0  0  0  0  0  0
  192.8340  173.0110  145.7150 C   0  0  2  0  0  3  0  0  0  0  0  0
  191.4580  173.6070  145.5250 C   0  0  0  0  0  2  0  0  0  0  0  0
  193.7770  174.0290  145.9850 O   0  0  0  0  0  0  0  0  0  0  0  0
  193.0500  175.2410  146.0510 C   0  0  0  0  0  2  0  0  0  0  0  0
  192.4880  170.8620  144.3780 C   0  0  2  0  0  3  0  0  0  0  0  0
  193.1190  169.8190  145.0310 F   0  0  0  0  0  0  0  0  0  0  0  0
  192.3100  170.5290  142.9750 N   0  0  0  0  0  1  0  0  0  0  0  0
  197.0690  175.2880  142.2180 C   0  0  0  0  0  2  0  0  0  0  0  0
  196.2620  176.2420  143.0930 C   0  0  0  0  0  2  0  0  0  0  0  0
  194.8210  175.7850  143.0210 C   0  0  0  0  0  2  0  0  0  0  0  0
  194.2670  175.8760  141.5870 C   0  0  0  0  0  2  0  0  0  0  0  0
  190.8720  176.7590  142.7800 N   0  0  0  0  0  0  0  0  0  0  0  0
  185.2550  178.2460  141.4030 C   0  0  0  0  0  1  0  0  0  0  0  0
  192.9100  176.4000  141.6000 N   0  0  0  0  0  0  0  0  0  0  0  0
  188.6610  176.6010  143.2710 C   0  0  0  0  0  0  0  0  0  0  0  0
  186.2420  177.1580  141.7900 C   0  0  1  0  0  3  0  0  0  0  0  0
  190.1410  177.2980  141.7120 N   0  0  0  0  0  0  0  0  0  0  0  0
  187.6290  177.3170  141.1010 C   0  0  1  0  0  3  0  0  0  0  0  0
  188.7730  177.1710  142.0770 C   0  0  0  0  0  0  0  0  0  0  0  0
  189.9930  176.3070  143.8450 C   0  0  0  0  0  3  0  0  0  0  0  0
  186.2000  176.7790  143.2970 C   0  0  1  0  0  3  0  0  0  0  0  0
  192.1970  176.2520  142.6700 C   0  0  0  0  0  3  0  0  0  0  0  0
  187.4070  175.9410  143.7140 C   0  0  0  0  0  2  0  0  0  0  0  0
  187.0250  176.1860  138.8720 C   0  0  0  0  0  0  0  0  0  0  0  0
  187.8080  176.3090  140.0610 N   0  0  0  0  0  2  0  0  0  0  0  0
  186.1010  177.0090  138.6270 O   0  0  0  0  0  0  0  0  0  0  0  0
  187.5600  175.7020  136.5240 C   0  0  0  0  0  1  0  0  0  0  0  0
  187.3490  175.0980  137.9050 C   0  0  0  0  0  3  0  0  0  0  0  0
  188.5990  174.3370  138.3160 C   0  0  0  0  0  1  0  0  0  0  0  0
  185.9680  177.9640  144.2510 C   0  0  0  0  0  2  0  0  0  0  0  0
  184.8580  177.6710  145.2550 C   0  0  0  0  0  2  0  0  0  0  0  0
  185.2960  176.5900  146.2380 C   0  0  0  0  0  2  0  0  0  0  0  0
  185.9510  176.2050  148.6730 C   0  0  0  0  0  1  0  0  0  0  0  0
  186.1030  177.1180  147.4450 C   0  0  2  0  0  0  0  0  0  0  0  0
  186.4670  179.4400  148.0480 O   0  0  0  0  0  1  0  0  0  0  0  0
  185.6270  178.5210  147.7910 C   0  0  0  0  0  0  0  0  0  0  0  0
  184.2630  178.8200  147.7980 O   0  0  0  0  0  0  0  0  0  0  0  0
  188.2360  175.7130  147.0260 C   0  0  0  0  0  1  0  0  0  0  0  0
  187.5840  177.1080  147.0280 C   0  0  0  0  0  2  0  0  0  0  0  0
  1 39  1  6  0  0  0
  1 25  1  0  0  0  0
  2  8  1  0  0  0  0
  2  4  1  1  0  0  0
  2  7  1  0  0  0  0
  5  3  2  0  0  0  0
  5  1  1  0  0  0  0
  6 11  1  6  0  0  0
  6  9  1  0  0  0  0
  6  8  1  0  0  0  0
  7  3  1  0  0  0  0
  9  5  1  0  0  0  0
 11 10  1  6  0  0  0
 11 12  1  0  0  0  0
 12 15  1  0  0  0  0
 12 14  1  0  0  0  0
 13 12  1  0  0  0  0
 15 16  1  0  0  0  0
 16 17  1  0  0  0  0
 18 19  2  0  0  0  0
 19 17  1  0  0  0  0
 19 20  1  0  0  0  0
 21  2  1  0  0  0  0
 22 21  1  0  0  0  0
 23 24  1  0  0  0  0
 24 22  1  0  0  0  0
 25 26  1  0  0  0  0
 26 27  1  1  0  0  0
 28 29  1  0  0  0  0
 28 26  1  0  0  0  0
 30 29  1  1  0  0  0
 32 30  1  6  0  0  0
 32 34  1  0  0  0  0
 33 32  1  0  0  0  0
 33 31  1  0  0  0  0
 34 35  1  0  0  0  0
 35 31  1  0  0  0  0
 36 38  1  6  0  0  0
 36 30  1  0  0  0  0
 36 37  1  0  0  0  0
 39 40  1  0  0  0  0
 41 40  1  0  0  0  0
 42 45  1  0  0  0  0
 42 41  1  0  0  0  0
 43 51  1  0  0  0  0
 45 53  2  0  0  0  0
 46 54  1  0  0  0  0
 46 51  2  0  0  0  0
 47 44  1  1  0  0  0
 47 52  1  0  0  0  0
 48 50  2  0  0  0  0
 48 43  1  0  0  0  0
 49 56  1  6  0  0  0
 49 47  1  0  0  0  0
 49 50  1  0  0  0  0
 50 46  1  0  0  0  0
 52 54  1  0  0  0  0
 52 61  1  1  0  0  0
 53 43  1  0  0  0  0
 55 56  1  0  0  0  0
 57 55  2  0  0  0  0
 58 59  1  0  0  0  0
 59 60  1  0  0  0  0
 59 55  1  0  0  0  0
 61 62  1  0  0  0  0
 62 63  1  0  0  0  0
 63 65  1  0  0  0  0
 65 67  1  0  0  0  0
 65 64  1  1  0  0  0
 67 68  2  0  0  0  0
 67 66  1  0  0  0  0
 69 70  1  0  0  0  0
 70 65  1  0  0  0  0
M  END
>  <MODEL>
5

>  <REMARK>
 VINA RESULT:      -3.5      2.844      6.406
  Name = 
  29 active torsions:
  status: ('A' for Active; 'I' for Inactive)
    1  A    between atoms: C_1  and  C_46
    2  A    between atoms: C_1  and  C_65
    3  A    between atoms: N_2  and  C_15
    4  A    between atoms: C_3  and  O_5
    5  A    between atoms: C_3  and  C_13
    6  A    between atoms: C_3  and  C_27
    7  A    between atoms: O_5  and  C_60
    8  A    between atoms: C_8  and  C_23
    9  A    between atoms: C_9  and  N_17
   10  A    between atoms: C_9  and  C_46
   11  A    between atoms: C_14  and  C_20
   12  A    between atoms: C_14  and  C_56
   13  A    between atoms: C_15  and  C_69
   14  A    between atoms: C_16  and  C_32
   15  A    between atoms: C_20  and  C_24
   16  A    between atoms: C_21  and  C_23
   17  A    between atoms: C_21  and  C_38
   18  A    between atoms: C_24  and  C_55
   19  A    between atoms: C_31  and  N_63
   20  A    between atoms: C_33  and  C_56
   21  A    between atoms: C_37  and  C_41
   22  A    between atoms: C_37  and  C_69
   23  A    between atoms: C_40  and  C_56
   24  A    between atoms: C_41  and  C_57
   25  A    between atoms: C_43  and  C_47
   26  A    between atoms: C_43  and  C_51
   27  A    between atoms: C_43  and  C_65
   28  A    between atoms: C_47  and  C_48
   29  A    between atoms: C_48  and  C_60
                            x       y       z     vdW  Elec       q    Type
                         _______ _______ _______ _____ _____    ______ ____

>  <TORSDO>
F 29

$$$$
=
 OpenBabel11062421463D

 70 73  0  0  1  0  0  0  0  0999 V2000
  196.2410  173.0720  141.2270 C   0  0  1  0  0  3  0  0  0  0  0  0
  192.9340  170.0810  142.4730 C   0  0  2  0  0  0  0  0  0  0  0  0
  194.7660  171.0870  140.9030 C   0  0  0  0  0  3  0  0  0  0  0  0
  193.1410  168.5850  142.6840 C   0  0  0  0  0  1  0  0  0  0  0  0
  194.9190  172.3390  141.3260 C   0  0  0  0  0  0  0  0  0  0  0  0
  193.8260  172.3580  143.5170 C   0  0  1  0  0  3  0  0  0  0  0  0
  193.4530  170.3550  141.0420 C   0  0  0  0  0  2  0  0  0  0  0  0
  193.6950  170.8150  143.5960 C   0  0  0  0  0  2  0  0  0  0  0  0
  193.8300  172.9790  142.1260 C   0  0  0  0  0  2  0  0  0  0  0  0
  191.8970  172.4140  144.9850 O   0  0  0  0  0  1  0  0  0  0  0  0
  192.9660  173.1660  144.4830 C   0  0  1  0  0  3  0  0  0  0  0  0
  193.7680  173.8880  145.5890 C   0  0  0  0  0  0  0  0  0  0  0  0
  195.0600  173.1250  145.8450 C   0  0  0  0  0  1  0  0  0  0  0  0
  194.1470  175.2920  145.1300 C   0  0  0  0  0  1  0  0  0  0  0  0
  193.0080  173.9630  146.9230 C   0  0  0  0  0  2  0  0  0  0  0  0
  192.2160  175.2530  147.0820 C   0  0  0  0  0  2  0  0  0  0  0  0
  190.8370  174.9320  147.3950 N   0  0  0  0  0  2  0  0  0  0  0  0
  190.1910  177.2940  147.2530 O   0  0  0  0  0  0  0  0  0  0  0  0
  189.8440  175.9570  147.4440 C   0  0  0  0  0  0  0  0  0  0  0  0
  188.6400  175.6530  147.6550 O   0  0  0  0  0  1  0  0  0  0  0  0
  191.4370  170.4370  142.5210 C   0  0  0  0  0  2  0  0  0  0  0  0
  190.8550  170.9960  141.2160 C   0  0  0  0  0  2  0  0  0  0  0  0
  189.7510  172.3540  142.9500 C   0  0  0  0  0  1  0  0  0  0  0  0
  190.1270  172.2990  141.4880 C   0  0  0  0  0  2  0  0  0  0  0  0
  196.4310  173.7390  139.8600 C   0  0  0  0  0  2  0  0  0  0  0  0
  197.3310  172.9350  138.9210 C   0  0  1  0  0  3  0  0  0  0  0  0
  197.9410  171.8740  139.6080 O   0  0  0  0  0  1  0  0  0  0  0  0
  196.4750  172.3970  137.7900 C   0  0  0  0  0  2  0  0  0  0  0  0
  195.2150  173.0030  137.8300 O   0  0  0  0  0  0  0  0  0  0  0  0
  194.6370  172.7860  136.5680 C   0  0  2  0  0  3  0  0  0  0  0  0
  192.4050  175.6690  136.1210 C   0  0  0  0  0  2  0  0  0  0  0  0
  194.1540  174.1020  135.9380 C   0  0  2  0  0  3  0  0  0  0  0  0
  193.5000  175.0470  136.9210 C   0  0  0  0  0  2  0  0  0  0  0  0
  193.2790  173.8280  134.8630 O   0  0  0  0  0  0  0  0  0  0  0  0
  192.1230  174.6170  135.0780 C   0  0  0  0  0  2  0  0  0  0  0  0
  193.5190  171.7260  136.6310 C   0  0  2  0  0  3  0  0  0  0  0  0
  193.2240  171.4270  137.9480 F   0  0  0  0  0  0  0  0  0  0  0  0
  193.9160  170.5170  135.9290 N   0  0  0  0  0  1  0  0  0  0  0  0
  196.5720  173.9880  142.4070 C   0  0  0  0  0  2  0  0  0  0  0  0
  196.3570  175.4630  142.0870 C   0  0  0  0  0  2  0  0  0  0  0  0
  194.8620  175.7020  142.1220 C   0  0  0  0  0  2  0  0  0  0  0  0
  194.5050  177.1290  141.6660 C   0  0  0  0  0  2  0  0  0  0  0  0
  190.9970  177.0060  142.8510 N   0  0  0  0  0  0  0  0  0  0  0  0
  185.1920  177.4690  141.5290 C   0  0  0  0  0  1  0  0  0  0  0  0
  193.0650  177.3320  141.7160 N   0  0  0  0  0  0  0  0  0  0  0  0
  188.8750  176.2790  143.2060 C   0  0  0  0  0  0  0  0  0  0  0  0
  186.3950  176.5690  141.7500 C   0  0  1  0  0  3  0  0  0  0  0  0
  190.1660  177.5680  141.8710 N   0  0  0  0  0  0  0  0  0  0  0  0
  187.7130  177.1550  141.1640 C   0  0  1  0  0  3  0  0  0  0  0  0
  188.8590  177.0770  142.1450 C   0  0  0  0  0  0  0  0  0  0  0  0
  190.2390  176.1780  143.7730 C   0  0  0  0  0  3  0  0  0  0  0  0
  186.4360  175.9080  143.1560 C   0  0  1  0  0  3  0  0  0  0  0  0
  192.4010  176.8300  142.7070 C   0  0  0  0  0  3  0  0  0  0  0  0
  187.7990  175.2890  143.4620 C   0  0  0  0  0  2  0  0  0  0  0  0
  188.1320  175.0080  139.8130 C   0  0  0  0  0  0  0  0  0  0  0  0
  188.1140  176.4290  139.9630 N   0  0  0  0  0  2  0  0  0  0  0  0
  187.7520  174.2610  140.7550 O   0  0  0  0  0  0  0  0  0  0  0  0
  188.3490  172.9210  138.5370 C   0  0  0  0  0  1  0  0  0  0  0  0
  188.5650  174.4270  138.5090 C   0  0  0  0  0  3  0  0  0  0  0  0
  187.7880  175.0230  137.3460 C   0  0  0  0  0  1  0  0  0  0  0  0
  185.9460  176.8080  144.3030 C   0  0  0  0  0  2  0  0  0  0  0  0
  186.9500  176.8580  145.4500 C   0  0  0  0  0  2  0  0  0  0  0  0
  186.9960  178.2550  146.0610 C   0  0  0  0  0  2  0  0  0  0  0  0
  185.5320  177.3630  147.9500 C   0  0  0  0  0  1  0  0  0  0  0  0
  185.8360  178.5610  147.0350 C   0  0  2  0  0  0  0  0  0  0  0  0
  184.6970  179.4300  145.0770 O   0  0  0  0  0  0  0  0  0  0  0  0
  184.5920  178.9210  146.2360 C   0  0  0  0  0  0  0  0  0  0  0  0
  183.3220  178.6630  146.7580 O   0  0  0  0  0  1  0  0  0  0  0  0
  187.5380  179.4250  148.7840 C   0  0  0  0  0  1  0  0  0  0  0  0
  186.2990  179.7300  147.9220 C   0  0  0  0  0  2  0  0  0  0  0  0
  1 25  1  6  0  0  0
  1  5  1  0  0  0  0
  1 39  1  0  0  0  0
  2 21  1  0  0  0  0
  2  4  1  1  0  0  0
  2  8  1  0  0  0  0
  3  7  1  0  0  0  0
  3  5  2  0  0  0  0
  5  9  1  0  0  0  0
  6  8  1  0  0  0  0
  6 11  1  1  0  0  0
  7  2  1  0  0  0  0
  9  6  1  0  0  0  0
 11 10  1  1  0  0  0
 11 12  1  0  0  0  0
 12 13  1  0  0  0  0
 12 15  1  0  0  0  0
 14 12  1  0  0  0  0
 15 16  1  0  0  0  0
 16 17  1  0  0  0  0
 17 19  1  0  0  0  0
 18 19  2  0  0  0  0
 19 20  1  0  0  0  0
 22 24  1  0  0  0  0
 22 21  1  0  0  0  0
 24 23  1  0  0  0  0
 26 27  1  1  0  0  0
 26 25  1  0  0  0  0
 28 29  1  0  0  0  0
 28 26  1  0  0  0  0
 30 36  1  0  0  0  0
 30 29  1  1  0  0  0
 31 33  1  0  0  0  0
 32 30  1  1  0  0  0
 32 33  1  0  0  0  0
 34 35  1  0  0  0  0
 34 32  1  0  0  0  0
 35 31  1  0  0  0  0
 36 38  1  6  0  0  0
 36 37  1  0  0  0  0
 40 41  1  0  0  0  0
 40 39  1  0  0  0  0
 42 45  1  0  0  0  0
 42 41  1  0  0  0  0
 43 51  1  0  0  0  0
 45 53  2  0  0  0  0
 46 54  1  0  0  0  0
 46 51  2  0  0  0  0
 47 44  1  1  0  0  0
 47 52  1  0  0  0  0
 48 50  2  0  0  0  0
 48 43  1  0  0  0  0
 49 56  1  6  0  0  0
 49 47  1  0  0  0  0
 49 50  1  0  0  0  0
 50 46  1  0  0  0  0
 52 54  1  0  0  0  0
 52 61  1  1  0  0  0
 53 43  1  0  0  0  0
 55 56  1  0  0  0  0
 55 57  2  0  0  0  0
 59 58  1  0  0  0  0
 59 55  1  0  0  0  0
 60 59  1  0  0  0  0
 61 62  1  0  0  0  0
 62 63  1  0  0  0  0
 63 65  1  0  0  0  0
 65 70  1  0  0  0  0
 65 64  1  1  0  0  0
 66 67  2  0  0  0  0
 67 68  1  0  0  0  0
 67 65  1  0  0  0  0
 70 69  1  0  0  0  0
M  END
>  <MODEL>
6

>  <REMARK>
 VINA RESULT:      -3.2      2.452      5.007
  Name = 
  29 active torsions:
  status: ('A' for Active; 'I' for Inactive)
    1  A    between atoms: C_1  and  C_46
    2  A    between atoms: C_1  and  C_65
    3  A    between atoms: N_2  and  C_15
    4  A    between atoms: C_3  and  O_5
    5  A    between atoms: C_3  and  C_13
    6  A    between atoms: C_3  and  C_27
    7  A    between atoms: O_5  and  C_60
    8  A    between atoms: C_8  and  C_23
    9  A    between atoms: C_9  and  N_17
   10  A    between atoms: C_9  and  C_46
   11  A    between atoms: C_14  and  C_20
   12  A    between atoms: C_14  and  C_56
   13  A    between atoms: C_15  and  C_69
   14  A    between atoms: C_16  and  C_32
   15  A    between atoms: C_20  and  C_24
   16  A    between atoms: C_21  and  C_23
   17  A    between atoms: C_21  and  C_38
   18  A    between atoms: C_24  and  C_55
   19  A    between atoms: C_31  and  N_63
   20  A    between atoms: C_33  and  C_56
   21  A    between atoms: C_37  and  C_41
   22  A    between atoms: C_37  and  C_69
   23  A    between atoms: C_40  and  C_56
   24  A    between atoms: C_41  and  C_57
   25  A    between atoms: C_43  and  C_47
   26  A    between atoms: C_43  and  C_51
   27  A    between atoms: C_43  and  C_65
   28  A    between atoms: C_47  and  C_48
   29  A    between atoms: C_48  and  C_60
                            x       y       z     vdW  Elec       q    Type
                         _______ _______ _______ _____ _____    ______ ____

>  <TORSDO>
F 29

$$$$
=
 OpenBabel11062421463D

 70 73  0  0  1  0  0  0  0  0999 V2000
  192.2730  169.4940  141.1490 C   0  0  1  0  0  3  0  0  0  0  0  0
  196.6080  169.1560  139.5590 C   0  0  2  0  0  0  0  0  0  0  0  0
  194.4100  168.2950  140.6800 C   0  0  0  0  0  3  0  0  0  0  0  0
  197.0580  168.2330  138.4310 C   0  0  0  0  0  1  0  0  0  0  0  0
  193.7830  169.3980  141.0810 C   0  0  0  0  0  0  0  0  0  0  0  0
  194.9350  171.1980  139.8840 C   0  0  1  0  0  3  0  0  0  0  0  0
  195.9140  168.2250  140.5800 C   0  0  0  0  0  2  0  0  0  0  0  0
  195.7000  170.2370  138.9370 C   0  0  0  0  0  2  0  0  0  0  0  0
  194.5670  170.6590  141.2600 C   0  0  0  0  0  2  0  0  0  0  0  0
  196.6520  172.7920  139.2630 O   0  0  0  0  0  1  0  0  0  0  0  0
  195.4540  172.6290  139.9680 C   0  0  1  0  0  3  0  0  0  0  0  0
  194.3980  173.7030  139.6220 C   0  0  0  0  0  0  0  0  0  0  0  0
  193.2130  173.0350  138.9420 C   0  0  0  0  0  1  0  0  0  0  0  0
  193.8840  174.3620  140.8980 C   0  0  0  0  0  1  0  0  0  0  0  0
  194.9350  174.7760  138.6600 C   0  0  0  0  0  2  0  0  0  0  0  0
  193.9800  175.0770  137.5150 C   0  0  0  0  0  2  0  0  0  0  0  0
  194.5860  176.0550  136.6320 N   0  0  0  0  0  2  0  0  0  0  0  0
  195.2810  174.3000  135.0660 O   0  0  0  0  0  1  0  0  0  0  0  0
  195.1990  175.6490  135.4070 C   0  0  0  0  0  0  0  0  0  0  0  0
  195.6650  176.5160  134.6220 O   0  0  0  0  0  0  0  0  0  0  0  0
  197.8210  169.8090  140.2460 C   0  0  0  0  0  2  0  0  0  0  0  0
  197.8870  169.6280  141.7680 C   0  0  0  0  0  2  0  0  0  0  0  0
  197.0160  170.7660  143.7730 C   0  0  0  0  0  1  0  0  0  0  0  0
  197.7320  170.9700  142.4580 C   0  0  0  0  0  2  0  0  0  0  0  0
  191.6130  169.1840  139.8010 C   0  0  0  0  0  2  0  0  0  0  0  0
  190.6440  170.2730  139.3420 C   0  0  1  0  0  3  0  0  0  0  0  0
  189.4150  169.7120  138.9580 O   0  0  0  0  0  1  0  0  0  0  0  0
  190.4360  171.2380  140.4950 C   0  0  0  0  0  2  0  0  0  0  0  0
  190.6080  172.5500  140.0430 O   0  0  0  0  0  0  0  0  0  0  0  0
  189.6350  172.7520  139.0510 C   0  0  2  0  0  3  0  0  0  0  0  0
  189.8020  174.0140  135.6040 C   0  0  0  0  0  2  0  0  0  0  0  0
  190.1840  173.5980  137.8910 C   0  0  2  0  0  3  0  0  0  0  0  0
  189.1230  174.0850  136.9310 C   0  0  0  0  0  2  0  0  0  0  0  0
  191.1790  172.8740  137.1970 O   0  0  0  0  0  0  0  0  0  0  0  0
  190.8390  172.9420  135.8240 C   0  0  0  0  0  2  0  0  0  0  0  0
  188.3390  173.3440  139.6400 C   0  0  2  0  0  3  0  0  0  0  0  0
  188.4370  173.4220  141.0170 F   0  0  0  0  0  0  0  0  0  0  0  0
  187.1910  172.5320  139.2740 N   0  0  0  0  0  1  0  0  0  0  0  0
  191.6230  168.7710  142.3300 C   0  0  0  0  0  2  0  0  0  0  0  0
  191.8880  169.4620  143.6630 C   0  0  0  0  0  2  0  0  0  0  0  0
  193.0890  168.7750  144.2790 C   0  0  0  0  0  2  0  0  0  0  0  0
  194.0810  169.7920  144.8730 C   0  0  0  0  0  2  0  0  0  0  0  0
  191.6260  172.5400  144.4940 N   0  0  0  0  0  0  0  0  0  0  0  0
  190.5330  178.4070  144.6840 C   0  0  0  0  0  1  0  0  0  0  0  0
  193.4570  171.1010  144.9910 N   0  0  0  0  0  0  0  0  0  0  0  0
  190.5150  174.3230  143.6310 C   0  0  0  0  0  0  0  0  0  0  0  0
  190.8600  177.1850  143.8450 C   0  0  1  0  0  3  0  0  0  0  0  0
  192.1620  173.7090  145.0520 N   0  0  0  0  0  0  0  0  0  0  0  0
  191.8760  176.2260  144.5330 C   0  0  1  0  0  3  0  0  0  0  0  0
  191.4300  174.7840  144.4750 C   0  0  0  0  0  0  0  0  0  0  0  0
  190.5370  172.8440  143.5820 C   0  0  0  0  0  3  0  0  0  0  0  0
  189.6290  176.5690  143.1230 C   0  0  1  0  0  3  0  0  0  0  0  0
  192.3200  171.3010  144.4060 C   0  0  0  0  0  3  0  0  0  0  0  0
  189.9230  175.1760  142.5700 C   0  0  0  0  0  2  0  0  0  0  0  0
  194.4380  176.0120  144.5020 C   0  0  0  0  0  0  0  0  0  0  0  0
  193.1830  176.3070  143.8870 N   0  0  0  0  0  2  0  0  0  0  0  0
  194.4870  175.6140  145.6980 O   0  0  0  0  0  0  0  0  0  0  0  0
  196.4720  177.3500  144.1750 C   0  0  0  0  0  1  0  0  0  0  0  0
  195.6850  176.1400  143.6940 C   0  0  0  0  0  3  0  0  0  0  0  0
  196.5550  174.8980  143.8090 C   0  0  0  0  0  1  0  0  0  0  0  0
  188.3250  176.5980  143.9400 C   0  0  0  0  0  2  0  0  0  0  0  0
  187.0980  176.4380  143.0490 C   0  0  0  0  0  2  0  0  0  0  0  0
  186.5860  177.8010  142.5930 C   0  0  0  0  0  2  0  0  0  0  0  0
  184.8940  177.2980  144.4350 C   0  0  0  0  0  1  0  0  0  0  0  0
  185.3190  178.2840  143.3330 C   0  0  2  0  0  0  0  0  0  0  0  0
  182.9860  178.5700  142.7340 O   0  0  0  0  0  1  0  0  0  0  0  0
  184.1860  178.4500  142.3320 C   0  0  0  0  0  0  0  0  0  0  0  0
  184.4580  178.5060  140.9640 O   0  0  0  0  0  0  0  0  0  0  0  0
  184.9870  179.8590  145.3610 C   0  0  0  0  0  1  0  0  0  0  0  0
  185.6810  179.6190  144.0080 C   0  0  0  0  0  2  0  0  0  0  0  0
  1 25  1  6  0  0  0
  1 39  1  0  0  0  0
  2  4  1  6  0  0  0
  2 21  1  0  0  0  0
  2  7  1  0  0  0  0
  3  5  2  0  0  0  0
  5  1  1  0  0  0  0
  5  9  1  0  0  0  0
  6 11  1  1  0  0  0
  6  9  1  0  0  0  0
  7  3  1  0  0  0  0
  8  2  1  0  0  0  0
  8  6  1  0  0  0  0
 11 10  1  6  0  0  0
 12 11  1  0  0  0  0
 12 14  1  0  0  0  0
 13 12  1  0  0  0  0
 15 12  1  0  0  0  0
 16 15  1  0  0  0  0
 17 16  1  0  0  0  0
 18 19  1  0  0  0  0
 19 17  1  0  0  0  0
 20 19  2  0  0  0  0
 21 22  1  0  0  0  0
 22 24  1  0  0  0  0
 24 23  1  0  0  0  0
 26 27  1  1  0  0  0
 26 25  1  0  0  0  0
 26 28  1  0  0  0  0
 29 28  1  0  0  0  0
 30 36  1  0  0  0  0
 30 29  1  1  0  0  0
 31 35  1  0  0  0  0
 31 33  1  0  0  0  0
 32 30  1  1  0  0  0
 33 32  1  0  0  0  0
 34 32  1  0  0  0  0
 35 34  1  0  0  0  0
 36 38  1  1  0  0  0
 36 37  1  0  0  0  0
 39 40  1  0  0  0  0
 40 41  1  0  0  0  0
 41 42  1  0  0  0  0
 42 45  1  0  0  0  0
 43 48  1  0  0  0  0
 46 50  1  0  0  0  0
 47 49  1  0  0  0  0
 47 44  1  1  0  0  0
 49 56  1  6  0  0  0
 50 49  1  0  0  0  0
 50 48  2  0  0  0  0
 51 46  2  0  0  0  0
 51 43  1  0  0  0  0
 52 47  1  0  0  0  0
 52 61  1  1  0  0  0
 53 43  1  0  0  0  0
 53 45  2  0  0  0  0
 54 52  1  0  0  0  0
 54 46  1  0  0  0  0
 55 57  2  0  0  0  0
 56 55  1  0  0  0  0
 59 60  1  0  0  0  0
 59 58  1  0  0  0  0
 59 55  1  0  0  0  0
 62 61  1  0  0  0  0
 63 62  1  0  0  0  0
 63 65  1  0  0  0  0
 65 70  1  0  0  0  0
 65 64  1  1  0  0  0
 67 66  1  0  0  0  0
 67 65  1  0  0  0  0
 68 67  2  0  0  0  0
 70 69  1  0  0  0  0
M  END
>  <MODEL>
7

>  <REMARK>
 VINA RESULT:      -3.1      2.908      7.288
  Name = 
  29 active torsions:
  status: ('A' for Active; 'I' for Inactive)
    1  A    between atoms: C_1  and  C_46
    2  A    between atoms: C_1  and  C_65
    3  A    between atoms: N_2  and  C_15
    4  A    between atoms: C_3  and  O_5
    5  A    between atoms: C_3  and  C_13
    6  A    between atoms: C_3  and  C_27
    7  A    between atoms: O_5  and  C_60
    8  A    between atoms: C_8  and  C_23
    9  A    between atoms: C_9  and  N_17
   10  A    between atoms: C_9  and  C_46
   11  A    between atoms: C_14  and  C_20
   12  A    between atoms: C_14  and  C_56
   13  A    between atoms: C_15  and  C_69
   14  A    between atoms: C_16  and  C_32
   15  A    between atoms: C_20  and  C_24
   16  A    between atoms: C_21  and  C_23
   17  A    between atoms: C_21  and  C_38
   18  A    between atoms: C_24  and  C_55
   19  A    between atoms: C_31  and  N_63
   20  A    between atoms: C_33  and  C_56
   21  A    between atoms: C_37  and  C_41
   22  A    between atoms: C_37  and  C_69
   23  A    between atoms: C_40  and  C_56
   24  A    between atoms: C_41  and  C_57
   25  A    between atoms: C_43  and  C_47
   26  A    between atoms: C_43  and  C_51
   27  A    between atoms: C_43  and  C_65
   28  A    between atoms: C_47  and  C_48
   29  A    between atoms: C_48  and  C_60
                            x       y       z     vdW  Elec       q    Type
                         _______ _______ _______ _____ _____    ______ ____

>  <TORSDO>
F 29

$$$$
=
 OpenBabel11062421463D

 70 73  0  0  1  0  0  0  0  0999 V2000
  192.3310  169.4060  140.9050 C   0  0  1  0  0  3  0  0  0  0  0  0
  196.3780  169.2250  138.6620 C   0  0  2  0  0  0  0  0  0  0  0  0
  194.4890  168.3440  140.2390 C   0  0  0  0  0  3  0  0  0  0  0  0
  196.7470  168.1910  137.6020 C   0  0  0  0  0  1  0  0  0  0  0  0
  193.8140  169.4350  140.5950 C   0  0  0  0  0  0  0  0  0  0  0  0
  194.5610  171.1360  139.0000 C   0  0  1  0  0  3  0  0  0  0  0  0
  195.9580  168.3940  139.8970 C   0  0  0  0  0  2  0  0  0  0  0  0
  195.2710  170.1200  138.0690 C   0  0  0  0  0  2  0  0  0  0  0  0
  194.4720  170.7720  140.4760 C   0  0  0  0  0  2  0  0  0  0  0  0
  196.2290  172.7610  138.3290 O   0  0  0  0  0  1  0  0  0  0  0  0
  194.9240  172.6050  138.8110 C   0  0  1  0  0  3  0  0  0  0  0  0
  193.8830  173.4140  138.0070 C   0  0  0  0  0  0  0  0  0  0  0  0
  192.5420  172.6970  138.0650 C   0  0  0  0  0  1  0  0  0  0  0  0
  193.6940  174.7920  138.6330 C   0  0  0  0  0  1  0  0  0  0  0  0
  194.2600  173.5630  136.5240 C   0  0  0  0  0  2  0  0  0  0  0  0
  194.2670  175.0110  136.0560 C   0  0  0  0  0  2  0  0  0  0  0  0
  195.5280  175.2950  135.3990 N   0  0  0  0  0  2  0  0  0  0  0  0
  196.6330  175.6850  137.5540 O   0  0  0  0  0  1  0  0  0  0  0  0
  196.6960  175.5960  136.1640 C   0  0  0  0  0  0  0  0  0  0  0  0
  197.7970  175.7800  135.5810 O   0  0  0  0  0  0  0  0  0  0  0  0
  197.6030  170.0740  139.0450 C   0  0  0  0  0  2  0  0  0  0  0  0
  197.9320  170.1110  140.5430 C   0  0  0  0  0  2  0  0  0  0  0  0
  197.3020  171.1740  142.6750 C   0  0  0  0  0  1  0  0  0  0  0  0
  197.3420  171.3560  141.1750 C   0  0  0  0  0  2  0  0  0  0  0  0
  191.5040  168.8940  139.7200 C   0  0  0  0  0  2  0  0  0  0  0  0
  190.5080  169.9280  139.1930 C   0  0  1  0  0  3  0  0  0  0  0  0
  190.9540  171.2300  139.4700 O   0  0  0  0  0  1  0  0  0  0  0  0
  190.3720  169.7320  137.6950 C   0  0  0  0  0  2  0  0  0  0  0  0
  189.2000  170.3520  137.2480 O   0  0  0  0  0  0  0  0  0  0  0  0
  189.5970  171.5740  136.6800 C   0  0  2  0  0  3  0  0  0  0  0  0
  189.1360  174.0320  139.3720 C   0  0  0  0  0  2  0  0  0  0  0  0
  188.9390  172.7640  137.3960 C   0  0  2  0  0  3  0  0  0  0  0  0
  189.9110  173.6330  138.1600 C   0  0  0  0  0  2  0  0  0  0  0  0
  187.9140  172.3040  138.2530 O   0  0  0  0  0  0  0  0  0  0  0  0
  188.1470  172.9020  139.5140 C   0  0  0  0  0  2  0  0  0  0  0  0
  189.3480  171.6000  135.1590 C   0  0  2  0  0  3  0  0  0  0  0  0
  190.2000  170.7140  134.5250 F   0  0  0  0  0  0  0  0  0  0  0  0
  189.5460  172.9380  134.6280 N   0  0  0  0  0  1  0  0  0  0  0  0
  191.9530  168.7620  142.2400 C   0  0  0  0  0  2  0  0  0  0  0  0
  192.2100  169.6800  143.4310 C   0  0  0  0  0  2  0  0  0  0  0  0
  193.4690  169.1780  144.1040 C   0  0  0  0  0  2  0  0  0  0  0  0
  194.6090  170.2110  144.0200 C   0  0  0  0  0  2  0  0  0  0  0  0
  192.2200  173.0230  144.3590 N   0  0  0  0  0  0  0  0  0  0  0  0
  191.3090  178.9230  144.2730 C   0  0  0  0  0  1  0  0  0  0  0  0
  194.0910  171.5550  144.2250 N   0  0  0  0  0  0  0  0  0  0  0  0
  190.8520  174.7540  143.8220 C   0  0  0  0  0  0  0  0  0  0  0  0
  191.2580  177.6010  143.5280 C   0  0  1  0  0  3  0  0  0  0  0  0
  192.9410  174.2170  144.5000 N   0  0  0  0  0  0  0  0  0  0  0  0
  192.4670  176.6730  143.8450 C   0  0  1  0  0  3  0  0  0  0  0  0
  192.0360  175.2570  144.1520 C   0  0  0  0  0  0  0  0  0  0  0  0
  190.8500  173.2790  143.9480 C   0  0  0  0  0  3  0  0  0  0  0  0
  189.8370  176.9730  143.4580 C   0  0  1  0  0  3  0  0  0  0  0  0
  192.8140  171.7480  144.1430 C   0  0  0  0  0  3  0  0  0  0  0  0
  189.8730  175.5150  143.0050 C   0  0  0  0  0  2  0  0  0  0  0  0
  194.8130  176.6050  142.7970 C   0  0  0  0  0  0  0  0  0  0  0  0
  193.3870  176.6160  142.7140 N   0  0  0  0  0  2  0  0  0  0  0  0
  195.3890  176.6130  143.9190 O   0  0  0  0  0  0  0  0  0  0  0  0
  196.8190  177.4490  141.6590 C   0  0  0  0  0  1  0  0  0  0  0  0
  195.6080  176.5360  141.5370 C   0  0  0  0  0  3  0  0  0  0  0  0
  196.0760  175.1190  141.2470 C   0  0  0  0  0  1  0  0  0  0  0  0
  188.9910  177.1570  144.7300 C   0  0  0  0  0  2  0  0  0  0  0  0
  187.6560  176.4270  144.6290 C   0  0  0  0  0  2  0  0  0  0  0  0
  186.6170  177.3020  143.9360 C   0  0  0  0  0  2  0  0  0  0  0  0
  184.4000  177.5350  145.1760 C   0  0  0  0  0  1  0  0  0  0  0  0
  185.7730  178.1690  144.8960 C   0  0  2  0  0  0  0  0  0  0  0  0
  184.4940  180.1840  144.4590 O   0  0  0  0  0  1  0  0  0  0  0  0
  185.5820  179.5510  144.2890 C   0  0  0  0  0  0  0  0  0  0  0  0
  186.6160  180.1500  143.5660 O   0  0  0  0  0  0  0  0  0  0  0  0
  185.7560  178.8690  147.3890 C   0  0  0  0  0  1  0  0  0  0  0  0
  186.5440  178.2360  146.2270 C   0  0  0  0  0  2  0  0  0  0  0  0
  1 25  1  6  0  0  0
  1 39  1  0  0  0  0
  2  4  1  6  0  0  0
  2 21  1  0  0  0  0
  2  7  1  0  0  0  0
  3  5  2  0  0  0  0
  5  1  1  0  0  0  0
  6 11  1  1  0  0  0
  6  9  1  0  0  0  0
  7  3  1  0  0  0  0
  8  2  1  0  0  0  0
  8  6  1  0  0  0  0
  9  5  1  0  0  0  0
 11 10  1  6  0  0  0
 12 13  1  0  0  0  0
 12 14  1  0  0  0  0
 12 11  1  0  0  0  0
 15 12  1  0  0  0  0
 16 15  1  0  0  0  0
 17 16  1  0  0  0  0
 17 19  1  0  0  0  0
 19 18  1  0  0  0  0
 20 19  2  0  0  0  0
 21 22  1  0  0  0  0
 22 24  1  0  0  0  0
 24 23  1  0  0  0  0
 26 27  1  6  0  0  0
 26 25  1  0  0  0  0
 28 26  1  0  0  0  0
 29 28  1  0  0  0  0
 30 29  1  1  0  0  0
 31 35  1  0  0  0  0
 32 30  1  1  0  0  0
 32 33  1  0  0  0  0
 32 34  1  0  0  0  0
 33 31  1  0  0  0  0
 34 35  1  0  0  0  0
 36 37  1  6  0  0  0
 36 30  1  0  0  0  0
 38 36  1  0  0  0  0
 39 40  1  0  0  0  0
 40 41  1  0  0  0  0
 42 41  1  0  0  0  0
 42 45  1  0  0  0  0
 43 48  1  0  0  0  0
 46 51  2  0  0  0  0
 46 50  1  0  0  0  0
 47 49  1  0  0  0  0
 47 44  1  1  0  0  0
 49 56  1  6  0  0  0
 49 50  1  0  0  0  0
 50 48  2  0  0  0  0
 51 43  1  0  0  0  0
 52 47  1  0  0  0  0
 52 61  1  1  0  0  0
 53 45  2  0  0  0  0
 53 43  1  0  0  0  0
 54 52  1  0  0  0  0
 54 46  1  0  0  0  0
 55 57  2  0  0  0  0
 56 55  1  0  0  0  0
 59 58  1  0  0  0  0
 59 55  1  0  0  0  0
 60 59  1  0  0  0  0
 62 61  1  0  0  0  0
 63 62  1  0  0  0  0
 63 65  1  0  0  0  0
 65 64  1  1  0  0  0
 65 70  1  0  0  0  0
 67 66  1  0  0  0  0
 67 65  1  0  0  0  0
 68 67  2  0  0  0  0
 70 69  1  0  0  0  0
M  END
>  <MODEL>
8

>  <REMARK>
 VINA RESULT:      -3.0      3.138      7.114
  Name = 
  29 active torsions:
  status: ('A' for Active; 'I' for Inactive)
    1  A    between atoms: C_1  and  C_46
    2  A    between atoms: C_1  and  C_65
    3  A    between atoms: N_2  and  C_15
    4  A    between atoms: C_3  and  O_5
    5  A    between atoms: C_3  and  C_13
    6  A    between atoms: C_3  and  C_27
    7  A    between atoms: O_5  and  C_60
    8  A    between atoms: C_8  and  C_23
    9  A    between atoms: C_9  and  N_17
   10  A    between atoms: C_9  and  C_46
   11  A    between atoms: C_14  and  C_20
   12  A    between atoms: C_14  and  C_56
   13  A    between atoms: C_15  and  C_69
   14  A    between atoms: C_16  and  C_32
   15  A    between atoms: C_20  and  C_24
   16  A    between atoms: C_21  and  C_23
   17  A    between atoms: C_21  and  C_38
   18  A    between atoms: C_24  and  C_55
   19  A    between atoms: C_31  and  N_63
   20  A    between atoms: C_33  and  C_56
   21  A    between atoms: C_37  and  C_41
   22  A    between atoms: C_37  and  C_69
   23  A    between atoms: C_40  and  C_56
   24  A    between atoms: C_41  and  C_57
   25  A    between atoms: C_43  and  C_47
   26  A    between atoms: C_43  and  C_51
   27  A    between atoms: C_43  and  C_65
   28  A    between atoms: C_47  and  C_48
   29  A    between atoms: C_48  and  C_60
                            x       y       z     vdW  Elec       q    Type
                         _______ _______ _______ _____ _____    ______ ____

>  <TORSDO>
F 29

$$$$
=
 OpenBabel11062421463D

 70 73  0  0  1  0  0  0  0  0999 V2000
  190.1620  176.3550  141.9700 C   0  0  1  0  0  3  0  0  0  0  0  0
  189.7030  172.0190  140.4160 C   0  0  2  0  0  0  0  0  0  0  0  0
  189.3410  174.0020  142.0790 C   0  0  0  0  0  3  0  0  0  0  0  0
  188.3800  171.3590  140.0380 C   0  0  0  0  0  1  0  0  0  0  0  0
  190.3200  174.8590  141.7970 C   0  0  0  0  0  0  0  0  0  0  0  0
  191.1620  174.0970  139.6270 C   0  0  1  0  0  3  0  0  0  0  0  0
  189.4980  172.5160  141.8650 C   0  0  0  0  0  2  0  0  0  0  0  0
  189.9800  173.1250  139.3780 C   0  0  0  0  0  2  0  0  0  0  0  0
  191.5360  174.3680  141.0790 C   0  0  0  0  0  2  0  0  0  0  0  0
  193.1110  172.7470  139.1210 O   0  0  0  0  0  1  0  0  0  0  0  0
  192.4020  173.9000  138.7620 C   0  0  1  0  0  3  0  0  0  0  0  0
  192.1330  173.9940  137.2430 C   0  0  0  0  0  0  0  0  0  0  0  0
  192.2920  172.6150  136.6230 C   0  0  0  0  0  1  0  0  0  0  0  0
  190.6980  174.4470  136.9940 C   0  0  0  0  0  1  0  0  0  0  0  0
  193.1100  174.9380  136.5230 C   0  0  0  0  0  2  0  0  0  0  0  0
  193.8500  174.2640  135.3780 C   0  0  0  0  0  2  0  0  0  0  0  0
  195.2480  174.1140  135.7340 N   0  0  0  0  0  2  0  0  0  0  0  0
  195.3700  171.9460  134.5940 O   0  0  0  0  0  0  0  0  0  0  0  0
  195.9900  172.9710  135.3080 C   0  0  0  0  0  0  0  0  0  0  0  0
  197.2180  172.8860  135.5730 O   0  0  0  0  0  1  0  0  0  0  0  0
  190.8460  170.9880  140.4150 C   0  0  0  0  0  2  0  0  0  0  0  0
  190.7400  169.8940  139.3440 C   0  0  0  0  0  2  0  0  0  0  0  0
  190.6180  169.5450  136.9080 C   0  0  0  0  0  1  0  0  0  0  0  0
  191.1580  170.4460  137.9950 C   0  0  0  0  0  2  0  0  0  0  0  0
  188.6960  176.7650  142.1490 C   0  0  0  0  0  2  0  0  0  0  0  0
  188.2270  177.7830  141.1080 C   0  0  1  0  0  3  0  0  0  0  0  0
  187.3960  177.1700  140.1570 O   0  0  0  0  0  1  0  0  0  0  0  0
  187.4690  178.8820  141.8290 C   0  0  0  0  0  2  0  0  0  0  0  0
  187.1780  178.4700  143.1340 O   0  0  0  0  0  0  0  0  0  0  0  0
  185.8460  178.8480  143.3740 C   0  0  2  0  0  3  0  0  0  0  0  0
  184.7920  178.1370  146.8210 C   0  0  0  0  0  2  0  0  0  0  0  0
  185.6110  179.1560  144.8610 C   0  0  2  0  0  3  0  0  0  0  0  0
  185.8450  177.9750  145.7760 C   0  0  0  0  0  2  0  0  0  0  0  0
  184.3080  179.6700  145.0460 O   0  0  0  0  0  0  0  0  0  0  0  0
  183.7250  178.9160  146.0930 C   0  0  0  0  0  2  0  0  0  0  0  0
  184.8530  177.8010  142.8330 C   0  0  2  0  0  3  0  0  0  0  0  0
  185.4200  176.5410  142.8800 F   0  0  0  0  0  0  0  0  0  0  0  0
  184.4670  178.1160  141.4680 N   0  0  0  0  0  1  0  0  0  0  0  0
  191.1070  177.0000  142.9860 C   0  0  0  0  0  2  0  0  0  0  0  0
  190.3750  177.8700  144.0020 C   0  0  0  0  0  2  0  0  0  0  0  0
  189.4800  176.9470  144.8020 C   0  0  0  0  0  2  0  0  0  0  0  0
  190.2220  176.3400  146.0070 C   0  0  0  0  0  2  0  0  0  0  0  0
  193.4100  174.4550  145.9160 N   0  0  0  0  0  0  0  0  0  0  0  0
  197.4090  171.4350  142.6690 C   0  0  0  0  0  1  0  0  0  0  0  0
  191.2720  175.4410  145.5550 N   0  0  0  0  0  0  0  0  0  0  0  0
  195.5890  173.9380  145.5350 C   0  0  0  0  0  0  0  0  0  0  0  0
  196.9980  172.7500  143.3080 C   0  0  1  0  0  3  0  0  0  0  0  0
  193.4960  173.7640  144.6990 N   0  0  0  0  0  0  0  0  0  0  0  0
  195.4710  173.0310  143.2000 C   0  0  1  0  0  3  0  0  0  0  0  0
  194.8750  173.4710  144.5170 C   0  0  0  0  0  0  0  0  0  0  0  0
  194.7170  174.5890  146.5370 C   0  0  0  0  0  3  0  0  0  0  0  0
  197.7140  173.0440  144.6560 C   0  0  1  0  0  3  0  0  0  0  0  0
  192.3480  175.3330  146.2680 C   0  0  0  0  0  3  0  0  0  0  0  0
  197.0490  174.1840  145.4250 C   0  0  0  0  0  2  0  0  0  0  0  0
  195.6930  174.1220  140.8820 C   0  0  0  0  0  0  0  0  0  0  0  0
  195.2060  174.0840  142.2250 N   0  0  0  0  0  2  0  0  0  0  0  0
  196.3940  173.1760  140.4300 O   0  0  0  0  0  0  0  0  0  0  0  0
  194.9610  176.4660  140.8860 C   0  0  0  0  0  1  0  0  0  0  0  0
  195.3200  175.2740  140.0120 C   0  0  0  0  0  3  0  0  0  0  0  0
  196.4570  175.6610  139.0790 C   0  0  0  0  0  1  0  0  0  0  0  0
  197.9410  171.8100  145.5460 C   0  0  0  0  0  2  0  0  0  0  0  0
  196.8830  171.6990  146.6380 C   0  0  0  0  0  2  0  0  0  0  0  0
  196.6070  170.2360  146.9700 C   0  0  0  0  0  2  0  0  0  0  0  0
  194.6780  168.5670  146.9230 C   0  0  0  0  0  1  0  0  0  0  0  0
  195.4960  169.5880  146.1140 C   0  0  2  0  0  0  0  0  0  0  0  0
  197.3410  168.5310  144.9460 O   0  0  0  0  0  1  0  0  0  0  0  0
  196.1250  168.8990  144.9120 C   0  0  0  0  0  0  0  0  0  0  0  0
  195.3620  168.6370  143.7730 O   0  0  0  0  0  0  0  0  0  0  0  0
  193.2560  170.2460  144.9940 C   0  0  0  0  0  1  0  0  0  0  0  0
  194.5470  170.7220  145.6870 C   0  0  0  0  0  2  0  0  0  0  0  0
  1 25  1  1  0  0  0
  1 39  1  0  0  0  0
  2  4  1  6  0  0  0
  2  7  1  0  0  0  0
  5  1  1  0  0  0  0
  5  3  2  0  0  0  0
  6 11  1  6  0  0  0
  6  9  1  0  0  0  0
  7  3  1  0  0  0  0
  8  6  1  0  0  0  0
  8  2  1  0  0  0  0
  9  5  1  0  0  0  0
 11 10  1  6  0  0  0
 12 11  1  0  0  0  0
 13 12  1  0  0  0  0
 14 12  1  0  0  0  0
 15 12  1  0  0  0  0
 16 17  1  0  0  0  0
 16 15  1  0  0  0  0
 18 19  2  0  0  0  0
 19 20  1  0  0  0  0
 19 17  1  0  0  0  0
 21  2  1  0  0  0  0
 22 21  1  0  0  0  0
 23 24  1  0  0  0  0
 24 22  1  0  0  0  0
 26 27  1  6  0  0  0
 26 28  1  0  0  0  0
 26 25  1  0  0  0  0
 28 29  1  0  0  0  0
 30 29  1  1  0  0  0
 32 30  1  6  0  0  0
 32 34  1  0  0  0  0
 32 33  1  0  0  0  0
 33 31  1  0  0  0  0
 34 35  1  0  0  0  0
 35 31  1  0  0  0  0
 36 38  1  6  0  0  0
 36 37  1  0  0  0  0
 36 30  1  0  0  0  0
 39 40  1  0  0  0  0
 40 41  1  0  0  0  0
 41 42  1  0  0  0  0
 43 53  1  0  0  0  0
 43 51  1  0  0  0  0
 45 42  1  0  0  0  0
 45 53  2  0  0  0  0
 46 51  2  0  0  0  0
 47 44  1  1  0  0  0
 47 52  1  0  0  0  0
 48 43  1  0  0  0  0
 49 56  1  6  0  0  0
 49 47  1  0  0  0  0
 49 50  1  0  0  0  0
 50 48  2  0  0  0  0
 50 46  1  0  0  0  0
 52 54  1  0  0  0  0
 52 61  1  1  0  0  0
 54 46  1  0  0  0  0
 55 56  1  0  0  0  0
 57 55  2  0  0  0  0
 59 55  1  0  0  0  0
 59 58  1  0  0  0  0
 60 59  1  0  0  0  0
 61 62  1  0  0  0  0
 62 63  1  0  0  0  0
 65 64  1  1  0  0  0
 65 63  1  0  0  0  0
 67 66  1  0  0  0  0
 67 65  1  0  0  0  0
 68 67  2  0  0  0  0
 69 70  1  0  0  0  0
 70 65  1  0  0  0  0
M  END
>  <MODEL>
9

>  <REMARK>
 VINA RESULT:      -2.9      3.158     10.385
  Name = 
  29 active torsions:
  status: ('A' for Active; 'I' for Inactive)
    1  A    between atoms: C_1  and  C_46
    2  A    between atoms: C_1  and  C_65
    3  A    between atoms: N_2  and  C_15
    4  A    between atoms: C_3  and  O_5
    5  A    between atoms: C_3  and  C_13
    6  A    between atoms: C_3  and  C_27
    7  A    between atoms: O_5  and  C_60
    8  A    between atoms: C_8  and  C_23
    9  A    between atoms: C_9  and  N_17
   10  A    between atoms: C_9  and  C_46
   11  A    between atoms: C_14  and  C_20
   12  A    between atoms: C_14  and  C_56
   13  A    between atoms: C_15  and  C_69
   14  A    between atoms: C_16  and  C_32
   15  A    between atoms: C_20  and  C_24
   16  A    between atoms: C_21  and  C_23
   17  A    between atoms: C_21  and  C_38
   18  A    between atoms: C_24  and  C_55
   19  A    between atoms: C_31  and  N_63
   20  A    between atoms: C_33  and  C_56
   21  A    between atoms: C_37  and  C_41
   22  A    between atoms: C_37  and  C_69
   23  A    between atoms: C_40  and  C_56
   24  A    between atoms: C_41  and  C_57
   25  A    between atoms: C_43  and  C_47
   26  A    between atoms: C_43  and  C_51
   27  A    between atoms: C_43  and  C_65
   28  A    between atoms: C_47  and  C_48
   29  A    between atoms: C_48  and  C_60
                            x       y       z     vdW  Elec       q    Type
                         _______ _______ _______ _____ _____    ______ ____

>  <TORSDO>
F 29

$$$$
