=
 OpenBabel11062418493D

 37 42  0  0  1  0  0  0  0  0999 V2000
  189.3400  175.1460  144.8860 C   0  0  0  0  0  3  0  0  0  0  0  0
  190.5620  174.7060  142.7030 S   0  0  0  0  0  0  0  0  0  0  0  0
  193.4320  174.7170  145.5410 C   0  0  0  0  0  0  0  0  0  0  0  0
  197.3420  173.9390  143.0870 N   0  0  0  0  0  0  0  0  0  0  0  0
  194.8150  174.5770  145.7440 C   0  0  0  0  0  3  0  0  0  0  0  0
  197.8880  174.1650  145.3870 O   0  0  0  0  0  0  0  0  0  0  0  0
  191.2600  175.1050  146.4600 C   0  0  0  0  0  3  0  0  0  0  0  0
  191.5070  174.7610  144.0910 C   0  0  0  0  0  0  0  0  0  0  0  0
  193.7210  174.3720  143.1180 C   0  0  0  0  0  3  0  0  0  0  0  0
  192.8850  174.6130  144.2240 C   0  0  0  0  0  0  0  0  0  0  0  0
  192.6090  174.9580  146.6050 N   0  0  0  0  0  0  0  0  0  0  0  0
  195.6080  174.3370  144.6220 C   0  0  0  0  0  0  0  0  0  0  0  0
  190.6970  175.0070  145.1890 C   0  0  0  0  0  0  0  0  0  0  0  0
  195.0880  174.2380  143.3580 C   0  0  0  0  0  0  0  0  0  0  0  0
  189.1080  174.9850  143.5220 C   0  0  0  0  0  0  0  0  0  0  0  0
  196.2110  173.9920  142.4430 C   0  0  0  0  0  0  0  0  0  0  0  0
  197.0310  174.1490  144.4640 C   0  0  0  0  0  0  0  0  0  0  0  0
  196.7390  174.7720  140.1140 N   0  0  0  0  0  2  0  0  0  0  0  0
  196.1170  173.8250  140.9850 C   0  0  0  0  0  0  0  0  0  0  0  0
  195.4880  172.8430  140.5080 O   0  0  0  0  0  0  0  0  0  0  0  0
  197.5770  175.6640  137.7660 O   0  0  0  0  0  0  0  0  0  0  0  0
  195.0090  174.9130  137.8470 C   0  0  0  0  0  1  0  0  0  0  0  0
  197.1080  173.2570  137.9730 O   0  0  0  0  0  0  0  0  0  0  0  0
  196.6770  174.6350  138.3900 S   0  0  0  0  0  0  0  0  0  0  0  0
  187.7860  175.1570  142.8640 C   0  0  0  0  0  2  0  0  0  0  0  0
  185.5260  177.7970  142.1240 C   0  0  0  0  0  1  0  0  0  0  0  0
  186.8530  177.7510  142.8580 C   0  0  2  0  0  0  0  0  0  0  0  0
  188.7940  178.6660  141.4540 O   0  0  0  0  0  0  0  0  0  0  0  0
  187.9880  177.9370  142.0890 C   0  0  0  0  0  0  0  0  0  0  0  0
  187.5480  176.5700  142.6260 N   0  0  0  0  0  0  0  0  0  0  0  0
  186.9270  178.1880  144.3160 C   0  0  0  0  0  2  0  0  0  0  0  0
  185.7420  177.6770  145.1260 C   0  0  1  0  0  3  0  0  0  0  0  0
  186.2460  176.7910  146.2510 C   0  0  0  0  0  2  0  0  0  0  0  0
  186.0550  177.5720  147.5330 C   0  0  0  0  0  2  0  0  0  0  0  0
  185.0080  178.8370  145.7800 C   0  0  2  0  0  3  0  0  0  0  0  0
  184.9110  178.5160  147.2550 C   0  0  0  0  0  2  0  0  0  0  0  0
  183.7290  178.9560  145.2380 O   0  0  0  0  0  1  0  0  0  0  0  0
  1 13  1  0  0  0  0
  2 15  1  0  0  0  0
  2  8  1  0  0  0  0
  3  5  1  0  0  0  0
  3 11  1  0  0  0  0
  4 17  1  0  0  0  0
  7 11  2  0  0  0  0
  8 10  1  0  0  0  0
  8 13  2  0  0  0  0
  9 14  2  0  0  0  0
  9 10  1  0  0  0  0
 10  3  2  0  0  0  0
 12  5  2  0  0  0  0
 13  7  1  0  0  0  0
 14 12  1  0  0  0  0
 15  1  2  0  0  0  0
 16  4  2  0  0  0  0
 16 14  1  0  0  0  0
 17 12  1  0  0  0  0
 17  6  2  0  0  0  0
 18 19  1  0  0  0  0
 19 16  1  0  0  0  0
 20 19  2  0  0  0  0
 21 24  2  0  0  0  0
 22 24  1  0  0  0  0
 23 24  2  0  0  0  0
 24 18  1  0  0  0  0
 25 15  1  0  0  0  0
 27 26  1  6  0  0  0
 27 31  1  0  0  0  0
 28 29  2  0  0  0  0
 29 30  1  0  0  0  0
 29 27  1  0  0  0  0
 30 27  1  0  0  0  0
 30 25  1  0  0  0  0
 32 31  1  1  0  0  0
 32 35  1  0  0  0  0
 32 33  1  0  0  0  0
 33 34  1  0  0  0  0
 35 37  1  6  0  0  0
 35 36  1  0  0  0  0
 36 34  1  0  0  0  0
M  END
>  <MODEL>
1

>  <REMARK>
 VINA RESULT:      -7.7      0.000      0.000
  Name = 
  6 active torsions:
  status: ('A' for Active; 'I' for Inactive)
    1  A    between atoms: C_2  and  C_25
    2  A    between atoms: C_8  and  C_32
    3  A    between atoms: C_8  and  N_34
    4  A    between atoms: N_11  and  S_35
    5  A    between atoms: C_21  and  C_36
    6  A    between atoms: C_24  and  C_25
                            x       y       z     vdW  Elec       q    Type
                         _______ _______ _______ _____ _____    ______ ____

>  <TORSDO>
F 6

$$$$
=
 OpenBabel11062418493D

 37 42  0  0  1  0  0  0  0  0999 V2000
  189.2050  175.6700  146.9420 C   0  0  0  0  0  3  0  0  0  0  0  0
  189.4620  175.6780  144.4150 S   0  0  0  0  0  0  0  0  0  0  0  0
  185.8390  177.3120  145.1180 C   0  0  0  0  0  0  0  0  0  0  0  0
  184.2420  178.2240  140.8120 N   0  0  0  0  0  0  0  0  0  0  0  0
  184.7080  177.8560  144.4860 C   0  0  0  0  0  3  0  0  0  0  0  0
  182.6220  178.8980  142.4120 O   0  0  0  0  0  0  0  0  0  0  0  0
  186.9560  176.7010  147.1410 C   0  0  0  0  0  3  0  0  0  0  0  0
  188.0320  176.3150  145.0240 C   0  0  0  0  0  0  0  0  0  0  0  0
  186.9070  176.9200  142.9320 C   0  0  0  0  0  3  0  0  0  0  0  0
  186.9410  176.8430  144.3370 C   0  0  0  0  0  0  0  0  0  0  0  0
  185.8820  177.2250  146.4810 N   0  0  0  0  0  0  0  0  0  0  0  0
  184.7160  177.9150  143.0940 C   0  0  0  0  0  0  0  0  0  0  0  0
  188.0470  176.2390  146.4070 C   0  0  0  0  0  0  0  0  0  0  0  0
  185.7690  177.4660  142.3410 C   0  0  0  0  0  0  0  0  0  0  0  0
  190.1040  175.3190  145.9370 C   0  0  0  0  0  0  0  0  0  0  0  0
  185.4200  177.6810  140.9300 C   0  0  0  0  0  0  0  0  0  0  0  0
  183.7440  178.3970  142.1390 C   0  0  0  0  0  0  0  0  0  0  0  0
  185.6680  176.7610  138.6060 N   0  0  0  0  0  2  0  0  0  0  0  0
  186.2590  177.3400  139.7710 C   0  0  0  0  0  0  0  0  0  0  0  0
  187.4980  177.5630  139.8090 O   0  0  0  0  0  0  0  0  0  0  0  0
  187.4480  177.5050  136.7920 O   0  0  0  0  0  0  0  0  0  0  0  0
  185.4770  175.9410  135.8780 C   0  0  0  0  0  1  0  0  0  0  0  0
  187.4540  175.1490  137.5000 O   0  0  0  0  0  0  0  0  0  0  0  0
  186.5900  176.3420  137.2030 S   0  0  0  0  0  0  0  0  0  0  0  0
  191.3930  174.6130  146.1670 C   0  0  0  0  0  2  0  0  0  0  0  0
  194.1570  176.8410  146.3220 C   0  0  0  0  0  1  0  0  0  0  0  0
  193.7910  175.7180  145.3710 C   0  0  2  0  0  0  0  0  0  0  0  0
  192.8910  176.5730  143.1280 O   0  0  0  0  0  0  0  0  0  0  0  0
  193.0260  176.0670  144.2720 C   0  0  0  0  0  0  0  0  0  0  0  0
  192.4610  175.3310  145.4930 N   0  0  0  0  0  0  0  0  0  0  0  0
  194.7270  174.5260  145.2120 C   0  0  0  0  0  2  0  0  0  0  0  0
  196.1900  174.9500  145.1770 C   0  0  1  0  0  3  0  0  0  0  0  0
  197.0560  173.8110  145.6850 C   0  0  0  0  0  2  0  0  0  0  0  0
  197.7810  173.2500  144.4800 C   0  0  0  0  0  2  0  0  0  0  0  0
  196.6270  175.2260  143.7460 C   0  0  2  0  0  3  0  0  0  0  0  0
  197.8690  174.3960  143.5020 C   0  0  0  0  0  2  0  0  0  0  0  0
  196.9260  176.5780  143.5930 O   0  0  0  0  0  1  0  0  0  0  0  0
  2  8  1  0  0  0  0
  2 15  1  0  0  0  0
  3 11  1  0  0  0  0
  4 16  2  0  0  0  0
  4 17  1  0  0  0  0
  5  3  1  0  0  0  0
  8 13  2  0  0  0  0
  9 10  1  0  0  0  0
 10  8  1  0  0  0  0
 10  3  2  0  0  0  0
 11  7  2  0  0  0  0
 12  5  2  0  0  0  0
 13  1  1  0  0  0  0
 13  7  1  0  0  0  0
 14  9  2  0  0  0  0
 14 12  1  0  0  0  0
 15 25  1  0  0  0  0
 15  1  2  0  0  0  0
 16 14  1  0  0  0  0
 17  6  2  0  0  0  0
 17 12  1  0  0  0  0
 18 19  1  0  0  0  0
 19 20  2  0  0  0  0
 19 16  1  0  0  0  0
 21 24  2  0  0  0  0
 22 24  1  0  0  0  0
 24 23  2  0  0  0  0
 24 18  1  0  0  0  0
 27 30  1  0  0  0  0
 27 26  1  1  0  0  0
 28 29  2  0  0  0  0
 29 27  1  0  0  0  0
 29 30  1  0  0  0  0
 30 25  1  0  0  0  0
 31 27  1  0  0  0  0
 32 31  1  6  0  0  0
 32 33  1  0  0  0  0
 34 33  1  0  0  0  0
 35 37  1  1  0  0  0
 35 32  1  0  0  0  0
 36 35  1  0  0  0  0
 36 34  1  0  0  0  0
M  END
>  <MODEL>
2

>  <REMARK>
 VINA RESULT:      -7.6      3.367      9.623
  Name = 
  6 active torsions:
  status: ('A' for Active; 'I' for Inactive)
    1  A    between atoms: C_2  and  C_25
    2  A    between atoms: C_8  and  C_32
    3  A    between atoms: C_8  and  N_34
    4  A    between atoms: N_11  and  S_35
    5  A    between atoms: C_21  and  C_36
    6  A    between atoms: C_24  and  C_25
                            x       y       z     vdW  Elec       q    Type
                         _______ _______ _______ _____ _____    ______ ____

>  <TORSDO>
F 6

$$$$
=
 OpenBabel11062418493D

 37 42  0  0  1  0  0  0  0  0999 V2000
  193.9120  175.8960  146.4960 C   0  0  0  0  0  3  0  0  0  0  0  0
  192.9990  175.4590  144.1660 S   0  0  0  0  0  0  0  0  0  0  0  0
  189.8020  176.5610  146.3700 C   0  0  0  0  0  0  0  0  0  0  0  0
  186.2770  176.3400  143.2960 N   0  0  0  0  0  0  0  0  0  0  0  0
  188.4140  176.7730  146.3120 C   0  0  0  0  0  3  0  0  0  0  0  0
  185.4380  177.0270  145.4080 O   0  0  0  0  0  0  0  0  0  0  0  0
  191.8170  176.5510  147.6550 C   0  0  0  0  0  3  0  0  0  0  0  0
  191.8870  175.9500  145.3260 C   0  0  0  0  0  0  0  0  0  0  0  0
  189.8360  175.9400  143.9850 C   0  0  0  0  0  3  0  0  0  0  0  0
  190.5130  176.1440  145.2020 C   0  0  0  0  0  0  0  0  0  0  0  0
  190.4710  176.7480  147.5470 N   0  0  0  0  0  0  0  0  0  0  0  0
  187.7820  176.5630  145.0870 C   0  0  0  0  0  0  0  0  0  0  0  0
  192.5390  176.1460  146.5330 C   0  0  0  0  0  0  0  0  0  0  0  0
  188.4590  176.1610  143.9660 C   0  0  0  0  0  0  0  0  0  0  0  0
  194.3210  175.5140  145.2190 C   0  0  0  0  0  0  0  0  0  0  0  0
  187.4750  176.0380  142.8820 C   0  0  0  0  0  0  0  0  0  0  0  0
  186.4020  176.6800  144.6770 C   0  0  0  0  0  0  0  0  0  0  0  0
  188.2110  174.2980  141.2260 N   0  0  0  0  0  2  0  0  0  0  0  0
  187.7590  175.6260  141.4990 C   0  0  0  0  0  0  0  0  0  0  0  0
  187.6010  176.4480  140.5570 O   0  0  0  0  0  0  0  0  0  0  0  0
  187.9170  172.3980  139.4050 O   0  0  0  0  0  0  0  0  0  0  0  0
  190.3150  173.5880  139.4330 C   0  0  0  0  0  1  0  0  0  0  0  0
  188.0330  174.7270  138.6190 O   0  0  0  0  0  0  0  0  0  0  0  0
  188.5560  173.7410  139.6260 S   0  0  0  0  0  0  0  0  0  0  0  0
  195.7030  175.0950  144.8650 C   0  0  0  0  0  2  0  0  0  0  0  0
  197.3950  172.3480  143.3770 C   0  0  0  0  0  1  0  0  0  0  0  0
  196.2080  172.4410  144.3160 C   0  0  2  0  0  0  0  0  0  0  0  0
  193.9710  172.0460  143.1270 O   0  0  0  0  0  0  0  0  0  0  0  0
  194.9610  172.5420  143.7240 C   0  0  0  0  0  0  0  0  0  0  0  0
  195.6810  173.7260  144.3810 N   0  0  0  0  0  0  0  0  0  0  0  0
  196.2710  171.7720  145.6840 C   0  0  0  0  0  2  0  0  0  0  0  0
  196.0980  170.2620  145.5890 C   0  0  1  0  0  3  0  0  0  0  0  0
  197.2400  169.5780  146.3220 C   0  0  0  0  0  2  0  0  0  0  0  0
  196.6490  168.9940  147.5880 C   0  0  0  0  0  2  0  0  0  0  0  0
  194.8150  169.8310  146.2820 C   0  0  2  0  0  3  0  0  0  0  0  0
  195.1940  168.7510  147.2710 C   0  0  0  0  0  2  0  0  0  0  0  0
  193.9180  169.3190  145.3460 O   0  0  0  0  0  1  0  0  0  0  0  0
  1 13  1  0  0  0  0
  2 15  1  0  0  0  0
  2  8  1  0  0  0  0
  3 11  1  0  0  0  0
  4 17  1  0  0  0  0
  5  3  1  0  0  0  0
  8 13  2  0  0  0  0
  9 10  1  0  0  0  0
 10  8  1  0  0  0  0
 10  3  2  0  0  0  0
 11  7  2  0  0  0  0
 12  5  2  0  0  0  0
 13  7  1  0  0  0  0
 14  9  2  0  0  0  0
 14 12  1  0  0  0  0
 15  1  2  0  0  0  0
 16  4  2  0  0  0  0
 16 14  1  0  0  0  0
 17 12  1  0  0  0  0
 17  6  2  0  0  0  0
 18 19  1  0  0  0  0
 19 16  1  0  0  0  0
 20 19  2  0  0  0  0
 21 24  2  0  0  0  0
 22 24  1  0  0  0  0
 23 24  2  0  0  0  0
 24 18  1  0  0  0  0
 25 15  1  0  0  0  0
 27 26  1  6  0  0  0
 27 30  1  0  0  0  0
 27 31  1  0  0  0  0
 28 29  2  0  0  0  0
 29 27  1  0  0  0  0
 29 30  1  0  0  0  0
 30 25  1  0  0  0  0
 32 31  1  1  0  0  0
 32 35  1  0  0  0  0
 32 33  1  0  0  0  0
 33 34  1  0  0  0  0
 35 37  1  6  0  0  0
 35 36  1  0  0  0  0
 36 34  1  0  0  0  0
M  END
>  <MODEL>
3

>  <REMARK>
 VINA RESULT:      -7.6      3.240      9.161
  Name = 
  6 active torsions:
  status: ('A' for Active; 'I' for Inactive)
    1  A    between atoms: C_2  and  C_25
    2  A    between atoms: C_8  and  C_32
    3  A    between atoms: C_8  and  N_34
    4  A    between atoms: N_11  and  S_35
    5  A    between atoms: C_21  and  C_36
    6  A    between atoms: C_24  and  C_25
                            x       y       z     vdW  Elec       q    Type
                         _______ _______ _______ _____ _____    ______ ____

>  <TORSDO>
F 6

$$$$
=
 OpenBabel11062418493D

 37 42  0  0  1  0  0  0  0  0999 V2000
  190.3370  177.7800  143.8690 C   0  0  0  0  0  3  0  0  0  0  0  0
  189.9960  175.7800  142.3410 S   0  0  0  0  0  0  0  0  0  0  0  0
  192.5530  174.5110  145.1940 C   0  0  0  0  0  0  0  0  0  0  0  0
  193.3980  170.0760  143.9520 N   0  0  0  0  0  0  0  0  0  0  0  0
  193.3000  173.4000  145.6230 C   0  0  0  0  0  3  0  0  0  0  0  0
  194.6210  170.5890  145.9220 O   0  0  0  0  0  0  0  0  0  0  0  0
  191.9060  176.7890  145.5170 C   0  0  0  0  0  3  0  0  0  0  0  0
  191.0230  175.5540  143.6510 C   0  0  0  0  0  0  0  0  0  0  0  0
  191.6750  173.2200  143.2870 C   0  0  0  0  0  3  0  0  0  0  0  0
  191.7380  174.4180  144.0230 C   0  0  0  0  0  0  0  0  0  0  0  0
  192.6100  175.6820  145.8960 N   0  0  0  0  0  0  0  0  0  0  0  0
  193.2070  172.2330  144.8670 C   0  0  0  0  0  0  0  0  0  0  0  0
  191.1020  176.7290  144.3810 C   0  0  0  0  0  0  0  0  0  0  0  0
  192.4290  172.1400  143.7430 C   0  0  0  0  0  0  0  0  0  0  0  0
  189.6440  177.3890  142.7260 C   0  0  0  0  0  0  0  0  0  0  0  0
  192.5870  170.7780  143.2140 C   0  0  0  0  0  0  0  0  0  0  0  0
  193.8250  170.9350  145.0110 C   0  0  0  0  0  0  0  0  0  0  0  0
  192.3950  170.6260  140.7140 N   0  0  0  0  0  2  0  0  0  0  0  0
  191.9370  170.2380  142.0110 C   0  0  0  0  0  0  0  0  0  0  0  0
  190.9760  169.4310  142.1280 O   0  0  0  0  0  0  0  0  0  0  0  0
  191.7630  168.5250  139.2320 O   0  0  0  0  0  0  0  0  0  0  0  0
  192.5770  170.6780  137.8660 C   0  0  0  0  0  1  0  0  0  0  0  0
  190.2490  170.4640  139.1700 O   0  0  0  0  0  0  0  0  0  0  0  0
  191.6840  170.0260  139.2550 S   0  0  0  0  0  0  0  0  0  0  0  0
  188.8090  178.2950  141.8930 C   0  0  0  0  0  2  0  0  0  0  0  0
  186.2700  176.1420  143.1350 C   0  0  0  0  0  1  0  0  0  0  0  0
  186.3740  177.6500  143.0140 C   0  0  2  0  0  0  0  0  0  0  0  0
  184.9950  178.5860  141.0650 O   0  0  0  0  0  0  0  0  0  0  0  0
  185.9180  178.2060  141.8310 C   0  0  0  0  0  0  0  0  0  0  0  0
  187.4050  178.0460  142.1690 N   0  0  0  0  0  0  0  0  0  0  0  0
  186.2870  178.5180  144.2640 C   0  0  0  0  0  2  0  0  0  0  0  0
  185.9890  177.6940  145.5100 C   0  0  1  0  0  3  0  0  0  0  0  0
  187.2890  177.1420  146.0710 C   0  0  0  0  0  2  0  0  0  0  0  0
  187.5710  177.9140  147.3420 C   0  0  0  0  0  2  0  0  0  0  0  0
  185.3850  178.5730  146.5940 C   0  0  2  0  0  3  0  0  0  0  0  0
  186.2200  178.3670  147.8400 C   0  0  0  0  0  2  0  0  0  0  0  0
  184.0680  178.1860  146.8410 O   0  0  0  0  0  1  0  0  0  0  0  0
  1 13  1  0  0  0  0
  2 15  1  0  0  0  0
  2  8  1  0  0  0  0
  3  5  1  0  0  0  0
  3 11  1  0  0  0  0
  4 17  1  0  0  0  0
  7 11  2  0  0  0  0
  8 10  1  0  0  0  0
  8 13  2  0  0  0  0
  9 14  2  0  0  0  0
  9 10  1  0  0  0  0
 10  3  2  0  0  0  0
 12 17  1  0  0  0  0
 12  5  2  0  0  0  0
 13  7  1  0  0  0  0
 14 12  1  0  0  0  0
 15  1  2  0  0  0  0
 16 14  1  0  0  0  0
 16  4  2  0  0  0  0
 17  6  2  0  0  0  0
 18 19  1  0  0  0  0
 19 20  2  0  0  0  0
 19 16  1  0  0  0  0
 21 24  2  0  0  0  0
 22 24  1  0  0  0  0
 23 24  2  0  0  0  0
 24 18  1  0  0  0  0
 25 30  1  0  0  0  0
 25 15  1  0  0  0  0
 27 26  1  1  0  0  0
 27 31  1  0  0  0  0
 28 29  2  0  0  0  0
 29 30  1  0  0  0  0
 29 27  1  0  0  0  0
 30 27  1  0  0  0  0
 32 31  1  6  0  0  0
 32 33  1  0  0  0  0
 32 35  1  0  0  0  0
 33 34  1  0  0  0  0
 34 36  1  0  0  0  0
 35 37  1  1  0  0  0
 35 36  1  0  0  0  0
M  END
>  <MODEL>
4

>  <REMARK>
 VINA RESULT:      -7.5      3.538      3.769
  Name = 
  6 active torsions:
  status: ('A' for Active; 'I' for Inactive)
    1  A    between atoms: C_2  and  C_25
    2  A    between atoms: C_8  and  C_32
    3  A    between atoms: C_8  and  N_34
    4  A    between atoms: N_11  and  S_35
    5  A    between atoms: C_21  and  C_36
    6  A    between atoms: C_24  and  C_25
                            x       y       z     vdW  Elec       q    Type
                         _______ _______ _______ _____ _____    ______ ____

>  <TORSDO>
F 6

$$$$
=
 OpenBabel11062418493D

 37 42  0  0  1  0  0  0  0  0999 V2000
  191.6640  175.5180  147.1140 C   0  0  0  0  0  3  0  0  0  0  0  0
  190.8940  174.6190  144.8670 S   0  0  0  0  0  0  0  0  0  0  0  0
  194.6600  175.9340  144.2510 C   0  0  0  0  0  0  0  0  0  0  0  0
  195.3580  175.0400  139.7080 N   0  0  0  0  0  0  0  0  0  0  0  0
  195.6580  176.0740  143.2710 C   0  0  0  0  0  3  0  0  0  0  0  0
  197.3080  176.0410  140.6220 O   0  0  0  0  0  0  0  0  0  0  0  0
  193.9570  176.2540  146.5130 C   0  0  0  0  0  3  0  0  0  0  0  0
  192.4540  175.2400  144.9300 C   0  0  0  0  0  0  0  0  0  0  0  0
  193.1430  174.9090  142.6020 C   0  0  0  0  0  3  0  0  0  0  0  0
  193.4000  175.3490  143.9140 C   0  0  0  0  0  0  0  0  0  0  0  0
  194.8950  176.3640  145.5270 N   0  0  0  0  0  0  0  0  0  0  0  0
  195.3630  175.6230  141.9850 C   0  0  0  0  0  0  0  0  0  0  0  0
  192.7190  175.6860  146.2150 C   0  0  0  0  0  0  0  0  0  0  0  0
  194.1560  175.0640  141.6570 C   0  0  0  0  0  0  0  0  0  0  0  0
  190.5690  174.9130  146.5000 C   0  0  0  0  0  0  0  0  0  0  0  0
  194.2080  174.7200  140.2290 C   0  0  0  0  0  0  0  0  0  0  0  0
  196.1320  175.6130  140.7620 C   0  0  0  0  0  0  0  0  0  0  0  0
  192.3860  173.0070  139.9950 N   0  0  0  0  0  2  0  0  0  0  0  0
  193.1250  174.1010  139.4500 C   0  0  0  0  0  0  0  0  0  0  0  0
  192.8520  174.5410  138.3010 O   0  0  0  0  0  0  0  0  0  0  0  0
  191.5920  171.7300  137.8160 O   0  0  0  0  0  0  0  0  0  0  0  0
  189.7970  173.4150  138.8640 C   0  0  0  0  0  1  0  0  0  0  0  0
  190.5570  171.0920  139.9550 O   0  0  0  0  0  0  0  0  0  0  0  0
  191.0950  172.2350  139.1410 S   0  0  0  0  0  0  0  0  0  0  0  0
  189.2580  174.6730  147.1580 C   0  0  0  0  0  2  0  0  0  0  0  0
  188.8590  178.1570  146.5880 C   0  0  0  0  0  1  0  0  0  0  0  0
  188.0230  176.9490  146.2110 C   0  0  2  0  0  0  0  0  0  0  0  0
  185.9430  176.6850  147.6880 O   0  0  0  0  0  0  0  0  0  0  0  0
  187.0620  176.5570  147.1270 C   0  0  0  0  0  0  0  0  0  0  0  0
  188.3860  175.8100  146.9220 N   0  0  0  0  0  0  0  0  0  0  0  0
  187.7420  176.6490  144.7440 C   0  0  0  0  0  2  0  0  0  0  0  0
  187.7260  177.9150  143.8970 C   0  0  1  0  0  3  0  0  0  0  0  0
  188.4690  177.6590  142.5970 C   0  0  0  0  0  2  0  0  0  0  0  0
  187.4210  177.5990  141.5060 C   0  0  0  0  0  2  0  0  0  0  0  0
  186.2990  178.2810  143.5180 C   0  0  2  0  0  3  0  0  0  0  0  0
  186.2730  178.4370  142.0130 C   0  0  0  0  0  2  0  0  0  0  0  0
  185.9410  179.4850  144.1230 O   0  0  0  0  0  1  0  0  0  0  0  0
  2  8  1  0  0  0  0
  2 15  1  0  0  0  0
  3 11  1  0  0  0  0
  4 16  2  0  0  0  0
  4 17  1  0  0  0  0
  5  3  1  0  0  0  0
  6 17  2  0  0  0  0
  8 13  2  0  0  0  0
  9 10  1  0  0  0  0
 10  3  2  0  0  0  0
 10  8  1  0  0  0  0
 11  7  2  0  0  0  0
 12  5  2  0  0  0  0
 13  7  1  0  0  0  0
 13  1  1  0  0  0  0
 14 12  1  0  0  0  0
 14  9  2  0  0  0  0
 15  1  2  0  0  0  0
 15 25  1  0  0  0  0
 16 14  1  0  0  0  0
 17 12  1  0  0  0  0
 19 18  1  0  0  0  0
 19 16  1  0  0  0  0
 20 19  2  0  0  0  0
 21 24  2  0  0  0  0
 22 24  1  0  0  0  0
 24 23  2  0  0  0  0
 24 18  1  0  0  0  0
 27 26  1  1  0  0  0
 27 30  1  0  0  0  0
 27 29  1  0  0  0  0
 29 28  2  0  0  0  0
 30 29  1  0  0  0  0
 30 25  1  0  0  0  0
 31 27  1  0  0  0  0
 32 31  1  1  0  0  0
 33 32  1  0  0  0  0
 34 36  1  0  0  0  0
 34 33  1  0  0  0  0
 35 32  1  0  0  0  0
 35 37  1  1  0  0  0
 36 35  1  0  0  0  0
M  END
>  <MODEL>
5

>  <REMARK>
 VINA RESULT:      -7.4      2.646      4.160
  Name = 
  6 active torsions:
  status: ('A' for Active; 'I' for Inactive)
    1  A    between atoms: C_2  and  C_25
    2  A    between atoms: C_8  and  C_32
    3  A    between atoms: C_8  and  N_34
    4  A    between atoms: N_11  and  S_35
    5  A    between atoms: C_21  and  C_36
    6  A    between atoms: C_24  and  C_25
                            x       y       z     vdW  Elec       q    Type
                         _______ _______ _______ _____ _____    ______ ____

>  <TORSDO>
F 6

$$$$
=
 OpenBabel11062418493D

 37 42  0  0  1  0  0  0  0  0999 V2000
  188.3010  177.5280  147.2050 C   0  0  0  0  0  3  0  0  0  0  0  0
  188.8150  177.1740  144.7420 S   0  0  0  0  0  0  0  0  0  0  0  0
  184.9300  178.2610  144.8700 C   0  0  0  0  0  0  0  0  0  0  0  0
  183.6680  178.1880  140.3610 N   0  0  0  0  0  0  0  0  0  0  0  0
  183.8000  178.4980  144.0680 C   0  0  0  0  0  3  0  0  0  0  0  0
  181.8060  178.8250  141.6900 O   0  0  0  0  0  0  0  0  0  0  0  0
  185.9120  178.1810  147.0480 C   0  0  0  0  0  3  0  0  0  0  0  0
  187.2480  177.6490  145.1190 C   0  0  0  0  0  0  0  0  0  0  0  0
  186.2680  177.7110  142.8740 C   0  0  0  0  0  3  0  0  0  0  0  0
  186.1660  177.8680  144.2690 C   0  0  0  0  0  0  0  0  0  0  0  0
  184.8440  178.4030  146.2260 N   0  0  0  0  0  0  0  0  0  0  0  0
  183.9440  178.3340  142.6910 C   0  0  0  0  0  0  0  0  0  0  0  0
  187.1310  177.7990  146.4920 C   0  0  0  0  0  0  0  0  0  0  0  0
  185.1260  177.9550  142.1110 C   0  0  0  0  0  0  0  0  0  0  0  0
  189.3430  177.1780  146.3490 C   0  0  0  0  0  0  0  0  0  0  0  0
  184.8970  177.8790  140.6620 C   0  0  0  0  0  0  0  0  0  0  0  0
  183.0140  178.4850  141.5960 C   0  0  0  0  0  0  0  0  0  0  0  0
  185.5050  176.7230  138.5160 N   0  0  0  0  0  2  0  0  0  0  0  0
  185.8940  177.5040  139.6480 C   0  0  0  0  0  0  0  0  0  0  0  0
  187.0910  177.8740  139.7820 O   0  0  0  0  0  0  0  0  0  0  0  0
  185.8690  175.7220  136.0920 O   0  0  0  0  0  0  0  0  0  0  0  0
  187.6820  174.9780  137.9140 C   0  0  0  0  0  1  0  0  0  0  0  0
  187.4560  177.4330  136.8720 O   0  0  0  0  0  0  0  0  0  0  0  0
  186.6210  176.2520  137.2800 S   0  0  0  0  0  0  0  0  0  0  0  0
  190.6940  176.7470  146.7960 C   0  0  0  0  0  2  0  0  0  0  0  0
  192.3300  176.0150  143.7280 C   0  0  0  0  0  1  0  0  0  0  0  0
  192.2330  175.2720  145.0470 C   0  0  2  0  0  0  0  0  0  0  0  0
  190.6010  173.2960  144.9520 O   0  0  0  0  0  0  0  0  0  0  0  0
  191.1710  174.3940  145.1810 C   0  0  0  0  0  0  0  0  0  0  0  0
  191.2210  175.7680  145.8620 N   0  0  0  0  0  0  0  0  0  0  0  0
  193.5000  174.9500  145.8300 C   0  0  0  0  0  2  0  0  0  0  0  0
  194.4870  174.1330  145.0060 C   0  0  1  0  0  3  0  0  0  0  0  0
  195.9010  174.5920  145.3160 C   0  0  0  0  0  2  0  0  0  0  0  0
  196.5430  173.4880  146.1300 C   0  0  0  0  0  2  0  0  0  0  0  0
  194.4110  172.6640  145.3910 C   0  0  2  0  0  3  0  0  0  0  0  0
  195.8200  172.2260  145.7260 C   0  0  0  0  0  2  0  0  0  0  0  0
  193.9270  171.9160  144.3190 O   0  0  0  0  0  1  0  0  0  0  0  0
  2  8  1  0  0  0  0
  2 15  1  0  0  0  0
  3 11  1  0  0  0  0
  4 16  2  0  0  0  0
  4 17  1  0  0  0  0
  5  3  1  0  0  0  0
  8 13  2  0  0  0  0
  9 10  1  0  0  0  0
 10  3  2  0  0  0  0
 10  8  1  0  0  0  0
 11  7  2  0  0  0  0
 12  5  2  0  0  0  0
 13  7  1  0  0  0  0
 13  1  1  0  0  0  0
 14 12  1  0  0  0  0
 14  9  2  0  0  0  0
 15 25  1  0  0  0  0
 15  1  2  0  0  0  0
 16 14  1  0  0  0  0
 17  6  2  0  0  0  0
 17 12  1  0  0  0  0
 18 19  1  0  0  0  0
 19 20  2  0  0  0  0
 19 16  1  0  0  0  0
 21 24  2  0  0  0  0
 23 24  2  0  0  0  0
 24 22  1  0  0  0  0
 24 18  1  0  0  0  0
 27 26  1  6  0  0  0
 27 29  1  0  0  0  0
 27 31  1  0  0  0  0
 27 30  1  0  0  0  0
 28 29  2  0  0  0  0
 29 30  1  0  0  0  0
 30 25  1  0  0  0  0
 32 33  1  0  0  0  0
 32 35  1  0  0  0  0
 32 31  1  1  0  0  0
 33 34  1  0  0  0  0
 35 37  1  6  0  0  0
 35 36  1  0  0  0  0
 36 34  1  0  0  0  0
M  END
>  <MODEL>
6

>  <REMARK>
 VINA RESULT:      -7.3      3.885      9.706
  Name = 
  6 active torsions:
  status: ('A' for Active; 'I' for Inactive)
    1  A    between atoms: C_2  and  C_25
    2  A    between atoms: C_8  and  C_32
    3  A    between atoms: C_8  and  N_34
    4  A    between atoms: N_11  and  S_35
    5  A    between atoms: C_21  and  C_36
    6  A    between atoms: C_24  and  C_25
                            x       y       z     vdW  Elec       q    Type
                         _______ _______ _______ _____ _____    ______ ____

>  <TORSDO>
F 6

$$$$
=
 OpenBabel11062418493D

 37 42  0  0  1  0  0  0  0  0999 V2000
  189.0350  177.3580  147.1860 C   0  0  0  0  0  3  0  0  0  0  0  0
  189.3810  177.0460  144.6890 S   0  0  0  0  0  0  0  0  0  0  0  0
  185.5070  178.1010  145.0990 C   0  0  0  0  0  0  0  0  0  0  0  0
  183.9390  178.0870  140.6870 N   0  0  0  0  0  0  0  0  0  0  0  0
  184.3230  178.3410  144.3800 C   0  0  0  0  0  3  0  0  0  0  0  0
  182.1680  178.6890  142.1500 O   0  0  0  0  0  0  0  0  0  0  0  0
  186.6360  177.9950  147.2030 C   0  0  0  0  0  3  0  0  0  0  0  0
  187.8400  177.5030  145.1790 C   0  0  0  0  0  0  0  0  0  0  0  0
  186.7080  177.5920  143.0080 C   0  0  0  0  0  3  0  0  0  0  0  0
  186.7010  177.7260  144.4090 C   0  0  0  0  0  0  0  0  0  0  0  0
  185.5130  178.2210  146.4600 N   0  0  0  0  0  0  0  0  0  0  0  0
  184.3730  178.1990  142.9940 C   0  0  0  0  0  0  0  0  0  0  0  0
  187.8170  177.6310  146.5590 C   0  0  0  0  0  0  0  0  0  0  0  0
  185.5150  177.8380  142.3290 C   0  0  0  0  0  0  0  0  0  0  0  0
  190.0180  177.0290  146.2550 C   0  0  0  0  0  0  0  0  0  0  0  0
  185.1880  177.7820  140.8970 C   0  0  0  0  0  0  0  0  0  0  0  0
  183.3700  178.3590  141.9680 C   0  0  0  0  0  0  0  0  0  0  0  0
  185.6290  176.7780  138.6380 N   0  0  0  0  0  2  0  0  0  0  0  0
  186.1160  177.4300  139.8120 C   0  0  0  0  0  0  0  0  0  0  0  0
  187.3400  177.7080  139.9220 O   0  0  0  0  0  0  0  0  0  0  0  0
  185.8310  175.8120  136.1810 O   0  0  0  0  0  0  0  0  0  0  0  0
  187.7860  175.0790  137.8570 C   0  0  0  0  0  1  0  0  0  0  0  0
  187.4410  177.5420  136.8650 O   0  0  0  0  0  0  0  0  0  0  0  0
  186.6590  176.3410  137.3180 S   0  0  0  0  0  0  0  0  0  0  0  0
  191.4000  176.6020  146.6020 C   0  0  0  0  0  2  0  0  0  0  0  0
  193.7230  174.2330  145.3330 C   0  0  0  0  0  1  0  0  0  0  0  0
  192.3950  174.7520  144.8160 C   0  0  2  0  0  0  0  0  0  0  0  0
  192.6680  176.4380  142.9030 O   0  0  0  0  0  0  0  0  0  0  0  0
  192.4470  175.8730  144.0050 C   0  0  0  0  0  0  0  0  0  0  0  0
  191.9890  175.9110  145.4680 N   0  0  0  0  0  0  0  0  0  0  0  0
  191.2420  173.7840  144.5850 C   0  0  0  0  0  2  0  0  0  0  0  0
  191.0360  173.4850  143.1060 C   0  0  1  0  0  3  0  0  0  0  0  0
  191.1040  171.9840  142.8820 C   0  0  0  0  0  2  0  0  0  0  0  0
  189.6910  171.5290  142.5860 C   0  0  0  0  0  2  0  0  0  0  0  0
  189.6510  173.9300  142.6630 C   0  0  2  0  0  3  0  0  0  0  0  0
  189.0000  172.7350  141.9990 C   0  0  0  0  0  2  0  0  0  0  0  0
  189.7570  174.9770  141.7490 O   0  0  0  0  0  1  0  0  0  0  0  0
  2  8  1  0  0  0  0
  2 15  1  0  0  0  0
  3 11  1  0  0  0  0
  4 16  2  0  0  0  0
  4 17  1  0  0  0  0
  5  3  1  0  0  0  0
  8 13  2  0  0  0  0
  9 10  1  0  0  0  0
 10  3  2  0  0  0  0
 10  8  1  0  0  0  0
 11  7  2  0  0  0  0
 12  5  2  0  0  0  0
 13  1  1  0  0  0  0
 13  7  1  0  0  0  0
 14 12  1  0  0  0  0
 14  9  2  0  0  0  0
 15 25  1  0  0  0  0
 15  1  2  0  0  0  0
 16 14  1  0  0  0  0
 17  6  2  0  0  0  0
 17 12  1  0  0  0  0
 18 19  1  0  0  0  0
 19 20  2  0  0  0  0
 19 16  1  0  0  0  0
 21 24  2  0  0  0  0
 23 24  2  0  0  0  0
 24 22  1  0  0  0  0
 24 18  1  0  0  0  0
 27 26  1  1  0  0  0
 27 30  1  0  0  0  0
 28 29  2  0  0  0  0
 29 27  1  0  0  0  0
 29 30  1  0  0  0  0
 30 25  1  0  0  0  0
 31 27  1  0  0  0  0
 32 31  1  1  0  0  0
 33 32  1  0  0  0  0
 34 33  1  0  0  0  0
 35 37  1  6  0  0  0
 35 32  1  0  0  0  0
 36 34  1  0  0  0  0
 36 35  1  0  0  0  0
M  END
>  <MODEL>
7

>  <REMARK>
 VINA RESULT:      -7.3      3.864      8.935
  Name = 
  6 active torsions:
  status: ('A' for Active; 'I' for Inactive)
    1  A    between atoms: C_2  and  C_25
    2  A    between atoms: C_8  and  C_32
    3  A    between atoms: C_8  and  N_34
    4  A    between atoms: N_11  and  S_35
    5  A    between atoms: C_21  and  C_36
    6  A    between atoms: C_24  and  C_25
                            x       y       z     vdW  Elec       q    Type
                         _______ _______ _______ _____ _____    ______ ____

>  <TORSDO>
F 6

$$$$
=
 OpenBabel11062418493D

 37 42  0  0  1  0  0  0  0  0999 V2000
  191.1130  171.4660  141.9850 C   0  0  0  0  0  3  0  0  0  0  0  0
  190.2750  172.9620  143.8590 S   0  0  0  0  0  0  0  0  0  0  0  0
  188.6450  174.4690  140.4870 C   0  0  0  0  0  0  0  0  0  0  0  0
  186.1850  178.1320  142.0530 N   0  0  0  0  0  0  0  0  0  0  0  0
  187.8160  175.4920  139.9970 C   0  0  0  0  0  3  0  0  0  0  0  0
  185.9440  177.9710  139.6960 O   0  0  0  0  0  0  0  0  0  0  0  0
  190.0050  172.5530  140.0480 C   0  0  0  0  0  3  0  0  0  0  0  0
  189.7510  173.3400  142.3080 C   0  0  0  0  0  0  0  0  0  0  0  0
  188.3720  175.3080  142.7880 C   0  0  0  0  0  3  0  0  0  0  0  0
  188.9220  174.3770  141.8870 C   0  0  0  0  0  0  0  0  0  0  0  0
  189.1910  173.5630  139.6220 N   0  0  0  0  0  0  0  0  0  0  0  0
  187.2900  176.3920  140.9240 C   0  0  0  0  0  0  0  0  0  0  0  0
  190.2920  172.4360  141.4070 C   0  0  0  0  0  0  0  0  0  0  0  0
  187.5550  176.3090  142.2660 C   0  0  0  0  0  0  0  0  0  0  0  0
  191.1870  171.6250  143.3670 C   0  0  0  0  0  0  0  0  0  0  0  0
  186.8430  177.4160  142.9200 C   0  0  0  0  0  0  0  0  0  0  0  0
  186.4260  177.5390  140.7760 C   0  0  0  0  0  0  0  0  0  0  0  0
  185.6170  177.7910  145.0800 N   0  0  0  0  0  2  0  0  0  0  0  0
  186.8480  177.7160  144.3600 C   0  0  0  0  0  0  0  0  0  0  0  0
  187.9430  177.9050  144.9540 O   0  0  0  0  0  0  0  0  0  0  0  0
  186.2800  179.4090  147.0680 O   0  0  0  0  0  0  0  0  0  0  0  0
  186.3160  176.8000  147.6640 C   0  0  0  0  0  1  0  0  0  0  0  0
  184.1130  178.2520  147.2100 O   0  0  0  0  0  0  0  0  0  0  0  0
  185.5460  178.1310  146.7750 S   0  0  0  0  0  0  0  0  0  0  0  0
  192.0450  170.8100  144.2670 C   0  0  0  0  0  2  0  0  0  0  0  0
  194.4180  173.1960  143.1290 C   0  0  0  0  0  1  0  0  0  0  0  0
  194.1440  172.5830  144.4890 C   0  0  2  0  0  0  0  0  0  0  0  0
  195.8620  170.7900  145.1320 O   0  0  0  0  0  0  0  0  0  0  0  0
  194.8260  171.4150  144.7860 C   0  0  0  0  0  0  0  0  0  0  0  0
  193.3400  171.4520  144.4090 N   0  0  0  0  0  0  0  0  0  0  0  0
  193.7650  173.4790  145.6620 C   0  0  0  0  0  2  0  0  0  0  0  0
  193.6050  174.9340  145.2390 C   0  0  1  0  0  3  0  0  0  0  0  0
  192.3550  175.5100  145.8820 C   0  0  0  0  0  2  0  0  0  0  0  0
  192.8250  176.4680  146.9550 C   0  0  0  0  0  2  0  0  0  0  0  0
  194.7760  175.7640  145.7430 C   0  0  2  0  0  3  0  0  0  0  0  0
  194.1880  176.9330  146.5030 C   0  0  0  0  0  2  0  0  0  0  0  0
  195.5250  176.2320  144.6640 O   0  0  0  0  0  1  0  0  0  0  0  0
  1 15  2  0  0  0  0
  3 10  1  0  0  0  0
  4 16  2  0  0  0  0
  5  3  2  0  0  0  0
  5 12  1  0  0  0  0
  6 17  2  0  0  0  0
  7 13  1  0  0  0  0
  8  2  1  0  0  0  0
 10  8  1  0  0  0  0
 10  9  2  0  0  0  0
 11  7  2  0  0  0  0
 11  3  1  0  0  0  0
 12 14  2  0  0  0  0
 13  1  1  0  0  0  0
 13  8  2  0  0  0  0
 14  9  1  0  0  0  0
 14 16  1  0  0  0  0
 15  2  1  0  0  0  0
 15 25  1  0  0  0  0
 16 19  1  0  0  0  0
 17 12  1  0  0  0  0
 17  4  1  0  0  0  0
 18 24  1  0  0  0  0
 19 20  2  0  0  0  0
 19 18  1  0  0  0  0
 24 21  2  0  0  0  0
 24 23  2  0  0  0  0
 24 22  1  0  0  0  0
 25 30  1  0  0  0  0
 27 26  1  6  0  0  0
 27 29  1  0  0  0  0
 27 31  1  0  0  0  0
 29 28  2  0  0  0  0
 30 27  1  0  0  0  0
 30 29  1  0  0  0  0
 32 31  1  1  0  0  0
 32 35  1  0  0  0  0
 32 33  1  0  0  0  0
 33 34  1  0  0  0  0
 35 37  1  6  0  0  0
 35 36  1  0  0  0  0
 36 34  1  0  0  0  0
M  END
>  <MODEL>
8

>  <REMARK>
 VINA RESULT:      -7.3      3.399      9.620
  Name = 
  6 active torsions:
  status: ('A' for Active; 'I' for Inactive)
    1  A    between atoms: C_2  and  C_25
    2  A    between atoms: C_8  and  C_32
    3  A    between atoms: C_8  and  N_34
    4  A    between atoms: N_11  and  S_35
    5  A    between atoms: C_21  and  C_36
    6  A    between atoms: C_24  and  C_25
                            x       y       z     vdW  Elec       q    Type
                         _______ _______ _______ _____ _____    ______ ____

>  <TORSDO>
F 6

$$$$
=
 OpenBabel11062418493D

 37 42  0  0  1  0  0  0  0  0999 V2000
  189.7990  177.4990  145.2610 C   0  0  0  0  0  3  0  0  0  0  0  0
  191.2010  177.4010  143.1460 S   0  0  0  0  0  0  0  0  0  0  0  0
  193.4640  175.6630  146.0000 C   0  0  0  0  0  0  0  0  0  0  0  0
  197.3760  174.5240  143.6920 N   0  0  0  0  0  0  0  0  0  0  0  0
  194.7080  175.0530  146.2340 C   0  0  0  0  0  3  0  0  0  0  0  0
  197.5770  173.8530  145.9620 O   0  0  0  0  0  0  0  0  0  0  0  0
  191.3530  176.3930  146.8500 C   0  0  0  0  0  3  0  0  0  0  0  0
  191.8850  176.7360  144.5280 C   0  0  0  0  0  0  0  0  0  0  0  0
  194.0450  176.0080  143.6300 C   0  0  0  0  0  3  0  0  0  0  0  0
  193.1340  176.1410  144.6940 C   0  0  0  0  0  0  0  0  0  0  0  0
  192.5720  175.8040  147.0250 N   0  0  0  0  0  0  0  0  0  0  0  0
  195.5810  174.9390  145.1530 C   0  0  0  0  0  0  0  0  0  0  0  0
  191.0010  176.8670  145.5870 C   0  0  0  0  0  0  0  0  0  0  0  0
  195.2700  175.3970  143.8990 C   0  0  0  0  0  0  0  0  0  0  0  0
  189.7600  177.8440  143.9120 C   0  0  0  0  0  0  0  0  0  0  0  0
  196.4210  175.1140  143.0320 C   0  0  0  0  0  0  0  0  0  0  0  0
  196.9100  174.3840  145.0350 C   0  0  0  0  0  0  0  0  0  0  0  0
  196.5880  174.3930  140.6310 N   0  0  0  0  0  2  0  0  0  0  0  0
  196.5260  175.4400  141.6020 C   0  0  0  0  0  0  0  0  0  0  0  0
  196.5600  176.6460  141.2370 O   0  0  0  0  0  0  0  0  0  0  0  0
  195.4130  175.2870  138.4330 O   0  0  0  0  0  0  0  0  0  0  0  0
  197.0150  173.1710  138.0870 C   0  0  0  0  0  1  0  0  0  0  0  0
  197.8350  175.6530  138.6640 O   0  0  0  0  0  0  0  0  0  0  0  0
  196.7030  174.7010  138.9330 S   0  0  0  0  0  0  0  0  0  0  0  0
  188.6570  178.6040  143.2670 C   0  0  0  0  0  2  0  0  0  0  0  0
  187.4710  176.3870  140.7560 C   0  0  0  0  0  1  0  0  0  0  0  0
  187.2590  176.4530  142.2560 C   0  0  2  0  0  0  0  0  0  0  0  0
  184.9560  177.3880  142.8900 O   0  0  0  0  0  0  0  0  0  0  0  0
  186.1860  177.2130  142.6930 C   0  0  0  0  0  0  0  0  0  0  0  0
  187.6450  177.6770  142.7940 N   0  0  0  0  0  0  0  0  0  0  0  0
  187.6760  175.2800  143.1330 C   0  0  0  0  0  2  0  0  0  0  0  0
  188.7450  174.4230  142.4680 C   0  0  1  0  0  3  0  0  0  0  0  0
  189.8210  174.0800  143.4850 C   0  0  0  0  0  2  0  0  0  0  0  0
  189.6540  172.6110  143.8090 C   0  0  0  0  0  2  0  0  0  0  0  0
  188.1510  173.1030  142.0010 C   0  0  2  0  0  3  0  0  0  0  0  0
  189.0120  172.0050  142.5850 C   0  0  0  0  0  2  0  0  0  0  0  0
  188.1810  173.0350  140.6080 O   0  0  0  0  0  1  0  0  0  0  0  0
  1 13  1  0  0  0  0
  2 15  1  0  0  0  0
  2  8  1  0  0  0  0
  3  5  1  0  0  0  0
  3 11  1  0  0  0  0
  4 17  1  0  0  0  0
  7 11  2  0  0  0  0
  8 10  1  0  0  0  0
  8 13  2  0  0  0  0
  9 14  2  0  0  0  0
  9 10  1  0  0  0  0
 10  3  2  0  0  0  0
 12  5  2  0  0  0  0
 13  7  1  0  0  0  0
 14 12  1  0  0  0  0
 15  1  2  0  0  0  0
 16  4  2  0  0  0  0
 16 14  1  0  0  0  0
 17 12  1  0  0  0  0
 17  6  2  0  0  0  0
 18 19  1  0  0  0  0
 19 16  1  0  0  0  0
 20 19  2  0  0  0  0
 21 24  2  0  0  0  0
 22 24  1  0  0  0  0
 23 24  2  0  0  0  0
 24 18  1  0  0  0  0
 25 15  1  0  0  0  0
 27 26  1  6  0  0  0
 27 29  1  0  0  0  0
 27 30  1  0  0  0  0
 27 31  1  0  0  0  0
 29 30  1  0  0  0  0
 29 28  2  0  0  0  0
 30 25  1  0  0  0  0
 32 31  1  1  0  0  0
 32 33  1  0  0  0  0
 33 34  1  0  0  0  0
 35 37  1  6  0  0  0
 35 32  1  0  0  0  0
 35 36  1  0  0  0  0
 36 34  1  0  0  0  0
M  END
>  <MODEL>
9

>  <REMARK>
 VINA RESULT:      -7.3      2.193      3.535
  Name = 
  6 active torsions:
  status: ('A' for Active; 'I' for Inactive)
    1  A    between atoms: C_2  and  C_25
    2  A    between atoms: C_8  and  C_32
    3  A    between atoms: C_8  and  N_34
    4  A    between atoms: N_11  and  S_35
    5  A    between atoms: C_21  and  C_36
    6  A    between atoms: C_24  and  C_25
                            x       y       z     vdW  Elec       q    Type
                         _______ _______ _______ _____ _____    ______ ____

>  <TORSDO>
F 6

$$$$
