=
 OpenBabel11072408283D

 34 37  0  0  1  0  0  0  0  0999 V2000
  191.0690  176.7880  145.6690 C   0  0  0  0  0  3  0  0  0  0  0  0
  190.9730  174.9090  147.1910 C   0  0  0  0  0  3  0  0  0  0  0  0
  188.9330  176.0200  146.5030 C   0  0  0  0  0  3  0  0  0  0  0  0
  191.7230  175.7850  146.3990 C   0  0  0  0  0  0  0  0  0  0  0  0
  189.5800  175.0290  147.2460 C   0  0  0  0  0  0  0  0  0  0  0  0
  188.8590  174.1770  148.0110 F   0  0  0  0  0  0  0  0  0  0  0  0
  189.6770  176.9020  145.7120 C   0  0  0  0  0  0  0  0  0  0  0  0
  192.4370  172.9140  144.9020 O   0  0  0  0  0  1  0  0  0  0  0  0
  195.2830  174.9720  143.4460 C   0  0  0  0  0  0  0  0  0  0  0  0
  193.7000  175.6360  144.9200 C   0  0  2  0  0  3  0  0  0  0  0  0
  194.1130  174.5180  144.1260 N   0  0  0  0  0  0  0  0  0  0  0  0
  196.5840  177.0210  143.5800 O   0  0  0  0  0  0  0  0  0  0  0  0
  193.5580  173.1980  144.1340 C   0  0  0  0  0  0  0  0  0  0  0  0
  194.0740  172.2870  143.4320 O   0  0  0  0  0  0  0  0  0  0  0  0
  194.6260  177.3680  146.0190 N   0  0  0  0  0  0  0  0  0  0  0  0
  193.8840  176.8020  146.8860 N   0  0  0  0  0  0  0  0  0  0  0  0
  195.9670  174.2800  142.6470 O   0  0  0  0  0  0  0  0  0  0  0  0
  194.5040  176.6690  144.7950 C   0  0  1  0  0  3  0  0  0  0  0  0
  195.5720  176.3300  143.8670 C   0  0  0  0  0  0  0  0  0  0  0  0
  193.2120  175.6220  146.3340 C   0  0  1  0  0  3  0  0  0  0  0  0
  188.9780  177.9450  144.8800 C   0  0  0  0  0  2  0  0  0  0  0  0
  186.7680  178.5280  144.1040 C   0  0  2  0  0  3  0  0  0  0  0  0
  188.0890  177.0540  142.8260 C   0  0  0  0  0  2  0  0  0  0  0  0
  187.3140  177.9620  141.8910 C   0  0  2  0  0  3  0  0  0  0  0  0
  186.1400  178.4720  142.7130 C   0  0  1  0  0  3  0  0  0  0  0  0
  187.7680  177.4600  144.1960 N   0  0  0  0  0  0  0  0  0  0  0  0
  186.9770  177.3140  140.5820 C   0  0  0  0  0  0  0  0  0  0  0  0
  187.4420  176.0400  140.2800 O   0  0  0  0  0  1  0  0  0  0  0  0
  186.2370  177.9180  139.7630 O   0  0  0  0  0  0  0  0  0  0  0  0
  185.7890  177.1960  145.8300 O   0  0  0  0  0  1  0  0  0  0  0  0
  185.7840  178.4750  145.2690 C   0  0  0  0  0  2  0  0  0  0  0  0
  184.9380  177.5200  142.6740 C   0  0  0  0  0  2  0  0  0  0  0  0
  183.2240  177.9420  141.0840 O   0  0  0  0  0  1  0  0  0  0  0  0
  183.6720  178.2920  142.3560 C   0  0  0  0  0  2  0  0  0  0  0  0
  1  7  2  0  0  0  0
  1  4  1  0  0  0  0
  2  5  1  0  0  0  0
  3  5  2  0  0  0  0
  4  2  2  0  0  0  0
  5  6  1  0  0  0  0
  7  3  1  0  0  0  0
  9 19  1  0  0  0  0
  9 11  1  0  0  0  0
 10 11  1  1  0  0  0
 10 20  1  0  0  0  0
 11 13  1  0  0  0  0
 12 19  2  0  0  0  0
 13  8  1  0  0  0  0
 14 13  2  0  0  0  0
 15 16  2  0  0  0  0
 17  9  2  0  0  0  0
 18 19  1  1  0  0  0
 18 10  1  0  0  0  0
 18 15  1  0  0  0  0
 20  4  1  6  0  0  0
 20 16  1  0  0  0  0
 21  7  1  0  0  0  0
 22 26  1  0  0  0  0
 22 31  1  1  0  0  0
 23 26  1  0  0  0  0
 24 27  1  6  0  0  0
 24 25  1  0  0  0  0
 24 23  1  0  0  0  0
 25 32  1  1  0  0  0
 25 22  1  0  0  0  0
 26 21  1  0  0  0  0
 28 27  1  0  0  0  0
 29 27  2  0  0  0  0
 31 30  1  0  0  0  0
 33 34  1  0  0  0  0
 34 32  1  0  0  0  0
M  END
>  <MODEL>
1

>  <REMARK>
 VINA RESULT:      -8.0      0.000      0.000
  Name = 
  7 active torsions:
  status: ('A' for Active; 'I' for Inactive)
    1  A    between atoms: C_3  and  C_16
    2  A    between atoms: C_6  and  C_7
    3  A    between atoms: C_7  and  C_18
    4  A    between atoms: C_9  and  C_32
    5  A    between atoms: C_12  and  N_27
    6  A    between atoms: C_12  and  C_34
    7  A    between atoms: C_26  and  C_33
                            x       y       z     vdW  Elec       q    Type
                         _______ _______ _______ _____ _____    ______ ____

>  <TORSDO>
F 7

$$$$
=
 OpenBabel11072408283D

 34 37  0  0  1  0  0  0  0  0999 V2000
  190.1590  175.4710  145.9540 C   0  0  0  0  0  3  0  0  0  0  0  0
  189.0090  177.4740  146.6760 C   0  0  0  0  0  3  0  0  0  0  0  0
  191.0910  176.8220  147.7300 C   0  0  0  0  0  3  0  0  0  0  0  0
  189.0810  176.3600  145.8340 C   0  0  0  0  0  0  0  0  0  0  0  0
  190.0100  177.7020  147.6260 C   0  0  0  0  0  0  0  0  0  0  0  0
  189.9370  178.7840  148.4370 F   0  0  0  0  0  0  0  0  0  0  0  0
  191.1680  175.7030  146.8920 C   0  0  0  0  0  0  0  0  0  0  0  0
  186.1110  176.7080  147.2670 O   0  0  0  0  0  1  0  0  0  0  0  0
  185.2620  178.3230  143.9320 C   0  0  0  0  0  0  0  0  0  0  0  0
  187.2260  177.3990  144.5680 C   0  0  2  0  0  3  0  0  0  0  0  0
  185.9130  177.7120  145.0450 N   0  0  0  0  0  0  0  0  0  0  0  0
  185.9230  178.6790  141.6190 O   0  0  0  0  0  0  0  0  0  0  0  0
  185.3410  177.3540  146.3080 C   0  0  0  0  0  0  0  0  0  0  0  0
  184.1400  177.6330  146.5650 O   0  0  0  0  0  0  0  0  0  0  0  0
  188.2350  176.8060  142.6460 N   0  0  0  0  0  0  0  0  0  0  0  0
  188.6040  175.9210  143.4840 N   0  0  0  0  0  0  0  0  0  0  0  0
  184.0740  178.7410  143.9310 O   0  0  0  0  0  0  0  0  0  0  0  0
  187.4010  177.7360  143.3090 C   0  0  1  0  0  3  0  0  0  0  0  0
  186.1740  178.3340  142.8040 C   0  0  0  0  0  0  0  0  0  0  0  0
  188.0110  176.1480  144.8050 C   0  0  1  0  0  3  0  0  0  0  0  0
  192.3500  174.7760  146.9770 C   0  0  0  0  0  2  0  0  0  0  0  0
  194.3450  175.6060  145.8980 C   0  0  2  0  0  3  0  0  0  0  0  0
  193.6740  173.3780  145.5280 C   0  0  0  0  0  2  0  0  0  0  0  0
  195.1870  173.4320  145.6150 C   0  0  2  0  0  3  0  0  0  0  0  0
  195.5520  174.8770  145.3120 C   0  0  1  0  0  3  0  0  0  0  0  0
  193.1740  174.7350  145.7560 N   0  0  0  0  0  0  0  0  0  0  0  0
  195.8650  172.3860  144.7820 C   0  0  0  0  0  0  0  0  0  0  0  0
  195.1610  171.6880  143.8080 O   0  0  0  0  0  0  0  0  0  0  0  0
  197.0920  172.1640  144.9430 O   0  0  0  0  0  1  0  0  0  0  0  0
  194.8900  177.9320  145.9730 O   0  0  0  0  0  1  0  0  0  0  0  0
  194.0790  176.9960  145.3280 C   0  0  0  0  0  2  0  0  0  0  0  0
  195.6970  175.1430  143.8080 C   0  0  0  0  0  2  0  0  0  0  0  0
  196.9960  177.0660  143.2960 O   0  0  0  0  0  1  0  0  0  0  0  0
  197.0780  175.6910  143.5070 C   0  0  0  0  0  2  0  0  0  0  0  0
  1  7  1  0  0  0  0
  2  5  2  0  0  0  0
  4  1  2  0  0  0  0
  4  2  1  0  0  0  0
  5  3  1  0  0  0  0
  5  6  1  0  0  0  0
  7 21  1  0  0  0  0
  7  3  2  0  0  0  0
  9 11  1  0  0  0  0
 10 20  1  0  0  0  0
 10 11  1  6  0  0  0
 11 13  1  0  0  0  0
 12 19  2  0  0  0  0
 13 14  2  0  0  0  0
 13  8  1  0  0  0  0
 15 16  2  0  0  0  0
 16 20  1  0  0  0  0
 17  9  2  0  0  0  0
 18 15  1  6  0  0  0
 18 10  1  0  0  0  0
 19 18  1  0  0  0  0
 19  9  1  0  0  0  0
 20  4  1  1  0  0  0
 22 31  1  6  0  0  0
 23 24  1  0  0  0  0
 23 26  1  0  0  0  0
 24 27  1  6  0  0  0
 25 32  1  6  0  0  0
 25 24  1  0  0  0  0
 25 22  1  0  0  0  0
 26 22  1  0  0  0  0
 26 21  1  0  0  0  0
 27 29  1  0  0  0  0
 28 27  2  0  0  0  0
 31 30  1  0  0  0  0
 33 34  1  0  0  0  0
 34 32  1  0  0  0  0
M  END
>  <MODEL>
2

>  <REMARK>
 VINA RESULT:      -7.8      1.953      8.708
  Name = 
  7 active torsions:
  status: ('A' for Active; 'I' for Inactive)
    1  A    between atoms: C_3  and  C_16
    2  A    between atoms: C_6  and  C_7
    3  A    between atoms: C_7  and  C_18
    4  A    between atoms: C_9  and  C_32
    5  A    between atoms: C_12  and  N_27
    6  A    between atoms: C_12  and  C_34
    7  A    between atoms: C_26  and  C_33
                            x       y       z     vdW  Elec       q    Type
                         _______ _______ _______ _____ _____    ______ ____

>  <TORSDO>
F 7

$$$$
=
 OpenBabel11072408283D

 34 37  0  0  1  0  0  0  0  0999 V2000
  188.5560  177.9250  144.0580 C   0  0  0  0  0  3  0  0  0  0  0  0
  186.7390  177.4510  145.5850 C   0  0  0  0  0  3  0  0  0  0  0  0
  188.9400  176.5220  145.9900 C   0  0  0  0  0  3  0  0  0  0  0  0
  187.2140  178.0870  144.4340 C   0  0  0  0  0  0  0  0  0  0  0  0
  187.6000  176.6660  146.3600 C   0  0  0  0  0  0  0  0  0  0  0  0
  187.1350  176.0550  147.4750 F   0  0  0  0  0  0  0  0  0  0  0  0
  189.4210  177.1520  144.8370 C   0  0  0  0  0  0  0  0  0  0  0  0
  187.7830  177.5880  141.2050 O   0  0  0  0  0  1  0  0  0  0  0  0
  184.0050  177.9570  141.0080 C   0  0  0  0  0  0  0  0  0  0  0  0
  185.3220  178.1160  142.8400 C   0  0  2  0  0  3  0  0  0  0  0  0
  185.3600  177.8340  141.4360 N   0  0  0  0  0  0  0  0  0  0  0  0
  181.9700  178.6620  142.1370 O   0  0  0  0  0  0  0  0  0  0  0  0
  186.5220  177.6260  140.6250 C   0  0  0  0  0  0  0  0  0  0  0  0
  186.4080  177.4610  139.3810 O   0  0  0  0  0  0  0  0  0  0  0  0
  184.1550  179.3880  144.2820 N   0  0  0  0  0  0  0  0  0  0  0  0
  185.3720  179.6820  144.5140 N   0  0  0  0  0  0  0  0  0  0  0  0
  183.6050  177.7970  139.8240 O   0  0  0  0  0  0  0  0  0  0  0  0
  184.1120  178.4070  143.2640 C   0  0  1  0  0  3  0  0  0  0  0  0
  183.1880  178.3420  142.1420 C   0  0  0  0  0  0  0  0  0  0  0  0
  186.2820  178.9450  143.6320 C   0  0  1  0  0  3  0  0  0  0  0  0
  190.8730  177.0300  144.4590 C   0  0  0  0  0  2  0  0  0  0  0  0
  191.6150  174.7790  143.9950 C   0  0  2  0  0  3  0  0  0  0  0  0
  192.9180  176.1590  145.3910 C   0  0  0  0  0  2  0  0  0  0  0  0
  193.8370  175.3220  144.5230 C   0  0  2  0  0  3  0  0  0  0  0  0
  192.9960  174.1350  144.0810 C   0  0  1  0  0  3  0  0  0  0  0  0
  191.5420  175.8370  145.0070 N   0  0  0  0  0  0  0  0  0  0  0  0
  195.1440  175.0010  145.1840 C   0  0  0  0  0  0  0  0  0  0  0  0
  196.1940  174.4570  144.4550 O   0  0  0  0  0  0  0  0  0  0  0  0
  195.3020  175.2600  146.4050 O   0  0  0  0  0  1  0  0  0  0  0  0
  189.5310  174.0600  143.0710 O   0  0  0  0  0  1  0  0  0  0  0  0
  190.4350  173.8180  144.1060 C   0  0  0  0  0  2  0  0  0  0  0  0
  193.0210  172.9850  145.0970 C   0  0  0  0  0  2  0  0  0  0  0  0
  194.5550  171.1780  145.2530 O   0  0  0  0  0  1  0  0  0  0  0  0
  193.5600  171.7270  144.4470 C   0  0  0  0  0  2  0  0  0  0  0  0
  1  4  2  0  0  0  0
  1  7  1  0  0  0  0
  2  5  2  0  0  0  0
  3  5  1  0  0  0  0
  4  2  1  0  0  0  0
  5  6  1  0  0  0  0
  7  3  2  0  0  0  0
  9 11  1  0  0  0  0
  9 19  1  0  0  0  0
 10 11  1  6  0  0  0
 10 18  1  0  0  0  0
 10 20  1  0  0  0  0
 12 19  2  0  0  0  0
 13  8  1  0  0  0  0
 13 11  1  0  0  0  0
 14 13  2  0  0  0  0
 15 16  2  0  0  0  0
 17  9  2  0  0  0  0
 18 19  1  6  0  0  0
 18 15  1  0  0  0  0
 20  4  1  1  0  0  0
 20 16  1  0  0  0  0
 21  7  1  0  0  0  0
 21 26  1  0  0  0  0
 22 25  1  0  0  0  0
 22 31  1  1  0  0  0
 22 26  1  0  0  0  0
 24 27  1  1  0  0  0
 24 23  1  0  0  0  0
 25 24  1  0  0  0  0
 25 32  1  1  0  0  0
 26 23  1  0  0  0  0
 27 29  1  0  0  0  0
 28 27  2  0  0  0  0
 30 31  1  0  0  0  0
 34 32  1  0  0  0  0
 34 33  1  0  0  0  0
M  END
>  <MODEL>
3

>  <REMARK>
 VINA RESULT:      -7.7      2.055      8.774
  Name = 
  7 active torsions:
  status: ('A' for Active; 'I' for Inactive)
    1  A    between atoms: C_3  and  C_16
    2  A    between atoms: C_6  and  C_7
    3  A    between atoms: C_7  and  C_18
    4  A    between atoms: C_9  and  C_32
    5  A    between atoms: C_12  and  N_27
    6  A    between atoms: C_12  and  C_34
    7  A    between atoms: C_26  and  C_33
                            x       y       z     vdW  Elec       q    Type
                         _______ _______ _______ _____ _____    ______ ____

>  <TORSDO>
F 7

$$$$
=
 OpenBabel11072408283D

 34 37  0  0  1  0  0  0  0  0999 V2000
  191.2030  174.6430  145.4580 C   0  0  0  0  0  3  0  0  0  0  0  0
  193.2340  175.5620  146.4010 C   0  0  0  0  0  3  0  0  0  0  0  0
  191.0760  176.3990  147.1160 C   0  0  0  0  0  3  0  0  0  0  0  0
  192.6030  174.6610  145.5370 C   0  0  0  0  0  0  0  0  0  0  0  0
  192.4710  176.4330  147.1860 C   0  0  0  0  0  0  0  0  0  0  0  0
  193.0860  177.3010  148.0240 F   0  0  0  0  0  0  0  0  0  0  0  0
  190.4380  175.5030  146.2510 C   0  0  0  0  0  0  0  0  0  0  0  0
  194.0810  176.3490  143.0950 O   0  0  0  0  0  1  0  0  0  0  0  0
  196.9410  173.9690  143.8760 C   0  0  0  0  0  0  0  0  0  0  0  0
  194.8940  174.0430  144.8360 C   0  0  2  0  0  3  0  0  0  0  0  0
  195.7200  174.7060  143.8710 N   0  0  0  0  0  0  0  0  0  0  0  0
  197.6370  171.9260  144.9960 O   0  0  0  0  0  0  0  0  0  0  0  0
  195.3430  175.7760  142.9970 C   0  0  0  0  0  0  0  0  0  0  0  0
  196.1560  176.2150  142.1410 O   0  0  0  0  0  0  0  0  0  0  0  0
  194.5560  171.9670  145.6350 N   0  0  0  0  0  0  0  0  0  0  0  0
  193.3960  172.3690  145.2940 N   0  0  0  0  0  0  0  0  0  0  0  0
  197.9400  174.2230  143.1510 O   0  0  0  0  0  0  0  0  0  0  0  0
  195.4860  173.0010  145.3760 C   0  0  1  0  0  3  0  0  0  0  0  0
  196.8180  172.8630  144.8060 C   0  0  0  0  0  0  0  0  0  0  0  0
  193.4390  173.7180  144.7230 C   0  0  1  0  0  3  0  0  0  0  0  0
  188.9350  175.4390  146.2030 C   0  0  0  0  0  2  0  0  0  0  0  0
  187.4120  176.4190  144.6060 C   0  0  2  0  0  3  0  0  0  0  0  0
  187.4540  177.2380  146.8160 C   0  0  0  0  0  2  0  0  0  0  0  0
  186.0220  177.2300  146.3170 C   0  0  2  0  0  3  0  0  0  0  0  0
  186.1280  177.2230  144.8000 C   0  0  1  0  0  3  0  0  0  0  0  0
  188.2910  176.6830  145.7500 N   0  0  0  0  0  0  0  0  0  0  0  0
  185.1800  178.3130  146.9200 C   0  0  0  0  0  0  0  0  0  0  0  0
  185.7630  179.3420  147.6510 O   0  0  0  0  0  1  0  0  0  0  0  0
  183.9360  178.3100  146.7320 O   0  0  0  0  0  0  0  0  0  0  0  0
  187.4930  175.9350  142.2670 O   0  0  0  0  0  1  0  0  0  0  0  0
  188.1340  176.6480  143.2820 C   0  0  0  0  0  2  0  0  0  0  0  0
  186.2520  178.6350  144.2130 C   0  0  0  0  0  2  0  0  0  0  0  0
  184.5970  177.6370  142.8310 O   0  0  0  0  0  1  0  0  0  0  0  0
  185.1860  178.8560  143.1580 C   0  0  0  0  0  2  0  0  0  0  0  0
  1  4  2  0  0  0  0
  1  7  1  0  0  0  0
  2  5  2  0  0  0  0
  3  5  1  0  0  0  0
  4  2  1  0  0  0  0
  5  6  1  0  0  0  0
  7  3  2  0  0  0  0
  9 19  1  0  0  0  0
 10 11  1  6  0  0  0
 10 18  1  0  0  0  0
 11  9  1  0  0  0  0
 13  8  1  0  0  0  0
 13 11  1  0  0  0  0
 14 13  2  0  0  0  0
 16 15  2  0  0  0  0
 17  9  2  0  0  0  0
 18 19  1  6  0  0  0
 18 15  1  0  0  0  0
 19 12  2  0  0  0  0
 20 10  1  0  0  0  0
 20 16  1  0  0  0  0
 20  4  1  1  0  0  0
 21  7  1  0  0  0  0
 22 31  1  6  0  0  0
 22 25  1  0  0  0  0
 22 26  1  0  0  0  0
 24 23  1  0  0  0  0
 24 27  1  6  0  0  0
 25 32  1  1  0  0  0
 25 24  1  0  0  0  0
 26 21  1  0  0  0  0
 26 23  1  0  0  0  0
 27 28  1  0  0  0  0
 29 27  2  0  0  0  0
 30 31  1  0  0  0  0
 33 34  1  0  0  0  0
 34 32  1  0  0  0  0
M  END
>  <MODEL>
4

>  <REMARK>
 VINA RESULT:      -7.6      2.277      3.879
  Name = 
  7 active torsions:
  status: ('A' for Active; 'I' for Inactive)
    1  A    between atoms: C_3  and  C_16
    2  A    between atoms: C_6  and  C_7
    3  A    between atoms: C_7  and  C_18
    4  A    between atoms: C_9  and  C_32
    5  A    between atoms: C_12  and  N_27
    6  A    between atoms: C_12  and  C_34
    7  A    between atoms: C_26  and  C_33
                            x       y       z     vdW  Elec       q    Type
                         _______ _______ _______ _____ _____    ______ ____

>  <TORSDO>
F 7

$$$$
=
 OpenBabel11072408283D

 34 37  0  0  1  0  0  0  0  0999 V2000
  188.4190  177.9050  144.3900 C   0  0  0  0  0  3  0  0  0  0  0  0
  186.5020  177.4810  145.8050 C   0  0  0  0  0  3  0  0  0  0  0  0
  188.6610  176.5410  146.3720 C   0  0  0  0  0  3  0  0  0  0  0  0
  187.0570  178.0870  144.6730 C   0  0  0  0  0  0  0  0  0  0  0  0
  187.3020  176.7040  146.6500 C   0  0  0  0  0  0  0  0  0  0  0  0
  186.7590  176.1220  147.7450 F   0  0  0  0  0  0  0  0  0  0  0  0
  189.2230  177.1420  145.2400 C   0  0  0  0  0  0  0  0  0  0  0  0
  187.9070  177.5960  141.5060 O   0  0  0  0  0  1  0  0  0  0  0  0
  184.1550  177.9250  140.9840 C   0  0  0  0  0  0  0  0  0  0  0  0
  185.3090  178.0970  142.9230 C   0  0  2  0  0  3  0  0  0  0  0  0
  185.4700  177.8170  141.5270 N   0  0  0  0  0  0  0  0  0  0  0  0
  182.0230  178.6070  141.9350 O   0  0  0  0  0  0  0  0  0  0  0  0
  186.6990  177.6210  140.8190 C   0  0  0  0  0  0  0  0  0  0  0  0
  186.6950  177.4570  139.5700 O   0  0  0  0  0  0  0  0  0  0  0  0
  184.0080  179.3550  144.2600 N   0  0  0  0  0  0  0  0  0  0  0  0
  185.1980  179.6610  144.5950 N   0  0  0  0  0  0  0  0  0  0  0  0
  183.8600  177.7620  139.7710 O   0  0  0  0  0  0  0  0  0  0  0  0
  184.0640  178.3740  143.2420 C   0  0  1  0  0  3  0  0  0  0  0  0
  183.2400  178.3010  142.0450 C   0  0  0  0  0  0  0  0  0  0  0  0
  186.1880  178.9360  143.7940 C   0  0  1  0  0  3  0  0  0  0  0  0
  190.6950  176.9980  144.9600 C   0  0  0  0  0  2  0  0  0  0  0  0
  191.1170  174.6320  144.7230 C   0  0  2  0  0  3  0  0  0  0  0  0
  189.9780  175.7800  143.0090 C   0  0  0  0  0  2  0  0  0  0  0  0
  189.3690  174.4010  143.1710 C   0  0  2  0  0  3  0  0  0  0  0  0
  190.4430  173.5700  143.8570 C   0  0  1  0  0  3  0  0  0  0  0  0
  191.0290  175.9150  144.0190 N   0  0  0  0  0  0  0  0  0  0  0  0
  188.8150  173.8450  141.8940 C   0  0  0  0  0  0  0  0  0  0  0  0
  187.9410  172.7650  141.9100 O   0  0  0  0  0  1  0  0  0  0  0  0
  189.1180  174.3850  140.7980 O   0  0  0  0  0  0  0  0  0  0  0  0
  192.7040  174.5670  146.5090 O   0  0  0  0  0  1  0  0  0  0  0  0
  192.5500  174.3220  145.1430 C   0  0  0  0  0  2  0  0  0  0  0  0
  191.4280  172.9440  142.8620 C   0  0  0  0  0  2  0  0  0  0  0  0
  190.4430  170.8020  142.5620 O   0  0  0  0  0  1  0  0  0  0  0  0
  191.5450  171.4540  143.1130 C   0  0  0  0  0  2  0  0  0  0  0  0
  1  4  2  0  0  0  0
  1  7  1  0  0  0  0
  2  5  2  0  0  0  0
  3  5  1  0  0  0  0
  4  2  1  0  0  0  0
  5  6  1  0  0  0  0
  7  3  2  0  0  0  0
  9 11  1  0  0  0  0
  9 19  1  0  0  0  0
 10 11  1  6  0  0  0
 10 18  1  0  0  0  0
 10 20  1  0  0  0  0
 12 19  2  0  0  0  0
 13  8  1  0  0  0  0
 13 11  1  0  0  0  0
 14 13  2  0  0  0  0
 15 16  2  0  0  0  0
 17  9  2  0  0  0  0
 18 19  1  6  0  0  0
 18 15  1  0  0  0  0
 20 16  1  0  0  0  0
 20  4  1  1  0  0  0
 21  7  1  0  0  0  0
 22 31  1  6  0  0  0
 23 24  1  0  0  0  0
 23 26  1  0  0  0  0
 24 27  1  6  0  0  0
 24 25  1  0  0  0  0
 25 32  1  6  0  0  0
 25 22  1  0  0  0  0
 26 22  1  0  0  0  0
 26 21  1  0  0  0  0
 27 28  1  0  0  0  0
 29 27  2  0  0  0  0
 31 30  1  0  0  0  0
 32 34  1  0  0  0  0
 33 34  1  0  0  0  0
M  END
>  <MODEL>
5

>  <REMARK>
 VINA RESULT:      -7.6      2.680      7.907
  Name = 
  7 active torsions:
  status: ('A' for Active; 'I' for Inactive)
    1  A    between atoms: C_3  and  C_16
    2  A    between atoms: C_6  and  C_7
    3  A    between atoms: C_7  and  C_18
    4  A    between atoms: C_9  and  C_32
    5  A    between atoms: C_12  and  N_27
    6  A    between atoms: C_12  and  C_34
    7  A    between atoms: C_26  and  C_33
                            x       y       z     vdW  Elec       q    Type
                         _______ _______ _______ _____ _____    ______ ____

>  <TORSDO>
F 7

$$$$
=
 OpenBabel11072408283D

 34 37  0  0  1  0  0  0  0  0999 V2000
  189.6490  175.6390  144.3020 C   0  0  0  0  0  3  0  0  0  0  0  0
  189.5130  177.8640  143.3600 C   0  0  0  0  0  3  0  0  0  0  0  0
  191.4650  177.2020  144.6320 C   0  0  0  0  0  3  0  0  0  0  0  0
  188.9500  176.5980  143.5540 C   0  0  0  0  0  0  0  0  0  0  0  0
  190.7660  178.1670  143.9020 C   0  0  0  0  0  0  0  0  0  0  0  0
  191.3070  179.3930  143.7090 F   0  0  0  0  0  0  0  0  0  0  0  0
  190.9070  175.9340  144.8330 C   0  0  0  0  0  0  0  0  0  0  0  0
  186.5950  176.9030  145.8680 O   0  0  0  0  0  1  0  0  0  0  0  0
  184.6150  178.2950  142.9360 C   0  0  0  0  0  0  0  0  0  0  0  0
  186.7290  177.4890  142.9280 C   0  0  2  0  0  3  0  0  0  0  0  0
  185.6270  177.7740  143.7960 N   0  0  0  0  0  0  0  0  0  0  0  0
  184.4660  178.5490  140.5220 O   0  0  0  0  0  0  0  0  0  0  0  0
  185.5190  177.4620  145.1900 C   0  0  0  0  0  0  0  0  0  0  0  0
  184.4530  177.7060  145.8160 O   0  0  0  0  0  0  0  0  0  0  0  0
  187.0880  176.8320  140.8050 N   0  0  0  0  0  0  0  0  0  0  0  0
  187.7600  176.0110  141.5100 N   0  0  0  0  0  0  0  0  0  0  0  0
  183.4700  178.6620  143.3090 O   0  0  0  0  0  0  0  0  0  0  0  0
  186.4640  177.7630  141.6690 C   0  0  1  0  0  3  0  0  0  0  0  0
  185.1080  178.2810  141.5720 C   0  0  0  0  0  0  0  0  0  0  0  0
  187.6180  176.2860  142.9420 C   0  0  1  0  0  3  0  0  0  0  0  0
  191.6760  174.8810  145.5860 C   0  0  0  0  0  2  0  0  0  0  0  0
  194.0470  174.4510  145.7410 C   0  0  2  0  0  3  0  0  0  0  0  0
  192.6820  172.9700  144.5180 C   0  0  0  0  0  2  0  0  0  0  0  0
  193.7420  172.1740  145.2550 C   0  0  2  0  0  3  0  0  0  0  0  0
  194.8530  173.1690  145.5510 C   0  0  1  0  0  3  0  0  0  0  0  0
  192.8650  174.3780  144.8770 N   0  0  0  0  0  0  0  0  0  0  0  0
  194.1450  170.9210  144.5380 C   0  0  0  0  0  0  0  0  0  0  0  0
  194.9610  169.9810  145.1560 O   0  0  0  0  0  1  0  0  0  0  0  0
  193.7120  170.7030  143.3770 O   0  0  0  0  0  0  0  0  0  0  0  0
  194.4690  176.6760  146.5070 O   0  0  0  0  0  1  0  0  0  0  0  0
  194.8180  175.7490  145.5230 C   0  0  0  0  0  2  0  0  0  0  0  0
  195.8520  173.2960  144.3930 C   0  0  0  0  0  2  0  0  0  0  0  0
  197.1950  172.3250  146.0960 O   0  0  0  0  0  1  0  0  0  0  0  0
  197.2570  173.0080  144.8830 C   0  0  0  0  0  2  0  0  0  0  0  0
  1  7  1  0  0  0  0
  2  4  1  0  0  0  0
  2  5  2  0  0  0  0
  3  7  2  0  0  0  0
  4  1  2  0  0  0  0
  5  3  1  0  0  0  0
  6  5  1  0  0  0  0
  7 21  1  0  0  0  0
  9 17  2  0  0  0  0
  9 11  1  0  0  0  0
 10 20  1  0  0  0  0
 10 11  1  1  0  0  0
 11 13  1  0  0  0  0
 12 19  2  0  0  0  0
 13 14  2  0  0  0  0
 13  8  1  0  0  0  0
 15 16  2  0  0  0  0
 16 20  1  0  0  0  0
 18 15  1  6  0  0  0
 18 10  1  0  0  0  0
 19 18  1  0  0  0  0
 19  9  1  0  0  0  0
 20  4  1  6  0  0  0
 22 31  1  6  0  0  0
 23 26  1  0  0  0  0
 23 24  1  0  0  0  0
 24 27  1  6  0  0  0
 24 25  1  0  0  0  0
 25 32  1  6  0  0  0
 25 22  1  0  0  0  0
 26 21  1  0  0  0  0
 26 22  1  0  0  0  0
 27 28  1  0  0  0  0
 29 27  2  0  0  0  0
 31 30  1  0  0  0  0
 32 34  1  0  0  0  0
 34 33  1  0  0  0  0
M  END
>  <MODEL>
6

>  <REMARK>
 VINA RESULT:      -7.5      2.401      9.190
  Name = 
  7 active torsions:
  status: ('A' for Active; 'I' for Inactive)
    1  A    between atoms: C_3  and  C_16
    2  A    between atoms: C_6  and  C_7
    3  A    between atoms: C_7  and  C_18
    4  A    between atoms: C_9  and  C_32
    5  A    between atoms: C_12  and  N_27
    6  A    between atoms: C_12  and  C_34
    7  A    between atoms: C_26  and  C_33
                            x       y       z     vdW  Elec       q    Type
                         _______ _______ _______ _____ _____    ______ ____

>  <TORSDO>
F 7

$$$$
=
 OpenBabel11072408283D

 34 37  0  0  1  0  0  0  0  0999 V2000
  190.9720  175.0490  145.0730 C   0  0  0  0  0  3  0  0  0  0  0  0
  192.6800  175.8040  146.6130 C   0  0  0  0  0  3  0  0  0  0  0  0
  190.3810  176.5060  146.9110 C   0  0  0  0  0  3  0  0  0  0  0  0
  192.3120  175.0570  145.4890 C   0  0  0  0  0  0  0  0  0  0  0  0
  191.7170  176.5310  147.3200 C   0  0  0  0  0  0  0  0  0  0  0  0
  192.0780  177.2510  148.4080 F   0  0  0  0  0  0  0  0  0  0  0  0
  190.0050  175.7630  145.7850 C   0  0  0  0  0  0  0  0  0  0  0  0
  192.7810  176.3780  142.4840 O   0  0  0  0  0  1  0  0  0  0  0  0
  196.3940  175.4370  143.1990 C   0  0  0  0  0  0  0  0  0  0  0  0
  194.5810  175.0810  144.5050 C   0  0  2  0  0  3  0  0  0  0  0  0
  194.9910  175.6820  143.2710 N   0  0  0  0  0  0  0  0  0  0  0  0
  197.9240  174.1590  144.5910 O   0  0  0  0  0  0  0  0  0  0  0  0
  194.1480  176.2650  142.2690 C   0  0  0  0  0  0  0  0  0  0  0  0
  194.6420  176.6910  141.1920 O   0  0  0  0  0  0  0  0  0  0  0  0
  195.1410  173.3320  145.8050 N   0  0  0  0  0  0  0  0  0  0  0  0
  193.8870  173.2020  145.6190 N   0  0  0  0  0  0  0  0  0  0  0  0
  197.1420  175.7970  142.2520 O   0  0  0  0  0  0  0  0  0  0  0  0
  195.5770  174.5010  145.1380 C   0  0  1  0  0  3  0  0  0  0  0  0
  196.7960  174.6680  144.3610 C   0  0  0  0  0  0  0  0  0  0  0  0
  193.3560  174.2640  144.7610 C   0  0  1  0  0  3  0  0  0  0  0  0
  188.5610  175.7040  145.3670 C   0  0  0  0  0  2  0  0  0  0  0  0
  187.5560  176.0600  143.2000 C   0  0  2  0  0  3  0  0  0  0  0  0
  187.1980  177.6380  144.9130 C   0  0  0  0  0  2  0  0  0  0  0  0
  185.9220  177.4820  144.1080 C   0  0  2  0  0  3  0  0  0  0  0  0
  186.3630  176.9100  142.7690 C   0  0  1  0  0  3  0  0  0  0  0  0
  188.1820  176.7070  144.3570 N   0  0  0  0  0  0  0  0  0  0  0  0
  185.0980  178.7320  144.0580 C   0  0  0  0  0  0  0  0  0  0  0  0
  185.6420  179.9570  144.4260 O   0  0  0  0  0  1  0  0  0  0  0  0
  183.9100  178.6770  143.6450 O   0  0  0  0  0  0  0  0  0  0  0  0
  188.6510  174.3850  141.8930 O   0  0  0  0  0  1  0  0  0  0  0  0
  188.5770  175.7620  142.1060 C   0  0  0  0  0  2  0  0  0  0  0  0
  186.7760  178.0000  141.7720 C   0  0  0  0  0  2  0  0  0  0  0  0
  186.6410  177.4820  139.4580 O   0  0  0  0  0  1  0  0  0  0  0  0
  185.8950  177.9420  140.5410 C   0  0  0  0  0  2  0  0  0  0  0  0
  1  4  2  0  0  0  0
  1  7  1  0  0  0  0
  2  5  2  0  0  0  0
  3  5  1  0  0  0  0
  4  2  1  0  0  0  0
  5  6  1  0  0  0  0
  7  3  2  0  0  0  0
  9 11  1  0  0  0  0
  9 19  1  0  0  0  0
 10 11  1  6  0  0  0
 10 20  1  0  0  0  0
 10 18  1  0  0  0  0
 13  8  1  0  0  0  0
 13 11  1  0  0  0  0
 14 13  2  0  0  0  0
 16 15  2  0  0  0  0
 17  9  2  0  0  0  0
 18 19  1  6  0  0  0
 18 15  1  0  0  0  0
 19 12  2  0  0  0  0
 20  4  1  1  0  0  0
 20 16  1  0  0  0  0
 21  7  1  0  0  0  0
 22 31  1  6  0  0  0
 22 26  1  0  0  0  0
 24 27  1  6  0  0  0
 24 23  1  0  0  0  0
 25 32  1  6  0  0  0
 25 22  1  0  0  0  0
 25 24  1  0  0  0  0
 26 23  1  0  0  0  0
 26 21  1  0  0  0  0
 27 28  1  0  0  0  0
 29 27  2  0  0  0  0
 30 31  1  0  0  0  0
 33 34  1  0  0  0  0
 34 32  1  0  0  0  0
M  END
>  <MODEL>
7

>  <REMARK>
 VINA RESULT:      -7.5      2.133      3.206
  Name = 
  7 active torsions:
  status: ('A' for Active; 'I' for Inactive)
    1  A    between atoms: C_3  and  C_16
    2  A    between atoms: C_6  and  C_7
    3  A    between atoms: C_7  and  C_18
    4  A    between atoms: C_9  and  C_32
    5  A    between atoms: C_12  and  N_27
    6  A    between atoms: C_12  and  C_34
    7  A    between atoms: C_26  and  C_33
                            x       y       z     vdW  Elec       q    Type
                         _______ _______ _______ _____ _____    ______ ____

>  <TORSDO>
F 7

$$$$
=
 OpenBabel11072408283D

 34 37  0  0  1  0  0  0  0  0999 V2000
  190.0210  175.5830  143.1290 C   0  0  0  0  0  3  0  0  0  0  0  0
  189.5010  177.8840  143.6690 C   0  0  0  0  0  3  0  0  0  0  0  0
  191.8030  177.2040  143.3430 C   0  0  0  0  0  3  0  0  0  0  0  0
  189.0730  176.5780  143.4100 C   0  0  0  0  0  0  0  0  0  0  0  0
  190.8640  178.1960  143.6400 C   0  0  0  0  0  0  0  0  0  0  0  0
  191.2730  179.4620  143.8880 F   0  0  0  0  0  0  0  0  0  0  0  0
  191.3830  175.8940  143.0860 C   0  0  0  0  0  0  0  0  0  0  0  0
  188.0630  176.2110  146.5470 O   0  0  0  0  0  0  0  0  0  0  0  0
  184.9630  177.9610  145.2120 C   0  0  0  0  0  0  0  0  0  0  0  0
  186.8240  177.3670  144.0710 C   0  0  2  0  0  3  0  0  0  0  0  0
  186.2530  177.3760  145.3840 N   0  0  0  0  0  0  0  0  0  0  0  0
  183.7140  178.6650  143.2490 O   0  0  0  0  0  0  0  0  0  0  0  0
  186.8010  176.7910  146.5710 C   0  0  0  0  0  0  0  0  0  0  0  0
  186.1490  176.8100  147.6490 O   0  0  0  0  0  1  0  0  0  0  0  0
  186.1510  177.1720  141.9320 N   0  0  0  0  0  0  0  0  0  0  0  0
  187.0650  176.2930  142.0590 N   0  0  0  0  0  0  0  0  0  0  0  0
  184.1250  178.1430  146.1340 O   0  0  0  0  0  0  0  0  0  0  0  0
  186.0080  177.8560  143.1620 C   0  0  1  0  0  3  0  0  0  0  0  0
  184.7660  178.2570  143.8060 C   0  0  0  0  0  0  0  0  0  0  0  0
  187.6050  176.2700  143.4210 C   0  0  1  0  0  3  0  0  0  0  0  0
  192.3900  174.8340  142.7280 C   0  0  0  0  0  2  0  0  0  0  0  0
  193.9120  174.1830  144.4860 C   0  0  2  0  0  3  0  0  0  0  0  0
  194.7650  174.6880  142.3480 C   0  0  0  0  0  2  0  0  0  0  0  0
  195.5450  173.5260  142.9310 C   0  0  2  0  0  3  0  0  0  0  0  0
  195.3290  173.6150  144.4340 C   0  0  1  0  0  3  0  0  0  0  0  0
  193.7240  175.0450  143.3150 N   0  0  0  0  0  0  0  0  0  0  0  0
  196.9690  173.4770  142.4670 C   0  0  0  0  0  0  0  0  0  0  0  0
  197.7750  172.3840  142.7610 O   0  0  0  0  0  1  0  0  0  0  0  0
  197.4290  174.4210  141.7730 O   0  0  0  0  0  0  0  0  0  0  0  0
  192.2570  174.5410  146.1730 O   0  0  0  0  0  1  0  0  0  0  0  0
  193.5440  174.9080  145.7770 C   0  0  0  0  0  2  0  0  0  0  0  0
  196.3370  174.5460  145.1190 C   0  0  0  0  0  2  0  0  0  0  0  0
  196.7780  172.4320  146.1080 O   0  0  0  0  0  1  0  0  0  0  0  0
  197.1500  173.7750  146.1390 C   0  0  0  0  0  2  0  0  0  0  0  0
  1  4  1  0  0  0  0
  3  5  2  0  0  0  0
  4  2  2  0  0  0  0
  5  2  1  0  0  0  0
  5  6  1  0  0  0  0
  7  1  2  0  0  0  0
  7  3  1  0  0  0  0
  8 13  2  0  0  0  0
  9 11  1  0  0  0  0
  9 17  2  0  0  0  0
 10 11  1  1  0  0  0
 11 13  1  0  0  0  0
 12 19  2  0  0  0  0
 13 14  1  0  0  0  0
 15 16  2  0  0  0  0
 16 20  1  0  0  0  0
 18 15  1  6  0  0  0
 18 19  1  0  0  0  0
 18 10  1  0  0  0  0
 19  9  1  0  0  0  0
 20  4  1  6  0  0  0
 20 10  1  0  0  0  0
 21  7  1  0  0  0  0
 21 26  1  0  0  0  0
 22 31  1  1  0  0  0
 23 24  1  0  0  0  0
 23 26  1  0  0  0  0
 24 27  1  1  0  0  0
 24 25  1  0  0  0  0
 25 22  1  0  0  0  0
 25 32  1  6  0  0  0
 26 22  1  0  0  0  0
 27 28  1  0  0  0  0
 29 27  2  0  0  0  0
 31 30  1  0  0  0  0
 32 34  1  0  0  0  0
 33 34  1  0  0  0  0
M  END
>  <MODEL>
8

>  <REMARK>
 VINA RESULT:      -7.4      2.727      9.111
  Name = 
  7 active torsions:
  status: ('A' for Active; 'I' for Inactive)
    1  A    between atoms: C_3  and  C_16
    2  A    between atoms: C_6  and  C_7
    3  A    between atoms: C_7  and  C_18
    4  A    between atoms: C_9  and  C_32
    5  A    between atoms: C_12  and  N_27
    6  A    between atoms: C_12  and  C_34
    7  A    between atoms: C_26  and  C_33
                            x       y       z     vdW  Elec       q    Type
                         _______ _______ _______ _____ _____    ______ ____

>  <TORSDO>
F 7

$$$$
=
 OpenBabel11072408283D

 34 37  0  0  1  0  0  0  0  0999 V2000
  190.0620  175.7500  143.2580 C   0  0  0  0  0  3  0  0  0  0  0  0
  189.9690  173.3320  143.1970 C   0  0  0  0  0  3  0  0  0  0  0  0
  188.2790  174.6410  142.0570 C   0  0  0  0  0  3  0  0  0  0  0  0
  190.6040  174.5070  143.6150 C   0  0  0  0  0  0  0  0  0  0  0  0
  188.8050  173.4000  142.4240 C   0  0  0  0  0  0  0  0  0  0  0  0
  188.1960  172.2600  142.0200 F   0  0  0  0  0  0  0  0  0  0  0  0
  188.9070  175.8200  142.4740 C   0  0  0  0  0  0  0  0  0  0  0  0
  193.1970  174.3020  141.5580 O   0  0  0  0  0  0  0  0  0  0  0  0
  194.8270  176.4700  144.2220 C   0  0  0  0  0  0  0  0  0  0  0  0
  192.7330  175.6120  144.2180 C   0  0  2  0  0  3  0  0  0  0  0  0
  193.9220  175.7080  143.4250 N   0  0  0  0  0  0  0  0  0  0  0  0
  194.7060  177.3370  146.4910 O   0  0  0  0  0  0  0  0  0  0  0  0
  194.1860  175.0560  142.1770 C   0  0  0  0  0  0  0  0  0  0  0  0
  195.3110  175.1730  141.6240 O   0  0  0  0  0  1  0  0  0  0  0  0
  192.1490  175.5050  146.3880 N   0  0  0  0  0  0  0  0  0  0  0  0
  191.5680  174.5060  145.8540 N   0  0  0  0  0  0  0  0  0  0  0  0
  196.0020  176.7740  143.8890 O   0  0  0  0  0  0  0  0  0  0  0  0
  192.8550  176.2080  145.3840 C   0  0  1  0  0  3  0  0  0  0  0  0
  194.1870  176.7850  145.4850 C   0  0  0  0  0  0  0  0  0  0  0  0
  191.8640  174.4120  144.4220 C   0  0  1  0  0  3  0  0  0  0  0  0
  188.3640  177.1580  142.0470 C   0  0  0  0  0  2  0  0  0  0  0  0
  186.2730  177.5810  143.1800 C   0  0  2  0  0  3  0  0  0  0  0  0
  188.2750  177.5530  144.4230 C   0  0  0  0  0  2  0  0  0  0  0  0
  187.1710  176.9160  145.2450 C   0  0  2  0  0  3  0  0  0  0  0  0
  185.8750  177.4410  144.6470 C   0  0  1  0  0  3  0  0  0  0  0  0
  187.7000  177.9120  143.1250 N   0  0  0  0  0  0  0  0  0  0  0  0
  187.3480  177.1090  146.7210 C   0  0  0  0  0  0  0  0  0  0  0  0
  186.5220  176.4540  147.6260 O   0  0  0  0  0  1  0  0  0  0  0  0
  188.2760  177.8460  147.1440 O   0  0  0  0  0  0  0  0  0  0  0  0
  184.1830  178.0160  142.1050 O   0  0  0  0  0  1  0  0  0  0  0  0
  185.4400  178.5650  142.3650 C   0  0  0  0  0  2  0  0  0  0  0  0
  185.4530  178.7880  145.2480 C   0  0  0  0  0  2  0  0  0  0  0  0
  184.1810  178.6020  147.2460 O   0  0  0  0  0  1  0  0  0  0  0  0
  184.0700  178.6760  145.8590 C   0  0  0  0  0  2  0  0  0  0  0  0
  1  4  1  0  0  0  0
  2  4  2  0  0  0  0
  3  5  2  0  0  0  0
  3  7  1  0  0  0  0
  5  2  1  0  0  0  0
  6  5  1  0  0  0  0
  7  1  2  0  0  0  0
  8 13  2  0  0  0  0
  9 19  1  0  0  0  0
 10 11  1  1  0  0  0
 10 20  1  0  0  0  0
 10 18  1  0  0  0  0
 11  9  1  0  0  0  0
 13 11  1  0  0  0  0
 14 13  1  0  0  0  0
 16 15  2  0  0  0  0
 17  9  2  0  0  0  0
 18 19  1  1  0  0  0
 18 15  1  0  0  0  0
 19 12  2  0  0  0  0
 20  4  1  6  0  0  0
 20 16  1  0  0  0  0
 21  7  1  0  0  0  0
 21 26  1  0  0  0  0
 22 31  1  1  0  0  0
 22 25  1  0  0  0  0
 23 24  1  0  0  0  0
 24 27  1  1  0  0  0
 25 24  1  0  0  0  0
 25 32  1  1  0  0  0
 26 22  1  0  0  0  0
 26 23  1  0  0  0  0
 27 29  2  0  0  0  0
 27 28  1  0  0  0  0
 30 31  1  0  0  0  0
 32 34  1  0  0  0  0
 34 33  1  0  0  0  0
M  END
>  <MODEL>
9

>  <REMARK>
 VINA RESULT:      -7.4      2.308      3.858
  Name = 
  7 active torsions:
  status: ('A' for Active; 'I' for Inactive)
    1  A    between atoms: C_3  and  C_16
    2  A    between atoms: C_6  and  C_7
    3  A    between atoms: C_7  and  C_18
    4  A    between atoms: C_9  and  C_32
    5  A    between atoms: C_12  and  N_27
    6  A    between atoms: C_12  and  C_34
    7  A    between atoms: C_26  and  C_33
                            x       y       z     vdW  Elec       q    Type
                         _______ _______ _______ _____ _____    ______ ____

>  <TORSDO>
F 7

$$$$
