=
 OpenBabel11072408353D

 26 30  0  0  1  0  0  0  0  0999 V2000
  188.2220  174.9770  140.7040 C   0  0  0  0  0  2  0  0  0  0  0  0
  189.1980  174.5000  142.7830 C   0  0  0  0  0  2  0  0  0  0  0  0
  186.9120  177.4430  144.0050 C   0  0  2  0  0  3  0  0  0  0  0  0
  186.2280  179.0660  142.4170 O   0  0  0  0  0  0  0  0  0  0  0  0
  186.7020  177.9540  142.5830 C   0  0  0  0  0  0  0  0  0  0  0  0
  187.8780  176.2340  144.1710 C   0  0  1  0  0  3  0  0  0  0  0  0
  187.5240  175.7640  141.7810 C   0  0  1  0  0  3  0  0  0  0  0  0
  188.5590  175.8670  142.8460 C   0  0  2  0  0  3  0  0  0  0  0  0
  187.0970  177.1550  141.3660 C   0  0  0  0  0  2  0  0  0  0  0  0
  189.1470  174.0710  141.3840 N   0  0  0  0  0  2  0  0  0  0  0  0
  191.3930  176.6140  145.2990 C   0  0  0  0  0  0  0  0  0  0  0  0
  193.8630  175.4570  146.2120 C   0  0  0  0  0  2  0  0  0  0  0  0
  188.9110  176.5260  145.2760 C   0  0  1  0  0  3  0  0  0  0  0  0
  191.4080  175.7300  146.4840 C   0  0  0  0  0  0  0  0  0  0  0  0
  190.2900  175.1300  146.8840 C   0  0  0  0  0  3  0  0  0  0  0  0
  192.6760  177.0980  144.7680 C   0  0  0  0  0  3  0  0  0  0  0  0
  192.7010  175.5180  147.2100 C   0  0  0  0  0  2  0  0  0  0  0  0
  189.0650  175.3830  146.1860 N   0  0  0  0  0  2  0  0  0  0  0  0
  193.8290  176.5970  145.2240 C   0  0  0  0  0  3  0  0  0  0  0  0
  190.2450  176.9490  144.7070 C   0  0  0  0  0  3  0  0  0  0  0  0
  185.5800  177.1100  144.6650 C   0  0  0  0  0  2  0  0  0  0  0  0
  184.0600  178.8320  145.6950 C   0  0  0  0  0  2  0  0  0  0  0  0
  185.3480  179.4090  145.6390 O   0  0  0  0  0  0  0  0  0  0  0  0
  185.2790  178.0200  145.8500 C   0  0  2  0  0  0  0  0  0  0  0  0
  186.6340  178.2490  147.6370 C   0  0  0  0  0  1  0  0  0  0  0  0
  185.4880  177.5930  147.1720 O   0  0  0  0  0  0  0  0  0  0  0  0
  1 10  1  0  0  0  0
  3  6  1  0  0  0  0
  3 21  1  6  0  0  0
  4  5  2  0  0  0  0
  5  3  1  0  0  0  0
  6 13  1  1  0  0  0
  7  1  1  6  0  0  0
  7  8  1  0  0  0  0
  8  2  1  1  0  0  0
  8  6  1  0  0  0  0
  9  7  1  0  0  0  0
  9  5  1  0  0  0  0
 10  2  1  0  0  0  0
 11 14  1  0  0  0  0
 12 17  1  0  0  0  0
 13 20  1  6  0  0  0
 13 18  1  0  0  0  0
 14 15  2  0  0  0  0
 14 17  1  0  0  0  0
 16 19  2  0  0  0  0
 16 11  1  0  0  0  0
 18 15  1  0  0  0  0
 19 12  1  0  0  0  0
 20 11  2  0  0  0  0
 22 24  1  0  0  0  0
 23 22  1  0  0  0  0
 23 24  1  0  0  0  0
 24 21  1  6  0  0  0
 24 26  1  0  0  0  0
 26 25  1  0  0  0  0
M  END
>  <MODEL>
1

>  <REMARK>
 VINA RESULT:      -7.3      0.000      0.000
  Name = 
  4 active torsions:
  status: ('A' for Active; 'I' for Inactive)
    1  A    between atoms: O_5  and  C_18
    2  A    between atoms: C_7  and  C_14
    3  A    between atoms: C_10  and  C_19
    4  A    between atoms: C_14  and  C_18
                            x       y       z     vdW  Elec       q    Type
                         _______ _______ _______ _____ _____    ______ ____

>  <TORSDO>
F 4

$$$$
=
 OpenBabel11072408353D

 26 30  0  0  1  0  0  0  0  0999 V2000
  185.0090  178.1950  140.5650 C   0  0  0  0  0  2  0  0  0  0  0  0
  186.9760  176.9220  140.4610 C   0  0  0  0  0  2  0  0  0  0  0  0
  187.1390  177.7220  144.2970 C   0  0  2  0  0  3  0  0  0  0  0  0
  186.0240  179.6600  145.0880 O   0  0  0  0  0  0  0  0  0  0  0  0
  186.1450  178.8730  144.1640 C   0  0  0  0  0  0  0  0  0  0  0  0
  187.5580  177.0120  142.9770 C   0  0  1  0  0  3  0  0  0  0  0  0
  185.5210  177.9450  141.9580 C   0  0  1  0  0  3  0  0  0  0  0  0
  186.9770  177.7180  141.7450 C   0  0  2  0  0  3  0  0  0  0  0  0
  185.3330  179.1030  142.9140 C   0  0  0  0  0  2  0  0  0  0  0  0
  185.8440  177.4000  139.6650 N   0  0  0  0  0  2  0  0  0  0  0  0
  190.7880  175.7220  144.2720 C   0  0  0  0  0  0  0  0  0  0  0  0
  193.0000  175.9080  146.1020 C   0  0  0  0  0  2  0  0  0  0  0  0
  189.0920  176.9030  142.8950 C   0  0  1  0  0  3  0  0  0  0  0  0
  191.5750  176.9690  144.3630 C   0  0  0  0  0  0  0  0  0  0  0  0
  191.0540  178.1200  143.9450 C   0  0  0  0  0  3  0  0  0  0  0  0
  191.3110  174.5110  144.9230 C   0  0  0  0  0  3  0  0  0  0  0  0
  192.9550  176.9110  144.9430 C   0  0  0  0  0  2  0  0  0  0  0  0
  189.7450  178.1330  143.3660 N   0  0  0  0  0  2  0  0  0  0  0  0
  192.3690  174.5860  145.7370 C   0  0  0  0  0  3  0  0  0  0  0  0
  189.6160  175.6950  143.6340 C   0  0  0  0  0  3  0  0  0  0  0  0
  186.6330  176.6790  145.2850 C   0  0  0  0  0  2  0  0  0  0  0  0
  186.3150  176.7310  147.7810 C   0  0  0  0  0  2  0  0  0  0  0  0
  186.9100  177.9610  147.4220 O   0  0  0  0  0  0  0  0  0  0  0  0
  187.2680  176.8320  146.6630 C   0  0  2  0  0  0  0  0  0  0  0  0
  189.4110  177.3330  147.1470 C   0  0  0  0  0  1  0  0  0  0  0  0
  188.5200  176.2700  146.9580 O   0  0  0  0  0  0  0  0  0  0  0  0
  3 21  1  1  0  0  0
  5  3  1  0  0  0  0
  5  4  2  0  0  0  0
  6 13  1  6  0  0  0
  6  3  1  0  0  0  0
  7  1  1  6  0  0  0
  7  9  1  0  0  0  0
  8  2  1  6  0  0  0
  8  7  1  0  0  0  0
  8  6  1  0  0  0  0
  9  5  1  0  0  0  0
 10  2  1  0  0  0  0
 10  1  1  0  0  0  0
 11 14  1  0  0  0  0
 11 16  1  0  0  0  0
 13 18  1  0  0  0  0
 13 20  1  1  0  0  0
 14 17  1  0  0  0  0
 15 14  2  0  0  0  0
 16 19  2  0  0  0  0
 17 12  1  0  0  0  0
 18 15  1  0  0  0  0
 19 12  1  0  0  0  0
 20 11  2  0  0  0  0
 23 22  1  0  0  0  0
 24 21  1  6  0  0  0
 24 26  1  0  0  0  0
 24 23  1  0  0  0  0
 24 22  1  0  0  0  0
 26 25  1  0  0  0  0
M  END
>  <MODEL>
2

>  <REMARK>
 VINA RESULT:      -7.3      1.966      2.936
  Name = 
  4 active torsions:
  status: ('A' for Active; 'I' for Inactive)
    1  A    between atoms: O_5  and  C_18
    2  A    between atoms: C_7  and  C_14
    3  A    between atoms: C_10  and  C_19
    4  A    between atoms: C_14  and  C_18
                            x       y       z     vdW  Elec       q    Type
                         _______ _______ _______ _____ _____    ______ ____

>  <TORSDO>
F 4

$$$$
=
 OpenBabel11072408353D

 26 30  0  0  1  0  0  0  0  0999 V2000
  183.8580  178.9670  145.0520 C   0  0  0  0  0  2  0  0  0  0  0  0
  185.1940  178.1290  143.3160 C   0  0  0  0  0  2  0  0  0  0  0  0
  187.7330  177.4530  146.2270 C   0  0  2  0  0  3  0  0  0  0  0  0
  187.5620  178.7670  148.1930 O   0  0  0  0  0  0  0  0  0  0  0  0
  187.0060  178.4090  147.1680 C   0  0  0  0  0  0  0  0  0  0  0  0
  187.1810  177.3570  144.7740 C   0  0  1  0  0  3  0  0  0  0  0  0
  185.0720  178.2920  145.6320 C   0  0  1  0  0  3  0  0  0  0  0  0
  186.0630  178.3790  144.5250 C   0  0  2  0  0  3  0  0  0  0  0  0
  185.6390  178.9680  146.8610 C   0  0  0  0  0  2  0  0  0  0  0  0
  183.8780  178.6980  143.6140 N   0  0  0  0  0  2  0  0  0  0  0  0
  190.0050  175.9340  142.8320 C   0  0  0  0  0  0  0  0  0  0  0  0
  192.7640  175.1390  142.6510 C   0  0  0  0  0  2  0  0  0  0  0  0
  188.3280  177.5140  143.7580 C   0  0  1  0  0  3  0  0  0  0  0  0
  191.0800  176.8990  143.1460 C   0  0  0  0  0  0  0  0  0  0  0  0
  190.8200  177.9690  143.8940 C   0  0  0  0  0  3  0  0  0  0  0  0
  190.3670  174.6680  142.1780 C   0  0  0  0  0  3  0  0  0  0  0  0
  192.4580  176.6410  142.6190 C   0  0  0  0  0  2  0  0  0  0  0  0
  189.4840  178.2010  144.3530 N   0  0  0  0  0  2  0  0  0  0  0  0
  191.6510  174.3170  142.0490 C   0  0  0  0  0  3  0  0  0  0  0  0
  188.7360  176.1920  143.1540 C   0  0  0  0  0  3  0  0  0  0  0  0
  187.8050  176.0530  146.8250 C   0  0  0  0  0  2  0  0  0  0  0  0
  189.4490  174.2280  146.2770 C   0  0  0  0  0  2  0  0  0  0  0  0
  189.4650  174.3800  147.6810 O   0  0  0  0  0  0  0  0  0  0  0  0
  189.2370  175.5380  146.9150 C   0  0  2  0  0  0  0  0  0  0  0  0
  190.8580  176.6140  148.0530 C   0  0  0  0  0  1  0  0  0  0  0  0
  190.3360  176.4010  146.7710 O   0  0  0  0  0  0  0  0  0  0  0  0
  2 10  1  0  0  0  0
  3 21  1  1  0  0  0
  3  5  1  0  0  0  0
  5  4  2  0  0  0  0
  6 13  1  6  0  0  0
  6  3  1  0  0  0  0
  7  1  1  6  0  0  0
  7  9  1  0  0  0  0
  8  2  1  6  0  0  0
  8  6  1  0  0  0  0
  8  7  1  0  0  0  0
  9  5  1  0  0  0  0
 10  1  1  0  0  0  0
 11 14  1  0  0  0  0
 11 20  2  0  0  0  0
 13 20  1  1  0  0  0
 13 18  1  0  0  0  0
 14 15  2  0  0  0  0
 15 18  1  0  0  0  0
 16 11  1  0  0  0  0
 17 12  1  0  0  0  0
 17 14  1  0  0  0  0
 19 16  2  0  0  0  0
 19 12  1  0  0  0  0
 22 24  1  0  0  0  0
 22 23  1  0  0  0  0
 24 21  1  6  0  0  0
 24 23  1  0  0  0  0
 26 24  1  0  0  0  0
 26 25  1  0  0  0  0
M  END
>  <MODEL>
3

>  <REMARK>
 VINA RESULT:      -7.0      2.537      4.762
  Name = 
  4 active torsions:
  status: ('A' for Active; 'I' for Inactive)
    1  A    between atoms: O_5  and  C_18
    2  A    between atoms: C_7  and  C_14
    3  A    between atoms: C_10  and  C_19
    4  A    between atoms: C_14  and  C_18
                            x       y       z     vdW  Elec       q    Type
                         _______ _______ _______ _____ _____    ______ ____

>  <TORSDO>
F 4

$$$$
=
 OpenBabel11072408353D

 26 30  0  0  1  0  0  0  0  0999 V2000
  194.8740  175.4320  145.3550 C   0  0  0  0  0  2  0  0  0  0  0  0
  193.0980  176.4170  146.5290 C   0  0  0  0  0  2  0  0  0  0  0  0
  190.9830  175.1060  143.4980 C   0  0  2  0  0  3  0  0  0  0  0  0
  192.0870  174.7450  141.4310 O   0  0  0  0  0  0  0  0  0  0  0  0
  192.2240  174.9200  142.6310 C   0  0  0  0  0  0  0  0  0  0  0  0
  191.2090  175.7260  144.9080 C   0  0  1  0  0  3  0  0  0  0  0  0
  193.5700  175.0610  144.7000 C   0  0  1  0  0  3  0  0  0  0  0  0
  192.6650  176.1720  145.1040 C   0  0  2  0  0  3  0  0  0  0  0  0
  193.6240  174.9850  143.1900 C   0  0  0  0  0  2  0  0  0  0  0  0
  194.5340  176.1360  146.5900 N   0  0  0  0  0  2  0  0  0  0  0  0
  187.8940  176.9970  145.9880 C   0  0  0  0  0  0  0  0  0  0  0  0
  185.1230  177.5390  145.4330 C   0  0  0  0  0  2  0  0  0  0  0  0
  190.2260  176.8890  145.1410 C   0  0  1  0  0  3  0  0  0  0  0  0
  187.5160  177.8280  144.8250 C   0  0  0  0  0  0  0  0  0  0  0  0
  188.3640  177.9830  143.8110 C   0  0  0  0  0  3  0  0  0  0  0  0
  186.8650  176.6840  146.9910 C   0  0  0  0  0  3  0  0  0  0  0  0
  186.1650  178.4740  144.8070 C   0  0  0  0  0  2  0  0  0  0  0  0
  189.6600  177.3780  143.8760 N   0  0  0  0  0  2  0  0  0  0  0  0
  185.5820  176.9770  146.7570 C   0  0  0  0  0  3  0  0  0  0  0  0
  189.1340  176.5210  146.1170 C   0  0  0  0  0  3  0  0  0  0  0  0
  190.2240  173.7930  143.6490 C   0  0  0  0  0  2  0  0  0  0  0  0
  188.5340  172.3050  142.5240 C   0  0  0  0  0  2  0  0  0  0  0  0
  189.3180  172.8760  141.4980 O   0  0  0  0  0  0  0  0  0  0  0  0
  189.0880  173.6640  142.6400 C   0  0  2  0  0  0  0  0  0  0  0  0
  188.2860  175.2340  141.2350 C   0  0  0  0  0  1  0  0  0  0  0  0
  188.1140  174.6660  142.5040 O   0  0  0  0  0  0  0  0  0  0  0  0
  1 10  1  0  0  0  0
  2 10  1  0  0  0  0
  3 21  1  1  0  0  0
  3  6  1  0  0  0  0
  4  5  2  0  0  0  0
  5  9  1  0  0  0  0
  5  3  1  0  0  0  0
  6  8  1  0  0  0  0
  6 13  1  6  0  0  0
  7  9  1  6  0  0  0
  7  8  1  0  0  0  0
  7  1  1  0  0  0  0
  8  2  1  1  0  0  0
 11 20  2  0  0  0  0
 11 16  1  0  0  0  0
 12 19  1  0  0  0  0
 13 20  1  1  0  0  0
 14 11  1  0  0  0  0
 15 18  1  0  0  0  0
 15 14  2  0  0  0  0
 17 14  1  0  0  0  0
 17 12  1  0  0  0  0
 18 13  1  0  0  0  0
 19 16  2  0  0  0  0
 22 24  1  0  0  0  0
 23 22  1  0  0  0  0
 23 24  1  0  0  0  0
 24 21  1  1  0  0  0
 25 26  1  0  0  0  0
 26 24  1  0  0  0  0
M  END
>  <MODEL>
4

>  <REMARK>
 VINA RESULT:      -7.0      2.884      6.326
  Name = 
  4 active torsions:
  status: ('A' for Active; 'I' for Inactive)
    1  A    between atoms: O_5  and  C_18
    2  A    between atoms: C_7  and  C_14
    3  A    between atoms: C_10  and  C_19
    4  A    between atoms: C_14  and  C_18
                            x       y       z     vdW  Elec       q    Type
                         _______ _______ _______ _____ _____    ______ ____

>  <TORSDO>
F 4

$$$$
=
 OpenBabel11072408353D

 26 30  0  0  1  0  0  0  0  0999 V2000
  188.5330  173.3910  141.0970 C   0  0  0  0  0  2  0  0  0  0  0  0
  188.2490  175.7180  141.0500 C   0  0  0  0  0  2  0  0  0  0  0  0
  190.0890  175.5420  144.5080 C   0  0  2  0  0  3  0  0  0  0  0  0
  189.9800  173.5170  145.7360 O   0  0  0  0  0  0  0  0  0  0  0  0
  189.8130  174.0490  144.6510 C   0  0  0  0  0  0  0  0  0  0  0  0
  189.4790  176.2440  143.2600 C   0  0  1  0  0  3  0  0  0  0  0  0
  189.2990  174.0140  142.2330 C   0  0  1  0  0  3  0  0  0  0  0  0
  188.5750  175.2950  142.4620 C   0  0  2  0  0  3  0  0  0  0  0  0
  189.2980  173.2060  143.5110 C   0  0  0  0  0  2  0  0  0  0  0  0
  188.0290  174.4930  140.2790 N   0  0  0  0  0  2  0  0  0  0  0  0
  186.8690  177.9490  145.2720 C   0  0  0  0  0  0  0  0  0  0  0  0
  184.1280  178.7290  145.6640 C   0  0  0  0  0  2  0  0  0  0  0  0
  188.7270  177.5200  143.6810 C   0  0  1  0  0  3  0  0  0  0  0  0
  186.1550  178.7080  144.2250 C   0  0  0  0  0  0  0  0  0  0  0  0
  186.5880  178.6820  142.9670 C   0  0  0  0  0  3  0  0  0  0  0  0
  186.2520  177.8360  146.6020 C   0  0  0  0  0  3  0  0  0  0  0  0
  184.9340  179.4900  144.6050 C   0  0  0  0  0  2  0  0  0  0  0  0
  187.7770  177.9520  142.6460 N   0  0  0  0  0  2  0  0  0  0  0  0
  184.9930  178.2420  146.8000 C   0  0  0  0  0  3  0  0  0  0  0  0
  188.0380  177.3580  145.0150 C   0  0  0  0  0  3  0  0  0  0  0  0
  191.5860  175.8250  144.5560 C   0  0  0  0  0  2  0  0  0  0  0  0
  193.4560  176.6280  146.0370 C   0  0  0  0  0  2  0  0  0  0  0  0
  193.0980  175.3410  146.4970 O   0  0  0  0  0  0  0  0  0  0  0  0
  192.0690  176.1390  145.9680 C   0  0  2  0  0  0  0  0  0  0  0  0
  191.1130  175.8670  147.9910 C   0  0  0  0  0  1  0  0  0  0  0  0
  191.2250  176.7500  146.9100 O   0  0  0  0  0  0  0  0  0  0  0  0
  3 21  1  6  0  0  0
  3  5  1  0  0  0  0
  5  4  2  0  0  0  0
  6 13  1  1  0  0  0
  6  3  1  0  0  0  0
  7  1  1  6  0  0  0
  7  8  1  0  0  0  0
  7  9  1  0  0  0  0
  8  2  1  6  0  0  0
  8  6  1  0  0  0  0
  9  5  1  0  0  0  0
 10  2  1  0  0  0  0
 10  1  1  0  0  0  0
 11 16  1  0  0  0  0
 12 19  1  0  0  0  0
 13 20  1  1  0  0  0
 14 17  1  0  0  0  0
 14 11  1  0  0  0  0
 15 14  2  0  0  0  0
 16 19  2  0  0  0  0
 17 12  1  0  0  0  0
 18 15  1  0  0  0  0
 18 13  1  0  0  0  0
 20 11  2  0  0  0  0
 22 23  1  0  0  0  0
 24 21  1  6  0  0  0
 24 22  1  0  0  0  0
 24 23  1  0  0  0  0
 24 26  1  0  0  0  0
 26 25  1  0  0  0  0
M  END
>  <MODEL>
5

>  <REMARK>
 VINA RESULT:      -6.8      2.704      5.932
  Name = 
  4 active torsions:
  status: ('A' for Active; 'I' for Inactive)
    1  A    between atoms: O_5  and  C_18
    2  A    between atoms: C_7  and  C_14
    3  A    between atoms: C_10  and  C_19
    4  A    between atoms: C_14  and  C_18
                            x       y       z     vdW  Elec       q    Type
                         _______ _______ _______ _____ _____    ______ ____

>  <TORSDO>
F 4

$$$$
=
 OpenBabel11072408353D

 26 30  0  0  1  0  0  0  0  0999 V2000
  185.3970  179.1190  147.3450 C   0  0  0  0  0  2  0  0  0  0  0  0
  187.5610  178.5210  148.0230 C   0  0  0  0  0  2  0  0  0  0  0  0
  187.6320  176.6840  144.5590 C   0  0  2  0  0  3  0  0  0  0  0  0
  185.5670  176.0410  143.5870 O   0  0  0  0  0  0  0  0  0  0  0  0
  186.1120  176.7340  144.4300 C   0  0  0  0  0  0  0  0  0  0  0  0
  188.2340  177.2430  145.8810 C   0  0  1  0  0  3  0  0  0  0  0  0
  186.1190  178.4590  146.2010 C   0  0  1  0  0  3  0  0  0  0  0  0
  187.1380  177.6200  146.8870 C   0  0  2  0  0  3  0  0  0  0  0  0
  185.2480  177.5760  145.3350 C   0  0  0  0  0  2  0  0  0  0  0  0
  186.3810  179.2960  148.4120 N   0  0  0  0  0  2  0  0  0  0  0  0
  191.7090  176.1310  146.5620 C   0  0  0  0  0  0  0  0  0  0  0  0
  194.1230  174.8160  145.7150 C   0  0  0  0  0  2  0  0  0  0  0  0
  189.2290  176.2310  146.4810 C   0  0  1  0  0  3  0  0  0  0  0  0
  191.6630  174.7390  146.0670 C   0  0  0  0  0  0  0  0  0  0  0  0
  190.5210  174.2270  145.6160 C   0  0  0  0  0  3  0  0  0  0  0  0
  193.0190  176.7280  146.8620 C   0  0  0  0  0  3  0  0  0  0  0  0
  192.9240  173.9300  146.0730 C   0  0  0  0  0  2  0  0  0  0  0  0
  189.3290  175.0190  145.6560 N   0  0  0  0  0  2  0  0  0  0  0  0
  194.1450  176.0960  146.5130 C   0  0  0  0  0  3  0  0  0  0  0  0
  190.5900  176.8430  146.7120 C   0  0  0  0  0  3  0  0  0  0  0  0
  188.3000  177.3760  143.3770 C   0  0  0  0  0  2  0  0  0  0  0  0
  188.3700  176.0250  141.2540 C   0  0  0  0  0  2  0  0  0  0  0  0
  188.5260  175.1130  142.3210 O   0  0  0  0  0  0  0  0  0  0  0  0
  189.0690  176.3980  142.4950 C   0  0  2  0  0  0  0  0  0  0  0  0
  190.8900  177.5620  143.1370 C   0  0  0  0  0  1  0  0  0  0  0  0
  190.4600  176.5010  142.3300 O   0  0  0  0  0  0  0  0  0  0  0  0
  1 10  1  0  0  0  0
  2 10  1  0  0  0  0
  3 21  1  6  0  0  0
  3  6  1  0  0  0  0
  4  5  2  0  0  0  0
  5  3  1  0  0  0  0
  5  9  1  0  0  0  0
  6 13  1  1  0  0  0
  6  8  1  0  0  0  0
  7  9  1  1  0  0  0
  7  8  1  0  0  0  0
  7  1  1  0  0  0  0
  8  2  1  1  0  0  0
 11 20  2  0  0  0  0
 11 16  1  0  0  0  0
 12 17  1  0  0  0  0
 12 19  1  0  0  0  0
 13 20  1  6  0  0  0
 14 17  1  0  0  0  0
 14 11  1  0  0  0  0
 15 18  1  0  0  0  0
 15 14  2  0  0  0  0
 18 13  1  0  0  0  0
 19 16  2  0  0  0  0
 22 23  1  0  0  0  0
 22 24  1  0  0  0  0
 23 24  1  0  0  0  0
 24 21  1  1  0  0  0
 26 24  1  0  0  0  0
 26 25  1  0  0  0  0
M  END
>  <MODEL>
6

>  <REMARK>
 VINA RESULT:      -6.8      2.090      4.496
  Name = 
  4 active torsions:
  status: ('A' for Active; 'I' for Inactive)
    1  A    between atoms: O_5  and  C_18
    2  A    between atoms: C_7  and  C_14
    3  A    between atoms: C_10  and  C_19
    4  A    between atoms: C_14  and  C_18
                            x       y       z     vdW  Elec       q    Type
                         _______ _______ _______ _____ _____    ______ ____

>  <TORSDO>
F 4

$$$$
=
 OpenBabel11072408353D

 26 30  0  0  1  0  0  0  0  0999 V2000
  189.1710  172.0040  142.5250 C   0  0  0  0  0  2  0  0  0  0  0  0
  188.3920  174.2110  142.3740 C   0  0  0  0  0  2  0  0  0  0  0  0
  191.7470  175.0260  144.2330 C   0  0  2  0  0  3  0  0  0  0  0  0
  192.7500  173.3200  145.5400 O   0  0  0  0  0  0  0  0  0  0  0  0
  191.9280  173.5770  144.6750 C   0  0  0  0  0  0  0  0  0  0  0  0
  190.4380  175.3560  143.4580 C   0  0  1  0  0  3  0  0  0  0  0  0
  190.2540  172.9510  142.9670 C   0  0  1  0  0  3  0  0  0  0  0  0
  189.4900  174.1500  143.4090 C   0  0  2  0  0  3  0  0  0  0  0  0
  191.0990  172.4480  144.1160 C   0  0  0  0  0  2  0  0  0  0  0  0
  188.0840  172.8290  142.0000 N   0  0  0  0  0  2  0  0  0  0  0  0
  187.8210  176.8670  145.6120 C   0  0  0  0  0  0  0  0  0  0  0  0
  185.1220  177.7880  145.9920 C   0  0  0  0  0  2  0  0  0  0  0  0
  189.7520  176.5900  144.0750 C   0  0  1  0  0  3  0  0  0  0  0  0
  187.2390  177.8670  144.6920 C   0  0  0  0  0  0  0  0  0  0  0  0
  187.7590  178.0410  143.4790 C   0  0  0  0  0  3  0  0  0  0  0  0
  187.1040  176.5590  146.8580 C   0  0  0  0  0  3  0  0  0  0  0  0
  186.0550  178.6630  145.1470 C   0  0  0  0  0  2  0  0  0  0  0  0
  188.9120  177.2870  143.0910 N   0  0  0  0  0  2  0  0  0  0  0  0
  185.8670  177.0240  147.0600 C   0  0  0  0  0  3  0  0  0  0  0  0
  188.9590  176.2380  145.3120 C   0  0  0  0  0  3  0  0  0  0  0  0
  192.9420  175.4970  143.4130 C   0  0  0  0  0  2  0  0  0  0  0  0
  195.3340  176.2590  143.6080 C   0  0  0  0  0  2  0  0  0  0  0  0
  195.1310  175.2960  144.6210 O   0  0  0  0  0  0  0  0  0  0  0  0
  194.0340  176.1090  144.2840 C   0  0  2  0  0  0  0  0  0  0  0  0
  194.0040  176.6760  146.4660 C   0  0  0  0  0  1  0  0  0  0  0  0
  193.7560  177.1590  145.1750 O   0  0  0  0  0  0  0  0  0  0  0  0
  3 21  1  6  0  0  0
  3  5  1  0  0  0  0
  5  4  2  0  0  0  0
  6 13  1  1  0  0  0
  6  3  1  0  0  0  0
  7  1  1  1  0  0  0
  7  8  1  0  0  0  0
  7  9  1  0  0  0  0
  8  2  1  6  0  0  0
  8  6  1  0  0  0  0
  9  5  1  0  0  0  0
 10  2  1  0  0  0  0
 10  1  1  0  0  0  0
 11 16  1  0  0  0  0
 12 19  1  0  0  0  0
 13 20  1  1  0  0  0
 14 17  1  0  0  0  0
 14 11  1  0  0  0  0
 15 14  2  0  0  0  0
 16 19  2  0  0  0  0
 17 12  1  0  0  0  0
 18 15  1  0  0  0  0
 18 13  1  0  0  0  0
 20 11  2  0  0  0  0
 22 24  1  0  0  0  0
 22 23  1  0  0  0  0
 24 21  1  6  0  0  0
 24 23  1  0  0  0  0
 24 26  1  0  0  0  0
 26 25  1  0  0  0  0
M  END
>  <MODEL>
7

>  <REMARK>
 VINA RESULT:      -6.7      3.487      6.522
  Name = 
  4 active torsions:
  status: ('A' for Active; 'I' for Inactive)
    1  A    between atoms: O_5  and  C_18
    2  A    between atoms: C_7  and  C_14
    3  A    between atoms: C_10  and  C_19
    4  A    between atoms: C_14  and  C_18
                            x       y       z     vdW  Elec       q    Type
                         _______ _______ _______ _____ _____    ______ ____

>  <TORSDO>
F 4

$$$$
=
 OpenBabel11072408353D

 26 30  0  0  1  0  0  0  0  0999 V2000
  191.8180  177.2120  145.0500 C   0  0  0  0  0  2  0  0  0  0  0  0
  190.8850  176.7530  142.9480 C   0  0  0  0  0  2  0  0  0  0  0  0
  187.5050  176.9350  144.9280 C   0  0  2  0  0  3  0  0  0  0  0  0
  187.5460  176.5050  147.2600 O   0  0  0  0  0  0  0  0  0  0  0  0
  188.2100  176.7700  146.2720 C   0  0  0  0  0  0  0  0  0  0  0  0
  188.4030  176.8560  143.6590 C   0  0  1  0  0  3  0  0  0  0  0  0
  190.3200  177.3520  145.1220 C   0  0  1  0  0  3  0  0  0  0  0  0
  189.8490  176.4800  144.0120 C   0  0  2  0  0  3  0  0  0  0  0  0
  189.7070  176.8790  146.4220 C   0  0  0  0  0  2  0  0  0  0  0  0
  192.1500  177.0060  143.6410 N   0  0  0  0  0  2  0  0  0  0  0  0
  188.6760  173.8540  141.4960 C   0  0  0  0  0  0  0  0  0  0  0  0
  189.5100  172.6110  139.0390 C   0  0  0  0  0  2  0  0  0  0  0  0
  187.7970  175.8760  142.6380 C   0  0  1  0  0  3  0  0  0  0  0  0
  188.2280  174.3980  140.1980 C   0  0  0  0  0  0  0  0  0  0  0  0
  187.8060  175.6570  140.1110 C   0  0  0  0  0  3  0  0  0  0  0  0
  189.3220  172.5320  141.5190 C   0  0  0  0  0  3  0  0  0  0  0  0
  188.2710  173.5130  138.9900 C   0  0  0  0  0  2  0  0  0  0  0  0
  187.7470  176.4640  141.2920 N   0  0  0  0  0  2  0  0  0  0  0  0
  189.6680  171.9290  140.3770 C   0  0  0  0  0  3  0  0  0  0  0  0
  188.5220  174.5510  142.6230 C   0  0  0  0  0  3  0  0  0  0  0  0
  186.7040  178.2300  144.8910 C   0  0  0  0  0  2  0  0  0  0  0  0
  184.4940  178.6560  146.0190 C   0  0  0  0  0  2  0  0  0  0  0  0
  184.6800  177.2560  146.0060 O   0  0  0  0  0  0  0  0  0  0  0  0
  185.2000  177.9790  144.9180 C   0  0  2  0  0  0  0  0  0  0  0  0
  185.1460  178.6650  142.7710 C   0  0  0  0  0  1  0  0  0  0  0  0
  184.4460  177.9280  143.7340 O   0  0  0  0  0  0  0  0  0  0  0  0
  2 10  1  0  0  0  0
  3 21  1  1  0  0  0
  3  5  1  0  0  0  0
  5  9  1  0  0  0  0
  5  4  2  0  0  0  0
  6 13  1  6  0  0  0
  6  8  1  0  0  0  0
  6  3  1  0  0  0  0
  7  1  1  1  0  0  0
  7  9  1  0  0  0  0
  8  2  1  6  0  0  0
  8  7  1  0  0  0  0
 10  1  1  0  0  0  0
 11 16  1  0  0  0  0
 11 20  2  0  0  0  0
 12 19  1  0  0  0  0
 13 20  1  6  0  0  0
 14 11  1  0  0  0  0
 15 14  2  0  0  0  0
 15 18  1  0  0  0  0
 17 12  1  0  0  0  0
 17 14  1  0  0  0  0
 18 13  1  0  0  0  0
 19 16  2  0  0  0  0
 23 22  1  0  0  0  0
 24 21  1  6  0  0  0
 24 23  1  0  0  0  0
 24 22  1  0  0  0  0
 25 26  1  0  0  0  0
 26 24  1  0  0  0  0
M  END
>  <MODEL>
8

>  <REMARK>
 VINA RESULT:      -6.5      1.898      5.118
  Name = 
  4 active torsions:
  status: ('A' for Active; 'I' for Inactive)
    1  A    between atoms: O_5  and  C_18
    2  A    between atoms: C_7  and  C_14
    3  A    between atoms: C_10  and  C_19
    4  A    between atoms: C_14  and  C_18
                            x       y       z     vdW  Elec       q    Type
                         _______ _______ _______ _____ _____    ______ ____

>  <TORSDO>
F 4

$$$$
=
 OpenBabel11072408353D

 26 30  0  0  1  0  0  0  0  0999 V2000
  189.4510  171.9080  142.0900 C   0  0  0  0  0  2  0  0  0  0  0  0
  190.1960  172.9490  144.0550 C   0  0  0  0  0  2  0  0  0  0  0  0
  188.0780  175.9600  142.7060 C   0  0  2  0  0  3  0  0  0  0  0  0
  187.6780  176.0950  140.3720 O   0  0  0  0  0  0  0  0  0  0  0  0
  188.0380  175.3820  141.2940 C   0  0  0  0  0  0  0  0  0  0  0  0
  188.9160  175.1730  143.7550 C   0  0  1  0  0  3  0  0  0  0  0  0
  188.7330  173.2180  142.2690 C   0  0  1  0  0  3  0  0  0  0  0  0
  189.6760  174.0050  143.1100 C   0  0  2  0  0  3  0  0  0  0  0  0
  188.4670  173.9700  140.9830 C   0  0  0  0  0  2  0  0  0  0  0  0
  190.2300  171.6900  143.3080 N   0  0  0  0  0  2  0  0  0  0  0  0
  192.3450  176.2840  144.6370 C   0  0  0  0  0  0  0  0  0  0  0  0
  194.7150  176.0360  146.2490 C   0  0  0  0  0  2  0  0  0  0  0  0
  189.8700  176.1260  144.4980 C   0  0  1  0  0  3  0  0  0  0  0  0
  192.2520  176.3460  146.1110 C   0  0  0  0  0  0  0  0  0  0  0  0
  191.0950  176.0980  146.7190 C   0  0  0  0  0  3  0  0  0  0  0  0
  193.6740  176.3640  144.0130 C   0  0  0  0  0  3  0  0  0  0  0  0
  193.4830  176.6770  146.8990 C   0  0  0  0  0  2  0  0  0  0  0  0
  189.9310  175.8170  145.9330 N   0  0  0  0  0  2  0  0  0  0  0  0
  194.7790  176.2970  144.7640 C   0  0  0  0  0  3  0  0  0  0  0  0
  191.2520  176.1360  143.8870 C   0  0  0  0  0  3  0  0  0  0  0  0
  186.6690  176.1660  143.2490 C   0  0  0  0  0  2  0  0  0  0  0  0
  186.6840  178.0440  144.9240 C   0  0  0  0  0  2  0  0  0  0  0  0
  185.3520  177.9160  144.4700 O   0  0  0  0  0  0  0  0  0  0  0  0
  186.3720  177.6310  143.5450 C   0  0  2  0  0  0  0  0  0  0  0  0
  185.6570  178.5290  141.6050 C   0  0  0  0  0  1  0  0  0  0  0  0
  186.6370  178.6360  142.5990 O   0  0  0  0  0  0  0  0  0  0  0  0
  1  7  1  0  0  0  0
  1 10  1  0  0  0  0
  3 21  1  1  0  0  0
  3  6  1  0  0  0  0
  4  5  2  0  0  0  0
  5  3  1  0  0  0  0
  6 13  1  6  0  0  0
  7  9  1  6  0  0  0
  7  8  1  0  0  0  0
  8  6  1  0  0  0  0
  8  2  1  1  0  0  0
  9  5  1  0  0  0  0
 10  2  1  0  0  0  0
 11 14  1  0  0  0  0
 12 17  1  0  0  0  0
 13 20  1  6  0  0  0
 13 18  1  0  0  0  0
 14 15  2  0  0  0  0
 14 17  1  0  0  0  0
 16 11  1  0  0  0  0
 16 19  2  0  0  0  0
 18 15  1  0  0  0  0
 19 12  1  0  0  0  0
 20 11  2  0  0  0  0
 23 22  1  0  0  0  0
 24 21  1  6  0  0  0
 24 23  1  0  0  0  0
 24 22  1  0  0  0  0
 25 26  1  0  0  0  0
 26 24  1  0  0  0  0
M  END
>  <MODEL>
9

>  <REMARK>
 VINA RESULT:      -6.5      1.602      2.669
  Name = 
  4 active torsions:
  status: ('A' for Active; 'I' for Inactive)
    1  A    between atoms: O_5  and  C_18
    2  A    between atoms: C_7  and  C_14
    3  A    between atoms: C_10  and  C_19
    4  A    between atoms: C_14  and  C_18
                            x       y       z     vdW  Elec       q    Type
                         _______ _______ _______ _____ _____    ______ ____

>  <TORSDO>
F 4

$$$$
