=
 OpenBabel11062418203D

 49 53  0  0  1  0  0  0  0  0999 V2000
  191.1910  172.0140  139.2810 C   0  0  0  0  0  3  0  0  0  0  0  0
  190.1200  172.5600  140.0160 C   0  0  0  0  0  3  0  0  0  0  0  0
  193.3950  169.0710  141.7970 C   0  0  0  0  0  1  0  0  0  0  0  0
  192.1280  171.1460  141.2590 C   0  0  0  0  0  0  0  0  0  0  0  0
  192.1860  171.3270  139.9140 N   0  0  0  0  0  0  0  0  0  0  0  0
  191.0960  171.6580  142.0080 C   0  0  0  0  0  0  0  0  0  0  0  0
  193.1830  170.5340  142.1400 C   0  0  1  0  0  0  0  0  0  0  0  0
  191.3980  171.3330  143.3820 C   0  0  0  0  0  0  0  0  0  0  0  0
  192.6140  170.6590  143.4500 O   0  0  0  0  0  0  0  0  0  0  0  0
  190.6900  171.6090  144.3860 O   0  0  0  0  0  0  0  0  0  0  0  0
  190.0670  172.3900  141.4080 C   0  0  0  0  0  0  0  0  0  0  0  0
  194.8220  174.9300  141.8950 C   0  0  1  0  0  0  0  0  0  0  0  0
  194.2580  175.6770  144.1170 O   0  0  0  0  0  0  0  0  0  0  0  0
  194.5610  172.5350  142.4290 C   0  0  0  0  0  0  0  0  0  0  0  0
  194.3690  176.0900  142.7700 C   0  0  0  0  0  2  0  0  0  0  0  0
  194.1180  174.2750  144.1060 C   0  0  1  0  0  3  0  0  0  0  0  0
  194.6220  173.7890  142.8040 C   0  0  0  0  0  0  0  0  0  0  0  0
  194.4780  171.2850  142.0560 C   0  0  0  0  0  3  0  0  0  0  0  0
  193.9270  174.8480  140.6690 C   0  0  0  0  0  1  0  0  0  0  0  0
  197.2700  175.0120  142.4420 O   0  0  0  0  0  1  0  0  0  0  0  0
  196.5800  175.1760  140.2700 O   0  0  0  0  0  0  0  0  0  0  0  0
  196.2640  175.0730  141.4850 C   0  0  0  0  0  0  0  0  0  0  0  0
  194.8530  173.6580  145.2600 C   0  0  0  0  0  0  0  0  0  0  0  0
  195.9730  174.1940  145.7300 C   0  0  0  0  0  2  0  0  0  0  0  0
  194.3740  172.4780  145.8170 O   0  0  0  0  0  1  0  0  0  0  0  0
  188.9950  173.0710  142.2030 C   0  0  0  0  0  2  0  0  0  0  0  0
  189.0750  174.5150  142.0200 N   0  0  0  0  0  0  0  0  0  0  0  0
  188.3000  175.0960  141.0710 O   0  0  0  0  0  1  0  0  0  0  0  0
  189.7730  175.3460  142.9580 C   0  0  0  0  0  0  0  0  0  0  0  0
  190.7710  176.1110  142.5360 C   0  0  0  0  0  2  0  0  0  0  0  0
  189.5330  176.7680  145.0080 C   0  0  0  0  0  0  0  0  0  0  0  0
  188.6620  177.8400  144.6230 N   0  0  0  0  0  2  0  0  0  0  0  0
  191.2880  175.9950  146.4070 N   0  0  0  0  0  0  0  0  0  0  0  0
  190.4400  177.0000  145.9090 N   0  0  0  0  0  0  0  0  0  0  0  0
  191.1430  174.7570  146.0540 C   0  0  0  0  0  3  0  0  0  0  0  0
  189.4020  175.3810  144.4120 C   0  0  2  0  0  3  0  0  0  0  0  0
  190.1490  174.4030  145.1390 O   0  0  0  0  0  0  0  0  0  0  0  0
  187.3920  177.7260  143.4490 S   0  0  0  0  0  0  0  0  0  0  0  0
  187.9670  177.9660  142.0770 O   0  0  0  0  0  0  0  0  0  0  0  0
  186.8190  176.3370  143.4860 O   0  0  0  0  0  0  0  0  0  0  0  0
  184.9020  178.8280  142.9640 C   0  0  1  0  0  3  0  0  0  0  0  0
  184.9270  178.1210  144.2420 C   0  0  1  0  0  3  0  0  0  0  0  0
  186.1200  178.8720  143.8220 N   0  0  0  0  0  0  0  0  0  0  0  0
  184.1860  178.9270  145.2900 C   0  0  0  0  0  2  0  0  0  0  0  0
  184.1950  178.1800  146.6080 C   0  0  0  0  0  2  0  0  0  0  0  0
  185.0660  176.9460  146.4820 C   0  0  0  0  0  1  0  0  0  0  0  0
  184.9510  177.8400  141.8010 C   0  0  0  0  0  2  0  0  0  0  0  0
  182.6490  178.1670  140.8980 C   0  0  0  0  0  1  0  0  0  0  0  0
  184.1310  178.3580  140.6340 C   0  0  0  0  0  2  0  0  0  0  0  0
  1  5  2  0  0  0  0
  1  2  1  0  0  0  0
  2 11  2  0  0  0  0
  4  6  2  0  0  0  0
  4  7  1  0  0  0  0
  5  4  1  0  0  0  0
  6  8  1  0  0  0  0
  7  3  1  6  0  0  0
  7  9  1  0  0  0  0
  8  9  1  0  0  0  0
  8 10  2  0  0  0  0
 11  6  1  0  0  0  0
 11 26  1  0  0  0  0
 12 19  1  6  0  0  0
 12 15  1  0  0  0  0
 12 17  1  0  0  0  0
 14 17  2  0  0  0  0
 15 13  1  0  0  0  0
 16 13  1  0  0  0  0
 16 23  1  1  0  0  0
 17 16  1  0  0  0  0
 18  7  1  0  0  0  0
 18 14  2  0  0  0  0
 21 22  2  0  0  0  0
 22 12  1  0  0  0  0
 22 20  1  0  0  0  0
 23 24  2  0  0  0  0
 23 25  1  0  0  0  0
 27 26  1  0  0  0  0
 27 29  1  0  0  0  0
 28 27  1  0  0  0  0
 30 29  2  0  0  0  0
 31 34  2  0  0  0  0
 32 31  1  0  0  0  0
 34 33  1  0  0  0  0
 35 33  2  0  0  0  0
 36 29  1  6  0  0  0
 36 31  1  0  0  0  0
 36 37  1  0  0  0  0
 37 35  1  0  0  0  0
 38 40  2  0  0  0  0
 38 43  1  0  0  0  0
 38 32  1  0  0  0  0
 39 38  2  0  0  0  0
 41 47  1  6  0  0  0
 41 43  1  0  0  0  0
 41 42  1  0  0  0  0
 42 44  1  1  0  0  0
 43 42  1  0  0  0  0
 44 45  1  0  0  0  0
 46 45  1  0  0  0  0
 49 48  1  0  0  0  0
 49 47  1  0  0  0  0
M  END
>  <MODEL>
1

>  <REMARK>
 VINA RESULT:      -7.3      0.000      0.000
  Name = 
  13 active torsions:
  status: ('A' for Active; 'I' for Inactive)
    1  A    between atoms: C_3  and  C_36
    2  A    between atoms: N_4  and  S_34
    3  A    between atoms: C_5  and  C_26
    4  A    between atoms: C_9  and  C_25
    5  A    between atoms: C_12  and  C_19
    6  A    between atoms: C_12  and  C_29
    7  A    between atoms: N_17  and  C_27
    8  A    between atoms: N_17  and  C_43
    9  A    between atoms: C_24  and  C_27
   10  A    between atoms: C_25  and  C_40
   11  A    between atoms: S_34  and  N_48
   12  A    between atoms: C_38  and  C_41
   13  A    between atoms: C_43  and  C_49
                            x       y       z     vdW  Elec       q    Type
                         _______ _______ _______ _____ _____    ______ ____

>  <TORSDO>
F 13

$$$$
=
 OpenBabel11062418203D

 49 53  0  0  1  0  0  0  0  0999 V2000
  191.3910  171.0820  139.5960 C   0  0  0  0  0  3  0  0  0  0  0  0
  190.2090  171.6630  140.0960 C   0  0  0  0  0  3  0  0  0  0  0  0
  194.0180  169.8680  142.9840 C   0  0  0  0  0  1  0  0  0  0  0  0
  192.4010  171.2740  141.7150 C   0  0  0  0  0  0  0  0  0  0  0  0
  192.4740  170.9070  140.4090 N   0  0  0  0  0  0  0  0  0  0  0  0
  191.2630  171.8380  142.2390 C   0  0  0  0  0  0  0  0  0  0  0  0
  193.5190  171.2770  142.7220 C   0  0  1  0  0  0  0  0  0  0  0  0
  191.5690  172.1540  143.6140 C   0  0  0  0  0  0  0  0  0  0  0  0
  192.8870  171.8070  143.8950 O   0  0  0  0  0  0  0  0  0  0  0  0
  190.7840  172.6700  144.4520 O   0  0  0  0  0  0  0  0  0  0  0  0
  190.1370  172.0600  141.4400 C   0  0  0  0  0  0  0  0  0  0  0  0
  195.0610  175.6900  143.1890 C   0  0  1  0  0  0  0  0  0  0  0  0
  195.6770  175.6390  145.5200 O   0  0  0  0  0  0  0  0  0  0  0  0
  194.9670  173.2350  142.9650 C   0  0  0  0  0  0  0  0  0  0  0  0
  195.1460  176.4600  144.4990 C   0  0  0  0  0  2  0  0  0  0  0  0
  195.4770  174.3040  145.1180 C   0  0  1  0  0  3  0  0  0  0  0  0
  195.2650  174.3090  143.6540 C   0  0  0  0  0  0  0  0  0  0  0  0
  194.6500  172.1620  142.2900 C   0  0  0  0  0  3  0  0  0  0  0  0
  193.6840  175.8910  142.5790 C   0  0  0  0  0  1  0  0  0  0  0  0
  196.0820  175.7020  140.8970 O   0  0  0  0  0  0  0  0  0  0  0  0
  197.0420  176.9140  142.5800 O   0  0  0  0  0  1  0  0  0  0  0  0
  196.1330  176.1190  142.2220 C   0  0  0  0  0  0  0  0  0  0  0  0
  196.6440  173.4480  145.5160 C   0  0  0  0  0  0  0  0  0  0  0  0
  196.4710  172.2080  145.9580 C   0  0  0  0  0  2  0  0  0  0  0  0
  197.9260  173.9810  145.4620 O   0  0  0  0  0  1  0  0  0  0  0  0
  188.9270  172.7860  141.9400 C   0  0  0  0  0  2  0  0  0  0  0  0
  189.0970  174.2240  141.7690 N   0  0  0  0  0  0  0  0  0  0  0  0
  190.2740  174.6870  141.2810 O   0  0  0  0  0  1  0  0  0  0  0  0
  187.9860  175.1230  141.8890 C   0  0  0  0  0  0  0  0  0  0  0  0
  186.8370  174.6800  142.3840 C   0  0  0  0  0  2  0  0  0  0  0  0
  187.4560  177.4990  142.4860 C   0  0  0  0  0  0  0  0  0  0  0  0
  188.0240  177.6970  143.7870 N   0  0  0  0  0  2  0  0  0  0  0  0
  185.8000  178.0970  140.8930 N   0  0  0  0  0  0  0  0  0  0  0  0
  186.3860  178.1640  142.1700 N   0  0  0  0  0  0  0  0  0  0  0  0
  186.3600  177.4320  139.9310 C   0  0  0  0  0  3  0  0  0  0  0  0
  188.0860  176.5630  141.4750 C   0  0  2  0  0  3  0  0  0  0  0  0
  187.5500  176.7400  140.1610 O   0  0  0  0  0  0  0  0  0  0  0  0
  189.4460  176.9100  144.3900 S   0  0  0  0  0  0  0  0  0  0  0  0
  189.1820  175.4300  144.4960 O   0  0  0  0  0  0  0  0  0  0  0  0
  190.5680  177.1220  143.4130 O   0  0  0  0  0  0  0  0  0  0  0  0
  188.9660  177.3760  147.0730 C   0  0  1  0  0  3  0  0  0  0  0  0
  190.1130  176.4910  146.8880 C   0  0  1  0  0  3  0  0  0  0  0  0
  189.9050  177.5940  145.9360 N   0  0  0  0  0  0  0  0  0  0  0  0
  191.2210  176.8770  147.8480 C   0  0  0  0  0  2  0  0  0  0  0  0
  192.5450  176.3480  147.3380 C   0  0  0  0  0  2  0  0  0  0  0  0
  192.3150  175.0500  146.5890 C   0  0  0  0  0  1  0  0  0  0  0  0
  187.6660  176.6530  146.7250 C   0  0  0  0  0  2  0  0  0  0  0  0
  185.1990  176.9610  146.5250 C   0  0  0  0  0  1  0  0  0  0  0  0
  186.4710  177.4670  147.1820 C   0  0  0  0  0  2  0  0  0  0  0  0
  1  2  2  0  0  0  0
  1  5  1  0  0  0  0
  2 11  1  0  0  0  0
  4  6  1  0  0  0  0
  4  7  1  0  0  0  0
  5  4  2  0  0  0  0
  6  8  1  0  0  0  0
  7  3  1  1  0  0  0
  7  9  1  0  0  0  0
  8  9  1  0  0  0  0
  8 10  2  0  0  0  0
 11 26  1  0  0  0  0
 11  6  2  0  0  0  0
 12 19  1  6  0  0  0
 12 17  1  0  0  0  0
 12 15  1  0  0  0  0
 14 17  2  0  0  0  0
 15 13  1  0  0  0  0
 16 23  1  6  0  0  0
 16 13  1  0  0  0  0
 17 16  1  0  0  0  0
 18  7  1  0  0  0  0
 18 14  2  0  0  0  0
 20 22  2  0  0  0  0
 22 21  1  0  0  0  0
 22 12  1  0  0  0  0
 23 24  2  0  0  0  0
 25 23  1  0  0  0  0
 27 29  1  0  0  0  0
 27 26  1  0  0  0  0
 28 27  1  0  0  0  0
 29 30  2  0  0  0  0
 31 32  1  0  0  0  0
 32 38  1  0  0  0  0
 33 34  1  0  0  0  0
 34 31  2  0  0  0  0
 35 37  1  0  0  0  0
 35 33  2  0  0  0  0
 36 29  1  1  0  0  0
 36 31  1  0  0  0  0
 37 36  1  0  0  0  0
 38 39  2  0  0  0  0
 38 43  1  0  0  0  0
 40 38  2  0  0  0  0
 41 47  1  6  0  0  0
 42 41  1  0  0  0  0
 42 44  1  1  0  0  0
 43 42  1  0  0  0  0
 43 41  1  0  0  0  0
 45 44  1  0  0  0  0
 46 45  1  0  0  0  0
 47 49  1  0  0  0  0
 48 49  1  0  0  0  0
M  END
>  <MODEL>
2

>  <REMARK>
 VINA RESULT:      -7.0      1.758      3.933
  Name = 
  13 active torsions:
  status: ('A' for Active; 'I' for Inactive)
    1  A    between atoms: C_3  and  C_36
    2  A    between atoms: N_4  and  S_34
    3  A    between atoms: C_5  and  C_26
    4  A    between atoms: C_9  and  C_25
    5  A    between atoms: C_12  and  C_19
    6  A    between atoms: C_12  and  C_29
    7  A    between atoms: N_17  and  C_27
    8  A    between atoms: N_17  and  C_43
    9  A    between atoms: C_24  and  C_27
   10  A    between atoms: C_25  and  C_40
   11  A    between atoms: S_34  and  N_48
   12  A    between atoms: C_38  and  C_41
   13  A    between atoms: C_43  and  C_49
                            x       y       z     vdW  Elec       q    Type
                         _______ _______ _______ _____ _____    ______ ____

>  <TORSDO>
F 13

$$$$
=
 OpenBabel11062418203D

 49 53  0  0  1  0  0  0  0  0999 V2000
  193.3620  169.9570  142.7170 C   0  0  0  0  0  3  0  0  0  0  0  0
  192.1820  170.6410  143.0690 C   0  0  0  0  0  3  0  0  0  0  0  0
  196.5360  170.7890  145.7310 C   0  0  0  0  0  1  0  0  0  0  0  0
  194.5920  171.2580  144.2480 C   0  0  0  0  0  0  0  0  0  0  0  0
  194.5520  170.2830  143.3020 N   0  0  0  0  0  0  0  0  0  0  0  0
  193.4590  171.9410  144.6210 C   0  0  0  0  0  0  0  0  0  0  0  0
  195.8150  171.8370  144.9050 C   0  0  1  0  0  0  0  0  0  0  0  0
  193.8880  172.9300  145.5830 C   0  0  0  0  0  0  0  0  0  0  0  0
  195.2670  172.8510  145.7570 O   0  0  0  0  0  0  0  0  0  0  0  0
  193.1480  173.7530  146.1840 O   0  0  0  0  0  0  0  0  0  0  0  0
  192.2230  171.6600  144.0330 C   0  0  0  0  0  0  0  0  0  0  0  0
  195.7470  174.0450  140.7580 C   0  0  1  0  0  0  0  0  0  0  0  0
  194.7500  176.1290  141.4460 O   0  0  0  0  0  0  0  0  0  0  0  0
  196.3330  173.3490  143.0510 C   0  0  0  0  0  0  0  0  0  0  0  0
  194.8230  175.1960  140.3870 C   0  0  0  0  0  2  0  0  0  0  0  0
  195.1340  175.4500  142.6190 C   0  0  1  0  0  3  0  0  0  0  0  0
  195.8970  174.2520  142.2080 C   0  0  0  0  0  0  0  0  0  0  0  0
  196.7470  172.4440  143.8990 C   0  0  0  0  0  3  0  0  0  0  0  0
  195.0590  172.7280  140.4360 C   0  0  0  0  0  1  0  0  0  0  0  0
  197.5310  173.0610  139.2930 O   0  0  0  0  0  0  0  0  0  0  0  0
  197.7290  175.2090  140.0470 O   0  0  0  0  0  1  0  0  0  0  0  0
  197.0670  174.1370  140.0400 C   0  0  0  0  0  0  0  0  0  0  0  0
  195.9360  176.3470  143.5160 C   0  0  0  0  0  0  0  0  0  0  0  0
  197.0550  176.9230  143.0920 C   0  0  0  0  0  2  0  0  0  0  0  0
  195.5220  176.5420  144.8270 O   0  0  0  0  0  1  0  0  0  0  0  0
  190.9940  172.4670  144.3190 C   0  0  0  0  0  2  0  0  0  0  0  0
  190.8390  173.5170  143.3190 N   0  0  0  0  0  0  0  0  0  0  0  0
  191.8090  174.4570  143.2050 O   0  0  0  0  0  1  0  0  0  0  0  0
  189.8130  173.4450  142.3190 C   0  0  0  0  0  0  0  0  0  0  0  0
  188.6500  172.8780  142.6160 C   0  0  0  0  0  2  0  0  0  0  0  0
  188.7170  174.4860  140.3200 C   0  0  0  0  0  0  0  0  0  0  0  0
  188.0200  175.6320  140.8250 N   0  0  0  0  0  2  0  0  0  0  0  0
  188.8750  172.7830  138.6730 N   0  0  0  0  0  0  0  0  0  0  0  0
  188.2250  173.8680  139.2880 N   0  0  0  0  0  0  0  0  0  0  0  0
  190.0540  172.4020  139.0550 C   0  0  0  0  0  3  0  0  0  0  0  0
  190.0120  174.0020  140.9390 C   0  0  2  0  0  3  0  0  0  0  0  0
  190.6900  173.0520  140.1140 O   0  0  0  0  0  0  0  0  0  0  0  0
  188.5180  176.5890  142.1820 S   0  0  0  0  0  0  0  0  0  0  0  0
  190.0200  176.5440  142.2920 O   0  0  0  0  0  0  0  0  0  0  0  0
  188.1030  178.0150  141.9480 O   0  0  0  0  0  0  0  0  0  0  0  0
  188.3060  176.4990  144.9380 C   0  0  1  0  0  3  0  0  0  0  0  0
  187.1470  177.1580  144.3400 C   0  0  1  0  0  3  0  0  0  0  0  0
  187.7490  176.0090  143.6450 N   0  0  0  0  0  0  0  0  0  0  0  0
  185.8800  176.6990  145.0350 C   0  0  0  0  0  2  0  0  0  0  0  0
  185.8350  177.2670  146.4390 C   0  0  0  0  0  2  0  0  0  0  0  0
  185.6470  178.7700  146.3690 C   0  0  0  0  0  1  0  0  0  0  0  0
  189.5450  177.3850  144.8280 C   0  0  0  0  0  2  0  0  0  0  0  0
  190.2170  175.5930  146.4270 C   0  0  0  0  0  1  0  0  0  0  0  0
  190.6250  176.9040  145.7790 C   0  0  0  0  0  2  0  0  0  0  0  0
  1  2  2  0  0  0  0
  1  5  1  0  0  0  0
  2 11  1  0  0  0  0
  4  6  1  0  0  0  0
  4  7  1  0  0  0  0
  5  4  2  0  0  0  0
  6  8  1  0  0  0  0
  7  3  1  1  0  0  0
  7  9  1  0  0  0  0
  8  9  1  0  0  0  0
  8 10  2  0  0  0  0
 11 26  1  0  0  0  0
 11  6  2  0  0  0  0
 12 19  1  6  0  0  0
 12 17  1  0  0  0  0
 13 16  1  0  0  0  0
 14 18  2  0  0  0  0
 15 12  1  0  0  0  0
 15 13  1  0  0  0  0
 16 23  1  1  0  0  0
 17 16  1  0  0  0  0
 17 14  2  0  0  0  0
 18  7  1  0  0  0  0
 20 22  2  0  0  0  0
 22 21  1  0  0  0  0
 22 12  1  0  0  0  0
 23 25  1  0  0  0  0
 24 23  2  0  0  0  0
 27 26  1  0  0  0  0
 28 27  1  0  0  0  0
 29 30  2  0  0  0  0
 29 27  1  0  0  0  0
 31 32  1  0  0  0  0
 31 36  1  0  0  0  0
 32 38  1  0  0  0  0
 33 35  2  0  0  0  0
 33 34  1  0  0  0  0
 34 31  2  0  0  0  0
 35 37  1  0  0  0  0
 36 29  1  1  0  0  0
 37 36  1  0  0  0  0
 38 39  2  0  0  0  0
 38 43  1  0  0  0  0
 40 38  2  0  0  0  0
 41 47  1  6  0  0  0
 42 41  1  0  0  0  0
 42 44  1  1  0  0  0
 43 42  1  0  0  0  0
 43 41  1  0  0  0  0
 44 45  1  0  0  0  0
 46 45  1  0  0  0  0
 47 49  1  0  0  0  0
 49 48  1  0  0  0  0
M  END
>  <MODEL>
3

>  <REMARK>
 VINA RESULT:      -6.9      2.337      4.261
  Name = 
  13 active torsions:
  status: ('A' for Active; 'I' for Inactive)
    1  A    between atoms: C_3  and  C_36
    2  A    between atoms: N_4  and  S_34
    3  A    between atoms: C_5  and  C_26
    4  A    between atoms: C_9  and  C_25
    5  A    between atoms: C_12  and  C_19
    6  A    between atoms: C_12  and  C_29
    7  A    between atoms: N_17  and  C_27
    8  A    between atoms: N_17  and  C_43
    9  A    between atoms: C_24  and  C_27
   10  A    between atoms: C_25  and  C_40
   11  A    between atoms: S_34  and  N_48
   12  A    between atoms: C_38  and  C_41
   13  A    between atoms: C_43  and  C_49
                            x       y       z     vdW  Elec       q    Type
                         _______ _______ _______ _____ _____    ______ ____

>  <TORSDO>
F 13

$$$$
=
 OpenBabel11062418203D

 49 53  0  0  1  0  0  0  0  0999 V2000
  194.6290  175.7340  146.3020 C   0  0  0  0  0  3  0  0  0  0  0  0
  193.4910  176.2970  145.6930 C   0  0  0  0  0  3  0  0  0  0  0  0
  197.9210  175.4020  143.3170 C   0  0  0  0  0  1  0  0  0  0  0  0
  195.5880  175.3430  144.1860 C   0  0  0  0  0  0  0  0  0  0  0  0
  195.6560  175.2540  145.5410 N   0  0  0  0  0  0  0  0  0  0  0  0
  194.4960  175.8920  143.5580 C   0  0  0  0  0  0  0  0  0  0  0  0
  196.5510  174.7610  143.1880 C   0  0  1  0  0  0  0  0  0  0  0  0
  194.7420  175.7600  142.1410 C   0  0  0  0  0  0  0  0  0  0  0  0
  195.9560  175.1120  141.9320 O   0  0  0  0  0  0  0  0  0  0  0  0
  193.9870  176.1560  141.2140 O   0  0  0  0  0  0  0  0  0  0  0  0
  193.4100  176.3750  144.2940 C   0  0  0  0  0  0  0  0  0  0  0  0
  193.9880  171.0470  144.4950 C   0  0  1  0  0  0  0  0  0  0  0  0
  192.4050  171.0110  142.6770 O   0  0  0  0  0  0  0  0  0  0  0  0
  195.5880  172.5160  143.3230 C   0  0  0  0  0  0  0  0  0  0  0  0
  192.5570  170.7670  144.0610 C   0  0  0  0  0  2  0  0  0  0  0  0
  193.4490  171.8770  142.2960 C   0  0  1  0  0  3  0  0  0  0  0  0
  194.5060  171.7770  143.3260 C   0  0  0  0  0  0  0  0  0  0  0  0
  196.6540  173.2710  143.3230 C   0  0  0  0  0  3  0  0  0  0  0  0
  193.9720  171.9090  145.7460 C   0  0  0  0  0  1  0  0  0  0  0  0
  194.7570  168.7650  143.7870 O   0  0  0  0  0  0  0  0  0  0  0  0
  195.4550  169.6370  145.7810 O   0  0  0  0  0  1  0  0  0  0  0  0
  194.7540  169.7740  144.7430 C   0  0  0  0  0  0  0  0  0  0  0  0
  193.9590  171.5260  140.9290 C   0  0  0  0  0  0  0  0  0  0  0  0
  194.1880  170.2650  140.5810 C   0  0  0  0  0  2  0  0  0  0  0  0
  194.2400  172.5450  140.0270 O   0  0  0  0  0  1  0  0  0  0  0  0
  192.1520  176.8620  143.6440 C   0  0  0  0  0  2  0  0  0  0  0  0
  190.9900  176.2500  144.2780 N   0  0  0  0  0  0  0  0  0  0  0  0
  190.4420  176.8560  145.3590 O   0  0  0  0  0  1  0  0  0  0  0  0
  190.2900  175.1630  143.6560 C   0  0  0  0  0  0  0  0  0  0  0  0
  190.0000  174.0800  144.3660 C   0  0  0  0  0  2  0  0  0  0  0  0
  188.5720  174.4690  141.9680 C   0  0  0  0  0  0  0  0  0  0  0  0
  187.3210  174.9340  142.4900 N   0  0  0  0  0  2  0  0  0  0  0  0
  189.7420  172.8990  140.6250 N   0  0  0  0  0  0  0  0  0  0  0  0
  188.5790  173.3900  141.2450 N   0  0  0  0  0  0  0  0  0  0  0  0
  190.8570  173.5580  140.6710 C   0  0  0  0  0  3  0  0  0  0  0  0
  189.8670  175.2150  142.2160 C   0  0  2  0  0  3  0  0  0  0  0  0
  190.9280  174.7640  141.3700 O   0  0  0  0  0  0  0  0  0  0  0  0
  187.1070  176.3500  143.4660 S   0  0  0  0  0  0  0  0  0  0  0  0
  187.5710  176.0550  144.8700 O   0  0  0  0  0  0  0  0  0  0  0  0
  187.9590  177.4560  142.9090 O   0  0  0  0  0  0  0  0  0  0  0  0
  185.0850  178.0830  144.2090 C   0  0  1  0  0  3  0  0  0  0  0  0
  185.3540  178.1700  142.7760 C   0  0  1  0  0  3  0  0  0  0  0  0
  185.4300  176.8570  143.4360 N   0  0  0  0  0  0  0  0  0  0  0  0
  184.0480  178.2570  142.0120 C   0  0  0  0  0  2  0  0  0  0  0  0
  184.3280  178.2550  140.5230 C   0  0  0  0  0  2  0  0  0  0  0  0
  185.7970  177.9670  140.2870 C   0  0  0  0  0  1  0  0  0  0  0  0
  186.2280  178.7020  145.0110 C   0  0  0  0  0  2  0  0  0  0  0  0
  186.5270  178.1920  147.4340 C   0  0  0  0  0  1  0  0  0  0  0  0
  185.7690  179.0290  146.4190 C   0  0  0  0  0  2  0  0  0  0  0  0
  2  1  1  0  0  0  0
  4  5  1  0  0  0  0
  5  1  2  0  0  0  0
  6  4  2  0  0  0  0
  6 11  1  0  0  0  0
  7  3  1  1  0  0  0
  7 18  1  0  0  0  0
  7  4  1  0  0  0  0
  8  6  1  0  0  0  0
  9  8  1  0  0  0  0
  9  7  1  0  0  0  0
 10  8  2  0  0  0  0
 11  2  2  0  0  0  0
 12 22  1  0  0  0  0
 12 19  1  1  0  0  0
 13 15  1  0  0  0  0
 14 17  2  0  0  0  0
 15 12  1  0  0  0  0
 16 23  1  6  0  0  0
 16 13  1  0  0  0  0
 16 17  1  0  0  0  0
 17 12  1  0  0  0  0
 18 14  2  0  0  0  0
 20 22  2  0  0  0  0
 22 21  1  0  0  0  0
 24 23  2  0  0  0  0
 25 23  1  0  0  0  0
 26 27  1  0  0  0  0
 26 11  1  0  0  0  0
 27 28  1  0  0  0  0
 29 27  1  0  0  0  0
 29 30  2  0  0  0  0
 31 36  1  0  0  0  0
 31 32  1  0  0  0  0
 32 38  1  0  0  0  0
 33 35  2  0  0  0  0
 33 34  1  0  0  0  0
 34 31  2  0  0  0  0
 35 37  1  0  0  0  0
 36 29  1  1  0  0  0
 37 36  1  0  0  0  0
 38 39  2  0  0  0  0
 40 38  2  0  0  0  0
 41 47  1  1  0  0  0
 42 44  1  6  0  0  0
 42 43  1  0  0  0  0
 42 41  1  0  0  0  0
 43 38  1  0  0  0  0
 43 41  1  0  0  0  0
 45 44  1  0  0  0  0
 46 45  1  0  0  0  0
 47 49  1  0  0  0  0
 49 48  1  0  0  0  0
M  END
>  <MODEL>
4

>  <REMARK>
 VINA RESULT:      -6.8      1.973      5.254
  Name = 
  13 active torsions:
  status: ('A' for Active; 'I' for Inactive)
    1  A    between atoms: C_3  and  C_36
    2  A    between atoms: N_4  and  S_34
    3  A    between atoms: C_5  and  C_26
    4  A    between atoms: C_9  and  C_25
    5  A    between atoms: C_12  and  C_19
    6  A    between atoms: C_12  and  C_29
    7  A    between atoms: N_17  and  C_27
    8  A    between atoms: N_17  and  C_43
    9  A    between atoms: C_24  and  C_27
   10  A    between atoms: C_25  and  C_40
   11  A    between atoms: S_34  and  N_48
   12  A    between atoms: C_38  and  C_41
   13  A    between atoms: C_43  and  C_49
                            x       y       z     vdW  Elec       q    Type
                         _______ _______ _______ _____ _____    ______ ____

>  <TORSDO>
F 13

$$$$
=
 OpenBabel11062418203D

 49 53  0  0  1  0  0  0  0  0999 V2000
  192.7810  171.2830  144.3220 C   0  0  0  0  0  3  0  0  0  0  0  0
  192.0150  172.4420  144.5550 C   0  0  0  0  0  3  0  0  0  0  0  0
  196.8470  171.7910  146.0730 C   0  0  0  0  0  1  0  0  0  0  0  0
  194.7460  172.4440  144.9070 C   0  0  0  0  0  0  0  0  0  0  0  0
  194.1360  171.3040  144.4880 N   0  0  0  0  0  0  0  0  0  0  0  0
  194.0300  173.5910  145.1510 C   0  0  0  0  0  0  0  0  0  0  0  0
  196.2250  172.6940  145.0240 C   0  0  1  0  0  0  0  0  0  0  0  0
  195.0000  174.6000  145.5070 C   0  0  0  0  0  0  0  0  0  0  0  0
  196.2830  174.0620  145.4480 O   0  0  0  0  0  0  0  0  0  0  0  0
  194.7520  175.7930  145.8240 O   0  0  0  0  0  0  0  0  0  0  0  0
  192.6440  173.6270  144.9700 C   0  0  0  0  0  0  0  0  0  0  0  0
  195.3170  172.6700  140.4140 C   0  0  1  0  0  0  0  0  0  0  0  0
  194.8040  175.0060  140.1090 O   0  0  0  0  0  0  0  0  0  0  0  0
  196.4070  173.0000  142.6020 C   0  0  0  0  0  0  0  0  0  0  0  0
  194.4760  173.7010  139.6760 C   0  0  0  0  0  2  0  0  0  0  0  0
  195.4020  174.8780  141.3780 C   0  0  1  0  0  3  0  0  0  0  0  0
  195.8740  173.4830  141.5070 C   0  0  0  0  0  0  0  0  0  0  0  0
  196.9200  172.5220  143.7060 C   0  0  0  0  0  3  0  0  0  0  0  0
  194.4120  171.5620  140.9290 C   0  0  0  0  0  1  0  0  0  0  0  0
  196.5480  170.7230  139.4180 O   0  0  0  0  0  1  0  0  0  0  0  0
  197.1270  172.8570  138.8390 O   0  0  0  0  0  0  0  0  0  0  0  0
  196.3970  172.1000  139.5330 C   0  0  0  0  0  0  0  0  0  0  0  0
  196.5190  175.8680  141.5420 C   0  0  0  0  0  0  0  0  0  0  0  0
  196.5820  176.6680  142.5990 C   0  0  0  0  0  2  0  0  0  0  0  0
  197.4800  175.9780  140.5440 O   0  0  0  0  0  1  0  0  0  0  0  0
  191.8480  174.8880  145.1020 C   0  0  0  0  0  2  0  0  0  0  0  0
  190.6460  174.8110  144.2810 N   0  0  0  0  0  0  0  0  0  0  0  0
  189.5180  174.2890  144.8230 O   0  0  0  0  0  1  0  0  0  0  0  0
  190.5700  175.4720  143.0100 C   0  0  0  0  0  0  0  0  0  0  0  0
  190.9420  176.7420  142.9110 C   0  0  0  0  0  2  0  0  0  0  0  0
  188.8060  173.9890  142.0230 C   0  0  0  0  0  0  0  0  0  0  0  0
  187.5630  174.6480  142.2970 N   0  0  0  0  0  2  0  0  0  0  0  0
  189.9720  171.9590  141.6280 N   0  0  0  0  0  0  0  0  0  0  0  0
  188.8200  172.6910  141.9660 N   0  0  0  0  0  0  0  0  0  0  0  0
  191.0640  172.5540  141.2650 C   0  0  0  0  0  3  0  0  0  0  0  0
  190.0840  174.7660  141.7780 C   0  0  2  0  0  3  0  0  0  0  0  0
  191.1220  173.9490  141.2320 O   0  0  0  0  0  0  0  0  0  0  0  0
  187.3420  176.3640  142.4070 S   0  0  0  0  0  0  0  0  0  0  0  0
  188.1250  177.0330  141.3060 O   0  0  0  0  0  0  0  0  0  0  0  0
  185.8850  176.6790  142.2100 O   0  0  0  0  0  0  0  0  0  0  0  0
  187.2300  178.2140  144.4590 C   0  0  1  0  0  3  0  0  0  0  0  0
  186.6600  176.9340  144.8700 C   0  0  1  0  0  3  0  0  0  0  0  0
  187.8360  176.9370  143.9870 N   0  0  0  0  0  0  0  0  0  0  0  0
  187.1080  176.6000  146.2800 C   0  0  0  0  0  2  0  0  0  0  0  0
  186.3290  177.4360  147.2740 C   0  0  0  0  0  2  0  0  0  0  0  0
  184.8470  177.3170  146.9810 C   0  0  0  0  0  1  0  0  0  0  0  0
  186.3130  178.9170  143.4610 C   0  0  0  0  0  2  0  0  0  0  0  0
  183.8720  179.0600  143.9560 C   0  0  0  0  0  1  0  0  0  0  0  0
  185.2330  179.6920  144.1920 C   0  0  0  0  0  2  0  0  0  0  0  0
  1  5  2  0  0  0  0
  1  2  1  0  0  0  0
  2 11  2  0  0  0  0
  4  7  1  0  0  0  0
  4  6  2  0  0  0  0
  5  4  1  0  0  0  0
  6  8  1  0  0  0  0
  7  9  1  0  0  0  0
  7  3  1  1  0  0  0
  8 10  2  0  0  0  0
  9  8  1  0  0  0  0
 11 26  1  0  0  0  0
 11  6  1  0  0  0  0
 12 19  1  1  0  0  0
 12 17  1  0  0  0  0
 13 16  1  0  0  0  0
 14 18  2  0  0  0  0
 15 13  1  0  0  0  0
 15 12  1  0  0  0  0
 16 17  1  0  0  0  0
 16 23  1  6  0  0  0
 17 14  2  0  0  0  0
 18  7  1  0  0  0  0
 20 22  1  0  0  0  0
 21 22  2  0  0  0  0
 22 12  1  0  0  0  0
 23 24  2  0  0  0  0
 25 23  1  0  0  0  0
 27 28  1  0  0  0  0
 27 26  1  0  0  0  0
 29 27  1  0  0  0  0
 30 29  2  0  0  0  0
 31 32  1  0  0  0  0
 32 38  1  0  0  0  0
 33 34  1  0  0  0  0
 34 31  2  0  0  0  0
 35 33  2  0  0  0  0
 36 31  1  0  0  0  0
 36 29  1  1  0  0  0
 37 35  1  0  0  0  0
 37 36  1  0  0  0  0
 38 43  1  0  0  0  0
 39 38  2  0  0  0  0
 40 38  2  0  0  0  0
 41 47  1  6  0  0  0
 41 42  1  0  0  0  0
 42 44  1  1  0  0  0
 43 41  1  0  0  0  0
 43 42  1  0  0  0  0
 44 45  1  0  0  0  0
 46 45  1  0  0  0  0
 47 49  1  0  0  0  0
 48 49  1  0  0  0  0
M  END
>  <MODEL>
5

>  <REMARK>
 VINA RESULT:      -6.7      1.999      4.035
  Name = 
  13 active torsions:
  status: ('A' for Active; 'I' for Inactive)
    1  A    between atoms: C_3  and  C_36
    2  A    between atoms: N_4  and  S_34
    3  A    between atoms: C_5  and  C_26
    4  A    between atoms: C_9  and  C_25
    5  A    between atoms: C_12  and  C_19
    6  A    between atoms: C_12  and  C_29
    7  A    between atoms: N_17  and  C_27
    8  A    between atoms: N_17  and  C_43
    9  A    between atoms: C_24  and  C_27
   10  A    between atoms: C_25  and  C_40
   11  A    between atoms: S_34  and  N_48
   12  A    between atoms: C_38  and  C_41
   13  A    between atoms: C_43  and  C_49
                            x       y       z     vdW  Elec       q    Type
                         _______ _______ _______ _____ _____    ______ ____

>  <TORSDO>
F 13

$$$$
=
 OpenBabel11062418203D

 49 53  0  0  1  0  0  0  0  0999 V2000
  194.0640  176.0250  144.7640 C   0  0  0  0  0  3  0  0  0  0  0  0
  193.9850  174.6760  144.3690 C   0  0  0  0  0  3  0  0  0  0  0  0
  190.7870  176.9450  147.6390 C   0  0  0  0  0  1  0  0  0  0  0  0
  191.8900  175.9080  145.6630 C   0  0  0  0  0  0  0  0  0  0  0  0
  193.0120  176.6260  145.3930 N   0  0  0  0  0  0  0  0  0  0  0  0
  191.7800  174.5870  145.2980 C   0  0  0  0  0  0  0  0  0  0  0  0
  190.5950  176.4230  146.2270 C   0  0  1  0  0  0  0  0  0  0  0  0
  190.4490  174.1770  145.6790 C   0  0  0  0  0  0  0  0  0  0  0  0
  189.7660  175.2530  146.2380 O   0  0  0  0  0  0  0  0  0  0  0  0
  189.9540  173.0280  145.5330 O   0  0  0  0  0  0  0  0  0  0  0  0
  192.8210  173.9360  144.6290 C   0  0  0  0  0  0  0  0  0  0  0  0
  187.0150  177.0850  143.2580 C   0  0  1  0  0  0  0  0  0  0  0  0
  185.1890  177.0110  144.8310 O   0  0  0  0  0  0  0  0  0  0  0  0
  188.7410  177.4290  144.9870 C   0  0  0  0  0  0  0  0  0  0  0  0
  185.5710  176.6760  143.5120 C   0  0  0  0  0  2  0  0  0  0  0  0
  186.3750  177.1380  145.5820 C   0  0  1  0  0  3  0  0  0  0  0  0
  187.4830  177.3540  144.6270 C   0  0  0  0  0  0  0  0  0  0  0  0
  189.9940  177.4840  145.3530 C   0  0  0  0  0  3  0  0  0  0  0  0
  187.7580  175.9250  142.6160 C   0  0  0  0  0  1  0  0  0  0  0  0
  188.2420  178.5510  141.6320 O   0  0  0  0  0  0  0  0  0  0  0  0
  186.1170  179.0900  142.2750 O   0  0  0  0  0  1  0  0  0  0  0  0
  187.1000  178.3100  142.3860 C   0  0  0  0  0  0  0  0  0  0  0  0
  186.2590  178.2580  146.5740 C   0  0  0  0  0  0  0  0  0  0  0  0
  185.5680  179.3570  146.2950 C   0  0  0  0  0  2  0  0  0  0  0  0
  186.9260  178.1600  147.7880 O   0  0  0  0  0  1  0  0  0  0  0  0
  192.6900  172.5400  144.1040 C   0  0  0  0  0  2  0  0  0  0  0  0
  193.8700  171.7590  144.4540 N   0  0  0  0  0  0  0  0  0  0  0  0
  194.1980  171.6230  145.7630 O   0  0  0  0  0  1  0  0  0  0  0  0
  194.5470  170.9560  143.4770 C   0  0  0  0  0  0  0  0  0  0  0  0
  195.1160  171.5420  142.4310 C   0  0  0  0  0  2  0  0  0  0  0  0
  193.3230  168.8370  144.0200 C   0  0  0  0  0  0  0  0  0  0  0  0
  192.1850  168.8260  143.1480 N   0  0  0  0  0  2  0  0  0  0  0  0
  194.2980  168.1660  146.0780 N   0  0  0  0  0  0  0  0  0  0  0  0
  193.2160  168.2730  145.1850 N   0  0  0  0  0  0  0  0  0  0  0  0
  195.4890  168.5470  145.7380 C   0  0  0  0  0  3  0  0  0  0  0  0
  194.6390  169.4630  143.6050 C   0  0  2  0  0  3  0  0  0  0  0  0
  195.7130  169.1050  144.4780 O   0  0  0  0  0  0  0  0  0  0  0  0
  192.1320  169.5170  141.5600 S   0  0  0  0  0  0  0  0  0  0  0  0
  193.4380  169.2420  140.8600 O   0  0  0  0  0  0  0  0  0  0  0  0
  191.0290  168.8580  140.7800 O   0  0  0  0  0  0  0  0  0  0  0  0
  191.7150  171.9790  140.3710 C   0  0  1  0  0  3  0  0  0  0  0  0
  190.5030  171.4980  141.0290 C   0  0  1  0  0  3  0  0  0  0  0  0
  191.8070  171.2360  141.6600 N   0  0  0  0  0  0  0  0  0  0  0  0
  189.8280  172.6410  141.7620 C   0  0  0  0  0  2  0  0  0  0  0  0
  188.3540  172.6690  141.4150 C   0  0  0  0  0  2  0  0  0  0  0  0
  188.1910  172.8300  139.9160 C   0  0  0  0  0  1  0  0  0  0  0  0
  192.0070  171.1600  139.1150 C   0  0  0  0  0  2  0  0  0  0  0  0
  190.2320  170.2740  137.6040 C   0  0  0  0  0  1  0  0  0  0  0  0
  191.0190  171.5050  138.0180 C   0  0  0  0  0  2  0  0  0  0  0  0
  1  5  1  0  0  0  0
  2 11  1  0  0  0  0
  2  1  2  0  0  0  0
  4  7  1  0  0  0  0
  5  4  2  0  0  0  0
  6  4  1  0  0  0  0
  6  8  1  0  0  0  0
  7  9  1  0  0  0  0
  7  3  1  1  0  0  0
  8  9  1  0  0  0  0
 10  8  2  0  0  0  0
 11  6  2  0  0  0  0
 12 19  1  6  0  0  0
 12 15  1  0  0  0  0
 12 17  1  0  0  0  0
 13 16  1  0  0  0  0
 14 18  2  0  0  0  0
 15 13  1  0  0  0  0
 16 23  1  1  0  0  0
 17 14  2  0  0  0  0
 17 16  1  0  0  0  0
 18  7  1  0  0  0  0
 20 22  2  0  0  0  0
 21 22  1  0  0  0  0
 22 12  1  0  0  0  0
 23 25  1  0  0  0  0
 24 23  2  0  0  0  0
 26 27  1  0  0  0  0
 26 11  1  0  0  0  0
 27 28  1  0  0  0  0
 29 27  1  0  0  0  0
 30 29  2  0  0  0  0
 31 34  2  0  0  0  0
 32 31  1  0  0  0  0
 34 33  1  0  0  0  0
 35 33  2  0  0  0  0
 36 29  1  1  0  0  0
 36 31  1  0  0  0  0
 36 37  1  0  0  0  0
 37 35  1  0  0  0  0
 38 43  1  0  0  0  0
 38 32  1  0  0  0  0
 39 38  2  0  0  0  0
 40 38  2  0  0  0  0
 41 47  1  6  0  0  0
 41 42  1  0  0  0  0
 41 43  1  0  0  0  0
 42 43  1  0  0  0  0
 42 44  1  1  0  0  0
 45 44  1  0  0  0  0
 46 45  1  0  0  0  0
 48 49  1  0  0  0  0
 49 47  1  0  0  0  0
M  END
>  <MODEL>
6

>  <REMARK>
 VINA RESULT:      -6.6      3.117      8.422
  Name = 
  13 active torsions:
  status: ('A' for Active; 'I' for Inactive)
    1  A    between atoms: C_3  and  C_36
    2  A    between atoms: N_4  and  S_34
    3  A    between atoms: C_5  and  C_26
    4  A    between atoms: C_9  and  C_25
    5  A    between atoms: C_12  and  C_19
    6  A    between atoms: C_12  and  C_29
    7  A    between atoms: N_17  and  C_27
    8  A    between atoms: N_17  and  C_43
    9  A    between atoms: C_24  and  C_27
   10  A    between atoms: C_25  and  C_40
   11  A    between atoms: S_34  and  N_48
   12  A    between atoms: C_38  and  C_41
   13  A    between atoms: C_43  and  C_49
                            x       y       z     vdW  Elec       q    Type
                         _______ _______ _______ _____ _____    ______ ____

>  <TORSDO>
F 13

$$$$
=
 OpenBabel11062418203D

 49 53  0  0  1  0  0  0  0  0999 V2000
  194.3360  176.1950  145.7340 C   0  0  0  0  0  3  0  0  0  0  0  0
  193.2110  176.5020  144.9430 C   0  0  0  0  0  3  0  0  0  0  0  0
  197.9410  175.8240  143.1420 C   0  0  0  0  0  1  0  0  0  0  0  0
  195.5510  175.6020  143.8060 C   0  0  0  0  0  0  0  0  0  0  0  0
  195.4850  175.7370  145.1570 N   0  0  0  0  0  0  0  0  0  0  0  0
  194.4770  175.8980  143.0020 C   0  0  0  0  0  0  0  0  0  0  0  0
  196.6740  174.9990  143.0070 C   0  0  1  0  0  0  0  0  0  0  0  0
  194.8840  175.5760  141.6550 C   0  0  0  0  0  0  0  0  0  0  0  0
  196.1790  175.0660  141.6630 O   0  0  0  0  0  0  0  0  0  0  0  0
  194.1910  175.7200  140.6130 O   0  0  0  0  0  0  0  0  0  0  0  0
  193.2710  176.3460  143.5500 C   0  0  0  0  0  0  0  0  0  0  0  0
  194.3800  171.1520  144.4240 C   0  0  1  0  0  0  0  0  0  0  0  0
  193.2120  170.6250  142.3830 O   0  0  0  0  0  0  0  0  0  0  0  0
  195.9880  172.6730  143.3340 C   0  0  0  0  0  0  0  0  0  0  0  0
  193.1110  170.5990  143.7920 C   0  0  0  0  0  2  0  0  0  0  0  0
  194.1960  171.5790  142.0580 C   0  0  1  0  0  3  0  0  0  0  0  0
  195.0280  171.7850  143.2640 C   0  0  0  0  0  0  0  0  0  0  0  0
  196.9320  173.5750  143.4020 C   0  0  0  0  0  3  0  0  0  0  0  0
  194.0060  172.1650  145.4940 C   0  0  0  0  0  1  0  0  0  0  0  0
  195.0500  169.6670  146.3330 O   0  0  0  0  0  1  0  0  0  0  0  0
  196.0630  169.4360  144.2980 O   0  0  0  0  0  0  0  0  0  0  0  0
  195.2310  170.0570  145.0120 C   0  0  0  0  0  0  0  0  0  0  0  0
  195.0100  171.1260  140.8820 C   0  0  0  0  0  0  0  0  0  0  0  0
  195.4690  169.8830  140.7990 C   0  0  0  0  0  2  0  0  0  0  0  0
  195.3270  172.0390  139.8840 O   0  0  0  0  0  1  0  0  0  0  0  0
  192.0410  176.5570  142.7220 C   0  0  0  0  0  2  0  0  0  0  0  0
  191.2670  175.3230  142.6490 N   0  0  0  0  0  0  0  0  0  0  0  0
  191.9060  174.1410  142.8290 O   0  0  0  0  0  1  0  0  0  0  0  0
  189.8330  175.3460  142.6180 C   0  0  0  0  0  0  0  0  0  0  0  0
  189.2110  176.1370  141.7530 C   0  0  0  0  0  2  0  0  0  0  0  0
  189.5880  174.4230  144.9360 C   0  0  0  0  0  0  0  0  0  0  0  0
  189.6100  175.5660  145.8010 N   0  0  0  0  0  2  0  0  0  0  0  0
  190.0110  172.1060  144.6390 N   0  0  0  0  0  0  0  0  0  0  0  0
  190.0600  173.2990  145.3830 N   0  0  0  0  0  0  0  0  0  0  0  0
  189.4030  172.0520  143.4960 C   0  0  0  0  0  3  0  0  0  0  0  0
  189.0080  174.4920  143.5380 C   0  0  2  0  0  3  0  0  0  0  0  0
  188.8070  173.1980  142.9660 O   0  0  0  0  0  0  0  0  0  0  0  0
  189.0230  177.1450  145.3910 S   0  0  0  0  0  0  0  0  0  0  0  0
  188.8920  177.9630  146.6500 O   0  0  0  0  0  0  0  0  0  0  0  0
  190.0250  177.8160  144.4930 O   0  0  0  0  0  0  0  0  0  0  0  0
  186.2670  176.9270  145.3800 C   0  0  1  0  0  3  0  0  0  0  0  0
  186.6970  178.2170  144.8460 C   0  0  1  0  0  3  0  0  0  0  0  0
  187.4960  177.0200  144.5420 N   0  0  0  0  0  0  0  0  0  0  0  0
  185.8670  178.5720  143.6290 C   0  0  0  0  0  2  0  0  0  0  0  0
  186.7620  178.6660  142.4110 C   0  0  0  0  0  2  0  0  0  0  0  0
  186.0630  178.0390  141.2210 C   0  0  0  0  0  1  0  0  0  0  0  0
  186.5000  176.8630  146.8880 C   0  0  0  0  0  2  0  0  0  0  0  0
  184.2400  177.9190  146.8920 C   0  0  0  0  0  1  0  0  0  0  0  0
  185.5760  177.8280  147.6070 C   0  0  0  0  0  2  0  0  0  0  0  0
  2  1  2  0  0  0  0
  4  5  2  0  0  0  0
  5  1  1  0  0  0  0
  6 11  2  0  0  0  0
  6  4  1  0  0  0  0
  7  3  1  1  0  0  0
  7 18  1  0  0  0  0
  7  4  1  0  0  0  0
  8  9  1  0  0  0  0
  8  6  1  0  0  0  0
  9  7  1  0  0  0  0
 10  8  2  0  0  0  0
 11  2  1  0  0  0  0
 12 22  1  0  0  0  0
 12 19  1  1  0  0  0
 13 15  1  0  0  0  0
 14 18  2  0  0  0  0
 15 12  1  0  0  0  0
 16 23  1  6  0  0  0
 16 13  1  0  0  0  0
 16 17  1  0  0  0  0
 17 14  2  0  0  0  0
 17 12  1  0  0  0  0
 21 22  2  0  0  0  0
 22 20  1  0  0  0  0
 24 23  2  0  0  0  0
 25 23  1  0  0  0  0
 26 11  1  0  0  0  0
 27 26  1  0  0  0  0
 27 28  1  0  0  0  0
 29 27  1  0  0  0  0
 30 29  2  0  0  0  0
 31 34  2  0  0  0  0
 31 32  1  0  0  0  0
 33 34  1  0  0  0  0
 35 33  2  0  0  0  0
 36 29  1  6  0  0  0
 36 31  1  0  0  0  0
 37 35  1  0  0  0  0
 37 36  1  0  0  0  0
 38 32  1  0  0  0  0
 38 39  2  0  0  0  0
 40 38  2  0  0  0  0
 41 47  1  1  0  0  0
 42 44  1  6  0  0  0
 42 41  1  0  0  0  0
 43 42  1  0  0  0  0
 43 41  1  0  0  0  0
 43 38  1  0  0  0  0
 45 44  1  0  0  0  0
 46 45  1  0  0  0  0
 47 49  1  0  0  0  0
 48 49  1  0  0  0  0
M  END
>  <MODEL>
7

>  <REMARK>
 VINA RESULT:      -6.6      2.223      5.027
  Name = 
  13 active torsions:
  status: ('A' for Active; 'I' for Inactive)
    1  A    between atoms: C_3  and  C_36
    2  A    between atoms: N_4  and  S_34
    3  A    between atoms: C_5  and  C_26
    4  A    between atoms: C_9  and  C_25
    5  A    between atoms: C_12  and  C_19
    6  A    between atoms: C_12  and  C_29
    7  A    between atoms: N_17  and  C_27
    8  A    between atoms: N_17  and  C_43
    9  A    between atoms: C_24  and  C_27
   10  A    between atoms: C_25  and  C_40
   11  A    between atoms: S_34  and  N_48
   12  A    between atoms: C_38  and  C_41
   13  A    between atoms: C_43  and  C_49
                            x       y       z     vdW  Elec       q    Type
                         _______ _______ _______ _____ _____    ______ ____

>  <TORSDO>
F 13

$$$$
=
 OpenBabel11062418203D

 49 53  0  0  1  0  0  0  0  0999 V2000
  190.6310  173.2450  137.8880 C   0  0  0  0  0  3  0  0  0  0  0  0
  189.6070  173.5250  138.8150 C   0  0  0  0  0  3  0  0  0  0  0  0
  192.5580  169.3590  138.9060 C   0  0  0  0  0  1  0  0  0  0  0  0
  191.4780  171.5670  139.3070 C   0  0  0  0  0  0  0  0  0  0  0  0
  191.5590  172.2800  138.1530 N   0  0  0  0  0  0  0  0  0  0  0  0
  190.4890  171.8070  140.2300 C   0  0  0  0  0  0  0  0  0  0  0  0
  192.4700  170.5630  139.8260 C   0  0  1  0  0  0  0  0  0  0  0  0
  190.7540  170.9210  141.3400 C   0  0  0  0  0  0  0  0  0  0  0  0
  191.9060  170.1830  141.0880 O   0  0  0  0  0  0  0  0  0  0  0  0
  190.0660  170.8170  142.3890 O   0  0  0  0  0  0  0  0  0  0  0  0
  189.5310  172.8020  140.0150 C   0  0  0  0  0  0  0  0  0  0  0  0
  194.5160  174.7520  140.4050 C   0  0  1  0  0  0  0  0  0  0  0  0
  193.7020  175.2770  142.6130 O   0  0  0  0  0  0  0  0  0  0  0  0
  193.9660  172.3520  140.5670 C   0  0  0  0  0  0  0  0  0  0  0  0
  194.0460  175.8380  141.3620 C   0  0  0  0  0  2  0  0  0  0  0  0
  193.4400  173.9110  142.3920 C   0  0  1  0  0  3  0  0  0  0  0  0
  194.0840  173.5370  141.1140 C   0  0  0  0  0  0  0  0  0  0  0  0
  193.8260  171.1740  140.0190 C   0  0  0  0  0  3  0  0  0  0  0  0
  193.8070  174.9190  139.0710 C   0  0  0  0  0  1  0  0  0  0  0  0
  196.5490  175.2480  139.0190 O   0  0  0  0  0  0  0  0  0  0  0  0
  196.7850  174.4700  141.1550 O   0  0  0  0  0  1  0  0  0  0  0  0
  196.0100  174.7870  140.2150 C   0  0  0  0  0  0  0  0  0  0  0  0
  193.9400  173.0810  143.5390 C   0  0  0  0  0  0  0  0  0  0  0  0
  193.1200  172.3040  144.2360 C   0  0  0  0  0  2  0  0  0  0  0  0
  195.2770  173.1640  143.9040 O   0  0  0  0  0  1  0  0  0  0  0  0
  188.5180  173.1800  141.0510 C   0  0  0  0  0  2  0  0  0  0  0  0
  188.9230  174.4070  141.7260 N   0  0  0  0  0  0  0  0  0  0  0  0
  190.2450  174.6550  141.8900 O   0  0  0  0  0  1  0  0  0  0  0  0
  187.9750  175.4460  142.0120 C   0  0  0  0  0  0  0  0  0  0  0  0
  186.9900  175.2130  142.8690 C   0  0  0  0  0  2  0  0  0  0  0  0
  187.6350  177.9120  142.3040 C   0  0  0  0  0  0  0  0  0  0  0  0
  188.3980  178.2620  143.4660 N   0  0  0  0  0  2  0  0  0  0  0  0
  185.7850  178.3700  140.8880 N   0  0  0  0  0  0  0  0  0  0  0  0
  186.5560  178.5880  142.0440 N   0  0  0  0  0  0  0  0  0  0  0  0
  186.1680  177.5380  139.9720 C   0  0  0  0  0  3  0  0  0  0  0  0
  188.0690  176.8000  141.3710 C   0  0  2  0  0  3  0  0  0  0  0  0
  187.3510  176.8150  140.1350 O   0  0  0  0  0  0  0  0  0  0  0  0
  189.8620  177.4870  143.9750 S   0  0  0  0  0  0  0  0  0  0  0  0
  190.7100  177.1930  142.7650 O   0  0  0  0  0  0  0  0  0  0  0  0
  190.6220  178.4250  144.8700 O   0  0  0  0  0  0  0  0  0  0  0  0
  190.6210  175.3770  145.5940 C   0  0  1  0  0  3  0  0  0  0  0  0
  189.7250  176.2880  146.3000 C   0  0  1  0  0  3  0  0  0  0  0  0
  189.4920  176.0270  144.8710 N   0  0  0  0  0  0  0  0  0  0  0  0
  188.7200  175.4940  147.1120 C   0  0  0  0  0  2  0  0  0  0  0  0
  187.3280  176.0420  146.8770 C   0  0  0  0  0  2  0  0  0  0  0  0
  187.3230  177.5350  147.1400 C   0  0  0  0  0  1  0  0  0  0  0  0
  191.9920  176.0200  145.3900 C   0  0  0  0  0  2  0  0  0  0  0  0
  194.3930  175.9510  146.0620 C   0  0  0  0  0  1  0  0  0  0  0  0
  192.9930  175.4540  146.3780 C   0  0  0  0  0  2  0  0  0  0  0  0
  1  5  2  0  0  0  0
  1  2  1  0  0  0  0
  2 11  2  0  0  0  0
  4  7  1  0  0  0  0
  4  6  2  0  0  0  0
  5  4  1  0  0  0  0
  6  8  1  0  0  0  0
  7  3  1  6  0  0  0
  7 18  1  0  0  0  0
  7  9  1  0  0  0  0
  8 10  2  0  0  0  0
  9  8  1  0  0  0  0
 11  6  1  0  0  0  0
 11 26  1  0  0  0  0
 12 19  1  6  0  0  0
 12 17  1  0  0  0  0
 12 15  1  0  0  0  0
 14 17  2  0  0  0  0
 15 13  1  0  0  0  0
 16 13  1  0  0  0  0
 16 23  1  1  0  0  0
 17 16  1  0  0  0  0
 18 14  2  0  0  0  0
 20 22  2  0  0  0  0
 22 12  1  0  0  0  0
 22 21  1  0  0  0  0
 23 25  1  0  0  0  0
 23 24  2  0  0  0  0
 26 27  1  0  0  0  0
 27 28  1  0  0  0  0
 27 29  1  0  0  0  0
 29 30  2  0  0  0  0
 31 32  1  0  0  0  0
 32 38  1  0  0  0  0
 33 34  1  0  0  0  0
 34 31  2  0  0  0  0
 35 37  1  0  0  0  0
 35 33  2  0  0  0  0
 36 29  1  1  0  0  0
 36 31  1  0  0  0  0
 37 36  1  0  0  0  0
 38 40  2  0  0  0  0
 38 43  1  0  0  0  0
 39 38  2  0  0  0  0
 41 47  1  6  0  0  0
 41 42  1  0  0  0  0
 42 44  1  1  0  0  0
 43 41  1  0  0  0  0
 43 42  1  0  0  0  0
 45 44  1  0  0  0  0
 45 46  1  0  0  0  0
 47 49  1  0  0  0  0
 48 49  1  0  0  0  0
M  END
>  <MODEL>
8

>  <REMARK>
 VINA RESULT:      -6.5      2.128      4.345
  Name = 
  13 active torsions:
  status: ('A' for Active; 'I' for Inactive)
    1  A    between atoms: C_3  and  C_36
    2  A    between atoms: N_4  and  S_34
    3  A    between atoms: C_5  and  C_26
    4  A    between atoms: C_9  and  C_25
    5  A    between atoms: C_12  and  C_19
    6  A    between atoms: C_12  and  C_29
    7  A    between atoms: N_17  and  C_27
    8  A    between atoms: N_17  and  C_43
    9  A    between atoms: C_24  and  C_27
   10  A    between atoms: C_25  and  C_40
   11  A    between atoms: S_34  and  N_48
   12  A    between atoms: C_38  and  C_41
   13  A    between atoms: C_43  and  C_49
                            x       y       z     vdW  Elec       q    Type
                         _______ _______ _______ _____ _____    ______ ____

>  <TORSDO>
F 13

$$$$
=
 OpenBabel11062418203D

 49 53  0  0  1  0  0  0  0  0999 V2000
  190.5470  178.2610  143.3940 C   0  0  0  0  0  3  0  0  0  0  0  0
  191.4510  177.3080  142.8850 C   0  0  0  0  0  3  0  0  0  0  0  0
  189.9390  177.5780  147.7540 C   0  0  0  0  0  1  0  0  0  0  0  0
  190.2880  176.9910  145.3600 C   0  0  0  0  0  0  0  0  0  0  0  0
  189.9690  178.0830  144.6170 N   0  0  0  0  0  0  0  0  0  0  0  0
  191.1710  176.0430  144.8990 C   0  0  0  0  0  0  0  0  0  0  0  0
  189.6660  176.5620  146.6600 C   0  0  1  0  0  0  0  0  0  0  0  0
  191.2140  175.0120  145.9080 C   0  0  0  0  0  0  0  0  0  0  0  0
  190.3420  175.3310  146.9460 O   0  0  0  0  0  0  0  0  0  0  0  0
  191.9190  173.9690  145.8780 O   0  0  0  0  0  0  0  0  0  0  0  0
  191.7690  176.1690  143.6410 C   0  0  0  0  0  0  0  0  0  0  0  0
  185.7160  178.8610  145.5720 C   0  0  1  0  0  0  0  0  0  0  0  0
  186.1250  179.2420  143.2270 O   0  0  0  0  0  0  0  0  0  0  0  0
  187.4490  177.1180  145.7850 C   0  0  0  0  0  0  0  0  0  0  0  0
  185.5400  179.8000  144.3870 C   0  0  0  0  0  2  0  0  0  0  0  0
  187.0690  178.2910  143.6600 C   0  0  1  0  0  3  0  0  0  0  0  0
  186.7230  177.9230  145.0500 C   0  0  0  0  0  0  0  0  0  0  0  0
  188.1910  176.3300  146.5180 C   0  0  0  0  0  3  0  0  0  0  0  0
  186.2340  179.6510  146.7630 C   0  0  0  0  0  1  0  0  0  0  0  0
  184.4580  176.9110  146.5260 O   0  0  0  0  0  1  0  0  0  0  0  0
  183.3190  178.7310  145.7450 O   0  0  0  0  0  0  0  0  0  0  0  0
  184.4290  178.1630  145.9240 C   0  0  0  0  0  0  0  0  0  0  0  0
  187.0800  177.0990  142.7480 C   0  0  0  0  0  0  0  0  0  0  0  0
  186.2940  176.0530  142.9710 C   0  0  0  0  0  2  0  0  0  0  0  0
  187.9620  177.0730  141.6750 O   0  0  0  0  0  1  0  0  0  0  0  0
  192.6340  175.0990  143.0520 C   0  0  0  0  0  2  0  0  0  0  0  0
  191.8080  174.0570  142.4540 N   0  0  0  0  0  0  0  0  0  0  0  0
  190.6350  174.4090  141.8730 O   0  0  0  0  0  1  0  0  0  0  0  0
  192.3080  172.7250  142.2710 C   0  0  0  0  0  0  0  0  0  0  0  0
  192.3590  171.8980  143.3080 C   0  0  0  0  0  2  0  0  0  0  0  0
  193.6270  173.2510  140.2060 C   0  0  0  0  0  0  0  0  0  0  0  0
  194.9320  173.6130  140.6740 N   0  0  0  0  0  2  0  0  0  0  0  0
  191.9510  173.4570  138.5360 N   0  0  0  0  0  0  0  0  0  0  0  0
  193.1850  173.8040  139.1160 N   0  0  0  0  0  0  0  0  0  0  0  0
  191.2300  172.4930  139.0170 C   0  0  0  0  0  3  0  0  0  0  0  0
  192.7720  172.2320  140.9320 C   0  0  2  0  0  3  0  0  0  0  0  0
  191.6590  171.7970  140.1480 O   0  0  0  0  0  0  0  0  0  0  0  0
  195.6960  172.9830  142.0970 S   0  0  0  0  0  0  0  0  0  0  0  0
  195.3990  171.5100  142.2050 O   0  0  0  0  0  0  0  0  0  0  0  0
  197.1830  173.1580  141.9670 O   0  0  0  0  0  0  0  0  0  0  0  0
  195.7620  173.4780  144.8170 C   0  0  1  0  0  3  0  0  0  0  0  0
  196.2810  174.6150  144.0610 C   0  0  1  0  0  3  0  0  0  0  0  0
  195.1460  173.8550  143.5140 N   0  0  0  0  0  0  0  0  0  0  0  0
  195.7610  175.9080  144.6560 C   0  0  0  0  0  2  0  0  0  0  0  0
  195.0110  175.6140  145.9390 C   0  0  0  0  0  2  0  0  0  0  0  0
  194.3280  176.8770  146.4250 C   0  0  0  0  0  1  0  0  0  0  0  0
  196.7410  172.3070  144.7690 C   0  0  0  0  0  2  0  0  0  0  0  0
  195.0290  170.7430  145.6900 C   0  0  0  0  0  1  0  0  0  0  0  0
  196.4270  171.3100  145.8680 C   0  0  0  0  0  2  0  0  0  0  0  0
  1  5  1  0  0  0  0
  2  1  2  0  0  0  0
  2 11  1  0  0  0  0
  4  7  1  0  0  0  0
  5  4  2  0  0  0  0
  6  4  1  0  0  0  0
  6  8  1  0  0  0  0
  7  9  1  0  0  0  0
  7  3  1  1  0  0  0
  8  9  1  0  0  0  0
 10  8  2  0  0  0  0
 11  6  2  0  0  0  0
 12 22  1  0  0  0  0
 12 19  1  1  0  0  0
 13 16  1  0  0  0  0
 13 15  1  0  0  0  0
 14 18  2  0  0  0  0
 15 12  1  0  0  0  0
 16 23  1  6  0  0  0
 16 17  1  0  0  0  0
 17 12  1  0  0  0  0
 17 14  2  0  0  0  0
 18  7  1  0  0  0  0
 21 22  2  0  0  0  0
 22 20  1  0  0  0  0
 23 24  2  0  0  0  0
 25 23  1  0  0  0  0
 26 11  1  0  0  0  0
 27 26  1  0  0  0  0
 28 27  1  0  0  0  0
 29 27  1  0  0  0  0
 29 30  2  0  0  0  0
 31 32  1  0  0  0  0
 31 36  1  0  0  0  0
 32 38  1  0  0  0  0
 33 35  2  0  0  0  0
 33 34  1  0  0  0  0
 34 31  2  0  0  0  0
 35 37  1  0  0  0  0
 36 29  1  1  0  0  0
 37 36  1  0  0  0  0
 38 39  2  0  0  0  0
 38 43  1  0  0  0  0
 40 38  2  0  0  0  0
 41 47  1  6  0  0  0
 42 44  1  1  0  0  0
 42 41  1  0  0  0  0
 43 42  1  0  0  0  0
 43 41  1  0  0  0  0
 44 45  1  0  0  0  0
 45 46  1  0  0  0  0
 47 49  1  0  0  0  0
 48 49  1  0  0  0  0
M  END
>  <MODEL>
9

>  <REMARK>
 VINA RESULT:      -6.5      2.746      9.289
  Name = 
  13 active torsions:
  status: ('A' for Active; 'I' for Inactive)
    1  A    between atoms: C_3  and  C_36
    2  A    between atoms: N_4  and  S_34
    3  A    between atoms: C_5  and  C_26
    4  A    between atoms: C_9  and  C_25
    5  A    between atoms: C_12  and  C_19
    6  A    between atoms: C_12  and  C_29
    7  A    between atoms: N_17  and  C_27
    8  A    between atoms: N_17  and  C_43
    9  A    between atoms: C_24  and  C_27
   10  A    between atoms: C_25  and  C_40
   11  A    between atoms: S_34  and  N_48
   12  A    between atoms: C_38  and  C_41
   13  A    between atoms: C_43  and  C_49
                            x       y       z     vdW  Elec       q    Type
                         _______ _______ _______ _____ _____    ______ ____

>  <TORSDO>
F 13

$$$$
