=
 OpenBabel11062421593D

 35 37  0  0  1  0  0  0  0  0999 V2000
  188.7470  175.6080  146.6290 C   0  0  0  0  0  0  0  0  0  0  0  0
  188.2650  176.8910  144.7840 C   0  0  0  0  0  3  0  0  0  0  0  0
  189.3380  175.9940  145.3170 C   0  0  2  0  0  3  0  0  0  0  0  0
  189.3720  174.7760  147.5490 O   0  0  0  0  0  1  0  0  0  0  0  0
  187.2660  176.9530  145.6550 C   0  0  0  0  0  0  0  0  0  0  0  0
  187.5570  176.1420  146.8280 C   0  0  0  0  0  3  0  0  0  0  0  0
  186.0170  177.7090  145.4660 C   0  0  0  0  0  0  0  0  0  0  0  0
  185.2190  177.7810  144.3400 C   0  0  0  0  0  0  0  0  0  0  0  0
  184.3460  178.9730  145.8600 C   0  0  0  0  0  3  0  0  0  0  0  0
  185.4640  178.4710  146.4290 N   0  0  0  0  0  0  0  0  0  0  0  0
  184.2060  178.5590  144.6190 O   0  0  0  0  0  0  0  0  0  0  0  0
  185.4250  177.1340  143.0070 C   0  0  0  0  0  2  0  0  0  0  0  0
  185.5300  178.1480  141.8740 C   0  0  2  0  0  3  0  0  0  0  0  0
  184.2470  178.4410  141.4160 O   0  0  0  0  0  1  0  0  0  0  0  0
  186.3580  177.6130  140.7160 C   0  0  0  0  0  2  0  0  0  0  0  0
  188.6030  178.2430  141.6070 O   0  0  0  0  0  1  0  0  0  0  0  0
  188.0940  176.0490  141.1820 O   0  0  0  0  0  0  0  0  0  0  0  0
  187.7270  177.2520  141.1810 C   0  0  0  0  0  0  0  0  0  0  0  0
  189.4760  174.7510  144.4460 C   0  0  0  0  0  2  0  0  0  0  0  0
  190.9360  174.4490  144.1450 C   0  0  1  0  0  3  0  0  0  0  0  0
  193.7980  176.8310  144.4520 O   0  0  0  0  0  0  0  0  0  0  0  0
  193.9980  176.9040  146.8240 C   0  0  0  0  0  1  0  0  0  0  0  0
  192.6580  176.3600  143.7730 C   0  0  2  0  0  0  0  0  0  0  0  0
  193.1140  175.5500  142.5610 C   0  0  0  0  0  1  0  0  0  0  0  0
  191.9070  177.4490  143.3310 O   0  0  0  0  0  1  0  0  0  0  0  0
  193.9990  176.0160  145.5890 C   0  0  1  0  0  0  0  0  0  0  0  0
  191.8300  175.5430  144.7590 C   0  0  2  0  0  3  0  0  0  0  0  0
  192.8710  175.0070  145.6910 C   0  0  0  0  0  2  0  0  0  0  0  0
  195.3440  175.3030  145.4530 C   0  0  0  0  0  2  0  0  0  0  0  0
  195.1810  173.4910  145.2950 S   0  0  0  0  0  1  0  0  0  0  0  0
  191.2560  173.0800  144.7310 C   0  0  0  0  0  2  0  0  0  0  0  0
  191.9260  172.1990  143.6910 C   0  0  0  0  0  2  0  0  0  0  0  0
  191.1990  172.3060  142.3610 C   0  0  0  0  0  2  0  0  0  0  0  0
  188.8210  172.1060  142.2290 O   0  0  0  0  0  1  0  0  0  0  0  0
  190.0030  171.3690  142.3170 C   0  0  0  0  0  2  0  0  0  0  0  0
  1  6  2  0  0  0  0
  1  4  1  0  0  0  0
  2  3  1  0  0  0  0
  2  5  2  0  0  0  0
  3 19  1  6  0  0  0
  3  1  1  0  0  0  0
  5  6  1  0  0  0  0
  7  5  1  0  0  0  0
  7 10  1  0  0  0  0
  8 11  1  0  0  0  0
  8  7  2  0  0  0  0
  9 10  2  0  0  0  0
 11  9  1  0  0  0  0
 12  8  1  0  0  0  0
 13 14  1  6  0  0  0
 13 12  1  0  0  0  0
 15 18  1  0  0  0  0
 15 13  1  0  0  0  0
 18 17  2  0  0  0  0
 18 16  1  0  0  0  0
 20 19  1  1  0  0  0
 20 31  1  0  0  0  0
 21 26  1  0  0  0  0
 23 24  1  6  0  0  0
 23 21  1  0  0  0  0
 23 27  1  0  0  0  0
 25 23  1  0  0  0  0
 26 28  1  0  0  0  0
 26 22  1  1  0  0  0
 27 20  1  6  0  0  0
 27 28  1  0  0  0  0
 29 26  1  0  0  0  0
 30 29  1  0  0  0  0
 32 31  1  0  0  0  0
 33 32  1  0  0  0  0
 34 35  1  0  0  0  0
 35 33  1  0  0  0  0
M  END
>  <MODEL>
1

>  <REMARK>
 VINA RESULT:      -6.7      0.000      0.000
  Name = 
  13 active torsions:
  status: ('A' for Active; 'I' for Inactive)
    1  A    between atoms: C_1  and  C_21
    2  A    between atoms: C_2  and  C_16
    3  A    between atoms: C_2  and  C_19
    4  A    between atoms: C_3  and  C_20
    5  A    between atoms: C_3  and  C_26
    6  A    between atoms: C_5  and  C_24
    7  A    between atoms: C_13  and  C_18
    8  A    between atoms: C_14  and  C_30
    9  A    between atoms: C_16  and  C_30
   10  A    between atoms: C_18  and  C_29
   11  A    between atoms: C_20  and  C_28
   12  A    between atoms: C_23  and  C_29
   13  A    between atoms: C_26  and  C_29
                            x       y       z     vdW  Elec       q    Type
                         _______ _______ _______ _____ _____    ______ ____

>  <TORSDO>
F 13

$$$$
=
 OpenBabel11062421593D

 35 37  0  0  1  0  0  0  0  0999 V2000
  188.3640  176.1150  146.3630 C   0  0  0  0  0  0  0  0  0  0  0  0
  189.6450  176.8350  144.5950 C   0  0  0  0  0  3  0  0  0  0  0  0
  189.7940  176.2950  145.9830 C   0  0  2  0  0  3  0  0  0  0  0  0
  187.9410  175.6430  147.5980 O   0  0  0  0  0  1  0  0  0  0  0  0
  188.3570  176.9070  144.2830 C   0  0  0  0  0  0  0  0  0  0  0  0
  187.5340  176.4510  145.3930 C   0  0  0  0  0  3  0  0  0  0  0  0
  187.8180  177.3570  142.9890 C   0  0  0  0  0  0  0  0  0  0  0  0
  186.8150  178.2760  142.7500 C   0  0  0  0  0  0  0  0  0  0  0  0
  187.5290  177.5590  140.8870 C   0  0  0  0  0  3  0  0  0  0  0  0
  188.2670  176.8980  141.8050 N   0  0  0  0  0  0  0  0  0  0  0  0
  186.6670  178.3770  141.4540 O   0  0  0  0  0  0  0  0  0  0  0  0
  185.9910  179.0370  143.7400 C   0  0  0  0  0  2  0  0  0  0  0  0
  184.6860  178.3280  144.0820 C   0  0  2  0  0  3  0  0  0  0  0  0
  183.7980  178.4880  143.0200 O   0  0  0  0  0  1  0  0  0  0  0  0
  184.0530  178.8950  145.3440 C   0  0  0  0  0  2  0  0  0  0  0  0
  185.4170  179.0300  147.4300 O   0  0  0  0  0  1  0  0  0  0  0  0
  184.4810  177.0410  146.7790 O   0  0  0  0  0  0  0  0  0  0  0  0
  184.6560  178.2670  146.5540 C   0  0  0  0  0  0  0  0  0  0  0  0
  190.4790  174.9350  145.9570 C   0  0  0  0  0  2  0  0  0  0  0  0
  191.3620  174.7860  144.7270 C   0  0  1  0  0  3  0  0  0  0  0  0
  194.9010  175.9150  144.3190 O   0  0  0  0  0  0  0  0  0  0  0  0
  195.9700  174.4120  145.8250 C   0  0  0  0  0  1  0  0  0  0  0  0
  193.5180  176.1820  144.3240 C   0  0  2  0  0  0  0  0  0  0  0  0
  193.0380  176.2810  142.8770 C   0  0  0  0  0  1  0  0  0  0  0  0
  193.2900  177.4010  144.9610 O   0  0  0  0  0  1  0  0  0  0  0  0
  195.0830  174.5420  144.5970 C   0  0  1  0  0  0  0  0  0  0  0  0
  192.8300  175.0680  145.1050 C   0  0  2  0  0  3  0  0  0  0  0  0
  193.7370  173.9010  144.8750 C   0  0  0  0  0  2  0  0  0  0  0  0
  195.7520  173.8810  143.3910 C   0  0  0  0  0  2  0  0  0  0  0  0
  194.6320  172.7680  142.4720 S   0  0  0  0  0  1  0  0  0  0  0  0
  191.1900  173.3670  144.2010 C   0  0  0  0  0  2  0  0  0  0  0  0
  189.7170  173.0420  144.0230 C   0  0  0  0  0  2  0  0  0  0  0  0
  189.1970  173.6420  142.7270 C   0  0  0  0  0  2  0  0  0  0  0  0
  187.2050  172.6080  141.9040 O   0  0  0  0  0  1  0  0  0  0  0  0
  188.5980  172.5710  141.8310 C   0  0  0  0  0  2  0  0  0  0  0  0
  1  4  1  0  0  0  0
  2  3  1  0  0  0  0
  3 19  1  6  0  0  0
  3  1  1  0  0  0  0
  5  2  2  0  0  0  0
  5  6  1  0  0  0  0
  6  1  2  0  0  0  0
  7  5  1  0  0  0  0
  8  7  2  0  0  0  0
  8 12  1  0  0  0  0
  9 11  1  0  0  0  0
  9 10  2  0  0  0  0
 10  7  1  0  0  0  0
 11  8  1  0  0  0  0
 12 13  1  0  0  0  0
 13 14  1  6  0  0  0
 13 15  1  0  0  0  0
 15 18  1  0  0  0  0
 18 17  2  0  0  0  0
 18 16  1  0  0  0  0
 20 31  1  1  0  0  0
 20 19  1  0  0  0  0
 21 23  1  0  0  0  0
 21 26  1  0  0  0  0
 23 24  1  6  0  0  0
 23 25  1  0  0  0  0
 23 27  1  0  0  0  0
 26 28  1  0  0  0  0
 26 22  1  1  0  0  0
 27 20  1  6  0  0  0
 28 27  1  0  0  0  0
 29 26  1  0  0  0  0
 30 29  1  0  0  0  0
 32 31  1  0  0  0  0
 33 32  1  0  0  0  0
 35 34  1  0  0  0  0
 35 33  1  0  0  0  0
M  END
>  <MODEL>
2

>  <REMARK>
 VINA RESULT:      -6.5      1.809      3.148
  Name = 
  13 active torsions:
  status: ('A' for Active; 'I' for Inactive)
    1  A    between atoms: C_1  and  C_21
    2  A    between atoms: C_2  and  C_16
    3  A    between atoms: C_2  and  C_19
    4  A    between atoms: C_3  and  C_20
    5  A    between atoms: C_3  and  C_26
    6  A    between atoms: C_5  and  C_24
    7  A    between atoms: C_13  and  C_18
    8  A    between atoms: C_14  and  C_30
    9  A    between atoms: C_16  and  C_30
   10  A    between atoms: C_18  and  C_29
   11  A    between atoms: C_20  and  C_28
   12  A    between atoms: C_23  and  C_29
   13  A    between atoms: C_26  and  C_29
                            x       y       z     vdW  Elec       q    Type
                         _______ _______ _______ _____ _____    ______ ____

>  <TORSDO>
F 13

$$$$
=
 OpenBabel11062421593D

 35 37  0  0  1  0  0  0  0  0999 V2000
  189.6400  177.5110  142.4860 C   0  0  0  0  0  0  0  0  0  0  0  0
  187.8870  176.0500  142.2110 C   0  0  0  0  0  3  0  0  0  0  0  0
  189.3290  176.0590  142.6100 C   0  0  2  0  0  3  0  0  0  0  0  0
  190.8910  178.0620  142.7330 O   0  0  0  0  0  1  0  0  0  0  0  0
  187.4930  177.2890  141.9440 C   0  0  0  0  0  0  0  0  0  0  0  0
  188.5940  178.2250  142.1170 C   0  0  0  0  0  3  0  0  0  0  0  0
  186.1300  177.6840  141.5520 C   0  0  0  0  0  0  0  0  0  0  0  0
  185.0080  177.8030  142.3500 C   0  0  0  0  0  0  0  0  0  0  0  0
  184.4750  178.3050  140.3600 C   0  0  0  0  0  3  0  0  0  0  0  0
  185.7890  177.9980  140.2870 N   0  0  0  0  0  0  0  0  0  0  0  0
  184.0170  178.1880  141.5880 O   0  0  0  0  0  0  0  0  0  0  0  0
  184.8720  177.5370  143.8160 C   0  0  0  0  0  2  0  0  0  0  0  0
  185.3760  178.6950  144.6700 C   0  0  2  0  0  3  0  0  0  0  0  0
  185.6410  179.7810  143.8380 O   0  0  0  0  0  1  0  0  0  0  0  0
  186.6450  178.3270  145.4230 C   0  0  0  0  0  2  0  0  0  0  0  0
  185.9890  179.2010  147.6670 O   0  0  0  0  0  1  0  0  0  0  0  0
  186.4290  176.9710  147.3700 O   0  0  0  0  0  0  0  0  0  0  0  0
  186.3490  178.1220  146.8690 C   0  0  0  0  0  0  0  0  0  0  0  0
  189.4830  175.6370  144.0660 C   0  0  0  0  0  2  0  0  0  0  0  0
  190.4530  174.4720  144.2020 C   0  0  1  0  0  3  0  0  0  0  0  0
  194.0750  174.4940  143.2840 O   0  0  0  0  0  0  0  0  0  0  0  0
  194.9310  175.7950  145.0870 C   0  0  0  0  0  1  0  0  0  0  0  0
  192.7150  174.4520  142.9210 C   0  0  2  0  0  0  0  0  0  0  0  0
  192.3550  173.0140  142.5530 C   0  0  0  0  0  1  0  0  0  0  0  0
  192.5130  175.2680  141.8080 O   0  0  0  0  0  1  0  0  0  0  0  0
  194.1510  174.5500  144.6940 C   0  0  1  0  0  0  0  0  0  0  0  0
  191.9010  174.9880  144.0940 C   0  0  2  0  0  3  0  0  0  0  0  0
  192.7510  174.6270  145.2710 C   0  0  0  0  0  2  0  0  0  0  0  0
  194.8690  173.2970  145.1980 C   0  0  0  0  0  2  0  0  0  0  0  0
  196.5720  173.6290  145.7690 S   0  0  0  0  0  1  0  0  0  0  0  0
  190.2000  173.8150  145.5530 C   0  0  0  0  0  2  0  0  0  0  0  0
  189.2750  174.6740  146.3970 C   0  0  0  0  0  2  0  0  0  0  0  0
  189.9710  175.1000  147.6790 C   0  0  0  0  0  2  0  0  0  0  0  0
  189.7710  177.4250  147.1600 O   0  0  0  0  0  1  0  0  0  0  0  0
  190.6890  176.4270  147.4940 C   0  0  0  0  0  2  0  0  0  0  0  0
  1  3  1  0  0  0  0
  1  4  1  0  0  0  0
  2  3  1  0  0  0  0
  3 19  1  1  0  0  0
  5  6  1  0  0  0  0
  5  2  2  0  0  0  0
  6  1  2  0  0  0  0
  7  5  1  0  0  0  0
  7  8  2  0  0  0  0
  8 12  1  0  0  0  0
  9 11  1  0  0  0  0
 10  9  2  0  0  0  0
 10  7  1  0  0  0  0
 11  8  1  0  0  0  0
 12 13  1  0  0  0  0
 13 14  1  6  0  0  0
 13 15  1  0  0  0  0
 15 18  1  0  0  0  0
 18 17  2  0  0  0  0
 18 16  1  0  0  0  0
 20 19  1  1  0  0  0
 20 31  1  0  0  0  0
 21 26  1  0  0  0  0
 23 24  1  6  0  0  0
 23 21  1  0  0  0  0
 23 27  1  0  0  0  0
 25 23  1  0  0  0  0
 26 22  1  1  0  0  0
 26 29  1  0  0  0  0
 26 28  1  0  0  0  0
 27 20  1  1  0  0  0
 27 28  1  0  0  0  0
 29 30  1  0  0  0  0
 31 32  1  0  0  0  0
 32 33  1  0  0  0  0
 34 35  1  0  0  0  0
 35 33  1  0  0  0  0
M  END
>  <MODEL>
3

>  <REMARK>
 VINA RESULT:      -6.5      2.097      4.085
  Name = 
  13 active torsions:
  status: ('A' for Active; 'I' for Inactive)
    1  A    between atoms: C_1  and  C_21
    2  A    between atoms: C_2  and  C_16
    3  A    between atoms: C_2  and  C_19
    4  A    between atoms: C_3  and  C_20
    5  A    between atoms: C_3  and  C_26
    6  A    between atoms: C_5  and  C_24
    7  A    between atoms: C_13  and  C_18
    8  A    between atoms: C_14  and  C_30
    9  A    between atoms: C_16  and  C_30
   10  A    between atoms: C_18  and  C_29
   11  A    between atoms: C_20  and  C_28
   12  A    between atoms: C_23  and  C_29
   13  A    between atoms: C_26  and  C_29
                            x       y       z     vdW  Elec       q    Type
                         _______ _______ _______ _____ _____    ______ ____

>  <TORSDO>
F 13

$$$$
=
 OpenBabel11062421593D

 35 37  0  0  1  0  0  0  0  0999 V2000
  189.5270  176.9890  146.5670 C   0  0  0  0  0  0  0  0  0  0  0  0
  187.9720  176.6220  144.9150 C   0  0  0  0  0  3  0  0  0  0  0  0
  189.3910  176.2910  145.2570 C   0  0  2  0  0  3  0  0  0  0  0  0
  190.6940  177.0100  147.3190 O   0  0  0  0  0  1  0  0  0  0  0  0
  187.4390  177.3500  145.8870 C   0  0  0  0  0  0  0  0  0  0  0  0
  188.4130  177.5880  146.9420 C   0  0  0  0  0  3  0  0  0  0  0  0
  186.0490  177.8360  145.9240 C   0  0  0  0  0  0  0  0  0  0  0  0
  185.3880  178.6150  144.9950 C   0  0  0  0  0  0  0  0  0  0  0  0
  184.0500  178.1760  146.5790 C   0  0  0  0  0  3  0  0  0  0  0  0
  185.2000  177.5620  146.9330 N   0  0  0  0  0  0  0  0  0  0  0  0
  184.1670  178.8000  145.4260 O   0  0  0  0  0  0  0  0  0  0  0  0
  185.9130  179.1950  143.7190 C   0  0  0  0  0  2  0  0  0  0  0  0
  185.3230  178.5230  142.4850 C   0  0  2  0  0  3  0  0  0  0  0  0
  183.9930  178.1980  142.7460 O   0  0  0  0  0  1  0  0  0  0  0  0
  186.0800  177.2550  142.1200 C   0  0  0  0  0  2  0  0  0  0  0  0
  188.4080  177.9160  141.5080 O   0  0  0  0  0  1  0  0  0  0  0  0
  186.8560  177.4770  139.8790 O   0  0  0  0  0  0  0  0  0  0  0  0
  187.1290  177.5510  141.1050 C   0  0  0  0  0  0  0  0  0  0  0  0
  189.5540  174.7920  145.4710 C   0  0  0  0  0  2  0  0  0  0  0  0
  190.4850  174.1850  144.4320 C   0  0  1  0  0  3  0  0  0  0  0  0
  189.5060  172.3880  141.3060 O   0  0  0  0  0  0  0  0  0  0  0  0
  188.6600  174.2240  140.0450 C   0  0  0  0  0  1  0  0  0  0  0  0
  189.6960  172.4140  142.7010 C   0  0  2  0  0  0  0  0  0  0  0  0
  191.0010  171.6910  143.0260 C   0  0  0  0  0  1  0  0  0  0  0  0
  188.6410  171.7430  143.3180 O   0  0  0  0  0  1  0  0  0  0  0  0
  189.8580  173.6570  140.7920 C   0  0  1  0  0  0  0  0  0  0  0  0
  189.6960  173.8730  143.1460 C   0  0  2  0  0  3  0  0  0  0  0  0
  190.2210  174.5810  141.9380 C   0  0  0  0  0  2  0  0  0  0  0  0
  191.0430  173.4920  139.8410 C   0  0  0  0  0  2  0  0  0  0  0  0
  192.6210  174.0710  140.5560 S   0  0  0  0  0  1  0  0  0  0  0  0
  191.5990  175.1900  144.1660 C   0  0  0  0  0  2  0  0  0  0  0  0
  192.9390  174.6260  144.6050 C   0  0  0  0  0  2  0  0  0  0  0  0
  193.3680  175.2470  145.9250 C   0  0  0  0  0  2  0  0  0  0  0  0
  194.2910  177.2050  146.9370 O   0  0  0  0  0  1  0  0  0  0  0  0
  193.8600  176.6710  145.7220 C   0  0  0  0  0  2  0  0  0  0  0  0
  1  6  2  0  0  0  0
  1  4  1  0  0  0  0
  2  3  1  0  0  0  0
  2  5  2  0  0  0  0
  3 19  1  1  0  0  0
  3  1  1  0  0  0  0
  5  7  1  0  0  0  0
  5  6  1  0  0  0  0
  7 10  1  0  0  0  0
  8 11  1  0  0  0  0
  8  7  2  0  0  0  0
  9 10  2  0  0  0  0
 11  9  1  0  0  0  0
 12  8  1  0  0  0  0
 13 14  1  1  0  0  0
 13 12  1  0  0  0  0
 15 13  1  0  0  0  0
 17 18  2  0  0  0  0
 18 16  1  0  0  0  0
 18 15  1  0  0  0  0
 20 31  1  6  0  0  0
 20 19  1  0  0  0  0
 21 23  1  0  0  0  0
 23 24  1  1  0  0  0
 23 27  1  0  0  0  0
 23 25  1  0  0  0  0
 26 22  1  6  0  0  0
 26 21  1  0  0  0  0
 26 28  1  0  0  0  0
 27 20  1  1  0  0  0
 28 27  1  0  0  0  0
 29 30  1  0  0  0  0
 29 26  1  0  0  0  0
 31 32  1  0  0  0  0
 32 33  1  0  0  0  0
 35 33  1  0  0  0  0
 35 34  1  0  0  0  0
M  END
>  <MODEL>
4

>  <REMARK>
 VINA RESULT:      -6.5      1.753      4.081
  Name = 
  13 active torsions:
  status: ('A' for Active; 'I' for Inactive)
    1  A    between atoms: C_1  and  C_21
    2  A    between atoms: C_2  and  C_16
    3  A    between atoms: C_2  and  C_19
    4  A    between atoms: C_3  and  C_20
    5  A    between atoms: C_3  and  C_26
    6  A    between atoms: C_5  and  C_24
    7  A    between atoms: C_13  and  C_18
    8  A    between atoms: C_14  and  C_30
    9  A    between atoms: C_16  and  C_30
   10  A    between atoms: C_18  and  C_29
   11  A    between atoms: C_20  and  C_28
   12  A    between atoms: C_23  and  C_29
   13  A    between atoms: C_26  and  C_29
                            x       y       z     vdW  Elec       q    Type
                         _______ _______ _______ _____ _____    ______ ____

>  <TORSDO>
F 13

$$$$
=
 OpenBabel11062421593D

 35 37  0  0  1  0  0  0  0  0999 V2000
  188.3600  177.6300  142.3290 C   0  0  0  0  0  0  0  0  0  0  0  0
  186.5160  176.2960  142.6470 C   0  0  0  0  0  3  0  0  0  0  0  0
  188.0040  176.1960  142.5230 C   0  0  2  0  0  3  0  0  0  0  0  0
  189.6570  178.0900  142.1390 O   0  0  0  0  0  1  0  0  0  0  0  0
  186.1480  177.5670  142.5570 C   0  0  0  0  0  0  0  0  0  0  0  0
  187.3060  178.4240  142.3580 C   0  0  0  0  0  3  0  0  0  0  0  0
  184.7660  178.0640  142.6670 C   0  0  0  0  0  0  0  0  0  0  0  0
  184.1690  178.7100  143.7330 C   0  0  0  0  0  0  0  0  0  0  0  0
  182.7430  178.5230  142.1750 C   0  0  0  0  0  3  0  0  0  0  0  0
  183.8570  177.9400  141.6800 N   0  0  0  0  0  0  0  0  0  0  0  0
  182.9340  178.9780  143.3950 O   0  0  0  0  0  0  0  0  0  0  0  0
  184.7570  179.0530  145.0650 C   0  0  0  0  0  2  0  0  0  0  0  0
  184.3890  178.0420  146.1450 C   0  0  2  0  0  3  0  0  0  0  0  0
  184.6030  178.6220  147.3930 O   0  0  0  0  0  1  0  0  0  0  0  0
  185.2260  176.7760  146.0380 C   0  0  0  0  0  2  0  0  0  0  0  0
  187.4750  177.8590  146.0130 O   0  0  0  0  0  0  0  0  0  0  0  0
  186.9060  176.3970  147.6840 O   0  0  0  0  0  1  0  0  0  0  0  0
  186.5760  176.9970  146.6290 C   0  0  0  0  0  0  0  0  0  0  0  0
  188.6160  175.7010  143.8270 C   0  0  0  0  0  2  0  0  0  0  0  0
  189.6510  174.6150  143.5740 C   0  0  1  0  0  3  0  0  0  0  0  0
  189.4510  172.1330  140.7880 O   0  0  0  0  0  0  0  0  0  0  0  0
  190.3470  173.4530  139.0190 C   0  0  0  0  0  1  0  0  0  0  0  0
  188.9640  172.6660  141.9970 C   0  0  2  0  0  0  0  0  0  0  0  0
  189.3980  171.7500  143.1400 C   0  0  0  0  0  1  0  0  0  0  0  0
  187.5710  172.7040  141.9520 O   0  0  0  0  0  1  0  0  0  0  0  0
  190.5890  172.8790  140.4070 C   0  0  1  0  0  0  0  0  0  0  0  0
  189.5040  174.0850  142.1340 C   0  0  2  0  0  3  0  0  0  0  0  0
  190.8010  174.0130  141.3920 C   0  0  0  0  0  2  0  0  0  0  0  0
  191.8030  171.9500  140.3890 C   0  0  0  0  0  2  0  0  0  0  0  0
  192.9790  172.2840  141.7470 S   0  0  0  0  0  1  0  0  0  0  0  0
  191.0290  175.2260  143.8000 C   0  0  0  0  0  2  0  0  0  0  0  0
  190.9560  176.3280  144.8420 C   0  0  0  0  0  2  0  0  0  0  0  0
  191.8640  176.0040  146.0180 C   0  0  0  0  0  2  0  0  0  0  0  0
  190.3280  176.9850  147.5630 O   0  0  0  0  0  1  0  0  0  0  0  0
  191.0600  175.8280  147.2950 C   0  0  0  0  0  2  0  0  0  0  0  0
  1  6  2  0  0  0  0
  1  3  1  0  0  0  0
  3  2  1  0  0  0  0
  3 19  1  1  0  0  0
  4  1  1  0  0  0  0
  5  2  2  0  0  0  0
  5  7  1  0  0  0  0
  6  5  1  0  0  0  0
  7  8  2  0  0  0  0
  8 12  1  0  0  0  0
  9 11  1  0  0  0  0
 10  9  2  0  0  0  0
 10  7  1  0  0  0  0
 11  8  1  0  0  0  0
 12 13  1  0  0  0  0
 13 14  1  1  0  0  0
 15 13  1  0  0  0  0
 15 18  1  0  0  0  0
 16 18  2  0  0  0  0
 18 17  1  0  0  0  0
 20 31  1  6  0  0  0
 20 19  1  0  0  0  0
 21 23  1  0  0  0  0
 23 27  1  0  0  0  0
 23 24  1  1  0  0  0
 25 23  1  0  0  0  0
 26 22  1  6  0  0  0
 26 21  1  0  0  0  0
 26 28  1  0  0  0  0
 27 20  1  1  0  0  0
 28 27  1  0  0  0  0
 29 26  1  0  0  0  0
 29 30  1  0  0  0  0
 31 32  1  0  0  0  0
 32 33  1  0  0  0  0
 33 35  1  0  0  0  0
 35 34  1  0  0  0  0
M  END
>  <MODEL>
5

>  <REMARK>
 VINA RESULT:      -6.5      2.279      5.122
  Name = 
  13 active torsions:
  status: ('A' for Active; 'I' for Inactive)
    1  A    between atoms: C_1  and  C_21
    2  A    between atoms: C_2  and  C_16
    3  A    between atoms: C_2  and  C_19
    4  A    between atoms: C_3  and  C_20
    5  A    between atoms: C_3  and  C_26
    6  A    between atoms: C_5  and  C_24
    7  A    between atoms: C_13  and  C_18
    8  A    between atoms: C_14  and  C_30
    9  A    between atoms: C_16  and  C_30
   10  A    between atoms: C_18  and  C_29
   11  A    between atoms: C_20  and  C_28
   12  A    between atoms: C_23  and  C_29
   13  A    between atoms: C_26  and  C_29
                            x       y       z     vdW  Elec       q    Type
                         _______ _______ _______ _____ _____    ______ ____

>  <TORSDO>
F 13

$$$$
=
 OpenBabel11062421593D

 35 37  0  0  1  0  0  0  0  0999 V2000
  189.3920  177.1300  146.7070 C   0  0  0  0  0  0  0  0  0  0  0  0
  187.9070  176.7810  144.9880 C   0  0  0  0  0  3  0  0  0  0  0  0
  189.3130  176.4550  145.3820 C   0  0  2  0  0  3  0  0  0  0  0  0
  190.5270  177.1460  147.5070 O   0  0  0  0  0  1  0  0  0  0  0  0
  187.3300  177.4890  145.9510 C   0  0  0  0  0  0  0  0  0  0  0  0
  188.2580  177.7160  147.0480 C   0  0  0  0  0  3  0  0  0  0  0  0
  185.9360  177.9650  145.9400 C   0  0  0  0  0  0  0  0  0  0  0  0
  185.3180  178.7890  145.0190 C   0  0  0  0  0  0  0  0  0  0  0  0
  183.9020  178.2580  146.5050 C   0  0  0  0  0  3  0  0  0  0  0  0
  185.0370  177.6330  146.8870 N   0  0  0  0  0  0  0  0  0  0  0  0
  184.0750  178.9440  145.3950 O   0  0  0  0  0  0  0  0  0  0  0  0
  185.9040  179.4390  143.8060 C   0  0  0  0  0  2  0  0  0  0  0  0
  185.7460  178.5860  142.5520 C   0  0  2  0  0  3  0  0  0  0  0  0
  185.1490  177.3780  142.9060 O   0  0  0  0  0  1  0  0  0  0  0  0
  187.0880  178.3000  141.8950 C   0  0  0  0  0  2  0  0  0  0  0  0
  186.1010  177.5350  139.7340 O   0  0  0  0  0  0  0  0  0  0  0  0
  187.5480  176.1870  140.8940 O   0  0  0  0  0  1  0  0  0  0  0  0
  186.9310  177.2820  140.8190 C   0  0  0  0  0  0  0  0  0  0  0  0
  189.4790  174.9530  145.5750 C   0  0  0  0  0  2  0  0  0  0  0  0
  190.4860  174.3780  144.5910 C   0  0  1  0  0  3  0  0  0  0  0  0
  193.9760  175.5330  143.9200 O   0  0  0  0  0  0  0  0  0  0  0  0
  194.9590  175.0680  146.0400 C   0  0  0  0  0  1  0  0  0  0  0  0
  192.5880  175.6220  143.7000 C   0  0  2  0  0  0  0  0  0  0  0  0
  192.2650  174.9580  142.3630 C   0  0  0  0  0  1  0  0  0  0  0  0
  192.2200  176.9650  143.6380 O   0  0  0  0  0  1  0  0  0  0  0  0
  194.2070  174.4940  144.8490 C   0  0  1  0  0  0  0  0  0  0  0  0
  191.8840  174.9590  144.8800 C   0  0  2  0  0  3  0  0  0  0  0  0
  192.8780  173.9300  145.3150 C   0  0  0  0  0  2  0  0  0  0  0  0
  195.0420  173.4060  144.1730 C   0  0  0  0  0  2  0  0  0  0  0  0
  194.2150  171.7770  144.1530 S   0  0  0  0  0  1  0  0  0  0  0  0
  190.4750  172.8630  144.7490 C   0  0  0  0  0  2  0  0  0  0  0  0
  189.4800  172.2360  143.7870 C   0  0  0  0  0  2  0  0  0  0  0  0
  189.1830  173.1870  142.6400 C   0  0  0  0  0  2  0  0  0  0  0  0
  189.5490  173.4750  140.2960 O   0  0  0  0  0  1  0  0  0  0  0  0
  189.4190  172.5130  141.2980 C   0  0  0  0  0  2  0  0  0  0  0  0
  1  6  2  0  0  0  0
  1  4  1  0  0  0  0
  2  3  1  0  0  0  0
  2  5  2  0  0  0  0
  3 19  1  1  0  0  0
  3  1  1  0  0  0  0
  5  6  1  0  0  0  0
  7  5  1  0  0  0  0
  7 10  1  0  0  0  0
  8 11  1  0  0  0  0
  8  7  2  0  0  0  0
  9 10  2  0  0  0  0
 11  9  1  0  0  0  0
 12  8  1  0  0  0  0
 13 14  1  1  0  0  0
 13 12  1  0  0  0  0
 15 13  1  0  0  0  0
 16 18  2  0  0  0  0
 18 17  1  0  0  0  0
 18 15  1  0  0  0  0
 20 31  1  1  0  0  0
 20 19  1  0  0  0  0
 21 26  1  0  0  0  0
 23 24  1  6  0  0  0
 23 21  1  0  0  0  0
 23 27  1  0  0  0  0
 25 23  1  0  0  0  0
 26 28  1  0  0  0  0
 26 22  1  1  0  0  0
 27 20  1  6  0  0  0
 27 28  1  0  0  0  0
 29 26  1  0  0  0  0
 30 29  1  0  0  0  0
 32 31  1  0  0  0  0
 33 32  1  0  0  0  0
 34 35  1  0  0  0  0
 35 33  1  0  0  0  0
M  END
>  <MODEL>
6

>  <REMARK>
 VINA RESULT:      -6.4      1.454      1.597
  Name = 
  13 active torsions:
  status: ('A' for Active; 'I' for Inactive)
    1  A    between atoms: C_1  and  C_21
    2  A    between atoms: C_2  and  C_16
    3  A    between atoms: C_2  and  C_19
    4  A    between atoms: C_3  and  C_20
    5  A    between atoms: C_3  and  C_26
    6  A    between atoms: C_5  and  C_24
    7  A    between atoms: C_13  and  C_18
    8  A    between atoms: C_14  and  C_30
    9  A    between atoms: C_16  and  C_30
   10  A    between atoms: C_18  and  C_29
   11  A    between atoms: C_20  and  C_28
   12  A    between atoms: C_23  and  C_29
   13  A    between atoms: C_26  and  C_29
                            x       y       z     vdW  Elec       q    Type
                         _______ _______ _______ _____ _____    ______ ____

>  <TORSDO>
F 13

$$$$
=
 OpenBabel11062421593D

 35 37  0  0  1  0  0  0  0  0999 V2000
  189.1400  176.5950  145.5850 C   0  0  0  0  0  0  0  0  0  0  0  0
  189.5080  178.0160  143.8170 C   0  0  0  0  0  3  0  0  0  0  0  0
  190.1800  177.5240  145.0600 C   0  0  2  0  0  3  0  0  0  0  0  0
  189.2640  175.8750  146.7660 O   0  0  0  0  0  1  0  0  0  0  0  0
  188.3240  177.4310  143.6910 C   0  0  0  0  0  0  0  0  0  0  0  0
  188.0780  176.5260  144.8040 C   0  0  0  0  0  3  0  0  0  0  0  0
  187.3860  177.6370  142.5740 C   0  0  0  0  0  0  0  0  0  0  0  0
  186.3050  178.4940  142.5080 C   0  0  0  0  0  0  0  0  0  0  0  0
  186.4510  177.4520  140.6680 C   0  0  0  0  0  3  0  0  0  0  0  0
  187.4750  176.9710  141.4070 N   0  0  0  0  0  0  0  0  0  0  0  0
  185.7600  178.3570  141.3270 O   0  0  0  0  0  0  0  0  0  0  0  0
  185.7830  179.4210  143.5600 C   0  0  0  0  0  2  0  0  0  0  0  0
  185.0320  178.6880  144.6650 C   0  0  2  0  0  3  0  0  0  0  0  0
  183.6870  179.0450  144.6040 O   0  0  0  0  0  1  0  0  0  0  0  0
  185.5750  179.0400  146.0420 C   0  0  0  0  0  2  0  0  0  0  0  0
  184.9000  176.6830  146.5080 O   0  0  0  0  0  0  0  0  0  0  0  0
  185.8970  177.9510  148.1360 O   0  0  0  0  0  1  0  0  0  0  0  0
  185.4710  177.8670  146.9550 C   0  0  0  0  0  0  0  0  0  0  0  0
  191.4310  176.7270  144.7110 C   0  0  0  0  0  2  0  0  0  0  0  0
  191.2340  175.2430  144.9870 C   0  0  1  0  0  3  0  0  0  0  0  0
  190.5980  172.4480  142.5910 O   0  0  0  0  0  0  0  0  0  0  0  0
  192.4960  172.7020  141.1750 C   0  0  0  0  0  1  0  0  0  0  0  0
  190.1310  173.4470  143.4670 C   0  0  2  0  0  0  0  0  0  0  0  0
  189.6960  172.7840  144.7720 C   0  0  0  0  0  1  0  0  0  0  0  0
  189.0290  174.0800  142.8920 O   0  0  0  0  0  1  0  0  0  0  0  0
  192.0100  172.4830  142.5990 C   0  0  1  0  0  0  0  0  0  0  0  0
  191.2520  174.4620  143.6590 C   0  0  2  0  0  3  0  0  0  0  0  0
  192.4800  173.6280  143.4750 C   0  0  0  0  0  2  0  0  0  0  0  0
  192.5330  171.1500  143.1350 C   0  0  0  0  0  2  0  0  0  0  0  0
  193.5730  171.3360  144.6250 S   0  0  0  0  0  1  0  0  0  0  0  0
  192.3590  174.7910  145.9090 C   0  0  0  0  0  2  0  0  0  0  0  0
  193.1820  175.9820  146.3680 C   0  0  0  0  0  2  0  0  0  0  0  0
  194.6640  175.7060  146.1770 C   0  0  0  0  0  2  0  0  0  0  0  0
  196.3350  175.4250  144.4920 O   0  0  0  0  0  1  0  0  0  0  0  0
  195.0950  176.0100  144.7510 C   0  0  0  0  0  2  0  0  0  0  0  0
  1  4  1  0  0  0  0
  2  3  1  0  0  0  0
  3 19  1  6  0  0  0
  3  1  1  0  0  0  0
  5  2  2  0  0  0  0
  5  6  1  0  0  0  0
  6  1  2  0  0  0  0
  7  5  1  0  0  0  0
  8  7  2  0  0  0  0
  8 12  1  0  0  0  0
  9 11  1  0  0  0  0
  9 10  2  0  0  0  0
 10  7  1  0  0  0  0
 11  8  1  0  0  0  0
 12 13  1  0  0  0  0
 13 14  1  1  0  0  0
 13 15  1  0  0  0  0
 15 18  1  0  0  0  0
 16 18  2  0  0  0  0
 18 17  1  0  0  0  0
 20 19  1  6  0  0  0
 20 31  1  0  0  0  0
 21 26  1  0  0  0  0
 21 23  1  0  0  0  0
 23 27  1  0  0  0  0
 23 24  1  1  0  0  0
 25 23  1  0  0  0  0
 26 22  1  6  0  0  0
 26 29  1  0  0  0  0
 26 28  1  0  0  0  0
 27 20  1  1  0  0  0
 28 27  1  0  0  0  0
 29 30  1  0  0  0  0
 31 32  1  0  0  0  0
 33 32  1  0  0  0  0
 34 35  1  0  0  0  0
 35 33  1  0  0  0  0
M  END
>  <MODEL>
7

>  <REMARK>
 VINA RESULT:      -6.4      1.972      4.551
  Name = 
  13 active torsions:
  status: ('A' for Active; 'I' for Inactive)
    1  A    between atoms: C_1  and  C_21
    2  A    between atoms: C_2  and  C_16
    3  A    between atoms: C_2  and  C_19
    4  A    between atoms: C_3  and  C_20
    5  A    between atoms: C_3  and  C_26
    6  A    between atoms: C_5  and  C_24
    7  A    between atoms: C_13  and  C_18
    8  A    between atoms: C_14  and  C_30
    9  A    between atoms: C_16  and  C_30
   10  A    between atoms: C_18  and  C_29
   11  A    between atoms: C_20  and  C_28
   12  A    between atoms: C_23  and  C_29
   13  A    between atoms: C_26  and  C_29
                            x       y       z     vdW  Elec       q    Type
                         _______ _______ _______ _____ _____    ______ ____

>  <TORSDO>
F 13

$$$$
=
 OpenBabel11062421593D

 35 37  0  0  1  0  0  0  0  0999 V2000
  188.0600  177.8880  142.0970 C   0  0  0  0  0  0  0  0  0  0  0  0
  186.3130  176.4410  142.4650 C   0  0  0  0  0  3  0  0  0  0  0  0
  187.8080  176.4560  142.4200 C   0  0  2  0  0  3  0  0  0  0  0  0
  189.3240  178.4360  141.9210 O   0  0  0  0  0  1  0  0  0  0  0  0
  185.8500  177.6610  142.2280 C   0  0  0  0  0  0  0  0  0  0  0  0
  186.9460  178.5900  141.9960 C   0  0  0  0  0  3  0  0  0  0  0  0
  184.4290  178.0480  142.2250 C   0  0  0  0  0  0  0  0  0  0  0  0
  183.7200  178.7210  143.2010 C   0  0  0  0  0  0  0  0  0  0  0  0
  182.4100  178.2980  141.5890 C   0  0  0  0  0  3  0  0  0  0  0  0
  183.5940  177.7740  141.2040 N   0  0  0  0  0  0  0  0  0  0  0  0
  182.4910  178.8590  142.7770 O   0  0  0  0  0  0  0  0  0  0  0  0
  184.1990  179.2130  144.5310 C   0  0  0  0  0  2  0  0  0  0  0  0
  184.8170  178.1050  145.3750 C   0  0  2  0  0  3  0  0  0  0  0  0
  184.0690  177.9620  146.5420 O   0  0  0  0  0  1  0  0  0  0  0  0
  186.2580  178.4210  145.7480 C   0  0  0  0  0  2  0  0  0  0  0  0
  186.8260  176.4260  147.1360 O   0  0  0  0  0  0  0  0  0  0  0  0
  186.6920  178.5060  148.0890 O   0  0  0  0  0  1  0  0  0  0  0  0
  186.6050  177.7950  147.0550 C   0  0  0  0  0  0  0  0  0  0  0  0
  188.3870  176.1450  143.7950 C   0  0  0  0  0  2  0  0  0  0  0  0
  189.7440  175.4660  143.6810 C   0  0  1  0  0  3  0  0  0  0  0  0
  192.9730  176.8180  144.9880 O   0  0  0  0  0  0  0  0  0  0  0  0
  192.6890  176.3450  147.3060 C   0  0  0  0  0  1  0  0  0  0  0  0
  191.9180  176.8410  144.0560 C   0  0  2  0  0  0  0  0  0  0  0  0
  192.4040  176.1990  142.7580 C   0  0  0  0  0  1  0  0  0  0  0  0
  191.5630  178.1650  143.8000 O   0  0  0  0  0  1  0  0  0  0  0  0
  192.7290  175.7660  145.9000 C   0  0  1  0  0  0  0  0  0  0  0  0
  190.7310  176.1100  144.6740 C   0  0  2  0  0  3  0  0  0  0  0  0
  191.3940  175.1220  145.5800 C   0  0  0  0  0  2  0  0  0  0  0  0
  193.8590  174.7410  145.7830 C   0  0  0  0  0  2  0  0  0  0  0  0
  195.3830  175.4370  145.0570 S   0  0  0  0  0  1  0  0  0  0  0  0
  189.5480  173.9850  143.9800 C   0  0  0  0  0  2  0  0  0  0  0  0
  189.8350  173.1520  142.7430 C   0  0  0  0  0  2  0  0  0  0  0  0
  188.5440  172.8400  142.0040 C   0  0  0  0  0  2  0  0  0  0  0  0
  189.8730  173.1950  140.0500 O   0  0  0  0  0  1  0  0  0  0  0  0
  188.5920  173.3620  140.5770 C   0  0  0  0  0  2  0  0  0  0  0  0
  1  3  1  0  0  0  0
  3  2  1  0  0  0  0
  3 19  1  1  0  0  0
  4  1  1  0  0  0  0
  5  2  2  0  0  0  0
  6  1  2  0  0  0  0
  6  5  1  0  0  0  0
  7  5  1  0  0  0  0
  7  8  2  0  0  0  0
  8 12  1  0  0  0  0
  9 11  1  0  0  0  0
 10  9  2  0  0  0  0
 10  7  1  0  0  0  0
 11  8  1  0  0  0  0
 12 13  1  0  0  0  0
 13 15  1  0  0  0  0
 13 14  1  1  0  0  0
 15 18  1  0  0  0  0
 18 16  2  0  0  0  0
 18 17  1  0  0  0  0
 20 19  1  1  0  0  0
 20 31  1  0  0  0  0
 21 26  1  0  0  0  0
 23 24  1  6  0  0  0
 23 27  1  0  0  0  0
 23 21  1  0  0  0  0
 25 23  1  0  0  0  0
 26 22  1  1  0  0  0
 27 20  1  6  0  0  0
 27 28  1  0  0  0  0
 28 26  1  0  0  0  0
 29 26  1  0  0  0  0
 30 29  1  0  0  0  0
 32 31  1  0  0  0  0
 33 32  1  0  0  0  0
 34 35  1  0  0  0  0
 35 33  1  0  0  0  0
M  END
>  <MODEL>
8

>  <REMARK>
 VINA RESULT:      -6.3      1.996      3.679
  Name = 
  13 active torsions:
  status: ('A' for Active; 'I' for Inactive)
    1  A    between atoms: C_1  and  C_21
    2  A    between atoms: C_2  and  C_16
    3  A    between atoms: C_2  and  C_19
    4  A    between atoms: C_3  and  C_20
    5  A    between atoms: C_3  and  C_26
    6  A    between atoms: C_5  and  C_24
    7  A    between atoms: C_13  and  C_18
    8  A    between atoms: C_14  and  C_30
    9  A    between atoms: C_16  and  C_30
   10  A    between atoms: C_18  and  C_29
   11  A    between atoms: C_20  and  C_28
   12  A    between atoms: C_23  and  C_29
   13  A    between atoms: C_26  and  C_29
                            x       y       z     vdW  Elec       q    Type
                         _______ _______ _______ _____ _____    ______ ____

>  <TORSDO>
F 13

$$$$
=
 OpenBabel11062421593D

 35 37  0  0  1  0  0  0  0  0999 V2000
  186.6660  176.9800  146.0300 C   0  0  0  0  0  0  0  0  0  0  0  0
  188.2940  177.4350  144.4720 C   0  0  0  0  0  3  0  0  0  0  0  0
  188.1210  177.2920  145.9510 C   0  0  2  0  0  3  0  0  0  0  0  0
  185.9790  176.7700  147.2180 O   0  0  0  0  0  1  0  0  0  0  0  0
  187.1340  177.2140  143.8670 C   0  0  0  0  0  0  0  0  0  0  0  0
  186.0940  176.9220  144.8420 C   0  0  0  0  0  3  0  0  0  0  0  0
  186.9160  177.2300  142.4100 C   0  0  0  0  0  0  0  0  0  0  0  0
  187.4970  176.4290  141.4460 C   0  0  0  0  0  0  0  0  0  0  0  0
  186.1560  177.7650  140.4920 C   0  0  0  0  0  3  0  0  0  0  0  0
  186.0680  178.0820  141.8020 N   0  0  0  0  0  0  0  0  0  0  0  0
  187.0070  176.7830  140.2860 O   0  0  0  0  0  0  0  0  0  0  0  0
  188.5220  175.3530  141.6200 C   0  0  0  0  0  2  0  0  0  0  0  0
  188.1860  174.0930  140.8310 C   0  0  2  0  0  3  0  0  0  0  0  0
  187.7500  173.1120  141.7200 O   0  0  0  0  0  1  0  0  0  0  0  0
  189.3950  173.5690  140.0700 C   0  0  0  0  0  2  0  0  0  0  0  0
  188.2330  174.2450  137.9660 O   0  0  0  0  0  0  0  0  0  0  0  0
  189.4850  172.3260  138.0390 O   0  0  0  0  0  1  0  0  0  0  0  0
  189.0470  173.3410  138.6390 C   0  0  0  0  0  0  0  0  0  0  0  0
  188.9160  176.1000  146.4690 C   0  0  0  0  0  2  0  0  0  0  0  0
  189.9710  175.6620  145.4640 C   0  0  1  0  0  3  0  0  0  0  0  0
  193.3080  177.1590  144.7000 O   0  0  0  0  0  0  0  0  0  0  0  0
  194.2480  177.1660  146.8890 C   0  0  0  0  0  1  0  0  0  0  0  0
  191.9320  177.0240  144.4350 C   0  0  2  0  0  0  0  0  0  0  0  0
  191.7580  176.1230  143.2150 C   0  0  0  0  0  1  0  0  0  0  0  0
  191.3960  178.2800  144.1510 O   0  0  0  0  0  1  0  0  0  0  0  0
  193.6300  176.3170  145.7880 C   0  0  1  0  0  0  0  0  0  0  0  0
  191.2670  176.4640  145.6890 C   0  0  2  0  0  3  0  0  0  0  0  0
  192.3660  175.6590  146.3070 C   0  0  0  0  0  2  0  0  0  0  0  0
  194.6280  175.2600  145.3140 C   0  0  0  0  0  2  0  0  0  0  0  0
  195.6710  175.8300  143.9280 S   0  0  0  0  0  1  0  0  0  0  0  0
  190.2050  174.1690  145.6580 C   0  0  0  0  0  2  0  0  0  0  0  0
  189.6570  173.3880  144.4770 C   0  0  0  0  0  2  0  0  0  0  0  0
  190.5860  172.2360  144.1290 C   0  0  0  0  0  2  0  0  0  0  0  0
  192.8430  171.4650  144.2730 O   0  0  0  0  0  1  0  0  0  0  0  0
  192.0310  172.5870  144.4410 C   0  0  0  0  0  2  0  0  0  0  0  0
  1  4  1  0  0  0  0
  2  3  1  0  0  0  0
  3  1  1  0  0  0  0
  3 19  1  6  0  0  0
  5  2  2  0  0  0  0
  5  6  1  0  0  0  0
  6  1  2  0  0  0  0
  7  5  1  0  0  0  0
  8 12  1  0  0  0  0
  8  7  2  0  0  0  0
  9 10  2  0  0  0  0
 10  7  1  0  0  0  0
 11  9  1  0  0  0  0
 11  8  1  0  0  0  0
 13 12  1  0  0  0  0
 13 14  1  1  0  0  0
 15 13  1  0  0  0  0
 16 18  2  0  0  0  0
 17 18  1  0  0  0  0
 18 15  1  0  0  0  0
 20 31  1  1  0  0  0
 20 19  1  0  0  0  0
 21 26  1  0  0  0  0
 23 24  1  6  0  0  0
 23 21  1  0  0  0  0
 23 27  1  0  0  0  0
 25 23  1  0  0  0  0
 26 28  1  0  0  0  0
 26 22  1  1  0  0  0
 27 20  1  6  0  0  0
 27 28  1  0  0  0  0
 29 26  1  0  0  0  0
 30 29  1  0  0  0  0
 32 31  1  0  0  0  0
 33 35  1  0  0  0  0
 33 32  1  0  0  0  0
 34 35  1  0  0  0  0
M  END
>  <MODEL>
9

>  <REMARK>
 VINA RESULT:      -6.3      2.186      3.399
  Name = 
  13 active torsions:
  status: ('A' for Active; 'I' for Inactive)
    1  A    between atoms: C_1  and  C_21
    2  A    between atoms: C_2  and  C_16
    3  A    between atoms: C_2  and  C_19
    4  A    between atoms: C_3  and  C_20
    5  A    between atoms: C_3  and  C_26
    6  A    between atoms: C_5  and  C_24
    7  A    between atoms: C_13  and  C_18
    8  A    between atoms: C_14  and  C_30
    9  A    between atoms: C_16  and  C_30
   10  A    between atoms: C_18  and  C_29
   11  A    between atoms: C_20  and  C_28
   12  A    between atoms: C_23  and  C_29
   13  A    between atoms: C_26  and  C_29
                            x       y       z     vdW  Elec       q    Type
                         _______ _______ _______ _____ _____    ______ ____

>  <TORSDO>
F 13

$$$$
