=
 OpenBabel11062420583D

 31 35  0  0  1  0  0  0  0  0999 V2000
  192.1040  176.2870  145.8290 C   0  0  2  0  0  3  0  0  0  0  0  0
  187.4700  176.2570  140.0960 O   0  0  0  0  0  1  0  0  0  0  0  0
  183.3410  178.9550  143.3220 O   0  0  0  0  0  0  0  0  0  0  0  0
  187.7280  178.0240  142.8510 C   0  0  0  0  0  2  0  0  0  0  0  0
  190.7960  176.3500  146.5590 C   0  0  0  0  0  0  0  0  0  0  0  0
  189.8120  177.2230  143.8020 C   0  0  2  0  0  3  0  0  0  0  0  0
  191.2750  176.9410  143.4660 C   0  0  0  0  0  2  0  0  0  0  0  0
  186.6010  176.8000  147.0470 C   0  0  2  0  0  0  0  0  0  0  0  0
  191.9100  175.8650  144.3600 C   0  0  0  0  0  2  0  0  0  0  0  0
  186.4160  177.2510  142.6530 C   0  0  2  0  0  3  0  0  0  0  0  0
  185.8450  177.5220  141.2800 C   0  0  0  0  0  0  0  0  0  0  0  0
  184.3540  178.4010  142.8150 C   0  0  0  0  0  0  0  0  0  0  0  0
  185.4530  177.6610  145.0050 C   0  0  0  0  0  0  0  0  0  0  0  0
  184.7940  178.5080  147.1670 N   0  0  0  0  0  0  0  0  0  0  0  0
  190.2780  177.6060  146.8910 C   0  0  0  0  0  3  0  0  0  0  0  0
  183.7230  178.5150  140.4330 C   0  0  0  0  0  2  0  0  0  0  0  0
  184.6140  178.3020  141.3960 C   0  0  0  0  0  0  0  0  0  0  0  0
  185.9100  175.6970  147.5210 F   0  0  0  0  0  0  0  0  0  0  0  0
  188.0830  176.6180  147.2390 C   0  0  0  0  0  0  0  0  0  0  0  0
  188.6330  175.3500  146.9960 C   0  0  0  0  0  3  0  0  0  0  0  0
  189.9800  175.2150  146.6600 C   0  0  0  0  0  3  0  0  0  0  0  0
  184.5250  178.3830  145.8990 C   0  0  0  0  0  3  0  0  0  0  0  0
  188.9280  177.7400  147.2210 C   0  0  0  0  0  3  0  0  0  0  0  0
  188.9970  176.0280  143.5390 N   0  0  0  0  0  2  0  0  0  0  0  0
  186.0660  178.0620  147.7510 C   0  0  0  0  0  2  0  0  0  0  0  0
  186.3330  177.0550  140.1300 C   0  0  0  0  0  3  0  0  0  0  0  0
  186.4070  176.9150  145.5590 C   0  0  0  0  0  3  0  0  0  0  0  0
  185.3960  177.7850  143.5710 N   0  0  0  0  0  0  0  0  0  0  0  0
  188.9690  177.1660  142.6080 C   0  0  1  0  0  3  0  0  0  0  0  0
  193.1090  175.3830  146.5370 C   0  0  0  0  0  2  0  0  0  0  0  0
  194.3890  175.9420  146.5340 O   0  0  0  0  0  1  0  0  0  0  0  0
  1 30  1  1  0  0  0
  1  5  1  0  0  0  0
  2 26  1  0  0  0  0
  5 21  2  0  0  0  0
  5 15  1  0  0  0  0
  6  7  1  6  0  0  0
  7  9  1  0  0  0  0
  8 19  1  0  0  0  0
  8 18  1  1  0  0  0
  8 25  1  0  0  0  0
  9  1  1  0  0  0  0
 10  4  1  6  0  0  0
 10 28  1  0  0  0  0
 11 17  1  0  0  0  0
 11 10  1  0  0  0  0
 12  3  2  0  0  0  0
 12 28  1  0  0  0  0
 13 27  2  0  0  0  0
 13 22  1  0  0  0  0
 14 25  1  0  0  0  0
 15 23  2  0  0  0  0
 16 17  2  0  0  0  0
 17 12  1  0  0  0  0
 20 19  2  0  0  0  0
 21 20  1  0  0  0  0
 22 14  2  0  0  0  0
 23 19  1  0  0  0  0
 24  6  1  0  0  0  0
 26 11  2  0  0  0  0
 27  8  1  0  0  0  0
 28 13  1  0  0  0  0
 29  4  1  1  0  0  0
 29 24  1  0  0  0  0
 29  6  1  0  0  0  0
 31 30  1  0  0  0  0
M  END
>  <MODEL>
1

>  <REMARK>
 VINA RESULT:      -9.6      0.000      0.000
  Name = 
  1 active torsions:
  status: ('A' for Active; 'I' for Inactive)
    1  A    between atoms: C_1  and  C_21
                            x       y       z     vdW  Elec       q    Type
                         _______ _______ _______ _____ _____    ______ ____

>  <TORSDO>
F 1

$$$$
=
 OpenBabel11062420583D

 31 35  0  0  1  0  0  0  0  0999 V2000
  192.8610  175.2120  146.0600 C   0  0  2  0  0  3  0  0  0  0  0  0
  187.0800  179.0180  148.5970 O   0  0  0  0  0  1  0  0  0  0  0  0
  184.0960  177.9420  143.6300 O   0  0  0  0  0  0  0  0  0  0  0  0
  187.4970  176.6960  146.3150 C   0  0  0  0  0  2  0  0  0  0  0  0
  192.2260  175.6070  144.7600 C   0  0  0  0  0  0  0  0  0  0  0  0
  189.8310  176.0910  146.5930 C   0  0  2  0  0  3  0  0  0  0  0  0
  190.8700  175.6980  147.6410 C   0  0  0  0  0  2  0  0  0  0  0  0
  189.2340  177.1550  142.1740 C   0  0  2  0  0  0  0  0  0  0  0  0
  192.3100  176.0470  147.2320 C   0  0  0  0  0  2  0  0  0  0  0  0
  186.9140  178.0320  145.8330 C   0  0  2  0  0  3  0  0  0  0  0  0
  185.7540  178.4480  146.7090 C   0  0  0  0  0  0  0  0  0  0  0  0
  184.8930  178.0410  144.6020 C   0  0  0  0  0  0  0  0  0  0  0  0
  187.0460  177.5390  143.3090 C   0  0  0  0  0  0  0  0  0  0  0  0
  187.0650  176.5870  141.0920 N   0  0  0  0  0  0  0  0  0  0  0  0
  191.3100  174.7280  144.1720 C   0  0  0  0  0  3  0  0  0  0  0  0
  183.3330  178.8840  146.3160 C   0  0  0  0  0  2  0  0  0  0  0  0
  184.5050  178.3710  145.9550 C   0  0  0  0  0  0  0  0  0  0  0  0
  189.5680  178.2840  141.4450 F   0  0  0  0  0  0  0  0  0  0  0  0
  190.4650  176.5310  142.7750 C   0  0  0  0  0  0  0  0  0  0  0  0
  191.4490  177.3800  143.3030 C   0  0  0  0  0  3  0  0  0  0  0  0
  192.3250  176.9230  144.2870 C   0  0  0  0  0  3  0  0  0  0  0  0
  186.3850  177.1580  142.0450 C   0  0  0  0  0  3  0  0  0  0  0  0
  190.4300  175.1900  143.1920 C   0  0  0  0  0  3  0  0  0  0  0  0
  189.8030  177.5520  146.4350 N   0  0  0  0  0  2  0  0  0  0  0  0
  188.4670  176.1810  141.2580 C   0  0  0  0  0  2  0  0  0  0  0  0
  185.8510  178.9020  147.9600 C   0  0  0  0  0  3  0  0  0  0  0  0
  188.3760  177.5470  143.3460 C   0  0  0  0  0  3  0  0  0  0  0  0
  186.3030  177.8440  144.5060 N   0  0  0  0  0  0  0  0  0  0  0  0
  188.7410  176.8660  147.1860 C   0  0  1  0  0  3  0  0  0  0  0  0
  194.3840  175.2860  145.9960 C   0  0  0  0  0  2  0  0  0  0  0  0
  194.8880  174.5210  144.9400 O   0  0  0  0  0  1  0  0  0  0  0  0
  1 30  1  6  0  0  0
  1  9  1  0  0  0  0
  3 12  2  0  0  0  0
  5  1  1  0  0  0  0
  6 29  1  0  0  0  0
  6  7  1  1  0  0  0
  8 18  1  6  0  0  0
  8 19  1  0  0  0  0
  8 27  1  0  0  0  0
  9  7  1  0  0  0  0
 10  4  1  1  0  0  0
 10 11  1  0  0  0  0
 11 26  2  0  0  0  0
 12 17  1  0  0  0  0
 13 27  2  0  0  0  0
 13 28  1  0  0  0  0
 14 25  1  0  0  0  0
 14 22  2  0  0  0  0
 15  5  2  0  0  0  0
 17 16  2  0  0  0  0
 17 11  1  0  0  0  0
 19 23  2  0  0  0  0
 19 20  1  0  0  0  0
 20 21  2  0  0  0  0
 21  5  1  0  0  0  0
 22 13  1  0  0  0  0
 23 15  1  0  0  0  0
 24  6  1  0  0  0  0
 24 29  1  0  0  0  0
 25  8  1  0  0  0  0
 26  2  1  0  0  0  0
 28 12  1  0  0  0  0
 28 10  1  0  0  0  0
 29  4  1  6  0  0  0
 31 30  1  0  0  0  0
M  END
>  <MODEL>
2

>  <REMARK>
 VINA RESULT:      -8.8      2.248      4.659
  Name = 
  1 active torsions:
  status: ('A' for Active; 'I' for Inactive)
    1  A    between atoms: C_1  and  C_21
                            x       y       z     vdW  Elec       q    Type
                         _______ _______ _______ _____ _____    ______ ____

>  <TORSDO>
F 1

$$$$
=
 OpenBabel11062420583D

 31 35  0  0  1  0  0  0  0  0999 V2000
  191.4490  176.2720  146.9250 C   0  0  2  0  0  3  0  0  0  0  0  0
  190.8520  171.1300  141.6760 O   0  0  0  0  0  1  0  0  0  0  0  0
  187.7780  174.8420  138.2840 O   0  0  0  0  0  0  0  0  0  0  0  0
  190.6440  174.4060  141.7380 C   0  0  0  0  0  2  0  0  0  0  0  0
  190.2040  176.7500  146.2410 C   0  0  0  0  0  0  0  0  0  0  0  0
  191.2620  174.9340  144.0250 C   0  0  2  0  0  3  0  0  0  0  0  0
  192.3180  174.6610  145.0940 C   0  0  0  0  0  2  0  0  0  0  0  0
  187.2180  176.9400  143.2260 C   0  0  2  0  0  0  0  0  0  0  0  0
  191.7880  174.8220  146.5280 C   0  0  0  0  0  2  0  0  0  0  0  0
  189.4030  173.6500  141.2410 C   0  0  2  0  0  3  0  0  0  0  0  0
  189.7880  172.6410  140.1830 C   0  0  0  0  0  0  0  0  0  0  0  0
  188.4540  174.2230  139.1500 C   0  0  0  0  0  0  0  0  0  0  0  0
  187.8150  175.6750  141.1600 C   0  0  0  0  0  0  0  0  0  0  0  0
  186.7590  177.8350  140.9490 N   0  0  0  0  0  0  0  0  0  0  0  0
  190.3270  177.6930  145.2150 C   0  0  0  0  0  3  0  0  0  0  0  0
  189.1920  172.3050  137.7870 C   0  0  0  0  0  2  0  0  0  0  0  0
  189.2600  173.0540  138.8840 C   0  0  0  0  0  0  0  0  0  0  0  0
  185.9310  176.6010  143.6070 F   0  0  0  0  0  0  0  0  0  0  0  0
  188.0880  177.1530  144.4370 C   0  0  0  0  0  0  0  0  0  0  0  0
  187.9380  176.2780  145.5230 C   0  0  0  0  0  3  0  0  0  0  0  0
  188.9870  176.0780  146.4210 C   0  0  0  0  0  3  0  0  0  0  0  0
  187.1030  176.7120  140.3860 C   0  0  0  0  0  3  0  0  0  0  0  0
  189.2790  177.8870  144.3150 C   0  0  0  0  0  3  0  0  0  0  0  0
  190.1880  173.9340  144.1120 N   0  0  0  0  0  2  0  0  0  0  0  0
  187.1570  178.1850  142.3190 C   0  0  0  0  0  2  0  0  0  0  0  0
  190.4390  171.4980  140.4010 C   0  0  0  0  0  3  0  0  0  0  0  0
  187.8450  175.7900  142.4860 C   0  0  0  0  0  3  0  0  0  0  0  0
  188.5180  174.5880  140.5290 N   0  0  0  0  0  0  0  0  0  0  0  0
  191.1990  173.8470  143.0470 C   0  0  1  0  0  3  0  0  0  0  0  0
  191.3610  176.4230  148.4410 C   0  0  0  0  0  2  0  0  0  0  0  0
  191.7480  177.7020  148.8490 O   0  0  0  0  0  1  0  0  0  0  0  0
  1 30  1  1  0  0  0
  3 12  2  0  0  0  0
  5 21  1  0  0  0  0
  5  1  1  0  0  0  0
  6 24  1  0  0  0  0
  6  7  1  1  0  0  0
  7  9  1  0  0  0  0
  8 18  1  1  0  0  0
  8 19  1  0  0  0  0
  9  1  1  0  0  0  0
 10  4  1  6  0  0  0
 11 26  2  0  0  0  0
 11 10  1  0  0  0  0
 12 28  1  0  0  0  0
 13 27  2  0  0  0  0
 14 25  1  0  0  0  0
 15  5  2  0  0  0  0
 16 17  2  0  0  0  0
 17 12  1  0  0  0  0
 17 11  1  0  0  0  0
 19 20  1  0  0  0  0
 20 21  2  0  0  0  0
 22 14  2  0  0  0  0
 22 13  1  0  0  0  0
 23 19  2  0  0  0  0
 23 15  1  0  0  0  0
 25  8  1  0  0  0  0
 26  2  1  0  0  0  0
 27  8  1  0  0  0  0
 28 13  1  0  0  0  0
 28 10  1  0  0  0  0
 29  4  1  6  0  0  0
 29  6  1  0  0  0  0
 29 24  1  0  0  0  0
 30 31  1  0  0  0  0
M  END
>  <MODEL>
3

>  <REMARK>
 VINA RESULT:      -8.6      3.140      4.825
  Name = 
  1 active torsions:
  status: ('A' for Active; 'I' for Inactive)
    1  A    between atoms: C_1  and  C_21
                            x       y       z     vdW  Elec       q    Type
                         _______ _______ _______ _____ _____    ______ ____

>  <TORSDO>
F 1

$$$$
=
 OpenBabel11062420583D

 31 35  0  0  1  0  0  0  0  0999 V2000
  186.7670  177.6980  147.1370 C   0  0  2  0  0  3  0  0  0  0  0  0
  186.5500  177.1720  139.7860 O   0  0  0  0  0  1  0  0  0  0  0  0
  190.3770  172.6920  139.9190 O   0  0  0  0  0  0  0  0  0  0  0  0
  187.3720  175.1350  142.2270 C   0  0  0  0  0  2  0  0  0  0  0  0
  188.1020  177.0610  146.8870 C   0  0  0  0  0  0  0  0  0  0  0  0
  186.7910  176.4160  144.2050 C   0  0  2  0  0  3  0  0  0  0  0  0
  185.6690  177.2360  144.8390 C   0  0  0  0  0  2  0  0  0  0  0  0
  191.1650  175.1240  144.6730 C   0  0  2  0  0  0  0  0  0  0  0  0
  186.1730  178.2850  145.8420 C   0  0  0  0  0  2  0  0  0  0  0  0
  188.4630  175.4350  141.1890 C   0  0  2  0  0  3  0  0  0  0  0  0
  187.9290  175.2360  139.7890 C   0  0  0  0  0  0  0  0  0  0  0  0
  189.5700  173.6390  140.1160 C   0  0  0  0  0  0  0  0  0  0  0  0
  190.4070  174.3040  142.4420 C   0  0  0  0  0  0  0  0  0  0  0  0
  191.8580  172.9090  143.7730 N   0  0  0  0  0  0  0  0  0  0  0  0
  188.1910  175.6660  146.9220 C   0  0  0  0  0  3  0  0  0  0  0  0
  188.5260  173.7460  137.8830 C   0  0  0  0  0  2  0  0  0  0  0  0
  188.5660  174.0750  139.1710 C   0  0  0  0  0  0  0  0  0  0  0  0
  192.3520  175.8200  144.5180 F   0  0  0  0  0  0  0  0  0  0  0  0
  190.3130  175.7640  145.7360 C   0  0  0  0  0  0  0  0  0  0  0  0
  190.2590  177.1660  145.7900 C   0  0  0  0  0  3  0  0  0  0  0  0
  189.1630  177.8110  146.3620 C   0  0  0  0  0  3  0  0  0  0  0  0
  191.3260  173.1610  142.6120 C   0  0  0  0  0  3  0  0  0  0  0  0
  189.2860  175.0220  146.3430 C   0  0  0  0  0  3  0  0  0  0  0  0
  187.6540  177.2860  143.3930 N   0  0  0  0  0  2  0  0  0  0  0  0
  191.4890  173.6500  144.9870 C   0  0  0  0  0  2  0  0  0  0  0  0
  187.0660  176.0410  139.1650 C   0  0  0  0  0  3  0  0  0  0  0  0
  190.3560  175.2190  143.4080 C   0  0  0  0  0  3  0  0  0  0  0  0
  189.5320  174.4280  141.3040 N   0  0  0  0  0  0  0  0  0  0  0  0
  186.6790  176.3940  142.7460 C   0  0  1  0  0  3  0  0  0  0  0  0
  186.8340  178.7480  148.2410 C   0  0  0  0  0  2  0  0  0  0  0  0
  185.9600  179.8090  147.9880 O   0  0  0  0  0  1  0  0  0  0  0  0
  1 30  1  1  0  0  0
  3 12  2  0  0  0  0
  5 15  1  0  0  0  0
  5  1  1  0  0  0  0
  6  7  1  1  0  0  0
  7  9  1  0  0  0  0
  8 18  1  6  0  0  0
  8 25  1  0  0  0  0
  8 19  1  0  0  0  0
  9  1  1  0  0  0  0
 10 28  1  0  0  0  0
 10  4  1  1  0  0  0
 11 10  1  0  0  0  0
 12 28  1  0  0  0  0
 13 22  1  0  0  0  0
 13 27  2  0  0  0  0
 14 25  1  0  0  0  0
 16 17  2  0  0  0  0
 17 11  1  0  0  0  0
 17 12  1  0  0  0  0
 19 20  2  0  0  0  0
 19 23  1  0  0  0  0
 20 21  1  0  0  0  0
 21  5  2  0  0  0  0
 22 14  2  0  0  0  0
 23 15  2  0  0  0  0
 24  6  1  0  0  0  0
 26  2  1  0  0  0  0
 26 11  2  0  0  0  0
 27  8  1  0  0  0  0
 28 13  1  0  0  0  0
 29  4  1  6  0  0  0
 29 24  1  0  0  0  0
 29  6  1  0  0  0  0
 31 30  1  0  0  0  0
M  END
>  <MODEL>
4

>  <REMARK>
 VINA RESULT:      -8.1      2.918      5.707
  Name = 
  1 active torsions:
  status: ('A' for Active; 'I' for Inactive)
    1  A    between atoms: C_1  and  C_21
                            x       y       z     vdW  Elec       q    Type
                         _______ _______ _______ _____ _____    ______ ____

>  <TORSDO>
F 1

$$$$
=
 OpenBabel11062420583D

 31 35  0  0  1  0  0  0  0  0999 V2000
  186.8400  177.7060  143.0680 C   0  0  2  0  0  3  0  0  0  0  0  0
  190.2950  171.6890  140.5770 O   0  0  0  0  0  1  0  0  0  0  0  0
  193.8160  171.6630  145.3030 O   0  0  0  0  0  0  0  0  0  0  0  0
  189.9280  173.0910  143.5230 C   0  0  0  0  0  2  0  0  0  0  0  0
  188.1590  177.8640  143.7630 C   0  0  0  0  0  0  0  0  0  0  0  0
  188.3760  174.8990  143.0600 C   0  0  2  0  0  3  0  0  0  0  0  0
  187.0420  175.2170  142.3880 C   0  0  0  0  0  2  0  0  0  0  0  0
  192.0220  176.7510  145.1330 C   0  0  2  0  0  0  0  0  0  0  0  0
  186.9250  176.6770  141.9240 C   0  0  0  0  0  2  0  0  0  0  0  0
  191.3680  172.9250  143.0180 C   0  0  2  0  0  3  0  0  0  0  0  0
  191.6040  171.5060  142.5510 C   0  0  0  0  0  0  0  0  0  0  0  0
  192.9630  171.8430  144.3930 C   0  0  0  0  0  0  0  0  0  0  0  0
  192.5080  174.3190  144.8580 C   0  0  0  0  0  0  0  0  0  0  0  0
  193.1960  175.4310  146.8870 N   0  0  0  0  0  0  0  0  0  0  0  0
  188.3010  177.3360  145.0510 C   0  0  0  0  0  3  0  0  0  0  0  0
  193.1470  169.6740  143.2340 C   0  0  0  0  0  2  0  0  0  0  0  0
  192.5290  170.8290  143.4580 C   0  0  0  0  0  0  0  0  0  0  0  0
  193.0890  177.4820  144.6390 F   0  0  0  0  0  0  0  0  0  0  0  0
  190.7210  177.4500  144.8390 C   0  0  0  0  0  0  0  0  0  0  0  0
  190.5670  178.0650  143.5870 C   0  0  0  0  0  3  0  0  0  0  0  0
  189.2960  178.2730  143.0520 C   0  0  0  0  0  3  0  0  0  0  0  0
  193.2890  174.3910  146.1090 C   0  0  0  0  0  3  0  0  0  0  0  0
  189.5740  177.1230  145.5810 C   0  0  0  0  0  3  0  0  0  0  0  0
  189.4740  175.0450  142.0940 N   0  0  0  0  0  2  0  0  0  0  0  0
  192.2350  176.5150  146.6410 C   0  0  0  0  0  2  0  0  0  0  0  0
  191.1140  170.9650  141.4350 C   0  0  0  0  0  3  0  0  0  0  0  0
  191.9350  175.4350  144.4100 C   0  0  0  0  0  3  0  0  0  0  0  0
  192.2990  173.0830  144.1490 N   0  0  0  0  0  0  0  0  0  0  0  0
  188.9970  173.7080  142.4800 C   0  0  1  0  0  3  0  0  0  0  0  0
  186.2930  179.0410  142.5710 C   0  0  0  0  0  2  0  0  0  0  0  0
  185.6310  179.7320  143.5900 O   0  0  0  0  0  1  0  0  0  0  0  0
  1 30  1  6  0  0  0
  1  5  1  0  0  0  0
  2 26  1  0  0  0  0
  5 15  1  0  0  0  0
  6  7  1  6  0  0  0
  8 18  1  6  0  0  0
  8 25  1  0  0  0  0
  9  7  1  0  0  0  0
  9  1  1  0  0  0  0
 10  4  1  1  0  0  0
 10 28  1  0  0  0  0
 11 10  1  0  0  0  0
 11 17  1  0  0  0  0
 12  3  2  0  0  0  0
 13 22  1  0  0  0  0
 15 23  2  0  0  0  0
 16 17  2  0  0  0  0
 17 12  1  0  0  0  0
 19  8  1  0  0  0  0
 19 23  1  0  0  0  0
 20 19  2  0  0  0  0
 21 20  1  0  0  0  0
 21  5  2  0  0  0  0
 22 14  2  0  0  0  0
 24 29  1  0  0  0  0
 24  6  1  0  0  0  0
 25 14  1  0  0  0  0
 26 11  2  0  0  0  0
 27 13  2  0  0  0  0
 27  8  1  0  0  0  0
 28 12  1  0  0  0  0
 28 13  1  0  0  0  0
 29  6  1  0  0  0  0
 29  4  1  1  0  0  0
 30 31  1  0  0  0  0
M  END
>  <MODEL>
5

>  <REMARK>
 VINA RESULT:      -8.0      3.497      7.341
  Name = 
  1 active torsions:
  status: ('A' for Active; 'I' for Inactive)
    1  A    between atoms: C_1  and  C_21
                            x       y       z     vdW  Elec       q    Type
                         _______ _______ _______ _____ _____    ______ ____

>  <TORSDO>
F 1

$$$$
=
 OpenBabel11062420583D

 31 35  0  0  1  0  0  0  0  0999 V2000
  186.4360  177.7210  144.7280 C   0  0  2  0  0  3  0  0  0  0  0  0
  188.9430  174.1660  138.7770 O   0  0  0  0  0  1  0  0  0  0  0  0
  193.1130  171.5390  142.0090 O   0  0  0  0  0  0  0  0  0  0  0  0
  189.1420  173.6760  142.0170 C   0  0  0  0  0  2  0  0  0  0  0  0
  187.8530  177.4780  145.1540 C   0  0  0  0  0  0  0  0  0  0  0  0
  187.7030  175.4160  142.9060 C   0  0  2  0  0  3  0  0  0  0  0  0
  186.3160  176.0410  142.7630 C   0  0  0  0  0  2  0  0  0  0  0  0
  191.7640  175.8320  144.9920 C   0  0  2  0  0  0  0  0  0  0  0  0
  186.2600  177.5090  143.2120 C   0  0  0  0  0  2  0  0  0  0  0  0
  190.4720  173.8370  141.2660 C   0  0  2  0  0  3  0  0  0  0  0  0
  190.5100  172.9240  140.0600 C   0  0  0  0  0  0  0  0  0  0  0  0
  192.1520  172.1890  141.5140 C   0  0  0  0  0  0  0  0  0  0  0  0
  191.9890  173.9750  143.3400 C   0  0  0  0  0  0  0  0  0  0  0  0
  193.0660  173.7700  145.4900 N   0  0  0  0  0  0  0  0  0  0  0  0
  188.1380  176.3220  145.8890 C   0  0  0  0  0  3  0  0  0  0  0  0
  191.9720  171.0400  139.3390 C   0  0  0  0  0  2  0  0  0  0  0  0
  191.4980  171.8670  140.2660 C   0  0  0  0  0  0  0  0  0  0  0  0
  192.8060  176.7260  144.8100 F   0  0  0  0  0  0  0  0  0  0  0  0
  190.5010  176.5620  145.3620 C   0  0  0  0  0  0  0  0  0  0  0  0
  190.2160  177.7700  144.7080 C   0  0  0  0  0  3  0  0  0  0  0  0
  188.9020  178.2270  144.6060 C   0  0  0  0  0  3  0  0  0  0  0  0
  192.9520  173.3440  144.2650 C   0  0  0  0  0  3  0  0  0  0  0  0
  189.4520  175.8630  145.9840 C   0  0  0  0  0  3  0  0  0  0  0  0
  188.6530  176.0900  142.0090 N   0  0  0  0  0  2  0  0  0  0  0  0
  192.1780  174.7950  146.0550 C   0  0  0  0  0  2  0  0  0  0  0  0
  189.8150  173.0950  138.9350 C   0  0  0  0  0  3  0  0  0  0  0  0
  191.4570  175.1440  143.6900 C   0  0  0  0  0  3  0  0  0  0  0  0
  191.5700  173.3450  142.1150 N   0  0  0  0  0  0  0  0  0  0  0  0
  188.1240  174.7610  141.6680 C   0  0  1  0  0  3  0  0  0  0  0  0
  185.9400  179.1000  145.1550 C   0  0  0  0  0  2  0  0  0  0  0  0
  185.5660  179.8710  144.0510 O   0  0  0  0  0  1  0  0  0  0  0  0
  1  5  1  0  0  0  0
  1 30  1  6  0  0  0
  2 26  1  0  0  0  0
  5 15  1  0  0  0  0
  6  7  1  6  0  0  0
  7  9  1  0  0  0  0
  8 18  1  6  0  0  0
  8 19  1  0  0  0  0
  8 25  1  0  0  0  0
  9  1  1  0  0  0  0
 10  4  1  1  0  0  0
 10 28  1  0  0  0  0
 11 17  1  0  0  0  0
 11 10  1  0  0  0  0
 12  3  2  0  0  0  0
 12 28  1  0  0  0  0
 13 27  2  0  0  0  0
 13 22  1  0  0  0  0
 14 25  1  0  0  0  0
 15 23  2  0  0  0  0
 16 17  2  0  0  0  0
 17 12  1  0  0  0  0
 19 23  1  0  0  0  0
 20 19  2  0  0  0  0
 21 20  1  0  0  0  0
 21  5  2  0  0  0  0
 22 14  2  0  0  0  0
 24  6  1  0  0  0  0
 26 11  2  0  0  0  0
 27  8  1  0  0  0  0
 28 13  1  0  0  0  0
 29 24  1  0  0  0  0
 29  4  1  1  0  0  0
 29  6  1  0  0  0  0
 31 30  1  0  0  0  0
M  END
>  <MODEL>
6

>  <REMARK>
 VINA RESULT:      -7.9      3.529      6.789
  Name = 
  1 active torsions:
  status: ('A' for Active; 'I' for Inactive)
    1  A    between atoms: C_1  and  C_21
                            x       y       z     vdW  Elec       q    Type
                         _______ _______ _______ _____ _____    ______ ____

>  <TORSDO>
F 1

$$$$
=
 OpenBabel11062420583D

 31 35  0  0  1  0  0  0  0  0999 V2000
  195.5420  175.0060  143.6450 C   0  0  2  0  0  3  0  0  0  0  0  0
  188.6320  175.0950  141.0790 O   0  0  0  0  0  1  0  0  0  0  0  0
  186.8740  178.2910  145.7080 O   0  0  0  0  0  0  0  0  0  0  0  0
  190.3490  176.9650  143.1600 C   0  0  0  0  0  2  0  0  0  0  0  0
  194.7960  175.2160  144.9290 C   0  0  0  0  0  0  0  0  0  0  0  0
  192.5850  176.0350  142.9880 C   0  0  2  0  0  3  0  0  0  0  0  0
  193.6540  175.6130  141.9820 C   0  0  0  0  0  2  0  0  0  0  0  0
  191.4700  176.0480  147.4350 C   0  0  2  0  0  0  0  0  0  0  0  0
  194.6030  174.5300  142.5200 C   0  0  0  0  0  2  0  0  0  0  0  0
  189.0850  176.2980  143.7220 C   0  0  2  0  0  3  0  0  0  0  0  0
  187.9060  176.5510  142.8100 C   0  0  0  0  0  0  0  0  0  0  0  0
  187.4560  177.6280  144.8070 C   0  0  0  0  0  0  0  0  0  0  0  0
  189.4830  176.9040  146.1920 C   0  0  0  0  0  0  0  0  0  0  0  0
  190.0660  177.9080  148.3080 N   0  0  0  0  0  0  0  0  0  0  0  0
  194.5830  176.5270  145.3690 C   0  0  0  0  0  3  0  0  0  0  0  0
  185.7010  177.6800  143.0740 C   0  0  0  0  0  2  0  0  0  0  0  0
  186.9480  177.4380  143.4670 C   0  0  0  0  0  0  0  0  0  0  0  0
  191.0660  175.0330  148.2860 F   0  0  0  0  0  0  0  0  0  0  0  0
  192.8310  175.7480  146.8650 C   0  0  0  0  0  0  0  0  0  0  0  0
  193.1160  174.4280  146.4860 C   0  0  0  0  0  3  0  0  0  0  0  0
  194.0920  174.1620  145.5270 C   0  0  0  0  0  3  0  0  0  0  0  0
  189.1800  177.7450  147.3670 C   0  0  0  0  0  3  0  0  0  0  0  0
  193.6010  176.7910  146.3240 C   0  0  0  0  0  3  0  0  0  0  0  0
  191.6920  174.9030  143.2780 N   0  0  0  0  0  2  0  0  0  0  0  0
  191.4340  177.3840  148.2020 C   0  0  0  0  0  2  0  0  0  0  0  0
  187.7130  175.9880  141.6160 C   0  0  0  0  0  3  0  0  0  0  0  0
  190.5480  176.1070  146.2480 C   0  0  0  0  0  3  0  0  0  0  0  0
  188.7060  176.9630  144.9810 N   0  0  0  0  0  0  0  0  0  0  0  0
  191.2480  175.9930  142.3950 C   0  0  1  0  0  3  0  0  0  0  0  0
  196.7210  174.0540  143.8200 C   0  0  0  0  0  2  0  0  0  0  0  0
  197.5820  174.4890  144.8310 O   0  0  0  0  0  1  0  0  0  0  0  0
  1 30  1  1  0  0  0
  1  5  1  0  0  0  0
  2 26  1  0  0  0  0
  5 15  2  0  0  0  0
  5 21  1  0  0  0  0
  6  7  1  6  0  0  0
  6 24  1  0  0  0  0
  7  9  1  0  0  0  0
  8 25  1  0  0  0  0
  8 18  1  1  0  0  0
  9  1  1  0  0  0  0
 10  4  1  6  0  0  0
 10 28  1  0  0  0  0
 11 17  1  0  0  0  0
 11 10  1  0  0  0  0
 12 28  1  0  0  0  0
 12  3  2  0  0  0  0
 13 27  2  0  0  0  0
 13 22  1  0  0  0  0
 15 23  1  0  0  0  0
 16 17  2  0  0  0  0
 17 12  1  0  0  0  0
 19  8  1  0  0  0  0
 20 19  1  0  0  0  0
 21 20  2  0  0  0  0
 22 14  2  0  0  0  0
 23 19  2  0  0  0  0
 25 14  1  0  0  0  0
 26 11  2  0  0  0  0
 27  8  1  0  0  0  0
 28 13  1  0  0  0  0
 29  6  1  0  0  0  0
 29  4  1  1  0  0  0
 29 24  1  0  0  0  0
 30 31  1  0  0  0  0
M  END
>  <MODEL>
7

>  <REMARK>
 VINA RESULT:      -7.9      2.551      4.040
  Name = 
  1 active torsions:
  status: ('A' for Active; 'I' for Inactive)
    1  A    between atoms: C_1  and  C_21
                            x       y       z     vdW  Elec       q    Type
                         _______ _______ _______ _____ _____    ______ ____

>  <TORSDO>
F 1

$$$$
=
 OpenBabel11062420583D

 31 35  0  0  1  0  0  0  0  0999 V2000
  189.5570  173.5940  139.4860 C   0  0  2  0  0  3  0  0  0  0  0  0
  184.4090  177.4570  143.0800 O   0  0  0  0  0  1  0  0  0  0  0  0
  187.9690  178.0060  147.7450 O   0  0  0  0  0  0  0  0  0  0  0  0
  187.6690  177.1620  143.3260 C   0  0  0  0  0  2  0  0  0  0  0  0
  189.9730  173.3190  140.9000 C   0  0  0  0  0  0  0  0  0  0  0  0
  188.2210  175.7660  141.4180 C   0  0  2  0  0  3  0  0  0  0  0  0
  188.0000  175.6160  139.9150 C   0  0  0  0  0  2  0  0  0  0  0  0
  190.0190  173.7540  145.1240 C   0  0  2  0  0  0  0  0  0  0  0  0
  188.1280  174.1670  139.4210 C   0  0  0  0  0  2  0  0  0  0  0  0
  186.8530  176.7880  144.5700 C   0  0  2  0  0  3  0  0  0  0  0  0
  185.8680  177.8860  144.9060 C   0  0  0  0  0  0  0  0  0  0  0  0
  187.3830  177.7850  146.6510 C   0  0  0  0  0  0  0  0  0  0  0  0
  188.7930  175.7740  145.9250 C   0  0  0  0  0  0  0  0  0  0  0  0
  190.8960  175.1940  146.9570 N   0  0  0  0  0  0  0  0  0  0  0  0
  190.9250  174.1570  141.4900 C   0  0  0  0  0  3  0  0  0  0  0  0
  185.5100  179.3740  146.8710 C   0  0  0  0  0  2  0  0  0  0  0  0
  186.2570  178.5420  146.1520 C   0  0  0  0  0  0  0  0  0  0  0  0
  189.6130  172.6570  145.8650 F   0  0  0  0  0  0  0  0  0  0  0  0
  190.2730  173.3610  143.6940 C   0  0  0  0  0  0  0  0  0  0  0  0
  189.3870  172.4560  143.0870 C   0  0  0  0  0  3  0  0  0  0  0  0
  189.2390  172.4330  141.7010 C   0  0  0  0  0  3  0  0  0  0  0  0
  189.7940  175.8860  147.0040 C   0  0  0  0  0  3  0  0  0  0  0  0
  191.0670  174.1840  142.8780 C   0  0  0  0  0  3  0  0  0  0  0  0
  187.1670  175.0540  142.1560 N   0  0  0  0  0  2  0  0  0  0  0  0
  191.2620  174.3740  145.7940 C   0  0  0  0  0  2  0  0  0  0  0  0
  184.7590  178.1690  144.2210 C   0  0  0  0  0  3  0  0  0  0  0  0
  188.9050  174.7640  145.0660 C   0  0  0  0  0  3  0  0  0  0  0  0
  187.7460  176.7460  145.7410 N   0  0  0  0  0  0  0  0  0  0  0  0
  187.1360  176.5210  142.0450 C   0  0  1  0  0  3  0  0  0  0  0  0
  189.6990  172.3600  138.6000 C   0  0  0  0  0  2  0  0  0  0  0  0
  190.9800  171.8090  138.6940 O   0  0  0  0  0  1  0  0  0  0  0  0
  1 30  1  6  0  0  0
  1  5  1  0  0  0  0
  2 26  1  0  0  0  0
  5 15  2  0  0  0  0
  5 21  1  0  0  0  0
  6  7  1  6  0  0  0
  6 29  1  0  0  0  0
  6 24  1  0  0  0  0
  8 25  1  0  0  0  0
  8 18  1  1  0  0  0
  9  1  1  0  0  0  0
  9  7  1  0  0  0  0
 10  4  1  6  0  0  0
 10 11  1  0  0  0  0
 10 28  1  0  0  0  0
 11 17  1  0  0  0  0
 12  3  2  0  0  0  0
 13 22  1  0  0  0  0
 14 22  2  0  0  0  0
 15 23  1  0  0  0  0
 17 12  1  0  0  0  0
 17 16  2  0  0  0  0
 19  8  1  0  0  0  0
 20 19  1  0  0  0  0
 21 20  2  0  0  0  0
 23 19  2  0  0  0  0
 25 14  1  0  0  0  0
 26 11  2  0  0  0  0
 27  8  1  0  0  0  0
 27 13  2  0  0  0  0
 28 13  1  0  0  0  0
 28 12  1  0  0  0  0
 29 24  1  0  0  0  0
 29  4  1  1  0  0  0
 30 31  1  0  0  0  0
M  END
>  <MODEL>
8

>  <REMARK>
 VINA RESULT:      -7.5      3.253      5.481
  Name = 
  1 active torsions:
  status: ('A' for Active; 'I' for Inactive)
    1  A    between atoms: C_1  and  C_21
                            x       y       z     vdW  Elec       q    Type
                         _______ _______ _______ _____ _____    ______ ____

>  <TORSDO>
F 1

$$$$
=
 OpenBabel11062420583D

 31 35  0  0  1  0  0  0  0  0999 V2000
  186.6160  176.8170  144.4230 C   0  0  2  0  0  3  0  0  0  0  0  0
  190.3270  173.7380  138.8460 O   0  0  0  0  0  1  0  0  0  0  0  0
  194.6810  172.1850  142.5030 O   0  0  0  0  0  0  0  0  0  0  0  0
  190.3550  173.3940  142.1110 C   0  0  0  0  0  2  0  0  0  0  0  0
  188.0110  176.9030  144.9660 C   0  0  0  0  0  0  0  0  0  0  0  0
  188.5020  174.7980  142.8090 C   0  0  2  0  0  3  0  0  0  0  0  0
  187.0310  175.0980  142.5320 C   0  0  0  0  0  2  0  0  0  0  0  0
  192.1860  176.1550  145.1760 C   0  0  2  0  0  0  0  0  0  0  0  0
  186.6190  176.5300  142.9090 C   0  0  0  0  0  2  0  0  0  0  0  0
  191.6760  173.8220  141.4570 C   0  0  2  0  0  3  0  0  0  0  0  0
  192.0140  172.9080  140.3010 C   0  0  0  0  0  0  0  0  0  0  0  0
  193.6480  172.5920  141.9070 C   0  0  0  0  0  0  0  0  0  0  0  0
  192.9480  174.3490  143.6330 C   0  0  0  0  0  0  0  0  0  0  0  0
  193.8590  174.4450  145.8650 N   0  0  0  0  0  0  0  0  0  0  0  0
  188.4780  175.8590  145.7710 C   0  0  0  0  0  3  0  0  0  0  0  0
  193.9050  171.3730  139.7780 C   0  0  0  0  0  2  0  0  0  0  0  0
  193.1860  172.1000  140.6280 C   0  0  0  0  0  0  0  0  0  0  0  0
  193.0200  177.2520  145.0330 F   0  0  0  0  0  0  0  0  0  0  0  0
  190.7680  176.5990  145.4160 C   0  0  0  0  0  0  0  0  0  0  0  0
  190.2830  177.6960  144.6880 C   0  0  0  0  0  3  0  0  0  0  0  0
  188.9150  177.8500  144.4650 C   0  0  0  0  0  3  0  0  0  0  0  0
  193.9430  173.9710  144.6550 C   0  0  0  0  0  3  0  0  0  0  0  0
  189.8480  175.7040  145.9870 C   0  0  0  0  0  3  0  0  0  0  0  0
  189.3560  175.6400  141.9570 N   0  0  0  0  0  2  0  0  0  0  0  0
  192.7250  175.2650  146.3130 C   0  0  0  0  0  2  0  0  0  0  0  0
  191.3950  172.8900  139.1190 C   0  0  0  0  0  3  0  0  0  0  0  0
  192.1460  175.3810  143.8870 C   0  0  0  0  0  3  0  0  0  0  0  0
  192.7800  173.6080  142.4080 N   0  0  0  0  0  0  0  0  0  0  0  0
  189.1590  174.2170  141.6370 C   0  0  1  0  0  3  0  0  0  0  0  0
  185.7990  178.0630  144.7470 C   0  0  0  0  0  2  0  0  0  0  0  0
  185.6120  178.2060  146.1250 O   0  0  0  0  0  1  0  0  0  0  0  0
  1 30  1  6  0  0  0
  1  5  1  0  0  0  0
  2 26  1  0  0  0  0
  5 15  1  0  0  0  0
  6  7  1  6  0  0  0
  7  9  1  0  0  0  0
  8 18  1  6  0  0  0
  8 19  1  0  0  0  0
  8 25  1  0  0  0  0
  9  1  1  0  0  0  0
 10  4  1  1  0  0  0
 10 28  1  0  0  0  0
 11 17  1  0  0  0  0
 11 10  1  0  0  0  0
 12 28  1  0  0  0  0
 12  3  2  0  0  0  0
 13 27  2  0  0  0  0
 13 22  1  0  0  0  0
 14 25  1  0  0  0  0
 15 23  2  0  0  0  0
 16 17  2  0  0  0  0
 17 12  1  0  0  0  0
 19 23  1  0  0  0  0
 20 19  2  0  0  0  0
 21 20  1  0  0  0  0
 21  5  2  0  0  0  0
 22 14  2  0  0  0  0
 24  6  1  0  0  0  0
 26 11  2  0  0  0  0
 27  8  1  0  0  0  0
 28 13  1  0  0  0  0
 29 24  1  0  0  0  0
 29  4  1  1  0  0  0
 29  6  1  0  0  0  0
 30 31  1  0  0  0  0
M  END
>  <MODEL>
9

>  <REMARK>
 VINA RESULT:      -7.4      3.594      7.199
  Name = 
  1 active torsions:
  status: ('A' for Active; 'I' for Inactive)
    1  A    between atoms: C_1  and  C_21
                            x       y       z     vdW  Elec       q    Type
                         _______ _______ _______ _____ _____    ______ ____

>  <TORSDO>
F 1

$$$$
