=
 OpenBabel11072408363D

 47 51  0  0  1  0  0  0  0  0999 V2000
  191.7500  174.9560  144.6960 N   0  0  0  0  0  0  0  0  0  0  0  0
  194.8930  175.2720  145.9330 N   0  0  0  0  0  2  0  0  0  0  0  0
  192.8990  174.5710  145.2730 C   0  0  0  0  0  0  0  0  0  0  0  0
  194.9560  173.9450  145.7660 N   0  0  0  0  0  0  0  0  0  0  0  0
  193.6250  175.6090  145.6430 C   0  0  0  0  0  0  0  0  0  0  0  0
  193.7460  173.4840  145.3540 C   0  0  0  0  0  0  0  0  0  0  0  0
  192.9880  176.7970  145.3660 C   0  0  0  0  0  3  0  0  0  0  0  0
  191.7920  176.3240  144.7860 C   0  0  0  0  0  0  0  0  0  0  0  0
  190.6950  177.2320  144.3170 C   0  0  0  0  0  0  0  0  0  0  0  0
  190.5770  177.5010  142.8300 C   0  0  0  0  0  2  0  0  0  0  0  0
  191.2010  178.5410  143.7480 C   0  0  0  0  0  2  0  0  0  0  0  0
  189.5170  177.1680  146.4000 O   0  0  0  0  0  0  0  0  0  0  0  0
  189.4700  177.3850  145.1560 C   0  0  0  0  0  0  0  0  0  0  0  0
  188.2650  177.7300  144.5350 O   0  0  0  0  0  0  0  0  0  0  0  0
  187.2250  176.7820  144.2920 C   0  0  2  0  0  3  0  0  0  0  0  0
  186.8390  176.8290  142.8000 C   0  0  1  0  0  3  0  0  0  0  0  0
  187.8790  175.9710  140.6840 O   0  0  0  0  0  0  0  0  0  0  0  0
  187.4010  174.5120  142.3920 O   0  0  0  0  0  1  0  0  0  0  0  0
  187.3830  175.7000  141.9570 C   0  0  0  0  0  0  0  0  0  0  0  0
  185.4640  177.0670  142.5710 O   0  0  0  0  0  0  0  0  0  0  0  0
  185.3130  178.3330  141.9790 C   0  0  0  0  0  2  0  0  0  0  0  0
  185.3720  178.1980  140.5890 O   0  0  0  0  0  1  0  0  0  0  0  0
  186.0220  177.1300  145.1630 C   0  0  0  0  0  2  0  0  0  0  0  0
  186.0630  178.4730  145.5330 O   0  0  0  0  0  0  0  0  0  0  0  0
  186.0300  177.1230  147.9580 O   0  0  0  0  0  0  0  0  0  0  0  0
  186.0380  178.4450  147.2230 P   0  0  0  0  0  0  0  0  0  0  0  0
  186.0350  179.7420  148.0010 O   0  0  0  0  0  0  0  0  0  0  0  0
  193.5100  172.1180  145.0080 N   0  0  0  0  0  2  0  0  0  0  0  0
  194.5290  171.2540  144.4330 C   0  0  0  0  0  2  0  0  0  0  0  0
  194.3570  169.6280  146.3340 C   0  0  0  0  0  3  0  0  0  0  0  0
  194.9460  168.8340  147.3220 C   0  0  0  0  0  3  0  0  0  0  0  0
  197.1340  169.6330  146.6470 C   0  0  0  0  0  3  0  0  0  0  0  0
  195.1560  170.4200  145.4980 C   0  0  0  0  0  0  0  0  0  0  0  0
  196.3340  168.8350  147.4760 C   0  0  0  0  0  3  0  0  0  0  0  0
  196.5450  170.4270  145.6580 C   0  0  0  0  0  3  0  0  0  0  0  0
  190.7430  174.1790  143.9730 C   0  0  2  0  0  3  0  0  0  0  0  0
  189.5250  173.7920  145.9950 O   0  0  0  0  0  1  0  0  0  0  0  0
  190.0830  173.1530  144.8850 C   0  0  0  0  0  2  0  0  0  0  0  0
  191.3340  173.5630  142.6980 C   0  0  0  0  0  2  0  0  0  0  0  0
  191.2110  170.7320  140.5120 N   0  0  0  0  0  2  0  0  0  0  0  0
  190.4060  172.5780  141.9800 C   0  0  2  0  0  3  0  0  0  0  0  0
  191.0350  171.2170  141.8320 C   0  0  0  0  0  0  0  0  0  0  0  0
  189.9790  173.0910  140.5920 C   0  0  0  0  0  2  0  0  0  0  0  0
  189.4090  171.2890  138.6380 O   0  0  0  0  0  0  0  0  0  0  0  0
  190.5480  171.8800  139.4240 S   0  0  0  0  0  0  0  0  0  0  0  0
  191.3850  170.5340  142.8310 O   0  0  0  0  0  0  0  0  0  0  0  0
  191.6060  172.4460  138.5130 O   0  0  0  0  0  0  0  0  0  0  0  0
  1  8  1  0  0  0  0
  1  3  1  0  0  0  0
  3  6  1  0  0  0  0
  3  5  2  0  0  0  0
  4  2  1  0  0  0  0
  5  2  1  0  0  0  0
  6  4  2  0  0  0  0
  7  5  1  0  0  0  0
  8  7  2  0  0  0  0
  9  8  1  0  0  0  0
  9 13  1  0  0  0  0
 10 11  1  0  0  0  0
 10  9  1  0  0  0  0
 11  9  1  0  0  0  0
 13 12  2  0  0  0  0
 14 13  1  0  0  0  0
 15 14  1  0  0  0  0
 15 23  1  1  0  0  0
 16 19  1  1  0  0  0
 16 15  1  0  0  0  0
 17 19  2  0  0  0  0
 19 18  1  0  0  0  0
 20 16  1  0  0  0  0
 21 20  1  0  0  0  0
 22 21  1  0  0  0  0
 23 24  1  0  0  0  0
 24 26  1  0  0  0  0
 26 25  2  0  0  0  0
 26 27  2  0  0  0  0
 28  6  1  0  0  0  0
 29 28  1  0  0  0  0
 29 33  1  0  0  0  0
 30 31  1  0  0  0  0
 31 34  2  0  0  0  0
 32 34  1  0  0  0  0
 33 35  1  0  0  0  0
 33 30  2  0  0  0  0
 35 32  2  0  0  0  0
 36 39  1  6  0  0  0
 36  1  1  0  0  0  0
 36 38  1  0  0  0  0
 38 37  1  0  0  0  0
 40 42  1  0  0  0  0
 41 39  1  6  0  0  0
 42 41  1  0  0  0  0
 42 46  2  0  0  0  0
 43 41  1  0  0  0  0
 44 45  2  0  0  0  0
 45 40  1  0  0  0  0
 45 43  1  0  0  0  0
 47 45  2  0  0  0  0
M  END
>  <MODEL>
1

>  <REMARK>
 VINA RESULT:      -6.6      0.000      0.000
  Name = 
  18 active torsions:
  status: ('A' for Active; 'I' for Inactive)
    1  A    between atoms: C_2  and  N_3
    2  A    between atoms: C_2  and  C_38
    3  A    between atoms: C_2  and  C_42
    4  A    between atoms: C_4  and  C_42
    5  A    between atoms: C_6  and  C_32
    6  A    between atoms: C_6  and  N_37
    7  A    between atoms: C_13  and  O_33
    8  A    between atoms: O_14  and  C_17
    9  A    between atoms: O_14  and  C_44
   10  A    between atoms: C_17  and  C_23
   11  A    between atoms: O_19  and  P_22
   12  A    between atoms: O_19  and  C_34
   13  A    between atoms: C_23  and  C_35
   14  A    between atoms: C_26  and  N_37
   15  A    between atoms: C_27  and  C_45
   16  A    between atoms: O_33  and  C_45
   17  A    between atoms: C_34  and  C_44
   18  A    between atoms: C_44  and  C_45
                            x       y       z     vdW  Elec       q    Type
                         _______ _______ _______ _____ _____    ______ ____

>  <TORSDO>
F 18

$$$$
=
 OpenBabel11072408363D

 47 51  0  0  1  0  0  0  0  0999 V2000
  191.2170  174.9150  144.2680 N   0  0  0  0  0  0  0  0  0  0  0  0
  189.8410  171.8310  143.9470 N   0  0  0  0  0  2  0  0  0  0  0  0
  190.8110  173.7980  143.6440 C   0  0  0  0  0  0  0  0  0  0  0  0
  190.5470  171.7730  142.8110 N   0  0  0  0  0  0  0  0  0  0  0  0
  190.0120  173.0810  144.4110 C   0  0  0  0  0  0  0  0  0  0  0  0
  191.1610  172.9670  142.5990 C   0  0  0  0  0  0  0  0  0  0  0  0
  189.7900  173.6920  145.6230 C   0  0  0  0  0  3  0  0  0  0  0  0
  190.5600  174.8640  145.4710 C   0  0  0  0  0  0  0  0  0  0  0  0
  190.6480  175.9280  146.5230 C   0  0  0  0  0  0  0  0  0  0  0  0
  192.0140  176.2760  147.0770 C   0  0  0  0  0  2  0  0  0  0  0  0
  191.0650  175.4000  147.8790 C   0  0  0  0  0  2  0  0  0  0  0  0
  189.6720  177.9240  147.4160 O   0  0  0  0  0  0  0  0  0  0  0  0
  189.5780  176.9670  146.5960 C   0  0  0  0  0  0  0  0  0  0  0  0
  188.4530  176.8370  145.7740 O   0  0  0  0  0  0  0  0  0  0  0  0
  188.0090  177.8810  144.9070 C   0  0  2  0  0  3  0  0  0  0  0  0
  186.5030  178.1210  145.1390 C   0  0  1  0  0  3  0  0  0  0  0  0
  185.2030  176.5860  146.6390 O   0  0  0  0  0  0  0  0  0  0  0  0
  186.2690  178.4170  147.5290 O   0  0  0  0  0  1  0  0  0  0  0  0
  185.9900  177.7280  146.5040 C   0  0  0  0  0  0  0  0  0  0  0  0
  186.0590  179.4020  144.7370 O   0  0  0  0  0  0  0  0  0  0  0  0
  184.8180  179.2730  144.0910 C   0  0  0  0  0  2  0  0  0  0  0  0
  185.0200  178.7580  142.8070 O   0  0  0  0  0  1  0  0  0  0  0  0
  188.2630  177.4670  143.4610 C   0  0  0  0  0  2  0  0  0  0  0  0
  188.0210  176.1060  143.2950 O   0  0  0  0  0  0  0  0  0  0  0  0
  187.0420  176.7550  140.7810 O   0  0  0  0  0  0  0  0  0  0  0  0
  187.9560  175.8900  141.6200 P   0  0  0  0  0  0  0  0  0  0  0  0
  188.8190  174.8380  140.9590 O   0  0  0  0  0  0  0  0  0  0  0  0
  192.0570  173.1990  141.5110 N   0  0  0  0  0  2  0  0  0  0  0  0
  192.1950  172.2910  140.3840 C   0  0  0  0  0  2  0  0  0  0  0  0
  191.5160  173.6430  138.3840 C   0  0  0  0  0  3  0  0  0  0  0  0
  190.6030  173.9620  137.3750 C   0  0  0  0  0  3  0  0  0  0  0  0
  189.0770  172.2890  138.2410 C   0  0  0  0  0  3  0  0  0  0  0  0
  191.2130  172.6430  139.3180 C   0  0  0  0  0  0  0  0  0  0  0  0
  189.3850  173.2820  137.3030 C   0  0  0  0  0  3  0  0  0  0  0  0
  189.9900  171.9680  139.2500 C   0  0  0  0  0  3  0  0  0  0  0  0
  192.2380  175.8940  143.8940 C   0  0  2  0  0  3  0  0  0  0  0  0
  191.6060  178.1010  143.2210 O   0  0  0  0  0  1  0  0  0  0  0  0
  191.7510  176.7890  142.7630 C   0  0  0  0  0  2  0  0  0  0  0  0
  193.5750  175.2050  143.5890 C   0  0  0  0  0  2  0  0  0  0  0  0
  197.0330  174.8020  144.4160 N   0  0  0  0  0  2  0  0  0  0  0  0
  194.6120  175.3070  144.7130 C   0  0  2  0  0  3  0  0  0  0  0  0
  195.9670  175.7090  144.1940 C   0  0  0  0  0  0  0  0  0  0  0  0
  194.7430  173.9890  145.5010 C   0  0  0  0  0  2  0  0  0  0  0  0
  197.1250  173.3750  146.6570 O   0  0  0  0  0  0  0  0  0  0  0  0
  196.4330  173.4770  145.3240 S   0  0  0  0  0  0  0  0  0  0  0  0
  196.1530  176.8020  143.5960 O   0  0  0  0  0  0  0  0  0  0  0  0
  196.5430  172.1890  144.5520 O   0  0  0  0  0  0  0  0  0  0  0  0
  1  8  1  0  0  0  0
  2  5  1  0  0  0  0
  3  1  1  0  0  0  0
  3  5  2  0  0  0  0
  4  2  1  0  0  0  0
  5  7  1  0  0  0  0
  6  4  2  0  0  0  0
  6  3  1  0  0  0  0
  8  7  2  0  0  0  0
  8  9  1  0  0  0  0
  9 13  1  0  0  0  0
  9 10  1  0  0  0  0
  9 11  1  0  0  0  0
 10 11  1  0  0  0  0
 13 12  2  0  0  0  0
 14 13  1  0  0  0  0
 15 23  1  6  0  0  0
 15 16  1  0  0  0  0
 15 14  1  0  0  0  0
 16 20  1  1  0  0  0
 16 19  1  0  0  0  0
 19 17  2  0  0  0  0
 19 18  1  0  0  0  0
 21 20  1  0  0  0  0
 22 21  1  0  0  0  0
 24 23  1  0  0  0  0
 25 26  2  0  0  0  0
 26 24  1  0  0  0  0
 27 26  2  0  0  0  0
 28  6  1  0  0  0  0
 29 28  1  0  0  0  0
 30 33  1  0  0  0  0
 31 30  2  0  0  0  0
 32 35  1  0  0  0  0
 33 29  1  0  0  0  0
 34 31  1  0  0  0  0
 34 32  2  0  0  0  0
 35 33  2  0  0  0  0
 36 38  1  6  0  0  0
 36  1  1  0  0  0  0
 38 37  1  0  0  0  0
 39 36  1  0  0  0  0
 40 45  1  0  0  0  0
 41 39  1  6  0  0  0
 41 43  1  0  0  0  0
 42 40  1  0  0  0  0
 42 41  1  0  0  0  0
 45 43  1  0  0  0  0
 45 44  2  0  0  0  0
 46 42  2  0  0  0  0
 47 45  2  0  0  0  0
M  END
>  <MODEL>
2

>  <REMARK>
 VINA RESULT:      -6.5      3.076      6.288
  Name = 
  18 active torsions:
  status: ('A' for Active; 'I' for Inactive)
    1  A    between atoms: C_2  and  N_3
    2  A    between atoms: C_2  and  C_38
    3  A    between atoms: C_2  and  C_42
    4  A    between atoms: C_4  and  C_42
    5  A    between atoms: C_6  and  C_32
    6  A    between atoms: C_6  and  N_37
    7  A    between atoms: C_13  and  O_33
    8  A    between atoms: O_14  and  C_17
    9  A    between atoms: O_14  and  C_44
   10  A    between atoms: C_17  and  C_23
   11  A    between atoms: O_19  and  P_22
   12  A    between atoms: O_19  and  C_34
   13  A    between atoms: C_23  and  C_35
   14  A    between atoms: C_26  and  N_37
   15  A    between atoms: C_27  and  C_45
   16  A    between atoms: O_33  and  C_45
   17  A    between atoms: C_34  and  C_44
   18  A    between atoms: C_44  and  C_45
                            x       y       z     vdW  Elec       q    Type
                         _______ _______ _______ _____ _____    ______ ____

>  <TORSDO>
F 18

$$$$
=
 OpenBabel11072408363D

 47 51  0  0  1  0  0  0  0  0999 V2000
  191.0980  174.8930  143.8740 N   0  0  0  0  0  0  0  0  0  0  0  0
  190.3870  171.7850  142.7140 N   0  0  0  0  0  2  0  0  0  0  0  0
  191.0560  173.8760  142.9980 C   0  0  0  0  0  0  0  0  0  0  0  0
  191.3540  172.0340  141.8220 N   0  0  0  0  0  0  0  0  0  0  0  0
  190.2230  172.9320  143.3940 C   0  0  0  0  0  0  0  0  0  0  0  0
  191.7910  173.3120  141.9750 C   0  0  0  0  0  0  0  0  0  0  0  0
  189.6040  173.2660  144.5770 C   0  0  0  0  0  3  0  0  0  0  0  0
  190.1790  174.5300  144.8260 C   0  0  0  0  0  0  0  0  0  0  0  0
  189.8190  175.3720  146.0130 C   0  0  0  0  0  0  0  0  0  0  0  0
  190.7000  175.2890  147.2430 C   0  0  0  0  0  2  0  0  0  0  0  0
  189.3640  174.5640  147.2080 C   0  0  0  0  0  2  0  0  0  0  0  0
  188.7270  177.3590  146.7850 O   0  0  0  0  0  0  0  0  0  0  0  0
  189.0250  176.6190  145.8040 C   0  0  0  0  0  0  0  0  0  0  0  0
  188.5820  176.9290  144.5140 O   0  0  0  0  0  0  0  0  0  0  0  0
  187.3580  176.4250  143.9780 C   0  0  2  0  0  3  0  0  0  0  0  0
  187.4520  176.4060  142.4390 C   0  0  1  0  0  3  0  0  0  0  0  0
  186.2970  178.2600  141.2040 O   0  0  0  0  0  0  0  0  0  0  0  0
  188.5220  178.4590  141.7400 O   0  0  0  0  0  1  0  0  0  0  0  0
  187.4660  177.7640  141.7770 C   0  0  0  0  0  0  0  0  0  0  0  0
  188.4540  175.5430  141.9370 O   0  0  0  0  0  0  0  0  0  0  0  0
  188.1040  175.1470  140.6350 C   0  0  0  0  0  2  0  0  0  0  0  0
  188.4010  173.7900  140.4730 O   0  0  0  0  0  1  0  0  0  0  0  0
  186.2110  177.3240  144.4280 C   0  0  0  0  0  2  0  0  0  0  0  0
  185.5060  176.7270  145.4710 O   0  0  0  0  0  0  0  0  0  0  0  0
  183.7450  178.8460  145.8030 O   0  0  0  0  0  0  0  0  0  0  0  0
  184.8870  178.0250  146.3590 P   0  0  0  0  0  0  0  0  0  0  0  0
  185.4680  178.3580  147.7150 O   0  0  0  0  0  0  0  0  0  0  0  0
  192.8780  173.8580  141.2270 N   0  0  0  0  0  2  0  0  0  0  0  0
  193.9870  173.0580  140.7320 C   0  0  0  0  0  2  0  0  0  0  0  0
  195.7760  174.7230  141.2920 C   0  0  0  0  0  3  0  0  0  0  0  0
  196.8480  175.5400  140.9200 C   0  0  0  0  0  3  0  0  0  0  0  0
  196.6000  174.8020  138.6240 C   0  0  0  0  0  3  0  0  0  0  0  0
  195.1200  173.9420  140.3310 C   0  0  0  0  0  0  0  0  0  0  0  0
  197.2610  175.5760  139.5870 C   0  0  0  0  0  3  0  0  0  0  0  0
  195.5290  173.9850  138.9950 C   0  0  0  0  0  3  0  0  0  0  0  0
  192.0000  176.0420  143.9530 C   0  0  2  0  0  3  0  0  0  0  0  0
  191.4060  178.3050  143.4550 O   0  0  0  0  0  1  0  0  0  0  0  0
  191.6790  177.0650  142.8720 C   0  0  0  0  0  2  0  0  0  0  0  0
  193.4660  175.5920  143.9440 C   0  0  0  0  0  2  0  0  0  0  0  0
  196.0660  174.5460  146.1710 N   0  0  0  0  0  2  0  0  0  0  0  0
  193.8360  174.6110  145.0620 C   0  0  2  0  0  3  0  0  0  0  0  0
  194.8200  175.2070  146.0330 C   0  0  0  0  0  0  0  0  0  0  0  0
  194.4070  173.2910  144.5100 C   0  0  0  0  0  2  0  0  0  0  0  0
  196.1910  171.8950  146.0120 O   0  0  0  0  0  0  0  0  0  0  0  0
  196.0430  173.1440  145.1840 S   0  0  0  0  0  0  0  0  0  0  0  0
  194.5520  176.2430  146.7010 O   0  0  0  0  0  0  0  0  0  0  0  0
  197.0940  173.2150  144.1070 O   0  0  0  0  0  0  0  0  0  0  0  0
  1 36  1  0  0  0  0
  1  8  1  0  0  0  0
  2  5  1  0  0  0  0
  3  5  2  0  0  0  0
  3  1  1  0  0  0  0
  4  6  2  0  0  0  0
  4  2  1  0  0  0  0
  5  7  1  0  0  0  0
  6  3  1  0  0  0  0
  7  8  2  0  0  0  0
  8  9  1  0  0  0  0
  9 11  1  0  0  0  0
  9 10  1  0  0  0  0
 11 10  1  0  0  0  0
 13  9  1  0  0  0  0
 13 12  2  0  0  0  0
 14 13  1  0  0  0  0
 15 23  1  6  0  0  0
 15 14  1  0  0  0  0
 16 19  1  1  0  0  0
 16 15  1  0  0  0  0
 17 19  2  0  0  0  0
 18 19  1  0  0  0  0
 20 16  1  0  0  0  0
 21 20  1  0  0  0  0
 22 21  1  0  0  0  0
 23 24  1  0  0  0  0
 24 26  1  0  0  0  0
 25 26  2  0  0  0  0
 26 27  2  0  0  0  0
 28  6  1  0  0  0  0
 29 28  1  0  0  0  0
 31 30  1  0  0  0  0
 32 35  2  0  0  0  0
 32 34  1  0  0  0  0
 33 29  1  0  0  0  0
 33 30  2  0  0  0  0
 34 31  2  0  0  0  0
 35 33  1  0  0  0  0
 36 38  1  6  0  0  0
 38 37  1  0  0  0  0
 39 36  1  0  0  0  0
 41 39  1  6  0  0  0
 41 42  1  0  0  0  0
 42 40  1  0  0  0  0
 42 46  2  0  0  0  0
 43 41  1  0  0  0  0
 43 45  1  0  0  0  0
 45 44  2  0  0  0  0
 45 40  1  0  0  0  0
 47 45  2  0  0  0  0
M  END
>  <MODEL>
3

>  <REMARK>
 VINA RESULT:      -6.4      3.231      5.336
  Name = 
  18 active torsions:
  status: ('A' for Active; 'I' for Inactive)
    1  A    between atoms: C_2  and  N_3
    2  A    between atoms: C_2  and  C_38
    3  A    between atoms: C_2  and  C_42
    4  A    between atoms: C_4  and  C_42
    5  A    between atoms: C_6  and  C_32
    6  A    between atoms: C_6  and  N_37
    7  A    between atoms: C_13  and  O_33
    8  A    between atoms: O_14  and  C_17
    9  A    between atoms: O_14  and  C_44
   10  A    between atoms: C_17  and  C_23
   11  A    between atoms: O_19  and  P_22
   12  A    between atoms: O_19  and  C_34
   13  A    between atoms: C_23  and  C_35
   14  A    between atoms: C_26  and  N_37
   15  A    between atoms: C_27  and  C_45
   16  A    between atoms: O_33  and  C_45
   17  A    between atoms: C_34  and  C_44
   18  A    between atoms: C_44  and  C_45
                            x       y       z     vdW  Elec       q    Type
                         _______ _______ _______ _____ _____    ______ ____

>  <TORSDO>
F 18

$$$$
=
 OpenBabel11072408363D

 47 51  0  0  1  0  0  0  0  0999 V2000
  191.2500  174.7010  143.9940 N   0  0  0  0  0  0  0  0  0  0  0  0
  190.3840  171.5240  143.1780 N   0  0  0  0  0  2  0  0  0  0  0  0
  191.0980  173.6190  143.2130 C   0  0  0  0  0  0  0  0  0  0  0  0
  191.2440  171.6840  142.1640 N   0  0  0  0  0  0  0  0  0  0  0  0
  190.3080  172.7250  143.7770 C   0  0  0  0  0  0  0  0  0  0  0  0
  191.7070  172.9620  142.1630 C   0  0  0  0  0  0  0  0  0  0  0  0
  189.8330  173.1620  144.9910 C   0  0  0  0  0  3  0  0  0  0  0  0
  190.4440  174.4310  145.0700 C   0  0  0  0  0  0  0  0  0  0  0  0
  190.2300  175.3720  146.2180 C   0  0  0  0  0  0  0  0  0  0  0  0
  191.2020  175.3170  147.3780 C   0  0  0  0  0  2  0  0  0  0  0  0
  189.8300  174.6750  147.5000 C   0  0  0  0  0  2  0  0  0  0  0  0
  189.8480  177.7100  146.5690 O   0  0  0  0  0  0  0  0  0  0  0  0
  189.4920  176.6480  145.9820 C   0  0  0  0  0  0  0  0  0  0  0  0
  188.3760  176.6380  145.1390 O   0  0  0  0  0  0  0  0  0  0  0  0
  187.7730  177.8340  144.6450 C   0  0  2  0  0  3  0  0  0  0  0  0
  186.4800  178.1110  145.4380 C   0  0  1  0  0  3  0  0  0  0  0  0
  185.5850  180.1610  144.3000 O   0  0  0  0  0  0  0  0  0  0  0  0
  184.3190  178.2440  144.3580 O   0  0  0  0  0  1  0  0  0  0  0  0
  185.3950  178.8310  144.6720 C   0  0  0  0  0  0  0  0  0  0  0  0
  185.9930  176.9900  146.1500 O   0  0  0  0  0  0  0  0  0  0  0  0
  186.0210  177.2760  147.5250 C   0  0  0  0  0  2  0  0  0  0  0  0
  186.7250  178.4660  147.7330 O   0  0  0  0  0  1  0  0  0  0  0  0
  187.4580  177.6560  143.1630 C   0  0  0  0  0  2  0  0  0  0  0  0
  187.1210  176.3320  142.8930 O   0  0  0  0  0  0  0  0  0  0  0  0
  187.1340  176.7950  140.1570 O   0  0  0  0  0  0  0  0  0  0  0  0
  187.7190  176.0530  141.3380 P   0  0  0  0  0  0  0  0  0  0  0  0
  188.8480  175.0680  141.1270 O   0  0  0  0  0  0  0  0  0  0  0  0
  192.7050  173.4270  141.2530 N   0  0  0  0  0  2  0  0  0  0  0  0
  193.8710  172.6420  140.8790 C   0  0  0  0  0  2  0  0  0  0  0  0
  196.3210  173.0620  141.2070 C   0  0  0  0  0  3  0  0  0  0  0  0
  197.4490  173.8810  141.0930 C   0  0  0  0  0  3  0  0  0  0  0  0
  196.0720  175.6260  140.1240 C   0  0  0  0  0  3  0  0  0  0  0  0
  195.0700  173.5230  140.7740 C   0  0  0  0  0  0  0  0  0  0  0  0
  197.3230  175.1610  140.5490 C   0  0  0  0  0  3  0  0  0  0  0  0
  194.9440  174.8070  140.2360 C   0  0  0  0  0  3  0  0  0  0  0  0
  192.1650  175.8360  143.8760 C   0  0  2  0  0  3  0  0  0  0  0  0
  191.5230  178.1200  143.5630 O   0  0  0  0  0  1  0  0  0  0  0  0
  191.6160  176.8850  142.9170 C   0  0  0  0  0  2  0  0  0  0  0  0
  193.5800  175.3680  143.5150 C   0  0  0  0  0  2  0  0  0  0  0  0
  197.0110  174.9130  144.4260 N   0  0  0  0  0  2  0  0  0  0  0  0
  194.5960  175.4800  144.6570 C   0  0  2  0  0  3  0  0  0  0  0  0
  195.9710  175.8360  144.1540 C   0  0  0  0  0  0  0  0  0  0  0  0
  194.6810  174.1850  145.4870 C   0  0  0  0  0  2  0  0  0  0  0  0
  197.0240  173.5540  146.7110 O   0  0  0  0  0  0  0  0  0  0  0  0
  196.3620  173.6300  145.3610 S   0  0  0  0  0  0  0  0  0  0  0  0
  196.1940  176.9060  143.5270 O   0  0  0  0  0  0  0  0  0  0  0  0
  196.4570  172.3160  144.6300 O   0  0  0  0  0  0  0  0  0  0  0  0
  1  8  1  0  0  0  0
  2  5  1  0  0  0  0
  3  5  2  0  0  0  0
  3  1  1  0  0  0  0
  4  2  1  0  0  0  0
  5  7  1  0  0  0  0
  6  4  2  0  0  0  0
  6  3  1  0  0  0  0
  7  8  2  0  0  0  0
  8  9  1  0  0  0  0
  9 10  1  0  0  0  0
  9 11  1  0  0  0  0
 10 11  1  0  0  0  0
 13  9  1  0  0  0  0
 13 12  2  0  0  0  0
 14 13  1  0  0  0  0
 15 23  1  6  0  0  0
 15 14  1  0  0  0  0
 15 16  1  0  0  0  0
 16 19  1  6  0  0  0
 16 20  1  0  0  0  0
 17 19  2  0  0  0  0
 18 19  1  0  0  0  0
 20 21  1  0  0  0  0
 21 22  1  0  0  0  0
 24 23  1  0  0  0  0
 25 26  2  0  0  0  0
 26 24  1  0  0  0  0
 27 26  2  0  0  0  0
 28  6  1  0  0  0  0
 29 28  1  0  0  0  0
 31 30  1  0  0  0  0
 32 35  2  0  0  0  0
 32 34  1  0  0  0  0
 33 29  1  0  0  0  0
 33 30  2  0  0  0  0
 34 31  2  0  0  0  0
 35 33  1  0  0  0  0
 36 38  1  6  0  0  0
 36  1  1  0  0  0  0
 38 37  1  0  0  0  0
 39 36  1  0  0  0  0
 40 45  1  0  0  0  0
 41 39  1  6  0  0  0
 41 43  1  0  0  0  0
 42 40  1  0  0  0  0
 42 41  1  0  0  0  0
 45 43  1  0  0  0  0
 45 44  2  0  0  0  0
 46 42  2  0  0  0  0
 47 45  2  0  0  0  0
M  END
>  <MODEL>
4

>  <REMARK>
 VINA RESULT:      -6.3      3.399      5.821
  Name = 
  18 active torsions:
  status: ('A' for Active; 'I' for Inactive)
    1  A    between atoms: C_2  and  N_3
    2  A    between atoms: C_2  and  C_38
    3  A    between atoms: C_2  and  C_42
    4  A    between atoms: C_4  and  C_42
    5  A    between atoms: C_6  and  C_32
    6  A    between atoms: C_6  and  N_37
    7  A    between atoms: C_13  and  O_33
    8  A    between atoms: O_14  and  C_17
    9  A    between atoms: O_14  and  C_44
   10  A    between atoms: C_17  and  C_23
   11  A    between atoms: O_19  and  P_22
   12  A    between atoms: O_19  and  C_34
   13  A    between atoms: C_23  and  C_35
   14  A    between atoms: C_26  and  N_37
   15  A    between atoms: C_27  and  C_45
   16  A    between atoms: O_33  and  C_45
   17  A    between atoms: C_34  and  C_44
   18  A    between atoms: C_44  and  C_45
                            x       y       z     vdW  Elec       q    Type
                         _______ _______ _______ _____ _____    ______ ____

>  <TORSDO>
F 18

$$$$
=
 OpenBabel11072408363D

 47 51  0  0  1  0  0  0  0  0999 V2000
  192.0170  174.9850  144.7300 N   0  0  0  0  0  0  0  0  0  0  0  0
  195.1390  175.4830  145.9620 N   0  0  0  0  0  2  0  0  0  0  0  0
  193.1840  174.6710  145.3160 C   0  0  0  0  0  0  0  0  0  0  0  0
  195.2680  174.1580  145.8240 N   0  0  0  0  0  0  0  0  0  0  0  0
  193.8560  175.7510  145.6630 C   0  0  0  0  0  0  0  0  0  0  0  0
  194.0820  173.6280  145.4210 C   0  0  0  0  0  0  0  0  0  0  0  0
  193.1620  176.8990  145.3600 C   0  0  0  0  0  3  0  0  0  0  0  0
  191.9920  176.3550  144.7900 C   0  0  0  0  0  0  0  0  0  0  0  0
  190.8520  177.1980  144.3000 C   0  0  0  0  0  0  0  0  0  0  0  0
  190.7110  177.4110  142.8060 C   0  0  0  0  0  2  0  0  0  0  0  0
  191.2950  178.5080  143.6830 C   0  0  0  0  0  2  0  0  0  0  0  0
  189.6880  177.1260  146.3910 O   0  0  0  0  0  0  0  0  0  0  0  0
  189.6280  177.3250  145.1440 C   0  0  0  0  0  0  0  0  0  0  0  0
  188.4090  177.6230  144.5250 O   0  0  0  0  0  0  0  0  0  0  0  0
  187.4310  176.6250  144.2310 C   0  0  2  0  0  3  0  0  0  0  0  0
  187.1220  176.6530  142.7200 C   0  0  1  0  0  3  0  0  0  0  0  0
  188.0990  175.6110  140.6570 O   0  0  0  0  0  0  0  0  0  0  0  0
  187.5330  174.2850  142.4460 O   0  0  0  0  0  1  0  0  0  0  0  0
  187.5900  175.4450  141.9430 C   0  0  0  0  0  0  0  0  0  0  0  0
  185.7900  177.0160  142.4140 O   0  0  0  0  0  0  0  0  0  0  0  0
  185.8020  178.1940  141.6480 C   0  0  0  0  0  2  0  0  0  0  0  0
  185.5610  177.8720  140.3090 O   0  0  0  0  0  1  0  0  0  0  0  0
  186.1680  176.9140  145.0350 C   0  0  0  0  0  2  0  0  0  0  0  0
  186.3530  176.5670  146.3720 O   0  0  0  0  0  0  0  0  0  0  0  0
  184.3980  178.3620  147.1840 O   0  0  0  0  0  0  0  0  0  0  0  0
  185.8470  177.9280  147.2360 P   0  0  0  0  0  0  0  0  0  0  0  0
  186.8400  178.7080  148.0680 O   0  0  0  0  0  0  0  0  0  0  0  0
  193.9160  172.2450  145.1050 N   0  0  0  0  0  2  0  0  0  0  0  0
  194.8540  171.4950  144.2860 C   0  0  0  0  0  2  0  0  0  0  0  0
  193.0830  169.7710  143.8630 C   0  0  0  0  0  3  0  0  0  0  0  0
  192.3810  168.9230  143.0010 C   0  0  0  0  0  3  0  0  0  0  0  0
  193.7530  169.6840  141.1520 C   0  0  0  0  0  3  0  0  0  0  0  0
  194.1160  170.5790  143.3690 C   0  0  0  0  0  0  0  0  0  0  0  0
  192.7150  168.8830  141.6460 C   0  0  0  0  0  3  0  0  0  0  0  0
  194.4550  170.5320  142.0130 C   0  0  0  0  0  3  0  0  0  0  0  0
  191.0510  174.1440  144.0240 C   0  0  2  0  0  3  0  0  0  0  0  0
  189.5680  173.8340  145.8750 O   0  0  0  0  0  1  0  0  0  0  0  0
  190.3900  173.1540  144.9730 C   0  0  0  0  0  2  0  0  0  0  0  0
  191.6950  173.4740  142.8030 C   0  0  0  0  0  2  0  0  0  0  0  0
  190.7330  171.3260  140.1060 N   0  0  0  0  0  2  0  0  0  0  0  0
  190.7610  173.3220  141.5970 C   0  0  2  0  0  3  0  0  0  0  0  0
  190.3780  171.8860  141.3590 C   0  0  0  0  0  0  0  0  0  0  0  0
  191.3780  173.9010  140.3090 C   0  0  0  0  0  2  0  0  0  0  0  0
  190.6770  172.8270  137.9130 O   0  0  0  0  0  0  0  0  0  0  0  0
  191.4730  172.5510  139.1600 S   0  0  0  0  0  0  0  0  0  0  0  0
  189.7630  171.2080  142.2260 O   0  0  0  0  0  0  0  0  0  0  0  0
  192.9010  172.2030  138.8320 O   0  0  0  0  0  0  0  0  0  0  0  0
  1  8  1  0  0  0  0
  1  3  1  0  0  0  0
  3  6  1  0  0  0  0
  3  5  2  0  0  0  0
  4  2  1  0  0  0  0
  5  2  1  0  0  0  0
  6  4  2  0  0  0  0
  7  5  1  0  0  0  0
  8  7  2  0  0  0  0
  9  8  1  0  0  0  0
  9 13  1  0  0  0  0
 10 11  1  0  0  0  0
 10  9  1  0  0  0  0
 11  9  1  0  0  0  0
 13 12  2  0  0  0  0
 14 13  1  0  0  0  0
 15 14  1  0  0  0  0
 15 23  1  1  0  0  0
 16 19  1  1  0  0  0
 16 15  1  0  0  0  0
 17 19  2  0  0  0  0
 19 18  1  0  0  0  0
 20 16  1  0  0  0  0
 21 20  1  0  0  0  0
 22 21  1  0  0  0  0
 23 24  1  0  0  0  0
 24 26  1  0  0  0  0
 25 26  2  0  0  0  0
 26 27  2  0  0  0  0
 28  6  1  0  0  0  0
 29 28  1  0  0  0  0
 31 30  2  0  0  0  0
 32 34  2  0  0  0  0
 32 35  1  0  0  0  0
 33 30  1  0  0  0  0
 33 29  1  0  0  0  0
 34 31  1  0  0  0  0
 35 33  2  0  0  0  0
 36 39  1  6  0  0  0
 36  1  1  0  0  0  0
 36 38  1  0  0  0  0
 38 37  1  0  0  0  0
 40 42  1  0  0  0  0
 41 39  1  1  0  0  0
 42 41  1  0  0  0  0
 42 46  2  0  0  0  0
 43 41  1  0  0  0  0
 44 45  2  0  0  0  0
 45 40  1  0  0  0  0
 45 43  1  0  0  0  0
 47 45  2  0  0  0  0
M  END
>  <MODEL>
5

>  <REMARK>
 VINA RESULT:      -6.2      1.412      1.934
  Name = 
  18 active torsions:
  status: ('A' for Active; 'I' for Inactive)
    1  A    between atoms: C_2  and  N_3
    2  A    between atoms: C_2  and  C_38
    3  A    between atoms: C_2  and  C_42
    4  A    between atoms: C_4  and  C_42
    5  A    between atoms: C_6  and  C_32
    6  A    between atoms: C_6  and  N_37
    7  A    between atoms: C_13  and  O_33
    8  A    between atoms: O_14  and  C_17
    9  A    between atoms: O_14  and  C_44
   10  A    between atoms: C_17  and  C_23
   11  A    between atoms: O_19  and  P_22
   12  A    between atoms: O_19  and  C_34
   13  A    between atoms: C_23  and  C_35
   14  A    between atoms: C_26  and  N_37
   15  A    between atoms: C_27  and  C_45
   16  A    between atoms: O_33  and  C_45
   17  A    between atoms: C_34  and  C_44
   18  A    between atoms: C_44  and  C_45
                            x       y       z     vdW  Elec       q    Type
                         _______ _______ _______ _____ _____    ______ ____

>  <TORSDO>
F 18

$$$$
=
 OpenBabel11072408363D

 47 51  0  0  1  0  0  0  0  0999 V2000
  192.1970  174.8570  144.6710 N   0  0  0  0  0  0  0  0  0  0  0  0
  195.3310  175.4130  145.8450 N   0  0  0  0  0  2  0  0  0  0  0  0
  193.3840  174.5620  145.2250 C   0  0  0  0  0  0  0  0  0  0  0  0
  195.4910  174.0940  145.6780 N   0  0  0  0  0  0  0  0  0  0  0  0
  194.0350  175.6530  145.5800 C   0  0  0  0  0  0  0  0  0  0  0  0
  194.3110  173.5420  145.2900 C   0  0  0  0  0  0  0  0  0  0  0  0
  193.3050  176.7880  145.3150 C   0  0  0  0  0  3  0  0  0  0  0  0
  192.1370  176.2250  144.7600 C   0  0  0  0  0  0  0  0  0  0  0  0
  190.9660  177.0470  144.3110 C   0  0  0  0  0  0  0  0  0  0  0  0
  190.7990  177.3040  142.8280 C   0  0  0  0  0  2  0  0  0  0  0  0
  191.3600  178.3900  143.7330 C   0  0  0  0  0  2  0  0  0  0  0  0
  189.8360  177.4930  146.3750 O   0  0  0  0  0  0  0  0  0  0  0  0
  189.7490  177.1070  145.1740 C   0  0  0  0  0  0  0  0  0  0  0  0
  188.5240  176.6900  144.6440 O   0  0  0  0  0  0  0  0  0  0  0  0
  187.6830  177.5520  143.8780 C   0  0  2  0  0  3  0  0  0  0  0  0
  186.4950  178.0040  144.7510 C   0  0  1  0  0  3  0  0  0  0  0  0
  185.5650  180.1680  143.8850 O   0  0  0  0  0  1  0  0  0  0  0  0
  184.4070  178.2130  143.5480 O   0  0  0  0  0  0  0  0  0  0  0  0
  185.4250  178.7900  144.0290 C   0  0  0  0  0  0  0  0  0  0  0  0
  185.9620  176.9810  145.5680 O   0  0  0  0  0  0  0  0  0  0  0  0
  185.5420  177.5410  146.7870 C   0  0  0  0  0  2  0  0  0  0  0  0
  186.6440  178.1060  147.4360 O   0  0  0  0  0  1  0  0  0  0  0  0
  187.1810  176.7950  142.6520 C   0  0  0  0  0  2  0  0  0  0  0  0
  186.9340  175.4620  142.9710 O   0  0  0  0  0  0  0  0  0  0  0  0
  188.2290  175.2420  140.5260 O   0  0  0  0  0  0  0  0  0  0  0  0
  187.8090  174.5840  141.8220 P   0  0  0  0  0  0  0  0  0  0  0  0
  188.1800  173.1440  142.0940 O   0  0  0  0  0  0  0  0  0  0  0  0
  194.1730  172.1620  144.9490 N   0  0  0  0  0  2  0  0  0  0  0  0
  195.2990  171.3090  144.6020 C   0  0  0  0  0  2  0  0  0  0  0  0
  196.7820  169.8880  146.0410 C   0  0  0  0  0  3  0  0  0  0  0  0
  196.9610  168.9160  147.0290 C   0  0  0  0  0  3  0  0  0  0  0  0
  194.5550  168.6780  147.2170 C   0  0  0  0  0  3  0  0  0  0  0  0
  195.4890  170.2600  145.6440 C   0  0  0  0  0  0  0  0  0  0  0  0
  195.8470  168.3140  147.6180 C   0  0  0  0  0  3  0  0  0  0  0  0
  194.3750  169.6510  146.2290 C   0  0  0  0  0  3  0  0  0  0  0  0
  191.2380  174.0050  143.9680 C   0  0  2  0  0  3  0  0  0  0  0  0
  189.6080  173.7270  145.6970 O   0  0  0  0  0  1  0  0  0  0  0  0
  190.5530  173.0430  144.9290 C   0  0  0  0  0  2  0  0  0  0  0  0
  191.8980  173.3020  142.7750 C   0  0  0  0  0  2  0  0  0  0  0  0
  192.7280  173.2920  139.2940 N   0  0  0  0  0  2  0  0  0  0  0  0
  192.0140  174.1660  141.5150 C   0  0  2  0  0  3  0  0  0  0  0  0
  191.7010  173.3850  140.2660 C   0  0  0  0  0  0  0  0  0  0  0  0
  193.4090  174.8040  141.3760 C   0  0  0  0  0  2  0  0  0  0  0  0
  194.3720  175.3420  138.8920 O   0  0  0  0  0  0  0  0  0  0  0  0
  194.0700  174.2120  139.8380 S   0  0  0  0  0  0  0  0  0  0  0  0
  190.5780  172.8430  140.0830 O   0  0  0  0  0  0  0  0  0  0  0  0
  195.2800  173.3410  140.0550 O   0  0  0  0  0  0  0  0  0  0  0  0
  1  8  1  0  0  0  0
  1  3  1  0  0  0  0
  3  6  1  0  0  0  0
  3  5  2  0  0  0  0
  4  2  1  0  0  0  0
  5  2  1  0  0  0  0
  6  4  2  0  0  0  0
  7  5  1  0  0  0  0
  8  7  2  0  0  0  0
  9  8  1  0  0  0  0
  9 13  1  0  0  0  0
 10 11  1  0  0  0  0
 10  9  1  0  0  0  0
 11  9  1  0  0  0  0
 13 12  2  0  0  0  0
 14 13  1  0  0  0  0
 15 23  1  6  0  0  0
 15 14  1  0  0  0  0
 15 16  1  0  0  0  0
 16 19  1  6  0  0  0
 16 20  1  0  0  0  0
 17 19  1  0  0  0  0
 18 19  2  0  0  0  0
 20 21  1  0  0  0  0
 21 22  1  0  0  0  0
 23 24  1  0  0  0  0
 25 26  2  0  0  0  0
 26 27  2  0  0  0  0
 26 24  1  0  0  0  0
 28  6  1  0  0  0  0
 29 28  1  0  0  0  0
 29 33  1  0  0  0  0
 30 31  1  0  0  0  0
 31 34  2  0  0  0  0
 32 34  1  0  0  0  0
 33 30  2  0  0  0  0
 33 35  1  0  0  0  0
 35 32  2  0  0  0  0
 36 39  1  6  0  0  0
 36  1  1  0  0  0  0
 36 38  1  0  0  0  0
 38 37  1  0  0  0  0
 40 45  1  0  0  0  0
 40 42  1  0  0  0  0
 41 39  1  1  0  0  0
 42 41  1  0  0  0  0
 43 41  1  0  0  0  0
 44 45  2  0  0  0  0
 45 47  2  0  0  0  0
 45 43  1  0  0  0  0
 46 42  2  0  0  0  0
M  END
>  <MODEL>
6

>  <REMARK>
 VINA RESULT:      -6.1      1.846      3.385
  Name = 
  18 active torsions:
  status: ('A' for Active; 'I' for Inactive)
    1  A    between atoms: C_2  and  N_3
    2  A    between atoms: C_2  and  C_38
    3  A    between atoms: C_2  and  C_42
    4  A    between atoms: C_4  and  C_42
    5  A    between atoms: C_6  and  C_32
    6  A    between atoms: C_6  and  N_37
    7  A    between atoms: C_13  and  O_33
    8  A    between atoms: O_14  and  C_17
    9  A    between atoms: O_14  and  C_44
   10  A    between atoms: C_17  and  C_23
   11  A    between atoms: O_19  and  P_22
   12  A    between atoms: O_19  and  C_34
   13  A    between atoms: C_23  and  C_35
   14  A    between atoms: C_26  and  N_37
   15  A    between atoms: C_27  and  C_45
   16  A    between atoms: O_33  and  C_45
   17  A    between atoms: C_34  and  C_44
   18  A    between atoms: C_44  and  C_45
                            x       y       z     vdW  Elec       q    Type
                         _______ _______ _______ _____ _____    ______ ____

>  <TORSDO>
F 18

$$$$
=
 OpenBabel11072408363D

 47 51  0  0  1  0  0  0  0  0999 V2000
  191.9970  174.6300  144.4650 N   0  0  0  0  0  0  0  0  0  0  0  0
  194.9460  175.3000  146.0020 N   0  0  0  0  0  2  0  0  0  0  0  0
  193.1530  174.3700  145.0970 C   0  0  0  0  0  0  0  0  0  0  0  0
  195.2470  174.0320  145.7000 N   0  0  0  0  0  0  0  0  0  0  0  0
  193.6620  175.4600  145.6390 C   0  0  0  0  0  0  0  0  0  0  0  0
  194.1650  173.4330  145.1340 C   0  0  0  0  0  0  0  0  0  0  0  0
  192.8510  176.5530  145.4360 C   0  0  0  0  0  3  0  0  0  0  0  0
  191.7980  175.9660  144.7050 C   0  0  0  0  0  0  0  0  0  0  0  0
  190.5970  176.7340  144.2410 C   0  0  0  0  0  0  0  0  0  0  0  0
  190.4540  177.0110  142.7580 C   0  0  0  0  0  2  0  0  0  0  0  0
  190.9340  178.1060  143.6970 C   0  0  0  0  0  2  0  0  0  0  0  0
  189.0320  175.6740  145.7110 O   0  0  0  0  0  0  0  0  0  0  0  0
  189.3570  176.7150  145.0720 C   0  0  0  0  0  0  0  0  0  0  0  0
  188.5420  177.8520  145.0960 O   0  0  0  0  0  0  0  0  0  0  0  0
  187.2400  177.8780  144.5100 C   0  0  2  0  0  3  0  0  0  0  0  0
  186.2000  178.1910  145.6050 C   0  0  1  0  0  3  0  0  0  0  0  0
  185.4620  180.2320  144.3440 O   0  0  0  0  0  0  0  0  0  0  0  0
  183.9620  179.1070  145.6730 O   0  0  0  0  0  1  0  0  0  0  0  0
  185.1400  179.1960  145.2190 C   0  0  0  0  0  0  0  0  0  0  0  0
  185.6620  177.0420  146.2280 O   0  0  0  0  0  0  0  0  0  0  0  0
  186.2140  176.9210  147.5150 C   0  0  0  0  0  2  0  0  0  0  0  0
  186.2710  178.1850  148.1110 O   0  0  0  0  0  1  0  0  0  0  0  0
  186.9530  176.5200  143.8780 C   0  0  0  0  0  2  0  0  0  0  0  0
  187.2620  176.5410  142.5200 O   0  0  0  0  0  0  0  0  0  0  0  0
  186.2670  178.2260  140.5520 O   0  0  0  0  0  0  0  0  0  0  0  0
  186.0130  177.4350  141.8160 P   0  0  0  0  0  0  0  0  0  0  0  0
  184.6370  177.4360  142.4440 O   0  0  0  0  0  0  0  0  0  0  0  0
  194.1920  172.0990  144.6240 N   0  0  0  0  0  2  0  0  0  0  0  0
  193.8660  170.9310  145.4260 C   0  0  0  0  0  2  0  0  0  0  0  0
  195.0770  169.3360  146.9350 C   0  0  0  0  0  3  0  0  0  0  0  0
  196.2450  168.6860  147.3450 C   0  0  0  0  0  3  0  0  0  0  0  0
  197.4930  169.8730  145.6380 C   0  0  0  0  0  3  0  0  0  0  0  0
  195.1160  170.2510  145.8730 C   0  0  0  0  0  0  0  0  0  0  0  0
  197.4510  168.9530  146.6940 C   0  0  0  0  0  3  0  0  0  0  0  0
  196.3250  170.5230  145.2270 C   0  0  0  0  0  3  0  0  0  0  0  0
  191.1910  173.7940  143.5760 C   0  0  2  0  0  3  0  0  0  0  0  0
  189.7430  172.6340  145.0860 O   0  0  0  0  0  1  0  0  0  0  0  0
  190.8410  172.4680  144.2390 C   0  0  0  0  0  2  0  0  0  0  0  0
  191.8710  173.6270  142.2110 C   0  0  0  0  0  2  0  0  0  0  0  0
  190.4160  173.5120  138.9440 N   0  0  0  0  0  2  0  0  0  0  0  0
  191.0950  172.7550  141.2180 C   0  0  2  0  0  3  0  0  0  0  0  0
  191.4610  173.0660  139.7910 C   0  0  0  0  0  0  0  0  0  0  0  0
  189.5710  172.8960  141.3910 C   0  0  0  0  0  2  0  0  0  0  0  0
  187.9590  172.5380  139.2320 O   0  0  0  0  0  0  0  0  0  0  0  0
  188.9530  173.4930  139.8380 S   0  0  0  0  0  0  0  0  0  0  0  0
  192.6380  172.9310  139.3600 O   0  0  0  0  0  0  0  0  0  0  0  0
  188.3720  174.8770  139.9690 O   0  0  0  0  0  0  0  0  0  0  0  0
  1  8  1  0  0  0  0
  1  3  1  0  0  0  0
  3  6  1  0  0  0  0
  3  5  2  0  0  0  0
  4  2  1  0  0  0  0
  5  2  1  0  0  0  0
  6  4  2  0  0  0  0
  7  5  1  0  0  0  0
  8  7  2  0  0  0  0
  9  8  1  0  0  0  0
  9 13  1  0  0  0  0
 10 11  1  0  0  0  0
 10  9  1  0  0  0  0
 11  9  1  0  0  0  0
 13 14  1  0  0  0  0
 13 12  2  0  0  0  0
 15 23  1  1  0  0  0
 15 14  1  0  0  0  0
 15 16  1  0  0  0  0
 16 19  1  6  0  0  0
 16 20  1  0  0  0  0
 17 19  2  0  0  0  0
 19 18  1  0  0  0  0
 20 21  1  0  0  0  0
 21 22  1  0  0  0  0
 24 23  1  0  0  0  0
 25 26  2  0  0  0  0
 26 27  2  0  0  0  0
 26 24  1  0  0  0  0
 28  6  1  0  0  0  0
 28 29  1  0  0  0  0
 29 33  1  0  0  0  0
 30 31  1  0  0  0  0
 32 34  1  0  0  0  0
 33 30  2  0  0  0  0
 34 31  2  0  0  0  0
 35 32  2  0  0  0  0
 35 33  1  0  0  0  0
 36 39  1  6  0  0  0
 36 38  1  0  0  0  0
 36  1  1  0  0  0  0
 38 37  1  0  0  0  0
 40 42  1  0  0  0  0
 40 45  1  0  0  0  0
 41 43  1  0  0  0  0
 41 39  1  1  0  0  0
 42 41  1  0  0  0  0
 44 45  2  0  0  0  0
 45 47  2  0  0  0  0
 45 43  1  0  0  0  0
 46 42  2  0  0  0  0
M  END
>  <MODEL>
7

>  <REMARK>
 VINA RESULT:      -6.0      1.566      3.103
  Name = 
  18 active torsions:
  status: ('A' for Active; 'I' for Inactive)
    1  A    between atoms: C_2  and  N_3
    2  A    between atoms: C_2  and  C_38
    3  A    between atoms: C_2  and  C_42
    4  A    between atoms: C_4  and  C_42
    5  A    between atoms: C_6  and  C_32
    6  A    between atoms: C_6  and  N_37
    7  A    between atoms: C_13  and  O_33
    8  A    between atoms: O_14  and  C_17
    9  A    between atoms: O_14  and  C_44
   10  A    between atoms: C_17  and  C_23
   11  A    between atoms: O_19  and  P_22
   12  A    between atoms: O_19  and  C_34
   13  A    between atoms: C_23  and  C_35
   14  A    between atoms: C_26  and  N_37
   15  A    between atoms: C_27  and  C_45
   16  A    between atoms: O_33  and  C_45
   17  A    between atoms: C_34  and  C_44
   18  A    between atoms: C_44  and  C_45
                            x       y       z     vdW  Elec       q    Type
                         _______ _______ _______ _____ _____    ______ ____

>  <TORSDO>
F 18

$$$$
=
 OpenBabel11072408363D

 47 51  0  0  1  0  0  0  0  0999 V2000
  191.7580  175.9270  144.8650 N   0  0  0  0  0  0  0  0  0  0  0  0
  190.4000  176.4620  147.9270 N   0  0  0  0  0  2  0  0  0  0  0  0
  190.9950  176.5210  145.7960 C   0  0  0  0  0  0  0  0  0  0  0  0
  189.4490  177.1180  147.2520 N   0  0  0  0  0  0  0  0  0  0  0  0
  191.3280  176.1340  147.0130 C   0  0  0  0  0  0  0  0  0  0  0  0
  189.7820  177.1660  145.9350 C   0  0  0  0  0  0  0  0  0  0  0  0
  192.3870  175.2560  146.9920 C   0  0  0  0  0  3  0  0  0  0  0  0
  192.6350  175.1760  145.6060 C   0  0  0  0  0  0  0  0  0  0  0  0
  193.7390  174.3490  145.0190 C   0  0  0  0  0  0  0  0  0  0  0  0
  193.3740  173.0400  144.3500 C   0  0  0  0  0  2  0  0  0  0  0  0
  193.9660  173.0430  145.7500 C   0  0  0  0  0  2  0  0  0  0  0  0
  195.0450  176.2770  144.4590 O   0  0  0  0  0  0  0  0  0  0  0  0
  195.0050  175.0210  144.6000 C   0  0  0  0  0  0  0  0  0  0  0  0
  196.1280  174.2340  144.3240 O   0  0  0  0  0  0  0  0  0  0  0  0
  196.5720  173.9640  142.9940 C   0  0  2  0  0  3  0  0  0  0  0  0
  196.6840  172.4380  142.8010 C   0  0  1  0  0  3  0  0  0  0  0  0
  196.3360  170.5660  141.1660 O   0  0  0  0  0  1  0  0  0  0  0  0
  195.6570  172.6940  140.6250 O   0  0  0  0  0  0  0  0  0  0  0  0
  196.1960  171.9190  141.4690 C   0  0  0  0  0  0  0  0  0  0  0  0
  197.9410  171.9050  143.1670 O   0  0  0  0  0  0  0  0  0  0  0  0
  197.7510  170.9200  144.1510 C   0  0  0  0  0  2  0  0  0  0  0  0
  197.5400  171.5410  145.3860 O   0  0  0  0  0  1  0  0  0  0  0  0
  197.9290  174.6270  142.7790 C   0  0  0  0  0  2  0  0  0  0  0  0
  197.7750  175.9980  142.5890 O   0  0  0  0  0  0  0  0  0  0  0  0
  197.2920  175.5300  139.8960 O   0  0  0  0  0  0  0  0  0  0  0  0
  196.8170  176.1270  141.2030 P   0  0  0  0  0  0  0  0  0  0  0  0
  195.4810  176.8320  141.2700 O   0  0  0  0  0  0  0  0  0  0  0  0
  188.9290  177.7280  144.9360 N   0  0  0  0  0  2  0  0  0  0  0  0
  187.7800  177.0290  144.3830 C   0  0  0  0  0  2  0  0  0  0  0  0
  185.8980  176.9880  146.0400 C   0  0  0  0  0  3  0  0  0  0  0  0
  184.7230  177.5290  146.5710 C   0  0  0  0  0  3  0  0  0  0  0  0
  184.7820  179.2790  144.8940 C   0  0  0  0  0  3  0  0  0  0  0  0
  186.5180  177.5960  144.9390 C   0  0  0  0  0  0  0  0  0  0  0  0
  184.1680  178.6750  145.9990 C   0  0  0  0  0  3  0  0  0  0  0  0
  185.9570  178.7400  144.3630 C   0  0  0  0  0  3  0  0  0  0  0  0
  191.6310  175.8990  143.4080 C   0  0  2  0  0  3  0  0  0  0  0  0
  190.4950  177.7450  142.3960 O   0  0  0  0  0  1  0  0  0  0  0  0
  191.7490  177.2990  142.8210 C   0  0  0  0  0  2  0  0  0  0  0  0
  190.3510  175.1700  142.9820 C   0  0  0  0  0  2  0  0  0  0  0  0
  188.7980  172.8380  140.7540 N   0  0  0  0  0  2  0  0  0  0  0  0
  190.4130  174.5440  141.5840 C   0  0  2  0  0  3  0  0  0  0  0  0
  189.0440  174.2000  141.0590 C   0  0  0  0  0  0  0  0  0  0  0  0
  191.2980  173.2830  141.5520 C   0  0  0  0  0  2  0  0  0  0  0  0
  190.7400  171.3250  139.7520 O   0  0  0  0  0  0  0  0  0  0  0  0
  190.2430  171.9560  141.0250 S   0  0  0  0  0  0  0  0  0  0  0  0
  188.1560  175.0780  140.8900 O   0  0  0  0  0  0  0  0  0  0  0  0
  190.0630  170.9280  142.1110 O   0  0  0  0  0  0  0  0  0  0  0  0
  1  8  1  0  0  0  0
  1  3  1  0  0  0  0
  3  6  1  0  0  0  0
  3  5  2  0  0  0  0
  4  2  1  0  0  0  0
  5  2  1  0  0  0  0
  6  4  2  0  0  0  0
  7  5  1  0  0  0  0
  8  7  2  0  0  0  0
  9  8  1  0  0  0  0
  9 11  1  0  0  0  0
 10  9  1  0  0  0  0
 10 11  1  0  0  0  0
 12 13  2  0  0  0  0
 13  9  1  0  0  0  0
 14 13  1  0  0  0  0
 15 23  1  1  0  0  0
 15 14  1  0  0  0  0
 16 19  1  6  0  0  0
 16 15  1  0  0  0  0
 16 20  1  0  0  0  0
 17 19  1  0  0  0  0
 18 19  2  0  0  0  0
 20 21  1  0  0  0  0
 21 22  1  0  0  0  0
 24 23  1  0  0  0  0
 25 26  2  0  0  0  0
 26 27  2  0  0  0  0
 26 24  1  0  0  0  0
 28  6  1  0  0  0  0
 29 28  1  0  0  0  0
 29 33  1  0  0  0  0
 30 31  1  0  0  0  0
 32 34  1  0  0  0  0
 33 30  2  0  0  0  0
 34 31  2  0  0  0  0
 35 32  2  0  0  0  0
 35 33  1  0  0  0  0
 36 38  1  1  0  0  0
 36  1  1  0  0  0  0
 37 38  1  0  0  0  0
 39 36  1  0  0  0  0
 40 45  1  0  0  0  0
 40 42  1  0  0  0  0
 41 39  1  1  0  0  0
 42 41  1  0  0  0  0
 43 41  1  0  0  0  0
 44 45  2  0  0  0  0
 45 43  1  0  0  0  0
 45 47  2  0  0  0  0
 46 42  2  0  0  0  0
M  END
>  <MODEL>
8

>  <REMARK>
 VINA RESULT:      -6.0      3.899      8.806
  Name = 
  18 active torsions:
  status: ('A' for Active; 'I' for Inactive)
    1  A    between atoms: C_2  and  N_3
    2  A    between atoms: C_2  and  C_38
    3  A    between atoms: C_2  and  C_42
    4  A    between atoms: C_4  and  C_42
    5  A    between atoms: C_6  and  C_32
    6  A    between atoms: C_6  and  N_37
    7  A    between atoms: C_13  and  O_33
    8  A    between atoms: O_14  and  C_17
    9  A    between atoms: O_14  and  C_44
   10  A    between atoms: C_17  and  C_23
   11  A    between atoms: O_19  and  P_22
   12  A    between atoms: O_19  and  C_34
   13  A    between atoms: C_23  and  C_35
   14  A    between atoms: C_26  and  N_37
   15  A    between atoms: C_27  and  C_45
   16  A    between atoms: O_33  and  C_45
   17  A    between atoms: C_34  and  C_44
   18  A    between atoms: C_44  and  C_45
                            x       y       z     vdW  Elec       q    Type
                         _______ _______ _______ _____ _____    ______ ____

>  <TORSDO>
F 18

$$$$
=
 OpenBabel11072408363D

 47 51  0  0  1  0  0  0  0  0999 V2000
  191.5320  175.5990  144.8080 N   0  0  0  0  0  0  0  0  0  0  0  0
  190.1560  175.1040  147.8680 N   0  0  0  0  0  2  0  0  0  0  0  0
  190.6200  175.6980  145.7870 C   0  0  0  0  0  0  0  0  0  0  0  0
  189.0030  175.4120  147.2600 N   0  0  0  0  0  0  0  0  0  0  0  0
  191.1130  175.3100  146.9480 C   0  0  0  0  0  0  0  0  0  0  0  0
  189.2540  175.7760  145.9750 C   0  0  0  0  0  0  0  0  0  0  0  0
  192.4340  174.9420  146.8390 C   0  0  0  0  0  3  0  0  0  0  0  0
  192.6560  175.1660  145.4640 C   0  0  0  0  0  0  0  0  0  0  0  0
  193.9840  174.9440  144.8040 C   0  0  0  0  0  0  0  0  0  0  0  0
  195.2370  175.3000  145.5780 C   0  0  0  0  0  2  0  0  0  0  0  0
  194.7210  176.2280  144.4890 C   0  0  0  0  0  2  0  0  0  0  0  0
  194.7000  174.1860  142.6480 O   0  0  0  0  0  0  0  0  0  0  0  0
  194.0960  173.9170  143.7260 C   0  0  0  0  0  0  0  0  0  0  0  0
  193.4840  172.6730  143.9110 O   0  0  0  0  0  0  0  0  0  0  0  0
  194.0260  171.6690  144.7690 C   0  0  2  0  0  3  0  0  0  0  0  0
  195.5420  171.5550  144.5150 C   0  0  1  0  0  3  0  0  0  0  0  0
  197.1770  172.5510  146.1380 O   0  0  0  0  0  0  0  0  0  0  0  0
  196.4150  170.4080  146.4580 O   0  0  0  0  0  1  0  0  0  0  0  0
  196.3980  171.4610  145.7570 C   0  0  0  0  0  0  0  0  0  0  0  0
  195.8890  170.5930  143.5390 O   0  0  0  0  0  0  0  0  0  0  0  0
  197.1310  170.9390  142.9780 C   0  0  0  0  0  2  0  0  0  0  0  0
  196.9340  171.9120  141.9930 O   0  0  0  0  0  1  0  0  0  0  0  0
  193.3380  170.3400  144.4740 C   0  0  0  0  0  2  0  0  0  0  0  0
  192.3900  170.4960  143.4650 O   0  0  0  0  0  0  0  0  0  0  0  0
  191.1610  168.4750  142.0130 O   0  0  0  0  0  0  0  0  0  0  0  0
  192.4290  169.0340  142.6180 P   0  0  0  0  0  0  0  0  0  0  0  0
  193.7360  168.2890  142.4570 O   0  0  0  0  0  0  0  0  0  0  0  0
  188.2220  176.0840  145.0380 N   0  0  0  0  0  2  0  0  0  0  0  0
  187.9420  177.4320  144.5730 C   0  0  0  0  0  2  0  0  0  0  0  0
  185.9510  178.9510  144.4240 C   0  0  0  0  0  3  0  0  0  0  0  0
  184.6810  179.3490  144.8510 C   0  0  0  0  0  3  0  0  0  0  0  0
  184.6980  177.5860  146.5150 C   0  0  0  0  0  3  0  0  0  0  0  0
  186.5930  177.8670  145.0390 C   0  0  0  0  0  0  0  0  0  0  0  0
  184.0550  178.6630  145.8940 C   0  0  0  0  0  3  0  0  0  0  0  0
  185.9690  177.1860  146.0890 C   0  0  0  0  0  3  0  0  0  0  0  0
  191.3890  175.7290  143.3580 C   0  0  2  0  0  3  0  0  0  0  0  0
  191.6700  178.0640  143.7950 O   0  0  0  0  0  1  0  0  0  0  0  0
  191.0070  177.1520  142.9710 C   0  0  0  0  0  2  0  0  0  0  0  0
  190.4250  174.6720  142.8030 C   0  0  0  0  0  2  0  0  0  0  0  0
  188.6040  173.3330  140.0290 N   0  0  0  0  0  2  0  0  0  0  0  0
  190.2930  174.6730  141.2760 C   0  0  2  0  0  3  0  0  0  0  0  0
  188.8690  174.4680  140.8340 C   0  0  0  0  0  0  0  0  0  0  0  0
  191.1860  173.6040  140.6170 C   0  0  0  0  0  2  0  0  0  0  0  0
  190.4050  172.5070  138.2560 O   0  0  0  0  0  0  0  0  0  0  0  0
  190.0880  172.5290  139.7270 S   0  0  0  0  0  0  0  0  0  0  0  0
  187.9500  175.2700  141.1550 O   0  0  0  0  0  0  0  0  0  0  0  0
  190.0860  171.1380  140.3070 O   0  0  0  0  0  0  0  0  0  0  0  0
  1  8  1  0  0  0  0
  1  3  1  0  0  0  0
  3  6  1  0  0  0  0
  3  5  2  0  0  0  0
  4  2  1  0  0  0  0
  5  2  1  0  0  0  0
  6  4  2  0  0  0  0
  7  5  1  0  0  0  0
  8  7  2  0  0  0  0
  9  8  1  0  0  0  0
  9 10  1  0  0  0  0
 11  9  1  0  0  0  0
 11 10  1  0  0  0  0
 12 13  2  0  0  0  0
 13 14  1  0  0  0  0
 13  9  1  0  0  0  0
 14 15  1  0  0  0  0
 15 23  1  6  0  0  0
 16 20  1  6  0  0  0
 16 15  1  0  0  0  0
 16 19  1  0  0  0  0
 19 17  2  0  0  0  0
 19 18  1  0  0  0  0
 21 20  1  0  0  0  0
 22 21  1  0  0  0  0
 24 23  1  0  0  0  0
 25 26  2  0  0  0  0
 26 24  1  0  0  0  0
 27 26  2  0  0  0  0
 28  6  1  0  0  0  0
 29 28  1  0  0  0  0
 29 33  1  0  0  0  0
 30 31  2  0  0  0  0
 30 33  1  0  0  0  0
 31 34  1  0  0  0  0
 33 35  2  0  0  0  0
 34 32  2  0  0  0  0
 35 32  1  0  0  0  0
 36 39  1  1  0  0  0
 36  1  1  0  0  0  0
 38 36  1  0  0  0  0
 38 37  1  0  0  0  0
 40 42  1  0  0  0  0
 41 39  1  1  0  0  0
 42 46  2  0  0  0  0
 42 41  1  0  0  0  0
 43 41  1  0  0  0  0
 44 45  2  0  0  0  0
 45 40  1  0  0  0  0
 45 47  2  0  0  0  0
 45 43  1  0  0  0  0
M  END
>  <MODEL>
9

>  <REMARK>
 VINA RESULT:      -6.0      3.325      8.626
  Name = 
  18 active torsions:
  status: ('A' for Active; 'I' for Inactive)
    1  A    between atoms: C_2  and  N_3
    2  A    between atoms: C_2  and  C_38
    3  A    between atoms: C_2  and  C_42
    4  A    between atoms: C_4  and  C_42
    5  A    between atoms: C_6  and  C_32
    6  A    between atoms: C_6  and  N_37
    7  A    between atoms: C_13  and  O_33
    8  A    between atoms: O_14  and  C_17
    9  A    between atoms: O_14  and  C_44
   10  A    between atoms: C_17  and  C_23
   11  A    between atoms: O_19  and  P_22
   12  A    between atoms: O_19  and  C_34
   13  A    between atoms: C_23  and  C_35
   14  A    between atoms: C_26  and  N_37
   15  A    between atoms: C_27  and  C_45
   16  A    between atoms: O_33  and  C_45
   17  A    between atoms: C_34  and  C_44
   18  A    between atoms: C_44  and  C_45
                            x       y       z     vdW  Elec       q    Type
                         _______ _______ _______ _____ _____    ______ ____

>  <TORSDO>
F 18

$$$$
