=
 OpenBabel11062421253D

 31 35  0  0  1  0  0  0  0  0999 V2000
  191.0760  172.9030  143.5840 C   0  0  2  0  0  3  0  0  0  0  0  0
  192.2660  172.5280  144.3560 N   0  0  2  0  0  0  0  0  0  0  0  0
  193.9290  173.7330  145.3510 C   0  0  1  0  0  3  0  0  0  0  0  0
  191.6640  174.6790  144.9620 C   0  0  0  0  0  0  0  0  0  0  0  0
  192.6590  176.3060  146.5390 C   0  0  0  0  0  3  0  0  0  0  0  0
  190.7290  174.2170  144.0430 O   0  0  0  0  0  0  0  0  0  0  0  0
  194.5920  175.0730  145.5040 C   0  0  1  0  0  3  0  0  0  0  0  0
  192.6300  173.6250  145.1420 C   0  0  1  0  0  3  0  0  0  0  0  0
  189.9440  171.9430  143.8920 C   0  0  0  0  0  1  0  0  0  0  0  0
  191.6410  175.8810  145.5530 C   0  0  0  0  0  0  0  0  0  0  0  0
  193.4880  171.8880  143.8810 C   0  0  2  0  0  3  0  0  0  0  0  0
  193.9420  175.9270  146.5540 C   0  0  0  0  0  3  0  0  0  0  0  0
  194.6100  172.5420  144.7210 C   0  0  2  0  0  3  0  0  0  0  0  0
  195.9440  174.9210  145.8060 O   0  0  0  0  0  1  0  0  0  0  0  0
  193.4570  171.2610  141.5800 O   0  0  0  0  0  0  0  0  0  0  0  0
  194.2210  173.3800  142.0010 O   0  0  0  0  0  1  0  0  0  0  0  0
  193.7220  172.1540  142.4260 C   0  0  0  0  0  0  0  0  0  0  0  0
  196.4670  171.6310  145.9530 O   0  0  0  0  0  1  0  0  0  0  0  0
  195.0820  171.5570  145.7950 C   0  0  2  0  0  3  0  0  0  0  0  0
  194.7110  170.1360  145.4100 C   0  0  0  0  0  1  0  0  0  0  0  0
  190.5020  176.8080  145.2830 C   0  0  0  0  0  2  0  0  0  0  0  0
  188.9770  177.2760  147.0050 C   0  0  0  0  0  2  0  0  0  0  0  0
  187.1980  177.4220  145.4430 C   0  0  2  0  0  3  0  0  0  0  0  0
  188.2170  176.4010  144.9680 C   0  0  0  0  0  2  0  0  0  0  0  0
  189.2990  176.3260  145.9450 N   0  0  0  0  0  0  0  0  0  0  0  0
  187.5070  177.5930  146.9070 C   0  0  0  0  0  2  0  0  0  0  0  0
  184.4610  178.9300  143.9150 S   0  0  0  0  0  0  0  0  0  0  0  0
  184.8060  177.5550  146.2190 C   0  0  0  0  0  2  0  0  0  0  0  0
  185.2580  177.2940  143.8460 C   0  0  0  0  0  2  0  0  0  0  0  0
  185.7660  176.9220  145.2300 C   0  0  1  0  0  3  0  0  0  0  0  0
  184.4970  178.9550  145.7320 C   0  0  0  0  0  2  0  0  0  0  0  0
  1  9  1  1  0  0  0
  1  6  1  0  0  0  0
  1  2  1  0  0  0  0
  2  8  1  0  0  0  0
  3  7  1  0  0  0  0
  4  8  1  0  0  0  0
  4 10  2  0  0  0  0
  5 12  2  0  0  0  0
  6  4  1  0  0  0  0
  7 14  1  0  0  0  0
  7 12  1  0  0  0  0
  8  3  1  0  0  0  0
 10  5  1  0  0  0  0
 11  2  1  0  0  0  0
 11 13  1  0  0  0  0
 13  3  1  0  0  0  0
 13 19  1  0  0  0  0
 15 17  2  0  0  0  0
 16 17  1  0  0  0  0
 17 11  1  0  0  0  0
 19 18  1  0  0  0  0
 20 19  1  0  0  0  0
 21 10  1  0  0  0  0
 21 25  1  0  0  0  0
 23 26  1  0  0  0  0
 24 23  1  0  0  0  0
 24 25  1  0  0  0  0
 25 22  1  0  0  0  0
 26 22  1  0  0  0  0
 27 31  1  0  0  0  0
 29 27  1  0  0  0  0
 29 30  1  0  0  0  0
 30 23  1  0  0  0  0
 30 28  1  0  0  0  0
 31 28  1  0  0  0  0
M  END
>  <MODEL>
1

>  <REMARK>
 VINA RESULT:      -7.1      0.000      0.000
  Name = 
  5 active torsions:
  status: ('A' for Active; 'I' for Inactive)
    1  A    between atoms: C_6  and  C_19
    2  A    between atoms: C_16  and  C_30
    3  A    between atoms: N_21  and  C_24
    4  A    between atoms: C_22  and  C_24
    5  A    between atoms: C_25  and  C_26
                            x       y       z     vdW  Elec       q    Type
                         _______ _______ _______ _____ _____    ______ ____

>  <TORSDO>
F 5

$$$$
=
 OpenBabel11062421253D

 31 35  0  0  1  0  0  0  0  0999 V2000
  192.0450  172.8210  142.8580 C   0  0  2  0  0  3  0  0  0  0  0  0
  193.1400  172.8410  143.8350 N   0  0  2  0  0  0  0  0  0  0  0  0
  193.7560  174.3170  145.4620 C   0  0  1  0  0  3  0  0  0  0  0  0
  191.4090  174.1340  144.6670 C   0  0  0  0  0  0  0  0  0  0  0  0
  191.1670  175.4560  146.7440 C   0  0  0  0  0  3  0  0  0  0  0  0
  190.9930  173.5920  143.4560 O   0  0  0  0  0  0  0  0  0  0  0  0
  193.5740  175.6870  146.0520 C   0  0  1  0  0  3  0  0  0  0  0  0
  192.7560  173.6730  144.8900 C   0  0  1  0  0  3  0  0  0  0  0  0
  191.5730  171.3960  142.6500 C   0  0  0  0  0  1  0  0  0  0  0  0
  190.6720  174.9270  145.4550 C   0  0  0  0  0  0  0  0  0  0  0  0
  194.5630  173.0460  143.5940 C   0  0  2  0  0  3  0  0  0  0  0  0
  192.4390  175.7530  147.0330 C   0  0  0  0  0  3  0  0  0  0  0  0
  195.0430  173.8580  144.8190 C   0  0  2  0  0  3  0  0  0  0  0  0
  194.7460  176.1140  146.6740 O   0  0  0  0  0  1  0  0  0  0  0  0
  194.7880  175.0860  142.3770 O   0  0  0  0  0  1  0  0  0  0  0  0
  195.0540  173.1780  141.1360 O   0  0  0  0  0  0  0  0  0  0  0  0
  194.8050  173.8290  142.3390 C   0  0  0  0  0  0  0  0  0  0  0  0
  196.8820  173.6340  146.3570 O   0  0  0  0  0  1  0  0  0  0  0  0
  195.8250  172.9410  145.7640 C   0  0  2  0  0  3  0  0  0  0  0  0
  196.3860  171.7530  145.0040 C   0  0  0  0  0  1  0  0  0  0  0  0
  189.2590  175.2290  145.0740 C   0  0  0  0  0  2  0  0  0  0  0  0
  188.6580  176.5280  143.2140 C   0  0  0  0  0  2  0  0  0  0  0  0
  186.9600  177.6080  144.4690 C   0  0  2  0  0  3  0  0  0  0  0  0
  188.1240  177.2550  145.3770 C   0  0  0  0  0  2  0  0  0  0  0  0
  189.1570  176.5950  144.5840 N   0  0  0  0  0  0  0  0  0  0  0  0
  187.5420  177.5320  143.0820 C   0  0  0  0  0  2  0  0  0  0  0  0
  183.9610  178.6400  145.8980 S   0  0  0  0  0  0  0  0  0  0  0  0
  185.3900  179.4400  143.7450 C   0  0  0  0  0  2  0  0  0  0  0  0
  185.7210  179.0480  146.1190 C   0  0  0  0  0  2  0  0  0  0  0  0
  186.4220  179.0110  144.7710 C   0  0  1  0  0  3  0  0  0  0  0  0
  184.0840  178.7550  144.0880 C   0  0  0  0  0  2  0  0  0  0  0  0
  1  9  1  1  0  0  0
  1  6  1  0  0  0  0
  1  2  1  0  0  0  0
  2  8  1  0  0  0  0
  3  7  1  0  0  0  0
  4  8  1  0  0  0  0
  4 10  2  0  0  0  0
  5 12  2  0  0  0  0
  6  4  1  0  0  0  0
  7 14  1  0  0  0  0
  7 12  1  0  0  0  0
  8  3  1  0  0  0  0
 10  5  1  0  0  0  0
 11  2  1  0  0  0  0
 11 13  1  0  0  0  0
 13  3  1  0  0  0  0
 13 19  1  0  0  0  0
 16 17  2  0  0  0  0
 17 15  1  0  0  0  0
 17 11  1  0  0  0  0
 19 18  1  0  0  0  0
 20 19  1  0  0  0  0
 21 10  1  0  0  0  0
 22 25  1  0  0  0  0
 23 30  1  0  0  0  0
 23 24  1  0  0  0  0
 25 21  1  0  0  0  0
 25 24  1  0  0  0  0
 26 22  1  0  0  0  0
 26 23  1  0  0  0  0
 27 29  1  0  0  0  0
 28 31  1  0  0  0  0
 28 30  1  0  0  0  0
 30 29  1  0  0  0  0
 31 27  1  0  0  0  0
M  END
>  <MODEL>
2

>  <REMARK>
 VINA RESULT:      -7.0      1.517      2.042
  Name = 
  5 active torsions:
  status: ('A' for Active; 'I' for Inactive)
    1  A    between atoms: C_6  and  C_19
    2  A    between atoms: C_16  and  C_30
    3  A    between atoms: N_21  and  C_24
    4  A    between atoms: C_22  and  C_24
    5  A    between atoms: C_25  and  C_26
                            x       y       z     vdW  Elec       q    Type
                         _______ _______ _______ _____ _____    ______ ____

>  <TORSDO>
F 5

$$$$
=
 OpenBabel11062421253D

 31 35  0  0  1  0  0  0  0  0999 V2000
  194.4650  176.6000  145.6340 C   0  0  2  0  0  3  0  0  0  0  0  0
  194.8370  175.9560  144.3700 N   0  0  2  0  0  0  0  0  0  0  0  0
  193.6980  174.6520  142.8840 C   0  0  1  0  0  3  0  0  0  0  0  0
  192.5460  176.2840  144.3620 C   0  0  0  0  0  0  0  0  0  0  0  0
  190.7880  175.7260  142.7120 C   0  0  0  0  0  3  0  0  0  0  0  0
  193.0500  176.8210  145.5410 O   0  0  0  0  0  0  0  0  0  0  0  0
  192.4580  173.8480  142.6090 C   0  0  1  0  0  3  0  0  0  0  0  0
  193.6650  175.7320  143.6420 C   0  0  1  0  0  3  0  0  0  0  0  0
  195.1790  177.9310  145.7580 C   0  0  0  0  0  1  0  0  0  0  0  0
  191.2590  176.2990  143.9920 C   0  0  0  0  0  0  0  0  0  0  0  0
  195.7210  174.8140  144.1620 C   0  0  2  0  0  3  0  0  0  0  0  0
  191.3290  174.6810  142.0750 C   0  0  0  0  0  3  0  0  0  0  0  0
  195.0730  174.0390  142.9910 C   0  0  2  0  0  3  0  0  0  0  0  0
  192.7320  172.8150  141.7130 O   0  0  0  0  0  1  0  0  0  0  0  0
  196.7820  174.0130  146.1430 O   0  0  0  0  0  1  0  0  0  0  0  0
  194.7590  173.0490  145.6660 O   0  0  0  0  0  0  0  0  0  0  0  0
  195.7880  173.9380  145.3760 C   0  0  0  0  0  0  0  0  0  0  0  0
  195.9560  173.1170  140.9500 O   0  0  0  0  0  1  0  0  0  0  0  0
  195.8780  174.2840  141.7110 C   0  0  2  0  0  3  0  0  0  0  0  0
  197.2850  174.7410  142.0500 C   0  0  0  0  0  1  0  0  0  0  0  0
  190.2570  176.9920  144.8560 C   0  0  0  0  0  2  0  0  0  0  0  0
  188.9850  175.9600  146.5370 C   0  0  0  0  0  2  0  0  0  0  0  0
  187.0430  177.1280  145.8390 C   0  0  2  0  0  3  0  0  0  0  0  0
  187.9290  176.8430  144.6400 C   0  0  0  0  0  2  0  0  0  0  0  0
  189.1150  176.1220  145.0920 N   0  0  0  0  0  0  0  0  0  0  0  0
  187.5370  176.1750  146.8950 C   0  0  0  0  0  2  0  0  0  0  0  0
  184.6680  179.1780  144.3350 S   0  0  0  0  0  0  0  0  0  0  0  0
  184.6560  177.5730  146.5120 C   0  0  0  0  0  2  0  0  0  0  0  0
  185.2060  177.4480  144.1490 C   0  0  0  0  0  2  0  0  0  0  0  0
  185.5660  176.8820  145.5130 C   0  0  1  0  0  3  0  0  0  0  0  0
  184.5970  179.0410  146.1450 C   0  0  0  0  0  2  0  0  0  0  0  0
  1  9  1  6  0  0  0
  2  1  1  0  0  0  0
  3 13  1  0  0  0  0
  3  8  1  0  0  0  0
  4  6  1  0  0  0  0
  5 10  1  0  0  0  0
  6  1  1  0  0  0  0
  7  3  1  0  0  0  0
  8  4  1  0  0  0  0
  8  2  1  0  0  0  0
 10  4  2  0  0  0  0
 10 21  1  0  0  0  0
 11  2  1  0  0  0  0
 11 17  1  0  0  0  0
 12  7  1  0  0  0  0
 12  5  2  0  0  0  0
 13 11  1  0  0  0  0
 14  7  1  0  0  0  0
 17 16  2  0  0  0  0
 17 15  1  0  0  0  0
 18 19  1  0  0  0  0
 19 20  1  0  0  0  0
 19 13  1  0  0  0  0
 21 25  1  0  0  0  0
 22 26  1  0  0  0  0
 23 26  1  0  0  0  0
 24 25  1  0  0  0  0
 24 23  1  0  0  0  0
 25 22  1  0  0  0  0
 27 31  1  0  0  0  0
 29 27  1  0  0  0  0
 29 30  1  0  0  0  0
 30 23  1  0  0  0  0
 30 28  1  0  0  0  0
 31 28  1  0  0  0  0
M  END
>  <MODEL>
3

>  <REMARK>
 VINA RESULT:      -6.9      2.052      3.722
  Name = 
  5 active torsions:
  status: ('A' for Active; 'I' for Inactive)
    1  A    between atoms: C_6  and  C_19
    2  A    between atoms: C_16  and  C_30
    3  A    between atoms: N_21  and  C_24
    4  A    between atoms: C_22  and  C_24
    5  A    between atoms: C_25  and  C_26
                            x       y       z     vdW  Elec       q    Type
                         _______ _______ _______ _____ _____    ______ ____

>  <TORSDO>
F 5

$$$$
=
 OpenBabel11062421253D

 31 35  0  0  1  0  0  0  0  0999 V2000
  186.0280  177.1990  145.8530 C   0  0  2  0  0  3  0  0  0  0  0  0
  185.4760  177.2860  144.4960 N   0  0  2  0  0  0  0  0  0  0  0  0
  186.4230  177.2800  142.4200 C   0  0  1  0  0  3  0  0  0  0  0  0
  187.5210  176.2070  144.3750 C   0  0  0  0  0  0  0  0  0  0  0  0
  188.8150  175.2990  142.4710 C   0  0  0  0  0  3  0  0  0  0  0  0
  187.2600  176.4790  145.7130 O   0  0  0  0  0  0  0  0  0  0  0  0
  187.6890  177.3790  141.6150 C   0  0  1  0  0  3  0  0  0  0  0  0
  186.4100  176.7270  143.6190 C   0  0  1  0  0  3  0  0  0  0  0  0
  185.0810  176.4160  146.7400 C   0  0  0  0  0  1  0  0  0  0  0  0
  188.6060  175.5750  143.9090 C   0  0  0  0  0  0  0  0  0  0  0  0
  184.8720  178.4380  143.8370 C   0  0  2  0  0  3  0  0  0  0  0  0
  188.3830  176.0570  141.4570 C   0  0  0  0  0  3  0  0  0  0  0  0
  185.3250  178.3140  142.3630 C   0  0  2  0  0  3  0  0  0  0  0  0
  187.4280  177.9150  140.3540 O   0  0  0  0  0  1  0  0  0  0  0  0
  185.9400  180.5650  143.6690 O   0  0  0  0  0  0  0  0  0  0  0  0
  185.1920  180.0130  145.7640 O   0  0  0  0  0  1  0  0  0  0  0  0
  185.3670  179.7290  144.4150 C   0  0  0  0  0  0  0  0  0  0  0  0
  184.2630  178.2930  140.2030 O   0  0  0  0  0  1  0  0  0  0  0  0
  184.1550  177.8170  141.5100 C   0  0  2  0  0  3  0  0  0  0  0  0
  182.8360  178.2900  142.0940 C   0  0  0  0  0  1  0  0  0  0  0  0
  189.6150  175.0460  144.8740 C   0  0  0  0  0  2  0  0  0  0  0  0
  190.6920  176.1290  146.6570 C   0  0  0  0  0  2  0  0  0  0  0  0
  192.8080  175.4000  145.8740 C   0  0  2  0  0  3  0  0  0  0  0  0
  191.8770  175.6310  144.6970 C   0  0  0  0  0  2  0  0  0  0  0  0
  190.5830  176.0820  145.2030 N   0  0  0  0  0  0  0  0  0  0  0  0
  192.1570  176.1460  147.0080 C   0  0  0  0  0  2  0  0  0  0  0  0
  195.1640  174.4640  143.4920 S   0  0  0  0  0  0  0  0  0  0  0  0
  195.2830  175.0120  146.1370 C   0  0  0  0  0  2  0  0  0  0  0  0
  194.4670  176.0350  144.0910 C   0  0  0  0  0  2  0  0  0  0  0  0
  194.2140  175.9370  145.5870 C   0  0  1  0  0  3  0  0  0  0  0  0
  195.4230  173.8470  145.1810 C   0  0  0  0  0  2  0  0  0  0  0  0
  1  9  1  1  0  0  0
  2  1  1  0  0  0  0
  3  8  1  0  0  0  0
  4  6  1  0  0  0  0
  5 10  1  0  0  0  0
  6  1  1  0  0  0  0
  7  3  1  0  0  0  0
  8  4  1  0  0  0  0
  8  2  1  0  0  0  0
 10  4  2  0  0  0  0
 10 21  1  0  0  0  0
 11 17  1  0  0  0  0
 11  2  1  0  0  0  0
 12  7  1  0  0  0  0
 12  5  2  0  0  0  0
 13  3  1  0  0  0  0
 13 11  1  0  0  0  0
 14  7  1  0  0  0  0
 15 17  2  0  0  0  0
 17 16  1  0  0  0  0
 18 19  1  0  0  0  0
 19 20  1  0  0  0  0
 19 13  1  0  0  0  0
 21 25  1  0  0  0  0
 22 26  1  0  0  0  0
 23 26  1  0  0  0  0
 24 25  1  0  0  0  0
 24 23  1  0  0  0  0
 25 22  1  0  0  0  0
 27 29  1  0  0  0  0
 27 31  1  0  0  0  0
 29 30  1  0  0  0  0
 30 23  1  0  0  0  0
 30 28  1  0  0  0  0
 31 28  1  0  0  0  0
M  END
>  <MODEL>
4

>  <REMARK>
 VINA RESULT:      -6.9      4.417      9.052
  Name = 
  5 active torsions:
  status: ('A' for Active; 'I' for Inactive)
    1  A    between atoms: C_6  and  C_19
    2  A    between atoms: C_16  and  C_30
    3  A    between atoms: N_21  and  C_24
    4  A    between atoms: C_22  and  C_24
    5  A    between atoms: C_25  and  C_26
                            x       y       z     vdW  Elec       q    Type
                         _______ _______ _______ _____ _____    ______ ____

>  <TORSDO>
F 5

$$$$
=
 OpenBabel11062421253D

 31 35  0  0  1  0  0  0  0  0999 V2000
  191.3330  174.9150  141.9750 C   0  0  2  0  0  3  0  0  0  0  0  0
  192.4600  174.1760  142.5560 N   0  0  2  0  0  0  0  0  0  0  0  0
  193.8790  174.6000  144.2910 C   0  0  1  0  0  3  0  0  0  0  0  0
  191.5930  175.5670  144.1900 C   0  0  0  0  0  0  0  0  0  0  0  0
  192.2460  175.9870  146.5400 C   0  0  0  0  0  3  0  0  0  0  0  0
  190.8130  175.7130  143.0480 O   0  0  0  0  0  0  0  0  0  0  0  0
  194.3910  175.6100  145.2800 C   0  0  1  0  0  3  0  0  0  0  0  0
  192.6280  174.6170  143.8710 C   0  0  1  0  0  3  0  0  0  0  0  0
  190.2700  173.9400  141.5070 C   0  0  0  0  0  1  0  0  0  0  0  0
  191.3900  176.2000  145.3530 C   0  0  0  0  0  0  0  0  0  0  0  0
  193.7820  173.9470  141.9840 C   0  0  2  0  0  3  0  0  0  0  0  0
  193.5500  175.6860  146.5210 C   0  0  0  0  0  3  0  0  0  0  0  0
  194.7370  174.0050  143.1990 C   0  0  2  0  0  3  0  0  0  0  0  0
  195.7090  175.3270  145.6330 O   0  0  0  0  0  1  0  0  0  0  0  0
  194.0680  174.7740  139.7650 O   0  0  0  0  0  0  0  0  0  0  0  0
  194.5740  176.2640  141.4310 O   0  0  0  0  0  1  0  0  0  0  0  0
  194.1500  175.0130  140.9970 C   0  0  0  0  0  0  0  0  0  0  0  0
  196.5060  172.5810  143.9970 O   0  0  0  0  0  1  0  0  0  0  0  0
  195.1770  172.5860  143.5690 C   0  0  2  0  0  3  0  0  0  0  0  0
  195.0480  171.6620  142.3710 C   0  0  0  0  0  1  0  0  0  0  0  0
  190.2050  177.0980  145.5010 C   0  0  0  0  0  2  0  0  0  0  0  0
  188.5280  176.4010  146.9880 C   0  0  0  0  0  2  0  0  0  0  0  0
  186.8660  177.4670  145.6740 C   0  0  2  0  0  3  0  0  0  0  0  0
  187.9810  176.9590  144.7780 C   0  0  0  0  0  2  0  0  0  0  0  0
  188.9890  176.3050  145.6070 N   0  0  0  0  0  0  0  0  0  0  0  0
  187.0520  176.7040  146.9590 C   0  0  0  0  0  2  0  0  0  0  0  0
  185.3490  178.7600  142.8230 S   0  0  0  0  0  0  0  0  0  0  0  0
  184.5180  178.3240  145.3600 C   0  0  0  0  0  2  0  0  0  0  0  0
  185.5750  177.1030  143.5450 C   0  0  0  0  0  2  0  0  0  0  0  0
  185.4880  177.1970  145.0600 C   0  0  1  0  0  3  0  0  0  0  0  0
  184.8280  179.4650  144.4150 C   0  0  0  0  0  2  0  0  0  0  0  0
  1  9  1  1  0  0  0
  1  2  1  0  0  0  0
  1  6  1  0  0  0  0
  2  8  1  0  0  0  0
  3  7  1  0  0  0  0
  4 10  2  0  0  0  0
  6  4  1  0  0  0  0
  7 14  1  0  0  0  0
  7 12  1  0  0  0  0
  8  4  1  0  0  0  0
  8  3  1  0  0  0  0
 10 21  1  0  0  0  0
 10  5  1  0  0  0  0
 11  2  1  0  0  0  0
 11 13  1  0  0  0  0
 12  5  2  0  0  0  0
 13 19  1  0  0  0  0
 13  3  1  0  0  0  0
 15 17  2  0  0  0  0
 17 16  1  0  0  0  0
 17 11  1  0  0  0  0
 19 18  1  0  0  0  0
 20 19  1  0  0  0  0
 21 25  1  0  0  0  0
 23 26  1  0  0  0  0
 24 25  1  0  0  0  0
 24 23  1  0  0  0  0
 25 22  1  0  0  0  0
 26 22  1  0  0  0  0
 27 29  1  0  0  0  0
 27 31  1  0  0  0  0
 29 30  1  0  0  0  0
 30 28  1  0  0  0  0
 30 23  1  0  0  0  0
 31 28  1  0  0  0  0
M  END
>  <MODEL>
5

>  <REMARK>
 VINA RESULT:      -6.8      1.698      1.899
  Name = 
  5 active torsions:
  status: ('A' for Active; 'I' for Inactive)
    1  A    between atoms: C_6  and  C_19
    2  A    between atoms: C_16  and  C_30
    3  A    between atoms: N_21  and  C_24
    4  A    between atoms: C_22  and  C_24
    5  A    between atoms: C_25  and  C_26
                            x       y       z     vdW  Elec       q    Type
                         _______ _______ _______ _____ _____    ______ ____

>  <TORSDO>
F 5

$$$$
=
 OpenBabel11062421253D

 31 35  0  0  1  0  0  0  0  0999 V2000
  189.7930  174.8350  144.8440 C   0  0  2  0  0  3  0  0  0  0  0  0
  188.5750  175.6170  145.0820 N   0  0  2  0  0  0  0  0  0  0  0  0
  187.3820  177.0810  143.8020 C   0  0  1  0  0  3  0  0  0  0  0  0
  188.7880  175.2940  142.8000 C   0  0  0  0  0  0  0  0  0  0  0  0
  187.4190  176.0360  140.8770 C   0  0  0  0  0  3  0  0  0  0  0  0
  189.8350  174.6270  143.4260 O   0  0  0  0  0  0  0  0  0  0  0  0
  187.3400  177.9120  142.5500 C   0  0  1  0  0  3  0  0  0  0  0  0
  188.0130  175.9220  143.8390 C   0  0  1  0  0  3  0  0  0  0  0  0
  189.6860  173.4970  145.5490 C   0  0  0  0  0  1  0  0  0  0  0  0
  188.5660  175.3220  141.4800 C   0  0  0  0  0  0  0  0  0  0  0  0
  188.3980  176.7740  145.9530 C   0  0  2  0  0  3  0  0  0  0  0  0
  186.8460  177.1450  141.3580 C   0  0  0  0  0  3  0  0  0  0  0  0
  187.4010  177.6770  145.1890 C   0  0  2  0  0  3  0  0  0  0  0  0
  186.5400  179.0390  142.7360 O   0  0  0  0  0  1  0  0  0  0  0  0
  190.2020  177.5400  147.3140 O   0  0  0  0  0  1  0  0  0  0  0  0
  190.3230  178.1460  145.1070 O   0  0  0  0  0  0  0  0  0  0  0  0
  189.6870  177.5070  146.1660 C   0  0  0  0  0  0  0  0  0  0  0  0
  185.3950  178.8240  145.8610 O   0  0  0  0  0  1  0  0  0  0  0  0
  186.0200  177.5770  145.8420 C   0  0  2  0  0  3  0  0  0  0  0  0
  186.1440  177.0720  147.2680 C   0  0  0  0  0  1  0  0  0  0  0  0
  189.4530  174.5360  140.5710 C   0  0  0  0  0  2  0  0  0  0  0  0
  188.6240  173.9290  138.4600 C   0  0  0  0  0  2  0  0  0  0  0  0
  189.8630  171.9080  138.5120 C   0  0  2  0  0  3  0  0  0  0  0  0
  189.4390  172.2860  139.9200 C   0  0  0  0  0  2  0  0  0  0  0  0
  188.6760  173.5300  139.8630 N   0  0  0  0  0  0  0  0  0  0  0  0
  188.9560  172.7190  137.6260 C   0  0  0  0  0  2  0  0  0  0  0  0
  192.2120  169.3550  138.2480 S   0  0  0  0  0  0  0  0  0  0  0  0
  190.0170  170.0430  136.8260 C   0  0  0  0  0  2  0  0  0  0  0  0
  190.6380  169.5950  139.1310 C   0  0  0  0  0  2  0  0  0  0  0  0
  189.6900  170.4060  138.2620 C   0  0  1  0  0  3  0  0  0  0  0  0
  191.5240  169.9940  136.6920 C   0  0  0  0  0  2  0  0  0  0  0  0
  1  2  1  0  0  0  0
  1  9  1  1  0  0  0
  2 11  1  0  0  0  0
  3  8  1  0  0  0  0
  3 13  1  0  0  0  0
  4  6  1  0  0  0  0
  4  8  1  0  0  0  0
  5 12  2  0  0  0  0
  5 10  1  0  0  0  0
  6  1  1  0  0  0  0
  7 14  1  0  0  0  0
  7  3  1  0  0  0  0
  8  2  1  0  0  0  0
 10  4  2  0  0  0  0
 11 17  1  0  0  0  0
 12  7  1  0  0  0  0
 13 19  1  0  0  0  0
 13 11  1  0  0  0  0
 16 17  2  0  0  0  0
 17 15  1  0  0  0  0
 19 18  1  0  0  0  0
 19 20  1  0  0  0  0
 21 10  1  0  0  0  0
 22 25  1  0  0  0  0
 23 24  1  0  0  0  0
 25 24  1  0  0  0  0
 25 21  1  0  0  0  0
 26 22  1  0  0  0  0
 26 23  1  0  0  0  0
 27 29  1  0  0  0  0
 28 30  1  0  0  0  0
 30 23  1  0  0  0  0
 30 29  1  0  0  0  0
 31 28  1  0  0  0  0
 31 27  1  0  0  0  0
M  END
>  <MODEL>
6

>  <REMARK>
 VINA RESULT:      -6.6      4.782      8.812
  Name = 
  5 active torsions:
  status: ('A' for Active; 'I' for Inactive)
    1  A    between atoms: C_6  and  C_19
    2  A    between atoms: C_16  and  C_30
    3  A    between atoms: N_21  and  C_24
    4  A    between atoms: C_22  and  C_24
    5  A    between atoms: C_25  and  C_26
                            x       y       z     vdW  Elec       q    Type
                         _______ _______ _______ _____ _____    ______ ____

>  <TORSDO>
F 5

$$$$
=
 OpenBabel11062421253D

 31 35  0  0  1  0  0  0  0  0999 V2000
  193.9830  175.8340  146.1520 C   0  0  2  0  0  3  0  0  0  0  0  0
  194.8750  175.7910  144.9870 N   0  0  2  0  0  0  0  0  0  0  0  0
  194.6850  174.8760  142.9060 C   0  0  1  0  0  3  0  0  0  0  0  0
  192.6980  175.5510  144.2370 C   0  0  0  0  0  0  0  0  0  0  0  0
  191.7400  175.2220  141.9790 C   0  0  0  0  0  3  0  0  0  0  0  0
  192.6570  175.7330  145.6140 O   0  0  0  0  0  0  0  0  0  0  0  0
  193.9130  173.9550  142.0020 C   0  0  1  0  0  3  0  0  0  0  0  0
  194.0870  175.5730  143.8530 C   0  0  1  0  0  3  0  0  0  0  0  0
  194.1410  177.1610  146.8670 C   0  0  0  0  0  1  0  0  0  0  0  0
  191.6300  175.3930  143.4440 C   0  0  0  0  0  0  0  0  0  0  0  0
  196.1150  175.0420  144.8240 C   0  0  2  0  0  3  0  0  0  0  0  0
  192.7530  174.6330  141.3320 C   0  0  0  0  0  3  0  0  0  0  0  0
  196.1060  174.6080  143.3400 C   0  0  2  0  0  3  0  0  0  0  0  0
  194.7490  173.4060  141.0300 O   0  0  0  0  0  1  0  0  0  0  0  0
  197.0710  173.7090  146.5570 O   0  0  0  0  0  1  0  0  0  0  0  0
  195.1740  172.8490  145.6020 O   0  0  0  0  0  0  0  0  0  0  0  0
  196.1510  173.8320  145.7070 C   0  0  0  0  0  0  0  0  0  0  0  0
  196.4010  176.4100  141.7710 O   0  0  0  0  0  1  0  0  0  0  0  0
  197.0880  175.4760  142.5480 C   0  0  2  0  0  3  0  0  0  0  0  0
  197.9390  174.6140  141.6350 C   0  0  0  0  0  1  0  0  0  0  0  0
  190.2610  175.4750  144.0350 C   0  0  0  0  0  2  0  0  0  0  0  0
  188.8250  176.8900  142.8310 C   0  0  0  0  0  2  0  0  0  0  0  0
  187.5330  177.2980  144.7770 C   0  0  2  0  0  3  0  0  0  0  0  0
  188.9860  177.0860  145.1610 C   0  0  0  0  0  2  0  0  0  0  0  0
  189.7620  176.8400  143.9490 N   0  0  0  0  0  0  0  0  0  0  0  0
  187.5840  177.6020  143.3030 C   0  0  0  0  0  2  0  0  0  0  0  0
  184.5160  177.5270  146.4950 S   0  0  0  0  0  0  0  0  0  0  0  0
  185.8210  179.1460  144.7650 C   0  0  0  0  0  2  0  0  0  0  0  0
  186.2510  177.9580  146.8390 C   0  0  0  0  0  2  0  0  0  0  0  0
  186.9100  178.4560  145.5640 C   0  0  1  0  0  3  0  0  0  0  0  0
  184.5760  178.2890  144.8460 C   0  0  0  0  0  2  0  0  0  0  0  0
  1  9  1  6  0  0  0
  2  1  1  0  0  0  0
  3 13  1  0  0  0  0
  3  8  1  0  0  0  0
  4  6  1  0  0  0  0
  5 10  1  0  0  0  0
  6  1  1  0  0  0  0
  7  3  1  0  0  0  0
  8  4  1  0  0  0  0
  8  2  1  0  0  0  0
 10 21  1  0  0  0  0
 10  4  2  0  0  0  0
 11  2  1  0  0  0  0
 11 17  1  0  0  0  0
 12  5  2  0  0  0  0
 12  7  1  0  0  0  0
 13 11  1  0  0  0  0
 14  7  1  0  0  0  0
 16 17  2  0  0  0  0
 17 15  1  0  0  0  0
 18 19  1  0  0  0  0
 19 13  1  0  0  0  0
 20 19  1  0  0  0  0
 22 26  1  0  0  0  0
 22 25  1  0  0  0  0
 23 24  1  0  0  0  0
 23 30  1  0  0  0  0
 25 21  1  0  0  0  0
 25 24  1  0  0  0  0
 26 23  1  0  0  0  0
 27 29  1  0  0  0  0
 28 31  1  0  0  0  0
 28 30  1  0  0  0  0
 30 29  1  0  0  0  0
 31 27  1  0  0  0  0
M  END
>  <MODEL>
7

>  <REMARK>
 VINA RESULT:      -6.5      2.367      4.049
  Name = 
  5 active torsions:
  status: ('A' for Active; 'I' for Inactive)
    1  A    between atoms: C_6  and  C_19
    2  A    between atoms: C_16  and  C_30
    3  A    between atoms: N_21  and  C_24
    4  A    between atoms: C_22  and  C_24
    5  A    between atoms: C_25  and  C_26
                            x       y       z     vdW  Elec       q    Type
                         _______ _______ _______ _____ _____    ______ ____

>  <TORSDO>
F 5

$$$$
=
 OpenBabel11062421253D

 31 35  0  0  1  0  0  0  0  0999 V2000
  188.7710  175.9240  147.0880 C   0  0  2  0  0  3  0  0  0  0  0  0
  188.0900  175.9840  145.7900 N   0  0  2  0  0  0  0  0  0  0  0  0
  188.5520  177.0560  143.8300 C   0  0  1  0  0  3  0  0  0  0  0  0
  190.3340  176.4350  145.4470 C   0  0  0  0  0  0  0  0  0  0  0  0
  191.6300  176.9930  143.4130 C   0  0  0  0  0  3  0  0  0  0  0  0
  190.1560  176.1590  146.7980 O   0  0  0  0  0  0  0  0  0  0  0  0
  189.3850  178.0930  143.1290 C   0  0  1  0  0  3  0  0  0  0  0  0
  189.0370  176.3390  144.8260 C   0  0  1  0  0  3  0  0  0  0  0  0
  188.6060  174.5420  147.6880 C   0  0  0  0  0  1  0  0  0  0  0  0
  191.5040  176.7270  144.8630 C   0  0  0  0  0  0  0  0  0  0  0  0
  186.8360  176.6500  145.4560 C   0  0  2  0  0  3  0  0  0  0  0  0
  190.6950  177.5500  142.6350 C   0  0  0  0  0  3  0  0  0  0  0  0
  187.0610  177.1880  144.0240 C   0  0  2  0  0  3  0  0  0  0  0  0
  188.6830  178.6470  142.0600 O   0  0  0  0  0  1  0  0  0  0  0  0
  186.5030  178.9630  145.9390 O   0  0  0  0  0  0  0  0  0  0  0  0
  186.3270  177.5570  147.7410 O   0  0  0  0  0  1  0  0  0  0  0  0
  186.5490  177.7880  146.3880 C   0  0  0  0  0  0  0  0  0  0  0  0
  187.1890  175.4830  142.3290 O   0  0  0  0  0  1  0  0  0  0  0  0
  186.3040  176.3090  143.0250 C   0  0  2  0  0  3  0  0  0  0  0  0
  185.5520  177.1690  142.0250 C   0  0  0  0  0  1  0  0  0  0  0  0
  192.7550  176.7030  145.6780 C   0  0  0  0  0  2  0  0  0  0  0  0
  195.0560  176.2400  145.7150 C   0  0  0  0  0  2  0  0  0  0  0  0
  194.6380  173.9370  145.3360 C   0  0  2  0  0  3  0  0  0  0  0  0
  193.5790  174.7720  144.6390 C   0  0  0  0  0  2  0  0  0  0  0  0
  193.8580  176.1850  144.8830 N   0  0  0  0  0  0  0  0  0  0  0  0
  195.7550  174.9100  145.6030 C   0  0  0  0  0  2  0  0  0  0  0  0
  193.0890  170.9370  144.4950 S   0  0  0  0  0  0  0  0  0  0  0  0
  195.5890  171.6050  145.2820 C   0  0  0  0  0  2  0  0  0  0  0  0
  193.9690  172.2510  143.5920 C   0  0  0  0  0  2  0  0  0  0  0  0
  195.1070  172.7780  144.4500 C   0  0  1  0  0  3  0  0  0  0  0  0
  194.3700  170.8610  145.7820 C   0  0  0  0  0  2  0  0  0  0  0  0
  1  9  1  6  0  0  0
  2  1  1  0  0  0  0
  3 13  1  0  0  0  0
  3  8  1  0  0  0  0
  4  6  1  0  0  0  0
  5 10  1  0  0  0  0
  6  1  1  0  0  0  0
  7  3  1  0  0  0  0
  8  4  1  0  0  0  0
  8  2  1  0  0  0  0
 10  4  2  0  0  0  0
 10 21  1  0  0  0  0
 11  2  1  0  0  0  0
 11 17  1  0  0  0  0
 12  7  1  0  0  0  0
 12  5  2  0  0  0  0
 13 11  1  0  0  0  0
 14  7  1  0  0  0  0
 15 17  2  0  0  0  0
 17 16  1  0  0  0  0
 18 19  1  0  0  0  0
 19 13  1  0  0  0  0
 20 19  1  0  0  0  0
 23 26  1  0  0  0  0
 24 25  1  0  0  0  0
 24 23  1  0  0  0  0
 25 21  1  0  0  0  0
 25 22  1  0  0  0  0
 26 22  1  0  0  0  0
 27 31  1  0  0  0  0
 28 31  1  0  0  0  0
 29 30  1  0  0  0  0
 29 27  1  0  0  0  0
 30 28  1  0  0  0  0
 30 23  1  0  0  0  0
M  END
>  <MODEL>
8

>  <REMARK>
 VINA RESULT:      -6.3      3.720      8.192
  Name = 
  5 active torsions:
  status: ('A' for Active; 'I' for Inactive)
    1  A    between atoms: C_6  and  C_19
    2  A    between atoms: C_16  and  C_30
    3  A    between atoms: N_21  and  C_24
    4  A    between atoms: C_22  and  C_24
    5  A    between atoms: C_25  and  C_26
                            x       y       z     vdW  Elec       q    Type
                         _______ _______ _______ _____ _____    ______ ____

>  <TORSDO>
F 5

$$$$
=
 OpenBabel11062421253D

 31 35  0  0  1  0  0  0  0  0999 V2000
  190.1460  172.6250  143.2250 C   0  0  2  0  0  3  0  0  0  0  0  0
  191.4410  173.0380  143.7770 N   0  0  2  0  0  0  0  0  0  0  0  0
  192.7900  174.8420  143.4160 C   0  0  1  0  0  3  0  0  0  0  0  0
  190.3360  174.9330  143.0370 C   0  0  0  0  0  0  0  0  0  0  0  0
  190.9700  177.3250  143.0010 C   0  0  0  0  0  3  0  0  0  0  0  0
  189.4960  173.8430  142.8360 O   0  0  0  0  0  0  0  0  0  0  0  0
  193.0860  176.0400  142.5560 C   0  0  1  0  0  3  0  0  0  0  0  0
  191.5550  174.4220  143.6110 C   0  0  1  0  0  3  0  0  0  0  0  0
  189.3290  171.9360  144.3010 C   0  0  0  0  0  1  0  0  0  0  0  0
  190.0370  176.2060  142.7450 C   0  0  0  0  0  0  0  0  0  0  0  0
  192.7540  172.4470  143.5450 C   0  0  2  0  0  3  0  0  0  0  0  0
  192.3060  177.2560  142.9640 C   0  0  0  0  0  3  0  0  0  0  0  0
  193.7180  173.6560  143.5270 C   0  0  2  0  0  3  0  0  0  0  0  0
  194.4480  176.3370  142.5810 O   0  0  0  0  0  1  0  0  0  0  0  0
  192.5360  170.5040  142.1780 O   0  0  0  0  0  1  0  0  0  0  0  0
  193.1630  172.4090  141.0690 O   0  0  0  0  0  0  0  0  0  0  0  0
  192.8130  171.7300  142.2310 C   0  0  0  0  0  0  0  0  0  0  0  0
  195.7340  174.3310  144.6560 O   0  0  0  0  0  1  0  0  0  0  0  0
  194.5020  173.7020  144.8420 C   0  0  2  0  0  3  0  0  0  0  0  0
  194.7460  172.2970  145.3620 C   0  0  0  0  0  1  0  0  0  0  0  0
  188.6790  176.5370  142.2190 C   0  0  0  0  0  2  0  0  0  0  0  0
  187.1350  178.2700  141.8670 C   0  0  0  0  0  2  0  0  0  0  0  0
  186.3030  178.0300  144.0750 C   0  0  2  0  0  3  0  0  0  0  0  0
  187.7850  177.7000  144.0460 C   0  0  0  0  0  2  0  0  0  0  0  0
  188.2750  177.8570  142.6790 N   0  0  0  0  0  0  0  0  0  0  0  0
  186.0730  178.7940  142.7990 C   0  0  0  0  0  2  0  0  0  0  0  0
  185.9970  177.1580  147.4290 S   0  0  0  0  0  0  0  0  0  0  0  0
  184.5060  178.6430  145.7300 C   0  0  0  0  0  2  0  0  0  0  0  0
  186.8060  178.4960  146.4960 C   0  0  0  0  0  2  0  0  0  0  0  0
  185.9430  178.8730  145.3030 C   0  0  1  0  0  3  0  0  0  0  0  0
  184.4530  177.3340  146.4880 C   0  0  0  0  0  2  0  0  0  0  0  0
  1  2  1  0  0  0  0
  1  9  1  1  0  0  0
  3 13  1  0  0  0  0
  3  8  1  0  0  0  0
  4  8  1  0  0  0  0
  6  4  1  0  0  0  0
  6  1  1  0  0  0  0
  7 14  1  0  0  0  0
  7 12  1  0  0  0  0
  7  3  1  0  0  0  0
  8  2  1  0  0  0  0
 10  5  1  0  0  0  0
 10  4  2  0  0  0  0
 11  2  1  0  0  0  0
 12  5  2  0  0  0  0
 13 11  1  0  0  0  0
 13 19  1  0  0  0  0
 15 17  1  0  0  0  0
 16 17  2  0  0  0  0
 17 11  1  0  0  0  0
 18 19  1  0  0  0  0
 19 20  1  0  0  0  0
 21 25  1  0  0  0  0
 21 10  1  0  0  0  0
 22 25  1  0  0  0  0
 22 26  1  0  0  0  0
 23 30  1  0  0  0  0
 24 23  1  0  0  0  0
 25 24  1  0  0  0  0
 26 23  1  0  0  0  0
 28 31  1  0  0  0  0
 29 27  1  0  0  0  0
 30 28  1  0  0  0  0
 30 29  1  0  0  0  0
 31 27  1  0  0  0  0
M  END
>  <MODEL>
9

>  <REMARK>
 VINA RESULT:      -6.3      2.037      2.806
  Name = 
  5 active torsions:
  status: ('A' for Active; 'I' for Inactive)
    1  A    between atoms: C_6  and  C_19
    2  A    between atoms: C_16  and  C_30
    3  A    between atoms: N_21  and  C_24
    4  A    between atoms: C_22  and  C_24
    5  A    between atoms: C_25  and  C_26
                            x       y       z     vdW  Elec       q    Type
                         _______ _______ _______ _____ _____    ______ ____

>  <TORSDO>
F 5

$$$$
