=
 OpenBabel11062419533D

 30 32  0  0  1  0  0  0  0  0999 V2000
  188.4100  178.2850  142.0950 C   0  0  0  0  0  3  0  0  0  0  0  0
  187.3550  177.7480  142.8340 C   0  0  0  0  0  0  0  0  0  0  0  0
  189.9960  176.8260  143.1990 C   0  0  0  0  0  0  0  0  0  0  0  0
  187.6240  176.7610  143.8170 C   0  0  0  0  0  0  0  0  0  0  0  0
  188.9490  176.2770  143.9730 C   0  0  0  0  0  0  0  0  0  0  0  0
  189.2500  175.2100  144.9810 C   0  0  0  0  0  1  0  0  0  0  0  0
  189.7130  177.8380  142.2800 C   0  0  0  0  0  3  0  0  0  0  0  0
  193.8210  175.6270  145.2610 C   0  0  2  0  0  3  0  0  0  0  0  0
  193.2270  174.7620  142.9520 C   0  0  0  0  0  2  0  0  0  0  0  0
  192.6520  176.5950  145.3950 C   0  0  0  0  0  2  0  0  0  0  0  0
  193.4630  174.3940  144.4140 C   0  0  1  0  0  3  0  0  0  0  0  0
  192.2980  177.2300  144.0600 C   0  0  0  0  0  2  0  0  0  0  0  0
  191.7650  175.1210  142.7030 C   0  0  0  0  0  2  0  0  0  0  0  0
  191.3540  176.3780  143.3400 N   0  0  0  0  0  0  0  0  0  0  0  0
  194.2150  175.2340  146.5420 O   0  0  0  0  0  1  0  0  0  0  0  0
  194.5070  173.3070  144.5090 C   0  0  0  0  0  3  0  0  0  0  0  0
  192.8900  171.4060  144.3830 C   0  0  0  0  0  1  0  0  0  0  0  0
  194.2620  171.9880  144.4970 C   0  0  0  0  0  3  0  0  0  0  0  0
  185.9790  178.2590  142.4960 C   0  0  1  0  0  3  0  0  0  0  0  0
  185.6790  179.4770  143.1150 O   0  0  0  0  0  1  0  0  0  0  0  0
  185.6520  178.2550  141.0010 C   0  0  0  0  0  2  0  0  0  0  0  0
  184.1630  178.2340  140.7030 C   0  0  0  0  0  2  0  0  0  0  0  0
  183.4540  177.8660  141.8320 F   0  0  0  0  0  0  0  0  0  0  0  0
  186.5030  176.2110  144.6650 C   0  0  0  0  0  2  0  0  0  0  0  0
  184.4000  178.4030  146.9310 C   0  0  0  0  0  3  0  0  0  0  0  0
  184.7870  177.5440  145.8970 C   0  0  0  0  0  3  0  0  0  0  0  0
  185.3410  178.8390  147.8680 C   0  0  0  0  0  3  0  0  0  0  0  0
  186.1140  177.1130  145.8000 C   0  0  0  0  0  0  0  0  0  0  0  0
  186.6710  178.4200  147.7700 C   0  0  0  0  0  3  0  0  0  0  0  0
  187.0580  177.5610  146.7370 C   0  0  0  0  0  3  0  0  0  0  0  0
  1  7  2  0  0  0  0
  1  2  1  0  0  0  0
  2  4  2  0  0  0  0
  3 14  1  0  0  0  0
  3  5  2  0  0  0  0
  4  5  1  0  0  0  0
  4 24  1  0  0  0  0
  5  6  1  0  0  0  0
  7  3  1  0  0  0  0
  8 10  1  0  0  0  0
  8 15  1  1  0  0  0
  9 11  1  0  0  0  0
 11 16  1  6  0  0  0
 11  8  1  0  0  0  0
 12 10  1  0  0  0  0
 13  9  1  0  0  0  0
 13 14  1  0  0  0  0
 14 12  1  0  0  0  0
 17 18  1  0  0  0  0
 18 16  2  0  0  0  0
 19  2  1  0  0  0  0
 19 20  1  6  0  0  0
 21 19  1  0  0  0  0
 22 21  1  0  0  0  0
 22 23  1  0  0  0  0
 24 28  1  0  0  0  0
 25 27  1  0  0  0  0
 26 25  2  0  0  0  0
 28 26  1  0  0  0  0
 28 30  2  0  0  0  0
 29 27  2  0  0  0  0
 30 29  1  0  0  0  0
M  END
>  <MODEL>
1

>  <REMARK>
 VINA RESULT:      -7.0      0.000      0.000
  Name = 
  7 active torsions:
  status: ('A' for Active; 'I' for Inactive)
    1  A    between atoms: C_1  and  C_25
    2  A    between atoms: C_3  and  C_17
    3  A    between atoms: C_4  and  C_16
    4  A    between atoms: C_4  and  C_17
    5  A    between atoms: C_12  and  C_14
    6  A    between atoms: C_14  and  C_21
    7  A    between atoms: C_20  and  N_29
                            x       y       z     vdW  Elec       q    Type
                         _______ _______ _______ _____ _____    ______ ____

>  <TORSDO>
F 7

$$$$
=
 OpenBabel11062419533D

 30 32  0  0  1  0  0  0  0  0999 V2000
  189.8680  173.6010  145.3240 C   0  0  0  0  0  3  0  0  0  0  0  0
  189.5550  174.9080  145.7000 C   0  0  0  0  0  0  0  0  0  0  0  0
  189.6940  174.1800  142.9790 C   0  0  0  0  0  0  0  0  0  0  0  0
  189.2540  175.8680  144.7010 C   0  0  0  0  0  0  0  0  0  0  0  0
  189.3590  175.5060  143.3330 C   0  0  0  0  0  0  0  0  0  0  0  0
  189.0790  176.5140  142.2610 C   0  0  0  0  0  1  0  0  0  0  0  0
  189.9280  173.2380  143.9830 C   0  0  0  0  0  3  0  0  0  0  0  0
  191.4510  172.2800  139.2880 C   0  0  2  0  0  3  0  0  0  0  0  0
  188.9490  172.5980  139.5570 C   0  0  0  0  0  2  0  0  0  0  0  0
  191.8620  173.0260  140.5510 C   0  0  0  0  0  2  0  0  0  0  0  0
  190.0860  171.5870  139.4380 C   0  0  1  0  0  3  0  0  0  0  0  0
  190.9450  174.2070  140.8250 C   0  0  0  0  0  2  0  0  0  0  0  0
  188.7020  172.9800  141.0140 C   0  0  0  0  0  2  0  0  0  0  0  0
  189.7910  173.7670  141.6060 N   0  0  0  0  0  0  0  0  0  0  0  0
  192.4400  171.3410  138.9910 O   0  0  0  0  0  1  0  0  0  0  0  0
  189.8030  170.6240  138.3100 C   0  0  0  0  0  3  0  0  0  0  0  0
  190.4920  168.5740  139.5650 C   0  0  0  0  0  1  0  0  0  0  0  0
  189.9800  169.2950  138.3590 C   0  0  0  0  0  3  0  0  0  0  0  0
  189.5910  175.1990  147.1780 C   0  0  1  0  0  3  0  0  0  0  0  0
  188.7560  174.3610  147.9230 O   0  0  0  0  0  1  0  0  0  0  0  0
  190.9990  175.3120  147.7670 C   0  0  0  0  0  2  0  0  0  0  0  0
  191.4590  176.7440  147.9750 C   0  0  0  0  0  2  0  0  0  0  0  0
  190.3770  177.6050  147.9370 F   0  0  0  0  0  0  0  0  0  0  0  0
  188.8580  177.2710  145.0940 C   0  0  0  0  0  2  0  0  0  0  0  0
  185.3460  178.5670  144.5050 C   0  0  0  0  0  3  0  0  0  0  0  0
  186.7230  178.3570  144.3840 C   0  0  0  0  0  3  0  0  0  0  0  0
  184.6170  177.8830  145.4820 C   0  0  0  0  0  3  0  0  0  0  0  0
  187.3760  177.4570  145.2340 C   0  0  0  0  0  0  0  0  0  0  0  0
  185.2650  176.9900  146.3410 C   0  0  0  0  0  3  0  0  0  0  0  0
  186.6410  176.7800  146.2190 C   0  0  0  0  0  3  0  0  0  0  0  0
  1  2  1  0  0  0  0
  2 19  1  0  0  0  0
  3  5  2  0  0  0  0
  3  7  1  0  0  0  0
  4 24  1  0  0  0  0
  4  2  2  0  0  0  0
  5  4  1  0  0  0  0
  6  5  1  0  0  0  0
  7  1  2  0  0  0  0
  8 15  1  1  0  0  0
  8 11  1  0  0  0  0
  8 10  1  0  0  0  0
  9 13  1  0  0  0  0
 10 12  1  0  0  0  0
 11 16  1  6  0  0  0
 11  9  1  0  0  0  0
 12 14  1  0  0  0  0
 13 14  1  0  0  0  0
 14  3  1  0  0  0  0
 16 18  2  0  0  0  0
 18 17  1  0  0  0  0
 19 21  1  0  0  0  0
 19 20  1  1  0  0  0
 21 22  1  0  0  0  0
 23 22  1  0  0  0  0
 24 28  1  0  0  0  0
 25 27  1  0  0  0  0
 26 25  2  0  0  0  0
 26 28  1  0  0  0  0
 27 29  2  0  0  0  0
 28 30  2  0  0  0  0
 30 29  1  0  0  0  0
M  END
>  <MODEL>
2

>  <REMARK>
 VINA RESULT:      -7.0      4.038      5.714
  Name = 
  7 active torsions:
  status: ('A' for Active; 'I' for Inactive)
    1  A    between atoms: C_1  and  C_25
    2  A    between atoms: C_3  and  C_17
    3  A    between atoms: C_4  and  C_16
    4  A    between atoms: C_4  and  C_17
    5  A    between atoms: C_12  and  C_14
    6  A    between atoms: C_14  and  C_21
    7  A    between atoms: C_20  and  N_29
                            x       y       z     vdW  Elec       q    Type
                         _______ _______ _______ _____ _____    ______ ____

>  <TORSDO>
F 7

$$$$
=
 OpenBabel11062419533D

 30 32  0  0  1  0  0  0  0  0999 V2000
  188.5550  175.1420  147.2390 C   0  0  0  0  0  3  0  0  0  0  0  0
  188.1550  176.3270  146.6190 C   0  0  0  0  0  0  0  0  0  0  0  0
  190.5630  175.0540  145.8870 C   0  0  0  0  0  0  0  0  0  0  0  0
  188.9450  176.8690  145.5740 C   0  0  0  0  0  0  0  0  0  0  0  0
  190.1720  176.2440  145.2330 C   0  0  0  0  0  0  0  0  0  0  0  0
  191.0400  176.8190  144.1560 C   0  0  0  0  0  1  0  0  0  0  0  0
  189.7370  174.5080  146.8720 C   0  0  0  0  0  3  0  0  0  0  0  0
  193.8610  173.3720  143.3150 C   0  0  2  0  0  3  0  0  0  0  0  0
  194.2590  174.0160  145.7350 C   0  0  0  0  0  2  0  0  0  0  0  0
  192.3550  173.6080  143.3130 C   0  0  0  0  0  2  0  0  0  0  0  0
  194.5980  174.3180  144.2790 C   0  0  1  0  0  3  0  0  0  0  0  0
  191.7310  173.2360  144.6480 C   0  0  0  0  0  2  0  0  0  0  0  0
  193.0390  174.8100  146.1930 C   0  0  0  0  0  2  0  0  0  0  0  0
  191.7880  174.3780  145.5580 N   0  0  0  0  0  0  0  0  0  0  0  0
  194.3340  173.5450  142.0130 O   0  0  0  0  0  1  0  0  0  0  0  0
  196.0950  174.2870  144.0810 C   0  0  0  0  0  3  0  0  0  0  0  0
  196.3070  176.7050  143.4820 C   0  0  0  0  0  1  0  0  0  0  0  0
  196.8540  175.3360  143.7290 C   0  0  0  0  0  3  0  0  0  0  0  0
  186.8940  176.9590  147.1490 C   0  0  1  0  0  3  0  0  0  0  0  0
  187.0650  178.2950  147.5240 O   0  0  0  0  0  1  0  0  0  0  0  0
  185.6600  176.7410  146.2720 C   0  0  0  0  0  2  0  0  0  0  0  0
  184.5560  177.7580  146.5090 C   0  0  0  0  0  2  0  0  0  0  0  0
  184.0350  178.1900  145.3040 F   0  0  0  0  0  0  0  0  0  0  0  0
  188.4960  178.1190  144.8560 C   0  0  0  0  0  2  0  0  0  0  0  0
  185.6870  178.5950  142.3570 C   0  0  0  0  0  3  0  0  0  0  0  0
  186.6000  178.8260  143.3910 C   0  0  0  0  0  3  0  0  0  0  0  0
  185.7120  177.3840  141.6590 C   0  0  0  0  0  3  0  0  0  0  0  0
  187.5460  177.8510  143.7260 C   0  0  0  0  0  0  0  0  0  0  0  0
  186.6480  176.4010  141.9960 C   0  0  0  0  0  3  0  0  0  0  0  0
  187.5610  176.6330  143.0290 C   0  0  0  0  0  3  0  0  0  0  0  0
  2 19  1  0  0  0  0
  2  1  2  0  0  0  0
  3  7  2  0  0  0  0
  4  2  1  0  0  0  0
  5  4  2  0  0  0  0
  5  3  1  0  0  0  0
  6  5  1  0  0  0  0
  7  1  1  0  0  0  0
  8 15  1  6  0  0  0
  8 11  1  0  0  0  0
  9 13  1  0  0  0  0
 10  8  1  0  0  0  0
 10 12  1  0  0  0  0
 11 16  1  1  0  0  0
 11  9  1  0  0  0  0
 12 14  1  0  0  0  0
 14  3  1  0  0  0  0
 14 13  1  0  0  0  0
 17 18  1  0  0  0  0
 18 16  2  0  0  0  0
 19 20  1  6  0  0  0
 21 22  1  0  0  0  0
 21 19  1  0  0  0  0
 23 22  1  0  0  0  0
 24  4  1  0  0  0  0
 25 26  1  0  0  0  0
 26 28  2  0  0  0  0
 27 29  1  0  0  0  0
 27 25  2  0  0  0  0
 28 24  1  0  0  0  0
 29 30  2  0  0  0  0
 30 28  1  0  0  0  0
M  END
>  <MODEL>
3

>  <REMARK>
 VINA RESULT:      -7.0      2.164      4.220
  Name = 
  7 active torsions:
  status: ('A' for Active; 'I' for Inactive)
    1  A    between atoms: C_1  and  C_25
    2  A    between atoms: C_3  and  C_17
    3  A    between atoms: C_4  and  C_16
    4  A    between atoms: C_4  and  C_17
    5  A    between atoms: C_12  and  C_14
    6  A    between atoms: C_14  and  C_21
    7  A    between atoms: C_20  and  N_29
                            x       y       z     vdW  Elec       q    Type
                         _______ _______ _______ _____ _____    ______ ____

>  <TORSDO>
F 7

$$$$
=
 OpenBabel11062419533D

 30 32  0  0  1  0  0  0  0  0999 V2000
  188.9630  177.8770  142.3940 C   0  0  0  0  0  3  0  0  0  0  0  0
  187.7980  177.4540  143.0350 C   0  0  0  0  0  0  0  0  0  0  0  0
  190.3230  176.4780  143.8280 C   0  0  0  0  0  0  0  0  0  0  0  0
  187.8920  176.5590  144.1320 C   0  0  0  0  0  0  0  0  0  0  0  0
  189.1600  176.0450  144.5040 C   0  0  0  0  0  0  0  0  0  0  0  0
  189.2790  175.0730  145.6380 C   0  0  0  0  0  1  0  0  0  0  0  0
  190.2090  177.4040  142.7890 C   0  0  0  0  0  3  0  0  0  0  0  0
  194.2500  174.3050  143.4090 C   0  0  2  0  0  3  0  0  0  0  0  0
  193.9940  176.3050  144.9470 C   0  0  0  0  0  2  0  0  0  0  0  0
  192.7810  174.1910  143.0190 C   0  0  0  0  0  2  0  0  0  0  0  0
  194.6670  175.7580  143.6910 C   0  0  1  0  0  3  0  0  0  0  0  0
  191.8670  174.5550  144.1770 C   0  0  0  0  0  2  0  0  0  0  0  0
  192.6550  176.9550  144.6150 C   0  0  0  0  0  2  0  0  0  0  0  0
  191.6290  175.9970  144.1870 N   0  0  0  0  0  0  0  0  0  0  0  0
  195.0220  173.7740  142.3730 O   0  0  0  0  0  1  0  0  0  0  0  0
  196.1660  175.9160  143.7990 C   0  0  0  0  0  3  0  0  0  0  0  0
  196.4720  176.8780  141.5130 C   0  0  0  0  0  1  0  0  0  0  0  0
  196.9670  176.4080  142.8430 C   0  0  0  0  0  3  0  0  0  0  0  0
  186.5020  177.9790  142.4730 C   0  0  1  0  0  3  0  0  0  0  0  0
  186.2140  179.2830  142.8860 O   0  0  0  0  0  1  0  0  0  0  0  0
  186.3430  177.7840  140.9630 C   0  0  0  0  0  2  0  0  0  0  0  0
  184.9940  178.2360  140.4310 C   0  0  0  0  0  2  0  0  0  0  0  0
  183.9790  177.7920  141.2580 F   0  0  0  0  0  0  0  0  0  0  0  0
  186.6460  176.1360  144.8730 C   0  0  0  0  0  2  0  0  0  0  0  0
  186.5500  178.5490  147.7930 C   0  0  0  0  0  3  0  0  0  0  0  0
  186.9950  177.6050  146.8630 C   0  0  0  0  0  3  0  0  0  0  0  0
  185.2500  179.0560  147.7080 C   0  0  0  0  0  3  0  0  0  0  0  0
  186.1460  177.1680  145.8400 C   0  0  0  0  0  0  0  0  0  0  0  0
  184.3930  178.6170  146.6940 C   0  0  0  0  0  3  0  0  0  0  0  0
  184.8390  177.6730  145.7650 C   0  0  0  0  0  3  0  0  0  0  0  0
  1  7  2  0  0  0  0
  1  2  1  0  0  0  0
  2  4  2  0  0  0  0
  3 14  1  0  0  0  0
  3  5  2  0  0  0  0
  4  5  1  0  0  0  0
  4 24  1  0  0  0  0
  5  6  1  0  0  0  0
  7  3  1  0  0  0  0
  8 15  1  6  0  0  0
  8 11  1  0  0  0  0
 10  8  1  0  0  0  0
 10 12  1  0  0  0  0
 11 16  1  1  0  0  0
 11  9  1  0  0  0  0
 12 14  1  0  0  0  0
 13  9  1  0  0  0  0
 14 13  1  0  0  0  0
 17 18  1  0  0  0  0
 18 16  2  0  0  0  0
 19 20  1  6  0  0  0
 19  2  1  0  0  0  0
 21 19  1  0  0  0  0
 22 21  1  0  0  0  0
 22 23  1  0  0  0  0
 24 28  1  0  0  0  0
 26 25  2  0  0  0  0
 27 25  1  0  0  0  0
 28 26  1  0  0  0  0
 29 27  2  0  0  0  0
 30 28  2  0  0  0  0
 30 29  1  0  0  0  0
M  END
>  <MODEL>
4

>  <REMARK>
 VINA RESULT:      -6.9      1.605      2.478
  Name = 
  7 active torsions:
  status: ('A' for Active; 'I' for Inactive)
    1  A    between atoms: C_1  and  C_25
    2  A    between atoms: C_3  and  C_17
    3  A    between atoms: C_4  and  C_16
    4  A    between atoms: C_4  and  C_17
    5  A    between atoms: C_12  and  C_14
    6  A    between atoms: C_14  and  C_21
    7  A    between atoms: C_20  and  N_29
                            x       y       z     vdW  Elec       q    Type
                         _______ _______ _______ _____ _____    ______ ____

>  <TORSDO>
F 7

$$$$
=
 OpenBabel11062419533D

 30 32  0  0  1  0  0  0  0  0999 V2000
  188.1830  177.6250  146.6430 C   0  0  0  0  0  3  0  0  0  0  0  0
  187.3340  177.0970  145.6700 C   0  0  0  0  0  0  0  0  0  0  0  0
  190.1040  176.5670  145.6160 C   0  0  0  0  0  0  0  0  0  0  0  0
  187.8650  176.2420  144.6710 C   0  0  0  0  0  0  0  0  0  0  0  0
  189.2630  176.0070  144.6280 C   0  0  0  0  0  0  0  0  0  0  0  0
  189.8510  175.1350  143.5600 C   0  0  0  0  0  1  0  0  0  0  0  0
  189.5470  177.3580  146.6230 C   0  0  0  0  0  3  0  0  0  0  0  0
  193.9810  174.2920  145.2890 C   0  0  2  0  0  3  0  0  0  0  0  0
  193.8620  176.7870  144.8520 C   0  0  0  0  0  2  0  0  0  0  0  0
  192.5410  174.1250  145.7570 C   0  0  0  0  0  2  0  0  0  0  0  0
  194.1280  175.4130  144.2460 C   0  0  1  0  0  3  0  0  0  0  0  0
  192.0640  175.3380  146.5380 C   0  0  0  0  0  2  0  0  0  0  0  0
  192.3850  177.1540  144.7570 C   0  0  0  0  0  2  0  0  0  0  0  0
  191.5220  176.3370  145.6190 N   0  0  0  0  0  0  0  0  0  0  0  0
  194.4140  173.0760  144.7560 O   0  0  0  0  0  1  0  0  0  0  0  0
  195.4810  175.3980  143.5740 C   0  0  0  0  0  3  0  0  0  0  0  0
  194.6450  176.1260  141.3330 C   0  0  0  0  0  1  0  0  0  0  0  0
  195.7160  175.7110  142.2900 C   0  0  0  0  0  3  0  0  0  0  0  0
  185.8880  177.5140  145.7540 C   0  0  1  0  0  3  0  0  0  0  0  0
  185.1290  176.6970  146.5960 O   0  0  0  0  0  1  0  0  0  0  0  0
  185.6750  179.0060  146.0210 C   0  0  0  0  0  2  0  0  0  0  0  0
  184.9020  179.7160  144.9240 C   0  0  0  0  0  2  0  0  0  0  0  0
  185.7660  180.1600  143.9400 F   0  0  0  0  0  0  0  0  0  0  0  0
  186.9510  175.6170  143.6450 C   0  0  0  0  0  2  0  0  0  0  0  0
  184.8680  178.0220  141.5860 C   0  0  0  0  0  3  0  0  0  0  0  0
  185.2810  177.1560  142.6020 C   0  0  0  0  0  3  0  0  0  0  0  0
  185.7170  178.2920  140.5080 C   0  0  0  0  0  3  0  0  0  0  0  0
  186.5460  176.5610  142.5510 C   0  0  0  0  0  0  0  0  0  0  0  0
  186.9790  177.6930  140.4450 C   0  0  0  0  0  3  0  0  0  0  0  0
  187.3910  176.8280  141.4620 C   0  0  0  0  0  3  0  0  0  0  0  0
  2 19  1  0  0  0  0
  2  1  2  0  0  0  0
  3 14  1  0  0  0  0
  3  7  2  0  0  0  0
  4  2  1  0  0  0  0
  5  4  2  0  0  0  0
  5  3  1  0  0  0  0
  6  5  1  0  0  0  0
  7  1  1  0  0  0  0
  8 15  1  6  0  0  0
  8 10  1  0  0  0  0
 10 12  1  0  0  0  0
 11 16  1  1  0  0  0
 11  9  1  0  0  0  0
 11  8  1  0  0  0  0
 13  9  1  0  0  0  0
 13 14  1  0  0  0  0
 14 12  1  0  0  0  0
 17 18  1  0  0  0  0
 18 16  2  0  0  0  0
 19 21  1  0  0  0  0
 19 20  1  1  0  0  0
 22 21  1  0  0  0  0
 23 22  1  0  0  0  0
 24  4  1  0  0  0  0
 25 26  1  0  0  0  0
 27 25  2  0  0  0  0
 28 26  2  0  0  0  0
 28 24  1  0  0  0  0
 29 27  1  0  0  0  0
 29 30  2  0  0  0  0
 30 28  1  0  0  0  0
M  END
>  <MODEL>
5

>  <REMARK>
 VINA RESULT:      -6.9      1.955      3.884
  Name = 
  7 active torsions:
  status: ('A' for Active; 'I' for Inactive)
    1  A    between atoms: C_1  and  C_25
    2  A    between atoms: C_3  and  C_17
    3  A    between atoms: C_4  and  C_16
    4  A    between atoms: C_4  and  C_17
    5  A    between atoms: C_12  and  C_14
    6  A    between atoms: C_14  and  C_21
    7  A    between atoms: C_20  and  N_29
                            x       y       z     vdW  Elec       q    Type
                         _______ _______ _______ _____ _____    ______ ____

>  <TORSDO>
F 7

$$$$
=
 OpenBabel11062419533D

 30 32  0  0  1  0  0  0  0  0999 V2000
  189.1680  173.7490  142.2220 C   0  0  0  0  0  3  0  0  0  0  0  0
  190.5530  173.9260  142.2240 C   0  0  0  0  0  0  0  0  0  0  0  0
  188.8160  176.1070  142.6480 C   0  0  0  0  0  0  0  0  0  0  0  0
  191.0920  175.2100  142.4930 C   0  0  0  0  0  0  0  0  0  0  0  0
  190.2140  176.3100  142.6710 C   0  0  0  0  0  0  0  0  0  0  0  0
  190.7620  177.6810  142.9210 C   0  0  0  0  0  1  0  0  0  0  0  0
  188.3110  174.8220  142.4400 C   0  0  0  0  0  3  0  0  0  0  0  0
  184.9830  178.4580  142.3250 C   0  0  2  0  0  3  0  0  0  0  0  0
  186.5850  178.7850  144.2640 C   0  0  0  0  0  2  0  0  0  0  0  0
  185.8630  177.5030  141.5270 C   0  0  0  0  0  2  0  0  0  0  0  0
  185.1960  178.3160  143.8420 C   0  0  1  0  0  3  0  0  0  0  0  0
  187.3350  177.8530  141.6660 C   0  0  0  0  0  2  0  0  0  0  0  0
  187.5930  177.6410  144.2080 C   0  0  0  0  0  2  0  0  0  0  0  0
  187.8930  177.1910  142.8440 N   0  0  0  0  0  0  0  0  0  0  0  0
  183.6500  178.2030  141.9980 O   0  0  0  0  0  1  0  0  0  0  0  0
  184.1410  179.0440  144.6400 C   0  0  0  0  0  3  0  0  0  0  0  0
  184.4720  177.7230  146.7370 C   0  0  0  0  0  1  0  0  0  0  0  0
  183.8160  178.7870  145.9170 C   0  0  0  0  0  3  0  0  0  0  0  0
  191.3770  172.7050  141.9060 C   0  0  1  0  0  3  0  0  0  0  0  0
  191.3060  171.7210  142.8960 O   0  0  0  0  0  1  0  0  0  0  0  0
  191.1640  172.1470  140.4970 C   0  0  0  0  0  2  0  0  0  0  0  0
  191.4670  173.1480  139.3940 C   0  0  0  0  0  2  0  0  0  0  0  0
  190.2980  173.7310  138.9430 F   0  0  0  0  0  0  0  0  0  0  0  0
  192.5880  175.4050  142.5550 C   0  0  0  0  0  2  0  0  0  0  0  0
  194.6900  176.5680  145.4850 C   0  0  0  0  0  3  0  0  0  0  0  0
  194.1630  176.4360  144.1970 C   0  0  0  0  0  3  0  0  0  0  0  0
  194.1760  175.8010  146.5340 C   0  0  0  0  0  3  0  0  0  0  0  0
  193.1150  175.5410  143.9530 C   0  0  0  0  0  0  0  0  0  0  0  0
  193.1350  174.8980  146.2950 C   0  0  0  0  0  3  0  0  0  0  0  0
  192.6090  174.7660  145.0070 C   0  0  0  0  0  3  0  0  0  0  0  0
  1  2  2  0  0  0  0
  1  7  1  0  0  0  0
  2  4  1  0  0  0  0
  3  5  1  0  0  0  0
  3 14  1  0  0  0  0
  4 24  1  0  0  0  0
  4  5  2  0  0  0  0
  5  6  1  0  0  0  0
  7  3  2  0  0  0  0
  8 15  1  1  0  0  0
  8 11  1  0  0  0  0
 10 12  1  0  0  0  0
 10  8  1  0  0  0  0
 11  9  1  0  0  0  0
 11 16  1  1  0  0  0
 12 14  1  0  0  0  0
 13  9  1  0  0  0  0
 14 13  1  0  0  0  0
 16 18  2  0  0  0  0
 18 17  1  0  0  0  0
 19  2  1  0  0  0  0
 19 20  1  1  0  0  0
 21 19  1  0  0  0  0
 22 21  1  0  0  0  0
 23 22  1  0  0  0  0
 24 28  1  0  0  0  0
 25 27  1  0  0  0  0
 26 25  2  0  0  0  0
 28 26  1  0  0  0  0
 28 30  2  0  0  0  0
 29 27  2  0  0  0  0
 30 29  1  0  0  0  0
M  END
>  <MODEL>
6

>  <REMARK>
 VINA RESULT:      -6.8      2.650      7.916
  Name = 
  7 active torsions:
  status: ('A' for Active; 'I' for Inactive)
    1  A    between atoms: C_1  and  C_25
    2  A    between atoms: C_3  and  C_17
    3  A    between atoms: C_4  and  C_16
    4  A    between atoms: C_4  and  C_17
    5  A    between atoms: C_12  and  C_14
    6  A    between atoms: C_14  and  C_21
    7  A    between atoms: C_20  and  N_29
                            x       y       z     vdW  Elec       q    Type
                         _______ _______ _______ _____ _____    ______ ____

>  <TORSDO>
F 7

$$$$
=
 OpenBabel11062419533D

 30 32  0  0  1  0  0  0  0  0999 V2000
  192.3270  176.9620  143.8910 C   0  0  0  0  0  3  0  0  0  0  0  0
  192.8660  175.7890  143.3610 C   0  0  0  0  0  0  0  0  0  0  0  0
  190.2120  175.8600  144.3120 C   0  0  0  0  0  0  0  0  0  0  0  0
  192.0520  174.6330  143.2540 C   0  0  0  0  0  0  0  0  0  0  0  0
  190.7290  174.6640  143.7650 C   0  0  0  0  0  0  0  0  0  0  0  0
  189.8620  173.4440  143.6950 C   0  0  0  0  0  1  0  0  0  0  0  0
  191.0160  177.0010  144.3520 C   0  0  0  0  0  3  0  0  0  0  0  0
  186.8090  177.1570  146.9690 C   0  0  2  0  0  3  0  0  0  0  0  0
  186.4130  176.3550  144.5960 C   0  0  0  0  0  2  0  0  0  0  0  0
  188.3010  176.8520  147.0130 C   0  0  0  0  0  2  0  0  0  0  0  0
  186.3330  177.5380  145.5570 C   0  0  1  0  0  3  0  0  0  0  0  0
  188.6380  175.5970  146.2250 C   0  0  0  0  0  2  0  0  0  0  0  0
  187.7750  176.2920  143.9130 C   0  0  0  0  0  2  0  0  0  0  0  0
  188.8710  175.9390  144.8230 N   0  0  0  0  0  0  0  0  0  0  0  0
  186.5470  178.1960  147.8640 O   0  0  0  0  0  1  0  0  0  0  0  0
  184.9350  178.1100  145.5560 C   0  0  0  0  0  3  0  0  0  0  0  0
  185.4630  180.0340  144.0510 C   0  0  0  0  0  1  0  0  0  0  0  0
  184.5450  179.2100  144.8950 C   0  0  0  0  0  3  0  0  0  0  0  0
  194.3180  175.8480  142.9600 C   0  0  1  0  0  3  0  0  0  0  0  0
  194.5220  176.4790  141.7290 O   0  0  0  0  0  1  0  0  0  0  0  0
  195.2560  176.3610  144.0540 C   0  0  0  0  0  2  0  0  0  0  0  0
  195.6690  175.2930  145.0520 C   0  0  0  0  0  2  0  0  0  0  0  0
  194.7250  175.1850  146.0570 F   0  0  0  0  0  0  0  0  0  0  0  0
  192.6030  173.3730  142.6300 C   0  0  0  0  0  2  0  0  0  0  0  0
  194.2260  171.8070  145.6750 C   0  0  0  0  0  3  0  0  0  0  0  0
  193.3010  172.4410  144.8400 C   0  0  0  0  0  3  0  0  0  0  0  0
  195.4650  171.4040  145.1690 C   0  0  0  0  0  3  0  0  0  0  0  0
  193.6070  172.6690  143.4940 C   0  0  0  0  0  0  0  0  0  0  0  0
  195.7810  171.6380  143.8270 C   0  0  0  0  0  3  0  0  0  0  0  0
  194.8560  172.2710  142.9930 C   0  0  0  0  0  3  0  0  0  0  0  0
  1  7  1  0  0  0  0
  2  1  2  0  0  0  0
  3  7  2  0  0  0  0
  3 14  1  0  0  0  0
  4  2  1  0  0  0  0
  4  5  2  0  0  0  0
  5  3  1  0  0  0  0
  6  5  1  0  0  0  0
  8 10  1  0  0  0  0
  8 15  1  1  0  0  0
  9 11  1  0  0  0  0
 11 16  1  1  0  0  0
 11  8  1  0  0  0  0
 12 10  1  0  0  0  0
 13  9  1  0  0  0  0
 13 14  1  0  0  0  0
 14 12  1  0  0  0  0
 17 18  1  0  0  0  0
 18 16  2  0  0  0  0
 19 20  1  6  0  0  0
 19  2  1  0  0  0  0
 19 21  1  0  0  0  0
 21 22  1  0  0  0  0
 22 23  1  0  0  0  0
 24  4  1  0  0  0  0
 24 28  1  0  0  0  0
 26 25  2  0  0  0  0
 27 25  1  0  0  0  0
 28 26  1  0  0  0  0
 29 27  2  0  0  0  0
 30 28  2  0  0  0  0
 30 29  1  0  0  0  0
M  END
>  <MODEL>
7

>  <REMARK>
 VINA RESULT:      -6.8      3.142      8.494
  Name = 
  7 active torsions:
  status: ('A' for Active; 'I' for Inactive)
    1  A    between atoms: C_1  and  C_25
    2  A    between atoms: C_3  and  C_17
    3  A    between atoms: C_4  and  C_16
    4  A    between atoms: C_4  and  C_17
    5  A    between atoms: C_12  and  C_14
    6  A    between atoms: C_14  and  C_21
    7  A    between atoms: C_20  and  N_29
                            x       y       z     vdW  Elec       q    Type
                         _______ _______ _______ _____ _____    ______ ____

>  <TORSDO>
F 7

$$$$
=
 OpenBabel11062419533D

 30 32  0  0  1  0  0  0  0  0999 V2000
  191.2240  173.1330  144.0850 C   0  0  0  0  0  3  0  0  0  0  0  0
  192.5180  173.2340  144.5970 C   0  0  0  0  0  0  0  0  0  0  0  0
  190.5280  175.0950  145.3220 C   0  0  0  0  0  0  0  0  0  0  0  0
  192.8210  174.2560  145.5320 C   0  0  0  0  0  0  0  0  0  0  0  0
  191.8260  175.2100  145.8670 C   0  0  0  0  0  0  0  0  0  0  0  0
  192.1350  176.3180  146.8270 C   0  0  0  0  0  1  0  0  0  0  0  0
  190.2390  174.0450  144.4490 C   0  0  0  0  0  3  0  0  0  0  0  0
  187.0690  177.9140  144.6790 C   0  0  2  0  0  3  0  0  0  0  0  0
  187.4360  176.7450  146.8990 C   0  0  0  0  0  2  0  0  0  0  0  0
  188.3530  177.4360  144.0110 C   0  0  0  0  0  2  0  0  0  0  0  0
  186.5210  176.8900  145.6870 C   0  0  1  0  0  3  0  0  0  0  0  0
  189.4970  177.3410  145.0070 C   0  0  0  0  0  2  0  0  0  0  0  0
  188.4900  175.6660  146.6660 C   0  0  0  0  0  2  0  0  0  0  0  0
  189.4860  176.0290  145.6510 N   0  0  0  0  0  0  0  0  0  0  0  0
  186.1230  178.1640  143.6820 O   0  0  0  0  0  1  0  0  0  0  0  0
  185.1180  177.2220  146.1380 C   0  0  0  0  0  3  0  0  0  0  0  0
  185.7440  179.3140  147.3550 C   0  0  0  0  0  1  0  0  0  0  0  0
  184.7690  178.2890  146.8730 C   0  0  0  0  0  3  0  0  0  0  0  0
  193.5170  172.2330  144.0750 C   0  0  1  0  0  3  0  0  0  0  0  0
  193.4000  170.9760  144.6770 O   0  0  0  0  0  1  0  0  0  0  0  0
  193.5970  172.1560  142.5490 C   0  0  0  0  0  2  0  0  0  0  0  0
  194.5560  173.1640  141.9390 C   0  0  0  0  0  2  0  0  0  0  0  0
  193.9440  174.3990  141.8240 F   0  0  0  0  0  0  0  0  0  0  0  0
  194.2010  174.3420  146.1380 C   0  0  0  0  0  2  0  0  0  0  0  0
  197.4510  174.5430  144.1990 C   0  0  0  0  0  3  0  0  0  0  0  0
  196.4480  174.1090  145.0720 C   0  0  0  0  0  3  0  0  0  0  0  0
  197.2600  175.6950  143.4310 C   0  0  0  0  0  3  0  0  0  0  0  0
  195.2480  174.8200  145.1750 C   0  0  0  0  0  0  0  0  0  0  0  0
  196.0670  176.4160  143.5370 C   0  0  0  0  0  3  0  0  0  0  0  0
  195.0650  175.9820  144.4090 C   0  0  0  0  0  3  0  0  0  0  0  0
  1  7  2  0  0  0  0
  1  2  1  0  0  0  0
  2  4  2  0  0  0  0
  3 14  1  0  0  0  0
  3  5  2  0  0  0  0
  4  5  1  0  0  0  0
  4 24  1  0  0  0  0
  5  6  1  0  0  0  0
  7  3  1  0  0  0  0
  8 15  1  6  0  0  0
  8 11  1  0  0  0  0
 10  8  1  0  0  0  0
 10 12  1  0  0  0  0
 11 16  1  1  0  0  0
 11  9  1  0  0  0  0
 12 14  1  0  0  0  0
 13  9  1  0  0  0  0
 14 13  1  0  0  0  0
 16 18  2  0  0  0  0
 18 17  1  0  0  0  0
 19  2  1  0  0  0  0
 19 20  1  6  0  0  0
 21 19  1  0  0  0  0
 22 21  1  0  0  0  0
 23 22  1  0  0  0  0
 25 26  1  0  0  0  0
 26 28  2  0  0  0  0
 27 29  1  0  0  0  0
 27 25  2  0  0  0  0
 28 24  1  0  0  0  0
 29 30  2  0  0  0  0
 30 28  1  0  0  0  0
M  END
>  <MODEL>
8

>  <REMARK>
 VINA RESULT:      -6.7      2.927      8.735
  Name = 
  7 active torsions:
  status: ('A' for Active; 'I' for Inactive)
    1  A    between atoms: C_1  and  C_25
    2  A    between atoms: C_3  and  C_17
    3  A    between atoms: C_4  and  C_16
    4  A    between atoms: C_4  and  C_17
    5  A    between atoms: C_12  and  C_14
    6  A    between atoms: C_14  and  C_21
    7  A    between atoms: C_20  and  N_29
                            x       y       z     vdW  Elec       q    Type
                         _______ _______ _______ _____ _____    ______ ____

>  <TORSDO>
F 7

$$$$
=
 OpenBabel11062419533D

 30 32  0  0  1  0  0  0  0  0999 V2000
  191.2570  175.8020  146.8750 C   0  0  0  0  0  3  0  0  0  0  0  0
  190.2400  175.4780  145.9770 C   0  0  0  0  0  0  0  0  0  0  0  0
  192.9490  175.3670  145.1980 C   0  0  0  0  0  0  0  0  0  0  0  0
  190.5770  175.0390  144.6700 C   0  0  0  0  0  0  0  0  0  0  0  0
  191.9390  175.0180  144.2730 C   0  0  0  0  0  0  0  0  0  0  0  0
  192.3150  174.5910  142.8870 C   0  0  0  0  0  1  0  0  0  0  0  0
  192.5930  175.7390  146.4960 C   0  0  0  0  0  3  0  0  0  0  0  0
  196.8220  173.7550  143.5490 C   0  0  2  0  0  3  0  0  0  0  0  0
  196.3730  176.2470  143.6950 C   0  0  0  0  0  2  0  0  0  0  0  0
  195.5600  173.3040  144.2740 C   0  0  0  0  0  2  0  0  0  0  0  0
  196.6090  175.0610  142.7640 C   0  0  1  0  0  3  0  0  0  0  0  0
  195.1780  174.2710  145.3830 C   0  0  0  0  0  2  0  0  0  0  0  0
  194.8900  176.4150  144.0070 C   0  0  0  0  0  2  0  0  0  0  0  0
  194.3410  175.3400  144.8410 N   0  0  0  0  0  0  0  0  0  0  0  0
  197.2220  172.7330  142.6860 O   0  0  0  0  0  1  0  0  0  0  0  0
  197.7530  175.3610  141.8250 C   0  0  0  0  0  3  0  0  0  0  0  0
  196.3780  175.2920  139.7390 C   0  0  0  0  0  1  0  0  0  0  0  0
  197.6580  175.4640  140.4910 C   0  0  0  0  0  3  0  0  0  0  0  0
  188.8300  175.6520  146.4790 C   0  0  1  0  0  3  0  0  0  0  0  0
  188.5660  174.9160  147.6380 O   0  0  0  0  0  1  0  0  0  0  0  0
  188.3710  177.1080  146.5820 C   0  0  0  0  0  2  0  0  0  0  0  0
  186.9780  177.3470  146.0240 C   0  0  0  0  0  2  0  0  0  0  0  0
  187.0010  178.3760  145.1010 F   0  0  0  0  0  0  0  0  0  0  0  0
  189.4910  174.6300  143.7050 C   0  0  0  0  0  2  0  0  0  0  0  0
  186.7440  176.7270  142.1500 C   0  0  0  0  0  3  0  0  0  0  0  0
  187.4250  175.6680  142.7580 C   0  0  0  0  0  3  0  0  0  0  0  0
  187.4190  177.9130  141.8500 C   0  0  0  0  0  3  0  0  0  0  0  0
  188.7820  175.7930  143.0750 C   0  0  0  0  0  0  0  0  0  0  0  0
  188.7780  178.0410  142.1560 C   0  0  0  0  0  3  0  0  0  0  0  0
  189.4580  176.9830  142.7640 C   0  0  0  0  0  3  0  0  0  0  0  0
  2 19  1  0  0  0  0
  2  1  2  0  0  0  0
  3  7  2  0  0  0  0
  4  2  1  0  0  0  0
  5  4  2  0  0  0  0
  5  3  1  0  0  0  0
  6  5  1  0  0  0  0
  7  1  1  0  0  0  0
  8 15  1  6  0  0  0
  8 10  1  0  0  0  0
  9 13  1  0  0  0  0
 10 12  1  0  0  0  0
 11 16  1  1  0  0  0
 11  8  1  0  0  0  0
 11  9  1  0  0  0  0
 13 14  1  0  0  0  0
 14  3  1  0  0  0  0
 14 12  1  0  0  0  0
 17 18  1  0  0  0  0
 18 16  2  0  0  0  0
 19 21  1  0  0  0  0
 19 20  1  1  0  0  0
 22 21  1  0  0  0  0
 23 22  1  0  0  0  0
 24  4  1  0  0  0  0
 25 26  1  0  0  0  0
 26 28  2  0  0  0  0
 27 25  2  0  0  0  0
 27 29  1  0  0  0  0
 28 24  1  0  0  0  0
 29 30  2  0  0  0  0
 30 28  1  0  0  0  0
M  END
>  <MODEL>
9

>  <REMARK>
 VINA RESULT:      -6.7      2.766      4.999
  Name = 
  7 active torsions:
  status: ('A' for Active; 'I' for Inactive)
    1  A    between atoms: C_1  and  C_25
    2  A    between atoms: C_3  and  C_17
    3  A    between atoms: C_4  and  C_16
    4  A    between atoms: C_4  and  C_17
    5  A    between atoms: C_12  and  C_14
    6  A    between atoms: C_14  and  C_21
    7  A    between atoms: C_20  and  N_29
                            x       y       z     vdW  Elec       q    Type
                         _______ _______ _______ _____ _____    ______ ____

>  <TORSDO>
F 7

$$$$
