=
 OpenBabel11072408283D

 34 39  0  0  1  0  0  0  0  0999 V2000
  187.2030  177.6500  144.7280 C   0  0  2  0  0  3  0  0  0  0  0  0
  188.8650  176.7880  142.1910 O   0  0  0  0  0  0  0  0  0  0  0  0
  184.9450  178.4200  143.9280 C   0  0  0  0  0  3  0  0  0  0  0  0
  188.6390  177.8840  144.3270 C   0  0  0  0  0  2  0  0  0  0  0  0
  185.4640  177.8520  141.3060 C   0  0  0  0  0  0  0  0  0  0  0  0
  183.9730  178.6270  142.9410 C   0  0  0  0  0  3  0  0  0  0  0  0
  186.2280  177.9320  143.5990 C   0  0  0  0  0  0  0  0  0  0  0  0
  185.9620  177.4560  139.7640 S   0  0  0  0  0  0  0  0  0  0  0  0
  189.0990  176.6570  143.5810 C   0  0  2  0  0  3  0  0  0  0  0  0
  186.4750  177.6200  142.2330 C   0  0  0  0  0  0  0  0  0  0  0  0
  184.2480  178.3430  141.6410 N   0  0  0  0  0  0  0  0  0  0  0  0
  187.6410  177.1120  141.5950 C   0  0  0  0  0  0  0  0  0  0  0  0
  187.5110  176.9690  140.2110 C   0  0  0  0  0  3  0  0  0  0  0  0
  193.4000  175.9730  143.6970 C   0  0  1  0  0  3  0  0  0  0  0  0
  193.3930  176.2470  145.2250 C   0  0  0  0  0  0  0  0  0  0  0  0
  191.7370  176.5630  147.2240 C   0  0  0  0  0  2  0  0  0  0  0  0
  194.8030  175.8380  143.1200 C   0  0  0  0  0  1  0  0  0  0  0  0
  191.9440  176.2990  145.7390 C   0  0  1  0  0  3  0  0  0  0  0  0
  189.3800  173.8530  145.3040 C   0  0  0  0  0  2  0  0  0  0  0  0
  194.0740  177.5810  145.5010 C   0  0  0  0  0  1  0  0  0  0  0  0
  190.9350  175.4180  147.8290 C   0  0  0  0  0  2  0  0  0  0  0  0
  189.3780  173.9690  146.8230 C   0  0  0  0  0  2  0  0  0  0  0  0
  192.5310  174.7850  143.2310 C   0  0  0  0  0  2  0  0  0  0  0  0
  194.1440  175.1470  145.9650 C   0  0  0  0  0  1  0  0  0  0  0  0
  190.8080  173.8680  144.7890 C   0  0  0  0  0  2  0  0  0  0  0  0
  189.6090  175.3500  147.2290 N   0  0  0  0  0  2  0  0  0  0  0  0
  191.0960  177.0870  144.9410 O   0  0  0  0  0  0  0  0  0  0  0  0
  191.0460  174.8490  143.6300 C   0  0  1  0  0  3  0  0  0  0  0  0
  190.5670  176.3250  143.8600 C   0  0  1  0  0  3  0  0  0  0  0  0
  185.2990  176.4150  146.5860 C   0  0  0  0  0  1  0  0  0  0  0  0
  187.3900  177.7010  147.2370 C   0  0  0  0  0  2  0  0  0  0  0  0
  185.9170  177.7640  146.9210 C   0  0  1  0  0  0  0  0  0  0  0  0
  186.9100  178.4580  145.9990 C   0  0  2  0  0  3  0  0  0  0  0  0
  185.2190  178.6020  147.7890 O   0  0  0  0  0  1  0  0  0  0  0  0
  1  4  1  6  0  0  0
  1 33  1  0  0  0  0
  2  9  1  0  0  0  0
  5 11  2  0  0  0  0
  5 10  1  0  0  0  0
  6  3  2  0  0  0  0
  7  3  1  0  0  0  0
  7  1  1  0  0  0  0
  8 13  1  0  0  0  0
  8  5  1  0  0  0  0
  9 29  1  0  0  0  0
  9  4  1  1  0  0  0
 10  7  2  0  0  0  0
 11  6  1  0  0  0  0
 12  2  1  0  0  0  0
 12 10  1  0  0  0  0
 13 12  2  0  0  0  0
 14 17  1  1  0  0  0
 14 15  1  0  0  0  0
 15 20  1  0  0  0  0
 15 18  1  0  0  0  0
 15 24  1  0  0  0  0
 16 21  1  0  0  0  0
 18 16  1  1  0  0  0
 19 22  1  0  0  0  0
 22 26  1  0  0  0  0
 23 14  1  0  0  0  0
 25 19  1  0  0  0  0
 26 21  1  0  0  0  0
 27 18  1  0  0  0  0
 28 23  1  1  0  0  0
 28 29  1  0  0  0  0
 28 25  1  0  0  0  0
 29 27  1  1  0  0  0
 32 30  1  6  0  0  0
 32 31  1  0  0  0  0
 32 34  1  0  0  0  0
 33 32  1  0  0  0  0
 33 31  1  1  0  0  0
M  END
>  <MODEL>
1

>  <REMARK>
 VINA RESULT:      -9.0      0.000      0.000
  Name = 
  2 active torsions:
  status: ('A' for Active; 'I' for Inactive)
    1  A    between atoms: C_1  and  C_5
    2  A    between atoms: C_23  and  C_34
                            x       y       z     vdW  Elec       q    Type
                         _______ _______ _______ _____ _____    ______ ____

>  <TORSDO>
F 2

$$$$
=
 OpenBabel11072408283D

 34 39  0  0  1  0  0  0  0  0999 V2000
  189.8150  173.0600  142.1630 C   0  0  2  0  0  3  0  0  0  0  0  0
  188.0440  174.9850  140.4010 O   0  0  0  0  0  0  0  0  0  0  0  0
  190.8060  171.3300  140.6280 C   0  0  0  0  0  3  0  0  0  0  0  0
  188.4510  173.6690  142.3810 C   0  0  0  0  0  2  0  0  0  0  0  0
  189.7120  172.4190  138.3740 C   0  0  0  0  0  0  0  0  0  0  0  0
  191.0530  170.7730  139.3670 C   0  0  0  0  0  3  0  0  0  0  0  0
  189.9690  172.4570  140.7780 C   0  0  0  0  0  0  0  0  0  0  0  0
  188.9550  173.2120  137.1160 S   0  0  0  0  0  0  0  0  0  0  0  0
  188.4690  175.0400  141.7510 C   0  0  2  0  0  3  0  0  0  0  0  0
  189.4260  173.0250  139.5930 C   0  0  0  0  0  0  0  0  0  0  0  0
  190.4990  171.3240  138.2560 N   0  0  0  0  0  0  0  0  0  0  0  0
  188.5690  174.1470  139.4120 C   0  0  0  0  0  0  0  0  0  0  0  0
  188.2130  174.3780  138.0800 C   0  0  0  0  0  3  0  0  0  0  0  0
  185.5770  177.7660  143.5360 C   0  0  1  0  0  3  0  0  0  0  0  0
  186.2110  177.5120  144.9290 C   0  0  0  0  0  0  0  0  0  0  0  0
  188.3030  176.4000  146.0360 C   0  0  0  0  0  2  0  0  0  0  0  0
  184.2940  178.5840  143.6020 C   0  0  0  0  0  1  0  0  0  0  0  0
  187.5340  176.7440  144.7670 C   0  0  1  0  0  3  0  0  0  0  0  0
  190.3230  177.5990  142.7090 C   0  0  0  0  0  2  0  0  0  0  0  0
  185.2510  176.6900  145.7780 C   0  0  0  0  0  1  0  0  0  0  0  0
  189.7040  176.9920  145.9480 C   0  0  0  0  0  2  0  0  0  0  0  0
  191.0180  177.4850  144.0600 C   0  0  0  0  0  2  0  0  0  0  0  0
  186.5220  178.3710  142.4750 C   0  0  0  0  0  2  0  0  0  0  0  0
  186.4860  178.8340  145.6360 C   0  0  0  0  0  1  0  0  0  0  0  0
  188.9860  178.2990  142.8760 C   0  0  0  0  0  2  0  0  0  0  0  0
  190.4410  176.3980  144.8400 N   0  0  0  0  0  2  0  0  0  0  0  0
  187.4400  175.6460  143.8950 O   0  0  0  0  0  0  0  0  0  0  0  0
  187.8110  177.5750  142.2010 C   0  0  1  0  0  3  0  0  0  0  0  0
  187.6420  176.0540  142.5450 C   0  0  1  0  0  3  0  0  0  0  0  0
  192.4150  173.3610  143.4830 C   0  0  0  0  0  1  0  0  0  0  0  0
  190.2220  172.7920  144.6310 C   0  0  0  0  0  2  0  0  0  0  0  0
  191.4570  172.2720  143.9390 C   0  0  1  0  0  0  0  0  0  0  0  0
  190.0930  172.0630  143.2940 C   0  0  2  0  0  3  0  0  0  0  0  0
  191.9960  171.1550  144.5750 O   0  0  0  0  0  1  0  0  0  0  0  0
  1  4  1  1  0  0  0
  1 33  1  0  0  0  0
  2  9  1  0  0  0  0
  3  7  1  0  0  0  0
  5 10  1  0  0  0  0
  6  3  2  0  0  0  0
  7  1  1  0  0  0  0
  8 13  1  0  0  0  0
  8  5  1  0  0  0  0
  9  4  1  1  0  0  0
  9 29  1  0  0  0  0
 10  7  2  0  0  0  0
 11  5  2  0  0  0  0
 11  6  1  0  0  0  0
 12 10  1  0  0  0  0
 12  2  1  0  0  0  0
 13 12  2  0  0  0  0
 14 17  1  1  0  0  0
 14 15  1  0  0  0  0
 15 24  1  0  0  0  0
 15 20  1  0  0  0  0
 18 15  1  0  0  0  0
 18 16  1  1  0  0  0
 19 25  1  0  0  0  0
 19 22  1  0  0  0  0
 21 16  1  0  0  0  0
 22 26  1  0  0  0  0
 23 14  1  0  0  0  0
 26 21  1  0  0  0  0
 27 18  1  0  0  0  0
 28 23  1  1  0  0  0
 28 29  1  0  0  0  0
 28 25  1  0  0  0  0
 29 27  1  1  0  0  0
 32 30  1  6  0  0  0
 32 34  1  0  0  0  0
 32 31  1  0  0  0  0
 33 32  1  0  0  0  0
 33 31  1  1  0  0  0
M  END
>  <MODEL>
2

>  <REMARK>
 VINA RESULT:      -8.7      3.368      6.743
  Name = 
  2 active torsions:
  status: ('A' for Active; 'I' for Inactive)
    1  A    between atoms: C_1  and  C_5
    2  A    between atoms: C_23  and  C_34
                            x       y       z     vdW  Elec       q    Type
                         _______ _______ _______ _____ _____    ______ ____

>  <TORSDO>
F 2

$$$$
=
 OpenBabel11072408283D

 34 39  0  0  1  0  0  0  0  0999 V2000
  186.4550  177.7880  144.5190 C   0  0  2  0  0  3  0  0  0  0  0  0
  188.2700  176.8400  142.1200 O   0  0  0  0  0  0  0  0  0  0  0  0
  184.2820  178.6020  143.5460 C   0  0  0  0  0  3  0  0  0  0  0  0
  187.9220  177.9780  144.2180 C   0  0  0  0  0  2  0  0  0  0  0  0
  184.9710  177.9750  140.9780 C   0  0  0  0  0  0  0  0  0  0  0  0
  183.3890  178.8170  142.4890 C   0  0  0  0  0  3  0  0  0  0  0  0
  185.5720  178.0750  143.3180 C   0  0  0  0  0  0  0  0  0  0  0  0
  185.5670  177.5410  139.4810 S   0  0  0  0  0  0  0  0  0  0  0  0
  188.4010  176.7270  143.5260 C   0  0  2  0  0  3  0  0  0  0  0  0
  185.9070  177.7340  141.9780 C   0  0  0  0  0  0  0  0  0  0  0  0
  183.7480  178.5030  141.2170 N   0  0  0  0  0  0  0  0  0  0  0  0
  187.1010  177.1850  141.4330 C   0  0  0  0  0  0  0  0  0  0  0  0
  187.0670  177.0210  140.0460 C   0  0  0  0  0  3  0  0  0  0  0  0
  192.5680  176.4110  144.7580 C   0  0  1  0  0  3  0  0  0  0  0  0
  192.2770  175.0040  145.3470 C   0  0  0  0  0  0  0  0  0  0  0  0
  190.4210  173.1640  145.3880 C   0  0  0  0  0  2  0  0  0  0  0  0
  193.9610  176.9250  145.0960 C   0  0  0  0  0  1  0  0  0  0  0  0
  190.8830  174.5300  144.9010 C   0  0  1  0  0  3  0  0  0  0  0  0
  189.5940  174.3420  141.5770 C   0  0  0  0  0  2  0  0  0  0  0  0
  192.3250  175.0740  146.8670 C   0  0  0  0  0  1  0  0  0  0  0  0
  190.0870  172.2910  144.1840 C   0  0  0  0  0  2  0  0  0  0  0  0
  189.3740  172.9030  142.0270 C   0  0  0  0  0  2  0  0  0  0  0  0
  192.3130  176.5630  143.2430 C   0  0  0  0  0  2  0  0  0  0  0  0
  193.3200  174.0020  144.8660 C   0  0  0  0  0  1  0  0  0  0  0  0
  190.9430  174.8340  142.0720 C   0  0  0  0  0  2  0  0  0  0  0  0
  188.9790  172.8630  143.4300 N   0  0  0  0  0  2  0  0  0  0  0  0
  189.8850  175.5080  145.0540 O   0  0  0  0  0  0  0  0  0  0  0  0
  190.8930  176.2030  142.7670 C   0  0  1  0  0  3  0  0  0  0  0  0
  189.8360  176.3620  143.9150 C   0  0  1  0  0  3  0  0  0  0  0  0
  184.8160  176.4160  146.5260 C   0  0  0  0  0  1  0  0  0  0  0  0
  186.7220  178.0240  147.0100 C   0  0  0  0  0  2  0  0  0  0  0  0
  185.2450  177.8570  146.7560 C   0  0  1  0  0  0  0  0  0  0  0  0
  186.0940  178.6250  145.7520 C   0  0  2  0  0  3  0  0  0  0  0  0
  184.4650  178.6400  147.6040 O   0  0  0  0  0  1  0  0  0  0  0  0
  1  4  1  6  0  0  0
  1 33  1  0  0  0  0
  2  9  1  0  0  0  0
  5 11  2  0  0  0  0
  5 10  1  0  0  0  0
  6  3  2  0  0  0  0
  7  3  1  0  0  0  0
  7  1  1  0  0  0  0
  8 13  1  0  0  0  0
  8  5  1  0  0  0  0
  9 29  1  0  0  0  0
  9  4  1  1  0  0  0
 10  7  2  0  0  0  0
 11  6  1  0  0  0  0
 12 10  1  0  0  0  0
 12  2  1  0  0  0  0
 13 12  2  0  0  0  0
 14 17  1  6  0  0  0
 14 15  1  0  0  0  0
 15 20  1  0  0  0  0
 18 27  1  0  0  0  0
 18 15  1  0  0  0  0
 18 16  1  1  0  0  0
 19 22  1  0  0  0  0
 19 25  1  0  0  0  0
 21 16  1  0  0  0  0
 22 26  1  0  0  0  0
 23 14  1  0  0  0  0
 24 15  1  0  0  0  0
 26 21  1  0  0  0  0
 28 25  1  1  0  0  0
 28 23  1  0  0  0  0
 28 29  1  0  0  0  0
 29 27  1  6  0  0  0
 32 30  1  6  0  0  0
 32 31  1  0  0  0  0
 32 34  1  0  0  0  0
 33 32  1  0  0  0  0
 33 31  1  1  0  0  0
M  END
>  <MODEL>
3

>  <REMARK>
 VINA RESULT:      -8.6      1.427      2.148
  Name = 
  2 active torsions:
  status: ('A' for Active; 'I' for Inactive)
    1  A    between atoms: C_1  and  C_5
    2  A    between atoms: C_23  and  C_34
                            x       y       z     vdW  Elec       q    Type
                         _______ _______ _______ _____ _____    ______ ____

>  <TORSDO>
F 2

$$$$
=
 OpenBabel11072408283D

 34 39  0  0  1  0  0  0  0  0999 V2000
  188.6840  177.0570  144.1270 C   0  0  2  0  0  3  0  0  0  0  0  0
  188.0480  176.2370  141.1490 O   0  0  0  0  0  0  0  0  0  0  0  0
  186.8950  178.6660  144.8660 C   0  0  0  0  0  3  0  0  0  0  0  0
  189.5610  176.8880  142.9110 C   0  0  0  0  0  2  0  0  0  0  0  0
  185.5060  178.5040  142.5190 C   0  0  0  0  0  0  0  0  0  0  0  0
  185.7000  179.3730  144.6870 C   0  0  0  0  0  3  0  0  0  0  0  0
  187.4310  177.8640  143.8350 C   0  0  0  0  0  0  0  0  0  0  0  0
  184.8040  178.2910  141.0200 S   0  0  0  0  0  0  0  0  0  0  0  0
  188.9830  175.7560  142.0980 C   0  0  2  0  0  3  0  0  0  0  0  0
  186.6850  177.7730  142.6270 C   0  0  0  0  0  0  0  0  0  0  0  0
  185.0230  179.2850  143.5130 N   0  0  0  0  0  0  0  0  0  0  0  0
  186.9480  177.0550  141.4270 C   0  0  0  0  0  0  0  0  0  0  0  0
  185.9870  177.2460  140.4310 C   0  0  0  0  0  3  0  0  0  0  0  0
  191.9230  173.7660  139.5720 C   0  0  1  0  0  3  0  0  0  0  0  0
  192.8300  173.5510  140.8140 C   0  0  0  0  0  0  0  0  0  0  0  0
  192.7830  173.7420  143.4210 C   0  0  0  0  0  2  0  0  0  0  0  0
  192.6000  173.3840  138.2620 C   0  0  0  0  0  1  0  0  0  0  0  0
  192.0490  173.8920  142.0940 C   0  0  1  0  0  3  0  0  0  0  0  0
  188.8780  172.6210  143.1290 C   0  0  0  0  0  2  0  0  0  0  0  0
  194.0500  174.4550  140.7100 C   0  0  0  0  0  1  0  0  0  0  0  0
  192.0120  172.7760  144.3120 C   0  0  0  0  0  2  0  0  0  0  0  0
  189.7160  172.2630  144.3500 C   0  0  0  0  0  2  0  0  0  0  0  0
  190.5280  173.1090  139.6450 C   0  0  0  0  0  2  0  0  0  0  0  0
  193.2940  172.1010  140.8850 C   0  0  0  0  0  1  0  0  0  0  0  0
  189.6700  172.3460  141.8640 C   0  0  0  0  0  2  0  0  0  0  0  0
  190.6920  173.3110  144.6230 N   0  0  0  0  0  2  0  0  0  0  0  0
  191.3490  175.1080  142.0150 O   0  0  0  0  0  0  0  0  0  0  0  0
  189.6660  173.5080  140.8580 C   0  0  1  0  0  3  0  0  0  0  0  0
  190.0690  174.9150  141.4210 C   0  0  1  0  0  3  0  0  0  0  0  0
  188.5660  175.5790  146.6570 C   0  0  0  0  0  1  0  0  0  0  0  0
  190.6370  176.6640  145.6640 C   0  0  0  0  0  2  0  0  0  0  0  0
  189.4270  176.8280  146.5500 C   0  0  1  0  0  0  0  0  0  0  0  0
  189.5300  177.6410  145.2660 C   0  0  2  0  0  3  0  0  0  0  0  0
  189.7130  177.5240  147.7230 O   0  0  0  0  0  1  0  0  0  0  0  0
  1  4  1  6  0  0  0
  1 33  1  0  0  0  0
  2 12  1  0  0  0  0
  2  9  1  0  0  0  0
  5 10  2  0  0  0  0
  5 11  1  0  0  0  0
  6  3  1  0  0  0  0
  7  1  1  0  0  0  0
  7  3  2  0  0  0  0
  8  5  1  0  0  0  0
  9  4  1  6  0  0  0
 10  7  1  0  0  0  0
 11  6  2  0  0  0  0
 12 10  1  0  0  0  0
 13  8  1  0  0  0  0
 13 12  2  0  0  0  0
 14 17  1  6  0  0  0
 14 23  1  0  0  0  0
 14 15  1  0  0  0  0
 15 24  1  0  0  0  0
 15 18  1  0  0  0  0
 16 21  1  0  0  0  0
 18 16  1  1  0  0  0
 19 22  1  0  0  0  0
 20 15  1  0  0  0  0
 21 26  1  0  0  0  0
 22 26  1  0  0  0  0
 25 19  1  0  0  0  0
 27 18  1  0  0  0  0
 28 23  1  6  0  0  0
 28 29  1  0  0  0  0
 28 25  1  0  0  0  0
 29 27  1  1  0  0  0
 29  9  1  0  0  0  0
 31 32  1  0  0  0  0
 32 30  1  1  0  0  0
 32 34  1  0  0  0  0
 33 31  1  6  0  0  0
 33 32  1  0  0  0  0
M  END
>  <MODEL>
4

>  <REMARK>
 VINA RESULT:      -8.3      2.431      3.496
  Name = 
  2 active torsions:
  status: ('A' for Active; 'I' for Inactive)
    1  A    between atoms: C_1  and  C_5
    2  A    between atoms: C_23  and  C_34
                            x       y       z     vdW  Elec       q    Type
                         _______ _______ _______ _____ _____    ______ ____

>  <TORSDO>
F 2

$$$$
=
 OpenBabel11072408283D

 34 39  0  0  1  0  0  0  0  0999 V2000
  190.6530  176.6170  145.5180 C   0  0  2  0  0  3  0  0  0  0  0  0
  190.1030  175.8320  142.5130 O   0  0  0  0  0  0  0  0  0  0  0  0
  188.4570  177.3130  146.5310 C   0  0  0  0  0  3  0  0  0  0  0  0
  191.4020  176.9040  144.2390 C   0  0  0  0  0  2  0  0  0  0  0  0
  187.0210  176.7810  144.2680 C   0  0  0  0  0  0  0  0  0  0  0  0
  187.0690  177.4920  146.5020 C   0  0  0  0  0  3  0  0  0  0  0  0
  189.1620  176.8720  145.3900 C   0  0  0  0  0  0  0  0  0  0  0  0
  186.3160  176.4150  142.8010 S   0  0  0  0  0  0  0  0  0  0  0  0
  191.2400  175.6990  143.3470 C   0  0  2  0  0  3  0  0  0  0  0  0
  188.3970  176.5790  144.2270 C   0  0  0  0  0  0  0  0  0  0  0  0
  186.3700  177.2270  145.3680 N   0  0  0  0  0  0  0  0  0  0  0  0
  188.8030  176.1170  142.9430 C   0  0  0  0  0  0  0  0  0  0  0  0
  187.7510  175.9790  142.0330 C   0  0  0  0  0  3  0  0  0  0  0  0
  194.4270  175.1620  140.4250 C   0  0  1  0  0  3  0  0  0  0  0  0
  195.4770  175.4350  141.5350 C   0  0  0  0  0  0  0  0  0  0  0  0
  195.6700  175.6940  144.1290 C   0  0  0  0  0  2  0  0  0  0  0  0
  195.0360  175.0750  139.0320 C   0  0  0  0  0  1  0  0  0  0  0  0
  194.7920  175.4370  142.9120 C   0  0  1  0  0  3  0  0  0  0  0  0
  192.7070  172.9060  144.3230 C   0  0  0  0  0  2  0  0  0  0  0  0
  196.1270  176.7910  141.2920 C   0  0  0  0  0  1  0  0  0  0  0  0
  195.5430  174.5210  145.0940 C   0  0  0  0  0  2  0  0  0  0  0  0
  193.7590  173.0210  145.4180 C   0  0  0  0  0  2  0  0  0  0  0  0
  193.5070  173.9450  140.6650 C   0  0  0  0  0  2  0  0  0  0  0  0
  196.5580  174.3610  141.5180 C   0  0  0  0  0  1  0  0  0  0  0  0
  193.3740  172.9690  142.9610 C   0  0  0  0  0  2  0  0  0  0  0  0
  194.1740  174.4090  145.5830 N   0  0  0  0  0  2  0  0  0  0  0  0
  193.6100  176.1960  142.9470 O   0  0  0  0  0  0  0  0  0  0  0  0
  192.7160  173.9580  141.9860 C   0  0  1  0  0  3  0  0  0  0  0  0
  192.4970  175.4170  142.5190 C   0  0  1  0  0  3  0  0  0  0  0  0
  191.0330  175.1240  148.0130 C   0  0  0  0  0  1  0  0  0  0  0  0
  192.6640  176.7980  147.0190 C   0  0  0  0  0  2  0  0  0  0  0  0
  191.4790  176.5750  147.9240 C   0  0  1  0  0  0  0  0  0  0  0  0
  191.3080  177.4050  146.6590 C   0  0  2  0  0  3  0  0  0  0  0  0
  191.5670  177.3020  149.1100 O   0  0  0  0  0  1  0  0  0  0  0  0
  1  4  1  6  0  0  0
  1 33  1  0  0  0  0
  2 12  1  0  0  0  0
  2  9  1  0  0  0  0
  5 11  1  0  0  0  0
  6  3  1  0  0  0  0
  7  1  1  0  0  0  0
  7  3  2  0  0  0  0
  8  5  1  0  0  0  0
  9  4  1  6  0  0  0
 10  5  2  0  0  0  0
 10  7  1  0  0  0  0
 11  6  2  0  0  0  0
 12 10  1  0  0  0  0
 13  8  1  0  0  0  0
 13 12  2  0  0  0  0
 14 17  1  6  0  0  0
 14 23  1  0  0  0  0
 14 15  1  0  0  0  0
 15 18  1  0  0  0  0
 16 21  1  0  0  0  0
 18 27  1  0  0  0  0
 18 16  1  1  0  0  0
 19 22  1  0  0  0  0
 20 15  1  0  0  0  0
 21 26  1  0  0  0  0
 22 26  1  0  0  0  0
 24 15  1  0  0  0  0
 25 19  1  0  0  0  0
 28 23  1  6  0  0  0
 28 29  1  0  0  0  0
 28 25  1  0  0  0  0
 29 27  1  1  0  0  0
 29  9  1  0  0  0  0
 31 32  1  0  0  0  0
 32 30  1  1  0  0  0
 32 34  1  0  0  0  0
 33 31  1  6  0  0  0
 33 32  1  0  0  0  0
M  END
>  <MODEL>
5

>  <REMARK>
 VINA RESULT:      -7.9      2.405      4.136
  Name = 
  2 active torsions:
  status: ('A' for Active; 'I' for Inactive)
    1  A    between atoms: C_1  and  C_5
    2  A    between atoms: C_23  and  C_34
                            x       y       z     vdW  Elec       q    Type
                         _______ _______ _______ _____ _____    ______ ____

>  <TORSDO>
F 2

$$$$
=
 OpenBabel11072408283D

 34 39  0  0  1  0  0  0  0  0999 V2000
  191.0190  172.7330  142.1080 C   0  0  2  0  0  3  0  0  0  0  0  0
  188.7950  174.8180  141.3000 O   0  0  0  0  0  0  0  0  0  0  0  0
  191.4370  171.2610  140.1100 C   0  0  0  0  0  3  0  0  0  0  0  0
  189.8070  173.2610  142.8380 C   0  0  0  0  0  2  0  0  0  0  0  0
  189.6830  172.6080  138.5060 C   0  0  0  0  0  0  0  0  0  0  0  0
  191.2540  170.8890  138.7730 C   0  0  0  0  0  3  0  0  0  0  0  0
  190.7070  172.3290  140.6780 C   0  0  0  0  0  0  0  0  0  0  0  0
  188.5670  173.5390  137.6840 S   0  0  0  0  0  0  0  0  0  0  0  0
  189.6360  174.7040  142.4330 C   0  0  2  0  0  3  0  0  0  0  0  0
  189.8150  173.0340  139.8240 C   0  0  0  0  0  0  0  0  0  0  0  0
  190.3750  171.5670  137.9890 N   0  0  0  0  0  0  0  0  0  0  0  0
  188.9600  174.1410  140.0870 C   0  0  0  0  0  0  0  0  0  0  0  0
  188.1940  174.5380  138.9880 C   0  0  0  0  0  3  0  0  0  0  0  0
  187.5180  177.0860  145.4030 C   0  0  1  0  0  3  0  0  0  0  0  0
  188.5330  176.6250  146.4830 C   0  0  0  0  0  0  0  0  0  0  0  0
  190.8180  175.3770  146.7220 C   0  0  0  0  0  2  0  0  0  0  0  0
  186.3450  177.8690  145.9790 C   0  0  0  0  0  1  0  0  0  0  0  0
  189.7170  175.9070  145.8130 C   0  0  1  0  0  3  0  0  0  0  0  0
  191.7860  177.1030  143.1610 C   0  0  0  0  0  2  0  0  0  0  0  0
  187.8430  175.6700  147.4480 C   0  0  0  0  0  1  0  0  0  0  0  0
  192.1490  175.9910  146.3040 C   0  0  0  0  0  2  0  0  0  0  0  0
  192.8510  176.7870  144.2040 C   0  0  0  0  0  2  0  0  0  0  0  0
  188.1220  177.8590  144.2100 C   0  0  0  0  0  2  0  0  0  0  0  0
  189.0560  177.8230  147.2650 C   0  0  0  0  0  1  0  0  0  0  0  0
  190.5880  177.7530  143.8300 C   0  0  0  0  0  2  0  0  0  0  0  0
  192.4950  175.5850  144.9480 N   0  0  0  0  0  2  0  0  0  0  0  0
  189.3240  174.9570  144.8540 O   0  0  0  0  0  0  0  0  0  0  0  0
  189.2390  177.1300  143.4410 C   0  0  1  0  0  3  0  0  0  0  0  0
  189.1250  175.5730  143.5860 C   0  0  1  0  0  3  0  0  0  0  0  0
  193.8870  173.0080  142.6540 C   0  0  0  0  0  1  0  0  0  0  0  0
  192.1400  172.1350  144.2800 C   0  0  0  0  0  2  0  0  0  0  0  0
  193.1260  171.8030  143.1880 C   0  0  1  0  0  0  0  0  0  0  0  0
  191.6380  171.6020  142.9380 C   0  0  2  0  0  3  0  0  0  0  0  0
  193.8510  170.6430  143.4560 O   0  0  0  0  0  1  0  0  0  0  0  0
  1  4  1  1  0  0  0
  1 33  1  0  0  0  0
  2  9  1  0  0  0  0
  3  7  1  0  0  0  0
  5 10  1  0  0  0  0
  6  3  2  0  0  0  0
  7  1  1  0  0  0  0
  8  5  1  0  0  0  0
  8 13  1  0  0  0  0
  9  4  1  1  0  0  0
  9 29  1  0  0  0  0
 10 12  1  0  0  0  0
 10  7  2  0  0  0  0
 11  5  2  0  0  0  0
 11  6  1  0  0  0  0
 12  2  1  0  0  0  0
 13 12  2  0  0  0  0
 14 17  1  1  0  0  0
 14 15  1  0  0  0  0
 15 24  1  0  0  0  0
 15 20  1  0  0  0  0
 18 15  1  0  0  0  0
 18 16  1  1  0  0  0
 19 25  1  0  0  0  0
 19 22  1  0  0  0  0
 21 16  1  0  0  0  0
 22 26  1  0  0  0  0
 23 14  1  0  0  0  0
 26 21  1  0  0  0  0
 27 18  1  0  0  0  0
 28 29  1  0  0  0  0
 28 25  1  1  0  0  0
 28 23  1  0  0  0  0
 29 27  1  1  0  0  0
 32 30  1  6  0  0  0
 32 34  1  0  0  0  0
 32 31  1  0  0  0  0
 33 32  1  0  0  0  0
 33 31  1  1  0  0  0
M  END
>  <MODEL>
6

>  <REMARK>
 VINA RESULT:      -7.8      3.468      6.599
  Name = 
  2 active torsions:
  status: ('A' for Active; 'I' for Inactive)
    1  A    between atoms: C_1  and  C_5
    2  A    between atoms: C_23  and  C_34
                            x       y       z     vdW  Elec       q    Type
                         _______ _______ _______ _____ _____    ______ ____

>  <TORSDO>
F 2

$$$$
=
 OpenBabel11072408283D

 34 39  0  0  1  0  0  0  0  0999 V2000
  187.5830  177.4840  144.7890 C   0  0  2  0  0  3  0  0  0  0  0  0
  188.7280  176.4460  142.0400 O   0  0  0  0  0  0  0  0  0  0  0  0
  185.3720  178.5910  144.3180 C   0  0  0  0  0  3  0  0  0  0  0  0
  188.9670  177.5160  144.1880 C   0  0  0  0  0  2  0  0  0  0  0  0
  185.4290  178.0100  141.6480 C   0  0  0  0  0  0  0  0  0  0  0  0
  184.3130  178.9570  143.4790 C   0  0  0  0  0  3  0  0  0  0  0  0
  186.5110  177.9290  143.8090 C   0  0  0  0  0  0  0  0  0  0  0  0
  185.6430  177.5800  140.0500 S   0  0  0  0  0  0  0  0  0  0  0  0
  189.1330  176.2520  143.3820 C   0  0  2  0  0  3  0  0  0  0  0  0
  186.5160  177.6140  142.4220 C   0  0  0  0  0  0  0  0  0  0  0  0
  184.3580  178.6640  142.1530 N   0  0  0  0  0  0  0  0  0  0  0  0
  187.4940  176.9570  141.6240 C   0  0  0  0  0  0  0  0  0  0  0  0
  187.1510  176.8640  140.2720 C   0  0  0  0  0  3  0  0  0  0  0  0
  193.3920  175.3930  143.7090 C   0  0  1  0  0  3  0  0  0  0  0  0
  193.0560  173.9930  144.2880 C   0  0  0  0  0  0  0  0  0  0  0  0
  191.0340  172.3730  144.6400 C   0  0  0  0  0  2  0  0  0  0  0  0
  194.8770  175.7260  143.7710 C   0  0  0  0  0  1  0  0  0  0  0  0
  191.5530  173.7080  144.1230 C   0  0  1  0  0  3  0  0  0  0  0  0
  189.6080  173.8790  141.1340 C   0  0  0  0  0  2  0  0  0  0  0  0
  193.4170  173.9590  145.7670 C   0  0  0  0  0  1  0  0  0  0  0  0
  190.3610  171.6220  143.4980 C   0  0  0  0  0  2  0  0  0  0  0  0
  189.3080  172.4480  141.5620 C   0  0  0  0  0  2  0  0  0  0  0  0
  192.8580  175.6710  142.2870 C   0  0  0  0  0  2  0  0  0  0  0  0
  193.8500  172.9140  143.5620 C   0  0  0  0  0  1  0  0  0  0  0  0
  191.0780  174.1850  141.3570 C   0  0  0  0  0  2  0  0  0  0  0  0
  189.2020  172.3620  143.0130 N   0  0  0  0  0  2  0  0  0  0  0  0
  190.7340  174.7790  144.5190 O   0  0  0  0  0  0  0  0  0  0  0  0
  191.3380  175.5030  142.1020 C   0  0  1  0  0  3  0  0  0  0  0  0
  190.5620  175.7050  143.4500 C   0  0  1  0  0  3  0  0  0  0  0  0
  185.9110  176.4140  146.9470 C   0  0  0  0  0  1  0  0  0  0  0  0
  188.2000  177.4790  147.2280 C   0  0  0  0  0  2  0  0  0  0  0  0
  186.7080  177.6910  147.1690 C   0  0  1  0  0  0  0  0  0  0  0  0
  187.5930  178.2980  146.0880 C   0  0  2  0  0  3  0  0  0  0  0  0
  186.2540  178.5800  148.1410 O   0  0  0  0  0  1  0  0  0  0  0  0
  1  4  1  6  0  0  0
  1 33  1  0  0  0  0
  2  9  1  0  0  0  0
  5 11  2  0  0  0  0
  5 10  1  0  0  0  0
  6  3  2  0  0  0  0
  7  3  1  0  0  0  0
  7  1  1  0  0  0  0
  8 13  1  0  0  0  0
  8  5  1  0  0  0  0
  9 29  1  0  0  0  0
  9  4  1  1  0  0  0
 10  7  2  0  0  0  0
 11  6  1  0  0  0  0
 12  2  1  0  0  0  0
 12 10  1  0  0  0  0
 13 12  2  0  0  0  0
 14 17  1  6  0  0  0
 14 15  1  0  0  0  0
 15 20  1  0  0  0  0
 18 15  1  0  0  0  0
 18 27  1  0  0  0  0
 18 16  1  1  0  0  0
 19 25  1  0  0  0  0
 19 22  1  0  0  0  0
 21 16  1  0  0  0  0
 22 26  1  0  0  0  0
 23 14  1  0  0  0  0
 24 15  1  0  0  0  0
 26 21  1  0  0  0  0
 28 25  1  1  0  0  0
 28 23  1  0  0  0  0
 28 29  1  0  0  0  0
 29 27  1  6  0  0  0
 32 30  1  6  0  0  0
 32 31  1  0  0  0  0
 32 34  1  0  0  0  0
 33 32  1  0  0  0  0
 33 31  1  1  0  0  0
M  END
>  <MODEL>
7

>  <REMARK>
 VINA RESULT:      -7.7      1.729      2.440
  Name = 
  2 active torsions:
  status: ('A' for Active; 'I' for Inactive)
    1  A    between atoms: C_1  and  C_5
    2  A    between atoms: C_23  and  C_34
                            x       y       z     vdW  Elec       q    Type
                         _______ _______ _______ _____ _____    ______ ____

>  <TORSDO>
F 2

$$$$
=
 OpenBabel11072408283D

 34 39  0  0  1  0  0  0  0  0999 V2000
  187.0240  177.5020  143.0710 C   0  0  2  0  0  3  0  0  0  0  0  0
  188.6150  177.3780  145.7910 O   0  0  0  0  0  0  0  0  0  0  0  0
  184.7120  178.3530  143.5850 C   0  0  0  0  0  3  0  0  0  0  0  0
  187.9600  176.4710  143.6550 C   0  0  0  0  0  2  0  0  0  0  0  0
  185.2230  178.7090  146.2460 C   0  0  0  0  0  0  0  0  0  0  0  0
  183.7350  178.8740  144.4420 C   0  0  0  0  0  3  0  0  0  0  0  0
  185.9840  177.9770  144.0700 C   0  0  0  0  0  0  0  0  0  0  0  0
  185.7120  178.8470  147.8350 S   0  0  0  0  0  0  0  0  0  0  0  0
  189.0090  177.2170  144.4410 C   0  0  2  0  0  3  0  0  0  0  0  0
  186.2420  178.1890  145.4530 C   0  0  0  0  0  0  0  0  0  0  0  0
  184.0030  179.0410  145.7630 N   0  0  0  0  0  0  0  0  0  0  0  0
  187.4050  177.9270  146.2300 C   0  0  0  0  0  0  0  0  0  0  0  0
  187.2630  178.2390  147.5840 C   0  0  0  0  0  3  0  0  0  0  0  0
  192.9190  175.5540  143.4750 C   0  0  1  0  0  3  0  0  0  0  0  0
  193.3780  175.8100  144.9360 C   0  0  0  0  0  0  0  0  0  0  0  0
  192.4250  176.4840  147.2760 C   0  0  0  0  0  2  0  0  0  0  0  0
  194.0510  175.1030  142.5620 C   0  0  0  0  0  1  0  0  0  0  0  0
  192.1660  176.1910  145.8040 C   0  0  1  0  0  3  0  0  0  0  0  0
  189.0950  174.4100  146.1790 C   0  0  0  0  0  2  0  0  0  0  0  0
  194.3910  176.9470  144.9550 C   0  0  0  0  0  1  0  0  0  0  0  0
  191.5740  175.5500  148.1280 C   0  0  0  0  0  2  0  0  0  0  0  0
  189.5210  174.5100  147.6380 C   0  0  0  0  0  2  0  0  0  0  0  0
  191.7130  174.6040  143.3140 C   0  0  0  0  0  2  0  0  0  0  0  0
  194.0300  174.5590  145.5140 C   0  0  0  0  0  1  0  0  0  0  0  0
  190.3010  174.0980  145.3110 C   0  0  0  0  0  2  0  0  0  0  0  0
  190.1570  175.7960  147.8960 N   0  0  0  0  0  2  0  0  0  0  0  0
  191.3380  177.1610  145.2130 O   0  0  0  0  0  0  0  0  0  0  0  0
  190.4400  175.0070  144.0800 C   0  0  1  0  0  3  0  0  0  0  0  0
  190.3850  176.5510  144.3480 C   0  0  1  0  0  3  0  0  0  0  0  0
  188.1920  178.5230  140.5830 C   0  0  0  0  0  1  0  0  0  0  0  0
  187.4550  176.1300  141.0070 C   0  0  0  0  0  2  0  0  0  0  0  0
  187.0640  177.5050  140.5270 C   0  0  1  0  0  0  0  0  0  0  0  0
  186.4140  176.9370  141.7820 C   0  0  2  0  0  3  0  0  0  0  0  0
  186.2780  177.4670  139.3770 O   0  0  0  0  0  1  0  0  0  0  0  0
  1  4  1  1  0  0  0
  1  7  1  0  0  0  0
  2 12  1  0  0  0  0
  3  7  2  0  0  0  0
  3  6  1  0  0  0  0
  5  8  1  0  0  0  0
  6 11  2  0  0  0  0
  7 10  1  0  0  0  0
  9  4  1  6  0  0  0
  9  2  1  0  0  0  0
 10 12  1  0  0  0  0
 10  5  2  0  0  0  0
 11  5  1  0  0  0  0
 12 13  2  0  0  0  0
 13  8  1  0  0  0  0
 14 17  1  6  0  0  0
 14 15  1  0  0  0  0
 15 20  1  0  0  0  0
 15 24  1  0  0  0  0
 15 18  1  0  0  0  0
 16 21  1  0  0  0  0
 18 16  1  1  0  0  0
 19 22  1  0  0  0  0
 22 26  1  0  0  0  0
 23 14  1  0  0  0  0
 25 19  1  0  0  0  0
 26 21  1  0  0  0  0
 27 18  1  0  0  0  0
 28 23  1  1  0  0  0
 28 29  1  0  0  0  0
 28 25  1  0  0  0  0
 29  9  1  0  0  0  0
 29 27  1  1  0  0  0
 32 30  1  1  0  0  0
 32 31  1  0  0  0  0
 32 33  1  0  0  0  0
 33 31  1  1  0  0  0
 33  1  1  0  0  0  0
 34 32  1  0  0  0  0
M  END
>  <MODEL>
8

>  <REMARK>
 VINA RESULT:      -7.4      2.045      3.669
  Name = 
  2 active torsions:
  status: ('A' for Active; 'I' for Inactive)
    1  A    between atoms: C_1  and  C_5
    2  A    between atoms: C_23  and  C_34
                            x       y       z     vdW  Elec       q    Type
                         _______ _______ _______ _____ _____    ______ ____

>  <TORSDO>
F 2

$$$$
=
 OpenBabel11072408283D

 34 39  0  0  1  0  0  0  0  0999 V2000
  190.3640  175.6960  144.4410 C   0  0  2  0  0  3  0  0  0  0  0  0
  191.9700  173.9760  142.3410 O   0  0  0  0  0  0  0  0  0  0  0  0
  188.1020  176.1780  143.4510 C   0  0  0  0  0  3  0  0  0  0  0  0
  191.7960  175.7510  143.9640 C   0  0  0  0  0  2  0  0  0  0  0  0
  188.5660  174.7230  141.1850 C   0  0  0  0  0  0  0  0  0  0  0  0
  187.1150  176.0450  142.4660 C   0  0  0  0  0  3  0  0  0  0  0  0
  189.3730  175.5830  143.2960 C   0  0  0  0  0  0  0  0  0  0  0  0
  189.0320  173.8070  139.8710 S   0  0  0  0  0  0  0  0  0  0  0  0
  192.2280  174.3320  143.6870 C   0  0  2  0  0  3  0  0  0  0  0  0
  189.5910  174.8110  142.1220 C   0  0  0  0  0  0  0  0  0  0  0  0
  187.3630  175.3210  141.3440 N   0  0  0  0  0  0  0  0  0  0  0  0
  190.7400  174.0930  141.6850 C   0  0  0  0  0  0  0  0  0  0  0  0
  190.5830  173.4790  140.4400 C   0  0  0  0  0  3  0  0  0  0  0  0
  196.1640  173.5880  145.4000 C   0  0  1  0  0  3  0  0  0  0  0  0
  196.5880  172.8710  144.0900 C   0  0  0  0  0  0  0  0  0  0  0  0
  195.7770  172.4780  141.6360 C   0  0  0  0  0  2  0  0  0  0  0  0
  197.1930  173.4570  146.5150 C   0  0  0  0  0  1  0  0  0  0  0  0
  195.5320  173.1120  142.9980 C   0  0  1  0  0  3  0  0  0  0  0  0
  194.2230  176.2360  141.8690 C   0  0  0  0  0  2  0  0  0  0  0  0
  196.7130  171.3760  144.3510 C   0  0  0  0  0  1  0  0  0  0  0  0
  195.7860  173.5680  140.5710 C   0  0  0  0  0  2  0  0  0  0  0  0
  194.7130  175.6620  140.5460 C   0  0  0  0  0  2  0  0  0  0  0  0
  195.7550  175.0690  145.2440 C   0  0  0  0  0  2  0  0  0  0  0  0
  197.9320  173.4010  143.6060 C   0  0  0  0  0  1  0  0  0  0  0  0
  195.2340  175.9430  142.9630 C   0  0  0  0  0  2  0  0  0  0  0  0
  194.4860  174.2230  140.4990 N   0  0  0  0  0  2  0  0  0  0  0  0
  194.2130  172.9100  143.4420 O   0  0  0  0  0  0  0  0  0  0  0  0
  194.6220  175.3450  144.2390 C   0  0  1  0  0  3  0  0  0  0  0  0
  193.6970  174.0930  144.0450 C   0  0  1  0  0  3  0  0  0  0  0  0
  188.9590  175.0890  146.9420 C   0  0  0  0  0  1  0  0  0  0  0  0
  190.8640  176.7470  146.6710 C   0  0  0  0  0  2  0  0  0  0  0  0
  189.3740  176.5200  146.6350 C   0  0  1  0  0  0  0  0  0  0  0  0
  190.1040  176.9010  145.3530 C   0  0  2  0  0  3  0  0  0  0  0  0
  188.6600  177.5500  147.2450 O   0  0  0  0  0  1  0  0  0  0  0  0
  1  4  1  6  0  0  0
  1 33  1  0  0  0  0
  2  9  1  0  0  0  0
  5 11  2  0  0  0  0
  5 10  1  0  0  0  0
  6  3  2  0  0  0  0
  7  3  1  0  0  0  0
  7  1  1  0  0  0  0
  8 13  1  0  0  0  0
  8  5  1  0  0  0  0
  9  4  1  6  0  0  0
  9 29  1  0  0  0  0
 10  7  2  0  0  0  0
 11  6  1  0  0  0  0
 12 10  1  0  0  0  0
 12  2  1  0  0  0  0
 13 12  2  0  0  0  0
 14 17  1  1  0  0  0
 15 20  1  0  0  0  0
 15 14  1  0  0  0  0
 18 16  1  6  0  0  0
 18 27  1  0  0  0  0
 18 15  1  0  0  0  0
 19 25  1  0  0  0  0
 21 16  1  0  0  0  0
 22 19  1  0  0  0  0
 23 14  1  0  0  0  0
 24 15  1  0  0  0  0
 26 22  1  0  0  0  0
 26 21  1  0  0  0  0
 28 25  1  6  0  0  0
 28 23  1  0  0  0  0
 29 27  1  6  0  0  0
 29 28  1  0  0  0  0
 32 31  1  0  0  0  0
 32 30  1  1  0  0  0
 32 34  1  0  0  0  0
 33 32  1  0  0  0  0
 33 31  1  1  0  0  0
M  END
>  <MODEL>
9

>  <REMARK>
 VINA RESULT:      -7.4      3.156      5.099
  Name = 
  2 active torsions:
  status: ('A' for Active; 'I' for Inactive)
    1  A    between atoms: C_1  and  C_5
    2  A    between atoms: C_23  and  C_34
                            x       y       z     vdW  Elec       q    Type
                         _______ _______ _______ _____ _____    ______ ____

>  <TORSDO>
F 2

$$$$
