=
 OpenBabel11072409393D

 25 29  0  0  1  0  0  0  0  0999 V2000
  188.5890  176.2660  145.8780 C   0  0  2  0  0  0  0  0  0  0  0  0
  193.4810  175.6990  144.6070 C   0  0  2  0  0  3  0  0  0  0  0  0
  193.7260  176.4320  146.7440 N   0  0  0  0  0  2  0  0  0  0  0  0
  194.6000  176.9970  146.0120 N   0  0  0  0  0  0  0  0  0  0  0  0
  189.3850  176.6850  147.1140 C   0  0  2  0  0  3  0  0  0  0  0  0
  190.8530  176.3550  147.0310 C   0  0  0  0  0  3  0  0  0  0  0  0
  192.9100  175.5070  145.9650 C   0  0  1  0  0  3  0  0  0  0  0  0
  194.4540  176.5850  144.6590 C   0  0  0  0  0  3  0  0  0  0  0  0
  191.3780  174.8980  143.5280 C   0  0  1  0  0  3  0  0  0  0  0  0
  188.5670  175.3970  147.1190 C   0  0  0  0  0  2  0  0  0  0  0  0
  189.3330  175.6890  144.7070 C   0  0  0  0  0  3  0  0  0  0  0  0
  192.7510  175.3950  143.4210 N   0  0  0  0  0  2  0  0  0  0  0  0
  191.4500  175.8770  145.9320 C   0  0  0  0  0  0  0  0  0  0  0  0
  190.6630  175.5410  144.7100 C   0  0  0  0  0  0  0  0  0  0  0  0
  184.9310  178.3720  145.0730 C   0  0  0  0  0  0  0  0  0  0  0  0
  183.7770  179.0310  144.8130 F   0  0  0  0  0  0  0  0  0  0  0  0
  187.2760  177.9870  144.6060 C   0  0  0  0  0  3  0  0  0  0  0  0
  186.1600  176.7170  146.3430 C   0  0  0  0  0  3  0  0  0  0  0  0
  184.9690  177.3960  146.0730 C   0  0  0  0  0  3  0  0  0  0  0  0
  186.0840  178.6650  144.3380 C   0  0  0  0  0  3  0  0  0  0  0  0
  187.3230  177.0190  145.6180 C   0  0  0  0  0  0  0  0  0  0  0  0
  190.6540  175.1220  142.2030 C   0  0  0  0  0  2  0  0  0  0  0  0
  189.4910  172.9170  142.2340 O   0  0  0  0  0  1  0  0  0  0  0  0
  190.7720  173.5310  140.4340 O   0  0  0  0  0  0  0  0  0  0  0  0
  190.3060  173.8220  141.5660 C   0  0  0  0  0  0  0  0  0  0  0  0
  1 21  1  6  0  0  0
  1  5  1  0  0  0  0
  1 10  1  0  0  0  0
  2  8  1  6  0  0  0
  2  7  1  0  0  0  0
  4  3  1  0  0  0  0
  5  6  1  6  0  0  0
  5 10  1  0  0  0  0
  7 13  1  6  0  0  0
  7  3  1  0  0  0  0
  8  4  2  0  0  0  0
  9 22  1  6  0  0  0
  9 14  1  0  0  0  0
 11 14  2  0  0  0  0
 11  1  1  0  0  0  0
 12  9  1  0  0  0  0
 12  2  1  0  0  0  0
 13  6  2  0  0  0  0
 14 13  1  0  0  0  0
 15 19  1  0  0  0  0
 16 15  1  0  0  0  0
 17 21  2  0  0  0  0
 19 18  2  0  0  0  0
 20 17  1  0  0  0  0
 20 15  2  0  0  0  0
 21 18  1  0  0  0  0
 24 25  2  0  0  0  0
 25 22  1  0  0  0  0
 25 23  1  0  0  0  0
M  END
>  <MODEL>
1

>  <REMARK>
 VINA RESULT:      -7.5      0.000      0.000
  Name = 
  3 active torsions:
  status: ('A' for Active; 'I' for Inactive)
    1  A    between atoms: C_2  and  C_22
    2  A    between atoms: C_13  and  C_25
    3  A    between atoms: C_16  and  C_25
                            x       y       z     vdW  Elec       q    Type
                         _______ _______ _______ _____ _____    ______ ____

>  <TORSDO>
F 3

$$$$
=
 OpenBabel11072409393D

 25 29  0  0  1  0  0  0  0  0999 V2000
  187.9660  176.9700  143.8430 C   0  0  2  0  0  0  0  0  0  0  0  0
  191.2550  173.0940  143.7040 C   0  0  2  0  0  3  0  0  0  0  0  0
  190.3450  172.8950  141.6310 N   0  0  0  0  0  2  0  0  0  0  0  0
  190.4840  171.7340  142.1340 N   0  0  0  0  0  0  0  0  0  0  0  0
  187.7860  176.3290  142.4670 C   0  0  2  0  0  3  0  0  0  0  0  0
  188.8450  175.3120  142.1290 C   0  0  0  0  0  3  0  0  0  0  0  0
  190.8400  173.9210  142.5420 C   0  0  1  0  0  3  0  0  0  0  0  0
  191.0220  171.8230  143.4470 C   0  0  0  0  0  3  0  0  0  0  0  0
  191.0340  175.0340  145.2590 C   0  0  1  0  0  3  0  0  0  0  0  0
  188.4220  177.7100  142.6020 C   0  0  0  0  0  2  0  0  0  0  0  0
  189.0690  176.4680  144.7300 C   0  0  0  0  0  3  0  0  0  0  0  0
  191.3640  173.6270  145.0220 N   0  0  0  0  0  2  0  0  0  0  0  0
  189.7760  174.8870  142.9920 C   0  0  0  0  0  0  0  0  0  0  0  0
  189.8880  175.4770  144.3580 C   0  0  0  0  0  0  0  0  0  0  0  0
  184.4680  178.5930  145.7400 C   0  0  0  0  0  0  0  0  0  0  0  0
  183.3710  179.1070  146.3450 F   0  0  0  0  0  0  0  0  0  0  0  0
  186.0990  176.8170  145.5150 C   0  0  0  0  0  3  0  0  0  0  0  0
  186.2370  178.7770  144.0970 C   0  0  0  0  0  3  0  0  0  0  0  0
  185.1050  179.3080  144.7220 C   0  0  0  0  0  3  0  0  0  0  0  0
  184.9670  177.3500  146.1390 C   0  0  0  0  0  3  0  0  0  0  0  0
  186.7310  177.5230  144.4830 C   0  0  0  0  0  0  0  0  0  0  0  0
  190.7370  175.2400  146.7420 C   0  0  0  0  0  2  0  0  0  0  0  0
  191.3060  177.0170  148.3960 O   0  0  0  0  0  1  0  0  0  0  0  0
  192.8700  176.2930  146.8830 O   0  0  0  0  0  0  0  0  0  0  0  0
  191.7020  176.2000  147.3450 C   0  0  0  0  0  0  0  0  0  0  0  0
  1 21  1  1  0  0  0
  1 11  1  0  0  0  0
  2  8  1  1  0  0  0
  2 12  1  0  0  0  0
  3  4  1  0  0  0  0
  4  8  2  0  0  0  0
  5  6  1  1  0  0  0
  5 10  1  0  0  0  0
  5  1  1  0  0  0  0
  6 13  2  0  0  0  0
  7  3  1  6  0  0  0
  7 13  1  0  0  0  0
  7  2  1  0  0  0  0
  9 22  1  1  0  0  0
 10  1  1  0  0  0  0
 12  9  1  0  0  0  0
 13 14  1  0  0  0  0
 14 11  2  0  0  0  0
 14  9  1  0  0  0  0
 15 20  1  0  0  0  0
 15 16  1  0  0  0  0
 17 20  2  0  0  0  0
 18 21  2  0  0  0  0
 18 19  1  0  0  0  0
 19 15  2  0  0  0  0
 21 17  1  0  0  0  0
 22 25  1  0  0  0  0
 24 25  2  0  0  0  0
 25 23  1  0  0  0  0
M  END
>  <MODEL>
2

>  <REMARK>
 VINA RESULT:      -7.2      2.792      4.421
  Name = 
  3 active torsions:
  status: ('A' for Active; 'I' for Inactive)
    1  A    between atoms: C_2  and  C_22
    2  A    between atoms: C_13  and  C_25
    3  A    between atoms: C_16  and  C_25
                            x       y       z     vdW  Elec       q    Type
                         _______ _______ _______ _____ _____    ______ ____

>  <TORSDO>
F 3

$$$$
=
 OpenBabel11072409393D

 25 29  0  0  1  0  0  0  0  0999 V2000
  187.8040  177.0000  143.7420 C   0  0  2  0  0  0  0  0  0  0  0  0
  191.0030  173.3580  142.2060 C   0  0  2  0  0  3  0  0  0  0  0  0
  189.3960  173.1480  140.6130 N   0  0  0  0  0  2  0  0  0  0  0  0
  189.7730  171.9870  140.9730 N   0  0  0  0  0  0  0  0  0  0  0  0
  187.1560  176.3820  142.5030 C   0  0  2  0  0  3  0  0  0  0  0  0
  188.0650  175.4470  141.7470 C   0  0  0  0  0  3  0  0  0  0  0  0
  190.1400  174.1820  141.3220 C   0  0  1  0  0  3  0  0  0  0  0  0
  190.7580  172.0810  141.9940 C   0  0  0  0  0  3  0  0  0  0  0  0
  191.2770  175.2400  143.8220 C   0  0  1  0  0  3  0  0  0  0  0  0
  187.7230  177.7990  142.4570 C   0  0  0  0  0  2  0  0  0  0  0  0
  189.1840  176.5520  144.1300 C   0  0  0  0  0  3  0  0  0  0  0  0
  191.5680  173.8640  143.4120 N   0  0  0  0  0  2  0  0  0  0  0  0
  189.2720  175.0640  142.1810 C   0  0  0  0  0  0  0  0  0  0  0  0
  189.8560  175.6270  143.4330 C   0  0  0  0  0  0  0  0  0  0  0  0
  185.0610  178.2720  146.7960 C   0  0  0  0  0  0  0  0  0  0  0  0
  184.1890  178.6700  147.7530 F   0  0  0  0  0  0  0  0  0  0  0  0
  186.2160  178.6880  144.7080 C   0  0  0  0  0  3  0  0  0  0  0  0
  186.6010  176.6230  145.9170 C   0  0  0  0  0  3  0  0  0  0  0  0
  185.7000  177.0340  146.9040 C   0  0  0  0  0  3  0  0  0  0  0  0
  185.3160  179.0970  145.6960 C   0  0  0  0  0  3  0  0  0  0  0  0
  186.8710  177.4540  144.8200 C   0  0  0  0  0  0  0  0  0  0  0  0
  191.5460  175.3900  145.3170 C   0  0  0  0  0  2  0  0  0  0  0  0
  193.2540  176.4340  146.8040 O   0  0  0  0  0  1  0  0  0  0  0  0
  192.9890  177.1640  144.6460 O   0  0  0  0  0  0  0  0  0  0  0  0
  192.6390  176.3710  145.5600 C   0  0  0  0  0  0  0  0  0  0  0  0
  1 11  1  0  0  0  0
  1 21  1  1  0  0  0
  2  8  1  1  0  0  0
  2 12  1  0  0  0  0
  3  4  1  0  0  0  0
  4  8  2  0  0  0  0
  5  6  1  6  0  0  0
  5  1  1  0  0  0  0
  6 13  2  0  0  0  0
  7  3  1  1  0  0  0
  7 13  1  0  0  0  0
  7  2  1  0  0  0  0
  9 22  1  1  0  0  0
 10  5  1  0  0  0  0
 10  1  1  0  0  0  0
 12  9  1  0  0  0  0
 13 14  1  0  0  0  0
 14  9  1  0  0  0  0
 14 11  2  0  0  0  0
 15 19  1  0  0  0  0
 15 16  1  0  0  0  0
 17 21  2  0  0  0  0
 17 20  1  0  0  0  0
 18 19  2  0  0  0  0
 20 15  2  0  0  0  0
 21 18  1  0  0  0  0
 22 25  1  0  0  0  0
 24 25  2  0  0  0  0
 25 23  1  0  0  0  0
M  END
>  <MODEL>
3

>  <REMARK>
 VINA RESULT:      -7.2      2.706      4.448
  Name = 
  3 active torsions:
  status: ('A' for Active; 'I' for Inactive)
    1  A    between atoms: C_2  and  C_22
    2  A    between atoms: C_13  and  C_25
    3  A    between atoms: C_16  and  C_25
                            x       y       z     vdW  Elec       q    Type
                         _______ _______ _______ _____ _____    ______ ____

>  <TORSDO>
F 3

$$$$
=
 OpenBabel11072409393D

 25 29  0  0  1  0  0  0  0  0999 V2000
  190.1390  175.0600  144.6650 C   0  0  2  0  0  0  0  0  0  0  0  0
  186.0340  177.7380  143.3100 C   0  0  2  0  0  3  0  0  0  0  0  0
  186.6070  176.8720  141.2880 N   0  0  0  0  0  2  0  0  0  0  0  0
  186.2610  178.0870  141.1330 N   0  0  0  0  0  0  0  0  0  0  0  0
  189.9900  174.8460  143.1580 C   0  0  2  0  0  3  0  0  0  0  0  0
  188.6860  175.3560  142.6000 C   0  0  0  0  0  3  0  0  0  0  0  0
  186.4860  176.4690  142.6840 C   0  0  1  0  0  3  0  0  0  0  0  0
  185.9260  178.6710  142.3850 C   0  0  0  0  0  3  0  0  0  0  0  0
  186.8990  177.0350  145.5430 C   0  0  1  0  0  3  0  0  0  0  0  0
  189.7210  173.7040  144.1330 C   0  0  0  0  0  2  0  0  0  0  0  0
  189.0660  175.8200  145.3910 C   0  0  0  0  0  3  0  0  0  0  0  0
  186.2190  178.0170  144.6950 N   0  0  0  0  0  2  0  0  0  0  0  0
  187.7960  176.0640  143.3070 C   0  0  0  0  0  0  0  0  0  0  0  0
  187.9960  176.3210  144.7630 C   0  0  0  0  0  0  0  0  0  0  0  0
  194.1870  175.2400  146.0940 C   0  0  0  0  0  0  0  0  0  0  0  0
  195.4660  175.2970  146.5360 F   0  0  0  0  0  0  0  0  0  0  0  0
  192.3030  173.9500  145.2890 C   0  0  0  0  0  3  0  0  0  0  0  0
  192.1130  176.3540  145.5270 C   0  0  0  0  0  3  0  0  0  0  0  0
  193.4340  176.4120  145.9820 C   0  0  0  0  0  3  0  0  0  0  0  0
  193.6230  174.0100  145.7440 C   0  0  0  0  0  3  0  0  0  0  0  0
  191.5380  175.1210  145.1900 C   0  0  0  0  0  0  0  0  0  0  0  0
  187.4180  177.7270  146.8000 C   0  0  0  0  0  2  0  0  0  0  0  0
  185.9530  179.5680  147.6270 O   0  0  0  0  0  0  0  0  0  0  0  0
  185.6530  177.4200  148.3710 O   0  0  0  0  0  1  0  0  0  0  0  0
  186.2880  178.2200  147.6350 C   0  0  0  0  0  0  0  0  0  0  0  0
  1 21  1  1  0  0  0
  1 11  1  0  0  0  0
  2  8  1  6  0  0  0
  2 12  1  0  0  0  0
  4  3  1  0  0  0  0
  4  8  2  0  0  0  0
  5  6  1  1  0  0  0
  5 10  1  0  0  0  0
  5  1  1  0  0  0  0
  6 13  2  0  0  0  0
  7  3  1  6  0  0  0
  7 13  1  0  0  0  0
  7  2  1  0  0  0  0
  9 22  1  1  0  0  0
 10  1  1  0  0  0  0
 12  9  1  0  0  0  0
 13 14  1  0  0  0  0
 14 11  2  0  0  0  0
 14  9  1  0  0  0  0
 15 16  1  0  0  0  0
 17 20  1  0  0  0  0
 18 19  2  0  0  0  0
 19 15  1  0  0  0  0
 20 15  2  0  0  0  0
 21 17  2  0  0  0  0
 21 18  1  0  0  0  0
 22 25  1  0  0  0  0
 23 25  2  0  0  0  0
 25 24  1  0  0  0  0
M  END
>  <MODEL>
4

>  <REMARK>
 VINA RESULT:      -7.1      4.701      7.341
  Name = 
  3 active torsions:
  status: ('A' for Active; 'I' for Inactive)
    1  A    between atoms: C_2  and  C_22
    2  A    between atoms: C_13  and  C_25
    3  A    between atoms: C_16  and  C_25
                            x       y       z     vdW  Elec       q    Type
                         _______ _______ _______ _____ _____    ______ ____

>  <TORSDO>
F 3

$$$$
=
 OpenBabel11072409393D

 25 29  0  0  1  0  0  0  0  0999 V2000
  188.4870  176.5970  145.6370 C   0  0  2  0  0  0  0  0  0  0  0  0
  193.3650  175.5420  144.6620 C   0  0  2  0  0  3  0  0  0  0  0  0
  193.5790  176.4420  146.7380 N   0  0  0  0  0  2  0  0  0  0  0  0
  194.5250  176.8710  146.0030 N   0  0  0  0  0  0  0  0  0  0  0  0
  189.2610  177.0630  146.8710 C   0  0  2  0  0  3  0  0  0  0  0  0
  190.6990  176.6140  146.8880 C   0  0  0  0  0  3  0  0  0  0  0  0
  192.7240  175.5180  146.0020 C   0  0  1  0  0  3  0  0  0  0  0  0
  194.4040  176.3520  144.6850 C   0  0  0  0  0  3  0  0  0  0  0  0
  191.2510  174.8130  143.5530 C   0  0  1  0  0  3  0  0  0  0  0  0
  188.3410  175.8470  146.9460 C   0  0  0  0  0  2  0  0  0  0  0  0
  189.2300  175.8620  144.5580 C   0  0  0  0  0  3  0  0  0  0  0  0
  192.6640  175.1910  143.4720 N   0  0  0  0  0  2  0  0  0  0  0  0
  191.3020  175.9950  145.8650 C   0  0  0  0  0  0  0  0  0  0  0  0
  190.5420  175.6130  144.6390 C   0  0  0  0  0  0  0  0  0  0  0  0
  185.1080  179.0260  144.5650 C   0  0  0  0  0  0  0  0  0  0  0  0
  184.0460  179.7980  144.2320 F   0  0  0  0  0  0  0  0  0  0  0  0
  186.2610  177.6280  146.1720 C   0  0  0  0  0  3  0  0  0  0  0  0
  187.2420  178.0350  143.9930 C   0  0  0  0  0  3  0  0  0  0  0  0
  186.1460  178.8330  143.6500 C   0  0  0  0  0  3  0  0  0  0  0  0
  185.1670  178.4270  145.8270 C   0  0  0  0  0  3  0  0  0  0  0  0
  187.2980  177.4190  145.2520 C   0  0  0  0  0  0  0  0  0  0  0  0
  190.6050  174.9730  142.1800 C   0  0  0  0  0  2  0  0  0  0  0  0
  188.7830  173.6330  141.1310 O   0  0  0  0  0  0  0  0  0  0  0  0
  190.7080  172.6150  141.8510 O   0  0  0  0  0  1  0  0  0  0  0  0
  190.0470  173.6770  141.7060 C   0  0  0  0  0  0  0  0  0  0  0  0
  1 21  1  6  0  0  0
  1  5  1  0  0  0  0
  1 10  1  0  0  0  0
  2  8  1  6  0  0  0
  2  7  1  0  0  0  0
  4  3  1  0  0  0  0
  5  6  1  6  0  0  0
  5 10  1  0  0  0  0
  7 13  1  6  0  0  0
  7  3  1  0  0  0  0
  8  4  2  0  0  0  0
  9 22  1  6  0  0  0
  9 14  1  0  0  0  0
 11 14  2  0  0  0  0
 11  1  1  0  0  0  0
 12  9  1  0  0  0  0
 12  2  1  0  0  0  0
 13  6  2  0  0  0  0
 14 13  1  0  0  0  0
 15 20  1  0  0  0  0
 16 15  1  0  0  0  0
 18 21  2  0  0  0  0
 19 18  1  0  0  0  0
 19 15  2  0  0  0  0
 20 17  2  0  0  0  0
 21 17  1  0  0  0  0
 23 25  2  0  0  0  0
 25 24  1  0  0  0  0
 25 22  1  0  0  0  0
M  END
>  <MODEL>
5

>  <REMARK>
 VINA RESULT:      -7.1      0.655      1.147
  Name = 
  3 active torsions:
  status: ('A' for Active; 'I' for Inactive)
    1  A    between atoms: C_2  and  C_22
    2  A    between atoms: C_13  and  C_25
    3  A    between atoms: C_16  and  C_25
                            x       y       z     vdW  Elec       q    Type
                         _______ _______ _______ _____ _____    ______ ____

>  <TORSDO>
F 3

$$$$
=
 OpenBabel11072409393D

 25 29  0  0  1  0  0  0  0  0999 V2000
  189.5330  176.0190  145.0040 C   0  0  2  0  0  0  0  0  0  0  0  0
  185.0840  178.4520  145.3890 C   0  0  2  0  0  3  0  0  0  0  0  0
  185.8130  178.6530  147.5320 N   0  0  0  0  0  2  0  0  0  0  0  0
  184.5700  178.3840  147.5440 N   0  0  0  0  0  0  0  0  0  0  0  0
  189.4310  176.4570  146.4660 C   0  0  2  0  0  3  0  0  0  0  0  0
  188.2970  177.4120  146.7340 C   0  0  0  0  0  3  0  0  0  0  0  0
  186.3110  178.7620  146.1660 C   0  0  1  0  0  3  0  0  0  0  0  0
  184.0860  178.2190  146.2180 C   0  0  0  0  0  3  0  0  0  0  0  0
  186.4250  177.7400  143.4080 C   0  0  1  0  0  3  0  0  0  0  0  0
  190.4430  177.1110  145.5290 C   0  0  0  0  0  2  0  0  0  0  0  0
  188.4750  176.4780  144.0420 C   0  0  0  0  0  3  0  0  0  0  0  0
  185.1280  177.9670  144.0500 N   0  0  0  0  0  2  0  0  0  0  0  0
  187.3670  177.7420  145.8290 C   0  0  0  0  0  0  0  0  0  0  0  0
  187.4470  177.2450  144.4240 C   0  0  0  0  0  0  0  0  0  0  0  0
  191.4950  172.2510  144.3590 C   0  0  0  0  0  0  0  0  0  0  0  0
  192.1160  171.0640  144.1640 F   0  0  0  0  0  0  0  0  0  0  0  0
  191.5880  174.6670  144.5050 C   0  0  0  0  0  3  0  0  0  0  0  0
  189.4800  173.5130  144.8200 C   0  0  0  0  0  3  0  0  0  0  0  0
  190.1220  172.2870  144.6190 C   0  0  0  0  0  3  0  0  0  0  0  0
  192.2280  173.4400  144.3050 C   0  0  0  0  0  3  0  0  0  0  0  0
  190.2090  174.7090  144.7510 C   0  0  0  0  0  0  0  0  0  0  0  0
  186.2460  176.7840  142.2320 C   0  0  0  0  0  2  0  0  0  0  0  0
  185.0590  178.3610  140.7080 O   0  0  0  0  0  1  0  0  0  0  0  0
  187.0460  177.4080  140.0760 O   0  0  0  0  0  0  0  0  0  0  0  0
  186.1510  177.5380  140.9510 C   0  0  0  0  0  0  0  0  0  0  0  0
  1 21  1  6  0  0  0
  1 10  1  0  0  0  0
  1  5  1  0  0  0  0
  2  7  1  0  0  0  0
  2  8  1  1  0  0  0
  3  4  1  0  0  0  0
  5 10  1  6  0  0  0
  5  6  1  0  0  0  0
  7 13  1  1  0  0  0
  7  3  1  0  0  0  0
  8  4  2  0  0  0  0
  9 22  1  6  0  0  0
  9 12  1  0  0  0  0
  9 14  1  0  0  0  0
 11 14  2  0  0  0  0
 11  1  1  0  0  0  0
 12  2  1  0  0  0  0
 13  6  2  0  0  0  0
 14 13  1  0  0  0  0
 15 19  1  0  0  0  0
 16 15  1  0  0  0  0
 17 21  2  0  0  0  0
 19 18  2  0  0  0  0
 20 15  2  0  0  0  0
 20 17  1  0  0  0  0
 21 18  1  0  0  0  0
 23 25  1  0  0  0  0
 24 25  2  0  0  0  0
 25 22  1  0  0  0  0
M  END
>  <MODEL>
6

>  <REMARK>
 VINA RESULT:      -7.1      4.467      6.654
  Name = 
  3 active torsions:
  status: ('A' for Active; 'I' for Inactive)
    1  A    between atoms: C_2  and  C_22
    2  A    between atoms: C_13  and  C_25
    3  A    between atoms: C_16  and  C_25
                            x       y       z     vdW  Elec       q    Type
                         _______ _______ _______ _____ _____    ______ ____

>  <TORSDO>
F 3

$$$$
=
 OpenBabel11072409393D

 25 29  0  0  1  0  0  0  0  0999 V2000
  188.3850  176.4590  145.5330 C   0  0  2  0  0  0  0  0  0  0  0  0
  192.1710  174.7770  142.5840 C   0  0  2  0  0  3  0  0  0  0  0  0
  193.2910  176.3510  143.7800 N   0  0  0  0  0  2  0  0  0  0  0  0
  193.6630  176.4150  142.5640 N   0  0  0  0  0  0  0  0  0  0  0  0
  189.6100  177.2840  145.9290 C   0  0  2  0  0  3  0  0  0  0  0  0
  190.9000  176.7700  145.3450 C   0  0  0  0  0  3  0  0  0  0  0  0
  192.3140  175.2860  143.9720 C   0  0  1  0  0  3  0  0  0  0  0  0
  192.9570  175.4640  141.7790 C   0  0  0  0  0  3  0  0  0  0  0  0
  189.9070  173.8480  143.0770 C   0  0  1  0  0  3  0  0  0  0  0  0
  189.0300  176.2470  146.8880 C   0  0  0  0  0  2  0  0  0  0  0  0
  188.5640  175.3320  144.5570 C   0  0  0  0  0  3  0  0  0  0  0  0
  191.0140  174.0690  142.1440 N   0  0  0  0  0  2  0  0  0  0  0  0
  190.9720  175.7820  144.4450 C   0  0  0  0  0  0  0  0  0  0  0  0
  189.7530  175.0360  144.0190 C   0  0  0  0  0  0  0  0  0  0  0  0
  184.5720  178.4420  145.5880 C   0  0  0  0  0  0  0  0  0  0  0  0
  183.3690  179.0610  145.5980 F   0  0  0  0  0  0  0  0  0  0  0  0
  186.7840  178.1730  144.6370 C   0  0  0  0  0  3  0  0  0  0  0  0
  186.0890  176.7910  146.5030 C   0  0  0  0  0  3  0  0  0  0  0  0
  184.8460  177.4300  146.5120 C   0  0  0  0  0  3  0  0  0  0  0  0
  185.5400  178.8100  144.6480 C   0  0  0  0  0  3  0  0  0  0  0  0
  187.0680  177.1680  145.5720 C   0  0  0  0  0  0  0  0  0  0  0  0
  188.6360  173.5450  142.2890 C   0  0  0  0  0  2  0  0  0  0  0  0
  188.1910  175.6670  141.0580 O   0  0  0  0  0  1  0  0  0  0  0  0
  188.8980  173.7970  139.9350 O   0  0  0  0  0  0  0  0  0  0  0  0
  188.5950  174.3380  141.0300 C   0  0  0  0  0  0  0  0  0  0  0  0
  1 21  1  6  0  0  0
  1  5  1  0  0  0  0
  1 10  1  0  0  0  0
  2  8  1  6  0  0  0
  2  7  1  0  0  0  0
  4  3  1  0  0  0  0
  5  6  1  6  0  0  0
  5 10  1  0  0  0  0
  7  3  1  6  0  0  0
  7 13  1  0  0  0  0
  8  4  2  0  0  0  0
  9 22  1  6  0  0  0
  9 14  1  0  0  0  0
 11  1  1  0  0  0  0
 12  2  1  0  0  0  0
 12  9  1  0  0  0  0
 13  6  2  0  0  0  0
 14 13  1  0  0  0  0
 14 11  2  0  0  0  0
 15 16  1  0  0  0  0
 15 19  1  0  0  0  0
 17 20  1  0  0  0  0
 17 21  2  0  0  0  0
 18 19  2  0  0  0  0
 20 15  2  0  0  0  0
 21 18  1  0  0  0  0
 24 25  2  0  0  0  0
 25 23  1  0  0  0  0
 25 22  1  0  0  0  0
M  END
>  <MODEL>
7

>  <REMARK>
 VINA RESULT:      -7.1      1.499      1.921
  Name = 
  3 active torsions:
  status: ('A' for Active; 'I' for Inactive)
    1  A    between atoms: C_2  and  C_22
    2  A    between atoms: C_13  and  C_25
    3  A    between atoms: C_16  and  C_25
                            x       y       z     vdW  Elec       q    Type
                         _______ _______ _______ _____ _____    ______ ____

>  <TORSDO>
F 3

$$$$
=
 OpenBabel11072409393D

 25 29  0  0  1  0  0  0  0  0999 V2000
  188.1680  176.5890  145.0420 C   0  0  2  0  0  0  0  0  0  0  0  0
  192.9590  175.0530  145.7770 C   0  0  2  0  0  3  0  0  0  0  0  0
  192.8750  176.7630  147.2710 N   0  0  0  0  0  2  0  0  0  0  0  0
  193.9970  176.7950  146.6710 N   0  0  0  0  0  0  0  0  0  0  0  0
  188.7370  177.5220  146.1110 C   0  0  2  0  0  3  0  0  0  0  0  0
  190.0710  177.0780  146.6540 C   0  0  0  0  0  3  0  0  0  0  0  0
  192.0690  175.6390  146.8110 C   0  0  1  0  0  3  0  0  0  0  0  0
  194.0710  175.7560  145.7030 C   0  0  0  0  0  3  0  0  0  0  0  0
  191.0290  173.9820  144.6120 C   0  0  1  0  0  3  0  0  0  0  0  0
  187.6680  176.4930  146.4690 C   0  0  0  0  0  2  0  0  0  0  0  0
  189.0060  175.4320  144.5790 C   0  0  0  0  0  3  0  0  0  0  0  0
  192.4670  174.2400  144.7150 N   0  0  0  0  0  2  0  0  0  0  0  0
  190.7770  176.0550  146.1570 C   0  0  0  0  0  0  0  0  0  0  0  0
  190.2310  175.2000  145.0630 C   0  0  0  0  0  0  0  0  0  0  0  0
  185.3720  178.2660  142.2420 C   0  0  0  0  0  0  0  0  0  0  0  0
  184.4920  178.7860  141.3550 F   0  0  0  0  0  0  0  0  0  0  0  0
  187.6440  177.6790  142.8420 C   0  0  0  0  0  3  0  0  0  0  0  0
  185.8290  177.2380  144.3860 C   0  0  0  0  0  3  0  0  0  0  0  0
  184.9200  177.7740  143.4690 C   0  0  0  0  0  3  0  0  0  0  0  0
  186.7340  178.2150  141.9270 C   0  0  0  0  0  3  0  0  0  0  0  0
  187.1970  177.1990  144.0800 C   0  0  0  0  0  0  0  0  0  0  0  0
  190.6940  173.5470  143.1880 C   0  0  0  0  0  2  0  0  0  0  0  0
  191.0780  171.0890  143.0130 O   0  0  0  0  0  0  0  0  0  0  0  0
  188.9560  171.9190  143.2690 O   0  0  0  0  0  1  0  0  0  0  0  0
  190.1900  172.1460  143.1700 C   0  0  0  0  0  0  0  0  0  0  0  0
  1 21  1  6  0  0  0
  1  5  1  0  0  0  0
  1 10  1  0  0  0  0
  2  8  1  6  0  0  0
  2  7  1  0  0  0  0
  4  3  1  0  0  0  0
  5 10  1  1  0  0  0
  5  6  1  0  0  0  0
  7 13  1  6  0  0  0
  7  3  1  0  0  0  0
  8  4  2  0  0  0  0
  9 22  1  6  0  0  0
  9 12  1  0  0  0  0
  9 14  1  0  0  0  0
 11  1  1  0  0  0  0
 11 14  2  0  0  0  0
 12  2  1  0  0  0  0
 13  6  2  0  0  0  0
 14 13  1  0  0  0  0
 15 19  1  0  0  0  0
 16 15  1  0  0  0  0
 17 21  2  0  0  0  0
 19 18  2  0  0  0  0
 20 15  2  0  0  0  0
 20 17  1  0  0  0  0
 21 18  1  0  0  0  0
 23 25  2  0  0  0  0
 25 22  1  0  0  0  0
 25 24  1  0  0  0  0
M  END
>  <MODEL>
8

>  <REMARK>
 VINA RESULT:      -6.9      1.614      1.938
  Name = 
  3 active torsions:
  status: ('A' for Active; 'I' for Inactive)
    1  A    between atoms: C_2  and  C_22
    2  A    between atoms: C_13  and  C_25
    3  A    between atoms: C_16  and  C_25
                            x       y       z     vdW  Elec       q    Type
                         _______ _______ _______ _____ _____    ______ ____

>  <TORSDO>
F 3

$$$$
=
 OpenBabel11072409393D

 25 29  0  0  1  0  0  0  0  0999 V2000
  186.6400  177.7600  142.8020 C   0  0  2  0  0  0  0  0  0  0  0  0
  189.4040  175.0970  146.1380 C   0  0  2  0  0  3  0  0  0  0  0  0
  190.5170  174.5800  144.2260 N   0  0  0  0  0  2  0  0  0  0  0  0
  190.4130  173.5310  144.9370 N   0  0  0  0  0  0  0  0  0  0  0  0
  187.7240  177.0660  141.9750 C   0  0  2  0  0  3  0  0  0  0  0  0
  188.8020  176.4220  142.8080 C   0  0  0  0  0  3  0  0  0  0  0  0
  189.9170  175.7280  144.8960 C   0  0  1  0  0  3  0  0  0  0  0  0
  189.6910  173.8110  146.1300 C   0  0  0  0  0  3  0  0  0  0  0  0
  187.7100  176.9040  146.4480 C   0  0  1  0  0  3  0  0  0  0  0  0
  187.7520  178.5790  142.1770 C   0  0  0  0  0  2  0  0  0  0  0  0
  186.6960  177.6440  144.2980 C   0  0  0  0  0  3  0  0  0  0  0  0
  188.3430  175.6640  146.9030 N   0  0  0  0  0  2  0  0  0  0  0  0
  188.7580  176.3250  144.1430 C   0  0  0  0  0  0  0  0  0  0  0  0
  187.6520  176.9500  144.9260 C   0  0  0  0  0  0  0  0  0  0  0  0
  182.8130  178.2910  140.9210 C   0  0  0  0  0  0  0  0  0  0  0  0
  181.6080  178.4670  140.3300 F   0  0  0  0  0  0  0  0  0  0  0  0
  184.1580  178.1120  142.9270 C   0  0  0  0  0  3  0  0  0  0  0  0
  185.2010  177.9280  140.7480 C   0  0  0  0  0  3  0  0  0  0  0  0
  183.9570  178.1110  140.1380 C   0  0  0  0  0  3  0  0  0  0  0  0
  182.9150  178.2950  142.3160 C   0  0  0  0  0  3  0  0  0  0  0  0
  185.3050  177.9160  142.1460 C   0  0  0  0  0  0  0  0  0  0  0  0
  186.3360  177.0380  147.0990 C   0  0  0  0  0  2  0  0  0  0  0  0
  187.0610  179.0450  148.3900 O   0  0  0  0  0  1  0  0  0  0  0  0
  185.0570  179.0410  147.2750 O   0  0  0  0  0  0  0  0  0  0  0  0
  186.1150  178.4300  147.5790 C   0  0  0  0  0  0  0  0  0  0  0  0
  1 21  1  6  0  0  0
  1 11  1  0  0  0  0
  2  8  1  6  0  0  0
  2 12  1  0  0  0  0
  3  7  1  0  0  0  0
  3  4  1  0  0  0  0
  4  8  2  0  0  0  0
  5 10  1  6  0  0  0
  5  1  1  0  0  0  0
  5  6  1  0  0  0  0
  6 13  2  0  0  0  0
  7 13  1  6  0  0  0
  7  2  1  0  0  0  0
  9 12  1  0  0  0  0
  9 22  1  1  0  0  0
 10  1  1  0  0  0  0
 11 14  2  0  0  0  0
 13 14  1  0  0  0  0
 14  9  1  0  0  0  0
 15 20  1  0  0  0  0
 16 15  1  0  0  0  0
 18 21  2  0  0  0  0
 19 18  1  0  0  0  0
 19 15  2  0  0  0  0
 20 17  2  0  0  0  0
 21 17  1  0  0  0  0
 22 25  1  0  0  0  0
 24 25  2  0  0  0  0
 25 23  1  0  0  0  0
M  END
>  <MODEL>
9

>  <REMARK>
 VINA RESULT:      -6.9      3.779      5.581
  Name = 
  3 active torsions:
  status: ('A' for Active; 'I' for Inactive)
    1  A    between atoms: C_2  and  C_22
    2  A    between atoms: C_13  and  C_25
    3  A    between atoms: C_16  and  C_25
                            x       y       z     vdW  Elec       q    Type
                         _______ _______ _______ _____ _____    ______ ____

>  <TORSDO>
F 3

$$$$
