=
 OpenBabel11062421523D

 37 42  0  0  1  0  0  0  0  0999 V2000
  196.3350  174.0540  143.4810 C   0  0  1  0  0  3  0  0  0  0  0  0
  193.1230  176.6270  146.5280 N   0  0  0  0  0  2  0  0  0  0  0  0
  193.8100  172.5400  145.5610 C   0  0  0  0  0  2  0  0  0  0  0  0
  194.4520  176.1060  146.4940 C   0  0  0  0  0  3  0  0  0  0  0  0
  192.3200  174.4650  145.6650 C   0  0  0  0  0  3  0  0  0  0  0  0
  196.0850  174.3180  145.9980 C   0  0  0  0  0  2  0  0  0  0  0  0
  196.2290  173.3100  144.8360 C   0  0  1  0  0  3  0  0  0  0  0  0
  192.0220  175.9350  145.8600 C   0  0  1  0  0  3  0  0  0  0  0  0
  195.1210  172.2430  142.2350 C   0  0  1  0  0  3  0  0  0  0  0  0
  193.5720  174.0070  145.6510 C   0  0  0  0  0  0  0  0  0  0  0  0
  195.1310  172.2000  144.8590 C   0  0  2  0  0  3  0  0  0  0  0  0
  197.4830  174.8540  143.4660 O   0  0  0  0  0  1  0  0  0  0  0  0
  194.3480  170.4190  143.5220 O   0  0  0  0  0  0  0  0  0  0  0  0
  196.3920  173.0820  142.3130 C   0  0  0  0  0  2  0  0  0  0  0  0
  194.6980  174.8840  146.0060 C   0  0  0  0  0  0  0  0  0  0  0  0
  194.8710  171.5270  143.5300 C   0  0  0  0  0  0  0  0  0  0  0  0
  193.9060  173.0900  141.8980 C   0  0  0  0  0  2  0  0  0  0  0  0
  192.7150  172.2120  141.5580 C   0  0  0  0  0  2  0  0  0  0  0  0
  190.9770  173.8070  142.3850 O   0  0  0  0  0  0  0  0  0  0  0  0
  191.1280  171.6940  143.2630 O   0  0  0  0  0  1  0  0  0  0  0  0
  191.5770  172.5560  142.4590 C   0  0  0  0  0  0  0  0  0  0  0  0
  190.7560  176.0710  146.6750 C   0  0  0  0  0  2  0  0  0  0  0  0
  188.7760  175.3030  145.3970 O   0  0  0  0  0  0  0  0  0  0  0  0
  189.5350  176.4120  145.8230 C   0  0  1  0  0  0  0  0  0  0  0  0
  188.2380  176.0520  146.4740 C   0  0  1  0  0  3  0  0  0  0  0  0
  186.9600  176.7380  146.0600 C   0  0  0  0  0  0  0  0  0  0  0  0
  186.5240  176.7620  144.8320 N   0  0  0  0  0  0  0  0  0  0  0  0
  185.1450  178.1060  146.8500 C   0  0  0  0  0  0  0  0  0  0  0  0
  184.9490  177.4880  143.2430 N   0  0  0  0  0  2  0  0  0  0  0  0
  184.7180  178.4220  145.4530 C   0  0  0  0  0  2  0  0  0  0  0  0
  184.4880  178.6800  147.8860 F   0  0  0  0  0  0  0  0  0  0  0  0
  185.3510  177.4840  144.4710 C   0  0  0  0  0  0  0  0  0  0  0  0
  186.1920  177.3730  147.0940 N   0  0  0  0  0  0  0  0  0  0  0  0
  189.6120  177.5460  144.7900 C   0  0  0  0  0  2  0  0  0  0  0  0
  189.0800  177.9310  142.4460 C   0  0  0  0  0  2  0  0  0  0  0  0
  189.7690  177.0240  143.3720 C   0  0  1  0  0  3  0  0  0  0  0  0
  190.4750  177.9740  142.6030 O   0  0  0  0  0  0  0  0  0  0  0  0
  1 12  1  1  0  0  0
  1  7  1  0  0  0  0
  3 10  1  0  0  0  0
  4  2  1  0  0  0  0
  5  8  1  0  0  0  0
  6 15  1  0  0  0  0
  7 11  1  0  0  0  0
  7  6  1  1  0  0  0
  8  2  1  0  0  0  0
  8 22  1  1  0  0  0
  9 17  1  1  0  0  0
  9 14  1  0  0  0  0
  9 16  1  0  0  0  0
 10  5  2  0  0  0  0
 10 15  1  0  0  0  0
 11  3  1  6  0  0  0
 13 16  2  0  0  0  0
 14  1  1  0  0  0  0
 15  4  2  0  0  0  0
 16 11  1  0  0  0  0
 18 17  1  0  0  0  0
 18 21  1  0  0  0  0
 19 21  2  0  0  0  0
 21 20  1  0  0  0  0
 23 24  1  0  0  0  0
 23 25  1  0  0  0  0
 24 34  1  6  0  0  0
 24 25  1  0  0  0  0
 24 22  1  0  0  0  0
 25 26  1  6  0  0  0
 26 33  1  0  0  0  0
 27 26  2  0  0  0  0
 28 33  2  0  0  0  0
 28 31  1  0  0  0  0
 29 32  2  0  0  0  0
 30 28  1  0  0  0  0
 32 27  1  0  0  0  0
 32 30  1  0  0  0  0
 35 37  1  0  0  0  0
 35 36  1  0  0  0  0
 36 34  1  1  0  0  0
 37 36  1  0  0  0  0
M  END
>  <MODEL>
1

>  <REMARK>
 VINA RESULT:      -7.3      0.000      0.000
  Name = 
  8 active torsions:
  status: ('A' for Active; 'I' for Inactive)
    1  A    between atoms: C_1  and  C_17
    2  A    between atoms: C_7  and  C_32
    3  A    between atoms: C_7  and  C_34
    4  A    between atoms: C_11  and  C_34
    5  A    between atoms: C_23  and  C_27
    6  A    between atoms: C_23  and  C_36
    7  A    between atoms: C_25  and  C_32
    8  A    between atoms: C_26  and  C_27
                            x       y       z     vdW  Elec       q    Type
                         _______ _______ _______ _____ _____    ______ ____

>  <TORSDO>
F 8

$$$$
=
 OpenBabel11062421523D

 37 42  0  0  1  0  0  0  0  0999 V2000
  196.6260  174.2070  143.4280 C   0  0  1  0  0  3  0  0  0  0  0  0
  193.2360  176.3870  146.5860 N   0  0  0  0  0  2  0  0  0  0  0  0
  194.1660  172.4180  145.3640 C   0  0  0  0  0  2  0  0  0  0  0  0
  194.5930  175.9440  146.5390 C   0  0  0  0  0  3  0  0  0  0  0  0
  192.5680  174.2450  145.5700 C   0  0  0  0  0  3  0  0  0  0  0  0
  196.3310  174.2880  145.9540 C   0  0  0  0  0  2  0  0  0  0  0  0
  196.5460  173.3690  144.7300 C   0  0  1  0  0  3  0  0  0  0  0  0
  192.1840  175.6800  145.8570 C   0  0  1  0  0  3  0  0  0  0  0  0
  195.5330  172.4170  142.0470 C   0  0  1  0  0  3  0  0  0  0  0  0
  193.8440  173.8610  145.5460 C   0  0  0  0  0  0  0  0  0  0  0  0
  195.5130  172.2000  144.6630 C   0  0  2  0  0  3  0  0  0  0  0  0
  197.7270  175.0690  143.4850 O   0  0  0  0  0  1  0  0  0  0  0  0
  194.8490  170.4710  143.1990 O   0  0  0  0  0  0  0  0  0  0  0  0
  196.7530  173.3190  142.2000 C   0  0  0  0  0  2  0  0  0  0  0  0
  194.9140  174.7740  145.9760 C   0  0  0  0  0  0  0  0  0  0  0  0
  195.3080  171.6040  143.2880 C   0  0  0  0  0  0  0  0  0  0  0  0
  194.2760  173.2160  141.7470 C   0  0  0  0  0  2  0  0  0  0  0  0
  194.1320  173.4520  140.2540 C   0  0  0  0  0  2  0  0  0  0  0  0
  194.2540  175.8310  141.0100 O   0  0  0  0  0  1  0  0  0  0  0  0
  194.4590  175.3050  138.7870 O   0  0  0  0  0  0  0  0  0  0  0  0
  194.2750  174.9090  139.9700 C   0  0  0  0  0  0  0  0  0  0  0  0
  190.9030  175.6900  146.6590 C   0  0  0  0  0  2  0  0  0  0  0  0
  188.7660  175.2970  145.4660 O   0  0  0  0  0  0  0  0  0  0  0  0
  189.7170  176.2530  145.8760 C   0  0  1  0  0  0  0  0  0  0  0  0
  188.4100  176.0930  146.5840 C   0  0  1  0  0  3  0  0  0  0  0  0
  187.2450  176.9920  146.2490 C   0  0  0  0  0  0  0  0  0  0  0  0
  186.5290  176.8640  145.1690 N   0  0  0  0  0  0  0  0  0  0  0  0
  186.0260  178.9380  146.9650 C   0  0  0  0  0  0  0  0  0  0  0  0
  184.7950  177.6250  143.7720 N   0  0  0  0  0  2  0  0  0  0  0  0
  185.3370  179.0460  145.6430 C   0  0  0  0  0  2  0  0  0  0  0  0
  185.7910  179.8800  147.9090 F   0  0  0  0  0  0  0  0  0  0  0  0
  185.4850  177.7800  144.8540 C   0  0  0  0  0  0  0  0  0  0  0  0
  186.9180  178.0200  147.1960 N   0  0  0  0  0  0  0  0  0  0  0  0
  189.9330  177.3880  144.8650 C   0  0  0  0  0  2  0  0  0  0  0  0
  188.9860  177.8550  142.6720 C   0  0  0  0  0  2  0  0  0  0  0  0
  189.8160  176.9090  143.4280 C   0  0  1  0  0  3  0  0  0  0  0  0
  190.3870  177.8740  142.5690 O   0  0  0  0  0  0  0  0  0  0  0  0
  1 12  1  1  0  0  0
  1  7  1  0  0  0  0
  3 10  1  0  0  0  0
  4  2  1  0  0  0  0
  5  8  1  0  0  0  0
  6 15  1  0  0  0  0
  7  6  1  1  0  0  0
  8  2  1  0  0  0  0
  8 22  1  1  0  0  0
  9 17  1  1  0  0  0
  9 14  1  0  0  0  0
  9 16  1  0  0  0  0
 10  5  2  0  0  0  0
 10 15  1  0  0  0  0
 11  7  1  0  0  0  0
 11  3  1  6  0  0  0
 13 16  2  0  0  0  0
 14  1  1  0  0  0  0
 15  4  2  0  0  0  0
 16 11  1  0  0  0  0
 18 17  1  0  0  0  0
 20 21  2  0  0  0  0
 21 18  1  0  0  0  0
 21 19  1  0  0  0  0
 23 24  1  0  0  0  0
 23 25  1  0  0  0  0
 24 34  1  6  0  0  0
 24 25  1  0  0  0  0
 24 22  1  0  0  0  0
 25 26  1  6  0  0  0
 26 33  1  0  0  0  0
 27 26  2  0  0  0  0
 28 33  2  0  0  0  0
 28 31  1  0  0  0  0
 29 32  2  0  0  0  0
 30 28  1  0  0  0  0
 32 27  1  0  0  0  0
 32 30  1  0  0  0  0
 35 36  1  0  0  0  0
 36 34  1  1  0  0  0
 37 35  1  0  0  0  0
 37 36  1  0  0  0  0
M  END
>  <MODEL>
2

>  <REMARK>
 VINA RESULT:      -7.2      1.319      1.606
  Name = 
  8 active torsions:
  status: ('A' for Active; 'I' for Inactive)
    1  A    between atoms: C_1  and  C_17
    2  A    between atoms: C_7  and  C_32
    3  A    between atoms: C_7  and  C_34
    4  A    between atoms: C_11  and  C_34
    5  A    between atoms: C_23  and  C_27
    6  A    between atoms: C_23  and  C_36
    7  A    between atoms: C_25  and  C_32
    8  A    between atoms: C_26  and  C_27
                            x       y       z     vdW  Elec       q    Type
                         _______ _______ _______ _____ _____    ______ ____

>  <TORSDO>
F 8

$$$$
=
 OpenBabel11062421523D

 37 42  0  0  1  0  0  0  0  0999 V2000
  193.8570  171.1160  144.6450 C   0  0  1  0  0  3  0  0  0  0  0  0
  189.4320  172.6110  142.5470 N   0  0  0  0  0  2  0  0  0  0  0  0
  193.5590  173.4220  141.8910 C   0  0  0  0  0  2  0  0  0  0  0  0
  190.3810  171.5450  142.5080 C   0  0  0  0  0  3  0  0  0  0  0  0
  191.3080  174.2020  142.4020 C   0  0  0  0  0  3  0  0  0  0  0  0
  192.6960  170.6830  142.4240 C   0  0  0  0  0  2  0  0  0  0  0  0
  194.0130  171.1210  143.1030 C   0  0  1  0  0  3  0  0  0  0  0  0
  189.8560  173.9930  142.7710 C   0  0  1  0  0  3  0  0  0  0  0  0
  195.4050  173.0700  144.9460 C   0  0  1  0  0  3  0  0  0  0  0  0
  192.1660  173.1830  142.3620 C   0  0  0  0  0  0  0  0  0  0  0  0
  194.5700  172.4640  142.5330 C   0  0  2  0  0  3  0  0  0  0  0  0
  193.5850  169.8170  145.0910 O   0  0  0  0  0  1  0  0  0  0  0  0
  196.2790  174.0310  142.9720 O   0  0  0  0  0  0  0  0  0  0  0  0
  195.1130  171.6240  145.3350 C   0  0  0  0  0  2  0  0  0  0  0  0
  191.6950  171.7960  142.4980 C   0  0  0  0  0  0  0  0  0  0  0  0
  195.5040  173.2140  143.4550 C   0  0  0  0  0  0  0  0  0  0  0  0
  194.3390  174.0200  145.4630 C   0  0  0  0  0  2  0  0  0  0  0  0
  194.9580  175.3320  145.9120 C   0  0  0  0  0  2  0  0  0  0  0  0
  192.6610  175.6300  146.8510 O   0  0  0  0  0  0  0  0  0  0  0  0
  194.1980  177.3280  146.9750 O   0  0  0  0  0  1  0  0  0  0  0  0
  193.9200  176.1580  146.5920 C   0  0  0  0  0  0  0  0  0  0  0  0
  189.0040  174.9350  141.9510 C   0  0  0  0  0  2  0  0  0  0  0  0
  188.0780  177.2340  141.9470 O   0  0  0  0  0  0  0  0  0  0  0  0
  188.5600  176.1690  142.7350 C   0  0  1  0  0  0  0  0  0  0  0  0
  187.0970  176.4540  142.6120 C   0  0  1  0  0  3  0  0  0  0  0  0
  186.3880  177.2730  143.6630 C   0  0  0  0  0  0  0  0  0  0  0  0
  185.8710  176.7600  144.7420 N   0  0  0  0  0  0  0  0  0  0  0  0
  185.6170  179.4850  144.2080 C   0  0  0  0  0  0  0  0  0  0  0  0
  184.6430  177.0140  146.7330 N   0  0  0  0  0  2  0  0  0  0  0  0
  184.7630  178.9610  145.3170 C   0  0  0  0  0  2  0  0  0  0  0  0
  185.5880  180.8090  143.9230 F   0  0  0  0  0  0  0  0  0  0  0  0
  185.1450  177.5560  145.6730 C   0  0  0  0  0  0  0  0  0  0  0  0
  186.3110  178.6900  143.4470 N   0  0  0  0  0  0  0  0  0  0  0  0
  189.3500  176.6190  143.9720 C   0  0  0  0  0  2  0  0  0  0  0  0
  191.5070  177.7260  144.1910 C   0  0  0  0  0  2  0  0  0  0  0  0
  190.1270  177.9010  143.7240 C   0  0  1  0  0  3  0  0  0  0  0  0
  191.1850  177.6380  142.8270 O   0  0  0  0  0  0  0  0  0  0  0  0
  1 12  1  1  0  0  0
  1 14  1  0  0  0  0
  2  8  1  0  0  0  0
  3 10  1  0  0  0  0
  4  2  1  0  0  0  0
  5  8  1  0  0  0  0
  6 15  1  0  0  0  0
  7  6  1  6  0  0  0
  7  1  1  0  0  0  0
  8 22  1  6  0  0  0
  9 14  1  0  0  0  0
  9 17  1  6  0  0  0
 10  5  2  0  0  0  0
 10 15  1  0  0  0  0
 11  3  1  1  0  0  0
 11  7  1  0  0  0  0
 11 16  1  0  0  0  0
 13 16  2  0  0  0  0
 15  4  2  0  0  0  0
 16  9  1  0  0  0  0
 17 18  1  0  0  0  0
 18 21  1  0  0  0  0
 21 19  2  0  0  0  0
 21 20  1  0  0  0  0
 23 25  1  0  0  0  0
 23 24  1  0  0  0  0
 24 22  1  6  0  0  0
 24 34  1  0  0  0  0
 25 24  1  0  0  0  0
 25 26  1  1  0  0  0
 26 27  2  0  0  0  0
 27 32  1  0  0  0  0
 28 30  1  0  0  0  0
 30 32  1  0  0  0  0
 31 28  1  0  0  0  0
 32 29  2  0  0  0  0
 33 26  1  0  0  0  0
 33 28  2  0  0  0  0
 36 34  1  1  0  0  0
 36 35  1  0  0  0  0
 37 36  1  0  0  0  0
 37 35  1  0  0  0  0
M  END
>  <MODEL>
3

>  <REMARK>
 VINA RESULT:      -7.2      2.210      4.213
  Name = 
  8 active torsions:
  status: ('A' for Active; 'I' for Inactive)
    1  A    between atoms: C_1  and  C_17
    2  A    between atoms: C_7  and  C_32
    3  A    between atoms: C_7  and  C_34
    4  A    between atoms: C_11  and  C_34
    5  A    between atoms: C_23  and  C_27
    6  A    between atoms: C_23  and  C_36
    7  A    between atoms: C_25  and  C_32
    8  A    between atoms: C_26  and  C_27
                            x       y       z     vdW  Elec       q    Type
                         _______ _______ _______ _____ _____    ______ ____

>  <TORSDO>
F 8

$$$$
=
 OpenBabel11062421523D

 37 42  0  0  1  0  0  0  0  0999 V2000
  186.6560  176.4920  144.7630 C   0  0  1  0  0  3  0  0  0  0  0  0
  190.8960  175.4780  147.4490 N   0  0  0  0  0  2  0  0  0  0  0  0
  189.9280  177.8100  144.0230 C   0  0  0  0  0  2  0  0  0  0  0  0
  189.7490  176.3280  147.4540 C   0  0  0  0  0  3  0  0  0  0  0  0
  191.2110  176.0210  145.0670 C   0  0  0  0  0  3  0  0  0  0  0  0
  188.1410  177.8340  146.3330 C   0  0  0  0  0  2  0  0  0  0  0  0
  187.4560  177.8060  144.9480 C   0  0  1  0  0  3  0  0  0  0  0  0
  191.5250  175.0640  146.1960 C   0  0  1  0  0  3  0  0  0  0  0  0
  187.1200  176.3950  142.2970 C   0  0  1  0  0  3  0  0  0  0  0  0
  190.1380  176.8110  145.1080 C   0  0  0  0  0  0  0  0  0  0  0  0
  188.4440  178.1100  143.7780 C   0  0  2  0  0  3  0  0  0  0  0  0
  185.6370  176.4160  145.7200 O   0  0  0  0  0  1  0  0  0  0  0  0
  188.4910  178.1070  141.4180 O   0  0  0  0  0  0  0  0  0  0  0  0
  186.0420  176.4030  143.3750 C   0  0  0  0  0  2  0  0  0  0  0  0
  189.3240  176.9140  146.3280 C   0  0  0  0  0  0  0  0  0  0  0  0
  188.0130  177.5950  142.4240 C   0  0  0  0  0  0  0  0  0  0  0  0
  187.9720  175.1380  142.3600 C   0  0  0  0  0  2  0  0  0  0  0  0
  188.4040  174.7110  140.9690 C   0  0  0  0  0  2  0  0  0  0  0  0
  188.2720  172.6290  139.5930 O   0  0  0  0  0  0  0  0  0  0  0  0
  188.1970  172.5160  141.8820 O   0  0  0  0  0  1  0  0  0  0  0  0
  188.2690  173.2310  140.8460 C   0  0  0  0  0  0  0  0  0  0  0  0
  193.0250  174.9930  146.3690 C   0  0  0  0  0  2  0  0  0  0  0  0
  194.4170  174.6790  144.3420 O   0  0  0  0  0  0  0  0  0  0  0  0
  193.6940  174.0460  145.3730 C   0  0  1  0  0  0  0  0  0  0  0  0
  195.1870  174.1220  145.3940 C   0  0  1  0  0  3  0  0  0  0  0  0
  196.0170  172.9660  144.8920 C   0  0  0  0  0  0  0  0  0  0  0  0
  196.3870  172.8350  143.6500 N   0  0  0  0  0  0  0  0  0  0  0  0
  197.0260  170.8770  145.5310 C   0  0  0  0  0  0  0  0  0  0  0  0
  197.4550  171.5920  141.9620 N   0  0  0  0  0  2  0  0  0  0  0  0
  197.2560  170.5020  144.1030 C   0  0  0  0  0  2  0  0  0  0  0  0
  197.3610  169.9990  146.5060 F   0  0  0  0  0  0  0  0  0  0  0  0
  197.1060  171.6900  143.2020 C   0  0  0  0  0  0  0  0  0  0  0  0
  196.4230  171.9830  145.8570 N   0  0  0  0  0  0  0  0  0  0  0  0
  192.9740  172.7640  144.9300 C   0  0  0  0  0  2  0  0  0  0  0  0
  191.8140  171.5880  143.1430 C   0  0  0  0  0  2  0  0  0  0  0  0
  192.5260  172.8260  143.4800 C   0  0  1  0  0  3  0  0  0  0  0  0
  191.1160  172.7740  143.4260 O   0  0  0  0  0  0  0  0  0  0  0  0
  1  7  1  0  0  0  0
  1 12  1  1  0  0  0
  2  4  1  0  0  0  0
  3 10  1  0  0  0  0
  5 10  2  0  0  0  0
  5  8  1  0  0  0  0
  7  6  1  1  0  0  0
  8 22  1  1  0  0  0
  8  2  1  0  0  0  0
  9 17  1  1  0  0  0
  9 16  1  0  0  0  0
  9 14  1  0  0  0  0
 10 15  1  0  0  0  0
 11  3  1  1  0  0  0
 11  7  1  0  0  0  0
 13 16  2  0  0  0  0
 14  1  1  0  0  0  0
 15  6  1  0  0  0  0
 15  4  2  0  0  0  0
 16 11  1  0  0  0  0
 18 17  1  0  0  0  0
 19 21  2  0  0  0  0
 21 18  1  0  0  0  0
 21 20  1  0  0  0  0
 23 24  1  0  0  0  0
 23 25  1  0  0  0  0
 24 34  1  6  0  0  0
 24 25  1  0  0  0  0
 24 22  1  0  0  0  0
 25 26  1  6  0  0  0
 26 33  1  0  0  0  0
 27 26  2  0  0  0  0
 28 33  2  0  0  0  0
 28 31  1  0  0  0  0
 29 32  2  0  0  0  0
 30 28  1  0  0  0  0
 32 27  1  0  0  0  0
 32 30  1  0  0  0  0
 35 37  1  0  0  0  0
 35 36  1  0  0  0  0
 36 34  1  1  0  0  0
 37 36  1  0  0  0  0
M  END
>  <MODEL>
4

>  <REMARK>
 VINA RESULT:      -7.0      3.748      8.623
  Name = 
  8 active torsions:
  status: ('A' for Active; 'I' for Inactive)
    1  A    between atoms: C_1  and  C_17
    2  A    between atoms: C_7  and  C_32
    3  A    between atoms: C_7  and  C_34
    4  A    between atoms: C_11  and  C_34
    5  A    between atoms: C_23  and  C_27
    6  A    between atoms: C_23  and  C_36
    7  A    between atoms: C_25  and  C_32
    8  A    between atoms: C_26  and  C_27
                            x       y       z     vdW  Elec       q    Type
                         _______ _______ _______ _____ _____    ______ ____

>  <TORSDO>
F 8

$$$$
=
 OpenBabel11062421523D

 37 42  0  0  1  0  0  0  0  0999 V2000
  197.1010  173.2700  142.2990 C   0  0  1  0  0  3  0  0  0  0  0  0
  193.5890  176.1710  144.6390 N   0  0  0  0  0  2  0  0  0  0  0  0
  196.3750  173.1820  145.8300 C   0  0  0  0  0  2  0  0  0  0  0  0
  194.9370  176.2110  144.1700 C   0  0  0  0  0  3  0  0  0  0  0  0
  194.0830  173.9940  145.6800 C   0  0  0  0  0  3  0  0  0  0  0  0
  197.1920  175.2320  143.9160 C   0  0  0  0  0  2  0  0  0  0  0  0
  197.6960  173.8000  143.6290 C   0  0  1  0  0  3  0  0  0  0  0  0
  193.0140  174.9410  145.1810 C   0  0  1  0  0  3  0  0  0  0  0  0
  196.9960  170.9030  143.1300 C   0  0  1  0  0  3  0  0  0  0  0  0
  195.3360  174.0660  145.2320 C   0  0  0  0  0  0  0  0  0  0  0  0
  197.4920  172.8330  144.8380 C   0  0  2  0  0  3  0  0  0  0  0  0
  197.5290  174.0700  141.2340 O   0  0  0  0  0  1  0  0  0  0  0  0
  197.6930  170.5390  145.3580 O   0  0  0  0  0  0  0  0  0  0  0  0
  197.5150  171.8310  142.0370 C   0  0  0  0  0  2  0  0  0  0  0  0
  195.7670  175.1820  144.3760 C   0  0  0  0  0  0  0  0  0  0  0  0
  197.4510  171.3630  144.4840 C   0  0  0  0  0  0  0  0  0  0  0  0
  195.4790  170.8150  143.1230 C   0  0  0  0  0  2  0  0  0  0  0  0
  195.0170  169.4520  143.6070 C   0  0  0  0  0  2  0  0  0  0  0  0
  194.3690  170.3310  145.8550 O   0  0  0  0  0  1  0  0  0  0  0  0
  192.8530  169.1830  144.5740 O   0  0  0  0  0  0  0  0  0  0  0  0
  194.0250  169.6310  144.7050 C   0  0  0  0  0  0  0  0  0  0  0  0
  192.0810  175.2670  146.3250 C   0  0  0  0  0  2  0  0  0  0  0  0
  189.7010  175.1170  147.0040 O   0  0  0  0  0  0  0  0  0  0  0  0
  190.6070  175.2010  145.9270 C   0  0  1  0  0  0  0  0  0  0  0  0
  189.8160  176.3860  146.3820 C   0  0  1  0  0  3  0  0  0  0  0  0
  188.5300  176.7570  145.6870 C   0  0  0  0  0  0  0  0  0  0  0  0
  188.4860  177.3510  144.5280 N   0  0  0  0  0  0  0  0  0  0  0  0
  186.1350  176.7880  145.9200 C   0  0  0  0  0  0  0  0  0  0  0  0
  187.2460  178.3400  142.7910 N   0  0  0  0  0  2  0  0  0  0  0  0
  185.9900  177.7040  144.7480 C   0  0  0  0  0  2  0  0  0  0  0  0
  185.0300  176.4260  146.6150 F   0  0  0  0  0  0  0  0  0  0  0  0
  187.2520  177.7510  143.9410 C   0  0  0  0  0  0  0  0  0  0  0  0
  187.3040  176.4090  146.3490 N   0  0  0  0  0  0  0  0  0  0  0  0
  190.1810  174.3950  144.6920 C   0  0  0  0  0  2  0  0  0  0  0  0
  189.7180  172.1790  143.7960 C   0  0  0  0  0  2  0  0  0  0  0  0
  189.8280  172.9580  145.0350 C   0  0  1  0  0  3  0  0  0  0  0  0
  190.8670  172.1070  144.5990 O   0  0  0  0  0  0  0  0  0  0  0  0
  1 12  1  6  0  0  0
  1  7  1  0  0  0  0
  2  8  1  0  0  0  0
  4 15  2  0  0  0  0
  4  2  1  0  0  0  0
  6 15  1  0  0  0  0
  7  6  1  1  0  0  0
  7 11  1  0  0  0  0
  8  5  1  0  0  0  0
  8 22  1  1  0  0  0
  9 17  1  1  0  0  0
  9 16  1  0  0  0  0
 10  5  2  0  0  0  0
 10  3  1  0  0  0  0
 11  3  1  6  0  0  0
 14  1  1  0  0  0  0
 14  9  1  0  0  0  0
 15 10  1  0  0  0  0
 16 11  1  0  0  0  0
 16 13  2  0  0  0  0
 17 18  1  0  0  0  0
 18 21  1  0  0  0  0
 20 21  2  0  0  0  0
 21 19  1  0  0  0  0
 24 34  1  6  0  0  0
 24 22  1  0  0  0  0
 24 25  1  0  0  0  0
 24 23  1  0  0  0  0
 25 26  1  6  0  0  0
 25 23  1  0  0  0  0
 26 33  1  0  0  0  0
 27 26  2  0  0  0  0
 28 33  2  0  0  0  0
 28 31  1  0  0  0  0
 29 32  2  0  0  0  0
 30 28  1  0  0  0  0
 32 27  1  0  0  0  0
 32 30  1  0  0  0  0
 35 37  1  0  0  0  0
 35 36  1  0  0  0  0
 36 34  1  6  0  0  0
 37 36  1  0  0  0  0
M  END
>  <MODEL>
5

>  <REMARK>
 VINA RESULT:      -7.0      2.009      2.966
  Name = 
  8 active torsions:
  status: ('A' for Active; 'I' for Inactive)
    1  A    between atoms: C_1  and  C_17
    2  A    between atoms: C_7  and  C_32
    3  A    between atoms: C_7  and  C_34
    4  A    between atoms: C_11  and  C_34
    5  A    between atoms: C_23  and  C_27
    6  A    between atoms: C_23  and  C_36
    7  A    between atoms: C_25  and  C_32
    8  A    between atoms: C_26  and  C_27
                            x       y       z     vdW  Elec       q    Type
                         _______ _______ _______ _____ _____    ______ ____

>  <TORSDO>
F 8

$$$$
=
 OpenBabel11062421523D

 37 42  0  0  1  0  0  0  0  0999 V2000
  187.7780  176.4130  145.5060 C   0  0  1  0  0  3  0  0  0  0  0  0
  192.3850  174.9260  147.1760 N   0  0  0  0  0  2  0  0  0  0  0  0
  190.9240  177.5500  144.1610 C   0  0  0  0  0  2  0  0  0  0  0  0
  191.3370  175.8510  147.4680 C   0  0  0  0  0  3  0  0  0  0  0  0
  192.2430  175.6080  144.8140 C   0  0  0  0  0  3  0  0  0  0  0  0
  189.6610  177.5380  146.7940 C   0  0  0  0  0  2  0  0  0  0  0  0
  188.7050  177.6530  145.5860 C   0  0  1  0  0  3  0  0  0  0  0  0
  192.7050  174.5570  145.7980 C   0  0  1  0  0  3  0  0  0  0  0  0
  187.7130  176.4540  142.9960 C   0  0  1  0  0  3  0  0  0  0  0  0
  191.2710  176.4660  145.1220 C   0  0  0  0  0  0  0  0  0  0  0  0
  189.4510  177.9680  144.2520 C   0  0  2  0  0  3  0  0  0  0  0  0
  186.9770  176.3420  146.6510 O   0  0  0  0  0  1  0  0  0  0  0  0
  189.0070  178.1240  141.9380 O   0  0  0  0  0  0  0  0  0  0  0  0
  186.8850  176.4620  144.2770 C   0  0  0  0  0  2  0  0  0  0  0  0
  190.7380  176.5410  146.4910 C   0  0  0  0  0  0  0  0  0  0  0  0
  188.7080  177.5780  142.9940 C   0  0  0  0  0  0  0  0  0  0  0  0
  188.4530  175.1400  142.8110 C   0  0  0  0  0  2  0  0  0  0  0  0
  188.4860  174.7430  141.3460 C   0  0  0  0  0  2  0  0  0  0  0  0
  188.1950  172.6660  139.9860 O   0  0  0  0  0  0  0  0  0  0  0  0
  188.3360  172.5490  142.2720 O   0  0  0  0  0  1  0  0  0  0  0  0
  188.3200  173.2650  141.2340 C   0  0  0  0  0  0  0  0  0  0  0  0
  194.1980  174.3700  145.6460 C   0  0  0  0  0  2  0  0  0  0  0  0
  195.4870  172.9930  144.0380 O   0  0  0  0  0  0  0  0  0  0  0  0
  194.5710  172.9890  145.1100 C   0  0  1  0  0  0  0  0  0  0  0  0
  196.0140  172.6470  145.3080 C   0  0  1  0  0  3  0  0  0  0  0  0
  196.4610  171.2060  145.3240 C   0  0  0  0  0  0  0  0  0  0  0  0
  196.7860  170.5440  144.2500 N   0  0  0  0  0  0  0  0  0  0  0  0
  196.7890  169.2900  146.7420 C   0  0  0  0  0  0  0  0  0  0  0  0
  197.4450  168.5360  143.2160 N   0  0  0  0  0  2  0  0  0  0  0  0
  196.9070  168.3820  145.5610 C   0  0  0  0  0  2  0  0  0  0  0  0
  196.8350  168.7600  147.9880 F   0  0  0  0  0  0  0  0  0  0  0  0
  197.1310  169.1630  144.3010 C   0  0  0  0  0  0  0  0  0  0  0  0
  196.5450  170.5600  146.6040 N   0  0  0  0  0  0  0  0  0  0  0  0
  193.5060  171.8880  145.0130 C   0  0  0  0  0  2  0  0  0  0  0  0
  191.7250  171.2950  143.4620 C   0  0  0  0  0  2  0  0  0  0  0  0
  193.1680  171.5380  143.5730 C   0  0  1  0  0  3  0  0  0  0  0  0
  192.2900  172.5130  143.0510 O   0  0  0  0  0  0  0  0  0  0  0  0
  1  7  1  0  0  0  0
  1 12  1  1  0  0  0
  2  4  1  0  0  0  0
  3 10  1  0  0  0  0
  5 10  2  0  0  0  0
  5  8  1  0  0  0  0
  7  6  1  1  0  0  0
  8 22  1  1  0  0  0
  8  2  1  0  0  0  0
  9 17  1  1  0  0  0
  9 14  1  0  0  0  0
 10 15  1  0  0  0  0
 11  3  1  1  0  0  0
 11  7  1  0  0  0  0
 13 16  2  0  0  0  0
 14  1  1  0  0  0  0
 15  6  1  0  0  0  0
 15  4  2  0  0  0  0
 16  9  1  0  0  0  0
 16 11  1  0  0  0  0
 18 17  1  0  0  0  0
 19 21  2  0  0  0  0
 21 18  1  0  0  0  0
 21 20  1  0  0  0  0
 23 24  1  0  0  0  0
 23 25  1  0  0  0  0
 24 34  1  1  0  0  0
 24 25  1  0  0  0  0
 24 22  1  0  0  0  0
 25 26  1  6  0  0  0
 26 33  1  0  0  0  0
 27 32  1  0  0  0  0
 27 26  2  0  0  0  0
 28 31  1  0  0  0  0
 29 32  2  0  0  0  0
 30 28  1  0  0  0  0
 32 30  1  0  0  0  0
 33 28  2  0  0  0  0
 35 36  1  0  0  0  0
 36 34  1  1  0  0  0
 37 35  1  0  0  0  0
 37 36  1  0  0  0  0
M  END
>  <MODEL>
6

>  <REMARK>
 VINA RESULT:      -7.0      4.028      8.785
  Name = 
  8 active torsions:
  status: ('A' for Active; 'I' for Inactive)
    1  A    between atoms: C_1  and  C_17
    2  A    between atoms: C_7  and  C_32
    3  A    between atoms: C_7  and  C_34
    4  A    between atoms: C_11  and  C_34
    5  A    between atoms: C_23  and  C_27
    6  A    between atoms: C_23  and  C_36
    7  A    between atoms: C_25  and  C_32
    8  A    between atoms: C_26  and  C_27
                            x       y       z     vdW  Elec       q    Type
                         _______ _______ _______ _____ _____    ______ ____

>  <TORSDO>
F 8

$$$$
=
 OpenBabel11062421523D

 37 42  0  0  1  0  0  0  0  0999 V2000
  185.4290  178.2980  142.9470 C   0  0  1  0  0  3  0  0  0  0  0  0
  190.5360  178.0580  142.6580 N   0  0  0  0  0  0  0  0  0  0  0  0
  187.5020  176.0890  144.9010 C   0  0  0  0  0  2  0  0  0  0  0  0
  189.3580  177.5750  142.0120 C   0  0  0  0  0  3  0  0  0  0  0  0
  189.5300  177.4380  144.8190 C   0  0  0  0  0  3  0  0  0  0  0  0
  187.0910  176.5920  142.0540 C   0  0  0  0  0  2  0  0  0  0  0  0
  185.8610  176.8100  142.9640 C   0  0  1  0  0  3  0  0  0  0  0  0
  190.5730  178.2680  144.1040 C   0  0  1  0  0  3  0  0  0  0  0  0
  184.6700  178.2460  145.3400 C   0  0  1  0  0  3  0  0  0  0  0  0
  188.4470  176.9900  144.1840 C   0  0  0  0  0  0  0  0  0  0  0  0
  186.0600  176.2280  144.3990 C   0  0  2  0  0  3  0  0  0  0  0  0
  185.0450  178.6680  141.6530 O   0  0  0  0  0  1  0  0  0  0  0  0
  184.9750  176.2080  146.4960 O   0  0  0  0  0  0  0  0  0  0  0  0
  184.2730  178.5540  143.9000 C   0  0  0  0  0  2  0  0  0  0  0  0
  188.3160  177.1310  142.7260 C   0  0  1  0  0  3  0  0  0  0  0  0
  185.1800  176.8400  145.4660 C   0  0  0  0  0  0  0  0  0  0  0  0
  185.7330  179.2040  145.8490 C   0  0  0  0  0  2  0  0  0  0  0  0
  185.5890  179.4240  147.3450 C   0  0  0  0  0  2  0  0  0  0  0  0
  187.5760  177.9160  147.5060 O   0  0  0  0  0  0  0  0  0  0  0  0
  187.2320  179.5580  149.0690 O   0  0  0  0  0  1  0  0  0  0  0  0
  186.8300  178.9650  148.0310 C   0  0  0  0  0  0  0  0  0  0  0  0
  191.9380  177.9050  144.6450 C   0  0  0  0  0  2  0  0  0  0  0  0
  192.1030  175.7400  143.4480 O   0  0  0  0  0  0  0  0  0  0  0  0
  192.1740  176.3960  144.6940 C   0  0  1  0  0  0  0  0  0  0  0  0
  193.4050  175.9660  143.9620 C   0  0  1  0  0  3  0  0  0  0  0  0
  194.0770  174.6580  144.3020 C   0  0  0  0  0  0  0  0  0  0  0  0
  193.6990  173.5100  143.8160 N   0  0  0  0  0  0  0  0  0  0  0  0
  195.7820  173.6470  145.6650 C   0  0  0  0  0  0  0  0  0  0  0  0
  193.9100  171.1690  143.7200 N   0  0  0  0  0  2  0  0  0  0  0  0
  195.2540  172.2770  145.3860 C   0  0  0  0  0  2  0  0  0  0  0  0
  196.8290  173.7900  146.5130 F   0  0  0  0  0  0  0  0  0  0  0  0
  194.3130  172.2900  144.2210 C   0  0  0  0  0  0  0  0  0  0  0  0
  195.2020  174.7110  145.1930 N   0  0  0  0  0  0  0  0  0  0  0  0
  191.6220  175.5690  145.8630 C   0  0  0  0  0  2  0  0  0  0  0  0
  191.1860  176.6250  148.0130 C   0  0  0  0  0  2  0  0  0  0  0  0
  192.2230  175.9830  147.1960 C   0  0  1  0  0  3  0  0  0  0  0  0
  191.5650  175.2920  148.2370 O   0  0  0  0  0  0  0  0  0  0  0  0
  1 12  1  6  0  0  0
  1  7  1  0  0  0  0
  1 14  1  0  0  0  0
  2  8  1  0  0  0  0
  4  2  2  0  0  0  0
  6 15  1  0  0  0  0
  7  6  1  6  0  0  0
  7 11  1  0  0  0  0
  8 22  1  1  0  0  0
  8  5  1  0  0  0  0
  9 16  1  0  0  0  0
  9 17  1  6  0  0  0
 10  5  2  0  0  0  0
 10  3  1  0  0  0  0
 11  3  1  1  0  0  0
 11 16  1  0  0  0  0
 14  9  1  0  0  0  0
 15  4  1  6  0  0  0
 15 10  1  0  0  0  0
 16 13  2  0  0  0  0
 17 18  1  0  0  0  0
 18 21  1  0  0  0  0
 19 21  2  0  0  0  0
 21 20  1  0  0  0  0
 23 25  1  0  0  0  0
 23 24  1  0  0  0  0
 24 22  1  1  0  0  0
 24 34  1  0  0  0  0
 25 26  1  1  0  0  0
 25 24  1  0  0  0  0
 26 33  1  0  0  0  0
 27 32  1  0  0  0  0
 27 26  2  0  0  0  0
 28 31  1  0  0  0  0
 29 32  2  0  0  0  0
 30 28  1  0  0  0  0
 32 30  1  0  0  0  0
 33 28  2  0  0  0  0
 35 37  1  0  0  0  0
 36 34  1  6  0  0  0
 36 35  1  0  0  0  0
 36 37  1  0  0  0  0
M  END
>  <MODEL>
7

>  <REMARK>
 VINA RESULT:      -6.8      3.554      9.097
  Name = 
  8 active torsions:
  status: ('A' for Active; 'I' for Inactive)
    1  A    between atoms: C_1  and  C_17
    2  A    between atoms: C_7  and  C_32
    3  A    between atoms: C_7  and  C_34
    4  A    between atoms: C_11  and  C_34
    5  A    between atoms: C_23  and  C_27
    6  A    between atoms: C_23  and  C_36
    7  A    between atoms: C_25  and  C_32
    8  A    between atoms: C_26  and  C_27
                            x       y       z     vdW  Elec       q    Type
                         _______ _______ _______ _____ _____    ______ ____

>  <TORSDO>
F 8

$$$$
=
 OpenBabel11062421523D

 37 42  0  0  1  0  0  0  0  0999 V2000
  195.2640  173.4350  144.6470 C   0  0  1  0  0  3  0  0  0  0  0  0
  190.3780  172.7550  143.2740 N   0  0  0  0  0  2  0  0  0  0  0  0
  193.7670  174.7470  141.6420 C   0  0  0  0  0  2  0  0  0  0  0  0
  191.6490  172.1050  143.2350 C   0  0  0  0  0  3  0  0  0  0  0  0
  191.4710  174.8050  142.4570 C   0  0  0  0  0  3  0  0  0  0  0  0
  194.0870  172.0980  142.8310 C   0  0  0  0  0  2  0  0  0  0  0  0
  195.2110  173.1150  143.1320 C   0  0  1  0  0  3  0  0  0  0  0  0
  190.2680  174.2070  143.1510 C   0  0  1  0  0  3  0  0  0  0  0  0
  195.9740  175.8130  144.2600 C   0  0  1  0  0  3  0  0  0  0  0  0
  192.6410  174.1670  142.4270 C   0  0  0  0  0  0  0  0  0  0  0  0
  195.1380  174.3830  142.2240 C   0  0  2  0  0  3  0  0  0  0  0  0
  195.5660  172.2740  145.3680 O   0  0  0  0  0  1  0  0  0  0  0  0
  196.1610  176.5000  142.0080 O   0  0  0  0  0  0  0  0  0  0  0  0
  196.3070  174.4970  144.9580 C   0  0  0  0  0  2  0  0  0  0  0  0
  192.7560  172.7820  142.9070 C   0  0  0  0  0  0  0  0  0  0  0  0
  195.8230  175.6110  142.7810 C   0  0  0  0  0  0  0  0  0  0  0  0
  194.7000  176.4340  144.8060 C   0  0  0  0  0  2  0  0  0  0  0  0
  194.4720  176.0160  146.2480 C   0  0  0  0  0  2  0  0  0  0  0  0
  192.3630  174.6920  146.0210 O   0  0  0  0  0  0  0  0  0  0  0  0
  192.3650  176.6960  147.1360 O   0  0  0  0  0  1  0  0  0  0  0  0
  193.0100  175.8330  146.4810 C   0  0  0  0  0  0  0  0  0  0  0  0
  189.0260  174.5670  142.3680 C   0  0  0  0  0  2  0  0  0  0  0  0
  187.6300  176.5730  141.9510 O   0  0  0  0  0  0  0  0  0  0  0  0
  188.3170  175.8060  142.9140 C   0  0  1  0  0  0  0  0  0  0  0  0
  186.8290  175.7460  142.7780 C   0  0  1  0  0  3  0  0  0  0  0  0
  185.9470  176.5810  143.6730 C   0  0  0  0  0  0  0  0  0  0  0  0
  185.1530  177.5130  143.2280 N   0  0  0  0  0  0  0  0  0  0  0  0
  185.3780  177.0330  145.9660 C   0  0  0  0  0  0  0  0  0  0  0  0
  183.6170  179.2480  143.6380 N   0  0  0  0  0  2  0  0  0  0  0  0
  184.6610  178.2880  145.5870 C   0  0  0  0  0  2  0  0  0  0  0  0
  185.4830  176.7040  147.2760 F   0  0  0  0  0  0  0  0  0  0  0  0
  184.3930  178.3300  144.1130 C   0  0  0  0  0  0  0  0  0  0  0  0
  185.9880  176.3010  145.0800 N   0  0  0  0  0  0  0  0  0  0  0  0
  188.9760  176.6430  144.0190 C   0  0  0  0  0  2  0  0  0  0  0  0
  190.8190  178.2310  143.9580 C   0  0  0  0  0  2  0  0  0  0  0  0
  189.4390  178.0000  143.5170 C   0  0  1  0  0  3  0  0  0  0  0  0
  190.5350  177.8240  142.6440 O   0  0  0  0  0  0  0  0  0  0  0  0
  1 14  1  0  0  0  0
  1 12  1  1  0  0  0
  3 10  1  0  0  0  0
  4  2  1  0  0  0  0
  5  8  1  0  0  0  0
  6 15  1  0  0  0  0
  7  6  1  1  0  0  0
  7  1  1  0  0  0  0
  8 22  1  6  0  0  0
  8  2  1  0  0  0  0
  9 17  1  1  0  0  0
  9 14  1  0  0  0  0
 10  5  2  0  0  0  0
 10 15  1  0  0  0  0
 11  3  1  1  0  0  0
 11 16  1  0  0  0  0
 11  7  1  0  0  0  0
 13 16  2  0  0  0  0
 15  4  2  0  0  0  0
 16  9  1  0  0  0  0
 17 18  1  0  0  0  0
 18 21  1  0  0  0  0
 19 21  2  0  0  0  0
 21 20  1  0  0  0  0
 23 25  1  0  0  0  0
 23 24  1  0  0  0  0
 24 22  1  6  0  0  0
 24 34  1  0  0  0  0
 25 24  1  0  0  0  0
 25 26  1  1  0  0  0
 26 33  1  0  0  0  0
 27 26  2  0  0  0  0
 27 32  1  0  0  0  0
 28 31  1  0  0  0  0
 29 32  2  0  0  0  0
 30 28  1  0  0  0  0
 32 30  1  0  0  0  0
 33 28  2  0  0  0  0
 36 35  1  0  0  0  0
 36 34  1  1  0  0  0
 37 36  1  0  0  0  0
 37 35  1  0  0  0  0
M  END
>  <MODEL>
8

>  <REMARK>
 VINA RESULT:      -6.7      2.137      3.787
  Name = 
  8 active torsions:
  status: ('A' for Active; 'I' for Inactive)
    1  A    between atoms: C_1  and  C_17
    2  A    between atoms: C_7  and  C_32
    3  A    between atoms: C_7  and  C_34
    4  A    between atoms: C_11  and  C_34
    5  A    between atoms: C_23  and  C_27
    6  A    between atoms: C_23  and  C_36
    7  A    between atoms: C_25  and  C_32
    8  A    between atoms: C_26  and  C_27
                            x       y       z     vdW  Elec       q    Type
                         _______ _______ _______ _____ _____    ______ ____

>  <TORSDO>
F 8

$$$$
=
 OpenBabel11062421523D

 37 42  0  0  1  0  0  0  0  0999 V2000
  195.2330  172.8340  142.3970 C   0  0  1  0  0  3  0  0  0  0  0  0
  190.9210  173.7700  144.9960 N   0  0  0  0  0  2  0  0  0  0  0  0
  194.0670  176.1120  143.3420 C   0  0  0  0  0  2  0  0  0  0  0  0
  191.3930  173.5160  143.6730 C   0  0  0  0  0  3  0  0  0  0  0  0
  192.7390  175.4110  145.2610 C   0  0  0  0  0  3  0  0  0  0  0  0
  192.9840  173.8710  141.8150 C   0  0  0  0  0  2  0  0  0  0  0  0
  194.5170  174.0510  141.7560 C   0  0  1  0  0  3  0  0  0  0  0  0
  191.7270  174.5250  145.9540 C   0  0  1  0  0  3  0  0  0  0  0  0
  197.1230  174.2350  143.2750 C   0  0  1  0  0  3  0  0  0  0  0  0
  193.1500  175.1530  144.0200 C   0  0  0  0  0  0  0  0  0  0  0  0
  194.9870  175.4270  142.3240 C   0  0  2  0  0  3  0  0  0  0  0  0
  194.9340  171.6730  141.6760 O   0  0  0  0  0  1  0  0  0  0  0  0
  196.9860  176.5580  142.8700 O   0  0  0  0  0  0  0  0  0  0  0  0
  196.7410  173.0260  142.4280 C   0  0  0  0  0  2  0  0  0  0  0  0
  192.5020  174.1080  143.2140 C   0  0  0  0  0  0  0  0  0  0  0  0
  196.4250  175.4720  142.7900 C   0  0  0  0  0  0  0  0  0  0  0  0
  196.7890  174.0230  144.7420 C   0  0  0  0  0  2  0  0  0  0  0  0
  197.4700  172.7750  145.2750 C   0  0  0  0  0  2  0  0  0  0  0  0
  195.0930  172.1910  145.7800 O   0  0  0  0  0  0  0  0  0  0  0  0
  196.7740  170.6900  146.2020 O   0  0  0  0  0  1  0  0  0  0  0  0
  196.4360  171.8340  145.7920 C   0  0  0  0  0  0  0  0  0  0  0  0
  190.8330  175.3890  146.8150 C   0  0  0  0  0  2  0  0  0  0  0  0
  188.6840  175.1190  145.6110 O   0  0  0  0  0  0  0  0  0  0  0  0
  189.6830  176.0200  146.0310 C   0  0  1  0  0  0  0  0  0  0  0  0
  188.3660  175.9260  146.7330 C   0  0  1  0  0  3  0  0  0  0  0  0
  187.2530  176.8880  146.3980 C   0  0  0  0  0  0  0  0  0  0  0  0
  186.5260  176.7980  145.3220 N   0  0  0  0  0  0  0  0  0  0  0  0
  186.1490  178.9030  147.1110 C   0  0  0  0  0  0  0  0  0  0  0  0
  184.8330  177.6510  143.9280 N   0  0  0  0  0  2  0  0  0  0  0  0
  185.4620  179.0450  145.7920 C   0  0  0  0  0  2  0  0  0  0  0  0
  185.9710  179.8600  148.0530 F   0  0  0  0  0  0  0  0  0  0  0  0
  185.5350  177.7710  145.0070 C   0  0  0  0  0  0  0  0  0  0  0  0
  186.9890  177.9370  147.3430 N   0  0  0  0  0  0  0  0  0  0  0  0
  189.9650  177.1470  145.0280 C   0  0  0  0  0  2  0  0  0  0  0  0
  189.4190  177.9080  142.7810 C   0  0  0  0  0  2  0  0  0  0  0  0
  189.7080  176.7200  143.5930 C   0  0  1  0  0  3  0  0  0  0  0  0
  190.6840  177.2990  142.7530 O   0  0  0  0  0  0  0  0  0  0  0  0
  1 12  1  6  0  0  0
  1 14  1  0  0  0  0
  2  8  1  0  0  0  0
  3 10  1  0  0  0  0
  4  2  1  0  0  0  0
  5  8  1  0  0  0  0
  6 15  1  0  0  0  0
  7  6  1  1  0  0  0
  7 11  1  0  0  0  0
  7  1  1  0  0  0  0
  8 22  1  6  0  0  0
  9 17  1  1  0  0  0
 10  5  2  0  0  0  0
 11 16  1  0  0  0  0
 11  3  1  1  0  0  0
 14  9  1  0  0  0  0
 15  4  2  0  0  0  0
 15 10  1  0  0  0  0
 16 13  2  0  0  0  0
 16  9  1  0  0  0  0
 17 18  1  0  0  0  0
 18 21  1  0  0  0  0
 19 21  2  0  0  0  0
 21 20  1  0  0  0  0
 23 24  1  0  0  0  0
 23 25  1  0  0  0  0
 24 34  1  6  0  0  0
 24 25  1  0  0  0  0
 24 22  1  0  0  0  0
 25 26  1  6  0  0  0
 26 33  1  0  0  0  0
 27 26  2  0  0  0  0
 28 33  2  0  0  0  0
 28 31  1  0  0  0  0
 29 32  2  0  0  0  0
 30 28  1  0  0  0  0
 32 27  1  0  0  0  0
 32 30  1  0  0  0  0
 35 36  1  0  0  0  0
 36 34  1  1  0  0  0
 37 35  1  0  0  0  0
 37 36  1  0  0  0  0
M  END
>  <MODEL>
9

>  <REMARK>
 VINA RESULT:      -6.6      1.666      3.305
  Name = 
  8 active torsions:
  status: ('A' for Active; 'I' for Inactive)
    1  A    between atoms: C_1  and  C_17
    2  A    between atoms: C_7  and  C_32
    3  A    between atoms: C_7  and  C_34
    4  A    between atoms: C_11  and  C_34
    5  A    between atoms: C_23  and  C_27
    6  A    between atoms: C_23  and  C_36
    7  A    between atoms: C_25  and  C_32
    8  A    between atoms: C_26  and  C_27
                            x       y       z     vdW  Elec       q    Type
                         _______ _______ _______ _____ _____    ______ ____

>  <TORSDO>
F 8

$$$$
