=
 OpenBabel11072409023D

 47 53  0  0  1  0  0  0  0  0999 V2000
  191.4170  175.9840  147.9150 C   0  0  0  0  0  3  0  0  0  0  0  0
  193.3450  176.3850  146.3650 C   0  0  0  0  0  0  0  0  0  0  0  0
  192.6480  176.6160  147.5850 N   0  0  0  0  0  2  0  0  0  0  0  0
  190.2750  176.5660  145.8240 C   0  0  0  0  0  0  0  0  0  0  0  0
  191.3050  176.7140  144.9520 C   0  0  0  0  0  0  0  0  0  0  0  0
  194.7650  176.2720  146.4530 N   0  0  0  0  0  1  0  0  0  0  0  0
  190.4060  175.9460  147.1100 N   0  0  0  0  0  0  0  0  0  0  0  0
  192.7120  176.2820  145.1730 C   0  0  0  0  0  0  0  0  0  0  0  0
  191.0380  177.2590  143.6960 O   0  0  0  0  0  1  0  0  0  0  0  0
  183.9830  178.1240  141.5100 C   0  0  0  0  0  0  0  0  0  0  0  0
  182.9120  178.3760  140.5110 C   0  0  0  0  0  1  0  0  0  0  0  0
  186.1780  177.3500  141.9950 C   0  0  0  0  0  3  0  0  0  0  0  0
  188.8920  176.9580  145.4560 C   0  0  0  0  0  0  0  0  0  0  0  0
  185.1400  177.8620  147.5140 C   0  0  0  0  0  2  0  0  0  0  0  0
  185.6340  178.3140  146.1630 C   0  0  0  0  0  0  0  0  0  0  0  0
  188.3430  176.9250  144.1710 C   0  0  0  0  0  3  0  0  0  0  0  0
  186.9150  177.7370  145.6560 C   0  0  0  0  0  0  0  0  0  0  0  0
  185.6670  179.2870  147.3160 C   0  0  0  0  0  2  0  0  0  0  0  0
  185.1700  177.5900  141.1130 N   0  0  0  0  0  0  0  0  0  0  0  0
  186.0080  177.6550  143.3480 C   0  0  0  0  0  0  0  0  0  0  0  0
  187.0710  177.4260  144.3390 C   0  0  0  0  0  0  0  0  0  0  0  0
  184.7850  178.2100  143.7830 C   0  0  0  0  0  0  0  0  0  0  0  0
  183.7690  178.4440  142.8540 C   0  0  0  0  0  3  0  0  0  0  0  0
  188.0240  177.4660  146.3620 N   0  0  0  0  0  2  0  0  0  0  0  0
  184.5820  178.5450  145.1710 N   0  0  0  0  0  2  0  0  0  0  0  0
  194.0230  174.7160  143.6980 C   0  0  0  0  0  3  0  0  0  0  0  0
  193.4130  175.8790  143.9240 C   0  0  0  0  0  3  0  0  0  0  0  0
  193.4750  173.5970  140.6330 C   0  0  1  0  0  3  0  0  0  0  0  0
  194.6930  174.3780  142.3890 C   0  0  2  0  0  0  0  0  0  0  0  0
  194.4760  175.4820  141.4000 C   0  0  0  0  0  3  0  0  0  0  0  0
  193.7650  175.0310  140.3970 C   0  0  0  0  0  3  0  0  0  0  0  0
  194.0420  173.2300  141.8740 O   0  0  0  0  0  0  0  0  0  0  0  0
  197.7730  174.3950  144.1770 C   0  0  0  0  0  2  0  0  0  0  0  0
  196.3300  172.7680  143.2360 C   0  0  0  0  0  2  0  0  0  0  0  0
  196.6890  175.0430  143.4550 N   0  0  0  0  0  2  0  0  0  0  0  0
  196.1300  174.0710  142.5960 N   0  0  2  0  0  0  0  0  0  0  0  0
  197.4470  172.9270  144.2310 C   0  0  2  0  0  3  0  0  0  0  0  0
  196.9870  172.5270  145.6010 C   0  0  0  0  0  0  0  0  0  0  0  0
  197.0680  173.3450  146.5590 O   0  0  0  0  0  0  0  0  0  0  0  0
  197.3100  169.9880  145.8590 C   0  0  0  0  0  1  0  0  0  0  0  0
  195.1850  171.0370  145.9960 O   0  0  0  0  0  0  0  0  0  0  0  0
  196.4250  171.1850  145.8260 C   0  0  0  0  0  0  0  0  0  0  0  0
  192.0030  173.3420  140.6430 C   0  0  0  0  0  0  0  0  0  0  0  0
  191.3540  173.3220  139.5590 O   0  0  0  0  0  0  0  0  0  0  0  0
  191.3570  173.1370  141.8650 O   0  0  0  0  0  0  0  0  0  0  0  0
  190.5120  174.1160  142.4580 C   0  0  0  0  0  2  0  0  0  0  0  0
  189.7030  173.5030  143.5850 C   0  0  0  0  0  1  0  0  0  0  0  0
  2  6  1  0  0  0  0
  2  3  1  0  0  0  0
  3  1  1  0  0  0  0
  4  7  1  0  0  0  0
  5  8  1  0  0  0  0
  5  4  2  0  0  0  0
  7  1  2  0  0  0  0
  8  2  2  0  0  0  0
  9  5  1  0  0  0  0
 10 23  1  0  0  0  0
 11 10  1  0  0  0  0
 12 20  2  0  0  0  0
 13  4  1  0  0  0  0
 13 24  1  0  0  0  0
 15 18  1  0  0  0  0
 15 14  1  0  0  0  0
 16 21  1  0  0  0  0
 16 13  2  0  0  0  0
 17 15  1  0  0  0  0
 17 24  1  0  0  0  0
 18 14  1  0  0  0  0
 19 10  2  0  0  0  0
 19 12  1  0  0  0  0
 20 22  1  0  0  0  0
 20 21  1  0  0  0  0
 21 17  2  0  0  0  0
 22 25  1  0  0  0  0
 23 22  2  0  0  0  0
 25 15  1  0  0  0  0
 26 27  2  0  0  0  0
 27  8  1  0  0  0  0
 28 43  1  1  0  0  0
 28 32  1  0  0  0  0
 29 36  1  0  0  0  0
 29 26  1  1  0  0  0
 30 29  1  0  0  0  0
 31 28  1  0  0  0  0
 31 30  2  0  0  0  0
 32 29  1  0  0  0  0
 33 37  1  0  0  0  0
 34 37  1  0  0  0  0
 35 33  1  0  0  0  0
 36 34  1  1  0  0  0
 36 35  1  0  0  0  0
 37 38  1  1  0  0  0
 38 42  1  0  0  0  0
 38 39  2  0  0  0  0
 42 40  1  0  0  0  0
 42 41  2  0  0  0  0
 43 45  1  0  0  0  0
 44 43  2  0  0  0  0
 45 46  1  0  0  0  0
 46 47  1  0  0  0  0
M  END
>  <MODEL>
1

>  <REMARK>
 VINA RESULT:      -8.6      0.000      0.000
  Name = 
  9 active torsions:
  status: ('A' for Active; 'I' for Inactive)
    1  A    between atoms: C_2  and  O_26
    2  A    between atoms: C_5  and  C_8
    3  A    between atoms: C_8  and  O_26
    4  A    between atoms: C_13  and  C_14
    5  A    between atoms: C_16  and  C_20
    6  A    between atoms: C_16  and  N_36
    7  A    between atoms: C_19  and  C_46
    8  A    between atoms: C_19  and  C_47
    9  A    between atoms: C_27  and  C_42
                            x       y       z     vdW  Elec       q    Type
                         _______ _______ _______ _____ _____    ______ ____

>  <TORSDO>
F 9

$$$$
=
 OpenBabel11072409023D

 47 53  0  0  1  0  0  0  0  0999 V2000
  191.3460  175.9310  148.0370 C   0  0  0  0  0  3  0  0  0  0  0  0
  193.2790  176.2020  146.4640 C   0  0  0  0  0  0  0  0  0  0  0  0
  192.5970  176.5040  147.6770 N   0  0  0  0  0  2  0  0  0  0  0  0
  190.2150  176.4750  145.9300 C   0  0  0  0  0  0  0  0  0  0  0  0
  191.2440  176.5510  145.0470 C   0  0  0  0  0  0  0  0  0  0  0  0
  194.6940  176.0400  146.5500 N   0  0  0  0  0  1  0  0  0  0  0  0
  190.3300  175.8990  147.2380 N   0  0  0  0  0  0  0  0  0  0  0  0
  192.6360  176.0770  145.2790 C   0  0  0  0  0  0  0  0  0  0  0  0
  190.9900  177.0580  143.7730 O   0  0  0  0  0  1  0  0  0  0  0  0
  183.9670  178.1220  141.5830 C   0  0  0  0  0  0  0  0  0  0  0  0
  182.9030  178.3810  140.5790 C   0  0  0  0  0  1  0  0  0  0  0  0
  186.1360  177.2880  142.0860 C   0  0  0  0  0  3  0  0  0  0  0  0
  188.8440  176.9030  145.5520 C   0  0  0  0  0  0  0  0  0  0  0  0
  185.1310  177.9940  147.5900 C   0  0  0  0  0  2  0  0  0  0  0  0
  185.6370  178.3900  146.2250 C   0  0  0  0  0  0  0  0  0  0  0  0
  188.2910  176.8520  144.2700 C   0  0  0  0  0  3  0  0  0  0  0  0
  186.8960  177.7550  145.7340 C   0  0  0  0  0  0  0  0  0  0  0  0
  185.7060  179.3930  147.3500 C   0  0  0  0  0  2  0  0  0  0  0  0
  185.1350  177.5360  141.1990 N   0  0  0  0  0  0  0  0  0  0  0  0
  185.9800  177.6370  143.4300 C   0  0  0  0  0  0  0  0  0  0  0  0
  187.0380  177.4000  144.4260 C   0  0  0  0  0  0  0  0  0  0  0  0
  184.7780  178.2460  143.8510 C   0  0  0  0  0  0  0  0  0  0  0  0
  183.7680  178.4880  142.9170 C   0  0  0  0  0  3  0  0  0  0  0  0
  187.9970  177.4660  146.4450 N   0  0  0  0  0  2  0  0  0  0  0  0
  184.5900  178.6270  145.2290 N   0  0  0  0  0  2  0  0  0  0  0  0
  193.1640  174.4100  143.4660 C   0  0  0  0  0  3  0  0  0  0  0  0
  193.3150  175.6010  144.0430 C   0  0  0  0  0  3  0  0  0  0  0  0
  196.1340  174.2320  142.0180 C   0  0  1  0  0  3  0  0  0  0  0  0
  193.8760  174.0140  142.1960 C   0  0  2  0  0  0  0  0  0  0  0  0
  194.5240  172.6730  142.3660 C   0  0  0  0  0  3  0  0  0  0  0  0
  195.8240  172.8060  142.2750 C   0  0  0  0  0  3  0  0  0  0  0  0
  194.9180  174.9520  141.9940 O   0  0  0  0  0  0  0  0  0  0  0  0
  191.5160  172.6620  139.8980 C   0  0  0  0  0  2  0  0  0  0  0  0
  191.6000  174.4720  141.4240 C   0  0  0  0  0  2  0  0  0  0  0  0
  192.8420  172.7610  140.4870 N   0  0  0  0  0  2  0  0  0  0  0  0
  192.9510  174.0570  141.0370 N   0  0  2  0  0  0  0  0  0  0  0  0
  190.6320  173.6250  140.6440 C   0  0  2  0  0  3  0  0  0  0  0  0
  189.7080  172.8990  141.5750 C   0  0  0  0  0  0  0  0  0  0  0  0
  188.5260  172.6380  141.2170 O   0  0  0  0  0  0  0  0  0  0  0  0
  189.7570  173.2050  144.1280 C   0  0  0  0  0  1  0  0  0  0  0  0
  190.9560  171.4860  143.0140 O   0  0  0  0  0  0  0  0  0  0  0  0
  190.1840  172.4760  142.9020 C   0  0  0  0  0  0  0  0  0  0  0  0
  197.0390  174.7820  143.0730 C   0  0  0  0  0  0  0  0  0  0  0  0
  197.2690  176.0230  143.1280 O   0  0  0  0  0  0  0  0  0  0  0  0
  197.6290  173.9060  143.9860 O   0  0  0  0  0  0  0  0  0  0  0  0
  197.3920  173.9850  145.3870 C   0  0  0  0  0  2  0  0  0  0  0  0
  196.8540  172.6670  145.9080 C   0  0  0  0  0  1  0  0  0  0  0  0
  2  6  1  0  0  0  0
  2  3  1  0  0  0  0
  3  1  1  0  0  0  0
  4  7  1  0  0  0  0
  5  8  1  0  0  0  0
  5  4  2  0  0  0  0
  7  1  2  0  0  0  0
  8  2  2  0  0  0  0
  9  5  1  0  0  0  0
 10 23  1  0  0  0  0
 11 10  1  0  0  0  0
 12 20  2  0  0  0  0
 13  4  1  0  0  0  0
 13 24  1  0  0  0  0
 15 18  1  0  0  0  0
 15 14  1  0  0  0  0
 16 21  1  0  0  0  0
 16 13  2  0  0  0  0
 17 15  1  0  0  0  0
 17 24  1  0  0  0  0
 18 14  1  0  0  0  0
 19 10  2  0  0  0  0
 19 12  1  0  0  0  0
 20 22  1  0  0  0  0
 20 21  1  0  0  0  0
 21 17  2  0  0  0  0
 22 25  1  0  0  0  0
 23 22  2  0  0  0  0
 25 15  1  0  0  0  0
 26 27  2  0  0  0  0
 27  8  1  0  0  0  0
 28 31  1  0  0  0  0
 28 43  1  1  0  0  0
 29 30  1  0  0  0  0
 29 26  1  1  0  0  0
 31 30  2  0  0  0  0
 32 28  1  0  0  0  0
 32 29  1  0  0  0  0
 33 35  1  0  0  0  0
 33 37  1  0  0  0  0
 35 36  1  0  0  0  0
 36 34  1  1  0  0  0
 36 29  1  0  0  0  0
 37 34  1  0  0  0  0
 37 38  1  1  0  0  0
 38 42  1  0  0  0  0
 39 38  2  0  0  0  0
 42 41  2  0  0  0  0
 42 40  1  0  0  0  0
 43 44  2  0  0  0  0
 43 45  1  0  0  0  0
 45 46  1  0  0  0  0
 46 47  1  0  0  0  0
M  END
>  <MODEL>
2

>  <REMARK>
 VINA RESULT:      -8.6      1.485      4.102
  Name = 
  9 active torsions:
  status: ('A' for Active; 'I' for Inactive)
    1  A    between atoms: C_2  and  O_26
    2  A    between atoms: C_5  and  C_8
    3  A    between atoms: C_8  and  O_26
    4  A    between atoms: C_13  and  C_14
    5  A    between atoms: C_16  and  C_20
    6  A    between atoms: C_16  and  N_36
    7  A    between atoms: C_19  and  C_46
    8  A    between atoms: C_19  and  C_47
    9  A    between atoms: C_27  and  C_42
                            x       y       z     vdW  Elec       q    Type
                         _______ _______ _______ _____ _____    ______ ____

>  <TORSDO>
F 9

$$$$
=
 OpenBabel11072409023D

 47 53  0  0  1  0  0  0  0  0999 V2000
  191.6160  176.8790  148.0820 C   0  0  0  0  0  3  0  0  0  0  0  0
  193.2860  176.0190  146.4220 C   0  0  0  0  0  0  0  0  0  0  0  0
  192.8440  176.9850  147.3720 N   0  0  0  0  0  0  0  0  0  0  0  0
  190.2190  176.5070  146.1000 C   0  0  0  0  0  0  0  0  0  0  0  0
  191.0940  175.9690  145.2130 C   0  0  0  0  0  0  0  0  0  0  0  0
  194.6740  175.6850  146.4520 N   0  0  0  0  0  1  0  0  0  0  0  0
  190.4860  176.6330  147.5040 N   0  0  0  0  0  2  0  0  0  0  0  0
  192.4510  175.4430  145.5270 C   0  0  0  0  0  0  0  0  0  0  0  0
  190.6900  175.8240  143.8860 O   0  0  0  0  0  1  0  0  0  0  0  0
  184.0950  178.1180  141.5680 C   0  0  0  0  0  0  0  0  0  0  0  0
  183.0610  178.3750  140.5330 C   0  0  0  0  0  1  0  0  0  0  0  0
  186.2590  177.3100  142.1330 C   0  0  0  0  0  3  0  0  0  0  0  0
  188.8560  176.9200  145.6830 C   0  0  0  0  0  0  0  0  0  0  0  0
  185.0610  177.9300  147.6090 C   0  0  0  0  0  2  0  0  0  0  0  0
  185.6050  178.3510  146.2670 C   0  0  0  0  0  0  0  0  0  0  0  0
  188.3470  176.8770  144.3820 C   0  0  0  0  0  3  0  0  0  0  0  0
  186.8890  177.7410  145.8100 C   0  0  0  0  0  0  0  0  0  0  0  0
  185.6220  179.3400  147.4050 C   0  0  0  0  0  2  0  0  0  0  0  0
  185.2840  177.5550  141.2170 N   0  0  0  0  0  0  0  0  0  0  0  0
  186.0530  177.6390  143.4750 C   0  0  0  0  0  0  0  0  0  0  0  0
  187.0810  177.4060  144.5030 C   0  0  0  0  0  0  0  0  0  0  0  0
  184.8280  178.2260  143.8640 C   0  0  0  0  0  0  0  0  0  0  0  0
  183.8470  178.4640  142.9000 C   0  0  0  0  0  3  0  0  0  0  0  0
  187.9710  177.4590  146.5540 N   0  0  0  0  0  2  0  0  0  0  0  0
  184.5890  178.5860  145.2390 N   0  0  0  0  0  2  0  0  0  0  0  0
  192.6330  173.0230  144.8510 C   0  0  0  0  0  3  0  0  0  0  0  0
  192.8700  174.3180  144.6470 C   0  0  0  0  0  3  0  0  0  0  0  0
  195.1300  172.0320  142.9190 C   0  0  1  0  0  3  0  0  0  0  0  0
  193.0750  171.9440  143.8930 C   0  0  2  0  0  0  0  0  0  0  0  0
  194.0000  170.9890  144.5850 C   0  0  0  0  0  3  0  0  0  0  0  0
  195.1830  171.0520  144.0290 C   0  0  0  0  0  3  0  0  0  0  0  0
  193.8270  172.5770  142.8730 O   0  0  0  0  0  0  0  0  0  0  0  0
  189.6900  171.6940  142.8160 C   0  0  0  0  0  2  0  0  0  0  0  0
  191.8370  171.4730  141.8360 C   0  0  0  0  0  2  0  0  0  0  0  0
  190.7220  171.8080  143.8350 N   0  0  0  0  0  2  0  0  0  0  0  0
  191.9050  171.2660  143.2850 N   0  0  2  0  0  0  0  0  0  0  0  0
  190.3900  171.6890  141.4830 C   0  0  2  0  0  3  0  0  0  0  0  0
  190.2150  173.0000  140.7780 C   0  0  0  0  0  0  0  0  0  0  0  0
  191.2170  173.7350  140.5540 O   0  0  0  0  0  0  0  0  0  0  0  0
  188.3380  174.7560  140.7170 C   0  0  0  0  0  1  0  0  0  0  0  0
  188.1780  172.6610  139.6130 O   0  0  0  0  0  0  0  0  0  0  0  0
  188.8790  173.4240  140.3310 C   0  0  0  0  0  0  0  0  0  0  0  0
  196.1370  173.1180  143.1140 C   0  0  0  0  0  0  0  0  0  0  0  0
  195.9890  174.2330  142.5390 O   0  0  0  0  0  0  0  0  0  0  0  0
  197.2450  172.8790  143.9310 O   0  0  0  0  0  0  0  0  0  0  0  0
  197.6460  173.7770  144.9590 C   0  0  0  0  0  2  0  0  0  0  0  0
  197.0900  173.3300  146.2980 C   0  0  0  0  0  1  0  0  0  0  0  0
  2  6  1  0  0  0  0
  2  3  1  0  0  0  0
  3  1  2  0  0  0  0
  4  7  1  0  0  0  0
  5  8  1  0  0  0  0
  5  4  2  0  0  0  0
  7  1  1  0  0  0  0
  8  2  2  0  0  0  0
  9  5  1  0  0  0  0
 10 23  1  0  0  0  0
 11 10  1  0  0  0  0
 12 20  2  0  0  0  0
 13  4  1  0  0  0  0
 13 24  1  0  0  0  0
 15 18  1  0  0  0  0
 15 14  1  0  0  0  0
 16 21  1  0  0  0  0
 16 13  2  0  0  0  0
 17 15  1  0  0  0  0
 17 24  1  0  0  0  0
 18 14  1  0  0  0  0
 19 10  2  0  0  0  0
 19 12  1  0  0  0  0
 20 22  1  0  0  0  0
 20 21  1  0  0  0  0
 21 17  2  0  0  0  0
 22 25  1  0  0  0  0
 23 22  2  0  0  0  0
 25 15  1  0  0  0  0
 27 26  2  0  0  0  0
 27  8  1  0  0  0  0
 28 43  1  1  0  0  0
 28 31  1  0  0  0  0
 29 30  1  0  0  0  0
 29 26  1  1  0  0  0
 31 30  2  0  0  0  0
 32 28  1  0  0  0  0
 32 29  1  0  0  0  0
 33 35  1  0  0  0  0
 36 34  1  6  0  0  0
 36 35  1  0  0  0  0
 36 29  1  0  0  0  0
 37 38  1  1  0  0  0
 37 34  1  0  0  0  0
 37 33  1  0  0  0  0
 39 38  2  0  0  0  0
 41 42  2  0  0  0  0
 42 40  1  0  0  0  0
 42 38  1  0  0  0  0
 43 45  1  0  0  0  0
 44 43  2  0  0  0  0
 45 46  1  0  0  0  0
 46 47  1  0  0  0  0
M  END
>  <MODEL>
3

>  <REMARK>
 VINA RESULT:      -8.4      1.810      4.604
  Name = 
  9 active torsions:
  status: ('A' for Active; 'I' for Inactive)
    1  A    between atoms: C_2  and  O_26
    2  A    between atoms: C_5  and  C_8
    3  A    between atoms: C_8  and  O_26
    4  A    between atoms: C_13  and  C_14
    5  A    between atoms: C_16  and  C_20
    6  A    between atoms: C_16  and  N_36
    7  A    between atoms: C_19  and  C_46
    8  A    between atoms: C_19  and  C_47
    9  A    between atoms: C_27  and  C_42
                            x       y       z     vdW  Elec       q    Type
                         _______ _______ _______ _____ _____    ______ ____

>  <TORSDO>
F 9

$$$$
=
 OpenBabel11072409023D

 47 53  0  0  1  0  0  0  0  0999 V2000
  190.8980  171.8300  140.8530 C   0  0  0  0  0  3  0  0  0  0  0  0
  192.4880  170.9080  142.5570 C   0  0  0  0  0  0  0  0  0  0  0  0
  191.3800  170.7720  141.6720 N   0  0  0  0  0  2  0  0  0  0  0  0
  190.7120  173.4740  142.6630 C   0  0  0  0  0  0  0  0  0  0  0  0
  191.6240  173.0310  143.5650 C   0  0  0  0  0  0  0  0  0  0  0  0
  193.3980  169.8100  142.6140 N   0  0  0  0  0  1  0  0  0  0  0  0
  190.6480  173.0150  141.3060 N   0  0  0  0  0  0  0  0  0  0  0  0
  192.6800  172.0110  143.3180 C   0  0  0  0  0  0  0  0  0  0  0  0
  191.6420  173.6130  144.8330 O   0  0  0  0  0  1  0  0  0  0  0  0
  185.8460  177.9730  146.7520 C   0  0  0  0  0  0  0  0  0  0  0  0
  184.9560  178.6900  147.7010 C   0  0  0  0  0  1  0  0  0  0  0  0
  187.4620  176.2740  146.3610 C   0  0  0  0  0  3  0  0  0  0  0  0
  189.7610  174.5630  143.0010 C   0  0  0  0  0  0  0  0  0  0  0  0
  188.1800  178.1700  141.0980 C   0  0  0  0  0  2  0  0  0  0  0  0
  187.5780  177.3020  142.1740 C   0  0  0  0  0  0  0  0  0  0  0  0
  189.2320  174.8280  144.2670 C   0  0  0  0  0  2  0  0  0  0  0  0
  188.4110  176.1930  142.7280 C   0  0  0  0  0  0  0  0  0  0  0  0
  187.0480  177.1940  140.7650 C   0  0  0  0  0  2  0  0  0  0  0  0
  186.6380  176.9600  147.1980 N   0  0  0  0  0  0  0  0  0  0  0  0
  187.5100  176.6040  145.0040 C   0  0  0  0  0  0  0  0  0  0  0  0
  188.3750  175.8850  144.0550 C   0  0  0  0  0  0  0  0  0  0  0  0
  186.6960  177.6510  144.5180 C   0  0  0  0  0  0  0  0  0  0  0  0
  185.8610  178.3370  145.4020 C   0  0  0  0  0  3  0  0  0  0  0  0
  189.2500  175.3880  142.0580 N   0  0  0  0  0  0  0  0  0  0  0  0
  186.7150  178.0100  143.1220 N   0  0  0  0  0  2  0  0  0  0  0  0
  195.0640  172.7410  143.6780 C   0  0  0  0  0  3  0  0  0  0  0  0
  193.9150  172.2290  144.1180 C   0  0  0  0  0  3  0  0  0  0  0  0
  197.0720  171.2490  145.8420 C   0  0  1  0  0  3  0  0  0  0  0  0
  196.2670  172.9500  144.5640 C   0  0  2  0  0  0  0  0  0  0  0  0
  197.4890  172.3720  143.9170 C   0  0  0  0  0  3  0  0  0  0  0  0
  197.9410  171.3860  144.6500 C   0  0  0  0  0  3  0  0  0  0  0  0
  196.0410  172.2110  145.7510 O   0  0  0  0  0  0  0  0  0  0  0  0
  196.2040  176.4510  143.9130 C   0  0  0  0  0  2  0  0  0  0  0  0
  195.1980  174.9610  145.4580 C   0  0  0  0  0  2  0  0  0  0  0  0
  196.7300  175.1070  143.7310 N   0  0  0  0  0  2  0  0  0  0  0  0
  196.4270  174.3840  144.9060 N   0  0  2  0  0  0  0  0  0  0  0  0
  195.0560  176.3440  144.8810 C   0  0  2  0  0  3  0  0  0  0  0  0
  193.7410  176.4810  144.1750 C   0  0  0  0  0  0  0  0  0  0  0  0
  193.6410  176.1630  142.9570 O   0  0  0  0  0  0  0  0  0  0  0  0
  191.5510  177.8290  144.2260 C   0  0  0  0  0  1  0  0  0  0  0  0
  192.3910  176.6640  146.1160 O   0  0  0  0  0  0  0  0  0  0  0  0
  192.5610  176.9710  144.9050 C   0  0  0  0  0  0  0  0  0  0  0  0
  196.4900  169.8750  145.9260 C   0  0  0  0  0  0  0  0  0  0  0  0
  196.4530  169.2670  147.0330 O   0  0  0  0  0  0  0  0  0  0  0  0
  195.9970  169.2740  144.7650 O   0  0  0  0  0  0  0  0  0  0  0  0
  196.6680  168.2020  144.1140 C   0  0  0  0  0  2  0  0  0  0  0  0
  196.8030  168.4860  142.6300 C   0  0  0  0  0  1  0  0  0  0  0  0
  1  7  2  0  0  0  0
  1  3  1  0  0  0  0
  2  6  1  0  0  0  0
  2  8  2  0  0  0  0
  3  2  1  0  0  0  0
  4 13  1  0  0  0  0
  4  5  2  0  0  0  0
  5  9  1  0  0  0  0
  7  4  1  0  0  0  0
  8  5  1  0  0  0  0
  8 27  1  0  0  0  0
 10 19  1  0  0  0  0
 10 11  1  0  0  0  0
 12 19  2  0  0  0  0
 13 16  1  0  0  0  0
 14 15  1  0  0  0  0
 15 17  1  0  0  0  0
 15 25  1  0  0  0  0
 17 21  2  0  0  0  0
 18 14  1  0  0  0  0
 18 15  1  0  0  0  0
 20 12  1  0  0  0  0
 21 16  1  0  0  0  0
 21 20  1  0  0  0  0
 22 20  2  0  0  0  0
 22 23  1  0  0  0  0
 23 10  2  0  0  0  0
 24 17  1  0  0  0  0
 24 13  2  0  0  0  0
 25 22  1  0  0  0  0
 26 27  2  0  0  0  0
 28 43  1  6  0  0  0
 29 26  1  6  0  0  0
 29 36  1  0  0  0  0
 29 32  1  0  0  0  0
 30 29  1  0  0  0  0
 30 31  2  0  0  0  0
 31 28  1  0  0  0  0
 32 28  1  0  0  0  0
 33 37  1  0  0  0  0
 35 33  1  0  0  0  0
 35 36  1  0  0  0  0
 36 34  1  6  0  0  0
 37 38  1  6  0  0  0
 37 34  1  0  0  0  0
 38 42  1  0  0  0  0
 39 38  2  0  0  0  0
 40 42  1  0  0  0  0
 42 41  2  0  0  0  0
 43 44  2  0  0  0  0
 45 43  1  0  0  0  0
 46 45  1  0  0  0  0
 47 46  1  0  0  0  0
M  END
>  <MODEL>
4

>  <REMARK>
 VINA RESULT:      -7.8      2.388      5.697
  Name = 
  9 active torsions:
  status: ('A' for Active; 'I' for Inactive)
    1  A    between atoms: C_2  and  O_26
    2  A    between atoms: C_5  and  C_8
    3  A    between atoms: C_8  and  O_26
    4  A    between atoms: C_13  and  C_14
    5  A    between atoms: C_16  and  C_20
    6  A    between atoms: C_16  and  N_36
    7  A    between atoms: C_19  and  C_46
    8  A    between atoms: C_19  and  C_47
    9  A    between atoms: C_27  and  C_42
                            x       y       z     vdW  Elec       q    Type
                         _______ _______ _______ _____ _____    ______ ____

>  <TORSDO>
F 9

$$$$
=
 OpenBabel11072409023D

 47 53  0  0  1  0  0  0  0  0999 V2000
  192.3810  176.3530  147.1030 C   0  0  0  0  0  3  0  0  0  0  0  0
  193.9330  175.9800  145.1700 C   0  0  0  0  0  0  0  0  0  0  0  0
  193.5310  176.6910  146.3370 N   0  0  0  0  0  0  0  0  0  0  0  0
  190.8280  176.3070  145.2050 C   0  0  0  0  0  0  0  0  0  0  0  0
  191.6440  176.0300  144.1560 C   0  0  0  0  0  0  0  0  0  0  0  0
  195.3330  175.7450  145.0170 N   0  0  0  0  0  1  0  0  0  0  0  0
  191.2170  176.1540  146.5770 N   0  0  0  0  0  2  0  0  0  0  0  0
  193.0490  175.5460  144.2410 C   0  0  0  0  0  0  0  0  0  0  0  0
  191.1270  176.1380  142.8660 O   0  0  0  0  0  1  0  0  0  0  0  0
  184.1890  178.2240  141.6150 C   0  0  0  0  0  0  0  0  0  0  0  0
  183.0400  178.5720  140.7410 C   0  0  0  0  0  1  0  0  0  0  0  0
  186.4310  177.4610  141.8280 C   0  0  0  0  0  3  0  0  0  0  0  0
  189.4120  176.7010  144.9960 C   0  0  0  0  0  0  0  0  0  0  0  0
  185.8130  177.2100  147.4280 C   0  0  0  0  0  2  0  0  0  0  0  0
  186.1910  177.8510  146.1170 C   0  0  0  0  0  0  0  0  0  0  0  0
  188.7670  176.8210  143.7620 C   0  0  0  0  0  3  0  0  0  0  0  0
  187.4410  177.3850  145.4440 C   0  0  0  0  0  0  0  0  0  0  0  0
  186.2930  178.6630  147.3840 C   0  0  0  0  0  2  0  0  0  0  0  0
  185.3530  177.7840  141.0630 N   0  0  0  0  0  0  0  0  0  0  0  0
  186.3600  177.5800  143.2190 C   0  0  0  0  0  0  0  0  0  0  0  0
  187.5020  177.2550  144.0890 C   0  0  0  0  0  0  0  0  0  0  0  0
  185.1630  178.0350  143.8140 C   0  0  0  0  0  0  0  0  0  0  0  0
  184.0740  178.3580  143.0020 C   0  0  0  0  0  3  0  0  0  0  0  0
  188.6070  177.0580  146.0230 N   0  0  0  0  0  2  0  0  0  0  0  0
  185.0610  178.1770  145.2450 N   0  0  0  0  0  2  0  0  0  0  0  0
  193.4190  173.3310  143.0990 C   0  0  0  0  0  3  0  0  0  0  0  0
  193.4430  174.6640  143.1090 C   0  0  0  0  0  3  0  0  0  0  0  0
  195.1370  173.3990  140.2720 C   0  0  1  0  0  3  0  0  0  0  0  0
  193.8150  172.5100  141.8970 C   0  0  2  0  0  0  0  0  0  0  0  0
  195.2170  172.0050  142.0580 C   0  0  0  0  0  3  0  0  0  0  0  0
  195.9750  172.5280  141.1280 C   0  0  0  0  0  3  0  0  0  0  0  0
  193.8180  173.3820  140.7810 O   0  0  0  0  0  0  0  0  0  0  0  0
  190.9610  170.5130  142.6400 C   0  0  0  0  0  2  0  0  0  0  0  0
  191.7090  171.8580  140.8370 C   0  0  0  0  0  2  0  0  0  0  0  0
  192.3090  170.9980  142.8980 N   0  0  0  0  0  2  0  0  0  0  0  0
  192.8390  171.4180  141.6590 N   0  0  2  0  0  0  0  0  0  0  0  0
  190.4680  171.2270  141.4100 C   0  0  2  0  0  3  0  0  0  0  0  0
  189.4640  172.2820  141.7660 C   0  0  0  0  0  0  0  0  0  0  0  0
  189.2730  172.5900  142.9750 O   0  0  0  0  0  0  0  0  0  0  0  0
  188.3690  174.4140  140.8330 C   0  0  0  0  0  1  0  0  0  0  0  0
  188.3530  172.3440  139.6720 O   0  0  0  0  0  0  0  0  0  0  0  0
  188.7120  172.9710  140.7050 C   0  0  0  0  0  0  0  0  0  0  0  0
  195.6630  174.7970  140.2490 C   0  0  0  0  0  0  0  0  0  0  0  0
  194.9900  175.7210  139.7120 O   0  0  0  0  0  0  0  0  0  0  0  0
  196.9090  175.0620  140.8220 O   0  0  0  0  0  0  0  0  0  0  0  0
  197.0890  176.0270  141.8520 C   0  0  0  0  0  2  0  0  0  0  0  0
  197.9160  175.4450  142.9830 C   0  0  0  0  0  1  0  0  0  0  0  0
  2  3  1  0  0  0  0
  3  1  2  0  0  0  0
  4  7  1  0  0  0  0
  5  8  1  0  0  0  0
  5  4  2  0  0  0  0
  6  2  1  0  0  0  0
  7  1  1  0  0  0  0
  8  2  2  0  0  0  0
  9  5  1  0  0  0  0
 10 23  1  0  0  0  0
 11 10  1  0  0  0  0
 12 20  2  0  0  0  0
 13  4  1  0  0  0  0
 13 24  1  0  0  0  0
 15 18  1  0  0  0  0
 15 14  1  0  0  0  0
 16 21  1  0  0  0  0
 16 13  2  0  0  0  0
 17 24  1  0  0  0  0
 17 15  1  0  0  0  0
 18 14  1  0  0  0  0
 19 10  2  0  0  0  0
 19 12  1  0  0  0  0
 20 22  1  0  0  0  0
 20 21  1  0  0  0  0
 21 17  2  0  0  0  0
 22 25  1  0  0  0  0
 23 22  2  0  0  0  0
 25 15  1  0  0  0  0
 26 27  2  0  0  0  0
 27  8  1  0  0  0  0
 28 43  1  1  0  0  0
 28 32  1  0  0  0  0
 28 31  1  0  0  0  0
 29 30  1  0  0  0  0
 29 26  1  1  0  0  0
 31 30  2  0  0  0  0
 32 29  1  0  0  0  0
 33 35  1  0  0  0  0
 34 37  1  0  0  0  0
 36 34  1  6  0  0  0
 36 29  1  0  0  0  0
 36 35  1  0  0  0  0
 37 38  1  1  0  0  0
 37 33  1  0  0  0  0
 38 39  2  0  0  0  0
 41 42  2  0  0  0  0
 42 40  1  0  0  0  0
 42 38  1  0  0  0  0
 43 45  1  0  0  0  0
 44 43  2  0  0  0  0
 45 46  1  0  0  0  0
 46 47  1  0  0  0  0
M  END
>  <MODEL>
5

>  <REMARK>
 VINA RESULT:      -7.7      2.123      4.380
  Name = 
  9 active torsions:
  status: ('A' for Active; 'I' for Inactive)
    1  A    between atoms: C_2  and  O_26
    2  A    between atoms: C_5  and  C_8
    3  A    between atoms: C_8  and  O_26
    4  A    between atoms: C_13  and  C_14
    5  A    between atoms: C_16  and  C_20
    6  A    between atoms: C_16  and  N_36
    7  A    between atoms: C_19  and  C_46
    8  A    between atoms: C_19  and  C_47
    9  A    between atoms: C_27  and  C_42
                            x       y       z     vdW  Elec       q    Type
                         _______ _______ _______ _____ _____    ______ ____

>  <TORSDO>
F 9

$$$$
=
 OpenBabel11072409023D

 47 53  0  0  1  0  0  0  0  0999 V2000
  190.4000  173.2280  139.6300 C   0  0  0  0  0  3  0  0  0  0  0  0
  192.5940  172.1900  140.2590 C   0  0  0  0  0  0  0  0  0  0  0  0
  191.2650  172.1050  139.7530 N   0  0  0  0  0  0  0  0  0  0  0  0
  190.6930  174.0150  141.9340 C   0  0  0  0  0  0  0  0  0  0  0  0
  191.9140  173.5240  142.2660 C   0  0  0  0  0  0  0  0  0  0  0  0
  193.5840  171.4120  139.5870 N   0  0  0  0  0  1  0  0  0  0  0  0
  190.1970  174.0690  140.5900 N   0  0  0  0  0  2  0  0  0  0  0  0
  192.9190  172.9600  141.3240 C   0  0  0  0  0  0  0  0  0  0  0  0
  192.3210  173.6000  143.5980 O   0  0  0  0  0  1  0  0  0  0  0  0
  184.8840  178.1200  145.1020 C   0  0  0  0  0  0  0  0  0  0  0  0
  183.7200  178.9550  145.4970 C   0  0  0  0  0  1  0  0  0  0  0  0
  186.1490  177.0660  143.3870 C   0  0  0  0  0  3  0  0  0  0  0  0
  189.8090  174.6350  142.9530 C   0  0  0  0  0  0  0  0  0  0  0  0
  189.2900  174.4810  147.2930 C   0  0  0  0  0  2  0  0  0  0  0  0
  188.9420  175.5760  146.3170 C   0  0  0  0  0  0  0  0  0  0  0  0
  188.6420  175.3600  142.6970 C   0  0  0  0  0  3  0  0  0  0  0  0
  189.1160  175.2970  144.8600 C   0  0  0  0  0  0  0  0  0  0  0  0
  190.1620  175.7360  147.1890 C   0  0  0  0  0  2  0  0  0  0  0  0
  185.0920  177.8220  143.7910 N   0  0  0  0  0  0  0  0  0  0  0  0
  187.0550  176.5750  144.3310 C   0  0  0  0  0  0  0  0  0  0  0  0
  188.2210  175.7640  143.9440 C   0  0  0  0  0  0  0  0  0  0  0  0
  186.8600  176.8720  145.6970 C   0  0  0  0  0  0  0  0  0  0  0  0
  185.7660  177.6500  146.0800 C   0  0  0  0  0  3  0  0  0  0  0  0
  190.1070  174.6070  144.2730 N   0  0  0  0  0  2  0  0  0  0  0  0
  187.7830  176.3890  146.6940 N   0  0  0  0  0  2  0  0  0  0  0  0
  195.1020  174.2140  141.4250 C   0  0  0  0  0  3  0  0  0  0  0  0
  194.3260  173.1820  141.7540 C   0  0  0  0  0  3  0  0  0  0  0  0
  196.9190  175.0620  144.0570 C   0  0  1  0  0  3  0  0  0  0  0  0
  196.5160  174.3750  141.9250 C   0  0  2  0  0  0  0  0  0  0  0  0
  196.9010  173.1970  142.7670 C   0  0  0  0  0  3  0  0  0  0  0  0
  197.1200  173.5960  143.9950 C   0  0  0  0  0  3  0  0  0  0  0  0
  196.5300  175.5090  142.7740 O   0  0  0  0  0  0  0  0  0  0  0  0
  197.9060  173.7400  138.7090 C   0  0  0  0  0  2  0  0  0  0  0  0
  196.9380  175.5830  139.8400 C   0  0  0  0  0  2  0  0  0  0  0  0
  197.6220  173.3880  140.0920 N   0  0  0  0  0  2  0  0  0  0  0  0
  197.4520  174.6000  140.7970 N   0  0  2  0  0  0  0  0  0  0  0  0
  197.2790  175.0850  138.4610 C   0  0  2  0  0  3  0  0  0  0  0  0
  196.0360  174.9570  137.6320 C   0  0  0  0  0  0  0  0  0  0  0  0
  195.0740  174.2500  138.0410 O   0  0  0  0  0  0  0  0  0  0  0  0
  197.1410  176.2530  135.7050 C   0  0  0  0  0  1  0  0  0  0  0  0
  194.8150  175.7850  135.7760 O   0  0  0  0  0  0  0  0  0  0  0  0
  195.9320  175.6680  136.3480 C   0  0  0  0  0  0  0  0  0  0  0  0
  195.8760  175.4190  145.0660 C   0  0  0  0  0  0  0  0  0  0  0  0
  195.6380  174.6440  146.0340 O   0  0  0  0  0  0  0  0  0  0  0  0
  195.1660  176.6120  144.9160 O   0  0  0  0  0  0  0  0  0  0  0  0
  193.9490  176.8710  145.6060 C   0  0  0  0  0  2  0  0  0  0  0  0
  192.7870  176.9100  144.6320 C   0  0  0  0  0  1  0  0  0  0  0  0
  1  3  2  0  0  0  0
  1  7  1  0  0  0  0
  2  8  2  0  0  0  0
  3  2  1  0  0  0  0
  4  5  2  0  0  0  0
  4 13  1  0  0  0  0
  5  9  1  0  0  0  0
  6  2  1  0  0  0  0
  7  4  1  0  0  0  0
  8 27  1  0  0  0  0
  8  5  1  0  0  0  0
 10 11  1  0  0  0  0
 10 23  1  0  0  0  0
 12 19  1  0  0  0  0
 12 20  2  0  0  0  0
 13 24  1  0  0  0  0
 15 25  1  0  0  0  0
 15 18  1  0  0  0  0
 15 14  1  0  0  0  0
 16 13  2  0  0  0  0
 16 21  1  0  0  0  0
 17 15  1  0  0  0  0
 18 14  1  0  0  0  0
 19 10  2  0  0  0  0
 20 22  1  0  0  0  0
 21 20  1  0  0  0  0
 21 17  2  0  0  0  0
 22 23  2  0  0  0  0
 22 25  1  0  0  0  0
 24 17  1  0  0  0  0
 26 27  2  0  0  0  0
 28 43  1  1  0  0  0
 29 26  1  6  0  0  0
 29 30  1  0  0  0  0
 29 32  1  0  0  0  0
 30 31  2  0  0  0  0
 31 28  1  0  0  0  0
 32 28  1  0  0  0  0
 33 35  1  0  0  0  0
 35 36  1  0  0  0  0
 36 34  1  6  0  0  0
 36 29  1  0  0  0  0
 37 38  1  6  0  0  0
 37 33  1  0  0  0  0
 37 34  1  0  0  0  0
 38 39  2  0  0  0  0
 40 42  1  0  0  0  0
 41 42  2  0  0  0  0
 42 38  1  0  0  0  0
 43 44  2  0  0  0  0
 45 43  1  0  0  0  0
 45 46  1  0  0  0  0
 47 46  1  0  0  0  0
M  END
>  <MODEL>
6

>  <REMARK>
 VINA RESULT:      -7.6      2.854      5.767
  Name = 
  9 active torsions:
  status: ('A' for Active; 'I' for Inactive)
    1  A    between atoms: C_2  and  O_26
    2  A    between atoms: C_5  and  C_8
    3  A    between atoms: C_8  and  O_26
    4  A    between atoms: C_13  and  C_14
    5  A    between atoms: C_16  and  C_20
    6  A    between atoms: C_16  and  N_36
    7  A    between atoms: C_19  and  C_46
    8  A    between atoms: C_19  and  C_47
    9  A    between atoms: C_27  and  C_42
                            x       y       z     vdW  Elec       q    Type
                         _______ _______ _______ _____ _____    ______ ____

>  <TORSDO>
F 9

$$$$
=
 OpenBabel11072409023D

 47 53  0  0  1  0  0  0  0  0999 V2000
  191.6410  176.0610  147.6460 C   0  0  0  0  0  3  0  0  0  0  0  0
  193.5010  176.4990  146.0230 C   0  0  0  0  0  0  0  0  0  0  0  0
  192.8490  176.7130  147.2710 N   0  0  0  0  0  2  0  0  0  0  0  0
  190.4090  176.6400  145.6060 C   0  0  0  0  0  0  0  0  0  0  0  0
  191.4010  176.8070  144.6940 C   0  0  0  0  0  0  0  0  0  0  0  0
  194.9240  176.4060  146.0530 N   0  0  0  0  0  1  0  0  0  0  0  0
  190.6000  176.0130  146.8810 N   0  0  0  0  0  0  0  0  0  0  0  0
  192.8220  176.3950  144.8560 C   0  0  0  0  0  0  0  0  0  0  0  0
  191.0760  177.3560  143.4530 O   0  0  0  0  0  1  0  0  0  0  0  0
  183.9120  178.0760  141.5620 C   0  0  0  0  0  0  0  0  0  0  0  0
  182.7940  178.3040  140.6100 C   0  0  0  0  0  1  0  0  0  0  0  0
  186.1340  177.3290  141.9570 C   0  0  0  0  0  3  0  0  0  0  0  0
  189.0070  177.0140  145.2950 C   0  0  0  0  0  0  0  0  0  0  0  0
  185.3450  177.9180  147.5100 C   0  0  0  0  0  2  0  0  0  0  0  0
  185.7720  178.3530  146.1310 C   0  0  0  0  0  0  0  0  0  0  0  0
  188.4000  176.9560  144.0370 C   0  0  0  0  0  3  0  0  0  0  0  0
  187.0340  177.7790  145.5750 C   0  0  0  0  0  0  0  0  0  0  0  0
  185.8490  179.3430  147.2660 C   0  0  0  0  0  2  0  0  0  0  0  0
  185.0850  177.5470  141.1190 N   0  0  0  0  0  0  0  0  0  0  0  0
  186.0230  177.6530  143.3120 C   0  0  0  0  0  0  0  0  0  0  0  0
  187.1330  177.4490  144.2570 C   0  0  0  0  0  0  0  0  0  0  0  0
  184.8160  178.2050  143.7950 C   0  0  0  0  0  0  0  0  0  0  0  0
  183.7570  178.4160  142.9090 C   0  0  0  0  0  3  0  0  0  0  0  0
  188.1770  177.5290  146.2330 N   0  0  0  0  0  2  0  0  0  0  0  0
  184.6740  178.5590  145.1850 N   0  0  0  0  0  2  0  0  0  0  0  0
  193.5580  174.7810  143.0670 C   0  0  0  0  0  3  0  0  0  0  0  0
  193.4780  176.0090  143.5770 C   0  0  0  0  0  3  0  0  0  0  0  0
  193.8710  172.4890  140.7020 C   0  0  1  0  0  3  0  0  0  0  0  0
  194.2240  174.4790  141.7470 C   0  0  2  0  0  0  0  0  0  0  0  0
  193.2500  174.6680  140.6240 C   0  0  0  0  0  3  0  0  0  0  0  0
  193.0410  173.5180  140.0330 C   0  0  0  0  0  3  0  0  0  0  0  0
  194.5720  173.1060  141.7630 O   0  0  0  0  0  0  0  0  0  0  0  0
  197.7070  174.9860  141.2070 C   0  0  0  0  0  2  0  0  0  0  0  0
  195.6810  175.6650  140.1810 C   0  0  0  0  0  2  0  0  0  0  0  0
  196.5690  174.5250  141.9870 N   0  0  0  0  0  2  0  0  0  0  0  0
  195.4540  175.2900  141.5790 N   0  0  2  0  0  0  0  0  0  0  0  0
  197.1580  175.5440  139.9210 C   0  0  2  0  0  3  0  0  0  0  0  0
  197.4100  174.6090  138.7760 C   0  0  0  0  0  0  0  0  0  0  0  0
  197.9300  173.4780  138.9870 O   0  0  0  0  0  0  0  0  0  0  0  0
  195.6950  174.6640  136.8600 C   0  0  0  0  0  1  0  0  0  0  0  0
  197.8540  175.6350  136.6850 O   0  0  0  0  0  0  0  0  0  0  0  0
  197.0380  175.0020  137.4080 C   0  0  0  0  0  0  0  0  0  0  0  0
  193.0240  171.3730  141.2220 C   0  0  0  0  0  0  0  0  0  0  0  0
  193.5350  170.2400  141.4480 O   0  0  0  0  0  0  0  0  0  0  0  0
  191.6640  171.6000  141.4460 O   0  0  0  0  0  0  0  0  0  0  0  0
  191.0300  171.2940  142.6820 C   0  0  0  0  0  2  0  0  0  0  0  0
  190.1510  172.4490  143.1250 C   0  0  0  0  0  1  0  0  0  0  0  0
  2  6  1  0  0  0  0
  2  3  1  0  0  0  0
  3  1  1  0  0  0  0
  4  7  1  0  0  0  0
  5  8  1  0  0  0  0
  5  4  2  0  0  0  0
  7  1  2  0  0  0  0
  8  2  2  0  0  0  0
  9  5  1  0  0  0  0
 10 23  1  0  0  0  0
 11 10  1  0  0  0  0
 12 20  2  0  0  0  0
 13  4  1  0  0  0  0
 13 24  1  0  0  0  0
 15 18  1  0  0  0  0
 15 14  1  0  0  0  0
 16 21  1  0  0  0  0
 16 13  2  0  0  0  0
 17 15  1  0  0  0  0
 17 24  1  0  0  0  0
 18 14  1  0  0  0  0
 19 10  2  0  0  0  0
 19 12  1  0  0  0  0
 20 22  1  0  0  0  0
 20 21  1  0  0  0  0
 21 17  2  0  0  0  0
 22 25  1  0  0  0  0
 23 22  2  0  0  0  0
 25 15  1  0  0  0  0
 26 27  2  0  0  0  0
 27  8  1  0  0  0  0
 28 43  1  1  0  0  0
 28 32  1  0  0  0  0
 29 32  1  0  0  0  0
 29 26  1  1  0  0  0
 30 29  1  0  0  0  0
 31 30  2  0  0  0  0
 31 28  1  0  0  0  0
 33 35  1  0  0  0  0
 36 34  1  6  0  0  0
 36 29  1  0  0  0  0
 36 35  1  0  0  0  0
 37 38  1  6  0  0  0
 37 34  1  0  0  0  0
 37 33  1  0  0  0  0
 38 39  2  0  0  0  0
 40 42  1  0  0  0  0
 41 42  2  0  0  0  0
 42 38  1  0  0  0  0
 43 45  1  0  0  0  0
 43 44  2  0  0  0  0
 45 46  1  0  0  0  0
 46 47  1  0  0  0  0
M  END
>  <MODEL>
7

>  <REMARK>
 VINA RESULT:      -7.5      2.073      3.324
  Name = 
  9 active torsions:
  status: ('A' for Active; 'I' for Inactive)
    1  A    between atoms: C_2  and  O_26
    2  A    between atoms: C_5  and  C_8
    3  A    between atoms: C_8  and  O_26
    4  A    between atoms: C_13  and  C_14
    5  A    between atoms: C_16  and  C_20
    6  A    between atoms: C_16  and  N_36
    7  A    between atoms: C_19  and  C_46
    8  A    between atoms: C_19  and  C_47
    9  A    between atoms: C_27  and  C_42
                            x       y       z     vdW  Elec       q    Type
                         _______ _______ _______ _____ _____    ______ ____

>  <TORSDO>
F 9

$$$$
=
 OpenBabel11072409023D

 47 53  0  0  1  0  0  0  0  0999 V2000
  193.3710  176.3660  146.5870 C   0  0  0  0  0  3  0  0  0  0  0  0
  190.8660  176.4500  146.5560 C   0  0  0  0  0  0  0  0  0  0  0  0
  192.1120  176.4420  147.2450 N   0  0  0  0  0  2  0  0  0  0  0  0
  192.8140  174.4060  145.2220 C   0  0  0  0  0  0  0  0  0  0  0  0
  191.4620  174.4780  145.1310 C   0  0  0  0  0  0  0  0  0  0  0  0
  189.8690  177.3450  147.0480 N   0  0  0  0  0  1  0  0  0  0  0  0
  193.6390  175.4870  145.6780 N   0  0  0  0  0  0  0  0  0  0  0  0
  190.6190  175.6520  145.4900 C   0  0  0  0  0  0  0  0  0  0  0  0
  190.7730  173.3910  144.5950 O   0  0  0  0  0  1  0  0  0  0  0  0
  196.1290  169.2300  140.4410 C   0  0  0  0  0  0  0  0  0  0  0  0
  196.6810  168.3690  139.3640 C   0  0  0  0  0  1  0  0  0  0  0  0
  195.0480  171.2470  141.0870 C   0  0  0  0  0  3  0  0  0  0  0  0
  193.5550  173.2090  144.7500 C   0  0  0  0  0  0  0  0  0  0  0  0
  195.8990  169.9640  146.5130 C   0  0  0  0  0  2  0  0  0  0  0  0
  195.1280  170.0060  145.2170 C   0  0  0  0  0  0  0  0  0  0  0  0
  193.8870  172.9180  143.4240 C   0  0  0  0  0  3  0  0  0  0  0  0
  194.5210  171.3070  144.8050 C   0  0  0  0  0  0  0  0  0  0  0  0
  194.5450  169.2580  146.3900 C   0  0  0  0  0  2  0  0  0  0  0  0
  195.5710  170.4320  140.1310 N   0  0  0  0  0  0  0  0  0  0  0  0
  195.0750  170.8550  142.4280 C   0  0  0  0  0  0  0  0  0  0  0  0
  194.5120  171.6940  143.4980 C   0  0  0  0  0  0  0  0  0  0  0  0
  195.6480  169.6110  142.7740 C   0  0  0  0  0  0  0  0  0  0  0  0
  196.1770  168.7980  141.7700 C   0  0  0  0  0  3  0  0  0  0  0  0
  193.9310  172.2190  145.5930 N   0  0  0  0  0  2  0  0  0  0  0  0
  195.6820  169.1740  144.1470 N   0  0  0  0  0  2  0  0  0  0  0  0
  189.3130  176.1900  143.4040 C   0  0  0  0  0  3  0  0  0  0  0  0
  189.3850  175.7710  144.6670 C   0  0  0  0  0  3  0  0  0  0  0  0
  186.3420  177.6410  143.3060 C   0  0  1  0  0  3  0  0  0  0  0  0
  188.0200  176.2590  142.6310 C   0  0  2  0  0  0  0  0  0  0  0  0
  188.0010  177.4850  141.7690 C   0  0  0  0  0  3  0  0  0  0  0  0
  187.0420  178.2820  142.1680 C   0  0  0  0  0  3  0  0  0  0  0  0
  186.9770  176.4090  143.5790 O   0  0  0  0  0  0  0  0  0  0  0  0
  188.5970  173.9710  139.9650 C   0  0  0  0  0  2  0  0  0  0  0  0
  188.6390  173.9120  142.3330 C   0  0  0  0  0  2  0  0  0  0  0  0
  188.1450  175.2430  140.5080 N   0  0  0  0  0  2  0  0  0  0  0  0
  187.7990  175.0140  141.8580 N   0  0  2  0  0  0  0  0  0  0  0  0
  189.1250  173.1650  141.1210 C   0  0  2  0  0  3  0  0  0  0  0  0
  190.6230  173.1150  141.1050 C   0  0  0  0  0  0  0  0  0  0  0  0
  191.2920  174.1480  141.3850 O   0  0  0  0  0  0  0  0  0  0  0  0
  191.8030  171.6000  139.3940 C   0  0  0  0  0  1  0  0  0  0  0  0
  191.5040  170.9870  141.6670 O   0  0  0  0  0  0  0  0  0  0  0  0
  191.3150  171.8580  140.7770 C   0  0  0  0  0  0  0  0  0  0  0  0
  186.3720  178.5170  144.5160 C   0  0  0  0  0  0  0  0  0  0  0  0
  185.9390  179.7020  144.4540 O   0  0  0  0  0  0  0  0  0  0  0  0
  186.8940  178.0100  145.7090 O   0  0  0  0  0  0  0  0  0  0  0  0
  186.1070  177.8510  146.8830 C   0  0  0  0  0  2  0  0  0  0  0  0
  184.8080  177.1380  146.5560 C   0  0  0  0  0  1  0  0  0  0  0  0
  1  3  1  0  0  0  0
  2  6  1  0  0  0  0
  2  3  1  0  0  0  0
  4  7  1  0  0  0  0
  5  4  2  0  0  0  0
  5  8  1  0  0  0  0
  7  1  2  0  0  0  0
  8  2  2  0  0  0  0
  9  5  1  0  0  0  0
 10 23  1  0  0  0  0
 11 10  1  0  0  0  0
 12 20  2  0  0  0  0
 13  4  1  0  0  0  0
 13 24  1  0  0  0  0
 15 18  1  0  0  0  0
 15 14  1  0  0  0  0
 16 21  1  0  0  0  0
 16 13  2  0  0  0  0
 17 15  1  0  0  0  0
 17 24  1  0  0  0  0
 18 14  1  0  0  0  0
 19 10  2  0  0  0  0
 19 12  1  0  0  0  0
 20 22  1  0  0  0  0
 20 21  1  0  0  0  0
 21 17  2  0  0  0  0
 22 25  1  0  0  0  0
 23 22  2  0  0  0  0
 25 15  1  0  0  0  0
 26 27  2  0  0  0  0
 27  8  1  0  0  0  0
 28 32  1  0  0  0  0
 28 43  1  1  0  0  0
 29 26  1  1  0  0  0
 29 32  1  0  0  0  0
 30 31  2  0  0  0  0
 30 29  1  0  0  0  0
 31 28  1  0  0  0  0
 33 35  1  0  0  0  0
 33 37  1  0  0  0  0
 35 36  1  0  0  0  0
 36 34  1  1  0  0  0
 36 29  1  0  0  0  0
 37 38  1  6  0  0  0
 37 34  1  0  0  0  0
 38 39  2  0  0  0  0
 40 42  1  0  0  0  0
 42 38  1  0  0  0  0
 42 41  2  0  0  0  0
 43 45  1  0  0  0  0
 44 43  2  0  0  0  0
 45 46  1  0  0  0  0
 47 46  1  0  0  0  0
M  END
>  <MODEL>
8

>  <REMARK>
 VINA RESULT:      -7.5      2.781      9.055
  Name = 
  9 active torsions:
  status: ('A' for Active; 'I' for Inactive)
    1  A    between atoms: C_2  and  O_26
    2  A    between atoms: C_5  and  C_8
    3  A    between atoms: C_8  and  O_26
    4  A    between atoms: C_13  and  C_14
    5  A    between atoms: C_16  and  C_20
    6  A    between atoms: C_16  and  N_36
    7  A    between atoms: C_19  and  C_46
    8  A    between atoms: C_19  and  C_47
    9  A    between atoms: C_27  and  C_42
                            x       y       z     vdW  Elec       q    Type
                         _______ _______ _______ _____ _____    ______ ____

>  <TORSDO>
F 9

$$$$
=
 OpenBabel11072409023D

 47 53  0  0  1  0  0  0  0  0999 V2000
  190.5420  170.8780  141.3420 C   0  0  0  0  0  3  0  0  0  0  0  0
  193.0150  171.1930  141.0790 C   0  0  0  0  0  0  0  0  0  0  0  0
  191.8860  170.4540  141.5350 N   0  0  0  0  0  0  0  0  0  0  0  0
  190.8670  173.1340  142.2480 C   0  0  0  0  0  0  0  0  0  0  0  0
  192.1910  173.3510  142.0440 C   0  0  0  0  0  0  0  0  0  0  0  0
  194.0840  170.4380  140.5080 N   0  0  0  0  0  1  0  0  0  0  0  0
  190.1310  172.0700  141.6300 N   0  0  0  0  0  2  0  0  0  0  0  0
  193.0910  172.5410  141.1780 C   0  0  0  0  0  0  0  0  0  0  0  0
  192.7800  174.4680  142.6370 O   0  0  0  0  0  1  0  0  0  0  0  0
  185.9730  178.8830  144.1530 C   0  0  0  0  0  0  0  0  0  0  0  0
  185.0270  180.0200  144.2970 C   0  0  0  0  0  1  0  0  0  0  0  0
  187.1300  177.3600  142.7410 C   0  0  0  0  0  3  0  0  0  0  0  0
  190.0520  174.0650  143.0680 C   0  0  0  0  0  0  0  0  0  0  0  0
  188.9510  174.5410  147.2740 C   0  0  0  0  0  2  0  0  0  0  0  0
  189.0310  175.5700  146.1740 C   0  0  0  0  0  0  0  0  0  0  0  0
  189.1580  175.0230  142.5790 C   0  0  0  0  0  3  0  0  0  0  0  0
  189.3140  175.0920  144.7880 C   0  0  0  0  0  0  0  0  0  0  0  0
  190.1260  175.5210  147.2100 C   0  0  0  0  0  2  0  0  0  0  0  0
  186.2650  178.3950  142.9170 N   0  0  0  0  0  0  0  0  0  0  0  0
  187.7460  176.7710  143.8490 C   0  0  0  0  0  0  0  0  0  0  0  0
  188.6990  175.6580  143.7110 C   0  0  0  0  0  0  0  0  0  0  0  0
  187.4600  177.2610  145.1420 C   0  0  0  0  0  0  0  0  0  0  0  0
  186.5660  178.3240  145.2890 C   0  0  0  0  0  3  0  0  0  0  0  0
  190.1570  174.1160  144.4160 N   0  0  0  0  0  2  0  0  0  0  0  0
  188.0860  176.6810  146.3030 N   0  0  0  0  0  2  0  0  0  0  0  0
  195.4280  173.4690  141.0290 C   0  0  0  0  0  3  0  0  0  0  0  0
  194.1890  173.3310  140.5580 C   0  0  0  0  0  3  0  0  0  0  0  0
  197.3130  173.5950  138.3130 C   0  0  1  0  0  3  0  0  0  0  0  0
  196.4920  174.2730  140.3240 C   0  0  2  0  0  0  0  0  0  0  0  0
  195.8770  175.0920  139.2290 C   0  0  0  0  0  3  0  0  0  0  0  0
  196.3440  174.6890  138.0730 C   0  0  0  0  0  3  0  0  0  0  0  0
  197.3680  173.3490  139.7030 O   0  0  0  0  0  0  0  0  0  0  0  0
  196.8990  176.7930  142.8070 C   0  0  0  0  0  2  0  0  0  0  0  0
  197.3320  174.4710  142.6130 C   0  0  0  0  0  2  0  0  0  0  0  0
  196.6050  176.3380  141.4570 N   0  0  0  0  0  2  0  0  0  0  0  0
  197.2590  175.0970  141.2900 N   0  0  2  0  0  0  0  0  0  0  0  0
  197.1690  175.5640  143.6340 C   0  0  2  0  0  3  0  0  0  0  0  0
  196.0160  175.2610  144.5420 C   0  0  0  0  0  0  0  0  0  0  0  0
  195.1720  176.1600  144.8130 O   0  0  0  0  0  0  0  0  0  0  0  0
  196.8060  173.4050  146.1370 C   0  0  0  0  0  1  0  0  0  0  0  0
  194.9140  173.1690  144.7230 O   0  0  0  0  0  0  0  0  0  0  0  0
  195.8580  173.9110  145.1060 C   0  0  0  0  0  0  0  0  0  0  0  0
  196.9100  172.3530  137.5850 C   0  0  0  0  0  0  0  0  0  0  0  0
  197.0880  171.2200  138.1150 O   0  0  0  0  0  0  0  0  0  0  0  0
  196.3450  172.4650  136.3120 O   0  0  0  0  0  0  0  0  0  0  0  0
  195.1060  171.8560  135.9690 C   0  0  0  0  0  2  0  0  0  0  0  0
  194.1080  172.0120  137.1010 C   0  0  0  0  0  1  0  0  0  0  0  0
  1  3  2  0  0  0  0
  1  7  1  0  0  0  0
  2  8  2  0  0  0  0
  2  3  1  0  0  0  0
  4 13  1  0  0  0  0
  5  4  2  0  0  0  0
  5  9  1  0  0  0  0
  6  2  1  0  0  0  0
  7  4  1  0  0  0  0
  8  5  1  0  0  0  0
 10 11  1  0  0  0  0
 10 23  1  0  0  0  0
 12 19  1  0  0  0  0
 12 20  2  0  0  0  0
 13 24  1  0  0  0  0
 15 25  1  0  0  0  0
 15 18  1  0  0  0  0
 15 14  1  0  0  0  0
 16 13  2  0  0  0  0
 16 21  1  0  0  0  0
 17 15  1  0  0  0  0
 18 14  1  0  0  0  0
 19 10  2  0  0  0  0
 20 22  1  0  0  0  0
 21 20  1  0  0  0  0
 21 17  2  0  0  0  0
 22 23  2  0  0  0  0
 22 25  1  0  0  0  0
 24 17  1  0  0  0  0
 27 26  2  0  0  0  0
 27  8  1  0  0  0  0
 28 43  1  6  0  0  0
 28 32  1  0  0  0  0
 29 26  1  1  0  0  0
 29 36  1  0  0  0  0
 30 29  1  0  0  0  0
 31 28  1  0  0  0  0
 31 30  2  0  0  0  0
 32 29  1  0  0  0  0
 33 37  1  0  0  0  0
 34 37  1  0  0  0  0
 35 33  1  0  0  0  0
 36 35  1  0  0  0  0
 36 34  1  1  0  0  0
 37 38  1  1  0  0  0
 38 39  2  0  0  0  0
 38 42  1  0  0  0  0
 41 42  2  0  0  0  0
 42 40  1  0  0  0  0
 43 44  2  0  0  0  0
 45 43  1  0  0  0  0
 46 45  1  0  0  0  0
 46 47  1  0  0  0  0
M  END
>  <MODEL>
9

>  <REMARK>
 VINA RESULT:      -7.4      2.952      4.752
  Name = 
  9 active torsions:
  status: ('A' for Active; 'I' for Inactive)
    1  A    between atoms: C_2  and  O_26
    2  A    between atoms: C_5  and  C_8
    3  A    between atoms: C_8  and  O_26
    4  A    between atoms: C_13  and  C_14
    5  A    between atoms: C_16  and  C_20
    6  A    between atoms: C_16  and  N_36
    7  A    between atoms: C_19  and  C_46
    8  A    between atoms: C_19  and  C_47
    9  A    between atoms: C_27  and  C_42
                            x       y       z     vdW  Elec       q    Type
                         _______ _______ _______ _____ _____    ______ ____

>  <TORSDO>
F 9

$$$$
