=
 OpenBabel11062421313D

 55 59  0  0  1  0  0  0  0  0999 V2000
  191.9690  171.8960  142.8690 C   0  0  1  0  0  3  0  0  0  0  0  0
  188.5020  174.2770  140.3900 O   0  0  0  0  0  0  0  0  0  0  0  0
  192.4590  172.7780  143.9400 N   0  0  0  0  0  2  0  0  0  0  0  0
  191.9640  174.1570  143.8080 C   0  0  0  0  0  2  0  0  0  0  0  0
  188.3490  172.8730  140.3260 C   0  0  0  0  0  2  0  0  0  0  0  0
  190.7830  172.2030  138.6550 N   0  0  0  0  0  0  0  0  0  0  0  0
  189.3460  171.6450  136.9130 F   0  0  0  0  0  0  0  0  0  0  0  0
  190.1820  170.1810  139.6870 O   0  0  0  0  0  0  0  0  0  0  0  0
  192.1530  171.1560  140.4820 N   0  0  0  0  0  2  0  0  0  0  0  0
  192.5550  172.2020  141.4480 C   0  0  1  0  0  3  0  0  0  0  0  0
  190.6980  173.7530  141.2690 C   0  0  1  0  0  3  0  0  0  0  0  0
  189.4810  173.7950  137.5320 F   0  0  0  0  0  0  0  0  0  0  0  0
  190.9830  171.1580  139.6330 C   0  0  0  0  0  0  0  0  0  0  0  0
  188.2510  172.3100  138.9060 C   0  0  0  0  0  2  0  0  0  0  0  0
  189.6040  174.9450  143.0110 C   0  0  2  0  0  3  0  0  0  0  0  0
  191.9760  172.7700  138.0230 C   0  0  0  0  0  1  0  0  0  0  0  0
  190.4770  174.3960  144.2340 C   0  0  1  0  0  0  0  0  0  0  0  0
  189.9100  173.1820  144.6510 O   0  0  0  0  0  1  0  0  0  0  0  0
  189.4870  172.4880  138.0020 C   0  0  0  0  0  0  0  0  0  0  0  0
  190.4120  175.1520  141.7130 C   0  0  2  0  0  3  0  0  0  0  0  0
  189.8790  174.6200  140.3580 C   0  0  2  0  0  3  0  0  0  0  0  0
  192.1570  173.5950  140.9400 C   0  0  0  0  0  2  0  0  0  0  0  0
  192.3040  176.4110  146.8050 C   0  0  1  0  0  3  0  0  0  0  0  0
  191.5820  176.3930  145.5100 C   0  0  0  0  0  0  0  0  0  0  0  0
  190.4680  175.3960  145.4430 C   0  0  2  0  0  3  0  0  0  0  0  0
  191.5230  175.4560  147.6940 C   0  0  0  0  0  2  0  0  0  0  0  0
  191.7660  177.2420  144.6560 O   0  0  0  0  0  0  0  0  0  0  0  0
  190.5620  174.6680  146.7920 C   0  0  0  0  0  2  0  0  0  0  0  0
  194.5960  177.0630  146.3540 O   0  0  0  0  0  1  0  0  0  0  0  0
  193.7630  175.9740  146.6470 C   0  0  0  0  0  2  0  0  0  0  0  0
  188.7910  176.2170  143.3180 C   0  0  0  0  0  2  0  0  0  0  0  0
  187.3510  175.9520  143.6060 C   0  0  0  0  0  0  0  0  0  0  0  0
  186.6870  175.2560  142.7890 O   0  0  0  0  0  0  0  0  0  0  0  0
  186.7460  176.4970  144.7480 O   0  0  0  0  0  0  0  0  0  0  0  0
  187.1820  177.7250  145.3430 C   0  0  2  0  0  3  0  0  0  0  0  0
  187.3990  176.1620  147.1440 O   0  0  0  0  0  1  0  0  0  0  0  0
  187.6690  177.4820  146.7750 C   0  0  2  0  0  3  0  0  0  0  0  0
  187.0130  178.4340  147.7670 C   0  0  0  0  0  1  0  0  0  0  0  0
  186.0690  178.7790  145.3440 C   0  0  0  0  0  2  0  0  0  0  0  0
  183.9270  178.0400  146.0970 O   0  0  0  0  0  1  0  0  0  0  0  0
  184.7170  178.1820  144.9490 C   0  0  1  0  0  3  0  0  0  0  0  0
  183.9920  179.0860  143.9540 C   0  0  0  0  0  2  0  0  0  0  0  0
  183.0610  178.0170  142.0380 O   0  0  0  0  0  0  0  0  0  0  0  0
  185.3370  178.5190  141.8890 N   0  0  0  0  0  2  0  0  0  0  0  0
  184.0860  178.5110  142.5810 C   0  0  0  0  0  0  0  0  0  0  0  0
  185.5080  177.8600  140.6140 C   0  0  0  0  0  2  0  0  0  0  0  0
  186.9800  177.6210  140.3540 C   0  0  0  0  0  1  0  0  0  0  0  0
  192.1590  170.4330  143.2650 C   0  0  0  0  0  2  0  0  0  0  0  0
  192.8330  170.2910  144.6200 C   0  0  0  0  0  2  0  0  0  0  0  0
  193.0830  168.9430  144.8760 O   0  0  0  0  0  0  0  0  0  0  0  0
  194.9310  170.0680  146.0530 C   0  0  0  0  0  2  0  0  0  0  0  0
  194.4220  168.8540  145.2960 C   0  0  0  0  0  0  0  0  0  0  0  0
  194.6570  168.7590  146.7930 C   0  0  0  0  0  2  0  0  0  0  0  0
  195.3630  168.2010  144.4750 O   0  0  0  0  0  0  0  0  0  0  0  0
  196.6230  168.5610  144.9530 C   0  0  0  0  0  1  0  0  0  0  0  0
  1 48  1  1  0  0  0
  1  3  1  0  0  0  0
  4  3  1  0  0  0  0
  4 17  1  0  0  0  0
  5  2  1  0  0  0  0
  6 13  1  0  0  0  0
  7 19  1  0  0  0  0
  9 10  1  0  0  0  0
 10 22  1  6  0  0  0
 10  1  1  0  0  0  0
 11 22  1  6  0  0  0
 11 20  1  0  0  0  0
 12 19  1  0  0  0  0
 13  8  2  0  0  0  0
 13  9  1  0  0  0  0
 14  5  1  0  0  0  0
 15 31  1  1  0  0  0
 15 17  1  0  0  0  0
 16  6  1  0  0  0  0
 17 18  1  1  0  0  0
 17 25  1  0  0  0  0
 19  6  1  0  0  0  0
 19 14  1  0  0  0  0
 20 15  1  0  0  0  0
 21  2  1  0  0  0  0
 21 11  1  0  0  0  0
 21 20  1  0  0  0  0
 23 26  1  0  0  0  0
 24 23  1  0  0  0  0
 25 24  1  0  0  0  0
 25 28  1  0  0  0  0
 27 24  2  0  0  0  0
 28 26  1  0  0  0  0
 29 30  1  0  0  0  0
 30 23  1  0  0  0  0
 31 32  1  0  0  0  0
 32 34  1  0  0  0  0
 33 32  2  0  0  0  0
 34 35  1  0  0  0  0
 35 39  1  0  0  0  0
 35 37  1  0  0  0  0
 37 36  1  0  0  0  0
 37 38  1  0  0  0  0
 41 39  1  0  0  0  0
 41 40  1  0  0  0  0
 42 41  1  0  0  0  0
 43 45  2  0  0  0  0
 44 45  1  0  0  0  0
 45 42  1  0  0  0  0
 46 44  1  0  0  0  0
 47 46  1  0  0  0  0
 48 49  1  0  0  0  0
 49 50  1  0  0  0  0
 50 52  1  0  0  0  0
 51 53  1  0  0  0  0
 52 51  1  0  0  0  0
 52 53  1  0  0  0  0
 54 55  1  0  0  0  0
 54 52  1  0  0  0  0
M  END
>  <MODEL>
1

>  <REMARK>
 VINA RESULT:      -6.8      0.000      0.000
  Name = 
  17 active torsions:
  status: ('A' for Active; 'I' for Inactive)
    1  A    between atoms: C_3  and  C_35
    2  A    between atoms: C_3  and  C_54
    3  A    between atoms: C_4  and  C_37
    4  A    between atoms: C_5  and  C_43
    5  A    between atoms: O_7  and  C_33
    6  A    between atoms: C_9  and  C_14
    7  A    between atoms: C_9  and  C_29
    8  A    between atoms: C_14  and  O_28
    9  A    between atoms: C_16  and  C_49
   10  A    between atoms: C_27  and  O_32
   11  A    between atoms: C_27  and  C_37
   12  A    between atoms: O_28  and  C_43
   13  A    between atoms: C_31  and  C_39
   14  A    between atoms: O_32  and  C_33
   15  A    between atoms: C_35  and  C_44
   16  A    between atoms: C_36  and  N_51
   17  A    between atoms: C_43  and  C_44
                            x       y       z     vdW  Elec       q    Type
                         _______ _______ _______ _____ _____    ______ ____

>  <TORSDO>
F 17

$$$$
=
 OpenBabel11062421313D

 55 59  0  0  1  0  0  0  0  0999 V2000
  190.7600  176.8440  145.5070 C   0  0  1  0  0  3  0  0  0  0  0  0
  192.0960  173.0820  142.6970 O   0  0  0  0  0  0  0  0  0  0  0  0
  189.8280  177.6850  144.7390 N   0  0  0  0  0  2  0  0  0  0  0  0
  189.7630  177.3070  143.3190 C   0  0  0  0  0  2  0  0  0  0  0  0
  192.1740  172.7840  144.0760 C   0  0  0  0  0  2  0  0  0  0  0  0
  194.4720  174.6040  144.8290 N   0  0  0  0  0  0  0  0  0  0  0  0
  195.7760  172.7050  145.1540 F   0  0  0  0  0  0  0  0  0  0  0  0
  193.3990  174.1120  146.8590 O   0  0  0  0  0  0  0  0  0  0  0  0
  193.1350  176.3080  146.1010 N   0  0  0  0  0  2  0  0  0  0  0  0
  192.2730  177.0530  145.1570 C   0  0  1  0  0  3  0  0  0  0  0  0
  191.8730  175.3730  143.4530 C   0  0  1  0  0  3  0  0  0  0  0  0
  195.1290  173.2060  143.0670 F   0  0  0  0  0  0  0  0  0  0  0  0
  193.6300  174.9590  145.9490 C   0  0  0  0  0  0  0  0  0  0  0  0
  193.5340  172.2550  144.5350 C   0  0  0  0  0  2  0  0  0  0  0  0
  189.8510  174.9060  142.2920 C   0  0  2  0  0  3  0  0  0  0  0  0
  195.3820  175.6320  144.3200 C   0  0  0  0  0  1  0  0  0  0  0  0
  188.9370  176.0200  142.9890 C   0  0  1  0  0  0  0  0  0  0  0  0
  188.4320  175.4720  144.1780 O   0  0  0  0  0  1  0  0  0  0  0  0
  194.7340  173.2130  144.3980 C   0  0  0  0  0  0  0  0  0  0  0  0
  191.3100  175.3510  142.0670 C   0  0  2  0  0  3  0  0  0  0  0  0
  192.4890  174.4260  142.4640 C   0  0  2  0  0  3  0  0  0  0  0  0
  192.5950  176.6680  143.7050 C   0  0  0  0  0  2  0  0  0  0  0  0
  186.2050  178.4130  142.0860 C   0  0  1  0  0  3  0  0  0  0  0  0
  187.5600  177.8910  141.7890 C   0  0  0  0  0  0  0  0  0  0  0  0
  187.7310  176.4310  142.0740 C   0  0  2  0  0  3  0  0  0  0  0  0
  185.3940  177.1830  142.4630 C   0  0  0  0  0  2  0  0  0  0  0  0
  188.3920  178.5540  141.1950 O   0  0  0  0  0  0  0  0  0  0  0  0
  186.3810  176.0290  142.6840 C   0  0  0  0  0  2  0  0  0  0  0  0
  184.9770  179.5570  143.8370 O   0  0  0  0  0  1  0  0  0  0  0  0
  186.2300  179.4440  143.2180 C   0  0  0  0  0  2  0  0  0  0  0  0
  189.2810  174.3310  140.9820 C   0  0  0  0  0  2  0  0  0  0  0  0
  188.7970  172.9250  141.1060 C   0  0  0  0  0  0  0  0  0  0  0  0
  187.6390  172.7190  141.5640 O   0  0  0  0  0  0  0  0  0  0  0  0
  189.6320  171.8550  140.7500 O   0  0  0  0  0  0  0  0  0  0  0  0
  190.3580  171.8200  139.5150 C   0  0  2  0  0  3  0  0  0  0  0  0
  190.0620  169.7200  138.4040 O   0  0  0  0  0  1  0  0  0  0  0  0
  189.5790  171.0300  138.4590 C   0  0  2  0  0  3  0  0  0  0  0  0
  189.6810  171.6700  137.0810 C   0  0  0  0  0  1  0  0  0  0  0  0
  191.7520  171.2100  139.6970 C   0  0  0  0  0  2  0  0  0  0  0  0
  193.1790  171.5660  137.8150 O   0  0  0  0  0  1  0  0  0  0  0  0
  192.8430  172.0820  139.0730 C   0  0  1  0  0  3  0  0  0  0  0  0
  192.3620  173.5220  138.9090 C   0  0  0  0  0  2  0  0  0  0  0  0
  193.5410  175.2880  137.8250 O   0  0  0  0  0  0  0  0  0  0  0  0
  194.6360  174.3390  139.6570 N   0  0  0  0  0  2  0  0  0  0  0  0
  193.5310  174.4360  138.7540 C   0  0  0  0  0  0  0  0  0  0  0  0
  195.8440  175.1100  139.4700 C   0  0  0  0  0  2  0  0  0  0  0  0
  196.0640  176.0140  140.6640 C   0  0  0  0  0  1  0  0  0  0  0  0
  190.4910  176.9930  147.0030 C   0  0  0  0  0  2  0  0  0  0  0  0
  189.1080  177.5580  147.2820 C   0  0  0  0  0  2  0  0  0  0  0  0
  188.1670  176.5300  147.2290 O   0  0  0  0  0  0  0  0  0  0  0  0
  186.3460  177.9610  148.0700 C   0  0  0  0  0  2  0  0  0  0  0  0
  186.9300  177.1310  146.9380 C   0  0  0  0  0  0  0  0  0  0  0  0
  186.9220  178.6460  146.8310 C   0  0  0  0  0  2  0  0  0  0  0  0
  185.9970  176.4460  146.1350 O   0  0  0  0  0  0  0  0  0  0  0  0
  184.7730  177.0920  146.3090 C   0  0  0  0  0  1  0  0  0  0  0  0
  1 48  1  1  0  0  0
  2  5  1  0  0  0  0
  3  1  1  0  0  0  0
  4  3  1  0  0  0  0
  5 14  1  0  0  0  0
  6 13  1  0  0  0  0
 10 22  1  6  0  0  0
 10  1  1  0  0  0  0
 10  9  1  0  0  0  0
 11 22  1  6  0  0  0
 12 19  1  0  0  0  0
 13  9  1  0  0  0  0
 13  8  2  0  0  0  0
 15 31  1  6  0  0  0
 15 17  1  0  0  0  0
 16  6  1  0  0  0  0
 17  4  1  0  0  0  0
 17 18  1  1  0  0  0
 19 14  1  0  0  0  0
 19  6  1  0  0  0  0
 19  7  1  0  0  0  0
 20 15  1  0  0  0  0
 20 21  1  0  0  0  0
 20 11  1  0  0  0  0
 21  2  1  0  0  0  0
 21 11  1  0  0  0  0
 23 26  1  0  0  0  0
 23 30  1  0  0  0  0
 24 25  1  0  0  0  0
 24 23  1  0  0  0  0
 25 28  1  0  0  0  0
 25 17  1  0  0  0  0
 26 28  1  0  0  0  0
 27 24  2  0  0  0  0
 30 29  1  0  0  0  0
 31 32  1  0  0  0  0
 32 33  2  0  0  0  0
 34 32  1  0  0  0  0
 35 39  1  0  0  0  0
 35 34  1  0  0  0  0
 36 37  1  0  0  0  0
 37 35  1  0  0  0  0
 38 37  1  0  0  0  0
 40 41  1  0  0  0  0
 41 39  1  0  0  0  0
 42 41  1  0  0  0  0
 43 45  2  0  0  0  0
 45 42  1  0  0  0  0
 45 44  1  0  0  0  0
 46 44  1  0  0  0  0
 46 47  1  0  0  0  0
 48 49  1  0  0  0  0
 50 49  1  0  0  0  0
 52 50  1  0  0  0  0
 52 51  1  0  0  0  0
 53 52  1  0  0  0  0
 53 51  1  0  0  0  0
 54 55  1  0  0  0  0
 54 52  1  0  0  0  0
M  END
>  <MODEL>
2

>  <REMARK>
 VINA RESULT:      -6.6      2.958      8.526
  Name = 
  17 active torsions:
  status: ('A' for Active; 'I' for Inactive)
    1  A    between atoms: C_3  and  C_35
    2  A    between atoms: C_3  and  C_54
    3  A    between atoms: C_4  and  C_37
    4  A    between atoms: C_5  and  C_43
    5  A    between atoms: O_7  and  C_33
    6  A    between atoms: C_9  and  C_14
    7  A    between atoms: C_9  and  C_29
    8  A    between atoms: C_14  and  O_28
    9  A    between atoms: C_16  and  C_49
   10  A    between atoms: C_27  and  O_32
   11  A    between atoms: C_27  and  C_37
   12  A    between atoms: O_28  and  C_43
   13  A    between atoms: C_31  and  C_39
   14  A    between atoms: O_32  and  C_33
   15  A    between atoms: C_35  and  C_44
   16  A    between atoms: C_36  and  N_51
   17  A    between atoms: C_43  and  C_44
                            x       y       z     vdW  Elec       q    Type
                         _______ _______ _______ _____ _____    ______ ____

>  <TORSDO>
F 17

$$$$
=
 OpenBabel11062421313D

 55 59  0  0  1  0  0  0  0  0999 V2000
  194.3630  171.0290  141.3520 C   0  0  1  0  0  3  0  0  0  0  0  0
  190.0200  172.5420  139.7150 O   0  0  0  0  0  0  0  0  0  0  0  0
  194.9240  172.0810  142.2140 N   0  0  0  0  0  2  0  0  0  0  0  0
  194.1640  173.3380  142.1390 C   0  0  0  0  0  2  0  0  0  0  0  0
  190.1200  171.1330  139.7670 C   0  0  0  0  0  2  0  0  0  0  0  0
  192.1600  170.7180  137.5690 N   0  0  0  0  0  0  0  0  0  0  0  0
  190.4740  169.7600  136.2830 F   0  0  0  0  0  0  0  0  0  0  0  0
  192.2130  168.7360  138.8270 O   0  0  0  0  0  0  0  0  0  0  0  0
  194.1000  170.0990  139.0390 N   0  0  0  0  0  2  0  0  0  0  0  0
  194.5220  171.2870  139.8140 C   0  0  1  0  0  3  0  0  0  0  0  0
  192.4210  172.4810  140.0330 C   0  0  1  0  0  3  0  0  0  0  0  0
  190.3530  171.9520  136.7330 F   0  0  0  0  0  0  0  0  0  0  0  0
  192.7810  169.8220  138.5180 C   0  0  0  0  0  0  0  0  0  0  0  0
  189.7890  170.4250  138.4510 C   0  0  0  0  0  2  0  0  0  0  0  0
  191.5770  173.6400  141.9290 C   0  0  2  0  0  3  0  0  0  0  0  0
  193.0380  171.4110  136.6250 C   0  0  0  0  0  1  0  0  0  0  0  0
  192.8060  173.3670  142.9170 C   0  0  1  0  0  0  0  0  0  0  0  0
  192.5920  172.1220  143.5280 O   0  0  0  0  0  1  0  0  0  0  0  0
  190.7150  170.7170  137.2540 C   0  0  0  0  0  0  0  0  0  0  0  0
  191.9950  173.8490  140.4590 C   0  0  2  0  0  3  0  0  0  0  0  0
  191.2590  173.1060  139.3150 C   0  0  2  0  0  3  0  0  0  0  0  0
  193.7610  172.5380  139.3510 C   0  0  0  0  0  2  0  0  0  0  0  0
  194.7510  175.9970  144.7350 C   0  0  1  0  0  3  0  0  0  0  0  0
  193.7150  175.6820  143.7220 C   0  0  0  0  0  0  0  0  0  0  0  0
  192.9030  174.4640  144.0330 C   0  0  2  0  0  3  0  0  0  0  0  0
  194.5110  174.9960  145.8540 C   0  0  0  0  0  2  0  0  0  0  0  0
  193.4380  176.4540  142.8210 O   0  0  0  0  0  0  0  0  0  0  0  0
  193.5510  173.9250  145.3170 C   0  0  0  0  0  2  0  0  0  0  0  0
  196.6070  177.0920  143.6230 O   0  0  0  0  0  1  0  0  0  0  0  0
  196.1640  175.8740  144.1580 C   0  0  0  0  0  2  0  0  0  0  0  0
  190.6410  174.7820  142.3650 C   0  0  0  0  0  2  0  0  0  0  0  0
  189.3740  174.3090  142.9980 C   0  0  0  0  0  0  0  0  0  0  0  0
  188.4260  173.9350  142.2540 O   0  0  0  0  0  0  0  0  0  0  0  0
  189.2360  174.3130  144.3940 O   0  0  0  0  0  0  0  0  0  0  0  0
  189.6850  175.4010  145.2120 C   0  0  2  0  0  3  0  0  0  0  0  0
  189.0990  174.3480  147.2800 O   0  0  0  0  0  1  0  0  0  0  0  0
  190.1740  174.8850  146.5680 C   0  0  2  0  0  3  0  0  0  0  0  0
  190.8340  175.9840  147.3900 C   0  0  0  0  0  1  0  0  0  0  0  0
  188.5810  176.4440  145.4190 C   0  0  0  0  0  2  0  0  0  0  0  0
  190.1800  177.8070  144.2840 O   0  0  0  0  0  1  0  0  0  0  0  0
  188.8140  177.6990  144.5770 C   0  0  1  0  0  3  0  0  0  0  0  0
  188.0280  177.6310  143.2690 C   0  0  0  0  0  2  0  0  0  0  0  0
  185.9380  176.4880  143.1620 O   0  0  0  0  0  0  0  0  0  0  0  0
  185.8930  178.5430  144.2730 N   0  0  0  0  0  2  0  0  0  0  0  0
  186.5690  177.5060  143.5570 C   0  0  0  0  0  0  0  0  0  0  0  0
  184.4610  178.5300  144.4620 C   0  0  0  0  0  2  0  0  0  0  0  0
  184.1370  178.6160  145.9380 C   0  0  0  0  0  1  0  0  0  0  0  0
  194.9120  169.6640  141.7640 C   0  0  0  0  0  2  0  0  0  0  0  0
  194.7060  169.3880  143.2440 C   0  0  0  0  0  2  0  0  0  0  0  0
  195.9000  168.9310  143.8030 O   0  0  0  0  0  0  0  0  0  0  0  0
  195.8610  170.8020  145.4040 C   0  0  0  0  0  2  0  0  0  0  0  0
  195.8790  169.3030  145.1580 C   0  0  0  0  0  0  0  0  0  0  0  0
  194.6080  169.9650  145.6580 C   0  0  0  0  0  2  0  0  0  0  0  0
  196.5920  168.5340  146.0990 O   0  0  0  0  0  0  0  0  0  0  0  0
  196.6270  169.2810  147.2770 C   0  0  0  0  0  1  0  0  0  0  0  0
  1 48  1  1  0  0  0
  1  3  1  0  0  0  0
  2  5  1  0  0  0  0
  4  3  1  0  0  0  0
  4 17  1  0  0  0  0
  6 13  1  0  0  0  0
  7 19  1  0  0  0  0
  9 10  1  0  0  0  0
 10 22  1  6  0  0  0
 10  1  1  0  0  0  0
 11 22  1  6  0  0  0
 11 20  1  0  0  0  0
 12 19  1  0  0  0  0
 13  8  2  0  0  0  0
 13  9  1  0  0  0  0
 14  5  1  0  0  0  0
 15 31  1  1  0  0  0
 15 17  1  0  0  0  0
 16  6  1  0  0  0  0
 17 18  1  1  0  0  0
 17 25  1  0  0  0  0
 19  6  1  0  0  0  0
 19 14  1  0  0  0  0
 20 15  1  0  0  0  0
 21  2  1  0  0  0  0
 21 11  1  0  0  0  0
 21 20  1  0  0  0  0
 23 26  1  0  0  0  0
 24 25  1  0  0  0  0
 24 23  1  0  0  0  0
 25 28  1  0  0  0  0
 27 24  2  0  0  0  0
 28 26  1  0  0  0  0
 29 30  1  0  0  0  0
 30 23  1  0  0  0  0
 31 32  1  0  0  0  0
 32 34  1  0  0  0  0
 33 32  2  0  0  0  0
 34 35  1  0  0  0  0
 35 39  1  0  0  0  0
 35 37  1  0  0  0  0
 37 36  1  0  0  0  0
 37 38  1  0  0  0  0
 40 41  1  0  0  0  0
 41 39  1  0  0  0  0
 42 45  1  0  0  0  0
 42 41  1  0  0  0  0
 43 45  2  0  0  0  0
 44 46  1  0  0  0  0
 45 44  1  0  0  0  0
 46 47  1  0  0  0  0
 48 49  1  0  0  0  0
 49 50  1  0  0  0  0
 50 52  1  0  0  0  0
 51 53  1  0  0  0  0
 52 51  1  0  0  0  0
 52 53  1  0  0  0  0
 52 54  1  0  0  0  0
 54 55  1  0  0  0  0
M  END
>  <MODEL>
3

>  <REMARK>
 VINA RESULT:      -6.5      2.018      3.089
  Name = 
  17 active torsions:
  status: ('A' for Active; 'I' for Inactive)
    1  A    between atoms: C_3  and  C_35
    2  A    between atoms: C_3  and  C_54
    3  A    between atoms: C_4  and  C_37
    4  A    between atoms: C_5  and  C_43
    5  A    between atoms: O_7  and  C_33
    6  A    between atoms: C_9  and  C_14
    7  A    between atoms: C_9  and  C_29
    8  A    between atoms: C_14  and  O_28
    9  A    between atoms: C_16  and  C_49
   10  A    between atoms: C_27  and  O_32
   11  A    between atoms: C_27  and  C_37
   12  A    between atoms: O_28  and  C_43
   13  A    between atoms: C_31  and  C_39
   14  A    between atoms: O_32  and  C_33
   15  A    between atoms: C_35  and  C_44
   16  A    between atoms: C_36  and  N_51
   17  A    between atoms: C_43  and  C_44
                            x       y       z     vdW  Elec       q    Type
                         _______ _______ _______ _____ _____    ______ ____

>  <TORSDO>
F 17

$$$$
=
 OpenBabel11062421313D

 55 59  0  0  1  0  0  0  0  0999 V2000
  192.8870  171.4230  143.2120 C   0  0  1  0  0  3  0  0  0  0  0  0
  189.8680  173.5220  140.0000 O   0  0  0  0  0  0  0  0  0  0  0  0
  193.3010  172.4420  144.1900 N   0  0  0  0  0  2  0  0  0  0  0  0
  192.9050  173.8020  143.7920 C   0  0  0  0  0  2  0  0  0  0  0  0
  189.6430  172.1320  140.1300 C   0  0  0  0  0  2  0  0  0  0  0  0
  192.2090  171.1150  138.8870 N   0  0  0  0  0  0  0  0  0  0  0  0
  190.9500  170.3480  137.0870 F   0  0  0  0  0  0  0  0  0  0  0  0
  191.3790  169.3040  140.1310 O   0  0  0  0  0  0  0  0  0  0  0  0
  193.2990  170.3130  141.0030 N   0  0  0  0  0  2  0  0  0  0  0  0
  193.6480  171.4800  141.8430 C   0  0  1  0  0  3  0  0  0  0  0  0
  191.9150  173.0560  141.2090 C   0  0  1  0  0  3  0  0  0  0  0  0
  191.1370  172.5620  137.3880 F   0  0  0  0  0  0  0  0  0  0  0  0
  192.2360  170.2280  140.0280 C   0  0  0  0  0  0  0  0  0  0  0  0
  189.6750  171.3590  138.8100 C   0  0  0  0  0  2  0  0  0  0  0  0
  190.7000  174.5480  142.6050 C   0  0  2  0  0  3  0  0  0  0  0  0
  193.4970  171.5290  138.3270 C   0  0  0  0  0  1  0  0  0  0  0  0
  191.3950  174.1620  143.9940 C   0  0  1  0  0  0  0  0  0  0  0  0
  190.7150  173.0510  144.5160 O   0  0  0  0  0  1  0  0  0  0  0  0
  191.0140  171.3450  138.0460 C   0  0  0  0  0  0  0  0  0  0  0  0
  191.6610  174.5170  141.3990 C   0  0  2  0  0  3  0  0  0  0  0  0
  191.2570  173.8010  140.0840 C   0  0  2  0  0  3  0  0  0  0  0  0
  193.3910  172.7920  141.0870 C   0  0  0  0  0  2  0  0  0  0  0  0
  193.0480  176.5790  146.3250 C   0  0  1  0  0  3  0  0  0  0  0  0
  192.4080  176.3490  145.0070 C   0  0  0  0  0  0  0  0  0  0  0  0
  191.3050  175.3380  145.0290 C   0  0  2  0  0  3  0  0  0  0  0  0
  192.2160  175.7630  147.3030 C   0  0  0  0  0  2  0  0  0  0  0  0
  192.6420  177.0580  144.0440 O   0  0  0  0  0  0  0  0  0  0  0  0
  191.3170  174.8310  146.4780 C   0  0  0  0  0  2  0  0  0  0  0  0
  194.6360  174.7500  146.4240 O   0  0  0  0  0  1  0  0  0  0  0  0
  194.5150  176.1430  146.3270 C   0  0  0  0  0  2  0  0  0  0  0  0
  189.9320  175.8830  142.6170 C   0  0  0  0  0  2  0  0  0  0  0  0
  188.5510  175.7840  142.0580 C   0  0  0  0  0  0  0  0  0  0  0  0
  187.8540  174.7690  142.3390 O   0  0  0  0  0  0  0  0  0  0  0  0
  188.0560  176.7870  141.2120 O   0  0  0  0  0  0  0  0  0  0  0  0
  186.7620  177.3760  141.3860 C   0  0  2  0  0  3  0  0  0  0  0  0
  184.7610  177.7630  140.1290 O   0  0  0  0  0  1  0  0  0  0  0  0
  186.1550  177.7420  140.0290 C   0  0  2  0  0  3  0  0  0  0  0  0
  186.5730  176.7660  138.9370 C   0  0  0  0  0  1  0  0  0  0  0  0
  186.8220  178.6180  142.2810 C   0  0  0  0  0  2  0  0  0  0  0  0
  184.6240  179.1180  143.0700 O   0  0  0  0  0  1  0  0  0  0  0  0
  185.8380  178.5300  143.4490 C   0  0  1  0  0  3  0  0  0  0  0  0
  185.5860  177.0750  143.8400 C   0  0  0  0  0  2  0  0  0  0  0  0
  185.2420  176.5690  146.1440 O   0  0  0  0  0  0  0  0  0  0  0  0
  187.4700  176.8930  145.5170 N   0  0  0  0  0  2  0  0  0  0  0  0
  186.0700  176.8290  145.2290 C   0  0  0  0  0  0  0  0  0  0  0  0
  187.9760  176.7910  146.8670 C   0  0  0  0  0  2  0  0  0  0  0  0
  189.1880  177.6820  147.0290 C   0  0  0  0  0  1  0  0  0  0  0  0
  192.9460  170.0330  143.8440 C   0  0  0  0  0  2  0  0  0  0  0  0
  194.0110  169.9420  144.9240 C   0  0  0  0  0  2  0  0  0  0  0  0
  195.2390  169.6260  144.3410 O   0  0  0  0  0  0  0  0  0  0  0  0
  197.5700  169.9540  145.0670 C   0  0  0  0  0  2  0  0  0  0  0  0
  196.1610  169.4880  145.3930 C   0  0  0  0  0  0  0  0  0  0  0  0
  196.6850  170.7740  146.0060 C   0  0  0  0  0  2  0  0  0  0  0  0
  196.0640  168.3800  146.2580 O   0  0  0  0  0  0  0  0  0  0  0  0
  196.6040  168.7820  147.4800 C   0  0  0  0  0  1  0  0  0  0  0  0
  1 48  1  1  0  0  0
  1  3  1  0  0  0  0
  2 21  1  0  0  0  0
  2  5  1  0  0  0  0
  4 17  1  0  0  0  0
  4  3  1  0  0  0  0
  6 13  1  0  0  0  0
  7 19  1  0  0  0  0
  9 10  1  0  0  0  0
 10 22  1  6  0  0  0
 10  1  1  0  0  0  0
 11 22  1  6  0  0  0
 11 20  1  0  0  0  0
 12 19  1  0  0  0  0
 13  8  2  0  0  0  0
 13  9  1  0  0  0  0
 14  5  1  0  0  0  0
 15 31  1  1  0  0  0
 15 17  1  0  0  0  0
 16  6  1  0  0  0  0
 17 18  1  1  0  0  0
 17 25  1  0  0  0  0
 19 14  1  0  0  0  0
 19  6  1  0  0  0  0
 20 15  1  0  0  0  0
 21 11  1  0  0  0  0
 21 20  1  0  0  0  0
 23 30  1  0  0  0  0
 23 26  1  0  0  0  0
 24 25  1  0  0  0  0
 24 23  1  0  0  0  0
 25 28  1  0  0  0  0
 27 24  2  0  0  0  0
 28 26  1  0  0  0  0
 30 29  1  0  0  0  0
 32 33  2  0  0  0  0
 32 31  1  0  0  0  0
 34 35  1  0  0  0  0
 34 32  1  0  0  0  0
 35 39  1  0  0  0  0
 37 36  1  0  0  0  0
 37 35  1  0  0  0  0
 38 37  1  0  0  0  0
 39 41  1  0  0  0  0
 40 41  1  0  0  0  0
 41 42  1  0  0  0  0
 42 45  1  0  0  0  0
 44 46  1  0  0  0  0
 45 44  1  0  0  0  0
 45 43  2  0  0  0  0
 46 47  1  0  0  0  0
 48 49  1  0  0  0  0
 50 49  1  0  0  0  0
 50 52  1  0  0  0  0
 51 52  1  0  0  0  0
 51 53  1  0  0  0  0
 52 53  1  0  0  0  0
 52 54  1  0  0  0  0
 54 55  1  0  0  0  0
M  END
>  <MODEL>
4

>  <REMARK>
 VINA RESULT:      -6.5      1.614      3.049
  Name = 
  17 active torsions:
  status: ('A' for Active; 'I' for Inactive)
    1  A    between atoms: C_3  and  C_35
    2  A    between atoms: C_3  and  C_54
    3  A    between atoms: C_4  and  C_37
    4  A    between atoms: C_5  and  C_43
    5  A    between atoms: O_7  and  C_33
    6  A    between atoms: C_9  and  C_14
    7  A    between atoms: C_9  and  C_29
    8  A    between atoms: C_14  and  O_28
    9  A    between atoms: C_16  and  C_49
   10  A    between atoms: C_27  and  O_32
   11  A    between atoms: C_27  and  C_37
   12  A    between atoms: O_28  and  C_43
   13  A    between atoms: C_31  and  C_39
   14  A    between atoms: O_32  and  C_33
   15  A    between atoms: C_35  and  C_44
   16  A    between atoms: C_36  and  N_51
   17  A    between atoms: C_43  and  C_44
                            x       y       z     vdW  Elec       q    Type
                         _______ _______ _______ _____ _____    ______ ____

>  <TORSDO>
F 17

$$$$
=
 OpenBabel11062421313D

 55 59  0  0  1  0  0  0  0  0999 V2000
  194.6550  173.4440  141.1590 C   0  0  1  0  0  3  0  0  0  0  0  0
  191.6130  175.0880  144.6050 O   0  0  0  0  0  0  0  0  0  0  0  0
  194.0860  172.2120  140.5900 N   0  0  0  0  0  2  0  0  0  0  0  0
  192.9380  171.7110  141.3610 C   0  0  0  0  0  2  0  0  0  0  0  0
  192.3870  176.1200  144.0260 C   0  0  0  0  0  2  0  0  0  0  0  0
  195.1070  175.3330  145.0950 N   0  0  0  0  0  0  0  0  0  0  0  0
  195.0430  177.2230  146.4500 F   0  0  0  0  0  0  0  0  0  0  0  0
  195.5570  176.7530  143.2790 O   0  0  0  0  0  0  0  0  0  0  0  0
  196.0780  174.5000  142.9320 N   0  0  0  0  0  2  0  0  0  0  0  0
  195.3830  173.2560  142.5350 C   0  0  1  0  0  3  0  0  0  0  0  0
  193.1800  173.6180  143.4860 C   0  0  1  0  0  3  0  0  0  0  0  0
  193.6050  175.5580  146.8780 F   0  0  0  0  0  0  0  0  0  0  0  0
  195.5460  175.5750  143.7390 C   0  0  0  0  0  0  0  0  0  0  0  0
  193.1610  176.9730  145.0330 C   0  0  0  0  0  2  0  0  0  0  0  0
  191.0640  173.1020  142.5350 C   0  0  2  0  0  3  0  0  0  0  0  0
  195.8270  174.3150  145.8620 C   0  0  0  0  0  1  0  0  0  0  0  0
  191.5890  172.4780  141.1580 C   0  0  1  0  0  0  0  0  0  0  0  0
  191.7840  173.5360  140.2580 O   0  0  0  0  0  1  0  0  0  0  0  0
  194.2440  176.2560  145.8630 C   0  0  0  0  0  0  0  0  0  0  0  0
  191.9650  172.7860  143.7450 C   0  0  2  0  0  3  0  0  0  0  0  0
  192.3890  173.9070  144.7290 C   0  0  2  0  0  3  0  0  0  0  0  0
  194.4260  172.7890  143.6410 C   0  0  0  0  0  2  0  0  0  0  0  0
  190.7760  169.1880  139.5690 C   0  0  1  0  0  3  0  0  0  0  0  0
  190.7670  170.0220  140.7950 C   0  0  0  0  0  0  0  0  0  0  0  0
  190.5450  171.4810  140.5420 C   0  0  2  0  0  3  0  0  0  0  0  0
  190.3990  170.1460  138.4500 C   0  0  0  0  0  2  0  0  0  0  0  0
  190.7560  169.5310  141.9090 O   0  0  0  0  0  0  0  0  0  0  0  0
  190.4960  171.5720  139.0100 C   0  0  0  0  0  2  0  0  0  0  0  0
  192.9830  169.3910  138.5850 O   0  0  0  0  0  1  0  0  0  0  0  0
  192.1450  168.5470  139.3290 C   0  0  0  0  0  2  0  0  0  0  0  0
  189.6010  172.7640  142.8800 C   0  0  0  0  0  2  0  0  0  0  0  0
  188.6640  173.9130  142.7060 C   0  0  0  0  0  0  0  0  0  0  0  0
  187.7560  173.8290  141.8340 O   0  0  0  0  0  0  0  0  0  0  0  0
  188.8160  175.0730  143.4800 O   0  0  0  0  0  0  0  0  0  0  0  0
  188.0630  176.2680  143.2380 C   0  0  2  0  0  3  0  0  0  0  0  0
  189.5820  177.9570  142.4820 O   0  0  0  0  0  1  0  0  0  0  0  0
  188.6370  177.0280  142.0390 C   0  0  2  0  0  3  0  0  0  0  0  0
  187.5510  177.7420  141.2460 C   0  0  0  0  0  1  0  0  0  0  0  0
  188.0400  177.1800  144.4690 C   0  0  0  0  0  2  0  0  0  0  0  0
  189.6880  177.4940  146.1700 O   0  0  0  0  0  1  0  0  0  0  0  0
  188.7810  176.5590  145.6540 C   0  0  1  0  0  3  0  0  0  0  0  0
  187.8040  176.1530  146.7560 C   0  0  0  0  0  2  0  0  0  0  0  0
  186.9790  178.2460  147.5430 O   0  0  0  0  0  0  0  0  0  0  0  0
  185.4530  176.9730  146.3160 N   0  0  0  0  0  2  0  0  0  0  0  0
  186.7400  177.1880  146.9010 C   0  0  0  0  0  0  0  0  0  0  0  0
  184.3530  177.8830  146.5380 C   0  0  0  0  0  2  0  0  0  0  0  0
  184.2140  178.8180  145.3560 C   0  0  0  0  0  1  0  0  0  0  0  0
  195.5470  174.1350  140.1290 C   0  0  0  0  0  2  0  0  0  0  0  0
  195.0100  173.9840  138.7160 C   0  0  0  0  0  2  0  0  0  0  0  0
  194.7740  175.2460  138.1700 O   0  0  0  0  0  0  0  0  0  0  0  0
  196.7930  175.5410  136.7900 C   0  0  0  0  0  2  0  0  0  0  0  0
  195.3080  175.2290  136.8700 C   0  0  0  0  0  0  0  0  0  0  0  0
  196.2920  174.1160  136.5570 C   0  0  0  0  0  2  0  0  0  0  0  0
  194.5250  175.6880  135.7920 O   0  0  0  0  0  0  0  0  0  0  0  0
  194.7300  174.7930  134.7420 C   0  0  0  0  0  1  0  0  0  0  0  0
  1 48  1  6  0  0  0
  1 10  1  0  0  0  0
  2 21  1  0  0  0  0
  3  1  1  0  0  0  0
  3  4  1  0  0  0  0
  5  2  1  0  0  0  0
  5 14  1  0  0  0  0
  6 16  1  0  0  0  0
  6 19  1  0  0  0  0
  8 13  2  0  0  0  0
  9 13  1  0  0  0  0
 10  9  1  0  0  0  0
 10 22  1  1  0  0  0
 11 22  1  1  0  0  0
 11 20  1  0  0  0  0
 11 21  1  0  0  0  0
 13  6  1  0  0  0  0
 14 19  1  0  0  0  0
 15 31  1  1  0  0  0
 15 20  1  0  0  0  0
 17 18  1  6  0  0  0
 17  4  1  0  0  0  0
 17 15  1  0  0  0  0
 19  7  1  0  0  0  0
 19 12  1  0  0  0  0
 20 21  1  0  0  0  0
 23 24  1  0  0  0  0
 24 27  2  0  0  0  0
 25 24  1  0  0  0  0
 25 17  1  0  0  0  0
 26 28  1  0  0  0  0
 26 23  1  0  0  0  0
 28 25  1  0  0  0  0
 29 30  1  0  0  0  0
 30 23  1  0  0  0  0
 32 31  1  0  0  0  0
 32 34  1  0  0  0  0
 33 32  2  0  0  0  0
 35 34  1  0  0  0  0
 35 39  1  0  0  0  0
 37 36  1  0  0  0  0
 37 35  1  0  0  0  0
 38 37  1  0  0  0  0
 39 41  1  0  0  0  0
 41 40  1  0  0  0  0
 41 42  1  0  0  0  0
 42 45  1  0  0  0  0
 44 46  1  0  0  0  0
 44 45  1  0  0  0  0
 45 43  2  0  0  0  0
 47 46  1  0  0  0  0
 49 48  1  0  0  0  0
 50 49  1  0  0  0  0
 51 52  1  0  0  0  0
 52 50  1  0  0  0  0
 53 51  1  0  0  0  0
 53 52  1  0  0  0  0
 54 52  1  0  0  0  0
 55 54  1  0  0  0  0
M  END
>  <MODEL>
5

>  <REMARK>
 VINA RESULT:      -6.4      3.526      7.264
  Name = 
  17 active torsions:
  status: ('A' for Active; 'I' for Inactive)
    1  A    between atoms: C_3  and  C_35
    2  A    between atoms: C_3  and  C_54
    3  A    between atoms: C_4  and  C_37
    4  A    between atoms: C_5  and  C_43
    5  A    between atoms: O_7  and  C_33
    6  A    between atoms: C_9  and  C_14
    7  A    between atoms: C_9  and  C_29
    8  A    between atoms: C_14  and  O_28
    9  A    between atoms: C_16  and  C_49
   10  A    between atoms: C_27  and  O_32
   11  A    between atoms: C_27  and  C_37
   12  A    between atoms: O_28  and  C_43
   13  A    between atoms: C_31  and  C_39
   14  A    between atoms: O_32  and  C_33
   15  A    between atoms: C_35  and  C_44
   16  A    between atoms: C_36  and  N_51
   17  A    between atoms: C_43  and  C_44
                            x       y       z     vdW  Elec       q    Type
                         _______ _______ _______ _____ _____    ______ ____

>  <TORSDO>
F 17

$$$$
=
 OpenBabel11062421313D

 55 59  0  0  1  0  0  0  0  0999 V2000
  190.9180  176.8860  145.4270 C   0  0  1  0  0  3  0  0  0  0  0  0
  192.1840  173.0360  142.7050 O   0  0  0  0  0  0  0  0  0  0  0  0
  190.0170  177.7360  144.6330 N   0  0  0  0  0  2  0  0  0  0  0  0
  189.9580  177.3320  143.2200 C   0  0  0  0  0  2  0  0  0  0  0  0
  192.2400  172.7630  144.0910 C   0  0  0  0  0  2  0  0  0  0  0  0
  194.5780  174.5360  144.8340 N   0  0  0  0  0  0  0  0  0  0  0  0
  195.8270  172.6110  145.2100 F   0  0  0  0  0  0  0  0  0  0  0  0
  193.4700  174.1130  146.8610 O   0  0  0  0  0  0  0  0  0  0  0  0
  193.2720  176.3000  146.0580 N   0  0  0  0  0  2  0  0  0  0  0  0
  192.4410  177.0480  145.0900 C   0  0  1  0  0  3  0  0  0  0  0  0
  192.0140  175.3460  143.4140 C   0  0  1  0  0  3  0  0  0  0  0  0
  195.2160  173.0880  143.1070 F   0  0  0  0  0  0  0  0  0  0  0  0
  193.7340  174.9350  145.9370 C   0  0  0  0  0  0  0  0  0  0  0  0
  193.5810  172.2080  144.5750 C   0  0  0  0  0  2  0  0  0  0  0  0
  189.9930  174.9100  142.2410 C   0  0  2  0  0  3  0  0  0  0  0  0
  195.5200  175.5300  144.3150 C   0  0  0  0  0  1  0  0  0  0  0  0
  189.1010  176.0600  142.9060 C   0  0  1  0  0  0  0  0  0  0  0  0
  188.5690  175.5500  144.1000 O   0  0  0  0  0  1  0  0  0  0  0  0
  194.8070  173.1310  144.4330 C   0  0  0  0  0  0  0  0  0  0  0  0
  191.4660  175.3120  142.0230 C   0  0  2  0  0  3  0  0  0  0  0  0
  192.6160  174.3640  142.4510 C   0  0  2  0  0  3  0  0  0  0  0  0
  192.7670  176.6270  143.6500 C   0  0  0  0  0  2  0  0  0  0  0  0
  186.3450  178.4310  142.0170 C   0  0  1  0  0  3  0  0  0  0  0  0
  187.7210  177.9520  141.7420 C   0  0  0  0  0  0  0  0  0  0  0  0
  187.9170  176.4850  141.9700 C   0  0  2  0  0  3  0  0  0  0  0  0
  185.5510  177.1680  142.3120 C   0  0  0  0  0  2  0  0  0  0  0  0
  188.5550  178.6590  141.2060 O   0  0  0  0  0  0  0  0  0  0  0  0
  186.5570  176.0270  142.5160 C   0  0  0  0  0  2  0  0  0  0  0  0
  185.0490  179.4300  143.8060 O   0  0  0  0  0  1  0  0  0  0  0  0
  186.3090  179.4110  143.1920 C   0  0  0  0  0  2  0  0  0  0  0  0
  189.4220  174.3250  140.9350 C   0  0  0  0  0  2  0  0  0  0  0  0
  188.9800  172.9040  141.0600 C   0  0  0  0  0  0  0  0  0  0  0  0
  187.8570  172.6610  141.5820 O   0  0  0  0  0  0  0  0  0  0  0  0
  189.8160  171.8630  140.6320 O   0  0  0  0  0  0  0  0  0  0  0  0
  190.0770  171.6000  139.2480 C   0  0  2  0  0  3  0  0  0  0  0  0
  190.6680  169.5350  140.3050 O   0  0  0  0  0  1  0  0  0  0  0  0
  190.5770  170.1650  139.0610 C   0  0  2  0  0  3  0  0  0  0  0  0
  191.9320  170.1210  138.3660 C   0  0  0  0  0  1  0  0  0  0  0  0
  191.0970  172.5860  138.6680 C   0  0  0  0  0  2  0  0  0  0  0  0
  191.1370  172.9700  136.3110 O   0  0  0  0  0  1  0  0  0  0  0  0
  190.5180  173.3840  137.4980 C   0  0  1  0  0  3  0  0  0  0  0  0
  189.0120  173.1620  137.3780 C   0  0  0  0  0  2  0  0  0  0  0  0
  187.5410  174.9170  138.0410 O   0  0  0  0  0  0  0  0  0  0  0  0
  188.5390  175.1930  135.9470 N   0  0  0  0  0  2  0  0  0  0  0  0
  188.3200  174.4650  137.1590 C   0  0  0  0  0  0  0  0  0  0  0  0
  187.7950  176.3910  135.6320 C   0  0  0  0  0  2  0  0  0  0  0  0
  186.7990  176.1010  134.5290 C   0  0  0  0  0  1  0  0  0  0  0  0
  190.6380  177.0710  146.9170 C   0  0  0  0  0  2  0  0  0  0  0  0
  189.1730  176.8520  147.2540 C   0  0  0  0  0  2  0  0  0  0  0  0
  188.5790  178.0750  147.5670 O   0  0  0  0  0  0  0  0  0  0  0  0
  186.7900  177.2500  146.0890 C   0  0  0  0  0  2  0  0  0  0  0  0
  187.1940  177.9060  147.3980 C   0  0  0  0  0  0  0  0  0  0  0  0
  186.6820  176.4760  147.4020 C   0  0  0  0  0  2  0  0  0  0  0  0
  186.3110  178.8850  147.8940 O   0  0  0  0  0  0  0  0  0  0  0  0
  185.0830  178.6650  147.2680 C   0  0  0  0  0  1  0  0  0  0  0  0
  1 48  1  1  0  0  0
  2  5  1  0  0  0  0
  3  1  1  0  0  0  0
  4  3  1  0  0  0  0
  5 14  1  0  0  0  0
  6 13  1  0  0  0  0
 10 22  1  6  0  0  0
 10  1  1  0  0  0  0
 10  9  1  0  0  0  0
 11 22  1  6  0  0  0
 12 19  1  0  0  0  0
 13  9  1  0  0  0  0
 13  8  2  0  0  0  0
 15 31  1  6  0  0  0
 15 17  1  0  0  0  0
 16  6  1  0  0  0  0
 17  4  1  0  0  0  0
 17 18  1  1  0  0  0
 19 14  1  0  0  0  0
 19  6  1  0  0  0  0
 19  7  1  0  0  0  0
 20 15  1  0  0  0  0
 20 21  1  0  0  0  0
 20 11  1  0  0  0  0
 21  2  1  0  0  0  0
 21 11  1  0  0  0  0
 23 26  1  0  0  0  0
 23 30  1  0  0  0  0
 24 25  1  0  0  0  0
 24 23  1  0  0  0  0
 25 28  1  0  0  0  0
 25 17  1  0  0  0  0
 26 28  1  0  0  0  0
 27 24  2  0  0  0  0
 30 29  1  0  0  0  0
 31 32  1  0  0  0  0
 32 33  2  0  0  0  0
 34 32  1  0  0  0  0
 35 34  1  0  0  0  0
 37 35  1  0  0  0  0
 37 36  1  0  0  0  0
 38 37  1  0  0  0  0
 39 35  1  0  0  0  0
 40 41  1  0  0  0  0
 41 39  1  0  0  0  0
 42 41  1  0  0  0  0
 44 45  1  0  0  0  0
 45 42  1  0  0  0  0
 45 43  2  0  0  0  0
 46 44  1  0  0  0  0
 47 46  1  0  0  0  0
 48 49  1  0  0  0  0
 49 50  1  0  0  0  0
 51 52  1  0  0  0  0
 51 53  1  0  0  0  0
 52 53  1  0  0  0  0
 52 50  1  0  0  0  0
 52 54  1  0  0  0  0
 55 54  1  0  0  0  0
M  END
>  <MODEL>
6

>  <REMARK>
 VINA RESULT:      -6.4      3.049      8.127
  Name = 
  17 active torsions:
  status: ('A' for Active; 'I' for Inactive)
    1  A    between atoms: C_3  and  C_35
    2  A    between atoms: C_3  and  C_54
    3  A    between atoms: C_4  and  C_37
    4  A    between atoms: C_5  and  C_43
    5  A    between atoms: O_7  and  C_33
    6  A    between atoms: C_9  and  C_14
    7  A    between atoms: C_9  and  C_29
    8  A    between atoms: C_14  and  O_28
    9  A    between atoms: C_16  and  C_49
   10  A    between atoms: C_27  and  O_32
   11  A    between atoms: C_27  and  C_37
   12  A    between atoms: O_28  and  C_43
   13  A    between atoms: C_31  and  C_39
   14  A    between atoms: O_32  and  C_33
   15  A    between atoms: C_35  and  C_44
   16  A    between atoms: C_36  and  N_51
   17  A    between atoms: C_43  and  C_44
                            x       y       z     vdW  Elec       q    Type
                         _______ _______ _______ _____ _____    ______ ____

>  <TORSDO>
F 17

$$$$
=
 OpenBabel11062421313D

 55 59  0  0  1  0  0  0  0  0999 V2000
  192.0830  175.1290  143.7230 C   0  0  1  0  0  3  0  0  0  0  0  0
  187.6090  175.5880  141.8260 O   0  0  0  0  0  0  0  0  0  0  0  0
  192.5680  173.7690  143.4400 N   0  0  0  0  0  2  0  0  0  0  0  0
  191.5120  172.8920  142.9090 C   0  0  0  0  0  2  0  0  0  0  0  0
  188.2860  176.8250  141.9250 C   0  0  0  0  0  2  0  0  0  0  0  0
  188.3510  177.0930  144.9400 N   0  0  0  0  0  0  0  0  0  0  0  0
  186.8310  178.8430  144.7460 F   0  0  0  0  0  0  0  0  0  0  0  0
  190.0130  178.5610  144.1650 O   0  0  0  0  0  0  0  0  0  0  0  0
  190.8040  176.6480  145.2530 N   0  0  0  0  0  2  0  0  0  0  0  0
  191.0870  175.2320  144.9290 C   0  0  1  0  0  3  0  0  0  0  0  0
  189.3840  174.7780  143.2610 C   0  0  1  0  0  3  0  0  0  0  0  0
  186.1410  176.7730  144.2340 F   0  0  0  0  0  0  0  0  0  0  0  0
  189.7320  177.4640  144.7290 C   0  0  0  0  0  0  0  0  0  0  0  0
  187.5150  177.9110  142.6780 C   0  0  0  0  0  2  0  0  0  0  0  0
  189.5880  173.5180  141.2560 C   0  0  2  0  0  3  0  0  0  0  0  0
  188.0230  176.4140  146.1950 C   0  0  0  0  0  1  0  0  0  0  0  0
  191.1290  173.1130  141.4070 C   0  0  1  0  0  0  0  0  0  0  0  0
  191.8980  174.1610  140.8780 O   0  0  0  0  0  1  0  0  0  0  0  0
  187.2180  177.6460  144.1670 C   0  0  0  0  0  0  0  0  0  0  0  0
  188.8220  173.5630  142.5940 C   0  0  2  0  0  3  0  0  0  0  0  0
  187.9160  174.7710  142.9450 C   0  0  2  0  0  3  0  0  0  0  0  0
  189.7830  174.4600  144.6760 C   0  0  0  0  0  2  0  0  0  0  0  0
  192.7140  169.7260  141.2430 C   0  0  1  0  0  3  0  0  0  0  0  0
  191.4710  170.5210  141.3970 C   0  0  0  0  0  0  0  0  0  0  0  0
  191.4600  171.7990  140.6170 C   0  0  2  0  0  3  0  0  0  0  0  0
  193.5150  170.4680  140.1850 C   0  0  0  0  0  2  0  0  0  0  0  0
  190.4860  170.0760  141.9580 O   0  0  0  0  0  0  0  0  0  0  0  0
  192.8600  171.8420  139.9880 C   0  0  0  0  0  2  0  0  0  0  0  0
  194.3670  168.5280  142.5500 O   0  0  0  0  0  1  0  0  0  0  0  0
  193.4830  169.6160  142.5620 C   0  0  0  0  0  2  0  0  0  0  0  0
  188.7970  172.6730  140.2390 C   0  0  0  0  0  2  0  0  0  0  0  0
  188.5760  173.3620  138.9320 C   0  0  0  0  0  0  0  0  0  0  0  0
  188.1890  174.5630  138.9370 O   0  0  0  0  0  0  0  0  0  0  0  0
  188.7660  172.6690  137.7280 O   0  0  0  0  0  0  0  0  0  0  0  0
  189.9860  172.7400  136.9790 C   0  0  2  0  0  3  0  0  0  0  0  0
  190.9200  171.0000  135.6260 O   0  0  0  0  0  1  0  0  0  0  0  0
  190.6760  171.3730  136.9500 C   0  0  2  0  0  3  0  0  0  0  0  0
  189.8400  170.3010  137.6370 C   0  0  0  0  0  1  0  0  0  0  0  0
  190.9410  173.7920  137.5550 C   0  0  0  0  0  2  0  0  0  0  0  0
  191.6990  174.5840  135.4330 O   0  0  0  0  0  1  0  0  0  0  0  0
  192.1440  174.0330  136.6410 C   0  0  1  0  0  3  0  0  0  0  0  0
  193.1380  174.9930  137.2900 C   0  0  0  0  0  2  0  0  0  0  0  0
  194.6250  173.1380  137.1180 O   0  0  0  0  0  0  0  0  0  0  0  0
  195.3550  174.8720  138.5030 N   0  0  0  0  0  2  0  0  0  0  0  0
  194.4030  174.2740  137.6190 C   0  0  0  0  0  0  0  0  0  0  0  0
  196.5300  174.1620  138.9530 C   0  0  0  0  0  2  0  0  0  0  0  0
  196.1970  173.3480  140.1840 C   0  0  0  0  0  1  0  0  0  0  0  0
  193.2640  176.0870  143.8720 C   0  0  0  0  0  2  0  0  0  0  0  0
  194.4280  175.4480  144.6090 C   0  0  0  0  0  2  0  0  0  0  0  0
  195.5340  176.2970  144.5570 O   0  0  0  0  0  0  0  0  0  0  0  0
  196.3310  176.4170  142.2290 C   0  0  0  0  0  2  0  0  0  0  0  0
  196.4090  175.7600  143.5970 C   0  0  0  0  0  0  0  0  0  0  0  0
  197.5390  176.6620  143.1320 C   0  0  0  0  0  2  0  0  0  0  0  0
  196.6780  174.3770  143.6000 O   0  0  0  0  0  0  0  0  0  0  0  0
  197.7130  174.1760  144.5140 C   0  0  0  0  0  1  0  0  0  0  0  0
  1 48  1  1  0  0  0
  1 10  1  0  0  0  0
  2  5  1  0  0  0  0
  2 21  1  0  0  0  0
  3  1  1  0  0  0  0
  4  3  1  0  0  0  0
  5 14  1  0  0  0  0
  6 16  1  0  0  0  0
  8 13  2  0  0  0  0
 10 22  1  6  0  0  0
 10  9  1  0  0  0  0
 11 22  1  1  0  0  0
 13  6  1  0  0  0  0
 13  9  1  0  0  0  0
 14 19  1  0  0  0  0
 15 31  1  6  0  0  0
 15 17  1  0  0  0  0
 15 20  1  0  0  0  0
 17 18  1  6  0  0  0
 17  4  1  0  0  0  0
 19 12  1  0  0  0  0
 19  7  1  0  0  0  0
 19  6  1  0  0  0  0
 20 21  1  0  0  0  0
 20 11  1  0  0  0  0
 21 11  1  0  0  0  0
 23 24  1  0  0  0  0
 23 30  1  0  0  0  0
 24 27  2  0  0  0  0
 25 24  1  0  0  0  0
 25 17  1  0  0  0  0
 26 23  1  0  0  0  0
 28 26  1  0  0  0  0
 28 25  1  0  0  0  0
 29 30  1  0  0  0  0
 32 33  2  0  0  0  0
 32 31  1  0  0  0  0
 34 32  1  0  0  0  0
 35 39  1  0  0  0  0
 35 34  1  0  0  0  0
 36 37  1  0  0  0  0
 37 35  1  0  0  0  0
 37 38  1  0  0  0  0
 40 41  1  0  0  0  0
 41 42  1  0  0  0  0
 41 39  1  0  0  0  0
 42 45  1  0  0  0  0
 43 45  2  0  0  0  0
 44 46  1  0  0  0  0
 45 44  1  0  0  0  0
 46 47  1  0  0  0  0
 48 49  1  0  0  0  0
 50 49  1  0  0  0  0
 51 53  1  0  0  0  0
 51 52  1  0  0  0  0
 52 54  1  0  0  0  0
 52 50  1  0  0  0  0
 53 52  1  0  0  0  0
 54 55  1  0  0  0  0
M  END
>  <MODEL>
7

>  <REMARK>
 VINA RESULT:      -6.2      3.283      8.239
  Name = 
  17 active torsions:
  status: ('A' for Active; 'I' for Inactive)
    1  A    between atoms: C_3  and  C_35
    2  A    between atoms: C_3  and  C_54
    3  A    between atoms: C_4  and  C_37
    4  A    between atoms: C_5  and  C_43
    5  A    between atoms: O_7  and  C_33
    6  A    between atoms: C_9  and  C_14
    7  A    between atoms: C_9  and  C_29
    8  A    between atoms: C_14  and  O_28
    9  A    between atoms: C_16  and  C_49
   10  A    between atoms: C_27  and  O_32
   11  A    between atoms: C_27  and  C_37
   12  A    between atoms: O_28  and  C_43
   13  A    between atoms: C_31  and  C_39
   14  A    between atoms: O_32  and  C_33
   15  A    between atoms: C_35  and  C_44
   16  A    between atoms: C_36  and  N_51
   17  A    between atoms: C_43  and  C_44
                            x       y       z     vdW  Elec       q    Type
                         _______ _______ _______ _____ _____    ______ ____

>  <TORSDO>
F 17

$$$$
=
 OpenBabel11062421313D

 55 59  0  0  1  0  0  0  0  0999 V2000
  194.5580  171.8340  140.4040 C   0  0  1  0  0  3  0  0  0  0  0  0
  192.9570  172.0260  145.0120 O   0  0  0  0  0  0  0  0  0  0  0  0
  193.4160  171.5210  139.5310 N   0  0  0  0  0  2  0  0  0  0  0  0
  192.2180  171.1240  140.2870 C   0  0  0  0  0  2  0  0  0  0  0  0
  194.1090  172.8180  144.8030 C   0  0  0  0  0  2  0  0  0  0  0  0
  196.1240  170.6120  144.3180 N   0  0  0  0  0  0  0  0  0  0  0  0
  197.0950  171.1460  146.3640 F   0  0  0  0  0  0  0  0  0  0  0  0
  197.1190  172.5480  143.4360 O   0  0  0  0  0  0  0  0  0  0  0  0
  196.4180  170.9780  141.8500 N   0  0  0  0  0  2  0  0  0  0  0  0
  195.1710  170.5990  141.1500 C   0  0  1  0  0  3  0  0  0  0  0  0
  193.5070  171.0900  142.8460 C   0  0  1  0  0  3  0  0  0  0  0  0
  195.0430  170.2440  146.3630 F   0  0  0  0  0  0  0  0  0  0  0  0
  196.5450  171.4430  143.2130 C   0  0  0  0  0  0  0  0  0  0  0  0
  195.2630  172.5230  145.7640 C   0  0  0  0  0  2  0  0  0  0  0  0
  191.3660  172.0840  142.5630 C   0  0  2  0  0  3  0  0  0  0  0  0
  196.2780  169.1640  144.1670 C   0  0  0  0  0  1  0  0  0  0  0  0
  191.4270  172.2850  140.9760 C   0  0  1  0  0  0  0  0  0  0  0  0
  192.0740  173.5050  140.7260 O   0  0  0  0  0  1  0  0  0  0  0  0
  195.8860  171.1160  145.6880 C   0  0  0  0  0  0  0  0  0  0  0  0
  192.0550  170.7950  143.0530 C   0  0  2  0  0  3  0  0  0  0  0  0
  193.0410  170.8320  144.2500 C   0  0  2  0  0  3  0  0  0  0  0  0
  194.1750  169.9520  142.1230 C   0  0  0  0  0  2  0  0  0  0  0  0
  189.1890  172.3880  137.9780 C   0  0  1  0  0  3  0  0  0  0  0  0
  189.7740  171.5810  139.0760 C   0  0  0  0  0  0  0  0  0  0  0  0
  189.9910  172.3410  140.3470 C   0  0  2  0  0  3  0  0  0  0  0  0
  188.8730  173.7320  138.6160 C   0  0  0  0  0  2  0  0  0  0  0  0
  189.8910  170.3710  138.9960 O   0  0  0  0  0  0  0  0  0  0  0  0
  189.5780  173.7740  139.9780 C   0  0  0  0  0  2  0  0  0  0  0  0
  189.5670  172.1170  135.5990 O   0  0  0  0  0  1  0  0  0  0  0  0
  190.1570  172.5320  136.8010 C   0  0  0  0  0  2  0  0  0  0  0  0
  189.9540  172.1760  143.1710 C   0  0  0  0  0  2  0  0  0  0  0  0
  189.7030  173.4480  143.9110 C   0  0  0  0  0  0  0  0  0  0  0  0
  189.1140  174.3920  143.3140 O   0  0  0  0  0  0  0  0  0  0  0  0
  190.1440  173.5960  145.2340 O   0  0  0  0  0  0  0  0  0  0  0  0
  190.2340  174.8710  145.8810 C   0  0  2  0  0  3  0  0  0  0  0  0
  191.2340  175.3300  148.0070 O   0  0  0  0  0  1  0  0  0  0  0  0
  191.5300  174.9710  146.6900 C   0  0  2  0  0  3  0  0  0  0  0  0
  192.4980  175.9820  146.0900 C   0  0  0  0  0  1  0  0  0  0  0  0
  189.0300  175.1270  146.7940 C   0  0  0  0  0  2  0  0  0  0  0  0
  187.1530  176.5570  147.1660 O   0  0  0  0  0  1  0  0  0  0  0  0
  188.0460  176.1220  146.1770 C   0  0  1  0  0  3  0  0  0  0  0  0
  188.7810  177.3320  145.6040 C   0  0  0  0  0  2  0  0  0  0  0  0
  186.9580  178.2860  144.4000 O   0  0  0  0  0  0  0  0  0  0  0  0
  188.7880  177.6490  143.0940 N   0  0  0  0  0  2  0  0  0  0  0  0
  188.1150  177.7860  144.3490 C   0  0  0  0  0  0  0  0  0  0  0  0
  188.1350  177.9530  141.8420 C   0  0  0  0  0  2  0  0  0  0  0  0
  187.5020  176.7000  141.2750 C   0  0  0  0  0  1  0  0  0  0  0  0
  195.6150  172.6160  139.6270 C   0  0  0  0  0  2  0  0  0  0  0  0
  195.9370  173.9490  140.2830 C   0  0  0  0  0  2  0  0  0  0  0  0
  195.0900  174.1460  141.3740 O   0  0  0  0  0  0  0  0  0  0  0  0
  195.9460  176.4070  140.9010 C   0  0  0  0  0  2  0  0  0  0  0  0
  195.4110  175.4050  141.9100 C   0  0  0  0  0  0  0  0  0  0  0  0
  194.5380  176.5680  141.4730 C   0  0  0  0  0  2  0  0  0  0  0  0
  195.9550  175.4890  143.2070 O   0  0  0  0  0  0  0  0  0  0  0  0
  197.1130  176.2610  143.1030 C   0  0  0  0  0  1  0  0  0  0  0  0
  1 48  1  6  0  0  0
  1 10  1  0  0  0  0
  3  4  1  0  0  0  0
  3  1  1  0  0  0  0
  4 17  1  0  0  0  0
  5  2  1  0  0  0  0
  5 14  1  0  0  0  0
  6 19  1  0  0  0  0
  9 13  1  0  0  0  0
 10  9  1  0  0  0  0
 10 22  1  1  0  0  0
 11 22  1  6  0  0  0
 11 20  1  0  0  0  0
 11 21  1  0  0  0  0
 13  8  2  0  0  0  0
 13  6  1  0  0  0  0
 15 20  1  0  0  0  0
 15 31  1  6  0  0  0
 16  6  1  0  0  0  0
 17 18  1  6  0  0  0
 17 15  1  0  0  0  0
 19 14  1  0  0  0  0
 19 12  1  0  0  0  0
 19  7  1  0  0  0  0
 20 21  1  0  0  0  0
 21  2  1  0  0  0  0
 23 26  1  0  0  0  0
 23 24  1  0  0  0  0
 24 25  1  0  0  0  0
 25 17  1  0  0  0  0
 26 28  1  0  0  0  0
 27 24  2  0  0  0  0
 28 25  1  0  0  0  0
 29 30  1  0  0  0  0
 30 23  1  0  0  0  0
 31 32  1  0  0  0  0
 32 34  1  0  0  0  0
 33 32  2  0  0  0  0
 34 35  1  0  0  0  0
 35 37  1  0  0  0  0
 35 39  1  0  0  0  0
 37 36  1  0  0  0  0
 38 37  1  0  0  0  0
 41 39  1  0  0  0  0
 41 40  1  0  0  0  0
 42 41  1  0  0  0  0
 44 45  1  0  0  0  0
 45 43  2  0  0  0  0
 45 42  1  0  0  0  0
 46 44  1  0  0  0  0
 47 46  1  0  0  0  0
 48 49  1  0  0  0  0
 49 50  1  0  0  0  0
 50 52  1  0  0  0  0
 51 53  1  0  0  0  0
 51 52  1  0  0  0  0
 52 54  1  0  0  0  0
 53 52  1  0  0  0  0
 55 54  1  0  0  0  0
M  END
>  <MODEL>
8

>  <REMARK>
 VINA RESULT:      -6.1      3.433      6.753
  Name = 
  17 active torsions:
  status: ('A' for Active; 'I' for Inactive)
    1  A    between atoms: C_3  and  C_35
    2  A    between atoms: C_3  and  C_54
    3  A    between atoms: C_4  and  C_37
    4  A    between atoms: C_5  and  C_43
    5  A    between atoms: O_7  and  C_33
    6  A    between atoms: C_9  and  C_14
    7  A    between atoms: C_9  and  C_29
    8  A    between atoms: C_14  and  O_28
    9  A    between atoms: C_16  and  C_49
   10  A    between atoms: C_27  and  O_32
   11  A    between atoms: C_27  and  C_37
   12  A    between atoms: O_28  and  C_43
   13  A    between atoms: C_31  and  C_39
   14  A    between atoms: O_32  and  C_33
   15  A    between atoms: C_35  and  C_44
   16  A    between atoms: C_36  and  N_51
   17  A    between atoms: C_43  and  C_44
                            x       y       z     vdW  Elec       q    Type
                         _______ _______ _______ _____ _____    ______ ____

>  <TORSDO>
F 17

$$$$
=
 OpenBabel11062421313D

 55 59  0  0  1  0  0  0  0  0999 V2000
  188.8520  174.8140  142.3420 C   0  0  1  0  0  3  0  0  0  0  0  0
  192.3350  174.1160  145.6900 O   0  0  0  0  0  0  0  0  0  0  0  0
  189.3180  174.2500  141.0650 N   0  0  0  0  0  2  0  0  0  0  0  0
  190.7410  173.8770  141.0990 C   0  0  0  0  0  2  0  0  0  0  0  0
  191.0450  174.2100  146.2600 C   0  0  0  0  0  2  0  0  0  0  0  0
  190.4840  177.1300  145.6940 N   0  0  0  0  0  0  0  0  0  0  0  0
  190.6580  177.5330  147.9780 F   0  0  0  0  0  0  0  0  0  0  0  0
  188.3780  176.1780  146.1070 O   0  0  0  0  0  0  0  0  0  0  0  0
  188.7750  176.7880  143.8850 N   0  0  0  0  0  2  0  0  0  0  0  0
  189.4390  176.2260  142.6880 C   0  0  1  0  0  3  0  0  0  0  0  0
  191.2520  174.9680  143.6980 C   0  0  1  0  0  3  0  0  0  0  0  0
  192.5070  176.9370  146.8600 F   0  0  0  0  0  0  0  0  0  0  0  0
  189.1930  176.6460  145.2610 C   0  0  0  0  0  0  0  0  0  0  0  0
  190.9150  175.2590  147.3660 C   0  0  0  0  0  2  0  0  0  0  0  0
  192.0790  172.8270  143.0820 C   0  0  2  0  0  3  0  0  0  0  0  0
  191.0070  178.3290  145.0350 C   0  0  0  0  0  1  0  0  0  0  0  0
  191.0850  172.5520  141.8580 C   0  0  1  0  0  0  0  0  0  0  0  0
  189.9080  171.9950  142.3820 O   0  0  0  0  0  1  0  0  0  0  0  0
  191.1380  176.7290  146.9580 C   0  0  0  0  0  0  0  0  0  0  0  0
  192.5030  174.3030  143.2200 C   0  0  2  0  0  3  0  0  0  0  0  0
  192.4530  175.0140  144.5970 C   0  0  2  0  0  3  0  0  0  0  0  0
  190.9630  176.1940  142.8750 C   0  0  0  0  0  2  0  0  0  0  0  0
  191.9090  171.5900  138.3360 C   0  0  1  0  0  3  0  0  0  0  0  0
  192.3900  172.1250  139.6330 C   0  0  0  0  0  0  0  0  0  0  0  0
  191.7030  171.5430  140.8290 C   0  0  2  0  0  3  0  0  0  0  0  0
  190.9370  170.4840  138.7140 C   0  0  0  0  0  2  0  0  0  0  0  0
  193.3780  172.8330  139.7120 O   0  0  0  0  0  0  0  0  0  0  0  0
  190.6390  170.6230  140.2140 C   0  0  0  0  0  2  0  0  0  0  0  0
  189.8670  172.7770  137.7860 O   0  0  0  0  0  1  0  0  0  0  0  0
  191.2340  172.6740  137.4910 C   0  0  0  0  0  2  0  0  0  0  0  0
  193.3290  171.9280  143.1120 C   0  0  0  0  0  2  0  0  0  0  0  0
  193.3780  171.0090  144.2880 C   0  0  0  0  0  0  0  0  0  0  0  0
  192.6820  169.9570  144.2660 O   0  0  0  0  0  0  0  0  0  0  0  0
  194.1600  171.3340  145.4060 O   0  0  0  0  0  0  0  0  0  0  0  0
  195.5310  171.7380  145.3000 C   0  0  2  0  0  3  0  0  0  0  0  0
  197.5590  170.4680  145.3470 O   0  0  0  0  0  1  0  0  0  0  0  0
  196.4300  170.7940  146.1030 C   0  0  2  0  0  3  0  0  0  0  0  0
  195.7000  169.5200  146.5060 C   0  0  0  0  0  1  0  0  0  0  0  0
  195.7320  173.1800  145.7780 C   0  0  0  0  0  2  0  0  0  0  0  0
  196.6750  173.3140  143.5880 O   0  0  0  0  0  1  0  0  0  0  0  0
  196.6080  173.9840  144.8160 C   0  0  1  0  0  3  0  0  0  0  0  0
  196.0300  175.3800  144.5900 C   0  0  0  0  0  2  0  0  0  0  0  0
  197.6320  176.3750  143.1310 O   0  0  0  0  0  0  0  0  0  0  0  0
  195.5670  175.8820  142.1550 N   0  0  0  0  0  2  0  0  0  0  0  0
  196.4690  175.9060  143.2650 C   0  0  0  0  0  0  0  0  0  0  0  0
  195.8980  176.4960  140.8900 C   0  0  0  0  0  2  0  0  0  0  0  0
  196.4180  175.4470  139.9310 C   0  0  0  0  0  1  0  0  0  0  0  0
  187.3250  174.7990  142.3960 C   0  0  0  0  0  2  0  0  0  0  0  0
  186.7290  176.1620  142.0860 C   0  0  0  0  0  2  0  0  0  0  0  0
  185.6870  176.4270  142.9750 O   0  0  0  0  0  0  0  0  0  0  0  0
  185.6930  178.7870  143.6810 C   0  0  0  0  0  2  0  0  0  0  0  0
  185.2360  177.7280  142.6920 C   0  0  0  0  0  0  0  0  0  0  0  0
  186.2940  178.7350  142.2770 C   0  0  0  0  0  2  0  0  0  0  0  0
  183.9520  177.9130  142.1420 O   0  0  0  0  0  0  0  0  0  0  0  0
  184.1400  178.2910  140.8120 C   0  0  0  0  0  1  0  0  0  0  0  0
  1 48  1  6  0  0  0
  1 10  1  0  0  0  0
  2  5  1  0  0  0  0
  3  4  1  0  0  0  0
  3  1  1  0  0  0  0
  4 17  1  0  0  0  0
  5 14  1  0  0  0  0
  6 19  1  0  0  0  0
  9 13  1  0  0  0  0
 10 22  1  1  0  0  0
 10  9  1  0  0  0  0
 11 22  1  6  0  0  0
 11 21  1  0  0  0  0
 12 19  1  0  0  0  0
 13  6  1  0  0  0  0
 13  8  2  0  0  0  0
 15 31  1  6  0  0  0
 15 20  1  0  0  0  0
 16  6  1  0  0  0  0
 17 18  1  1  0  0  0
 17 15  1  0  0  0  0
 19 14  1  0  0  0  0
 19  7  1  0  0  0  0
 20 11  1  0  0  0  0
 20 21  1  0  0  0  0
 21  2  1  0  0  0  0
 23 26  1  0  0  0  0
 23 24  1  0  0  0  0
 24 27  2  0  0  0  0
 24 25  1  0  0  0  0
 25 17  1  0  0  0  0
 26 28  1  0  0  0  0
 28 25  1  0  0  0  0
 30 29  1  0  0  0  0
 30 23  1  0  0  0  0
 31 32  1  0  0  0  0
 32 34  1  0  0  0  0
 33 32  2  0  0  0  0
 35 34  1  0  0  0  0
 35 39  1  0  0  0  0
 35 37  1  0  0  0  0
 36 37  1  0  0  0  0
 37 38  1  0  0  0  0
 40 41  1  0  0  0  0
 41 39  1  0  0  0  0
 42 41  1  0  0  0  0
 43 45  2  0  0  0  0
 44 45  1  0  0  0  0
 45 42  1  0  0  0  0
 46 44  1  0  0  0  0
 47 46  1  0  0  0  0
 49 48  1  0  0  0  0
 49 50  1  0  0  0  0
 52 50  1  0  0  0  0
 52 51  1  0  0  0  0
 53 52  1  0  0  0  0
 53 51  1  0  0  0  0
 54 52  1  0  0  0  0
 55 54  1  0  0  0  0
M  END
>  <MODEL>
9

>  <REMARK>
 VINA RESULT:      -6.1      3.245      9.554
  Name = 
  17 active torsions:
  status: ('A' for Active; 'I' for Inactive)
    1  A    between atoms: C_3  and  C_35
    2  A    between atoms: C_3  and  C_54
    3  A    between atoms: C_4  and  C_37
    4  A    between atoms: C_5  and  C_43
    5  A    between atoms: O_7  and  C_33
    6  A    between atoms: C_9  and  C_14
    7  A    between atoms: C_9  and  C_29
    8  A    between atoms: C_14  and  O_28
    9  A    between atoms: C_16  and  C_49
   10  A    between atoms: C_27  and  O_32
   11  A    between atoms: C_27  and  C_37
   12  A    between atoms: O_28  and  C_43
   13  A    between atoms: C_31  and  C_39
   14  A    between atoms: O_32  and  C_33
   15  A    between atoms: C_35  and  C_44
   16  A    between atoms: C_36  and  N_51
   17  A    between atoms: C_43  and  C_44
                            x       y       z     vdW  Elec       q    Type
                         _______ _______ _______ _____ _____    ______ ____

>  <TORSDO>
F 17

$$$$
