=
 OpenBabel11062423003D

 62 69  0  0  1  0  0  0  0  0999 V2000
  196.1120  173.6620  139.3550 C   0  0  1  0  0  3  0  0  0  0  0  0
  193.8910  171.9280  142.9850 C   0  0  0  0  0  1  0  0  0  0  0  0
  193.6380  170.6250  138.6300 C   0  0  0  0  0  3  0  0  0  0  0  0
  195.1250  172.7530  140.0670 C   0  0  2  0  0  3  0  0  0  0  0  0
  191.2390  171.8770  136.8040 C   0  0  1  0  0  0  0  0  0  0  0  0
  194.7180  173.3540  141.2750 O   0  0  0  0  0  0  0  0  0  0  0  0
  191.1120  172.6520  139.0360 C   0  0  1  0  0  3  0  0  0  0  0  0
  197.6280  174.3840  141.0800 O   0  0  0  0  0  1  0  0  0  0  0  0
  192.4260  173.6670  141.9400 C   0  0  2  0  0  3  0  0  0  0  0  0
  192.2120  171.7100  135.8070 O   0  0  0  0  0  1  0  0  0  0  0  0
  197.3850  172.0150  140.5950 C   0  0  1  0  0  3  0  0  0  0  0  0
  191.2340  170.7460  137.8180 C   0  0  1  0  0  3  0  0  0  0  0  0
  195.6600  175.1160  139.2740 C   0  0  0  0  0  1  0  0  0  0  0  0
  192.5560  170.0370  137.9500 C   0  0  0  0  0  0  0  0  0  0  0  0
  189.9000  173.4700  139.4510 C   0  0  0  0  0  2  0  0  0  0  0  0
  189.2800  172.9320  140.5970 O   0  0  0  0  0  0  0  0  0  0  0  0
  195.9980  170.5840  139.2810 O   0  0  0  0  0  0  0  0  0  0  0  0
  190.8170  171.2720  139.0590 O   0  0  0  0  0  0  0  0  0  0  0  0
  193.5660  172.6760  141.6980 C   0  0  2  0  0  3  0  0  0  0  0  0
  191.5330  173.0820  137.6420 C   0  0  0  0  0  2  0  0  0  0  0  0
  195.9620  171.5080  140.3720 C   0  0  2  0  0  3  0  0  0  0  0  0
  193.9760  168.1660  137.3560 C   0  0  0  0  0  3  0  0  0  0  0  0
  191.1170  172.9170  142.2370 C   0  0  1  0  0  3  0  0  0  0  0  0
  192.7380  168.8080  137.3080 C   0  0  0  0  0  3  0  0  0  0  0  0
  192.3060  174.5190  140.8540 F   0  0  0  0  0  0  0  0  0  0  0  0
  195.0470  168.7600  138.0290 C   0  0  0  0  0  3  0  0  0  0  0  0
  191.0240  172.5840  143.5860 O   0  0  0  0  0  1  0  0  0  0  0  0
  197.4500  173.4520  140.0520 C   0  0  1  0  0  3  0  0  0  0  0  0
  189.8030  173.5510  141.7560 C   0  0  1  0  0  3  0  0  0  0  0  0
  194.8860  169.9940  138.6660 C   0  0  0  0  0  0  0  0  0  0  0  0
  188.0160  176.1220  143.7850 C   0  0  2  0  0  3  0  0  0  0  0  0
  187.9470  177.6530  143.9330 C   0  0  0  0  0  2  0  0  0  0  0  0
  186.1570  176.9430  142.6380 N   0  0  0  0  0  0  0  0  0  0  0  0
  186.6560  177.9550  143.2580 C   0  0  0  0  0  0  0  0  0  0  0  0
  187.2920  175.0290  141.6470 C   0  0  0  0  0  2  0  0  0  0  0  0
  188.4860  175.5280  141.0960 O   0  0  0  0  0  0  0  0  0  0  0  0
  189.4120  175.5310  143.4070 C   0  0  1  0  0  3  0  0  0  0  0  0
  189.5540  175.0830  141.9150 C   0  0  1  0  0  3  0  0  0  0  0  0
  186.9700  175.8270  142.8090 N   0  0  0  0  0  0  0  0  0  0  0  0
  192.5940  174.9000  147.0770 C   0  0  0  0  0  2  0  0  0  0  0  0
  190.6070  176.3610  143.9190 C   0  0  2  0  0  3  0  0  0  0  0  0
  194.0730  176.6560  144.4930 C   0  0  0  0  0  1  0  0  0  0  0  0
  192.8030  175.9480  144.9100 C   0  0  1  0  0  0  0  0  0  0  0  0
  191.9300  175.6540  143.7000 C   0  0  0  0  0  2  0  0  0  0  0  0
  190.5440  176.5910  145.4180 C   0  0  0  0  0  2  0  0  0  0  0  0
  193.1260  174.6790  145.6760 C   0  0  0  0  0  2  0  0  0  0  0  0
  191.1750  176.4760  148.1360 C   0  0  0  0  0  1  0  0  0  0  0  0
  192.2940  176.3160  147.2130 N   0  0  0  0  0  0  0  0  0  0  0  0
  191.9920  176.8000  145.8590 C   0  0  1  0  0  3  0  0  0  0  0  0
  186.0730  179.2280  143.2490 O   0  0  0  0  0  0  0  0  0  0  0  0
  185.2870  179.7280  144.3310 C   0  0  0  0  0  0  0  0  0  0  0  0
  185.8820  179.3840  145.5360 F   0  0  0  0  0  0  0  0  0  0  0  0
  183.9990  179.2110  144.2790 F   0  0  0  0  0  0  0  0  0  0  0  0
  185.2240  181.1060  144.2350 F   0  0  0  0  0  0  0  0  0  0  0  0
  189.8570  171.9750  136.1710 C   0  0  0  0  0  2  0  0  0  0  0  0
  189.5310  173.3040  135.8840 O   0  0  0  0  0  1  0  0  0  0  0  0
  197.8060  171.8770  142.0560 C   0  0  0  0  0  2  0  0  0  0  0  0
  197.1830  170.6420  142.6850 C   0  0  0  0  0  2  0  0  0  0  0  0
  197.8190  170.3810  144.0400 C   0  0  0  0  0  2  0  0  0  0  0  0
  196.8760  170.7660  145.1370 C   0  0  0  0  0  0  0  0  0  0  0  0
  195.7170  170.0450  145.3540 O   0  0  0  0  0  0  0  0  0  0  0  0
  197.1250  171.7650  145.8690 O   0  0  0  0  0  1  0  0  0  0  0  0
  1 13  1  1  0  0  0
  1 28  1  0  0  0  0
  1  4  1  0  0  0  0
  3 30  1  0  0  0  0
  4 21  1  0  0  0  0
  4  6  1  1  0  0  0
  5 10  1  6  0  0  0
  5 20  1  0  0  0  0
  5 12  1  0  0  0  0
  6 19  1  0  0  0  0
  7 20  1  6  0  0  0
  7 18  1  0  0  0  0
  7 15  1  0  0  0  0
  9 25  1  6  0  0  0
  9 23  1  0  0  0  0
 11 57  1  1  0  0  0
 12 14  1  1  0  0  0
 12 18  1  0  0  0  0
 14  3  2  0  0  0  0
 15 16  1  0  0  0  0
 19  9  1  0  0  0  0
 19  2  1  1  0  0  0
 21 17  1  6  0  0  0
 21 11  1  0  0  0  0
 22 26  1  0  0  0  0
 23 27  1  1  0  0  0
 24 22  2  0  0  0  0
 24 14  1  0  0  0  0
 26 30  2  0  0  0  0
 28 11  1  0  0  0  0
 28  8  1  1  0  0  0
 29 16  1  6  0  0  0
 29 38  1  0  0  0  0
 29 23  1  0  0  0  0
 30 17  1  0  0  0  0
 31 32  1  6  0  0  0
 33 39  1  0  0  0  0
 33 34  2  0  0  0  0
 34 32  1  0  0  0  0
 35 39  1  0  0  0  0
 36 35  1  0  0  0  0
 37 31  1  0  0  0  0
 37 41  1  6  0  0  0
 38 36  1  6  0  0  0
 38 37  1  0  0  0  0
 39 31  1  0  0  0  0
 40 48  1  0  0  0  0
 41 44  1  1  0  0  0
 41 45  1  0  0  0  0
 43 42  1  6  0  0  0
 43 46  1  0  0  0  0
 43 49  1  0  0  0  0
 44 43  1  0  0  0  0
 46 40  1  0  0  0  0
 48 47  1  0  0  0  0
 49 45  1  6  0  0  0
 49 48  1  0  0  0  0
 50 34  1  0  0  0  0
 50 51  1  0  0  0  0
 51 52  1  0  0  0  0
 53 51  1  0  0  0  0
 54 51  1  0  0  0  0
 55  5  1  0  0  0  0
 56 55  1  0  0  0  0
 57 58  1  0  0  0  0
 58 59  1  0  0  0  0
 59 60  1  0  0  0  0
 60 61  2  0  0  0  0
 60 62  1  0  0  0  0
M  END
>  <MODEL>
1

>  <REMARK>
 VINA RESULT:      -7.9      0.000      0.000
  Name = 
  9 active torsions:
  status: ('A' for Active; 'I' for Inactive)
    1  A    between atoms: C_7  and  C_43
    2  A    between atoms: C_8  and  C_36
    3  A    between atoms: C_8  and  C_44
    4  A    between atoms: C_9  and  C_17
    5  A    between atoms: C_20  and  O_31
    6  A    between atoms: C_23  and  C_61
    7  A    between atoms: C_29  and  O_31
    8  A    between atoms: C_44  and  C_61
    9  A    between atoms: C_53  and  C_59
                            x       y       z     vdW  Elec       q    Type
                         _______ _______ _______ _____ _____    ______ ____

>  <TORSDO>
F 9

$$$$
=
 OpenBabel11062423003D

 62 69  0  0  1  0  0  0  0  0999 V2000
  191.9460  170.2260  139.8850 C   0  0  1  0  0  3  0  0  0  0  0  0
  193.2290  174.6310  140.1270 C   0  0  0  0  0  1  0  0  0  0  0  0
  195.3480  170.9730  141.8180 C   0  0  0  0  0  3  0  0  0  0  0  0
  192.8200  171.3890  140.3200 C   0  0  2  0  0  3  0  0  0  0  0  0
  194.7670  170.1830  144.9310 C   0  0  1  0  0  0  0  0  0  0  0  0
  192.0580  172.5740  140.3260 O   0  0  0  0  0  0  0  0  0  0  0  0
  193.6090  172.1520  144.3160 C   0  0  1  0  0  3  0  0  0  0  0  0
  190.7300  171.0570  137.9800 O   0  0  0  0  0  1  0  0  0  0  0  0
  191.9120  174.0940  142.1860 C   0  0  2  0  0  3  0  0  0  0  0  0
  194.9970  168.8980  144.4160 O   0  0  0  0  0  1  0  0  0  0  0  0
  193.1600  171.0070  137.9380 C   0  0  1  0  0  3  0  0  0  0  0  0
  195.6790  171.2340  144.3230 C   0  0  1  0  0  3  0  0  0  0  0  0
  190.6000  170.1670  140.5990 C   0  0  0  0  0  1  0  0  0  0  0  0
  196.1820  170.8850  142.9470 C   0  0  0  0  0  0  0  0  0  0  0  0
  192.8850  172.9340  145.3990 C   0  0  0  0  0  2  0  0  0  0  0  0
  193.2710  174.2900  145.4050 O   0  0  0  0  0  0  0  0  0  0  0  0
  194.9720  170.5770  139.4310 O   0  0  0  0  0  0  0  0  0  0  0  0
  194.9860  172.4620  144.3100 O   0  0  0  0  0  0  0  0  0  0  0  0
  192.7820  173.5180  141.0670 C   0  0  2  0  0  3  0  0  0  0  0  0
  193.4000  170.6690  144.5670 C   0  0  0  0  0  2  0  0  0  0  0  0
  193.8720  171.4630  139.2100 C   0  0  2  0  0  3  0  0  0  0  0  0
  197.9410  169.9810  141.5470 C   0  0  0  0  0  3  0  0  0  0  0  0
  192.7490  174.9990  143.1050 C   0  0  1  0  0  3  0  0  0  0  0  0
  197.4770  170.3780  142.8010 C   0  0  0  0  0  3  0  0  0  0  0  0
  191.3000  173.0650  142.8820 F   0  0  0  0  0  0  0  0  0  0  0  0
  197.1030  170.0670  140.4310 C   0  0  0  0  0  3  0  0  0  0  0  0
  192.8320  176.2930  142.5950 O   0  0  0  0  0  1  0  0  0  0  0  0
  191.8540  170.3180  138.3670 C   0  0  1  0  0  3  0  0  0  0  0  0
  192.3840  175.0400  144.5960 C   0  0  1  0  0  3  0  0  0  0  0  0
  195.8010  170.5590  140.5600 C   0  0  0  0  0  0  0  0  0  0  0  0
  189.5170  177.3440  145.2210 C   0  0  2  0  0  3  0  0  0  0  0  0
  188.0140  177.2760  145.5490 C   0  0  0  0  0  2  0  0  0  0  0  0
  189.1940  177.6690  147.5090 N   0  0  0  0  0  0  0  0  0  0  0  0
  188.0150  177.6290  146.9950 C   0  0  0  0  0  0  0  0  0  0  0  0
  191.2040  176.4610  146.8530 C   0  0  0  0  0  2  0  0  0  0  0  0
  190.7760  175.1790  146.4600 O   0  0  0  0  0  0  0  0  0  0  0  0
  190.0710  176.2070  144.3040 C   0  0  1  0  0  3  0  0  0  0  0  0
  190.8930  175.1030  145.0490 C   0  0  1  0  0  3  0  0  0  0  0  0
  190.1510  177.3990  146.5350 N   0  0  0  0  0  0  0  0  0  0  0  0
  186.4290  178.2470  141.7420 C   0  0  0  0  0  2  0  0  0  0  0  0
  189.0370  175.6390  143.3090 C   0  0  2  0  0  3  0  0  0  0  0  0
  187.7150  175.5250  140.0430 C   0  0  0  0  0  1  0  0  0  0  0  0
  187.8860  176.3750  141.2820 C   0  0  1  0  0  0  0  0  0  0  0  0
  189.2590  176.1530  141.9000 C   0  0  0  0  0  2  0  0  0  0  0  0
  187.6200  176.0660  143.6500 C   0  0  0  0  0  2  0  0  0  0  0  0
  187.6610  177.8410  140.9600 C   0  0  0  0  0  2  0  0  0  0  0  0
  185.1230  177.3030  143.4820 C   0  0  0  0  0  1  0  0  0  0  0  0
  185.7880  177.0290  142.2110 N   0  0  0  0  0  0  0  0  0  0  0  0
  186.8550  176.0260  142.3290 C   0  0  1  0  0  3  0  0  0  0  0  0
  186.8440  177.8370  147.7350 O   0  0  0  0  0  0  0  0  0  0  0  0
  185.9760  178.9490  147.5170 C   0  0  0  0  0  0  0  0  0  0  0  0
  184.6920  178.6250  147.9320 F   0  0  0  0  0  0  0  0  0  0  0  0
  185.9600  179.2990  146.1720 F   0  0  0  0  0  0  0  0  0  0  0  0
  186.4340  180.0220  148.2580 F   0  0  0  0  0  0  0  0  0  0  0  0
  194.9620  170.1790  146.4430 C   0  0  0  0  0  2  0  0  0  0  0  0
  194.5960  168.9470  146.9910 O   0  0  0  0  0  1  0  0  0  0  0  0
  192.9680  172.1630  136.9590 C   0  0  0  0  0  2  0  0  0  0  0  0
  194.1400  173.1280  137.0240 C   0  0  0  0  0  2  0  0  0  0  0  0
  194.1690  173.9820  135.7680 C   0  0  0  0  0  2  0  0  0  0  0  0
  194.1900  175.4340  136.1300 C   0  0  0  0  0  0  0  0  0  0  0  0
  195.2690  176.2290  135.7900 O   0  0  0  0  0  0  0  0  0  0  0  0
  193.2240  175.9460  136.7630 O   0  0  0  0  0  1  0  0  0  0  0  0
  1  4  1  0  0  0  0
  1 13  1  1  0  0  0
  3 14  1  0  0  0  0
  4  6  1  6  0  0  0
  5 10  1  6  0  0  0
  5 55  1  0  0  0  0
  6 19  1  0  0  0  0
  7 20  1  1  0  0  0
  7 15  1  0  0  0  0
  9 25  1  1  0  0  0
  9 23  1  0  0  0  0
 11 57  1  6  0  0  0
 11 28  1  0  0  0  0
 11 21  1  0  0  0  0
 12 14  1  6  0  0  0
 12  5  1  0  0  0  0
 15 16  1  0  0  0  0
 17 30  1  0  0  0  0
 18  7  1  0  0  0  0
 18 12  1  0  0  0  0
 19  2  1  6  0  0  0
 19  9  1  0  0  0  0
 20  5  1  0  0  0  0
 21 17  1  1  0  0  0
 21  4  1  0  0  0  0
 22 24  1  0  0  0  0
 23 27  1  6  0  0  0
 23 29  1  0  0  0  0
 24 14  2  0  0  0  0
 26 30  1  0  0  0  0
 26 22  2  0  0  0  0
 28  8  1  1  0  0  0
 28  1  1  0  0  0  0
 29 38  1  0  0  0  0
 29 16  1  1  0  0  0
 30  3  2  0  0  0  0
 31 32  1  1  0  0  0
 31 39  1  0  0  0  0
 32 34  1  0  0  0  0
 34 33  2  0  0  0  0
 34 50  1  0  0  0  0
 36 35  1  0  0  0  0
 37 41  1  1  0  0  0
 37 38  1  0  0  0  0
 37 31  1  0  0  0  0
 38 36  1  1  0  0  0
 39 35  1  0  0  0  0
 39 33  1  0  0  0  0
 40 48  1  0  0  0  0
 41 44  1  6  0  0  0
 41 45  1  0  0  0  0
 43 42  1  6  0  0  0
 43 44  1  0  0  0  0
 43 49  1  0  0  0  0
 46 43  1  0  0  0  0
 46 40  1  0  0  0  0
 48 49  1  0  0  0  0
 48 47  1  0  0  0  0
 49 45  1  1  0  0  0
 51 50  1  0  0  0  0
 51 52  1  0  0  0  0
 51 54  1  0  0  0  0
 53 51  1  0  0  0  0
 55 56  1  0  0  0  0
 57 58  1  0  0  0  0
 59 60  1  0  0  0  0
 59 58  1  0  0  0  0
 60 62  1  0  0  0  0
 61 60  2  0  0  0  0
M  END
>  <MODEL>
2

>  <REMARK>
 VINA RESULT:      -7.8      2.276      6.290
  Name = 
  9 active torsions:
  status: ('A' for Active; 'I' for Inactive)
    1  A    between atoms: C_7  and  C_43
    2  A    between atoms: C_8  and  C_36
    3  A    between atoms: C_8  and  C_44
    4  A    between atoms: C_9  and  C_17
    5  A    between atoms: C_20  and  O_31
    6  A    between atoms: C_23  and  C_61
    7  A    between atoms: C_29  and  O_31
    8  A    between atoms: C_44  and  C_61
    9  A    between atoms: C_53  and  C_59
                            x       y       z     vdW  Elec       q    Type
                         _______ _______ _______ _____ _____    ______ ____

>  <TORSDO>
F 9

$$$$
=
 OpenBabel11062423003D

 62 69  0  0  1  0  0  0  0  0999 V2000
  191.9300  171.3730  137.8170 C   0  0  1  0  0  3  0  0  0  0  0  0
  194.3500  175.0210  139.2130 C   0  0  0  0  0  1  0  0  0  0  0  0
  195.2050  170.6110  139.9540 C   0  0  0  0  0  3  0  0  0  0  0  0
  193.0460  172.0910  138.5560 C   0  0  2  0  0  3  0  0  0  0  0  0
  194.1340  169.3020  142.7450 C   0  0  1  0  0  0  0  0  0  0  0  0
  192.6440  173.4090  138.8490 O   0  0  0  0  0  0  0  0  0  0  0  0
  193.6290  171.6100  142.6310 C   0  0  1  0  0  3  0  0  0  0  0  0
  191.1800  172.9530  136.1630 O   0  0  0  0  0  1  0  0  0  0  0  0
  192.7450  174.4140  141.0340 C   0  0  2  0  0  3  0  0  0  0  0  0
  194.0490  168.1680  141.9230 O   0  0  0  0  0  1  0  0  0  0  0  0
  193.4940  172.2090  136.1650 C   0  0  1  0  0  3  0  0  0  0  0  0
  195.3540  170.1560  142.4480 C   0  0  1  0  0  3  0  0  0  0  0  0
  190.5590  171.5390  138.4610 C   0  0  0  0  0  1  0  0  0  0  0  0
  195.8710  170.0160  141.0410 C   0  0  0  0  0  0  0  0  0  0  0  0
  193.0470  172.2860  143.8620 C   0  0  0  0  0  2  0  0  0  0  0  0
  193.7900  173.4280  144.2250 O   0  0  0  0  0  0  0  0  0  0  0  0
  194.9660  170.9260  137.5370 O   0  0  0  0  0  0  0  0  0  0  0  0
  195.0310  171.4980  142.7360 O   0  0  0  0  0  0  0  0  0  0  0  0
  193.5260  173.8950  139.8240 C   0  0  2  0  0  3  0  0  0  0  0  0
  192.9950  170.2370  142.4870 C   0  0  0  0  0  2  0  0  0  0  0  0
  194.1790  172.1190  137.5270 C   0  0  2  0  0  3  0  0  0  0  0  0
  197.4380  169.0020  139.4950 C   0  0  0  0  0  3  0  0  0  0  0  0
  193.7070  174.7880  142.1740 C   0  0  1  0  0  3  0  0  0  0  0  0
  196.9840  169.2040  140.7990 C   0  0  0  0  0  3  0  0  0  0  0  0
  191.8090  173.4710  141.4290 F   0  0  0  0  0  0  0  0  0  0  0  0
  196.7670  169.5930  138.4210 C   0  0  0  0  0  3  0  0  0  0  0  0
  194.1920  176.0840  142.0160 O   0  0  0  0  0  1  0  0  0  0  0  0
  192.0130  171.8490  136.3720 C   0  0  1  0  0  3  0  0  0  0  0  0
  193.2260  174.5740  143.6170 C   0  0  1  0  0  3  0  0  0  0  0  0
  195.6450  170.3970  138.6430 C   0  0  0  0  0  0  0  0  0  0  0  0
  191.1450  177.2520  145.1710 C   0  0  2  0  0  3  0  0  0  0  0  0
  189.6620  177.5810  145.4210 C   0  0  0  0  0  2  0  0  0  0  0  0
  190.5720  176.6940  147.3630 N   0  0  0  0  0  0  0  0  0  0  0  0
  189.5360  177.2810  146.8730 C   0  0  0  0  0  0  0  0  0  0  0  0
  192.1910  175.2490  146.2580 C   0  0  0  0  0  2  0  0  0  0  0  0
  191.4600  174.4810  145.3340 O   0  0  0  0  0  0  0  0  0  0  0  0
  191.4630  176.4800  143.8500 C   0  0  1  0  0  3  0  0  0  0  0  0
  191.7740  174.9580  144.0370 C   0  0  1  0  0  3  0  0  0  0  0  0
  191.5430  176.5360  146.3790 N   0  0  0  0  0  0  0  0  0  0  0  0
  186.7080  175.5110  143.1850 C   0  0  0  0  0  2  0  0  0  0  0  0
  190.4800  176.7720  142.6970 C   0  0  2  0  0  3  0  0  0  0  0  0
  187.5890  178.4070  141.5160 C   0  0  0  0  0  1  0  0  0  0  0  0
  188.1140  177.3280  142.4360 C   0  0  1  0  0  0  0  0  0  0  0  0
  189.4110  177.7700  143.0970 C   0  0  0  0  0  2  0  0  0  0  0  0
  189.7060  175.5350  142.2780 C   0  0  0  0  0  2  0  0  0  0  0  0
  187.0700  176.9540  143.4720 C   0  0  0  0  0  2  0  0  0  0  0  0
  187.5930  173.7610  141.8530 C   0  0  0  0  0  1  0  0  0  0  0  0
  187.2430  175.1780  141.8750 N   0  0  0  0  0  0  0  0  0  0  0  0
  188.4030  176.0570  141.6730 C   0  0  1  0  0  3  0  0  0  0  0  0
  188.3830  177.5570  147.6180 O   0  0  0  0  0  0  0  0  0  0  0  0
  187.0650  177.4270  147.0850 C   0  0  0  0  0  0  0  0  0  0  0  0
  186.8070  178.4820  146.2210 F   0  0  0  0  0  0  0  0  0  0  0  0
  186.1240  177.4160  148.1070 F   0  0  0  0  0  0  0  0  0  0  0  0
  186.9850  176.2380  146.3840 F   0  0  0  0  0  0  0  0  0  0  0  0
  194.1740  168.8790  144.2090 C   0  0  0  0  0  2  0  0  0  0  0  0
  192.8850  168.6550  144.7010 O   0  0  0  0  0  1  0  0  0  0  0  0
  193.7220  173.5710  135.5120 C   0  0  0  0  0  2  0  0  0  0  0  0
  194.8690  173.5080  134.5160 C   0  0  0  0  0  2  0  0  0  0  0  0
  196.1700  173.8710  135.2100 C   0  0  0  0  0  2  0  0  0  0  0  0
  196.3810  175.3530  135.1730 C   0  0  0  0  0  0  0  0  0  0  0  0
  195.3340  176.2190  135.4300 O   0  0  0  0  0  1  0  0  0  0  0  0
  197.5170  175.8270  134.8930 O   0  0  0  0  0  0  0  0  0  0  0  0
  1 13  1  1  0  0  0
  1  4  1  0  0  0  0
  3 14  1  0  0  0  0
  4  6  1  6  0  0  0
  5 10  1  6  0  0  0
  5 55  1  0  0  0  0
  6 19  1  0  0  0  0
  7 20  1  1  0  0  0
  7 18  1  0  0  0  0
  7 15  1  0  0  0  0
  9 25  1  1  0  0  0
  9 23  1  0  0  0  0
 11 57  1  1  0  0  0
 11 28  1  0  0  0  0
 11 21  1  0  0  0  0
 12 14  1  6  0  0  0
 12 18  1  0  0  0  0
 12  5  1  0  0  0  0
 15 16  1  0  0  0  0
 17 30  1  0  0  0  0
 19  2  1  6  0  0  0
 19  9  1  0  0  0  0
 20  5  1  0  0  0  0
 21 17  1  6  0  0  0
 21  4  1  0  0  0  0
 22 24  1  0  0  0  0
 23 27  1  1  0  0  0
 23 29  1  0  0  0  0
 24 14  2  0  0  0  0
 26 30  1  0  0  0  0
 26 22  2  0  0  0  0
 28  8  1  1  0  0  0
 28  1  1  0  0  0  0
 29 38  1  0  0  0  0
 29 16  1  6  0  0  0
 30  3  2  0  0  0  0
 31 32  1  1  0  0  0
 31 39  1  0  0  0  0
 32 34  1  0  0  0  0
 34 33  2  0  0  0  0
 34 50  1  0  0  0  0
 35 39  1  0  0  0  0
 36 35  1  0  0  0  0
 37 41  1  6  0  0  0
 37 38  1  0  0  0  0
 37 31  1  0  0  0  0
 38 36  1  1  0  0  0
 39 33  1  0  0  0  0
 40 46  1  0  0  0  0
 41 45  1  1  0  0  0
 41 44  1  0  0  0  0
 43 42  1  6  0  0  0
 43 44  1  0  0  0  0
 43 46  1  0  0  0  0
 47 48  1  0  0  0  0
 48 40  1  0  0  0  0
 49 48  1  0  0  0  0
 49 45  1  1  0  0  0
 49 43  1  0  0  0  0
 51 50  1  0  0  0  0
 51 53  1  0  0  0  0
 52 51  1  0  0  0  0
 54 51  1  0  0  0  0
 55 56  1  0  0  0  0
 58 59  1  0  0  0  0
 58 57  1  0  0  0  0
 60 59  1  0  0  0  0
 60 61  1  0  0  0  0
 62 60  2  0  0  0  0
M  END
>  <MODEL>
3

>  <REMARK>
 VINA RESULT:      -6.5      2.484      5.938
  Name = 
  9 active torsions:
  status: ('A' for Active; 'I' for Inactive)
    1  A    between atoms: C_7  and  C_43
    2  A    between atoms: C_8  and  C_36
    3  A    between atoms: C_8  and  C_44
    4  A    between atoms: C_9  and  C_17
    5  A    between atoms: C_20  and  O_31
    6  A    between atoms: C_23  and  C_61
    7  A    between atoms: C_29  and  O_31
    8  A    between atoms: C_44  and  C_61
    9  A    between atoms: C_53  and  C_59
                            x       y       z     vdW  Elec       q    Type
                         _______ _______ _______ _____ _____    ______ ____

>  <TORSDO>
F 9

$$$$
=
 OpenBabel11062423003D

 62 69  0  0  1  0  0  0  0  0999 V2000
  189.1250  177.9790  142.8650 C   0  0  1  0  0  3  0  0  0  0  0  0
  188.5180  173.4740  143.5360 C   0  0  0  0  0  1  0  0  0  0  0  0
  191.2650  176.3220  145.7880 C   0  0  0  0  0  3  0  0  0  0  0  0
  189.3930  176.6290  143.5060 C   0  0  2  0  0  3  0  0  0  0  0  0
  194.3730  176.5290  144.8110 C   0  0  1  0  0  0  0  0  0  0  0  0
  189.0270  175.6020  142.6120 O   0  0  0  0  0  0  0  0  0  0  0  0
  193.1760  174.9370  143.5340 C   0  0  1  0  0  3  0  0  0  0  0  0
  186.9380  177.7640  141.8820 O   0  0  0  0  0  1  0  0  0  0  0  0
  190.4540  173.7710  141.9780 C   0  0  2  0  0  3  0  0  0  0  0  0
  194.2010  177.8400  145.2800 O   0  0  0  0  0  1  0  0  0  0  0  0
  187.2280  177.4390  144.2740 C   0  0  1  0  0  3  0  0  0  0  0  0
  193.6650  175.4970  145.6730 C   0  0  1  0  0  3  0  0  0  0  0  0
  189.6510  178.0990  141.4390 C   0  0  0  0  0  1  0  0  0  0  0  0
  192.4840  176.0410  146.4320 C   0  0  0  0  0  0  0  0  0  0  0  0
  193.9460  174.0700  142.5510 C   0  0  0  0  0  2  0  0  0  0  0  0
  193.6920  172.7000  142.7600 O   0  0  0  0  0  0  0  0  0  0  0  0
  189.0040  177.2600  145.8580 O   0  0  0  0  0  0  0  0  0  0  0  0
  193.2800  174.4230  144.8440 O   0  0  0  0  0  0  0  0  0  0  0  0
  189.6210  174.4230  143.0830 C   0  0  2  0  0  3  0  0  0  0  0  0
  193.7300  176.3500  143.4720 C   0  0  0  0  0  2  0  0  0  0  0  0
  188.4440  176.6230  144.7070 C   0  0  2  0  0  3  0  0  0  0  0  0
  191.5710  176.9290  148.4940 C   0  0  0  0  0  3  0  0  0  0  0  0
  191.2430  172.5750  142.5360 C   0  0  1  0  0  3  0  0  0  0  0  0
  192.6290  176.3580  147.7860 C   0  0  0  0  0  3  0  0  0  0  0  0
  191.2820  174.7160  141.3940 F   0  0  0  0  0  0  0  0  0  0  0  0
  190.3650  177.2100  147.8440 C   0  0  0  0  0  3  0  0  0  0  0  0
  190.4660  171.4190  142.5390 O   0  0  0  0  0  1  0  0  0  0  0  0
  187.6280  178.2200  143.0110 C   0  0  1  0  0  3  0  0  0  0  0  0
  192.6250  172.2830  141.9310 C   0  0  1  0  0  3  0  0  0  0  0  0
  190.2060  176.9120  146.4870 C   0  0  0  0  0  0  0  0  0  0  0  0
  194.2150  170.5680  139.0240 C   0  0  2  0  0  3  0  0  0  0  0  0
  194.2620  170.6730  137.4890 C   0  0  0  0  0  2  0  0  0  0  0  0
  196.1620  171.6740  138.3690 N   0  0  0  0  0  0  0  0  0  0  0  0
  195.6060  171.2760  137.2780 C   0  0  0  0  0  0  0  0  0  0  0  0
  195.1280  172.4230  140.4430 C   0  0  0  0  0  2  0  0  0  0  0  0
  193.9840  173.1490  140.0660 O   0  0  0  0  0  0  0  0  0  0  0  0
  192.8600  170.9590  139.6970 C   0  0  1  0  0  3  0  0  0  0  0  0
  192.8510  172.3620  140.3900 C   0  0  1  0  0  3  0  0  0  0  0  0
  195.3430  171.3870  139.4570 N   0  0  0  0  0  0  0  0  0  0  0  0
  189.1470  173.7930  138.2250 C   0  0  0  0  0  2  0  0  0  0  0  0
  191.6200  170.6970  138.8170 C   0  0  2  0  0  3  0  0  0  0  0  0
  189.7990  171.3490  135.8690 C   0  0  0  0  0  1  0  0  0  0  0  0
  190.2680  171.9210  137.1890 C   0  0  1  0  0  0  0  0  0  0  0  0
  191.6810  171.4540  137.5050 C   0  0  0  0  0  2  0  0  0  0  0  0
  190.3390  171.1800  139.4740 C   0  0  0  0  0  2  0  0  0  0  0  0
  190.1800  173.4350  137.1770 C   0  0  0  0  0  2  0  0  0  0  0  0
  188.0210  172.6530  139.9730 C   0  0  0  0  0  1  0  0  0  0  0  0
  188.4390  172.5730  138.5760 N   0  0  0  0  0  0  0  0  0  0  0  0
  189.3770  171.4710  138.3230 C   0  0  1  0  0  3  0  0  0  0  0  0
  196.1820  171.4480  136.0130 O   0  0  0  0  0  0  0  0  0  0  0  0
  197.0860  170.5050  135.4380 C   0  0  0  0  0  0  0  0  0  0  0  0
  197.8370  169.9100  136.4410 F   0  0  0  0  0  0  0  0  0  0  0  0
  197.9300  171.1310  134.5290 F   0  0  0  0  0  0  0  0  0  0  0  0
  196.3570  169.5320  134.7810 F   0  0  0  0  0  0  0  0  0  0  0  0
  195.8570  176.1870  144.7560 C   0  0  0  0  0  2  0  0  0  0  0  0
  196.4270  176.6250  143.5580 O   0  0  0  0  0  1  0  0  0  0  0  0
  185.9940  176.5570  144.1010 C   0  0  0  0  0  2  0  0  0  0  0  0
  185.1910  176.4920  145.3890 C   0  0  0  0  0  2  0  0  0  0  0  0
  184.9190  177.8980  145.8950 C   0  0  0  0  0  2  0  0  0  0  0  0
  185.6350  178.1300  147.1890 C   0  0  0  0  0  0  0  0  0  0  0  0
  185.8720  179.4160  147.6400 O   0  0  0  0  0  0  0  0  0  0  0  0
  186.0420  177.1520  147.8760 O   0  0  0  0  0  1  0  0  0  0  0  0
  1 13  1  6  0  0  0
  1 28  1  0  0  0  0
  1  4  1  0  0  0  0
  3 14  2  0  0  0  0
  3 30  1  0  0  0  0
  4  6  1  6  0  0  0
  4 21  1  0  0  0  0
  5 10  1  1  0  0  0
  5 12  1  0  0  0  0
  6 19  1  0  0  0  0
  7 15  1  6  0  0  0
  7 18  1  0  0  0  0
  9 25  1  1  0  0  0
  9 23  1  0  0  0  0
  9 19  1  0  0  0  0
 11 57  1  6  0  0  0
 11 21  1  0  0  0  0
 12 18  1  6  0  0  0
 12 14  1  0  0  0  0
 14 24  1  0  0  0  0
 15 16  1  0  0  0  0
 17 30  1  0  0  0  0
 19  2  1  6  0  0  0
 20  7  1  0  0  0  0
 20  5  1  0  0  0  0
 21 17  1  1  0  0  0
 23 27  1  6  0  0  0
 24 22  2  0  0  0  0
 26 22  1  0  0  0  0
 28  8  1  6  0  0  0
 28 11  1  0  0  0  0
 29 23  1  0  0  0  0
 29 16  1  1  0  0  0
 30 26  2  0  0  0  0
 31 32  1  6  0  0  0
 31 39  1  0  0  0  0
 31 37  1  0  0  0  0
 33 39  1  0  0  0  0
 34 32  1  0  0  0  0
 34 33  2  0  0  0  0
 36 35  1  0  0  0  0
 37 41  1  6  0  0  0
 37 38  1  0  0  0  0
 38 36  1  1  0  0  0
 38 29  1  0  0  0  0
 39 35  1  0  0  0  0
 40 48  1  0  0  0  0
 41 44  1  6  0  0  0
 41 45  1  0  0  0  0
 43 42  1  6  0  0  0
 43 44  1  0  0  0  0
 43 49  1  0  0  0  0
 46 43  1  0  0  0  0
 46 40  1  0  0  0  0
 48 47  1  0  0  0  0
 49 48  1  0  0  0  0
 49 45  1  1  0  0  0
 50 34  1  0  0  0  0
 51 50  1  0  0  0  0
 51 52  1  0  0  0  0
 53 51  1  0  0  0  0
 54 51  1  0  0  0  0
 55  5  1  0  0  0  0
 56 55  1  0  0  0  0
 57 58  1  0  0  0  0
 58 59  1  0  0  0  0
 59 60  1  0  0  0  0
 60 61  2  0  0  0  0
 60 62  1  0  0  0  0
M  END
>  <MODEL>
4

>  <REMARK>
 VINA RESULT:      -5.9      3.452     10.519
  Name = 
  9 active torsions:
  status: ('A' for Active; 'I' for Inactive)
    1  A    between atoms: C_7  and  C_43
    2  A    between atoms: C_8  and  C_36
    3  A    between atoms: C_8  and  C_44
    4  A    between atoms: C_9  and  C_17
    5  A    between atoms: C_20  and  O_31
    6  A    between atoms: C_23  and  C_61
    7  A    between atoms: C_29  and  O_31
    8  A    between atoms: C_44  and  C_61
    9  A    between atoms: C_53  and  C_59
                            x       y       z     vdW  Elec       q    Type
                         _______ _______ _______ _____ _____    ______ ____

>  <TORSDO>
F 9

$$$$
=
 OpenBabel11062423003D

 62 69  0  0  1  0  0  0  0  0999 V2000
  189.1770  178.1770  142.7550 C   0  0  1  0  0  3  0  0  0  0  0  0
  188.0440  173.8020  143.5860 C   0  0  0  0  0  1  0  0  0  0  0  0
  190.9760  176.4420  145.8570 C   0  0  0  0  0  3  0  0  0  0  0  0
  189.2620  176.8380  143.4670 C   0  0  2  0  0  3  0  0  0  0  0  0
  194.1310  176.2640  145.0410 C   0  0  1  0  0  0  0  0  0  0  0  0
  188.8290  175.8150  142.6000 O   0  0  0  0  0  0  0  0  0  0  0  0
  192.8290  174.7500  143.7710 C   0  0  1  0  0  3  0  0  0  0  0  0
  187.0300  178.1510  141.6660 O   0  0  0  0  0  1  0  0  0  0  0  0
  190.0740  173.8110  142.1230 C   0  0  2  0  0  3  0  0  0  0  0  0
  194.0820  177.6080  145.4420 O   0  0  0  0  0  1  0  0  0  0  0  0
  187.1660  177.9140  144.0810 C   0  0  1  0  0  3  0  0  0  0  0  0
  193.2720  175.3580  145.9070 C   0  0  1  0  0  3  0  0  0  0  0  0
  189.7810  178.1690  141.3550 C   0  0  0  0  0  1  0  0  0  0  0  0
  192.1230  176.0630  146.5770 C   0  0  0  0  0  0  0  0  0  0  0  0
  193.5460  173.7590  142.8690 C   0  0  0  0  0  2  0  0  0  0  0  0
  193.1320  172.4360  143.1230 O   0  0  0  0  0  0  0  0  0  0  0  0
  188.8310  177.6220  145.7650 O   0  0  0  0  0  0  0  0  0  0  0  0
  192.8120  174.2930  145.1050 O   0  0  0  0  0  0  0  0  0  0  0  0
  189.2650  174.6030  143.1530 C   0  0  2  0  0  3  0  0  0  0  0  0
  193.5390  176.0900  143.6780 C   0  0  0  0  0  2  0  0  0  0  0  0
  188.2620  176.9930  144.6150 C   0  0  2  0  0  3  0  0  0  0  0  0
  191.2150  177.1440  148.5460 C   0  0  0  0  0  3  0  0  0  0  0  0
  190.6980  172.5650  142.7730 C   0  0  1  0  0  3  0  0  0  0  0  0
  192.2370  176.4280  147.9220 C   0  0  0  0  0  3  0  0  0  0  0  0
  191.0280  174.6320  141.5430 F   0  0  0  0  0  0  0  0  0  0  0  0
  190.0810  177.5210  147.8220 C   0  0  0  0  0  3  0  0  0  0  0  0
  189.7990  171.5020  142.7850 O   0  0  0  0  0  1  0  0  0  0  0  0
  187.7100  178.5850  142.8090 C   0  0  1  0  0  3  0  0  0  0  0  0
  192.0670  172.0960  142.2570 C   0  0  1  0  0  3  0  0  0  0  0  0
  189.9560  177.1770  146.4720 C   0  0  0  0  0  0  0  0  0  0  0  0
  191.1520  170.4860  139.0180 C   0  0  2  0  0  3  0  0  0  0  0  0
  191.4390  170.6430  137.5130 C   0  0  0  0  0  2  0  0  0  0  0  0
  192.7820  168.9510  138.3620 N   0  0  0  0  0  0  0  0  0  0  0  0
  192.3830  169.5170  137.2770 C   0  0  0  0  0  0  0  0  0  0  0  0
  193.0050  169.8890  140.5990 C   0  0  0  0  0  2  0  0  0  0  0  0
  193.4550  171.2100  140.4230 O   0  0  0  0  0  0  0  0  0  0  0  0
  191.1080  171.8080  139.8490 C   0  0  1  0  0  3  0  0  0  0  0  0
  192.3750  172.0750  140.7280 C   0  0  1  0  0  3  0  0  0  0  0  0
  192.1760  169.5460  139.4640 N   0  0  0  0  0  0  0  0  0  0  0  0
  190.6290  172.6930  135.0560 C   0  0  0  0  0  2  0  0  0  0  0  0
  190.6420  173.0420  139.0470 C   0  0  2  0  0  3  0  0  0  0  0  0
  188.3230  174.5360  136.8540 C   0  0  0  0  0  1  0  0  0  0  0  0
  189.4150  173.4990  136.9830 C   0  0  1  0  0  0  0  0  0  0  0  0
  189.3300  172.7950  138.3300 C   0  0  0  0  0  2  0  0  0  0  0  0
  191.6170  173.4070  137.9410 C   0  0  0  0  0  2  0  0  0  0  0  0
  189.3460  172.5040  135.8390 C   0  0  0  0  0  2  0  0  0  0  0  0
  192.6880  173.8180  135.3960 C   0  0  0  0  0  1  0  0  0  0  0  0
  191.2370  173.9350  135.5050 N   0  0  0  0  0  0  0  0  0  0  0  0
  190.7820  174.1340  136.8880 C   0  0  1  0  0  3  0  0  0  0  0  0
  192.8380  169.1490  136.0040 O   0  0  0  0  0  0  0  0  0  0  0  0
  194.1280  169.5060  135.5080 C   0  0  0  0  0  0  0  0  0  0  0  0
  194.5200  168.5980  134.5360 F   0  0  0  0  0  0  0  0  0  0  0  0
  195.0600  169.5210  136.5390 F   0  0  0  0  0  0  0  0  0  0  0  0
  194.0550  170.7670  134.9470 F   0  0  0  0  0  0  0  0  0  0  0  0
  195.5690  175.7620  145.0800 C   0  0  0  0  0  2  0  0  0  0  0  0
  195.7350  174.7980  146.0780 O   0  0  0  0  0  1  0  0  0  0  0  0
  185.8510  177.1630  143.8810 C   0  0  0  0  0  2  0  0  0  0  0  0
  184.8110  177.6130  144.8940 C   0  0  0  0  0  2  0  0  0  0  0  0
  185.0080  176.8610  146.1980 C   0  0  0  0  0  2  0  0  0  0  0  0
  185.5730  177.7740  147.2420 C   0  0  0  0  0  0  0  0  0  0  0  0
  185.2610  179.1210  147.2420 O   0  0  0  0  0  0  0  0  0  0  0  0
  186.3540  177.3240  148.1260 O   0  0  0  0  0  1  0  0  0  0  0  0
  1 13  1  6  0  0  0
  1 28  1  0  0  0  0
  1  4  1  0  0  0  0
  3 30  2  0  0  0  0
  3 14  1  0  0  0  0
  4  6  1  6  0  0  0
  4 21  1  0  0  0  0
  5 55  1  0  0  0  0
  5 10  1  1  0  0  0
  5 12  1  0  0  0  0
  6 19  1  0  0  0  0
  7 15  1  6  0  0  0
  7 18  1  0  0  0  0
  9 25  1  1  0  0  0
  9 23  1  0  0  0  0
  9 19  1  0  0  0  0
 11 57  1  6  0  0  0
 11 21  1  0  0  0  0
 12 18  1  6  0  0  0
 12 14  1  0  0  0  0
 14 24  2  0  0  0  0
 15 16  1  0  0  0  0
 17 30  1  0  0  0  0
 19  2  1  6  0  0  0
 20  7  1  0  0  0  0
 20  5  1  0  0  0  0
 21 17  1  1  0  0  0
 23 27  1  6  0  0  0
 24 22  1  0  0  0  0
 26 22  2  0  0  0  0
 28  8  1  6  0  0  0
 28 11  1  0  0  0  0
 29 23  1  0  0  0  0
 29 16  1  1  0  0  0
 30 26  1  0  0  0  0
 31 32  1  6  0  0  0
 31 39  1  0  0  0  0
 31 37  1  0  0  0  0
 33 39  1  0  0  0  0
 34 32  1  0  0  0  0
 34 33  2  0  0  0  0
 36 35  1  0  0  0  0
 37 41  1  6  0  0  0
 37 38  1  0  0  0  0
 38 36  1  1  0  0  0
 38 29  1  0  0  0  0
 39 35  1  0  0  0  0
 40 48  1  0  0  0  0
 40 46  1  0  0  0  0
 41 45  1  6  0  0  0
 43 42  1  6  0  0  0
 43 44  1  0  0  0  0
 44 41  1  0  0  0  0
 46 43  1  0  0  0  0
 47 48  1  0  0  0  0
 48 49  1  0  0  0  0
 49 43  1  0  0  0  0
 49 45  1  1  0  0  0
 50 34  1  0  0  0  0
 51 50  1  0  0  0  0
 51 53  1  0  0  0  0
 52 51  1  0  0  0  0
 54 51  1  0  0  0  0
 55 56  1  0  0  0  0
 57 58  1  0  0  0  0
 58 59  1  0  0  0  0
 59 60  1  0  0  0  0
 60 61  2  0  0  0  0
 60 62  1  0  0  0  0
M  END
>  <MODEL>
5

>  <REMARK>
 VINA RESULT:      -5.9      3.806     10.439
  Name = 
  9 active torsions:
  status: ('A' for Active; 'I' for Inactive)
    1  A    between atoms: C_7  and  C_43
    2  A    between atoms: C_8  and  C_36
    3  A    between atoms: C_8  and  C_44
    4  A    between atoms: C_9  and  C_17
    5  A    between atoms: C_20  and  O_31
    6  A    between atoms: C_23  and  C_61
    7  A    between atoms: C_29  and  O_31
    8  A    between atoms: C_44  and  C_61
    9  A    between atoms: C_53  and  C_59
                            x       y       z     vdW  Elec       q    Type
                         _______ _______ _______ _____ _____    ______ ____

>  <TORSDO>
F 9

$$$$
=
 OpenBabel11062423003D

 62 69  0  0  1  0  0  0  0  0999 V2000
  189.4660  177.9260  143.0060 C   0  0  1  0  0  3  0  0  0  0  0  0
  188.6920  173.4430  142.3650 C   0  0  0  0  0  1  0  0  0  0  0  0
  191.2160  175.4420  145.5830 C   0  0  0  0  0  3  0  0  0  0  0  0
  189.6300  176.4420  143.2830 C   0  0  2  0  0  3  0  0  0  0  0  0
  194.4210  175.7410  145.0350 C   0  0  1  0  0  0  0  0  0  0  0  0
  189.3490  175.7110  142.1110 O   0  0  0  0  0  0  0  0  0  0  0  0
  193.3470  174.6110  143.2550 C   0  0  1  0  0  3  0  0  0  0  0  0
  187.4050  178.0930  141.7740 O   0  0  0  0  0  1  0  0  0  0  0  0
  190.8010  174.0440  141.1610 C   0  0  2  0  0  3  0  0  0  0  0  0
  194.2220  176.8880  145.8200 O   0  0  0  0  0  1  0  0  0  0  0  0
  187.4080  177.1290  144.0060 C   0  0  1  0  0  3  0  0  0  0  0  0
  193.5950  174.5550  145.5050 C   0  0  1  0  0  3  0  0  0  0  0  0
  190.1570  178.3940  141.7300 C   0  0  0  0  0  1  0  0  0  0  0  0
  192.3450  174.9380  146.2530 C   0  0  0  0  0  0  0  0  0  0  0  0
  194.2080  173.9990  142.1620 C   0  0  0  0  0  2  0  0  0  0  0  0
  193.9030  172.6370  141.9640 O   0  0  0  0  0  0  0  0  0  0  0  0
  188.9830  176.4430  145.6630 O   0  0  0  0  0  0  0  0  0  0  0  0
  193.2880  173.7620  144.3800 O   0  0  0  0  0  0  0  0  0  0  0  0
  189.8590  174.4200  142.3060 C   0  0  2  0  0  3  0  0  0  0  0  0
  193.9350  175.9590  143.6370 C   0  0  0  0  0  2  0  0  0  0  0  0
  188.5480  176.1650  144.3300 C   0  0  2  0  0  3  0  0  0  0  0  0
  191.2180  175.2910  148.3680 C   0  0  0  0  0  3  0  0  0  0  0  0
  191.4950  172.7030  141.4550 C   0  0  1  0  0  3  0  0  0  0  0  0
  192.3390  174.8740  147.6500 C   0  0  0  0  0  3  0  0  0  0  0  0
  191.7110  175.0660  140.9460 F   0  0  0  0  0  0  0  0  0  0  0  0
  190.1020  175.7960  147.6940 C   0  0  0  0  0  3  0  0  0  0  0  0
  190.6980  171.6300  141.0630 O   0  0  0  0  0  1  0  0  0  0  0  0
  187.9680  178.1960  143.0510 C   0  0  1  0  0  3  0  0  0  0  0  0
  192.9310  172.5120  140.9450 C   0  0  1  0  0  3  0  0  0  0  0  0
  190.0960  175.8790  146.2990 C   0  0  0  0  0  0  0  0  0  0  0  0
  195.5100  172.1660  138.2710 C   0  0  2  0  0  3  0  0  0  0  0  0
  195.7430  172.5960  136.8110 C   0  0  0  0  0  2  0  0  0  0  0  0
  196.9030  174.0370  138.2120 N   0  0  0  0  0  0  0  0  0  0  0  0
  196.7330  173.6920  136.9830 C   0  0  0  0  0  0  0  0  0  0  0  0
  195.3490  173.8940  140.0820 C   0  0  0  0  0  2  0  0  0  0  0  0
  194.0790  174.1930  139.5560 O   0  0  0  0  0  0  0  0  0  0  0  0
  194.0290  171.8670  138.6690 C   0  0  1  0  0  3  0  0  0  0  0  0
  193.3370  172.9860  139.5160 C   0  0  1  0  0  3  0  0  0  0  0  0
  196.1190  173.2440  139.0440 N   0  0  0  0  0  0  0  0  0  0  0  0
  189.3880  170.3240  138.4070 C   0  0  0  0  0  2  0  0  0  0  0  0
  193.1570  171.3430  137.5090 C   0  0  2  0  0  3  0  0  0  0  0  0
  190.3580  171.7300  135.4020 C   0  0  0  0  0  1  0  0  0  0  0  0
  190.8160  171.4490  136.8160 C   0  0  1  0  0  0  0  0  0  0  0  0
  192.0300  172.2960  137.1650 C   0  0  0  0  0  2  0  0  0  0  0  0
  192.4590  170.0410  137.8600 C   0  0  0  0  0  2  0  0  0  0  0  0
  189.6840  171.6800  137.8000 C   0  0  0  0  0  2  0  0  0  0  0  0
  190.4410  168.2000  138.4410 C   0  0  0  0  0  1  0  0  0  0  0  0
  190.0570  169.3240  137.5920 N   0  0  0  0  0  0  0  0  0  0  0  0
  191.2100  170.0000  136.9820 C   0  0  1  0  0  3  0  0  0  0  0  0
  197.3730  174.3260  135.9100 O   0  0  0  0  0  0  0  0  0  0  0  0
  196.8790  175.5240  135.3120 C   0  0  0  0  0  0  0  0  0  0  0  0
  197.8650  176.0860  134.5130 F   0  0  0  0  0  0  0  0  0  0  0  0
  196.4920  176.4340  136.2880 F   0  0  0  0  0  0  0  0  0  0  0  0
  195.7850  175.2110  134.5270 F   0  0  0  0  0  0  0  0  0  0  0  0
  195.8930  175.3510  145.0490 C   0  0  0  0  0  2  0  0  0  0  0  0
  196.1100  174.2440  145.8740 O   0  0  0  0  0  1  0  0  0  0  0  0
  186.1840  176.3890  143.4710 C   0  0  0  0  0  2  0  0  0  0  0  0
  184.9290  176.8060  144.2210 C   0  0  0  0  0  2  0  0  0  0  0  0
  185.2330  176.9190  145.7040 C   0  0  0  0  0  2  0  0  0  0  0  0
  184.6730  178.1950  146.2520 C   0  0  0  0  0  0  0  0  0  0  0  0
  183.7010  178.8920  145.5580 O   0  0  0  0  0  0  0  0  0  0  0  0
  185.0950  178.6550  147.3490 O   0  0  0  0  0  1  0  0  0  0  0  0
  1 13  1  6  0  0  0
  1 28  1  0  0  0  0
  1  4  1  0  0  0  0
  3 14  2  0  0  0  0
  3 30  1  0  0  0  0
  4  6  1  6  0  0  0
  4 21  1  0  0  0  0
  5 55  1  0  0  0  0
  5 12  1  0  0  0  0
  5 10  1  1  0  0  0
  6 19  1  0  0  0  0
  7 15  1  6  0  0  0
  7 20  1  0  0  0  0
  7 18  1  0  0  0  0
  9 25  1  1  0  0  0
  9 23  1  0  0  0  0
  9 19  1  0  0  0  0
 11 57  1  6  0  0  0
 11 21  1  0  0  0  0
 12 18  1  6  0  0  0
 12 14  1  0  0  0  0
 14 24  1  0  0  0  0
 16 15  1  0  0  0  0
 17 30  1  0  0  0  0
 19  2  1  6  0  0  0
 20  5  1  0  0  0  0
 21 17  1  1  0  0  0
 23 27  1  6  0  0  0
 24 22  2  0  0  0  0
 26 22  1  0  0  0  0
 28  8  1  6  0  0  0
 28 11  1  0  0  0  0
 29 23  1  0  0  0  0
 29 16  1  1  0  0  0
 30 26  2  0  0  0  0
 31 32  1  6  0  0  0
 31 37  1  0  0  0  0
 31 39  1  0  0  0  0
 32 34  1  0  0  0  0
 33 39  1  0  0  0  0
 34 33  2  0  0  0  0
 36 35  1  0  0  0  0
 37 41  1  6  0  0  0
 37 38  1  0  0  0  0
 38 36  1  1  0  0  0
 38 29  1  0  0  0  0
 39 35  1  0  0  0  0
 41 44  1  1  0  0  0
 41 45  1  0  0  0  0
 43 42  1  6  0  0  0
 43 49  1  0  0  0  0
 43 44  1  0  0  0  0
 43 46  1  0  0  0  0
 46 40  1  0  0  0  0
 48 40  1  0  0  0  0
 48 47  1  0  0  0  0
 49 48  1  0  0  0  0
 49 45  1  1  0  0  0
 50 34  1  0  0  0  0
 51 50  1  0  0  0  0
 51 53  1  0  0  0  0
 52 51  1  0  0  0  0
 54 51  1  0  0  0  0
 55 56  1  0  0  0  0
 57 58  1  0  0  0  0
 58 59  1  0  0  0  0
 59 60  1  0  0  0  0
 60 62  1  0  0  0  0
 61 60  2  0  0  0  0
M  END
>  <MODEL>
6

>  <REMARK>
 VINA RESULT:      -5.6      3.676     10.356
  Name = 
  9 active torsions:
  status: ('A' for Active; 'I' for Inactive)
    1  A    between atoms: C_7  and  C_43
    2  A    between atoms: C_8  and  C_36
    3  A    between atoms: C_8  and  C_44
    4  A    between atoms: C_9  and  C_17
    5  A    between atoms: C_20  and  O_31
    6  A    between atoms: C_23  and  C_61
    7  A    between atoms: C_29  and  O_31
    8  A    between atoms: C_44  and  C_61
    9  A    between atoms: C_53  and  C_59
                            x       y       z     vdW  Elec       q    Type
                         _______ _______ _______ _____ _____    ______ ____

>  <TORSDO>
F 9

$$$$
=
 OpenBabel11062423003D

 62 69  0  0  1  0  0  0  0  0999 V2000
  187.7080  178.4880  142.3080 C   0  0  1  0  0  3  0  0  0  0  0  0
  186.8840  173.9850  141.9080 C   0  0  0  0  0  1  0  0  0  0  0  0
  187.3270  176.4500  145.7090 C   0  0  0  0  0  3  0  0  0  0  0  0
  187.4930  177.0720  142.8130 C   0  0  2  0  0  3  0  0  0  0  0  0
  190.2690  176.5570  147.1190 C   0  0  1  0  0  0  0  0  0  0  0  0
  187.8480  176.1530  141.8040 O   0  0  0  0  0  0  0  0  0  0  0  0
  190.2830  175.1610  145.2090 C   0  0  1  0  0  3  0  0  0  0  0  0
  186.7710  178.4920  140.0900 O   0  0  0  0  0  1  0  0  0  0  0  0
  189.3570  174.3040  142.1100 C   0  0  2  0  0  3  0  0  0  0  0  0
  189.8030  177.8300  147.4840 O   0  0  0  0  0  1  0  0  0  0  0  0
  185.3680  177.9380  141.9960 C   0  0  1  0  0  3  0  0  0  0  0  0
  189.1820  175.4970  147.1590 C   0  0  1  0  0  3  0  0  0  0  0  0
  189.0600  178.7030  141.6350 C   0  0  0  0  0  1  0  0  0  0  0  0
  187.7900  176.0410  146.9730 C   0  0  0  0  0  0  0  0  0  0  0  0
  191.5300  174.3410  144.9200 C   0  0  0  0  0  2  0  0  0  0  0  0
  191.2250  172.9760  144.7550 O   0  0  0  0  0  0  0  0  0  0  0  0
  185.6020  177.5120  144.3330 O   0  0  0  0  0  0  0  0  0  0  0  0
  189.4800  174.5260  146.1800 O   0  0  0  0  0  0  0  0  0  0  0  0
  187.9850  174.9030  142.4230 C   0  0  2  0  0  3  0  0  0  0  0  0
  190.7080  176.5380  145.6880 C   0  0  0  0  0  2  0  0  0  0  0  0
  185.9820  177.0150  143.0470 C   0  0  2  0  0  3  0  0  0  0  0  0
  185.7070  176.7930  147.9550 C   0  0  0  0  0  3  0  0  0  0  0  0
  189.5790  173.0180  142.9230 C   0  0  1  0  0  3  0  0  0  0  0  0
  186.9740  176.2250  148.0930 C   0  0  0  0  0  3  0  0  0  0  0  0
  190.3460  175.2470  142.3440 F   0  0  0  0  0  0  0  0  0  0  0  0
  185.2570  177.2020  146.6960 C   0  0  0  0  0  3  0  0  0  0  0  0
  189.0250  171.9150  142.2780 O   0  0  0  0  0  1  0  0  0  0  0  0
  186.5050  178.8040  141.4280 C   0  0  1  0  0  3  0  0  0  0  0  0
  191.0100  172.6990  143.3840 C   0  0  1  0  0  3  0  0  0  0  0  0
  186.0650  177.0380  145.5670 C   0  0  0  0  0  0  0  0  0  0  0  0
  192.9690  171.1220  140.6290 C   0  0  2  0  0  3  0  0  0  0  0  0
  194.0930  171.4820  139.6400 C   0  0  0  0  0  2  0  0  0  0  0  0
  195.0060  170.3030  141.4190 N   0  0  0  0  0  0  0  0  0  0  0  0
  195.2540  170.7760  140.2480 C   0  0  0  0  0  0  0  0  0  0  0  0
  193.4230  171.0880  143.0950 C   0  0  0  0  0  2  0  0  0  0  0  0
  193.4380  172.4920  143.0170 O   0  0  0  0  0  0  0  0  0  0  0  0
  191.9890  172.2790  141.0050 C   0  0  1  0  0  3  0  0  0  0  0  0
  192.2190  172.9020  142.4210 C   0  0  1  0  0  3  0  0  0  0  0  0
  193.6860  170.5660  141.7720 N   0  0  0  0  0  0  0  0  0  0  0  0
  193.7240  172.6660  136.4410 C   0  0  0  0  0  2  0  0  0  0  0  0
  191.7990  173.3300  139.8910 C   0  0  2  0  0  3  0  0  0  0  0  0
  190.6190  174.1660  136.6760 C   0  0  0  0  0  1  0  0  0  0  0  0
  191.6470  173.3730  137.4520 C   0  0  1  0  0  0  0  0  0  0  0  0
  191.0290  172.7770  138.7080 C   0  0  0  0  0  2  0  0  0  0  0  0
  193.1220  173.7870  139.3030 C   0  0  0  0  0  2  0  0  0  0  0  0
  192.2610  172.2960  136.5780 C   0  0  0  0  0  2  0  0  0  0  0  0
  195.2060  174.1910  137.4890 C   0  0  0  0  0  1  0  0  0  0  0  0
  193.8750  174.0340  136.9100 N   0  0  0  0  0  0  0  0  0  0  0  0
  192.7980  174.2510  137.8840 C   0  0  1  0  0  3  0  0  0  0  0  0
  196.5080  170.6870  139.6300 O   0  0  0  0  0  0  0  0  0  0  0  0
  196.7830  169.7850  138.5590 C   0  0  0  0  0  0  0  0  0  0  0  0
  195.7130  168.9180  138.3950 F   0  0  0  0  0  0  0  0  0  0  0  0
  197.9400  169.0600  138.8160 F   0  0  0  0  0  0  0  0  0  0  0  0
  196.9560  170.5140  137.3970 F   0  0  0  0  0  0  0  0  0  0  0  0
  191.4030  176.1340  148.0450 C   0  0  0  0  0  2  0  0  0  0  0  0
  192.4830  177.0150  147.9490 O   0  0  0  0  0  1  0  0  0  0  0  0
  184.5930  177.1500  140.9420 C   0  0  0  0  0  2  0  0  0  0  0  0
  183.3600  177.9160  140.4930 C   0  0  0  0  0  2  0  0  0  0  0  0
  182.5220  178.2910  141.7020 C   0  0  0  0  0  2  0  0  0  0  0  0
  181.1200  178.6070  141.2830 C   0  0  0  0  0  0  0  0  0  0  0  0
  180.8500  179.7250  140.5150 O   0  0  0  0  0  0  0  0  0  0  0  0
  180.1650  177.8610  141.6390 O   0  0  0  0  0  1  0  0  0  0  0  0
  1 13  1  6  0  0  0
  1  4  1  0  0  0  0
  3 14  1  0  0  0  0
  4  6  1  6  0  0  0
  4 21  1  0  0  0  0
  5 12  1  0  0  0  0
  5 10  1  1  0  0  0
  5 55  1  0  0  0  0
  6 19  1  0  0  0  0
  7 15  1  1  0  0  0
  7 20  1  0  0  0  0
  7 18  1  0  0  0  0
  9 25  1  1  0  0  0
  9 19  1  0  0  0  0
  9 23  1  0  0  0  0
 11 57  1  6  0  0  0
 11 21  1  0  0  0  0
 12 18  1  6  0  0  0
 14 12  1  0  0  0  0
 14 24  2  0  0  0  0
 16 15  1  0  0  0  0
 17 30  1  0  0  0  0
 19  2  1  6  0  0  0
 20  5  1  0  0  0  0
 21 17  1  1  0  0  0
 22 24  1  0  0  0  0
 23 27  1  6  0  0  0
 23 29  1  0  0  0  0
 26 22  2  0  0  0  0
 28  8  1  6  0  0  0
 28 11  1  0  0  0  0
 28  1  1  0  0  0  0
 29 16  1  1  0  0  0
 30  3  2  0  0  0  0
 30 26  1  0  0  0  0
 31 32  1  6  0  0  0
 31 37  1  0  0  0  0
 31 39  1  0  0  0  0
 32 34  1  0  0  0  0
 33 39  1  0  0  0  0
 34 33  2  0  0  0  0
 36 35  1  0  0  0  0
 37 41  1  6  0  0  0
 37 38  1  0  0  0  0
 38 36  1  1  0  0  0
 38 29  1  0  0  0  0
 39 35  1  0  0  0  0
 40 46  1  0  0  0  0
 40 48  1  0  0  0  0
 41 44  1  6  0  0  0
 43 42  1  6  0  0  0
 43 49  1  0  0  0  0
 43 44  1  0  0  0  0
 45 41  1  0  0  0  0
 46 43  1  0  0  0  0
 48 47  1  0  0  0  0
 48 49  1  0  0  0  0
 49 45  1  1  0  0  0
 50 34  1  0  0  0  0
 51 53  1  0  0  0  0
 51 50  1  0  0  0  0
 52 51  1  0  0  0  0
 54 51  1  0  0  0  0
 56 55  1  0  0  0  0
 58 57  1  0  0  0  0
 58 59  1  0  0  0  0
 60 62  1  0  0  0  0
 60 59  1  0  0  0  0
 61 60  2  0  0  0  0
M  END
>  <MODEL>
7

>  <REMARK>
 VINA RESULT:      -5.5      3.624     11.247
  Name = 
  9 active torsions:
  status: ('A' for Active; 'I' for Inactive)
    1  A    between atoms: C_7  and  C_43
    2  A    between atoms: C_8  and  C_36
    3  A    between atoms: C_8  and  C_44
    4  A    between atoms: C_9  and  C_17
    5  A    between atoms: C_20  and  O_31
    6  A    between atoms: C_23  and  C_61
    7  A    between atoms: C_29  and  O_31
    8  A    between atoms: C_44  and  C_61
    9  A    between atoms: C_53  and  C_59
                            x       y       z     vdW  Elec       q    Type
                         _______ _______ _______ _____ _____    ______ ____

>  <TORSDO>
F 9

$$$$
