=
 OpenBabel11062422373D

 67 71  0  0  1  0  0  0  0  0999 V2000
  191.6240  173.3370  142.4900 C   0  0  0  0  0  3  0  0  0  0  0  0
  190.4590  173.5280  141.8290 C   0  0  0  0  0  0  0  0  0  0  0  0
  192.8220  172.9950  140.3930 N   0  0  0  0  0  0  0  0  0  0  0  0
  190.8350  173.8790  137.1630 C   0  0  0  0  0  3  0  0  0  0  0  0
  189.1550  173.7540  139.7210 C   0  0  0  0  0  3  0  0  0  0  0  0
  194.1100  172.8110  138.4200 N   0  0  0  0  0  0  0  0  0  0  0  0
  193.9690  172.7560  139.8440 C   0  0  0  0  0  3  0  0  0  0  0  0
  192.9940  173.1910  137.6510 N   0  0  0  0  0  0  0  0  0  0  0  0
  188.7580  173.9850  138.4790 C   0  0  0  0  0  3  0  0  0  0  0  0
  189.5740  174.1030  137.3210 N   0  0  0  0  0  0  0  0  0  0  0  0
  191.6450  173.3410  139.6380 C   0  0  0  0  0  0  0  0  0  0  0  0
  191.8170  173.4280  138.1520 C   0  0  0  0  0  0  0  0  0  0  0  0
  190.4860  173.5400  140.3250 C   0  0  0  0  0  0  0  0  0  0  0  0
  195.4570  172.8480  137.8230 C   0  0  2  0  0  0  0  0  0  0  0  0
  196.2960  172.0550  138.6040 O   0  0  0  0  0  1  0  0  0  0  0  0
  196.0340  174.2850  137.8280 C   0  0  1  0  0  3  0  0  0  0  0  0
  195.1490  175.2070  137.2540 O   0  0  0  0  0  1  0  0  0  0  0  0
  197.9300  175.4360  138.9620 C   0  0  0  0  0  1  0  0  0  0  0  0
  195.6540  175.7350  139.8890 C   0  0  0  0  0  1  0  0  0  0  0  0
  196.5870  174.7710  139.1750 C   0  0  0  0  0  3  0  0  0  0  0  0
  195.8910  170.9290  136.4000 O   0  0  0  0  0  1  0  0  0  0  0  0
  195.4530  172.2540  136.4070 C   0  0  0  0  0  2  0  0  0  0  0  0
  191.8040  173.1430  143.8690 O   0  0  0  0  0  0  0  0  0  0  0  0
  192.1530  171.9050  144.4800 C   0  0  0  0  0  2  0  0  0  0  0  0
  193.1500  171.1470  143.6180 C   0  0  2  0  0  3  0  0  0  0  0  0
  192.4800  169.9350  142.9800 C   0  0  0  0  0  2  0  0  0  0  0  0
  191.6090  170.3240  141.9550 O   0  0  0  0  0  0  0  0  0  0  0  0
  191.3090  169.1400  141.2810 C   0  0  0  0  0  2  0  0  0  0  0  0
  192.5340  169.5410  139.0460 C   0  0  0  0  0  1  0  0  0  0  0  0
  190.1930  169.4900  139.2340 O   0  0  0  0  0  0  0  0  0  0  0  0
  191.2660  169.3920  139.8110 C   0  0  0  0  0  0  0  0  0  0  0  0
  194.3300  170.7010  144.4660 C   0  0  0  0  0  2  0  0  0  0  0  0
  195.9980  171.8690  145.7040 O   0  0  0  0  0  0  0  0  0  0  0  0
  195.3100  171.8060  144.6520 C   0  0  0  0  0  0  0  0  0  0  0  0
  195.4280  172.8190  143.6560 N   0  0  0  0  0  2  0  0  0  0  0  0
  196.1590  173.9860  143.9080 N   0  0  0  0  0  2  0  0  0  0  0  0
  195.5130  175.2480  144.0640 C   0  0  0  0  0  0  0  0  0  0  0  0
  196.2610  176.5950  143.4970 S   0  0  0  0  0  0  0  0  0  0  0  0
  194.2040  175.3130  144.6440 N   0  0  0  0  0  2  0  0  0  0  0  0
  193.5010  176.5630  144.8710 C   0  0  0  0  0  2  0  0  0  0  0  0
  192.1420  176.9900  142.8610 C   0  0  0  0  0  2  0  0  0  0  0  0
  192.1070  176.4710  144.2850 C   0  0  0  0  0  3  0  0  0  0  0  0
  191.6080  177.8690  143.9700 C   0  0  0  0  0  2  0  0  0  0  0  0
  189.1370  173.5950  142.5480 C   0  0  0  0  0  2  0  0  0  0  0  0
  188.9350  174.9430  143.2400 C   0  0  0  0  0  2  0  0  0  0  0  0
  187.9950  175.8930  142.4970 C   0  0  2  0  0  3  0  0  0  0  0  0
  187.0010  178.6600  141.9910 C   0  0  0  0  0  2  0  0  0  0  0  0
  185.6570  177.9540  142.2200 C   0  0  1  0  0  3  0  0  0  0  0  0
  187.8310  177.8990  141.1530 O   0  0  0  0  0  0  0  0  0  0  0  0
  188.6810  177.1840  142.0120 C   0  0  0  0  0  2  0  0  0  0  0  0
  185.8340  176.4420  142.4190 C   0  0  0  0  0  2  0  0  0  0  0  0
  186.8880  176.1850  143.3070 O   0  0  0  0  0  0  0  0  0  0  0  0
  184.9700  178.5800  143.4290 C   0  0  0  0  0  2  0  0  0  0  0  0
  185.9070  179.5090  144.1910 C   0  0  0  0  0  2  0  0  0  0  0  0
  186.0710  179.0910  145.6200 C   0  0  0  0  0  0  0  0  0  0  0  0
  186.1070  179.9400  146.4980 O   0  0  0  0  0  0  0  0  0  0  0  0
  186.1440  177.6340  146.0030 C   0  0  1  0  0  3  0  0  0  0  0  0
  190.2990  174.8710  146.9820 S   0  0  0  0  0  0  0  0  0  0  0  0
  187.8760  175.9850  146.5610 N   0  0  0  0  0  0  0  0  0  0  0  0
  189.6210  177.4800  147.0080 N   0  0  0  0  0  0  0  0  0  0  0  0
  187.5090  177.2250  146.4870 C   0  0  0  0  0  0  0  0  0  0  0  0
  188.5740  178.1470  146.7440 N   0  0  0  0  0  0  0  0  0  0  0  0
  189.2400  176.1180  146.9330 C   0  0  0  0  0  0  0  0  0  0  0  0
  185.3990  177.3500  148.2530 F   0  0  0  0  0  0  0  0  0  0  0  0
  185.0030  177.2040  146.9350 C   0  0  0  0  0  0  0  0  0  0  0  0
  183.8630  177.9780  146.7100 O   0  0  0  0  0  1  0  0  0  0  0  0
  184.6980  175.8740  146.7100 F   0  0  0  0  0  0  0  0  0  0  0  0
  1 23  1  0  0  0  0
  2  1  2  0  0  0  0
  2 44  1  0  0  0  0
  4 10  2  0  0  0  0
  4 12  1  0  0  0  0
  5 13  1  0  0  0  0
  6  7  1  0  0  0  0
  7  3  2  0  0  0  0
  8 12  2  0  0  0  0
  8  6  1  0  0  0  0
  9  5  2  0  0  0  0
 10  9  1  0  0  0  0
 11 13  2  0  0  0  0
 11  3  1  0  0  0  0
 12 11  1  0  0  0  0
 13  2  1  0  0  0  0
 14 16  1  0  0  0  0
 14  6  1  0  0  0  0
 14 15  1  1  0  0  0
 16 17  1  1  0  0  0
 16 20  1  0  0  0  0
 18 20  1  0  0  0  0
 20 19  1  0  0  0  0
 21 22  1  0  0  0  0
 22 14  1  0  0  0  0
 23 24  1  0  0  0  0
 25 26  1  1  0  0  0
 25 32  1  0  0  0  0
 25 24  1  0  0  0  0
 27 26  1  0  0  0  0
 28 27  1  0  0  0  0
 29 31  1  0  0  0  0
 30 31  2  0  0  0  0
 31 28  1  0  0  0  0
 32 34  1  0  0  0  0
 34 33  2  0  0  0  0
 35 36  1  0  0  0  0
 35 34  1  0  0  0  0
 36 37  1  0  0  0  0
 37 39  1  0  0  0  0
 38 37  2  0  0  0  0
 39 40  1  0  0  0  0
 41 43  1  0  0  0  0
 41 42  1  0  0  0  0
 42 40  1  0  0  0  0
 43 42  1  0  0  0  0
 44 45  1  0  0  0  0
 46 45  1  1  0  0  0
 46 52  1  0  0  0  0
 47 48  1  0  0  0  0
 48 51  1  0  0  0  0
 48 53  1  1  0  0  0
 49 47  1  0  0  0  0
 49 50  1  0  0  0  0
 50 46  1  0  0  0  0
 51 52  1  0  0  0  0
 53 54  1  0  0  0  0
 54 55  1  0  0  0  0
 55 56  2  0  0  0  0
 57 55  1  1  0  0  0
 57 61  1  0  0  0  0
 57 65  1  0  0  0  0
 59 63  1  0  0  0  0
 61 59  2  0  0  0  0
 61 62  1  0  0  0  0
 62 60  2  0  0  0  0
 63 58  2  0  0  0  0
 63 60  1  0  0  0  0
 65 64  1  0  0  0  0
 66 65  1  0  0  0  0
 67 65  1  0  0  0  0
M  END
>  <MODEL>
1

>  <REMARK>
 VINA RESULT:      -5.4      0.000      0.000
  Name = 
  28 active torsions:
  status: ('A' for Active; 'I' for Inactive)
    1  A    between atoms: C_1  and  C_46
    2  A    between atoms: C_3  and  N_42
    3  A    between atoms: C_3  and  N_50
    4  A    between atoms: C_6  and  C_45
    5  A    between atoms: C_8  and  C_45
    6  A    between atoms: C_8  and  C_64
    7  A    between atoms: C_8  and  C_65
    8  A    between atoms: C_12  and  C_62
    9  A    between atoms: C_13  and  C_48
   10  A    between atoms: C_14  and  O_52
   11  A    between atoms: C_16  and  C_51
   12  A    between atoms: N_17  and  C_62
   13  A    between atoms: C_21  and  C_63
   14  A    between atoms: C_22  and  C_54
   15  A    between atoms: C_22  and  C_62
   16  A    between atoms: C_26  and  C_46
   17  A    between atoms: C_26  and  C_57
   18  A    between atoms: C_30  and  C_51
   19  A    between atoms: C_30  and  C_61
   20  A    between atoms: C_34  and  O_38
   21  A    between atoms: C_34  and  C_56
   22  A    between atoms: O_38  and  C_65
   23  A    between atoms: N_42  and  N_67
   24  A    between atoms: C_47  and  C_51
   25  A    between atoms: C_48  and  N_50
   26  A    between atoms: O_52  and  C_64
   27  A    between atoms: C_57  and  C_60
   28  A    between atoms: C_61  and  C_63
                            x       y       z     vdW  Elec       q    Type
                         _______ _______ _______ _____ _____    ______ ____

>  <TORSDO>
F 28

$$$$
=
 OpenBabel11062422373D

 67 71  0  0  1  0  0  0  0  0999 V2000
  191.1410  173.2780  141.4710 C   0  0  0  0  0  3  0  0  0  0  0  0
  189.9680  173.3800  140.8070 C   0  0  0  0  0  0  0  0  0  0  0  0
  192.3420  173.0390  139.3310 N   0  0  0  0  0  0  0  0  0  0  0  0
  190.3830  174.3490  136.2320 C   0  0  0  0  0  3  0  0  0  0  0  0
  188.6820  173.8870  138.7360 C   0  0  0  0  0  3  0  0  0  0  0  0
  193.6470  173.1170  137.3630 N   0  0  0  0  0  0  0  0  0  0  0  0
  193.4930  172.8730  138.7650 C   0  0  0  0  0  3  0  0  0  0  0  0
  192.5370  173.5980  136.6410 N   0  0  0  0  0  0  0  0  0  0  0  0
  188.2950  174.2820  137.5330 C   0  0  0  0  0  3  0  0  0  0  0  0
  189.1210  174.5520  136.4080 N   0  0  0  0  0  0  0  0  0  0  0  0
  191.1720  173.4850  138.6200 C   0  0  0  0  0  0  0  0  0  0  0  0
  191.3570  173.7690  137.1600 C   0  0  0  0  0  0  0  0  0  0  0  0
  190.0070  173.5920  139.3180 C   0  0  0  0  0  0  0  0  0  0  0  0
  194.9990  173.2310  136.7870 C   0  0  2  0  0  0  0  0  0  0  0  0
  195.9050  172.7060  137.7070 O   0  0  0  0  0  1  0  0  0  0  0  0
  195.3830  174.7120  136.5470 C   0  0  1  0  0  3  0  0  0  0  0  0
  195.4100  175.4460  137.7400 O   0  0  0  0  0  1  0  0  0  0  0  0
  196.6240  176.3470  135.1350 C   0  0  0  0  0  1  0  0  0  0  0  0
  197.9300  174.7180  136.4660 C   0  0  0  0  0  1  0  0  0  0  0  0
  196.6390  174.9400  135.6950 C   0  0  0  0  0  3  0  0  0  0  0  0
  195.4980  171.0870  135.7620 O   0  0  0  0  0  1  0  0  0  0  0  0
  195.1250  172.4050  135.4980 C   0  0  0  0  0  2  0  0  0  0  0  0
  191.3340  172.9340  142.8190 O   0  0  0  0  0  0  0  0  0  0  0  0
  191.6510  171.6290  143.2900 C   0  0  0  0  0  2  0  0  0  0  0  0
  192.7880  171.0280  142.4780 C   0  0  2  0  0  3  0  0  0  0  0  0
  192.3380  169.7260  141.8250 C   0  0  0  0  0  2  0  0  0  0  0  0
  192.2220  169.8720  140.4380 O   0  0  0  0  0  0  0  0  0  0  0  0
  190.8520  169.8050  140.1910 C   0  0  0  0  0  2  0  0  0  0  0  0
  191.7020  169.7400  137.7550 C   0  0  0  0  0  1  0  0  0  0  0  0
  189.4810  170.2510  138.3250 O   0  0  0  0  0  0  0  0  0  0  0  0
  190.5940  169.9490  138.7270 C   0  0  0  0  0  0  0  0  0  0  0  0
  193.9850  170.7720  143.3790 C   0  0  0  0  0  2  0  0  0  0  0  0
  195.8970  172.0530  142.7630 O   0  0  0  0  0  0  0  0  0  0  0  0
  194.8590  171.9730  143.4700 C   0  0  0  0  0  0  0  0  0  0  0  0
  194.5420  173.0090  144.3980 N   0  0  0  0  0  2  0  0  0  0  0  0
  195.4630  174.0260  144.6740 N   0  0  0  0  0  2  0  0  0  0  0  0
  195.2340  175.3690  144.2530 C   0  0  0  0  0  0  0  0  0  0  0  0
  194.6730  176.4570  145.3470 S   0  0  0  0  0  0  0  0  0  0  0  0
  195.5580  175.7630  142.9130 N   0  0  0  0  0  2  0  0  0  0  0  0
  196.8590  175.5250  142.3120 C   0  0  0  0  0  2  0  0  0  0  0  0
  197.7020  174.1280  140.4680 C   0  0  0  0  0  2  0  0  0  0  0  0
  196.6800  175.1810  140.8470 C   0  0  0  0  0  3  0  0  0  0  0  0
  197.9350  175.5730  140.0900 C   0  0  0  0  0  2  0  0  0  0  0  0
  188.6430  173.1580  141.4890 C   0  0  0  0  0  2  0  0  0  0  0  0
  188.3750  174.2110  142.5650 C   0  0  0  0  0  2  0  0  0  0  0  0
  188.0130  175.5900  142.0130 C   0  0  2  0  0  3  0  0  0  0  0  0
  187.8050  178.5430  142.3900 C   0  0  0  0  0  2  0  0  0  0  0  0
  186.3940  178.2640  141.8540 C   0  0  1  0  0  3  0  0  0  0  0  0
  188.7730  177.8570  141.6390 O   0  0  0  0  0  0  0  0  0  0  0  0
  189.0450  176.6810  142.3550 C   0  0  0  0  0  2  0  0  0  0  0  0
  186.2150  176.7900  141.4610 C   0  0  0  0  0  2  0  0  0  0  0  0
  186.7320  175.9510  142.4580 O   0  0  0  0  0  0  0  0  0  0  0  0
  185.3740  178.6670  142.9130 C   0  0  0  0  0  2  0  0  0  0  0  0
  185.9500  179.6830  143.8910 C   0  0  0  0  0  2  0  0  0  0  0  0
  186.0110  179.1450  145.2880 C   0  0  0  0  0  0  0  0  0  0  0  0
  186.0550  179.9180  146.2330 O   0  0  0  0  0  0  0  0  0  0  0  0
  185.9680  177.6610  145.5550 C   0  0  1  0  0  3  0  0  0  0  0  0
  190.9010  177.0820  146.6440 S   0  0  0  0  0  0  0  0  0  0  0  0
  188.3930  177.7770  145.9260 N   0  0  0  0  0  0  0  0  0  0  0  0
  188.8140  175.4780  146.0660 N   0  0  0  0  0  0  0  0  0  0  0  0
  187.3370  177.0570  145.7130 C   0  0  0  0  0  0  0  0  0  0  0  0
  187.5820  175.6500  145.8120 N   0  0  0  0  0  0  0  0  0  0  0  0
  189.3790  176.7750  146.1270 C   0  0  0  0  0  0  0  0  0  0  0  0
  185.6130  177.4370  147.9040 F   0  0  0  0  0  0  0  0  0  0  0  0
  184.9920  177.2830  146.6780 C   0  0  0  0  0  0  0  0  0  0  0  0
  183.8540  178.0910  146.6350 O   0  0  0  0  0  1  0  0  0  0  0  0
  184.6130  175.9610  146.5360 F   0  0  0  0  0  0  0  0  0  0  0  0
  1 23  1  0  0  0  0
  2  1  2  0  0  0  0
  2 44  1  0  0  0  0
  4 10  2  0  0  0  0
  4 12  1  0  0  0  0
  5 13  1  0  0  0  0
  6  7  1  0  0  0  0
  7  3  2  0  0  0  0
  8 12  2  0  0  0  0
  8  6  1  0  0  0  0
  9  5  2  0  0  0  0
 10  9  1  0  0  0  0
 11 13  2  0  0  0  0
 11  3  1  0  0  0  0
 12 11  1  0  0  0  0
 13  2  1  0  0  0  0
 14  6  1  0  0  0  0
 14 15  1  1  0  0  0
 16 14  1  0  0  0  0
 16 17  1  1  0  0  0
 18 20  1  0  0  0  0
 20 19  1  0  0  0  0
 20 16  1  0  0  0  0
 22 21  1  0  0  0  0
 22 14  1  0  0  0  0
 23 24  1  0  0  0  0
 25 26  1  1  0  0  0
 25 24  1  0  0  0  0
 25 32  1  0  0  0  0
 27 26  1  0  0  0  0
 28 27  1  0  0  0  0
 29 31  1  0  0  0  0
 30 31  2  0  0  0  0
 31 28  1  0  0  0  0
 32 34  1  0  0  0  0
 33 34  2  0  0  0  0
 34 35  1  0  0  0  0
 35 36  1  0  0  0  0
 37 36  1  0  0  0  0
 37 38  2  0  0  0  0
 39 37  1  0  0  0  0
 40 39  1  0  0  0  0
 41 42  1  0  0  0  0
 42 40  1  0  0  0  0
 43 41  1  0  0  0  0
 43 42  1  0  0  0  0
 44 45  1  0  0  0  0
 46 50  1  0  0  0  0
 46 52  1  0  0  0  0
 46 45  1  1  0  0  0
 48 47  1  0  0  0  0
 48 53  1  1  0  0  0
 49 50  1  0  0  0  0
 49 47  1  0  0  0  0
 51 48  1  0  0  0  0
 51 52  1  0  0  0  0
 53 54  1  0  0  0  0
 54 55  1  0  0  0  0
 55 56  2  0  0  0  0
 57 55  1  1  0  0  0
 57 61  1  0  0  0  0
 57 65  1  0  0  0  0
 59 63  1  0  0  0  0
 60 63  1  0  0  0  0
 61 62  1  0  0  0  0
 61 59  2  0  0  0  0
 62 60  2  0  0  0  0
 63 58  2  0  0  0  0
 65 64  1  0  0  0  0
 66 65  1  0  0  0  0
 67 65  1  0  0  0  0
M  END
>  <MODEL>
2

>  <REMARK>
 VINA RESULT:      -5.3      1.338      2.137
  Name = 
  28 active torsions:
  status: ('A' for Active; 'I' for Inactive)
    1  A    between atoms: C_1  and  C_46
    2  A    between atoms: C_3  and  N_42
    3  A    between atoms: C_3  and  N_50
    4  A    between atoms: C_6  and  C_45
    5  A    between atoms: C_8  and  C_45
    6  A    between atoms: C_8  and  C_64
    7  A    between atoms: C_8  and  C_65
    8  A    between atoms: C_12  and  C_62
    9  A    between atoms: C_13  and  C_48
   10  A    between atoms: C_14  and  O_52
   11  A    between atoms: C_16  and  C_51
   12  A    between atoms: N_17  and  C_62
   13  A    between atoms: C_21  and  C_63
   14  A    between atoms: C_22  and  C_54
   15  A    between atoms: C_22  and  C_62
   16  A    between atoms: C_26  and  C_46
   17  A    between atoms: C_26  and  C_57
   18  A    between atoms: C_30  and  C_51
   19  A    between atoms: C_30  and  C_61
   20  A    between atoms: C_34  and  O_38
   21  A    between atoms: C_34  and  C_56
   22  A    between atoms: O_38  and  C_65
   23  A    between atoms: N_42  and  N_67
   24  A    between atoms: C_47  and  C_51
   25  A    between atoms: C_48  and  N_50
   26  A    between atoms: O_52  and  C_64
   27  A    between atoms: C_57  and  C_60
   28  A    between atoms: C_61  and  C_63
                            x       y       z     vdW  Elec       q    Type
                         _______ _______ _______ _____ _____    ______ ____

>  <TORSDO>
F 28

$$$$
=
 OpenBabel11062422373D

 67 71  0  0  1  0  0  0  0  0999 V2000
  187.1020  175.2430  142.5280 C   0  0  0  0  0  3  0  0  0  0  0  0
  188.4210  175.1910  142.8210 C   0  0  0  0  0  0  0  0  0  0  0  0
  189.2130  174.3870  140.2400 N   0  0  0  0  0  0  0  0  0  0  0  0
  190.3770  171.0370  141.8460 C   0  0  0  0  0  3  0  0  0  0  0  0
  189.4820  173.1830  143.8390 C   0  0  0  0  0  3  0  0  0  0  0  0
  190.1440  172.8750  138.6810 N   0  0  0  0  0  0  0  0  0  0  0  0
  189.5070  174.1150  139.0100 C   0  0  0  0  0  3  0  0  0  0  0  0
  190.3790  171.9480  139.7150 N   0  0  0  0  0  0  0  0  0  0  0  0
  189.9650  171.9740  144.0830 C   0  0  0  0  0  3  0  0  0  0  0  0
  190.3090  170.9750  143.1330 N   0  0  0  0  0  0  0  0  0  0  0  0
  189.4790  173.4860  141.3320 C   0  0  0  0  0  0  0  0  0  0  0  0
  190.1150  172.1800  140.9670 C   0  0  0  0  0  0  0  0  0  0  0  0
  189.1530  173.8980  142.5890 C   0  0  0  0  0  0  0  0  0  0  0  0
  190.1940  172.4330  137.2760 C   0  0  2  0  0  0  0  0  0  0  0  0
  188.8960  172.4610  136.7690 O   0  0  0  0  0  1  0  0  0  0  0  0
  190.7070  170.9760  137.1650 C   0  0  1  0  0  3  0  0  0  0  0  0
  189.8200  170.1620  136.4480 O   0  0  0  0  0  1  0  0  0  0  0  0
  193.0140  170.3100  137.8280 C   0  0  0  0  0  1  0  0  0  0  0  0
  192.2940  169.8840  135.4980 C   0  0  0  0  0  1  0  0  0  0  0  0
  192.1570  170.8190  136.6880 C   0  0  0  0  0  3  0  0  0  0  0  0
  190.6870  173.3280  135.0740 O   0  0  0  0  0  1  0  0  0  0  0  0
  191.0390  173.3890  136.4220 C   0  0  0  0  0  2  0  0  0  0  0  0
  186.2690  176.3740  142.5250 O   0  0  0  0  0  0  0  0  0  0  0  0
  186.1240  177.2770  141.4340 C   0  0  0  0  0  2  0  0  0  0  0  0
  184.9260  178.1880  141.6490 C   0  0  2  0  0  3  0  0  0  0  0  0
  184.3160  177.9390  143.0240 C   0  0  0  0  0  2  0  0  0  0  0  0
  185.1720  178.3780  144.0400 O   0  0  0  0  0  0  0  0  0  0  0  0
  184.3480  178.5250  145.1550 C   0  0  0  0  0  2  0  0  0  0  0  0
  185.0020  178.3940  147.6490 C   0  0  0  0  0  1  0  0  0  0  0  0
  185.3110  176.6150  146.1460 O   0  0  0  0  0  0  0  0  0  0  0  0
  184.9110  177.7580  146.3060 C   0  0  0  0  0  0  0  0  0  0  0  0
  183.8880  177.9370  140.5670 C   0  0  0  0  0  2  0  0  0  0  0  0
  182.3810  178.9520  142.1090 O   0  0  0  0  0  0  0  0  0  0  0  0
  182.5280  178.3410  141.0180 C   0  0  0  0  0  0  0  0  0  0  0  0
  181.3910  177.9900  140.2340 N   0  0  0  0  0  2  0  0  0  0  0  0
  180.0960  178.1450  140.7450 N   0  0  0  0  0  2  0  0  0  0  0  0
  178.9660  178.2550  139.8830 C   0  0  0  0  0  0  0  0  0  0  0  0
  178.5400  176.9600  138.9670 S   0  0  0  0  0  0  0  0  0  0  0  0
  178.1850  179.4570  139.8800 N   0  0  0  0  0  2  0  0  0  0  0  0
  178.7470  180.7660  140.1620 C   0  0  0  0  0  2  0  0  0  0  0  0
  178.9510  181.7780  137.9260 C   0  0  0  0  0  2  0  0  0  0  0  0
  178.1500  181.7850  139.2130 C   0  0  0  0  0  3  0  0  0  0  0  0
  179.1750  182.8720  138.9460 C   0  0  0  0  0  2  0  0  0  0  0  0
  189.1930  176.4150  143.2410 C   0  0  0  0  0  2  0  0  0  0  0  0
  188.9620  176.7530  144.7150 C   0  0  0  0  0  2  0  0  0  0  0  0
  189.9730  176.1170  145.6680 C   0  0  2  0  0  3  0  0  0  0  0  0
  192.3250  176.3880  147.4840 C   0  0  0  0  0  2  0  0  0  0  0  0
  192.8110  175.2100  146.6270 C   0  0  1  0  0  3  0  0  0  0  0  0
  190.9850  176.2130  147.8650 O   0  0  0  0  0  0  0  0  0  0  0  0
  190.2290  176.9490  146.9390 C   0  0  0  0  0  2  0  0  0  0  0  0
  191.7410  174.7570  145.6240 C   0  0  0  0  0  2  0  0  0  0  0  0
  191.1700  175.8650  144.9810 O   0  0  0  0  0  0  0  0  0  0  0  0
  194.0890  175.6210  145.9030 C   0  0  0  0  0  2  0  0  0  0  0  0
  194.4130  174.6750  144.7530 C   0  0  0  0  0  2  0  0  0  0  0  0
  195.4130  173.6320  145.1490 C   0  0  0  0  0  0  0  0  0  0  0  0
  196.1380  173.8250  146.1120 O   0  0  0  0  0  0  0  0  0  0  0  0
  195.5090  172.3220  144.4080 C   0  0  1  0  0  3  0  0  0  0  0  0
  196.8900  168.6230  147.6110 S   0  0  0  0  0  0  0  0  0  0  0  0
  195.9280  170.7380  146.2370 N   0  0  0  0  0  0  0  0  0  0  0  0
  197.9120  169.8050  145.4150 N   0  0  0  0  0  0  0  0  0  0  0  0
  196.3320  171.2960  145.1400 C   0  0  0  0  0  0  0  0  0  0  0  0
  197.5360  170.7220  144.6220 N   0  0  0  0  0  0  0  0  0  0  0  0
  196.9560  169.7840  146.4590 C   0  0  0  0  0  0  0  0  0  0  0  0
  193.6540  172.6180  142.9350 F   0  0  0  0  0  0  0  0  0  0  0  0
  194.1450  171.8000  143.9380 C   0  0  0  0  0  0  0  0  0  0  0  0
  194.2550  170.4960  143.4530 O   0  0  0  0  0  1  0  0  0  0  0  0
  193.2540  171.8150  144.9960 F   0  0  0  0  0  0  0  0  0  0  0  0
  1  2  2  0  0  0  0
  2 44  1  0  0  0  0
  3 11  1  0  0  0  0
  4 10  2  0  0  0  0
  5  9  2  0  0  0  0
  6  7  1  0  0  0  0
  6  8  1  0  0  0  0
  7  3  2  0  0  0  0
  8 12  2  0  0  0  0
 10  9  1  0  0  0  0
 11 13  2  0  0  0  0
 12 11  1  0  0  0  0
 12  4  1  0  0  0  0
 13  2  1  0  0  0  0
 13  5  1  0  0  0  0
 14 15  1  6  0  0  0
 14  6  1  0  0  0  0
 16 17  1  6  0  0  0
 16 14  1  0  0  0  0
 19 20  1  0  0  0  0
 20 16  1  0  0  0  0
 20 18  1  0  0  0  0
 21 22  1  0  0  0  0
 22 14  1  0  0  0  0
 23  1  1  0  0  0  0
 24 25  1  0  0  0  0
 24 23  1  0  0  0  0
 25 32  1  6  0  0  0
 25 26  1  0  0  0  0
 26 27  1  0  0  0  0
 27 28  1  0  0  0  0
 28 31  1  0  0  0  0
 30 31  2  0  0  0  0
 31 29  1  0  0  0  0
 32 34  1  0  0  0  0
 34 33  2  0  0  0  0
 35 36  1  0  0  0  0
 35 34  1  0  0  0  0
 37 36  1  0  0  0  0
 38 37  2  0  0  0  0
 39 37  1  0  0  0  0
 39 40  1  0  0  0  0
 41 43  1  0  0  0  0
 41 42  1  0  0  0  0
 42 40  1  0  0  0  0
 43 42  1  0  0  0  0
 44 45  1  0  0  0  0
 46 45  1  6  0  0  0
 46 50  1  0  0  0  0
 47 49  1  0  0  0  0
 48 53  1  6  0  0  0
 48 47  1  0  0  0  0
 50 49  1  0  0  0  0
 51 48  1  0  0  0  0
 52 51  1  0  0  0  0
 52 46  1  0  0  0  0
 54 55  1  0  0  0  0
 54 53  1  0  0  0  0
 55 56  2  0  0  0  0
 57 61  1  0  0  0  0
 57 55  1  1  0  0  0
 59 63  1  0  0  0  0
 60 63  1  0  0  0  0
 61 59  2  0  0  0  0
 62 61  1  0  0  0  0
 62 60  2  0  0  0  0
 63 58  2  0  0  0  0
 64 65  1  0  0  0  0
 65 57  1  0  0  0  0
 65 67  1  0  0  0  0
 66 65  1  0  0  0  0
M  END
>  <MODEL>
3

>  <REMARK>
 VINA RESULT:      -5.2      4.722     10.112
  Name = 
  28 active torsions:
  status: ('A' for Active; 'I' for Inactive)
    1  A    between atoms: C_1  and  C_46
    2  A    between atoms: C_3  and  N_42
    3  A    between atoms: C_3  and  N_50
    4  A    between atoms: C_6  and  C_45
    5  A    between atoms: C_8  and  C_45
    6  A    between atoms: C_8  and  C_64
    7  A    between atoms: C_8  and  C_65
    8  A    between atoms: C_12  and  C_62
    9  A    between atoms: C_13  and  C_48
   10  A    between atoms: C_14  and  O_52
   11  A    between atoms: C_16  and  C_51
   12  A    between atoms: N_17  and  C_62
   13  A    between atoms: C_21  and  C_63
   14  A    between atoms: C_22  and  C_54
   15  A    between atoms: C_22  and  C_62
   16  A    between atoms: C_26  and  C_46
   17  A    between atoms: C_26  and  C_57
   18  A    between atoms: C_30  and  C_51
   19  A    between atoms: C_30  and  C_61
   20  A    between atoms: C_34  and  O_38
   21  A    between atoms: C_34  and  C_56
   22  A    between atoms: O_38  and  C_65
   23  A    between atoms: N_42  and  N_67
   24  A    between atoms: C_47  and  C_51
   25  A    between atoms: C_48  and  N_50
   26  A    between atoms: O_52  and  C_64
   27  A    between atoms: C_57  and  C_60
   28  A    between atoms: C_61  and  C_63
                            x       y       z     vdW  Elec       q    Type
                         _______ _______ _______ _____ _____    ______ ____

>  <TORSDO>
F 28

$$$$
=
 OpenBabel11062422373D

 67 71  0  0  1  0  0  0  0  0999 V2000
  188.0500  175.0390  141.9160 C   0  0  0  0  0  3  0  0  0  0  0  0
  189.3750  174.8810  142.1400 C   0  0  0  0  0  0  0  0  0  0  0  0
  189.8800  173.9800  139.5210 N   0  0  0  0  0  0  0  0  0  0  0  0
  190.9280  170.5760  141.0940 C   0  0  0  0  0  3  0  0  0  0  0  0
  190.3690  172.8140  143.1090 C   0  0  0  0  0  3  0  0  0  0  0  0
  190.5590  172.3780  137.9220 N   0  0  0  0  0  0  0  0  0  0  0  0
  190.0460  173.6670  138.2760 C   0  0  0  0  0  3  0  0  0  0  0  0
  190.8130  171.4520  138.9520 N   0  0  0  0  0  0  0  0  0  0  0  0
  190.7800  171.5760  143.3380 C   0  0  0  0  0  3  0  0  0  0  0  0
  190.9660  170.5400  142.3840 N   0  0  0  0  0  0  0  0  0  0  0  0
  190.1720  173.0780  140.6050 C   0  0  0  0  0  0  0  0  0  0  0  0
  190.6760  171.7220  140.2160 C   0  0  0  0  0  0  0  0  0  0  0  0
  189.9870  173.5330  141.8760 C   0  0  0  0  0  0  0  0  0  0  0  0
  190.4550  171.9110  136.5270 C   0  0  2  0  0  0  0  0  0  0  0  0
  189.5680  170.8360  136.4980 O   0  0  0  0  0  1  0  0  0  0  0  0
  191.8210  171.4030  136.0040 C   0  0  1  0  0  3  0  0  0  0  0  0
  192.8880  172.1620  136.5040 O   0  0  0  0  0  1  0  0  0  0  0  0
  192.2370  169.2800  134.7690 C   0  0  0  0  0  1  0  0  0  0  0  0
  193.2740  169.5620  137.0000 C   0  0  0  0  0  1  0  0  0  0  0  0
  192.0640  169.8940  136.1420 C   0  0  0  0  0  3  0  0  0  0  0  0
  189.1740  172.4640  134.5400 O   0  0  0  0  0  1  0  0  0  0  0  0
  189.8790  173.0040  135.6160 C   0  0  0  0  0  2  0  0  0  0  0  0
  187.3130  176.2340  141.9520 O   0  0  0  0  0  0  0  0  0  0  0  0
  186.7170  176.8590  140.8200 C   0  0  0  0  0  2  0  0  0  0  0  0
  185.5640  177.7530  141.2480 C   0  0  2  0  0  3  0  0  0  0  0  0
  185.0740  177.3520  142.6360 C   0  0  0  0  0  2  0  0  0  0  0  0
  185.5310  178.2470  143.6090 O   0  0  0  0  0  0  0  0  0  0  0  0
  185.8570  177.4430  144.7010 C   0  0  0  0  0  2  0  0  0  0  0  0
  183.9630  178.8650  145.7290 C   0  0  0  0  0  1  0  0  0  0  0  0
  185.0820  177.1700  146.9110 O   0  0  0  0  0  0  0  0  0  0  0  0
  184.9720  177.7770  145.8560 C   0  0  0  0  0  0  0  0  0  0  0  0
  184.4280  177.6440  140.2440 C   0  0  0  0  0  2  0  0  0  0  0  0
  183.2870  179.2350  141.6030 O   0  0  0  0  0  0  0  0  0  0  0  0
  183.1990  178.3210  140.7430 C   0  0  0  0  0  0  0  0  0  0  0  0
  181.9200  177.8930  140.2800 N   0  0  0  0  0  0  0  0  0  0  0  0
  180.7490  178.3420  140.9020 N   0  0  0  0  0  0  0  0  0  0  0  0
  179.4700  178.1480  140.3040 C   0  0  0  0  0  0  0  0  0  0  0  0
  178.1830  178.9720  140.9030 S   0  0  0  0  0  0  0  0  0  0  0  0
  179.3390  177.2990  139.1560 N   0  0  0  0  0  2  0  0  0  0  0  0
  178.0950  176.6430  138.7950 C   0  0  0  0  0  2  0  0  0  0  0  0
  179.5460  175.6290  137.0830 C   0  0  0  0  0  2  0  0  0  0  0  0
  178.4000  175.3660  138.0400 C   0  0  0  0  0  3  0  0  0  0  0  0
  178.1260  175.5870  136.5630 C   0  0  0  0  0  2  0  0  0  0  0  0
  190.2630  176.0380  142.5160 C   0  0  0  0  0  2  0  0  0  0  0  0
  190.0450  176.4740  143.9660 C   0  0  0  0  0  2  0  0  0  0  0  0
  191.0560  175.8920  144.9530 C   0  0  2  0  0  3  0  0  0  0  0  0
  193.2440  176.2980  146.9410 C   0  0  0  0  0  2  0  0  0  0  0  0
  193.9080  175.2310  146.0590 C   0  0  1  0  0  3  0  0  0  0  0  0
  191.9090  175.9620  147.2170 O   0  0  0  0  0  0  0  0  0  0  0  0
  191.1390  176.6690  146.2800 C   0  0  0  0  0  2  0  0  0  0  0  0
  192.9600  174.7290  144.9620 C   0  0  0  0  0  2  0  0  0  0  0  0
  192.3150  175.8070  144.3400 O   0  0  0  0  0  0  0  0  0  0  0  0
  195.1780  175.8150  145.4490 C   0  0  0  0  0  2  0  0  0  0  0  0
  195.7020  174.9530  144.3070 C   0  0  0  0  0  2  0  0  0  0  0  0
  196.4370  173.7470  144.8070 C   0  0  0  0  0  0  0  0  0  0  0  0
  197.4900  173.8880  145.4090 O   0  0  0  0  0  0  0  0  0  0  0  0
  195.8750  172.3590  144.6230 C   0  0  1  0  0  3  0  0  0  0  0  0
  196.5210  171.1130  139.7350 S   0  0  0  0  0  0  0  0  0  0  0  0
  196.5260  172.0150  142.2800 N   0  0  0  0  0  0  0  0  0  0  0  0
  194.4690  171.2390  141.4780 N   0  0  0  0  0  0  0  0  0  0  0  0
  195.5960  172.0290  143.1810 C   0  0  0  0  0  0  0  0  0  0  0  0
  194.3380  171.5410  142.7040 N   0  0  0  0  0  0  0  0  0  0  0  0
  195.8140  171.5370  141.1490 C   0  0  0  0  0  0  0  0  0  0  0  0
  196.8640  171.6570  146.6780 F   0  0  0  0  0  0  0  0  0  0  0  0
  196.6860  171.2840  145.3580 C   0  0  0  0  0  0  0  0  0  0  0  0
  196.0290  170.0530  145.3140 O   0  0  0  0  0  1  0  0  0  0  0  0
  197.9290  171.1540  144.7640 F   0  0  0  0  0  0  0  0  0  0  0  0
  1 23  1  0  0  0  0
  1  2  2  0  0  0  0
  2 44  1  0  0  0  0
  3 11  1  0  0  0  0
  4 10  2  0  0  0  0
  5  9  2  0  0  0  0
  6  7  1  0  0  0  0
  6  8  1  0  0  0  0
  7  3  2  0  0  0  0
  8 12  2  0  0  0  0
 10  9  1  0  0  0  0
 11 13  2  0  0  0  0
 12 11  1  0  0  0  0
 12  4  1  0  0  0  0
 13  2  1  0  0  0  0
 13  5  1  0  0  0  0
 14 15  1  6  0  0  0
 14  6  1  0  0  0  0
 16 20  1  0  0  0  0
 16 17  1  1  0  0  0
 16 14  1  0  0  0  0
 18 20  1  0  0  0  0
 20 19  1  0  0  0  0
 21 22  1  0  0  0  0
 22 14  1  0  0  0  0
 24 25  1  0  0  0  0
 24 23  1  0  0  0  0
 25 32  1  6  0  0  0
 25 26  1  0  0  0  0
 26 27  1  0  0  0  0
 27 28  1  0  0  0  0
 28 31  1  0  0  0  0
 29 31  1  0  0  0  0
 31 30  2  0  0  0  0
 32 34  1  0  0  0  0
 34 33  2  0  0  0  0
 35 34  1  0  0  0  0
 35 36  2  0  0  0  0
 37 36  1  0  0  0  0
 37 38  2  0  0  0  0
 39 37  1  0  0  0  0
 40 39  1  0  0  0  0
 41 42  1  0  0  0  0
 42 40  1  0  0  0  0
 43 41  1  0  0  0  0
 43 42  1  0  0  0  0
 44 45  1  0  0  0  0
 46 45  1  6  0  0  0
 46 50  1  0  0  0  0
 47 49  1  0  0  0  0
 48 53  1  6  0  0  0
 48 47  1  0  0  0  0
 50 49  1  0  0  0  0
 51 48  1  0  0  0  0
 52 46  1  0  0  0  0
 52 51  1  0  0  0  0
 54 55  1  0  0  0  0
 54 53  1  0  0  0  0
 55 56  2  0  0  0  0
 57 55  1  6  0  0  0
 57 65  1  0  0  0  0
 58 63  2  0  0  0  0
 59 61  2  0  0  0  0
 60 62  2  0  0  0  0
 61 57  1  0  0  0  0
 62 61  1  0  0  0  0
 63 60  1  0  0  0  0
 63 59  1  0  0  0  0
 65 64  1  0  0  0  0
 66 65  1  0  0  0  0
 67 65  1  0  0  0  0
M  END
>  <MODEL>
4

>  <REMARK>
 VINA RESULT:      -4.9      4.809     10.147
  Name = 
  28 active torsions:
  status: ('A' for Active; 'I' for Inactive)
    1  A    between atoms: C_1  and  C_46
    2  A    between atoms: C_3  and  N_42
    3  A    between atoms: C_3  and  N_50
    4  A    between atoms: C_6  and  C_45
    5  A    between atoms: C_8  and  C_45
    6  A    between atoms: C_8  and  C_64
    7  A    between atoms: C_8  and  C_65
    8  A    between atoms: C_12  and  C_62
    9  A    between atoms: C_13  and  C_48
   10  A    between atoms: C_14  and  O_52
   11  A    between atoms: C_16  and  C_51
   12  A    between atoms: N_17  and  C_62
   13  A    between atoms: C_21  and  C_63
   14  A    between atoms: C_22  and  C_54
   15  A    between atoms: C_22  and  C_62
   16  A    between atoms: C_26  and  C_46
   17  A    between atoms: C_26  and  C_57
   18  A    between atoms: C_30  and  C_51
   19  A    between atoms: C_30  and  C_61
   20  A    between atoms: C_34  and  O_38
   21  A    between atoms: C_34  and  C_56
   22  A    between atoms: O_38  and  C_65
   23  A    between atoms: N_42  and  N_67
   24  A    between atoms: C_47  and  C_51
   25  A    between atoms: C_48  and  N_50
   26  A    between atoms: O_52  and  C_64
   27  A    between atoms: C_57  and  C_60
   28  A    between atoms: C_61  and  C_63
                            x       y       z     vdW  Elec       q    Type
                         _______ _______ _______ _____ _____    ______ ____

>  <TORSDO>
F 28

$$$$
=
 OpenBabel11062422373D

 67 71  0  0  1  0  0  0  0  0999 V2000
  192.2590  175.4710  143.1990 C   0  0  0  0  0  3  0  0  0  0  0  0
  191.8770  174.8120  142.0810 C   0  0  0  0  0  0  0  0  0  0  0  0
  189.6740  176.5650  142.1530 N   0  0  0  0  0  0  0  0  0  0  0  0
  187.4000  173.4060  142.2160 C   0  0  0  0  0  3  0  0  0  0  0  0
  190.3790  172.8460  141.7850 C   0  0  0  0  0  3  0  0  0  0  0  0
  187.3670  177.0730  142.2160 N   0  0  0  0  0  0  0  0  0  0  0  0
  188.7450  177.4630  142.2160 C   0  0  0  0  0  3  0  0  0  0  0  0
  187.0600  175.6990  142.2090 N   0  0  0  0  0  0  0  0  0  0  0  0
  189.3700  171.9880  141.8100 C   0  0  0  0  0  3  0  0  0  0  0  0
  188.0040  172.2740  142.0800 N   0  0  0  0  0  0  0  0  0  0  0  0
  189.4010  175.1520  142.0980 C   0  0  0  0  0  0  0  0  0  0  0  0
  187.9560  174.7590  142.1320 C   0  0  0  0  0  0  0  0  0  0  0  0
  190.4630  174.3040  142.0010 C   0  0  0  0  0  0  0  0  0  0  0  0
  186.3330  178.0510  142.5970 C   0  0  2  0  0  0  0  0  0  0  0  0
  186.9520  179.2890  142.7650 O   0  0  0  0  0  1  0  0  0  0  0  0
  185.6730  177.6730  143.9460 C   0  0  1  0  0  3  0  0  0  0  0  0
  186.3550  176.6310  144.5880 O   0  0  0  0  0  1  0  0  0  0  0  0
  183.8810  178.9970  145.0580 C   0  0  0  0  0  1  0  0  0  0  0  0
  186.0240  178.6860  146.2570 C   0  0  0  0  0  1  0  0  0  0  0  0
  185.3770  178.8450  144.8910 C   0  0  0  0  0  3  0  0  0  0  0  0
  184.0100  177.8440  141.9210 O   0  0  0  0  0  1  0  0  0  0  0  0
  185.2840  178.2120  141.4870 C   0  0  0  0  0  2  0  0  0  0  0  0
  193.4680  176.1510  143.4200 O   0  0  0  0  0  0  0  0  0  0  0  0
  194.0150  176.4450  144.7010 C   0  0  0  0  0  2  0  0  0  0  0  0
  194.1440  175.1780  145.5310 C   0  0  2  0  0  3  0  0  0  0  0  0
  193.0620  175.1410  146.6060 C   0  0  0  0  0  2  0  0  0  0  0  0
  192.5500  176.4210  146.8480 O   0  0  0  0  0  0  0  0  0  0  0  0
  191.3260  176.1960  147.4770 C   0  0  0  0  0  2  0  0  0  0  0  0
  188.8040  176.5640  147.0710 C   0  0  0  0  0  1  0  0  0  0  0  0
  190.4530  177.1260  145.4950 O   0  0  0  0  0  0  0  0  0  0  0  0
  190.2130  176.6680  146.6010 C   0  0  0  0  0  0  0  0  0  0  0  0
  195.5190  175.1220  146.1760 C   0  0  0  0  0  2  0  0  0  0  0  0
  197.3770  173.6320  146.1200 O   0  0  0  0  0  0  0  0  0  0  0  0
  196.1300  173.7720  146.0300 C   0  0  0  0  0  0  0  0  0  0  0  0
  195.3000  172.6500  145.7400 N   0  0  0  0  0  2  0  0  0  0  0  0
  195.8630  171.4250  145.3650 N   0  0  0  0  0  2  0  0  0  0  0  0
  195.7190  170.9160  144.0410 C   0  0  0  0  0  0  0  0  0  0  0  0
  196.9960  171.0070  143.0140 S   0  0  0  0  0  0  0  0  0  0  0  0
  194.4960  170.2750  143.6520 N   0  0  0  0  0  2  0  0  0  0  0  0
  194.2860  169.7100  142.3310 C   0  0  0  0  0  2  0  0  0  0  0  0
  192.1080  169.5350  141.1960 C   0  0  0  0  0  2  0  0  0  0  0  0
  193.2050  170.4920  141.6140 C   0  0  0  0  0  3  0  0  0  0  0  0
  193.1170  170.0140  140.1770 C   0  0  0  0  0  2  0  0  0  0  0  0
  192.7770  174.6910  140.8800 C   0  0  0  0  0  2  0  0  0  0  0  0
  194.1830  175.2190  141.1680 C   0  0  0  0  0  2  0  0  0  0  0  0
  195.2940  174.4730  140.4300 C   0  0  2  0  0  3  0  0  0  0  0  0
  196.6560  173.7520  137.8750 C   0  0  0  0  0  2  0  0  0  0  0  0
  196.4880  172.3460  138.4690 C   0  0  1  0  0  3  0  0  0  0  0  0
  197.1150  174.6560  138.8460 O   0  0  0  0  0  0  0  0  0  0  0  0
  195.9700  175.3090  139.3270 C   0  0  0  0  0  2  0  0  0  0  0  0
  195.8810  172.3930  139.8780 C   0  0  0  0  0  2  0  0  0  0  0  0
  194.7890  173.2710  139.9130 O   0  0  0  0  0  0  0  0  0  0  0  0
  195.6160  171.5160  137.5330 C   0  0  0  0  0  2  0  0  0  0  0  0
  195.3750  172.2280  136.2080 C   0  0  0  0  0  2  0  0  0  0  0  0
  193.9150  172.3640  135.9020 C   0  0  0  0  0  0  0  0  0  0  0  0
  193.4320  171.7400  134.9690 O   0  0  0  0  0  0  0  0  0  0  0  0
  193.0150  173.2200  136.7570 C   0  0  1  0  0  3  0  0  0  0  0  0
  193.0330  178.0600  135.1990 S   0  0  0  0  0  0  0  0  0  0  0  0
  193.1580  175.6460  136.3990 N   0  0  0  0  0  0  0  0  0  0  0  0
  191.7420  175.7880  134.5410 N   0  0  0  0  0  0  0  0  0  0  0  0
  192.6230  174.5090  136.0850 C   0  0  0  0  0  0  0  0  0  0  0  0
  191.7680  174.5830  134.9400 N   0  0  0  0  0  0  0  0  0  0  0  0
  192.5760  176.5060  135.4320 C   0  0  0  0  0  0  0  0  0  0  0  0
  191.5860  172.8660  138.6360 F   0  0  0  0  0  0  0  0  0  0  0  0
  191.8280  172.4420  137.3420 C   0  0  0  0  0  0  0  0  0  0  0  0
  190.6800  172.6400  136.5720 O   0  0  0  0  0  1  0  0  0  0  0  0
  192.1270  171.0920  137.3670 F   0  0  0  0  0  0  0  0  0  0  0  0
  1 23  1  0  0  0  0
  2  1  2  0  0  0  0
  3  7  2  0  0  0  0
  5  9  2  0  0  0  0
  5 13  1  0  0  0  0
  6  7  1  0  0  0  0
  6 14  1  0  0  0  0
  8  6  1  0  0  0  0
  9 10  1  0  0  0  0
 10  4  2  0  0  0  0
 11 12  1  0  0  0  0
 11  3  1  0  0  0  0
 12  8  2  0  0  0  0
 12  4  1  0  0  0  0
 13  2  1  0  0  0  0
 13 11  2  0  0  0  0
 14 15  1  1  0  0  0
 14 16  1  0  0  0  0
 16 17  1  1  0  0  0
 16 20  1  0  0  0  0
 20 18  1  0  0  0  0
 20 19  1  0  0  0  0
 22 21  1  0  0  0  0
 22 14  1  0  0  0  0
 23 24  1  0  0  0  0
 25 24  1  1  0  0  0
 25 32  1  0  0  0  0
 25 26  1  0  0  0  0
 26 27  1  0  0  0  0
 27 28  1  0  0  0  0
 30 31  2  0  0  0  0
 31 29  1  0  0  0  0
 31 28  1  0  0  0  0
 34 33  2  0  0  0  0
 34 32  1  0  0  0  0
 35 34  1  0  0  0  0
 36 35  1  0  0  0  0
 37 36  1  0  0  0  0
 38 37  2  0  0  0  0
 39 37  1  0  0  0  0
 40 39  1  0  0  0  0
 41 42  1  0  0  0  0
 42 40  1  0  0  0  0
 43 41  1  0  0  0  0
 43 42  1  0  0  0  0
 44 45  1  0  0  0  0
 44  2  1  0  0  0  0
 46 45  1  6  0  0  0
 47 48  1  0  0  0  0
 47 49  1  0  0  0  0
 48 53  1  6  0  0  0
 48 51  1  0  0  0  0
 49 50  1  0  0  0  0
 50 46  1  0  0  0  0
 51 52  1  0  0  0  0
 52 46  1  0  0  0  0
 54 53  1  0  0  0  0
 55 54  1  0  0  0  0
 56 55  2  0  0  0  0
 57 55  1  6  0  0  0
 57 65  1  0  0  0  0
 58 63  2  0  0  0  0
 60 62  2  0  0  0  0
 60 63  1  0  0  0  0
 61 59  2  0  0  0  0
 61 57  1  0  0  0  0
 62 61  1  0  0  0  0
 63 59  1  0  0  0  0
 65 67  1  0  0  0  0
 65 64  1  0  0  0  0
 66 65  1  0  0  0  0
M  END
>  <MODEL>
5

>  <REMARK>
 VINA RESULT:      -4.8      3.366      9.599
  Name = 
  28 active torsions:
  status: ('A' for Active; 'I' for Inactive)
    1  A    between atoms: C_1  and  C_46
    2  A    between atoms: C_3  and  N_42
    3  A    between atoms: C_3  and  N_50
    4  A    between atoms: C_6  and  C_45
    5  A    between atoms: C_8  and  C_45
    6  A    between atoms: C_8  and  C_64
    7  A    between atoms: C_8  and  C_65
    8  A    between atoms: C_12  and  C_62
    9  A    between atoms: C_13  and  C_48
   10  A    between atoms: C_14  and  O_52
   11  A    between atoms: C_16  and  C_51
   12  A    between atoms: N_17  and  C_62
   13  A    between atoms: C_21  and  C_63
   14  A    between atoms: C_22  and  C_54
   15  A    between atoms: C_22  and  C_62
   16  A    between atoms: C_26  and  C_46
   17  A    between atoms: C_26  and  C_57
   18  A    between atoms: C_30  and  C_51
   19  A    between atoms: C_30  and  C_61
   20  A    between atoms: C_34  and  O_38
   21  A    between atoms: C_34  and  C_56
   22  A    between atoms: O_38  and  C_65
   23  A    between atoms: N_42  and  N_67
   24  A    between atoms: C_47  and  C_51
   25  A    between atoms: C_48  and  N_50
   26  A    between atoms: O_52  and  C_64
   27  A    between atoms: C_57  and  C_60
   28  A    between atoms: C_61  and  C_63
                            x       y       z     vdW  Elec       q    Type
                         _______ _______ _______ _____ _____    ______ ____

>  <TORSDO>
F 28

$$$$
=
 OpenBabel11062422373D

 67 71  0  0  1  0  0  0  0  0999 V2000
  187.1270  175.3670  142.6840 C   0  0  0  0  0  3  0  0  0  0  0  0
  188.3810  175.3030  143.1870 C   0  0  0  0  0  0  0  0  0  0  0  0
  189.3490  174.4260  140.6920 N   0  0  0  0  0  0  0  0  0  0  0  0
  190.4410  171.1440  142.4810 C   0  0  0  0  0  3  0  0  0  0  0  0
  189.3940  173.3420  144.3380 C   0  0  0  0  0  3  0  0  0  0  0  0
  190.3970  172.8760  139.2480 N   0  0  0  0  0  0  0  0  0  0  0  0
  189.7270  174.1170  139.4930 C   0  0  0  0  0  3  0  0  0  0  0  0
  190.5740  171.9860  140.3250 N   0  0  0  0  0  0  0  0  0  0  0  0
  189.8720  172.1490  144.6540 C   0  0  0  0  0  3  0  0  0  0  0  0
  190.2890  171.1240  143.7620 N   0  0  0  0  0  0  0  0  0  0  0  0
  189.5530  173.5640  141.8280 C   0  0  0  0  0  0  0  0  0  0  0  0
  190.2250  172.2550  141.5490 C   0  0  0  0  0  0  0  0  0  0  0  0
  189.1410  174.0120  143.0460 C   0  0  0  0  0  0  0  0  0  0  0  0
  190.5450  172.3890  137.8650 C   0  0  2  0  0  0  0  0  0  0  0  0
  190.5320  170.9940  137.8970 O   0  0  0  0  0  1  0  0  0  0  0  0
  191.8980  172.8300  137.2570 C   0  0  1  0  0  3  0  0  0  0  0  0
  192.4590  171.8320  136.4480 O   0  0  0  0  0  1  0  0  0  0  0  0
  192.9740  175.0750  137.1860 C   0  0  0  0  0  1  0  0  0  0  0  0
  192.1160  174.1190  135.0700 C   0  0  0  0  0  1  0  0  0  0  0  0
  191.9000  174.2030  136.5710 C   0  0  0  0  0  3  0  0  0  0  0  0
  189.0170  171.8630  136.0520 O   0  0  0  0  0  1  0  0  0  0  0  0
  189.3660  172.8360  136.9890 C   0  0  0  0  0  2  0  0  0  0  0  0
  186.3060  176.5020  142.5730 O   0  0  0  0  0  0  0  0  0  0  0  0
  186.0550  177.2100  141.3640 C   0  0  0  0  0  2  0  0  0  0  0  0
  184.8560  178.1320  141.5240 C   0  0  2  0  0  3  0  0  0  0  0  0
  184.2100  177.9230  142.8890 C   0  0  0  0  0  2  0  0  0  0  0  0
  185.0180  178.4340  143.9110 O   0  0  0  0  0  0  0  0  0  0  0  0
  184.2790  178.2350  145.0770 C   0  0  0  0  0  2  0  0  0  0  0  0
  185.9980  179.3800  146.6250 C   0  0  0  0  0  1  0  0  0  0  0  0
  185.3000  177.1540  146.9070 O   0  0  0  0  0  0  0  0  0  0  0  0
  185.1950  178.1820  146.2540 C   0  0  0  0  0  0  0  0  0  0  0  0
  183.8450  177.8570  140.4230 C   0  0  0  0  0  2  0  0  0  0  0  0
  182.3580  179.1680  141.7460 O   0  0  0  0  0  0  0  0  0  0  0  0
  182.4910  178.3530  140.7960 C   0  0  0  0  0  0  0  0  0  0  0  0
  181.3450  177.8640  140.1040 N   0  0  0  0  0  2  0  0  0  0  0  0
  180.0560  178.1270  140.5840 N   0  0  0  0  0  2  0  0  0  0  0  0
  178.9390  178.2100  139.7030 C   0  0  0  0  0  0  0  0  0  0  0  0
  178.6630  176.9760  138.6560 S   0  0  0  0  0  0  0  0  0  0  0  0
  178.0410  179.3250  139.7910 N   0  0  0  0  0  2  0  0  0  0  0  0
  178.3230  180.5060  140.5870 C   0  0  0  0  0  2  0  0  0  0  0  0
  178.4140  181.7350  138.4550 C   0  0  0  0  0  2  0  0  0  0  0  0
  177.8300  181.7360  139.8540 C   0  0  0  0  0  3  0  0  0  0  0  0
  179.0160  182.6230  139.5210 C   0  0  0  0  0  2  0  0  0  0  0  0
  189.0740  176.5130  143.7560 C   0  0  0  0  0  2  0  0  0  0  0  0
  188.9440  176.5780  145.2790 C   0  0  0  0  0  2  0  0  0  0  0  0
  190.2010  176.1430  146.0320 C   0  0  2  0  0  3  0  0  0  0  0  0
  192.6680  176.8520  147.5540 C   0  0  0  0  0  2  0  0  0  0  0  0
  193.2790  175.8800  146.5340 C   0  0  1  0  0  3  0  0  0  0  0  0
  191.4720  176.3390  148.0820 O   0  0  0  0  0  0  0  0  0  0  0  0
  190.4430  176.9300  147.3330 C   0  0  0  0  0  2  0  0  0  0  0  0
  192.2060  175.2490  145.6360 C   0  0  0  0  0  2  0  0  0  0  0  0
  191.3120  176.2260  145.1790 O   0  0  0  0  0  0  0  0  0  0  0  0
  194.3110  176.6280  145.6980 C   0  0  0  0  0  2  0  0  0  0  0  0
  194.3790  176.0900  144.2740 C   0  0  0  0  0  2  0  0  0  0  0  0
  195.6530  175.3470  144.0140 C   0  0  0  0  0  0  0  0  0  0  0  0
  196.7090  175.9590  143.9560 O   0  0  0  0  0  0  0  0  0  0  0  0
  195.6660  173.8450  143.8730 C   0  0  1  0  0  3  0  0  0  0  0  0
  196.6900  171.7920  139.3340 S   0  0  0  0  0  0  0  0  0  0  0  0
  195.8860  172.5490  141.7980 N   0  0  0  0  0  0  0  0  0  0  0  0
  197.9390  173.4180  141.0850 N   0  0  0  0  0  0  0  0  0  0  0  0
  196.4040  173.3810  142.6450 C   0  0  0  0  0  0  0  0  0  0  0  0
  197.6520  173.9290  142.2100 N   0  0  0  0  0  0  0  0  0  0  0  0
  196.8800  172.5270  140.7850 C   0  0  0  0  0  0  0  0  0  0  0  0
  194.9700  172.7200  145.8590 F   0  0  0  0  0  0  0  0  0  0  0  0
  196.0930  173.1270  145.1600 C   0  0  0  0  0  0  0  0  0  0  0  0
  196.8790  172.0110  144.8650 O   0  0  0  0  0  1  0  0  0  0  0  0
  196.8190  173.9940  145.9550 F   0  0  0  0  0  0  0  0  0  0  0  0
  1  2  2  0  0  0  0
  2 44  1  0  0  0  0
  3 11  1  0  0  0  0
  4 10  2  0  0  0  0
  5  9  2  0  0  0  0
  6  7  1  0  0  0  0
  6  8  1  0  0  0  0
  7  3  2  0  0  0  0
  8 12  2  0  0  0  0
 10  9  1  0  0  0  0
 11 13  2  0  0  0  0
 12 11  1  0  0  0  0
 12  4  1  0  0  0  0
 13  2  1  0  0  0  0
 13  5  1  0  0  0  0
 14 15  1  1  0  0  0
 14  6  1  0  0  0  0
 16 17  1  6  0  0  0
 16 14  1  0  0  0  0
 19 20  1  0  0  0  0
 20 18  1  0  0  0  0
 20 16  1  0  0  0  0
 21 22  1  0  0  0  0
 22 14  1  0  0  0  0
 23  1  1  0  0  0  0
 24 25  1  0  0  0  0
 24 23  1  0  0  0  0
 25 32  1  6  0  0  0
 25 26  1  0  0  0  0
 26 27  1  0  0  0  0
 27 28  1  0  0  0  0
 28 31  1  0  0  0  0
 31 29  1  0  0  0  0
 31 30  2  0  0  0  0
 32 34  1  0  0  0  0
 34 33  2  0  0  0  0
 35 36  1  0  0  0  0
 35 34  1  0  0  0  0
 37 39  1  0  0  0  0
 37 36  1  0  0  0  0
 38 37  2  0  0  0  0
 39 40  1  0  0  0  0
 41 43  1  0  0  0  0
 41 42  1  0  0  0  0
 42 40  1  0  0  0  0
 43 42  1  0  0  0  0
 44 45  1  0  0  0  0
 46 45  1  6  0  0  0
 46 50  1  0  0  0  0
 47 49  1  0  0  0  0
 48 53  1  6  0  0  0
 48 47  1  0  0  0  0
 50 49  1  0  0  0  0
 51 48  1  0  0  0  0
 52 51  1  0  0  0  0
 52 46  1  0  0  0  0
 54 53  1  0  0  0  0
 55 54  1  0  0  0  0
 56 55  2  0  0  0  0
 57 55  1  1  0  0  0
 57 65  1  0  0  0  0
 58 63  2  0  0  0  0
 59 61  2  0  0  0  0
 60 62  2  0  0  0  0
 61 57  1  0  0  0  0
 62 61  1  0  0  0  0
 63 60  1  0  0  0  0
 63 59  1  0  0  0  0
 65 64  1  0  0  0  0
 65 67  1  0  0  0  0
 66 65  1  0  0  0  0
M  END
>  <MODEL>
6

>  <REMARK>
 VINA RESULT:      -4.7      4.724     10.164
  Name = 
  28 active torsions:
  status: ('A' for Active; 'I' for Inactive)
    1  A    between atoms: C_1  and  C_46
    2  A    between atoms: C_3  and  N_42
    3  A    between atoms: C_3  and  N_50
    4  A    between atoms: C_6  and  C_45
    5  A    between atoms: C_8  and  C_45
    6  A    between atoms: C_8  and  C_64
    7  A    between atoms: C_8  and  C_65
    8  A    between atoms: C_12  and  C_62
    9  A    between atoms: C_13  and  C_48
   10  A    between atoms: C_14  and  O_52
   11  A    between atoms: C_16  and  C_51
   12  A    between atoms: N_17  and  C_62
   13  A    between atoms: C_21  and  C_63
   14  A    between atoms: C_22  and  C_54
   15  A    between atoms: C_22  and  C_62
   16  A    between atoms: C_26  and  C_46
   17  A    between atoms: C_26  and  C_57
   18  A    between atoms: C_30  and  C_51
   19  A    between atoms: C_30  and  C_61
   20  A    between atoms: C_34  and  O_38
   21  A    between atoms: C_34  and  C_56
   22  A    between atoms: O_38  and  C_65
   23  A    between atoms: N_42  and  N_67
   24  A    between atoms: C_47  and  C_51
   25  A    between atoms: C_48  and  N_50
   26  A    between atoms: O_52  and  C_64
   27  A    between atoms: C_57  and  C_60
   28  A    between atoms: C_61  and  C_63
                            x       y       z     vdW  Elec       q    Type
                         _______ _______ _______ _____ _____    ______ ____

>  <TORSDO>
F 28

$$$$
=
 OpenBabel11062422373D

 67 71  0  0  1  0  0  0  0  0999 V2000
  187.9030  174.3470  142.6250 C   0  0  0  0  0  3  0  0  0  0  0  0
  189.1910  174.5980  142.2950 C   0  0  0  0  0  0  0  0  0  0  0  0
  190.3100  173.4970  139.9570 N   0  0  0  0  0  0  0  0  0  0  0  0
  191.9860  170.8270  142.2430 C   0  0  0  0  0  3  0  0  0  0  0  0
  190.5460  173.0830  143.7310 C   0  0  0  0  0  3  0  0  0  0  0  0
  191.6290  171.9400  138.7660 N   0  0  0  0  0  0  0  0  0  0  0  0
  190.7410  173.0610  138.8180 C   0  0  0  0  0  3  0  0  0  0  0  0
  191.9650  171.2950  139.9730 N   0  0  0  0  0  0  0  0  0  0  0  0
  191.2360  172.0680  144.2310 C   0  0  0  0  0  3  0  0  0  0  0  0
  191.8370  170.9990  143.5130 N   0  0  0  0  0  0  0  0  0  0  0  0
  190.6670  172.8950  141.2160 C   0  0  0  0  0  0  0  0  0  0  0  0
  191.5700  171.7020  141.1430 C   0  0  0  0  0  0  0  0  0  0  0  0
  190.1760  173.4630  142.3530 C   0  0  0  0  0  0  0  0  0  0  0  0
  191.8680  171.2570  137.4820 C   0  0  2  0  0  0  0  0  0  0  0  0
  192.3400  169.9740  137.7580 O   0  0  0  0  0  1  0  0  0  0  0  0
  192.9540  171.9860  136.6530 C   0  0  1  0  0  3  0  0  0  0  0  0
  192.6160  173.3240  136.4100 O   0  0  0  0  0  1  0  0  0  0  0  0
  195.3140  171.5270  136.0030 C   0  0  0  0  0  1  0  0  0  0  0  0
  194.8970  173.0620  137.9000 C   0  0  0  0  0  1  0  0  0  0  0  0
  194.3920  171.8320  137.1650 C   0  0  0  0  0  3  0  0  0  0  0  0
  190.1310  169.7770  136.6520 O   0  0  0  0  0  1  0  0  0  0  0  0
  190.5650  171.1030  136.6840 C   0  0  0  0  0  2  0  0  0  0  0  0
  186.8030  175.2120  142.4970 O   0  0  0  0  0  0  0  0  0  0  0  0
  186.8900  176.6140  142.2690 C   0  0  0  0  0  2  0  0  0  0  0  0
  187.0350  177.3620  143.5860 C   0  0  2  0  0  3  0  0  0  0  0  0
  186.1890  176.6960  144.6650 C   0  0  0  0  0  2  0  0  0  0  0  0
  186.8600  176.6810  145.8930 O   0  0  0  0  0  0  0  0  0  0  0  0
  188.1890  176.4150  145.5630 C   0  0  0  0  0  2  0  0  0  0  0  0
  189.1200  174.7470  147.2990 C   0  0  0  0  0  1  0  0  0  0  0  0
  189.4830  177.0650  147.4230 O   0  0  0  0  0  0  0  0  0  0  0  0
  188.9730  176.1440  146.8040 C   0  0  0  0  0  0  0  0  0  0  0  0
  186.6050  178.8090  143.4060 C   0  0  0  0  0  2  0  0  0  0  0  0
  184.6650  179.3370  144.6840 O   0  0  0  0  0  0  0  0  0  0  0  0
  185.1340  178.9600  143.5790 C   0  0  0  0  0  0  0  0  0  0  0  0
  184.2590  178.6290  142.5030 N   0  0  0  0  0  0  0  0  0  0  0  0
  182.8780  178.5330  142.7110 N   0  0  0  0  0  0  0  0  0  0  0  0
  181.9830  178.2640  141.6350 C   0  0  0  0  0  0  0  0  0  0  0  0
  182.6030  177.9710  140.1430 S   0  0  0  0  0  0  0  0  0  0  0  0
  180.5720  178.1860  141.8820 N   0  0  0  0  0  2  0  0  0  0  0  0
  179.6710  179.3070  141.6800 C   0  0  0  0  0  2  0  0  0  0  0  0
  178.2480  177.3980  142.3110 C   0  0  0  0  0  2  0  0  0  0  0  0
  178.2390  178.8320  141.8190 C   0  0  0  0  0  3  0  0  0  0  0  0
  178.0000  177.6900  140.8490 C   0  0  0  0  0  2  0  0  0  0  0  0
  189.6290  175.9330  141.7520 C   0  0  0  0  0  2  0  0  0  0  0  0
  190.4250  176.7320  142.7850 C   0  0  0  0  0  2  0  0  0  0  0  0
  191.6790  176.0220  143.2940 C   0  0  2  0  0  3  0  0  0  0  0  0
  194.1800  176.0590  144.9220 C   0  0  0  0  0  2  0  0  0  0  0  0
  194.7550  175.5340  143.5990 C   0  0  1  0  0  3  0  0  0  0  0  0
  192.9780  175.4070  145.2420 O   0  0  0  0  0  0  0  0  0  0  0  0
  191.9550  176.2560  144.7910 C   0  0  0  0  0  2  0  0  0  0  0  0
  193.6570  175.3070  142.5500 C   0  0  0  0  0  2  0  0  0  0  0  0
  192.7810  176.4020  142.5140 O   0  0  0  0  0  0  0  0  0  0  0  0
  195.7960  176.5230  143.0860 C   0  0  0  0  0  2  0  0  0  0  0  0
  197.0530  175.8140  142.5960 C   0  0  0  0  0  2  0  0  0  0  0  0
  197.3770  174.6090  143.4250 C   0  0  0  0  0  0  0  0  0  0  0  0
  197.4460  174.7130  144.6400 O   0  0  0  0  0  0  0  0  0  0  0  0
  197.5710  173.2550  142.7900 C   0  0  1  0  0  3  0  0  0  0  0  0
  196.8960  169.5400  146.1970 S   0  0  0  0  0  0  0  0  0  0  0  0
  197.6480  171.3540  144.3440 N   0  0  0  0  0  0  0  0  0  0  0  0
  195.3420  171.0150  144.5620 N   0  0  0  0  0  0  0  0  0  0  0  0
  196.9490  172.1410  143.5890 C   0  0  0  0  0  0  0  0  0  0  0  0
  195.5370  171.9520  143.7270 N   0  0  0  0  0  0  0  0  0  0  0  0
  196.6290  170.5850  144.9650 C   0  0  0  0  0  0  0  0  0  0  0  0
  197.9120  174.2070  140.6290 F   0  0  0  0  0  0  0  0  0  0  0  0
  197.1980  173.2330  141.3020 C   0  0  0  0  0  0  0  0  0  0  0  0
  197.4800  171.9860  140.7400 O   0  0  0  0  0  1  0  0  0  0  0  0
  195.8470  173.4960  141.1600 F   0  0  0  0  0  0  0  0  0  0  0  0
  2 13  1  0  0  0  0
  2  1  2  0  0  0  0
  3 11  1  0  0  0  0
  4 10  2  0  0  0  0
  5  9  2  0  0  0  0
  6  7  1  0  0  0  0
  6  8  1  0  0  0  0
  7  3  2  0  0  0  0
  8 12  2  0  0  0  0
 10  9  1  0  0  0  0
 11 13  2  0  0  0  0
 12 11  1  0  0  0  0
 12  4  1  0  0  0  0
 13  5  1  0  0  0  0
 14 15  1  1  0  0  0
 14  6  1  0  0  0  0
 16 17  1  1  0  0  0
 16 20  1  0  0  0  0
 16 14  1  0  0  0  0
 18 20  1  0  0  0  0
 20 19  1  0  0  0  0
 21 22  1  0  0  0  0
 22 14  1  0  0  0  0
 23  1  1  0  0  0  0
 24 23  1  0  0  0  0
 25 24  1  6  0  0  0
 25 26  1  0  0  0  0
 26 27  1  0  0  0  0
 28 27  1  0  0  0  0
 28 31  1  0  0  0  0
 31 29  1  0  0  0  0
 31 30  2  0  0  0  0
 32 34  1  0  0  0  0
 32 25  1  0  0  0  0
 34 33  2  0  0  0  0
 35 36  2  0  0  0  0
 35 34  1  0  0  0  0
 37 39  1  0  0  0  0
 37 36  1  0  0  0  0
 38 37  2  0  0  0  0
 40 42  1  0  0  0  0
 40 39  1  0  0  0  0
 42 41  1  0  0  0  0
 43 42  1  0  0  0  0
 43 41  1  0  0  0  0
 44  2  1  0  0  0  0
 44 45  1  0  0  0  0
 46 45  1  6  0  0  0
 46 50  1  0  0  0  0
 47 49  1  0  0  0  0
 48 53  1  6  0  0  0
 48 47  1  0  0  0  0
 50 49  1  0  0  0  0
 51 48  1  0  0  0  0
 52 51  1  0  0  0  0
 52 46  1  0  0  0  0
 54 53  1  0  0  0  0
 54 55  1  0  0  0  0
 55 56  2  0  0  0  0
 57 55  1  1  0  0  0
 57 61  1  0  0  0  0
 59 63  1  0  0  0  0
 60 63  1  0  0  0  0
 61 62  1  0  0  0  0
 61 59  2  0  0  0  0
 62 60  2  0  0  0  0
 63 58  2  0  0  0  0
 64 65  1  0  0  0  0
 65 57  1  0  0  0  0
 66 65  1  0  0  0  0
 67 65  1  0  0  0  0
M  END
>  <MODEL>
7

>  <REMARK>
 VINA RESULT:      -4.4      4.140      9.369
  Name = 
  28 active torsions:
  status: ('A' for Active; 'I' for Inactive)
    1  A    between atoms: C_1  and  C_46
    2  A    between atoms: C_3  and  N_42
    3  A    between atoms: C_3  and  N_50
    4  A    between atoms: C_6  and  C_45
    5  A    between atoms: C_8  and  C_45
    6  A    between atoms: C_8  and  C_64
    7  A    between atoms: C_8  and  C_65
    8  A    between atoms: C_12  and  C_62
    9  A    between atoms: C_13  and  C_48
   10  A    between atoms: C_14  and  O_52
   11  A    between atoms: C_16  and  C_51
   12  A    between atoms: N_17  and  C_62
   13  A    between atoms: C_21  and  C_63
   14  A    between atoms: C_22  and  C_54
   15  A    between atoms: C_22  and  C_62
   16  A    between atoms: C_26  and  C_46
   17  A    between atoms: C_26  and  C_57
   18  A    between atoms: C_30  and  C_51
   19  A    between atoms: C_30  and  C_61
   20  A    between atoms: C_34  and  O_38
   21  A    between atoms: C_34  and  C_56
   22  A    between atoms: O_38  and  C_65
   23  A    between atoms: N_42  and  N_67
   24  A    between atoms: C_47  and  C_51
   25  A    between atoms: C_48  and  N_50
   26  A    between atoms: O_52  and  C_64
   27  A    between atoms: C_57  and  C_60
   28  A    between atoms: C_61  and  C_63
                            x       y       z     vdW  Elec       q    Type
                         _______ _______ _______ _____ _____    ______ ____

>  <TORSDO>
F 28

$$$$
=
 OpenBabel11062422373D

 67 71  0  0  1  0  0  0  0  0999 V2000
  192.3590  175.2310  141.7730 C   0  0  0  0  0  3  0  0  0  0  0  0
  193.4020  174.8110  142.5260 C   0  0  0  0  0  0  0  0  0  0  0  0
  194.3460  174.4660  139.8960 N   0  0  0  0  0  0  0  0  0  0  0  0
  197.8030  175.7240  141.1710 C   0  0  0  0  0  3  0  0  0  0  0  0
  195.5240  175.9200  143.2080 C   0  0  0  0  0  3  0  0  0  0  0  0
  195.9960  174.5450  138.2060 N   0  0  0  0  0  0  0  0  0  0  0  0
  194.6750  174.2380  138.6650 C   0  0  0  0  0  3  0  0  0  0  0  0
  196.9320  175.0360  139.1370 N   0  0  0  0  0  0  0  0  0  0  0  0
  196.7850  176.3050  143.3350 C   0  0  0  0  0  3  0  0  0  0  0  0
  197.8360  176.1390  142.3930 N   0  0  0  0  0  0  0  0  0  0  0  0
  195.2600  175.0100  140.8670 C   0  0  0  0  0  0  0  0  0  0  0  0
  196.6470  175.2940  140.3790 C   0  0  0  0  0  0  0  0  0  0  0  0
  194.7880  175.2350  142.1250 C   0  0  0  0  0  0  0  0  0  0  0  0
  196.4620  174.0070  136.9150 C   0  0  2  0  0  0  0  0  0  0  0  0
  195.3810  174.0070  136.0330 O   0  0  0  0  0  1  0  0  0  0  0  0
  196.9470  172.5440  137.0590 C   0  0  1  0  0  3  0  0  0  0  0  0
  197.0560  172.1590  138.4020 O   0  0  0  0  0  1  0  0  0  0  0  0
  197.1710  170.7220  135.3750 C   0  0  0  0  0  1  0  0  0  0  0  0
  195.3610  170.5500  137.0550 C   0  0  0  0  0  1  0  0  0  0  0  0
  196.1890  171.5090  136.2160 C   0  0  0  0  0  3  0  0  0  0  0  0
  197.1500  175.4440  135.0820 O   0  0  0  0  0  1  0  0  0  0  0  0
  197.5520  174.8990  136.3020 C   0  0  0  0  0  2  0  0  0  0  0  0
  190.9900  175.0810  142.0480 O   0  0  0  0  0  0  0  0  0  0  0  0
  189.9970  174.7520  141.0830 C   0  0  0  0  0  2  0  0  0  0  0  0
  189.8620  173.2430  140.9480 C   0  0  2  0  0  3  0  0  0  0  0  0
  190.9250  172.7030  139.9970 C   0  0  0  0  0  2  0  0  0  0  0  0
  191.9550  172.0710  140.7010 O   0  0  0  0  0  0  0  0  0  0  0  0
  192.5010  171.1670  139.7910 C   0  0  0  0  0  2  0  0  0  0  0  0
  190.6300  169.5720  139.0050 C   0  0  0  0  0  1  0  0  0  0  0  0
  192.1510  169.0240  140.7090 O   0  0  0  0  0  0  0  0  0  0  0  0
  191.7910  169.8570  139.8920 C   0  0  0  0  0  0  0  0  0  0  0  0
  188.4760  172.8950  140.4300 C   0  0  0  0  0  2  0  0  0  0  0  0
  188.4490  171.3950  138.5790 O   0  0  0  0  0  0  0  0  0  0  0  0
  188.5040  172.5880  138.9730 C   0  0  0  0  0  0  0  0  0  0  0  0
  188.6430  173.6500  138.0320 N   0  0  0  0  0  2  0  0  0  0  0  0
  188.9100  173.3780  136.6850 N   0  0  0  0  0  2  0  0  0  0  0  0
  190.2360  173.1170  136.2290 C   0  0  0  0  0  0  0  0  0  0  0  0
  191.1250  174.3600  135.6280 S   0  0  0  0  0  0  0  0  0  0  0  0
  190.7920  171.8030  136.3650 N   0  0  0  0  0  2  0  0  0  0  0  0
  191.0600  170.9370  135.2300 C   0  0  0  0  0  2  0  0  0  0  0  0
  192.8170  169.2860  135.7360 C   0  0  0  0  0  2  0  0  0  0  0  0
  191.3210  169.5280  135.7230 C   0  0  0  0  0  3  0  0  0  0  0  0
  191.9740  168.7280  134.6120 C   0  0  0  0  0  2  0  0  0  0  0  0
  193.2020  174.0510  143.8110 C   0  0  0  0  0  2  0  0  0  0  0  0
  193.1120  174.9870  145.0170 C   0  0  0  0  0  2  0  0  0  0  0  0
  191.8240  174.8400  145.8270 C   0  0  2  0  0  3  0  0  0  0  0  0
  188.8470  174.6510  145.9230 C   0  0  0  0  0  2  0  0  0  0  0  0
  189.0580  175.7470  146.9770 C   0  0  1  0  0  3  0  0  0  0  0  0
  189.7620  173.6010  146.0990 O   0  0  0  0  0  0  0  0  0  0  0  0
  190.8130  173.8600  145.2040 C   0  0  0  0  0  2  0  0  0  0  0  0
  190.5490  176.0110  147.2340 C   0  0  0  0  0  2  0  0  0  0  0  0
  191.2460  176.1040  146.0210 O   0  0  0  0  0  0  0  0  0  0  0  0
  188.3570  177.0190  146.5150 C   0  0  0  0  0  2  0  0  0  0  0  0
  186.9980  177.1890  147.1840 C   0  0  0  0  0  2  0  0  0  0  0  0
  185.8910  177.3130  146.1820 C   0  0  0  0  0  0  0  0  0  0  0  0
  184.8610  176.6760  146.3390 O   0  0  0  0  0  0  0  0  0  0  0  0
  186.0040  178.2510  145.0070 C   0  0  1  0  0  3  0  0  0  0  0  0
  187.2590  177.2200  140.1880 S   0  0  0  0  0  0  0  0  0  0  0  0
  186.4730  178.1490  142.5980 N   0  0  0  0  0  0  0  0  0  0  0  0
  186.5360  175.8190  142.3750 N   0  0  0  0  0  0  0  0  0  0  0  0
  186.1900  177.5290  143.6990 C   0  0  0  0  0  0  0  0  0  0  0  0
  186.2410  176.1030  143.5760 N   0  0  0  0  0  0  0  0  0  0  0  0
  186.6710  177.0610  141.7080 C   0  0  0  0  0  0  0  0  0  0  0  0
  185.3130  180.4050  144.2470 F   0  0  0  0  0  0  0  0  0  0  0  0
  184.8920  179.3080  144.9770 C   0  0  0  0  0  0  0  0  0  0  0  0
  183.7320  178.7890  144.3980 O   0  0  0  0  0  1  0  0  0  0  0  0
  184.6080  179.7190  146.2670 F   0  0  0  0  0  0  0  0  0  0  0  0
  1 23  1  0  0  0  0
  1  2  2  0  0  0  0
  2 44  1  0  0  0  0
  3 11  1  0  0  0  0
  4 10  2  0  0  0  0
  5  9  2  0  0  0  0
  6  7  1  0  0  0  0
  6  8  1  0  0  0  0
  7  3  2  0  0  0  0
  8 12  2  0  0  0  0
 10  9  1  0  0  0  0
 11 13  2  0  0  0  0
 12 11  1  0  0  0  0
 12  4  1  0  0  0  0
 13  2  1  0  0  0  0
 13  5  1  0  0  0  0
 14 15  1  6  0  0  0
 14 16  1  0  0  0  0
 14  6  1  0  0  0  0
 16 17  1  1  0  0  0
 18 20  1  0  0  0  0
 20 19  1  0  0  0  0
 20 16  1  0  0  0  0
 21 22  1  0  0  0  0
 22 14  1  0  0  0  0
 24 23  1  0  0  0  0
 25 26  1  6  0  0  0
 25 24  1  0  0  0  0
 26 27  1  0  0  0  0
 28 31  1  0  0  0  0
 28 27  1  0  0  0  0
 29 31  1  0  0  0  0
 31 30  2  0  0  0  0
 32 25  1  0  0  0  0
 33 34  2  0  0  0  0
 34 32  1  0  0  0  0
 35 34  1  0  0  0  0
 36 35  1  0  0  0  0
 37 39  1  0  0  0  0
 37 36  1  0  0  0  0
 38 37  2  0  0  0  0
 40 42  1  0  0  0  0
 40 39  1  0  0  0  0
 42 41  1  0  0  0  0
 43 42  1  0  0  0  0
 43 41  1  0  0  0  0
 44 45  1  0  0  0  0
 46 45  1  6  0  0  0
 46 52  1  0  0  0  0
 47 49  1  0  0  0  0
 47 48  1  0  0  0  0
 48 53  1  6  0  0  0
 48 51  1  0  0  0  0
 50 46  1  0  0  0  0
 50 49  1  0  0  0  0
 52 51  1  0  0  0  0
 53 54  1  0  0  0  0
 55 56  2  0  0  0  0
 55 54  1  0  0  0  0
 57 55  1  1  0  0  0
 58 63  2  0  0  0  0
 59 61  2  0  0  0  0
 60 62  2  0  0  0  0
 61 57  1  0  0  0  0
 62 61  1  0  0  0  0
 63 60  1  0  0  0  0
 63 59  1  0  0  0  0
 64 65  1  0  0  0  0
 65 57  1  0  0  0  0
 65 67  1  0  0  0  0
 66 65  1  0  0  0  0
M  END
>  <MODEL>
8

>  <REMARK>
 VINA RESULT:      -4.3      2.885      6.125
  Name = 
  28 active torsions:
  status: ('A' for Active; 'I' for Inactive)
    1  A    between atoms: C_1  and  C_46
    2  A    between atoms: C_3  and  N_42
    3  A    between atoms: C_3  and  N_50
    4  A    between atoms: C_6  and  C_45
    5  A    between atoms: C_8  and  C_45
    6  A    between atoms: C_8  and  C_64
    7  A    between atoms: C_8  and  C_65
    8  A    between atoms: C_12  and  C_62
    9  A    between atoms: C_13  and  C_48
   10  A    between atoms: C_14  and  O_52
   11  A    between atoms: C_16  and  C_51
   12  A    between atoms: N_17  and  C_62
   13  A    between atoms: C_21  and  C_63
   14  A    between atoms: C_22  and  C_54
   15  A    between atoms: C_22  and  C_62
   16  A    between atoms: C_26  and  C_46
   17  A    between atoms: C_26  and  C_57
   18  A    between atoms: C_30  and  C_51
   19  A    between atoms: C_30  and  C_61
   20  A    between atoms: C_34  and  O_38
   21  A    between atoms: C_34  and  C_56
   22  A    between atoms: O_38  and  C_65
   23  A    between atoms: N_42  and  N_67
   24  A    between atoms: C_47  and  C_51
   25  A    between atoms: C_48  and  N_50
   26  A    between atoms: O_52  and  C_64
   27  A    between atoms: C_57  and  C_60
   28  A    between atoms: C_61  and  C_63
                            x       y       z     vdW  Elec       q    Type
                         _______ _______ _______ _____ _____    ______ ____

>  <TORSDO>
F 28

$$$$
=
 OpenBabel11062422373D

 67 71  0  0  1  0  0  0  0  0999 V2000
  191.8140  174.2710  144.9350 C   0  0  0  0  0  3  0  0  0  0  0  0
  193.0510  173.8550  144.5770 C   0  0  0  0  0  0  0  0  0  0  0  0
  192.2450  173.0630  141.9970 N   0  0  0  0  0  0  0  0  0  0  0  0
  193.1420  169.4200  143.0400 C   0  0  0  0  0  3  0  0  0  0  0  0
  193.9180  171.5750  145.0720 C   0  0  0  0  0  3  0  0  0  0  0  0
  191.8730  171.4800  140.2830 N   0  0  0  0  0  0  0  0  0  0  0  0
  191.8200  172.8130  140.8010 C   0  0  0  0  0  3  0  0  0  0  0  0
  192.3360  170.4520  141.1270 N   0  0  0  0  0  0  0  0  0  0  0  0
  194.1300  170.2690  145.1270 C   0  0  0  0  0  3  0  0  0  0  0  0
  193.6970  169.2860  144.1960 N   0  0  0  0  0  0  0  0  0  0  0  0
  192.7690  172.0480  142.8740 C   0  0  0  0  0  0  0  0  0  0  0  0
  192.7870  170.6530  142.3300 C   0  0  0  0  0  0  0  0  0  0  0  0
  193.2170  172.4380  144.1000 C   0  0  0  0  0  0  0  0  0  0  0  0
  191.1150  171.1400  139.0650 C   0  0  2  0  0  0  0  0  0  0  0  0
  190.2980  170.0490  139.3560 O   0  0  0  0  0  1  0  0  0  0  0  0
  192.0630  170.7200  137.9150 C   0  0  1  0  0  3  0  0  0  0  0  0
  193.0170  169.7840  138.3380 O   0  0  0  0  0  1  0  0  0  0  0  0
  192.0400  170.9900  135.4390 C   0  0  0  0  0  1  0  0  0  0  0  0
  191.3910  168.7960  136.3850 C   0  0  0  0  0  1  0  0  0  0  0  0
  191.3740  170.2990  136.6090 C   0  0  0  0  0  3  0  0  0  0  0  0
  190.8490  173.1840  137.7800 O   0  0  0  0  0  1  0  0  0  0  0  0
  190.1990  172.2970  138.6390 C   0  0  0  0  0  2  0  0  0  0  0  0
  191.4110  175.5760  145.2610 O   0  0  0  0  0  0  0  0  0  0  0  0
  191.1130  176.5970  144.3150 C   0  0  0  0  0  2  0  0  0  0  0  0
  189.6300  176.9340  144.3410 C   0  0  2  0  0  3  0  0  0  0  0  0
  189.1170  176.9400  145.7770 C   0  0  0  0  0  2  0  0  0  0  0  0
  188.1280  175.9680  145.9610 O   0  0  0  0  0  0  0  0  0  0  0  0
  187.5830  176.2530  147.2120 C   0  0  0  0  0  2  0  0  0  0  0  0
  186.1440  178.3040  147.8360 C   0  0  0  0  0  1  0  0  0  0  0  0
  185.4580  176.6800  146.2830 O   0  0  0  0  0  0  0  0  0  0  0  0
  186.3330  177.0540  147.0490 C   0  0  0  0  0  0  0  0  0  0  0  0
  188.8570  175.9180  143.5160 C   0  0  0  0  0  2  0  0  0  0  0  0
  188.0680  176.6840  141.4030 O   0  0  0  0  0  0  0  0  0  0  0  0
  187.8550  176.5830  142.6390 C   0  0  0  0  0  0  0  0  0  0  0  0
  186.6790  177.1500  143.2130 N   0  0  0  0  0  0  0  0  0  0  0  0
  185.8460  177.9820  142.4560 N   0  0  0  0  0  0  0  0  0  0  0  0
  184.8790  178.8260  143.0770 C   0  0  0  0  0  0  0  0  0  0  0  0
  185.3220  179.7050  144.3910 S   0  0  0  0  0  0  0  0  0  0  0  0
  183.5670  178.9460  142.5100 N   0  0  0  0  0  2  0  0  0  0  0  0
  183.0370  178.0080  141.5370 C   0  0  0  0  0  2  0  0  0  0  0  0
  180.9660  178.3700  140.2540 C   0  0  0  0  0  2  0  0  0  0  0  0
  181.5240  178.0040  141.6150 C   0  0  0  0  0  3  0  0  0  0  0  0
  181.0110  179.4080  141.3520 C   0  0  0  0  0  2  0  0  0  0  0  0
  194.2230  174.7990  144.5170 C   0  0  0  0  0  2  0  0  0  0  0  0
  195.5430  174.0540  144.3150 C   0  0  0  0  0  2  0  0  0  0  0  0
  196.5000  174.7320  143.3360 C   0  0  2  0  0  3  0  0  0  0  0  0
  196.9430  176.4740  140.9540 C   0  0  0  0  0  2  0  0  0  0  0  0
  197.8180  175.2780  140.5510 C   0  0  1  0  0  3  0  0  0  0  0  0
  197.1530  176.8190  142.2980 O   0  0  0  0  0  0  0  0  0  0  0  0
  196.1230  176.1910  143.0160 C   0  0  0  0  0  2  0  0  0  0  0  0
  197.8750  174.2150  141.6570 C   0  0  0  0  0  2  0  0  0  0  0  0
  196.5920  173.9670  142.1640 O   0  0  0  0  0  0  0  0  0  0  0  0
  197.2740  174.6830  139.2570 C   0  0  0  0  0  2  0  0  0  0  0  0
  195.7650  174.4860  139.3180 C   0  0  0  0  0  2  0  0  0  0  0  0
  195.3360  173.2170  138.6480 C   0  0  0  0  0  0  0  0  0  0  0  0
  195.2890  172.1800  139.2920 O   0  0  0  0  0  0  0  0  0  0  0  0
  194.9130  173.2020  137.2010 C   0  0  1  0  0  3  0  0  0  0  0  0
  195.6930  177.4530  134.5210 S   0  0  0  0  0  0  0  0  0  0  0  0
  195.7000  175.1970  136.0040 N   0  0  0  0  0  0  0  0  0  0  0  0
  193.6660  176.3510  135.9150 N   0  0  0  0  0  0  0  0  0  0  0  0
  194.7450  174.5840  136.6280 C   0  0  0  0  0  0  0  0  0  0  0  0
  193.4930  175.2750  136.5660 N   0  0  0  0  0  0  0  0  0  0  0  0
  195.0360  176.3690  135.5570 C   0  0  0  0  0  0  0  0  0  0  0  0
  195.5600  172.5540  134.9970 F   0  0  0  0  0  0  0  0  0  0  0  0
  195.7750  172.2740  136.3350 C   0  0  0  0  0  0  0  0  0  0  0  0
  197.1300  172.4440  136.6270 O   0  0  0  0  0  1  0  0  0  0  0  0
  195.4230  170.9580  136.5730 F   0  0  0  0  0  0  0  0  0  0  0  0
  1 23  1  0  0  0  0
  2  1  2  0  0  0  0
  3 11  1  0  0  0  0
  4 10  2  0  0  0  0
  5  9  2  0  0  0  0
  6  7  1  0  0  0  0
  6  8  1  0  0  0  0
  7  3  2  0  0  0  0
  8 12  2  0  0  0  0
 10  9  1  0  0  0  0
 11 13  2  0  0  0  0
 12 11  1  0  0  0  0
 12  4  1  0  0  0  0
 13  2  1  0  0  0  0
 13  5  1  0  0  0  0
 14 15  1  1  0  0  0
 14  6  1  0  0  0  0
 16 17  1  1  0  0  0
 16 14  1  0  0  0  0
 18 20  1  0  0  0  0
 19 20  1  0  0  0  0
 20 16  1  0  0  0  0
 21 22  1  0  0  0  0
 22 14  1  0  0  0  0
 24 25  1  0  0  0  0
 24 23  1  0  0  0  0
 25 32  1  6  0  0  0
 25 26  1  0  0  0  0
 26 27  1  0  0  0  0
 27 28  1  0  0  0  0
 30 31  2  0  0  0  0
 31 28  1  0  0  0  0
 31 29  1  0  0  0  0
 33 34  2  0  0  0  0
 34 35  1  0  0  0  0
 34 32  1  0  0  0  0
 36 37  1  0  0  0  0
 36 35  2  0  0  0  0
 37 38  2  0  0  0  0
 39 37  1  0  0  0  0
 40 42  1  0  0  0  0
 40 39  1  0  0  0  0
 41 43  1  0  0  0  0
 41 42  1  0  0  0  0
 43 42  1  0  0  0  0
 44  2  1  0  0  0  0
 45 44  1  0  0  0  0
 46 45  1  1  0  0  0
 47 49  1  0  0  0  0
 48 53  1  6  0  0  0
 48 47  1  0  0  0  0
 48 51  1  0  0  0  0
 49 50  1  0  0  0  0
 50 46  1  0  0  0  0
 51 52  1  0  0  0  0
 52 46  1  0  0  0  0
 53 54  1  0  0  0  0
 55 56  2  0  0  0  0
 55 54  1  0  0  0  0
 57 55  1  1  0  0  0
 58 63  2  0  0  0  0
 59 61  2  0  0  0  0
 60 62  2  0  0  0  0
 61 57  1  0  0  0  0
 62 61  1  0  0  0  0
 63 60  1  0  0  0  0
 63 59  1  0  0  0  0
 64 65  1  0  0  0  0
 65 67  1  0  0  0  0
 65 66  1  0  0  0  0
 65 57  1  0  0  0  0
M  END
>  <MODEL>
9

>  <REMARK>
 VINA RESULT:      -4.3      4.004      9.972
  Name = 
  28 active torsions:
  status: ('A' for Active; 'I' for Inactive)
    1  A    between atoms: C_1  and  C_46
    2  A    between atoms: C_3  and  N_42
    3  A    between atoms: C_3  and  N_50
    4  A    between atoms: C_6  and  C_45
    5  A    between atoms: C_8  and  C_45
    6  A    between atoms: C_8  and  C_64
    7  A    between atoms: C_8  and  C_65
    8  A    between atoms: C_12  and  C_62
    9  A    between atoms: C_13  and  C_48
   10  A    between atoms: C_14  and  O_52
   11  A    between atoms: C_16  and  C_51
   12  A    between atoms: N_17  and  C_62
   13  A    between atoms: C_21  and  C_63
   14  A    between atoms: C_22  and  C_54
   15  A    between atoms: C_22  and  C_62
   16  A    between atoms: C_26  and  C_46
   17  A    between atoms: C_26  and  C_57
   18  A    between atoms: C_30  and  C_51
   19  A    between atoms: C_30  and  C_61
   20  A    between atoms: C_34  and  O_38
   21  A    between atoms: C_34  and  C_56
   22  A    between atoms: O_38  and  C_65
   23  A    between atoms: N_42  and  N_67
   24  A    between atoms: C_47  and  C_51
   25  A    between atoms: C_48  and  N_50
   26  A    between atoms: O_52  and  C_64
   27  A    between atoms: C_57  and  C_60
   28  A    between atoms: C_61  and  C_63
                            x       y       z     vdW  Elec       q    Type
                         _______ _______ _______ _____ _____    ______ ____

>  <TORSDO>
F 28

$$$$
