=
 OpenBabel11072408433D

 36 39  0  0  1  0  0  0  0  0999 V2000
  192.3580  173.2490  141.5240 C   0  0  0  0  0  0  0  0  0  0  0  0
  195.0460  172.5440  144.9830 C   0  0  0  0  0  2  0  0  0  0  0  0
  193.6680  174.4310  145.6320 N   0  0  0  0  0  2  0  0  0  0  0  0
  190.7330  177.4160  144.9000 C   0  0  0  0  0  3  0  0  0  0  0  0
  193.4680  175.3770  141.8590 F   0  0  0  0  0  0  0  0  0  0  0  0
  196.8160  171.0820  146.1380 C   0  0  0  0  0  1  0  0  0  0  0  0
  196.4180  171.9320  144.9820 C   0  0  0  0  0  0  0  0  0  0  0  0
  188.6640  175.2730  142.2490 C   0  0  0  0  0  0  0  0  0  0  0  0
  186.7930  178.2590  143.6920 S   0  0  0  0  0  0  0  0  0  0  0  0
  191.1400  172.5550  141.3910 C   0  0  0  0  0  0  0  0  0  0  0  0
  186.6200  175.6330  142.7650 N   0  0  0  0  0  0  0  0  0  0  0  0
  197.0100  172.8270  142.6930 C   0  0  0  0  0  2  0  0  0  0  0  0
  187.2110  177.7020  145.3540 C   0  0  0  0  0  0  0  0  0  0  0  0
  187.4440  174.7010  142.3070 N   0  0  0  0  0  0  0  0  0  0  0  0
  189.9230  173.2170  141.5870 C   0  0  0  0  0  3  0  0  0  0  0  0
  195.9530  172.1470  141.8380 C   0  0  0  0  0  2  0  0  0  0  0  0
  189.7210  177.3200  145.9640 C   0  0  0  0  0  0  0  0  0  0  0  0
  193.6390  175.5880  146.5110 C   0  0  0  0  0  2  0  0  0  0  0  0
  191.9630  176.9400  145.1050 C   0  0  0  0  0  3  0  0  0  0  0  0
  195.7390  174.8130  144.6320 O   0  0  0  0  0  1  0  0  0  0  0  0
  192.3300  174.6430  141.7630 C   0  0  0  0  0  0  0  0  0  0  0  0
  191.4600  176.2640  147.4090 C   0  0  0  0  0  3  0  0  0  0  0  0
  192.3260  176.2860  146.3840 C   0  0  0  0  0  0  0  0  0  0  0  0
  188.6220  176.5240  142.6320 O   0  0  0  0  0  0  0  0  0  0  0  0
  187.3730  176.7310  142.9610 C   0  0  0  0  0  0  0  0  0  0  0  0
  197.2760  172.0530  143.9560 C   0  0  0  0  0  3  0  0  0  0  0  0
  191.1350  171.1940  141.0930 O   0  0  0  0  0  1  0  0  0  0  0  0
  188.4670  177.5410  145.6800 C   0  0  0  0  0  0  0  0  0  0  0  0
  191.1130  175.2900  141.9580 C   0  0  0  0  0  3  0  0  0  0  0  0
  194.7250  172.9840  141.8520 C   0  0  0  0  0  3  0  0  0  0  0  0
  195.0460  173.9770  145.5100 C   0  0  2  0  0  3  0  0  0  0  0  0
  189.9080  174.5850  141.8920 C   0  0  0  0  0  0  0  0  0  0  0  0
  190.1300  176.9760  147.3660 C   0  0  0  0  0  2  0  0  0  0  0  0
  193.5870  172.5030  141.4730 N   0  0  0  0  0  0  0  0  0  0  0  0
  186.1930  177.2810  146.2660 N   0  0  0  0  0  2  0  0  0  0  0  0
  184.8080  177.7040  146.1380 C   0  0  0  0  0  1  0  0  0  0  0  0
  1 21  1  0  0  0  0
  2 31  1  0  0  0  0
  3 18  1  0  0  0  0
  4 19  2  0  0  0  0
  4 17  1  0  0  0  0
  7  2  1  0  0  0  0
  7  6  1  0  0  0  0
  8 14  2  0  0  0  0
  8 24  1  0  0  0  0
  9 13  1  0  0  0  0
 10  1  2  0  0  0  0
 10 15  1  0  0  0  0
 11 25  2  0  0  0  0
 12 26  1  0  0  0  0
 13 28  2  0  0  0  0
 13 35  1  0  0  0  0
 14 11  1  0  0  0  0
 15 32  2  0  0  0  0
 16 30  1  0  0  0  0
 16 12  1  0  0  0  0
 17 33  1  0  0  0  0
 19 23  1  0  0  0  0
 21  5  1  0  0  0  0
 21 29  2  0  0  0  0
 23 18  1  0  0  0  0
 23 22  2  0  0  0  0
 24 25  1  0  0  0  0
 25  9  1  0  0  0  0
 26  7  2  0  0  0  0
 27 10  1  0  0  0  0
 28 17  2  0  0  0  0
 31 20  1  6  0  0  0
 31  3  1  0  0  0  0
 32 29  1  0  0  0  0
 32  8  1  0  0  0  0
 33 22  1  0  0  0  0
 34  1  1  0  0  0  0
 34 30  2  0  0  0  0
 36 35  1  0  0  0  0
M  END
>  <MODEL>
1

>  <REMARK>
 VINA RESULT:      -8.7      0.000      0.000
  Name = 
  1 active torsions:
  status: ('A' for Active; 'I' for Inactive)
    1  A    between atoms: C_13  and  N_22
                            x       y       z     vdW  Elec       q    Type
                         _______ _______ _______ _____ _____    ______ ____

>  <TORSDO>
F 1

$$$$
=
 OpenBabel11072408433D

 36 39  0  0  1  0  0  0  0  0999 V2000
  191.7030  174.7270  145.9080 C   0  0  0  0  0  0  0  0  0  0  0  0
  192.7830  174.5190  141.6100 C   0  0  0  0  0  2  0  0  0  0  0  0
  190.3960  174.9420  141.6390 N   0  0  0  0  0  2  0  0  0  0  0  0
  186.6500  175.4240  143.5870 C   0  0  0  0  0  3  0  0  0  0  0  0
  190.2540  173.0030  145.0130 F   0  0  0  0  0  0  0  0  0  0  0  0
  194.5990  174.3740  139.7970 C   0  0  0  0  0  1  0  0  0  0  0  0
  193.9170  173.7670  140.9740 C   0  0  0  0  0  0  0  0  0  0  0  0
  188.1690  176.8810  146.9740 C   0  0  0  0  0  0  0  0  0  0  0  0
  184.4410  177.4960  146.5070 S   0  0  0  0  0  0  0  0  0  0  0  0
  191.8070  175.9310  146.6310 C   0  0  0  0  0  0  0  0  0  0  0  0
  186.8560  178.4900  147.4880 N   0  0  0  0  0  0  0  0  0  0  0  0
  193.8630  171.8930  142.6690 C   0  0  0  0  0  2  0  0  0  0  0  0
  184.7690  178.1670  144.8660 C   0  0  0  0  0  0  0  0  0  0  0  0
  188.1270  178.1120  147.5260 N   0  0  0  0  0  0  0  0  0  0  0  0
  190.6560  176.6240  147.0200 C   0  0  0  0  0  3  0  0  0  0  0  0
  194.1730  172.6540  143.9470 C   0  0  0  0  0  2  0  0  0  0  0  0
  186.0740  176.7030  143.1410 C   0  0  0  0  0  0  0  0  0  0  0  0
  189.1890  174.7890  140.8430 C   0  0  0  0  0  2  0  0  0  0  0  0
  187.5620  174.8050  142.8340 C   0  0  0  0  0  3  0  0  0  0  0  0
  191.1700  172.7460  141.5110 O   0  0  0  0  0  1  0  0  0  0  0  0
  190.4210  174.1820  145.6660 C   0  0  0  0  0  0  0  0  0  0  0  0
  187.4610  176.5120  141.0760 C   0  0  0  0  0  3  0  0  0  0  0  0
  188.0310  175.3980  141.5610 C   0  0  0  0  0  0  0  0  0  0  0  0
  186.9770  176.4790  146.6170 O   0  0  0  0  0  0  0  0  0  0  0  0
  186.1830  177.4720  146.9200 C   0  0  0  0  0  0  0  0  0  0  0  0
  194.3970  172.6100  141.4590 C   0  0  0  0  0  3  0  0  0  0  0  0
  193.0580  176.4600  146.9390 O   0  0  0  0  0  1  0  0  0  0  0  0
  185.3920  177.4280  143.9840 C   0  0  0  0  0  0  0  0  0  0  0  0
  189.2830  174.8820  146.0560 C   0  0  0  0  0  3  0  0  0  0  0  0
  192.9010  173.1930  144.4950 C   0  0  0  0  0  3  0  0  0  0  0  0
  191.4190  174.0580  141.1000 C   0  0  2  0  0  3  0  0  0  0  0  0
  189.3880  176.1100  146.7150 C   0  0  0  0  0  0  0  0  0  0  0  0
  186.2670  177.1650  141.7270 C   0  0  0  0  0  2  0  0  0  0  0  0
  192.9030  174.1280  145.3890 N   0  0  0  0  0  0  0  0  0  0  0  0
  184.5070  179.5410  144.5680 N   0  0  0  0  0  2  0  0  0  0  0  0
  185.5670  180.4880  144.2630 C   0  0  0  0  0  1  0  0  0  0  0  0
  1 10  1  0  0  0  0
  5 21  1  0  0  0  0
  6  7  1  0  0  0  0
  7 26  2  0  0  0  0
  7  2  1  0  0  0  0
  8 14  2  0  0  0  0
  9 25  1  0  0  0  0
 10 27  1  0  0  0  0
 10 15  2  0  0  0  0
 11 14  1  0  0  0  0
 12 16  1  0  0  0  0
 13  9  1  0  0  0  0
 16 30  1  0  0  0  0
 17  4  1  0  0  0  0
 17 28  2  0  0  0  0
 18 23  1  0  0  0  0
 18  3  1  0  0  0  0
 19  4  2  0  0  0  0
 21  1  2  0  0  0  0
 21 29  1  0  0  0  0
 22 23  2  0  0  0  0
 22 33  1  0  0  0  0
 23 19  1  0  0  0  0
 24 25  1  0  0  0  0
 24  8  1  0  0  0  0
 25 11  2  0  0  0  0
 26 12  1  0  0  0  0
 28 13  2  0  0  0  0
 29 32  2  0  0  0  0
 30 34  2  0  0  0  0
 31 20  1  1  0  0  0
 31  2  1  0  0  0  0
 31  3  1  0  0  0  0
 32  8  1  0  0  0  0
 32 15  1  0  0  0  0
 33 17  1  0  0  0  0
 34  1  1  0  0  0  0
 35 13  1  0  0  0  0
 36 35  1  0  0  0  0
M  END
>  <MODEL>
2

>  <REMARK>
 VINA RESULT:      -8.1      2.408      5.207
  Name = 
  1 active torsions:
  status: ('A' for Active; 'I' for Inactive)
    1  A    between atoms: C_13  and  N_22
                            x       y       z     vdW  Elec       q    Type
                         _______ _______ _______ _____ _____    ______ ____

>  <TORSDO>
F 1

$$$$
=
 OpenBabel11072408433D

 36 39  0  0  1  0  0  0  0  0999 V2000
  192.6080  171.8850  141.5460 C   0  0  0  0  0  0  0  0  0  0  0  0
  195.1570  171.4320  145.1490 C   0  0  0  0  0  2  0  0  0  0  0  0
  194.0830  173.5910  145.4060 N   0  0  0  0  0  2  0  0  0  0  0  0
  191.6380  176.7970  144.0640 C   0  0  0  0  0  3  0  0  0  0  0  0
  194.0290  173.8470  141.5210 F   0  0  0  0  0  0  0  0  0  0  0  0
  196.6850  169.9580  146.5990 C   0  0  0  0  0  1  0  0  0  0  0  0
  196.4200  170.6320  145.2980 C   0  0  0  0  0  0  0  0  0  0  0  0
  189.2660  174.5380  141.7890 C   0  0  0  0  0  0  0  0  0  0  0  0
  187.8730  177.9840  142.6130 S   0  0  0  0  0  0  0  0  0  0  0  0
  191.2980  171.3680  141.5070 C   0  0  0  0  0  0  0  0  0  0  0  0
  187.3010  175.2890  142.1740 N   0  0  0  0  0  0  0  0  0  0  0  0
  197.1410  170.9920  142.9020 C   0  0  0  0  0  2  0  0  0  0  0  0
  188.2010  177.6860  144.3600 C   0  0  0  0  0  0  0  0  0  0  0  0
  187.9730  174.1760  141.9160 N   0  0  0  0  0  0  0  0  0  0  0  0
  190.1970  172.2300  141.5460 C   0  0  0  0  0  3  0  0  0  0  0  0
  195.9940  170.3320  142.1560 C   0  0  0  0  0  2  0  0  0  0  0  0
  190.6240  177.0500  145.0990 C   0  0  0  0  0  0  0  0  0  0  0  0
  194.2320  174.8810  146.0600 C   0  0  0  0  0  2  0  0  0  0  0  0
  192.7820  176.1870  144.3860 C   0  0  0  0  0  3  0  0  0  0  0  0
  196.1890  173.4680  144.4120 O   0  0  0  0  0  1  0  0  0  0  0  0
  192.7930  173.2870  141.5280 C   0  0  0  0  0  0  0  0  0  0  0  0
  192.1820  176.0290  146.7590 C   0  0  0  0  0  3  0  0  0  0  0  0
  193.0400  175.7320  145.7710 C   0  0  0  0  0  0  0  0  0  0  0  0
  189.4150  175.8300  141.9380 O   0  0  0  0  0  0  0  0  0  0  0  0
  188.2130  176.2790  142.1880 C   0  0  0  0  0  0  0  0  0  0  0  0
  197.2870  170.4320  144.2910 C   0  0  0  0  0  3  0  0  0  0  0  0
  191.0870  169.9930  141.4610 O   0  0  0  0  0  1  0  0  0  0  0  0
  189.4180  177.4000  144.7440 C   0  0  0  0  0  0  0  0  0  0  0  0
  191.6890  174.1340  141.5680 C   0  0  0  0  0  3  0  0  0  0  0  0
  194.9080  171.3330  141.9830 C   0  0  0  0  0  3  0  0  0  0  0  0
  195.3760  172.9210  145.4080 C   0  0  2  0  0  3  0  0  0  0  0  0
  190.3900  173.6170  141.5970 C   0  0  0  0  0  0  0  0  0  0  0  0
  190.9760  176.9120  146.5510 C   0  0  0  0  0  2  0  0  0  0  0  0
  193.7090  170.9660  141.6660 N   0  0  0  0  0  0  0  0  0  0  0  0
  187.1310  177.5970  145.3040 N   0  0  0  0  0  2  0  0  0  0  0  0
  187.0960  176.5870  146.3500 C   0  0  0  0  0  1  0  0  0  0  0  0
  1 34  1  0  0  0  0
  2  7  1  0  0  0  0
  2 31  1  0  0  0  0
  3 31  1  0  0  0  0
  3 18  1  0  0  0  0
  4 19  2  0  0  0  0
  4 17  1  0  0  0  0
  5 21  1  0  0  0  0
  7  6  1  0  0  0  0
  8 14  2  0  0  0  0
  8 24  1  0  0  0  0
  9 13  1  0  0  0  0
 10  1  2  0  0  0  0
 10 15  1  0  0  0  0
 11 25  2  0  0  0  0
 12 26  1  0  0  0  0
 13 28  2  0  0  0  0
 13 35  1  0  0  0  0
 14 11  1  0  0  0  0
 15 32  2  0  0  0  0
 16 12  1  0  0  0  0
 17 33  1  0  0  0  0
 19 23  1  0  0  0  0
 21  1  1  0  0  0  0
 21 29  2  0  0  0  0
 23 18  1  0  0  0  0
 23 22  2  0  0  0  0
 24 25  1  0  0  0  0
 25  9  1  0  0  0  0
 26  7  2  0  0  0  0
 27 10  1  0  0  0  0
 28 17  2  0  0  0  0
 29 32  1  0  0  0  0
 30 16  1  0  0  0  0
 31 20  1  6  0  0  0
 32  8  1  0  0  0  0
 33 22  1  0  0  0  0
 34 30  2  0  0  0  0
 35 36  1  0  0  0  0
M  END
>  <MODEL>
3

>  <REMARK>
 VINA RESULT:      -8.0      1.244      1.373
  Name = 
  1 active torsions:
  status: ('A' for Active; 'I' for Inactive)
    1  A    between atoms: C_13  and  N_22
                            x       y       z     vdW  Elec       q    Type
                         _______ _______ _______ _____ _____    ______ ____

>  <TORSDO>
F 1

$$$$
=
 OpenBabel11072408433D

 36 39  0  0  1  0  0  0  0  0999 V2000
  194.7430  174.7870  145.1530 C   0  0  0  0  0  0  0  0  0  0  0  0
  195.4800  170.9020  143.1420 C   0  0  0  0  0  2  0  0  0  0  0  0
  193.0870  171.2540  142.9710 N   0  0  0  0  0  2  0  0  0  0  0  0
  189.4940  173.3690  143.7950 C   0  0  0  0  0  3  0  0  0  0  0  0
  193.3010  173.2300  146.3210 F   0  0  0  0  0  0  0  0  0  0  0  0
  197.1480  169.1670  142.2390 C   0  0  0  0  0  1  0  0  0  0  0  0
  196.5900  169.9220  143.3950 C   0  0  0  0  0  0  0  0  0  0  0  0
  191.2200  176.9530  144.0760 C   0  0  0  0  0  0  0  0  0  0  0  0
  187.4440  177.0370  143.5980 S   0  0  0  0  0  0  0  0  0  0  0  0
  194.8550  176.0050  144.4540 C   0  0  0  0  0  0  0  0  0  0  0  0
  189.8860  178.2600  143.0330 N   0  0  0  0  0  0  0  0  0  0  0  0
  196.7510  170.4680  145.8580 C   0  0  0  0  0  2  0  0  0  0  0  0
  187.6100  175.9290  142.1860 C   0  0  0  0  0  0  0  0  0  0  0  0
  191.1700  178.0430  143.2820 N   0  0  0  0  0  0  0  0  0  0  0  0
  193.7100  176.7420  144.1310 C   0  0  0  0  0  3  0  0  0  0  0  0
  197.1320  171.9380  145.8010 C   0  0  0  0  0  2  0  0  0  0  0  0
  188.8310  173.6440  142.5110 C   0  0  0  0  0  0  0  0  0  0  0  0
  191.8270  170.5480  142.8060 C   0  0  0  0  0  2  0  0  0  0  0  0
  190.3670  172.3640  143.8940 C   0  0  0  0  0  3  0  0  0  0  0  0
  193.9400  170.0190  144.7550 O   0  0  0  0  0  1  0  0  0  0  0  0
  193.4700  174.3710  145.6060 C   0  0  0  0  0  0  0  0  0  0  0  0
  190.0530  171.6890  141.5570 C   0  0  0  0  0  3  0  0  0  0  0  0
  190.7060  171.5290  142.7180 C   0  0  0  0  0  0  0  0  0  0  0  0
  190.0200  176.5030  144.3420 O   0  0  0  0  0  0  0  0  0  0  0  0
  189.2120  177.2970  143.6880 C   0  0  0  0  0  0  0  0  0  0  0  0
  197.1550  169.7460  144.6020 C   0  0  0  0  0  3  0  0  0  0  0  0
  196.1030  176.4720  144.0510 O   0  0  0  0  0  1  0  0  0  0  0  0
  188.1900  174.7680  142.3470 C   0  0  0  0  0  0  0  0  0  0  0  0
  192.3390  175.1130  145.2760 C   0  0  0  0  0  3  0  0  0  0  0  0
  195.8860  172.7430  145.6990 C   0  0  0  0  0  3  0  0  0  0  0  0
  194.1000  170.2990  143.3960 C   0  0  2  0  0  3  0  0  0  0  0  0
  192.4450  176.2860  144.5250 C   0  0  0  0  0  0  0  0  0  0  0  0
  188.8890  172.6350  141.4010 C   0  0  0  0  0  2  0  0  0  0  0  0
  195.9220  173.9810  145.3260 N   0  0  0  0  0  0  0  0  0  0  0  0
  187.2670  176.3630  140.8670 N   0  0  0  0  0  2  0  0  0  0  0  0
  186.5840  177.6210  140.6130 C   0  0  0  0  0  1  0  0  0  0  0  0
  1 34  1  0  0  0  0
  1 21  1  0  0  0  0
  2  7  1  0  0  0  0
  2 31  1  0  0  0  0
  3 31  1  0  0  0  0
  4 19  2  0  0  0  0
  6  7  1  0  0  0  0
  7 26  2  0  0  0  0
  8 24  1  0  0  0  0
  8 32  1  0  0  0  0
  9 25  1  0  0  0  0
 10  1  2  0  0  0  0
 11 14  1  0  0  0  0
 11 25  2  0  0  0  0
 13 28  2  0  0  0  0
 13  9  1  0  0  0  0
 14  8  2  0  0  0  0
 15 10  1  0  0  0  0
 15 32  2  0  0  0  0
 16 12  1  0  0  0  0
 17  4  1  0  0  0  0
 18  3  1  0  0  0  0
 21  5  1  0  0  0  0
 22 23  2  0  0  0  0
 23 18  1  0  0  0  0
 23 19  1  0  0  0  0
 25 24  1  0  0  0  0
 26 12  1  0  0  0  0
 27 10  1  0  0  0  0
 28 17  2  0  0  0  0
 29 21  2  0  0  0  0
 30 16  1  0  0  0  0
 31 20  1  1  0  0  0
 32 29  1  0  0  0  0
 33 22  1  0  0  0  0
 33 17  1  0  0  0  0
 34 30  2  0  0  0  0
 35 13  1  0  0  0  0
 36 35  1  0  0  0  0
M  END
>  <MODEL>
4

>  <REMARK>
 VINA RESULT:      -8.0      2.501      4.776
  Name = 
  1 active torsions:
  status: ('A' for Active; 'I' for Inactive)
    1  A    between atoms: C_13  and  N_22
                            x       y       z     vdW  Elec       q    Type
                         _______ _______ _______ _____ _____    ______ ____

>  <TORSDO>
F 1

$$$$
=
 OpenBabel11072408433D

 36 39  0  0  1  0  0  0  0  0999 V2000
  192.3390  173.2250  144.6660 C   0  0  0  0  0  0  0  0  0  0  0  0
  192.6450  173.2330  140.2390 C   0  0  0  0  0  2  0  0  0  0  0  0
  190.4100  174.0420  140.7170 N   0  0  0  0  0  2  0  0  0  0  0  0
  187.1820  174.9600  143.3240 C   0  0  0  0  0  3  0  0  0  0  0  0
  190.4780  171.8550  143.9380 F   0  0  0  0  0  0  0  0  0  0  0  0
  194.0840  172.9540  138.1270 C   0  0  0  0  0  1  0  0  0  0  0  0
  193.5060  172.3650  139.3670 C   0  0  0  0  0  0  0  0  0  0  0  0
  189.4720  175.8310  146.4700 C   0  0  0  0  0  0  0  0  0  0  0  0
  185.8890  177.0960  146.7100 S   0  0  0  0  0  0  0  0  0  0  0  0
  192.7750  174.3250  145.4310 C   0  0  0  0  0  0  0  0  0  0  0  0
  188.5710  177.5810  147.3060 N   0  0  0  0  0  0  0  0  0  0  0  0
  193.3960  170.3790  140.9280 C   0  0  0  0  0  2  0  0  0  0  0  0
  186.0580  177.8480  145.0810 C   0  0  0  0  0  0  0  0  0  0  0  0
  189.7410  176.9950  147.0950 N   0  0  0  0  0  0  0  0  0  0  0  0
  191.8450  175.1610  146.0590 C   0  0  0  0  0  3  0  0  0  0  0  0
  194.0430  170.9590  142.1750 C   0  0  0  0  0  2  0  0  0  0  0  0
  186.7790  176.3510  143.0660 C   0  0  0  0  0  0  0  0  0  0  0  0
  189.0810  174.1640  140.1400 C   0  0  0  0  0  2  0  0  0  0  0  0
  187.8320  174.2690  142.3850 C   0  0  0  0  0  3  0  0  0  0  0  0
  190.7460  171.7690  140.3200 O   0  0  0  0  0  1  0  0  0  0  0  0
  190.9580  172.9250  144.6220 C   0  0  0  0  0  0  0  0  0  0  0  0
  187.7520  176.1220  140.7800 C   0  0  0  0  0  3  0  0  0  0  0  0
  188.1840  174.8900  141.0870 C   0  0  0  0  0  0  0  0  0  0  0  0
  188.1840  175.6650  146.3070 O   0  0  0  0  0  0  0  0  0  0  0  0
  187.6420  176.7460  146.8050 C   0  0  0  0  0  0  0  0  0  0  0  0
  193.8440  171.1040  139.6890 C   0  0  0  0  0  3  0  0  0  0  0  0
  194.1330  174.6080  145.5430 O   0  0  0  0  0  1  0  0  0  0  0  0
  186.3860  177.1010  144.0590 C   0  0  0  0  0  0  0  0  0  0  0  0
  190.0440  173.7660  145.2500 C   0  0  0  0  0  3  0  0  0  0  0  0
  192.9950  171.6490  142.9710 C   0  0  0  0  0  3  0  0  0  0  0  0
  191.1560  173.0530  139.9520 C   0  0  2  0  0  3  0  0  0  0  0  0
  190.4740  174.8950  145.9520 C   0  0  0  0  0  0  0  0  0  0  0  0
  186.8170  176.9020  141.6710 C   0  0  0  0  0  2  0  0  0  0  0  0
  193.3110  172.4850  143.9060 N   0  0  0  0  0  0  0  0  0  0  0  0
  186.0010  179.2680  144.9180 N   0  0  0  0  0  2  0  0  0  0  0  0
  185.1960  179.9030  143.8880 C   0  0  0  0  0  1  0  0  0  0  0  0
  1 10  1  0  0  0  0
  5 21  1  0  0  0  0
  6  7  1  0  0  0  0
  7 26  2  0  0  0  0
  7  2  1  0  0  0  0
  8 14  2  0  0  0  0
  9 25  1  0  0  0  0
 10 27  1  0  0  0  0
 10 15  2  0  0  0  0
 12 16  1  0  0  0  0
 13  9  1  0  0  0  0
 14 11  1  0  0  0  0
 16 30  1  0  0  0  0
 17  4  1  0  0  0  0
 17 28  2  0  0  0  0
 18  3  1  0  0  0  0
 18 23  1  0  0  0  0
 19  4  2  0  0  0  0
 21  1  2  0  0  0  0
 21 29  1  0  0  0  0
 22 23  2  0  0  0  0
 22 33  1  0  0  0  0
 23 19  1  0  0  0  0
 24  8  1  0  0  0  0
 24 25  1  0  0  0  0
 25 11  2  0  0  0  0
 26 12  1  0  0  0  0
 28 13  2  0  0  0  0
 29 32  2  0  0  0  0
 30 34  2  0  0  0  0
 31  2  1  0  0  0  0
 31 20  1  1  0  0  0
 31  3  1  0  0  0  0
 32 15  1  0  0  0  0
 32  8  1  0  0  0  0
 33 17  1  0  0  0  0
 34  1  1  0  0  0  0
 35 13  1  0  0  0  0
 36 35  1  0  0  0  0
M  END
>  <MODEL>
5

>  <REMARK>
 VINA RESULT:      -7.7      2.637      5.128
  Name = 
  1 active torsions:
  status: ('A' for Active; 'I' for Inactive)
    1  A    between atoms: C_13  and  N_22
                            x       y       z     vdW  Elec       q    Type
                         _______ _______ _______ _____ _____    ______ ____

>  <TORSDO>
F 1

$$$$
=
 OpenBabel11072408433D

 36 39  0  0  1  0  0  0  0  0999 V2000
  193.8710  174.8160  145.5300 C   0  0  0  0  0  0  0  0  0  0  0  0
  195.7950  172.7910  142.0820 C   0  0  0  0  0  2  0  0  0  0  0  0
  193.4230  172.7740  141.5780 N   0  0  0  0  0  2  0  0  0  0  0  0
  189.3400  173.4860  142.5130 C   0  0  0  0  0  3  0  0  0  0  0  0
  192.7710  172.6600  145.4160 F   0  0  0  0  0  0  0  0  0  0  0  0
  197.9400  172.1140  140.8380 C   0  0  0  0  0  1  0  0  0  0  0  0
  197.0890  172.0300  142.0580 C   0  0  0  0  0  0  0  0  0  0  0  0
  190.0360  176.5960  144.9100 C   0  0  0  0  0  0  0  0  0  0  0  0
  186.4370  176.2880  143.7050 S   0  0  0  0  0  0  0  0  0  0  0  0
  193.7340  176.2170  145.5710 C   0  0  0  0  0  0  0  0  0  0  0  0
  188.5230  178.0130  144.3830 N   0  0  0  0  0  0  0  0  0  0  0  0
  196.8500  171.1950  144.4310 C   0  0  0  0  0  2  0  0  0  0  0  0
  187.0300  176.1510  142.0080 C   0  0  0  0  0  0  0  0  0  0  0  0
  189.7860  177.9150  144.7720 N   0  0  0  0  0  0  0  0  0  0  0  0
  192.4760  176.8090  145.4090 C   0  0  0  0  0  3  0  0  0  0  0  0
  196.8390  172.5080  145.1970 C   0  0  0  0  0  2  0  0  0  0  0  0
  188.7630  174.2880  141.4220 C   0  0  0  0  0  0  0  0  0  0  0  0
  192.4140  172.0660  140.8080 C   0  0  0  0  0  2  0  0  0  0  0  0
  190.4290  172.7470  142.2930 C   0  0  0  0  0  3  0  0  0  0  0  0
  194.3800  170.9410  142.6550 O   0  0  0  0  0  1  0  0  0  0  0  0
  192.7100  174.0160  145.4190 C   0  0  0  0  0  0  0  0  0  0  0  0
  190.5430  173.3810  139.9270 C   0  0  0  0  0  3  0  0  0  0  0  0
  191.0920  172.7390  140.9690 C   0  0  0  0  0  0  0  0  0  0  0  0
  188.9730  175.8810  144.6420 O   0  0  0  0  0  0  0  0  0  0  0  0
  188.0580  176.7520  144.3050 C   0  0  0  0  0  0  0  0  0  0  0  0
  197.5540  171.3350  143.1100 C   0  0  0  0  0  3  0  0  0  0  0  0
  194.8520  177.0280  145.7430 O   0  0  0  0  0  1  0  0  0  0  0  0
  187.8720  175.2000  141.6980 C   0  0  0  0  0  0  0  0  0  0  0  0
  191.4650  174.6170  145.2560 C   0  0  0  0  0  3  0  0  0  0  0  0
  195.4440  173.0210  145.2320 C   0  0  0  0  0  3  0  0  0  0  0  0
  194.6010  171.9250  141.6880 C   0  0  2  0  0  3  0  0  0  0  0  0
  191.3400  176.0090  145.2300 C   0  0  0  0  0  0  0  0  0  0  0  0
  189.1950  174.0550  140.0040 C   0  0  0  0  0  2  0  0  0  0  0  0
  195.1950  174.2520  145.5390 N   0  0  0  0  0  0  0  0  0  0  0  0
  186.7230  177.1570  141.0390 N   0  0  0  0  0  2  0  0  0  0  0  0
  185.8610  178.2900  141.3370 C   0  0  0  0  0  1  0  0  0  0  0  0
  1 34  1  0  0  0  0
  1 10  1  0  0  0  0
  3 31  1  0  0  0  0
  5 21  1  0  0  0  0
  6  7  1  0  0  0  0
  7  2  1  0  0  0  0
  7 26  2  0  0  0  0
  8 32  1  0  0  0  0
  9 25  1  0  0  0  0
 10 27  1  0  0  0  0
 11 14  1  0  0  0  0
 12 16  1  0  0  0  0
 13  9  1  0  0  0  0
 14  8  2  0  0  0  0
 15 10  2  0  0  0  0
 16 30  1  0  0  0  0
 17 28  2  0  0  0  0
 17  4  1  0  0  0  0
 18 23  1  0  0  0  0
 18  3  1  0  0  0  0
 19  4  2  0  0  0  0
 21  1  2  0  0  0  0
 22 33  1  0  0  0  0
 22 23  2  0  0  0  0
 23 19  1  0  0  0  0
 24  8  1  0  0  0  0
 25 11  2  0  0  0  0
 25 24  1  0  0  0  0
 26 12  1  0  0  0  0
 28 13  2  0  0  0  0
 29 21  1  0  0  0  0
 30 34  2  0  0  0  0
 31  2  1  0  0  0  0
 31 20  1  1  0  0  0
 32 29  2  0  0  0  0
 32 15  1  0  0  0  0
 33 17  1  0  0  0  0
 35 36  1  0  0  0  0
 35 13  1  0  0  0  0
M  END
>  <MODEL>
6

>  <REMARK>
 VINA RESULT:      -7.6      1.972      4.793
  Name = 
  1 active torsions:
  status: ('A' for Active; 'I' for Inactive)
    1  A    between atoms: C_13  and  N_22
                            x       y       z     vdW  Elec       q    Type
                         _______ _______ _______ _____ _____    ______ ____

>  <TORSDO>
F 1

$$$$
=
 OpenBabel11072408433D

 36 39  0  0  1  0  0  0  0  0999 V2000
  188.7260  175.2950  143.2850 C   0  0  0  0  0  0  0  0  0  0  0  0
  192.7090  175.9810  145.1130 C   0  0  0  0  0  2  0  0  0  0  0  0
  193.0940  174.3480  143.3620 N   0  0  0  0  0  2  0  0  0  0  0  0
  191.8130  171.6930  140.3020 C   0  0  0  0  0  3  0  0  0  0  0  0
  189.4580  173.0870  143.9620 F   0  0  0  0  0  0  0  0  0  0  0  0
  194.1910  177.3140  146.7360 C   0  0  0  0  0  1  0  0  0  0  0  0
  193.0240  176.4160  146.5160 C   0  0  0  0  0  0  0  0  0  0  0  0
  188.5990  173.8190  139.2760 C   0  0  0  0  0  0  0  0  0  0  0  0
  189.6880  171.2350  136.7000 S   0  0  0  0  0  0  0  0  0  0  0  0
  188.2440  176.1190  142.2490 C   0  0  0  0  0  0  0  0  0  0  0  0
  188.5950  173.7640  137.1370 N   0  0  0  0  0  0  0  0  0  0  0  0
  191.0200  175.2460  147.5180 C   0  0  0  0  0  2  0  0  0  0  0  0
  191.3660  171.8870  136.7720 C   0  0  0  0  0  0  0  0  0  0  0  0
  188.3090  174.5410  138.1730 N   0  0  0  0  0  0  0  0  0  0  0  0
  188.1610  175.6330  140.9390 C   0  0  0  0  0  3  0  0  0  0  0  0
  189.8840  175.9690  146.8120 C   0  0  0  0  0  2  0  0  0  0  0  0
  192.5750  172.0120  139.0840 C   0  0  0  0  0  0  0  0  0  0  0  0
  194.0030  173.2900  142.9530 C   0  0  0  0  0  2  0  0  0  0  0  0
  192.2980  172.0300  141.4990 C   0  0  0  0  0  3  0  0  0  0  0  0
  192.6820  173.6210  145.5390 O   0  0  0  0  0  1  0  0  0  0  0  0
  189.0310  173.9440  142.9990 C   0  0  0  0  0  0  0  0  0  0  0  0
  194.3520  172.9740  140.5480 C   0  0  0  0  0  3  0  0  0  0  0  0
  193.5850  172.7510  141.6260 C   0  0  0  0  0  0  0  0  0  0  0  0
  189.0320  172.6240  138.9620 O   0  0  0  0  0  0  0  0  0  0  0  0
  189.0410  172.6040  137.6540 C   0  0  0  0  0  0  0  0  0  0  0  0
  192.2610  176.0950  147.5740 C   0  0  0  0  0  3  0  0  0  0  0  0
  187.8760  177.4360  142.5120 O   0  0  0  0  0  1  0  0  0  0  0  0
  191.9920  171.9220  137.9200 C   0  0  0  0  0  0  0  0  0  0  0  0
  188.9460  173.4730  141.6920 C   0  0  0  0  0  3  0  0  0  0  0  0
  189.6330  175.2950  145.5120 C   0  0  0  0  0  3  0  0  0  0  0  0
  193.3030  174.6140  144.7780 C   0  0  2  0  0  3  0  0  0  0  0  0
  188.5320  174.3120  140.6540 C   0  0  0  0  0  0  0  0  0  0  0  0
  194.0120  172.4320  139.1810 C   0  0  0  0  0  2  0  0  0  0  0  0
  188.9480  175.8760  144.5820 N   0  0  0  0  0  0  0  0  0  0  0  0
  191.9600  172.5140  135.6320 N   0  0  0  0  0  2  0  0  0  0  0  0
  192.0340  173.9590  135.4870 C   0  0  0  0  0  1  0  0  0  0  0  0
  1 34  1  0  0  0  0
  2  7  1  0  0  0  0
  3 31  1  0  0  0  0
  4 19  2  0  0  0  0
  7  6  1  0  0  0  0
  7 26  2  0  0  0  0
  8 32  1  0  0  0  0
  9 13  1  0  0  0  0
  9 25  1  0  0  0  0
 10 27  1  0  0  0  0
 10  1  2  0  0  0  0
 11 25  2  0  0  0  0
 11 14  1  0  0  0  0
 12 26  1  0  0  0  0
 13 28  2  0  0  0  0
 14  8  2  0  0  0  0
 15 10  1  0  0  0  0
 16 12  1  0  0  0  0
 17 33  1  0  0  0  0
 17  4  1  0  0  0  0
 18  3  1  0  0  0  0
 19 23  1  0  0  0  0
 21  1  1  0  0  0  0
 21  5  1  0  0  0  0
 22 23  2  0  0  0  0
 23 18  1  0  0  0  0
 24  8  1  0  0  0  0
 25 24  1  0  0  0  0
 28 17  2  0  0  0  0
 29 21  2  0  0  0  0
 30 16  1  0  0  0  0
 31  2  1  0  0  0  0
 31 20  1  1  0  0  0
 32 15  2  0  0  0  0
 32 29  1  0  0  0  0
 33 22  1  0  0  0  0
 34 30  2  0  0  0  0
 35 13  1  0  0  0  0
 36 35  1  0  0  0  0
M  END
>  <MODEL>
7

>  <REMARK>
 VINA RESULT:      -7.4      3.344      7.039
  Name = 
  1 active torsions:
  status: ('A' for Active; 'I' for Inactive)
    1  A    between atoms: C_13  and  N_22
                            x       y       z     vdW  Elec       q    Type
                         _______ _______ _______ _____ _____    ______ ____

>  <TORSDO>
F 1

$$$$
=
 OpenBabel11072408433D

 36 39  0  0  1  0  0  0  0  0999 V2000
  189.3840  174.8780  143.2660 C   0  0  0  0  0  0  0  0  0  0  0  0
  193.3670  176.5340  144.3050 C   0  0  0  0  0  2  0  0  0  0  0  0
  193.6670  175.4870  142.1380 N   0  0  0  0  0  2  0  0  0  0  0  0
  192.3490  173.1720  138.8270 C   0  0  0  0  0  3  0  0  0  0  0  0
  190.8720  172.9690  143.1470 F   0  0  0  0  0  0  0  0  0  0  0  0
  194.8210  177.9670  145.8670 C   0  0  0  0  0  1  0  0  0  0  0  0
  193.9420  176.7810  145.6700 C   0  0  0  0  0  0  0  0  0  0  0  0
  188.5140  174.2210  139.1340 C   0  0  0  0  0  0  0  0  0  0  0  0
  189.4830  172.6930  135.7840 S   0  0  0  0  0  0  0  0  0  0  0  0
  188.4100  175.6650  142.6210 C   0  0  0  0  0  0  0  0  0  0  0  0
  187.9020  174.5670  137.1140 N   0  0  0  0  0  0  0  0  0  0  0  0
  192.7300  174.8310  146.7280 C   0  0  0  0  0  2  0  0  0  0  0  0
  190.8560  173.8550  135.6650 C   0  0  0  0  0  0  0  0  0  0  0  0
  187.7240  174.9920  138.3570 N   0  0  0  0  0  0  0  0  0  0  0  0
  188.0890  175.4330  141.2790 C   0  0  0  0  0  3  0  0  0  0  0  0
  191.2830  175.2400  146.5070 C   0  0  0  0  0  2  0  0  0  0  0  0
  192.6000  173.9530  137.6060 C   0  0  0  0  0  0  0  0  0  0  0  0
  194.6760  174.9000  141.2720 C   0  0  0  0  0  2  0  0  0  0  0  0
  193.0460  173.4260  139.9360 C   0  0  0  0  0  3  0  0  0  0  0  0
  194.1300  174.2710  144.0730 O   0  0  0  0  0  1  0  0  0  0  0  0
  189.9600  173.7920  142.5680 C   0  0  0  0  0  0  0  0  0  0  0  0
  194.3820  175.1750  138.8540 C   0  0  0  0  0  3  0  0  0  0  0  0
  194.0580  174.5070  139.9710 C   0  0  0  0  0  0  0  0  0  0  0  0
  189.1530  173.3280  138.4230 O   0  0  0  0  0  0  0  0  0  0  0  0
  188.7860  173.5560  137.1890 C   0  0  0  0  0  0  0  0  0  0  0  0
  193.6430  176.0270  146.7410 C   0  0  0  0  0  3  0  0  0  0  0  0
  187.7810  176.7030  143.3030 O   0  0  0  0  0  1  0  0  0  0  0  0
  191.7530  173.8880  136.6150 C   0  0  0  0  0  0  0  0  0  0  0  0
  189.6330  173.5720  141.2330 C   0  0  0  0  0  3  0  0  0  0  0  0
  190.8640  174.7740  145.1590 C   0  0  0  0  0  3  0  0  0  0  0  0
  194.1960  175.5400  143.4930 C   0  0  2  0  0  3  0  0  0  0  0  0
  188.7160  174.3960  140.5750 C   0  0  0  0  0  0  0  0  0  0  0  0
  193.8250  174.8140  137.4990 C   0  0  0  0  0  2  0  0  0  0  0  0
  189.8020  175.2480  144.5920 N   0  0  0  0  0  0  0  0  0  0  0  0
  190.8910  174.8480  134.6360 N   0  0  0  0  0  2  0  0  0  0  0  0
  190.4060  176.2030  134.8430 C   0  0  0  0  0  1  0  0  0  0  0  0
  1 34  1  0  0  0  0
  2  7  1  0  0  0  0
  3 31  1  0  0  0  0
  4 19  2  0  0  0  0
  7  6  1  0  0  0  0
  7 26  2  0  0  0  0
  8 32  1  0  0  0  0
  9 25  1  0  0  0  0
 10  1  1  0  0  0  0
 10 27  1  0  0  0  0
 11 25  2  0  0  0  0
 11 14  1  0  0  0  0
 12 26  1  0  0  0  0
 13  9  1  0  0  0  0
 13 28  2  0  0  0  0
 14  8  2  0  0  0  0
 15 10  2  0  0  0  0
 16 12  1  0  0  0  0
 17  4  1  0  0  0  0
 18  3  1  0  0  0  0
 19 23  1  0  0  0  0
 21  5  1  0  0  0  0
 21  1  2  0  0  0  0
 22 23  2  0  0  0  0
 23 18  1  0  0  0  0
 24  8  1  0  0  0  0
 25 24  1  0  0  0  0
 28 17  2  0  0  0  0
 29 21  1  0  0  0  0
 30 16  1  0  0  0  0
 31 20  1  1  0  0  0
 31  2  1  0  0  0  0
 32 29  2  0  0  0  0
 32 15  1  0  0  0  0
 33 17  1  0  0  0  0
 33 22  1  0  0  0  0
 34 30  2  0  0  0  0
 35 36  1  0  0  0  0
 35 13  1  0  0  0  0
M  END
>  <MODEL>
8

>  <REMARK>
 VINA RESULT:      -7.3      3.749      6.836
  Name = 
  1 active torsions:
  status: ('A' for Active; 'I' for Inactive)
    1  A    between atoms: C_13  and  N_22
                            x       y       z     vdW  Elec       q    Type
                         _______ _______ _______ _____ _____    ______ ____

>  <TORSDO>
F 1

$$$$
=
 OpenBabel11072408433D

 36 39  0  0  1  0  0  0  0  0999 V2000
  193.6200  173.5170  144.9620 C   0  0  0  0  0  0  0  0  0  0  0  0
  194.8650  171.5520  141.1840 C   0  0  0  0  0  2  0  0  0  0  0  0
  192.5160  172.0700  140.8790 N   0  0  0  0  0  2  0  0  0  0  0  0
  188.7360  173.4790  142.2150 C   0  0  0  0  0  3  0  0  0  0  0  0
  192.0890  171.6540  144.7270 F   0  0  0  0  0  0  0  0  0  0  0  0
  196.7410  170.6030  139.7050 C   0  0  0  0  0  1  0  0  0  0  0  0
  195.9670  170.5530  140.9770 C   0  0  0  0  0  0  0  0  0  0  0  0
  190.2120  176.0920  144.8410 C   0  0  0  0  0  0  0  0  0  0  0  0
  186.5620  176.6540  143.9150 S   0  0  0  0  0  0  0  0  0  0  0  0
  193.7820  174.9030  145.1530 C   0  0  0  0  0  0  0  0  0  0  0  0
  188.9990  177.8350  144.5840 N   0  0  0  0  0  0  0  0  0  0  0  0
  195.7030  169.5190  143.2680 C   0  0  0  0  0  2  0  0  0  0  0  0
  187.0080  176.5940  142.1690 C   0  0  0  0  0  0  0  0  0  0  0  0
  190.2350  177.4410  144.8560 N   0  0  0  0  0  0  0  0  0  0  0  0
  192.6680  175.7500  145.1550 C   0  0  0  0  0  3  0  0  0  0  0  0
  196.0140  170.7120  144.1580 C   0  0  0  0  0  2  0  0  0  0  0  0
  188.2750  174.4990  141.2610 C   0  0  0  0  0  0  0  0  0  0  0  0
  191.3360  171.6720  140.1290 C   0  0  0  0  0  2  0  0  0  0  0  0
  189.6310  172.5650  141.8340 C   0  0  0  0  0  3  0  0  0  0  0  0
  193.1320  169.9710  141.6860 O   0  0  0  0  0  1  0  0  0  0  0  0
  192.3130  172.9850  144.8690 C   0  0  0  0  0  0  0  0  0  0  0  0
  189.7310  173.4280  139.5410 C   0  0  0  0  0  3  0  0  0  0  0  0
  190.1960  172.5740  140.4650 C   0  0  0  0  0  0  0  0  0  0  0  0
  189.0090  175.6400  144.5930 O   0  0  0  0  0  0  0  0  0  0  0  0
  188.2780  176.7100  144.4210 C   0  0  0  0  0  0  0  0  0  0  0  0
  196.3400  169.6640  141.9130 C   0  0  0  0  0  3  0  0  0  0  0  0
  195.0540  175.4480  145.3110 O   0  0  0  0  0  1  0  0  0  0  0  0
  187.6120  175.5350  141.6980 C   0  0  0  0  0  0  0  0  0  0  0  0
  191.2140  173.8390  144.8710 C   0  0  0  0  0  3  0  0  0  0  0  0
  194.7620  171.4880  144.3590 C   0  0  0  0  0  3  0  0  0  0  0  0
  193.4940  170.9940  140.8070 C   0  0  2  0  0  3  0  0  0  0  0  0
  191.3810  175.2210  144.9930 C   0  0  0  0  0  0  0  0  0  0  0  0
  188.5600  174.3460  139.7950 C   0  0  0  0  0  2  0  0  0  0  0  0
  194.7950  172.7010  144.8060 N   0  0  0  0  0  0  0  0  0  0  0  0
  186.8600  177.7450  141.3330 N   0  0  0  0  0  2  0  0  0  0  0  0
  185.7740  177.8780  140.3760 C   0  0  0  0  0  1  0  0  0  0  0  0
  1 10  1  0  0  0  0
  5 21  1  0  0  0  0
  6  7  1  0  0  0  0
  7  2  1  0  0  0  0
  7 26  2  0  0  0  0
  8 14  2  0  0  0  0
  8 32  1  0  0  0  0
  9 25  1  0  0  0  0
 10 15  2  0  0  0  0
 10 27  1  0  0  0  0
 11 14  1  0  0  0  0
 12 16  1  0  0  0  0
 13  9  1  0  0  0  0
 16 30  1  0  0  0  0
 17 28  2  0  0  0  0
 17  4  1  0  0  0  0
 18 23  1  0  0  0  0
 18  3  1  0  0  0  0
 19  4  2  0  0  0  0
 21 29  1  0  0  0  0
 21  1  2  0  0  0  0
 22 33  1  0  0  0  0
 22 23  2  0  0  0  0
 23 19  1  0  0  0  0
 24  8  1  0  0  0  0
 25 11  2  0  0  0  0
 25 24  1  0  0  0  0
 26 12  1  0  0  0  0
 28 13  2  0  0  0  0
 29 32  2  0  0  0  0
 30 34  2  0  0  0  0
 31  3  1  0  0  0  0
 31  2  1  0  0  0  0
 31 20  1  1  0  0  0
 32 15  1  0  0  0  0
 33 17  1  0  0  0  0
 34  1  1  0  0  0  0
 35 13  1  0  0  0  0
 36 35  1  0  0  0  0
M  END
>  <MODEL>
9

>  <REMARK>
 VINA RESULT:      -7.1      2.255      5.006
  Name = 
  1 active torsions:
  status: ('A' for Active; 'I' for Inactive)
    1  A    between atoms: C_13  and  N_22
                            x       y       z     vdW  Elec       q    Type
                         _______ _______ _______ _____ _____    ______ ____

>  <TORSDO>
F 1

$$$$
