=
 OpenBabel11062418503D

 37 40  0  0  1  0  0  0  0  0999 V2000
  190.4930  175.5260  146.1580 C   0  0  1  0  0  3  0  0  0  0  0  0
  192.9990  175.8800  142.5620 C   0  0  0  0  0  2  0  0  0  0  0  0
  190.0100  176.2900  144.9430 C   0  0  0  0  0  0  0  0  0  0  0  0
  193.1020  176.6630  144.8800 C   0  0  2  0  0  3  0  0  0  0  0  0
  194.5220  176.5380  144.3650 C   0  0  0  0  0  2  0  0  0  0  0  0
  192.9720  176.0980  146.3020 C   0  0  1  0  0  3  0  0  0  0  0  0
  193.9340  176.6890  147.1260 O   0  0  0  0  0  1  0  0  0  0  0  0
  191.5770  176.3220  146.9130 C   0  0  2  0  0  3  0  0  0  0  0  0
  188.7490  176.9140  144.9300 C   0  0  0  0  0  3  0  0  0  0  0  0
  190.8630  176.4450  143.8310 C   0  0  0  0  0  0  0  0  0  0  0  0
  188.3230  177.6550  143.8260 C   0  0  0  0  0  0  0  0  0  0  0  0
  194.3940  176.4020  142.8590 C   0  0  1  0  0  3  0  0  0  0  0  0
  192.2560  175.8760  143.8910 C   0  0  1  0  0  3  0  0  0  0  0  0
  191.6110  175.9610  148.2650 O   0  0  0  0  0  1  0  0  0  0  0  0
  190.4370  177.2030  142.7300 C   0  0  0  0  0  3  0  0  0  0  0  0
  189.1740  177.7950  142.7220 C   0  0  0  0  0  3  0  0  0  0  0  0
  195.8180  175.7770  141.0840 O   0  0  0  0  0  0  0  0  0  0  0  0
  195.4660  175.5290  142.2670 C   0  0  0  0  0  0  0  0  0  0  0  0
  194.3250  172.6740  142.1160 C   0  0  0  0  0  1  0  0  0  0  0  0
  197.9240  173.5510  144.5120 C   0  0  0  0  0  2  0  0  0  0  0  0
  195.4920  173.0140  142.9780 C   0  0  0  0  0  0  0  0  0  0  0  0
  197.1920  174.6110  143.7350 C   0  0  0  0  0  3  0  0  0  0  0  0
  197.5710  171.3440  145.3430 O   0  0  0  0  0  0  0  0  0  0  0  0
  197.1700  172.2600  144.5800 C   0  0  0  0  0  0  0  0  0  0  0  0
  196.0870  174.3870  143.0050 C   0  0  0  0  0  0  0  0  0  0  0  0
  195.9980  172.0350  143.7280 C   0  0  0  0  0  3  0  0  0  0  0  0
  189.3850  175.0720  147.0230 C   0  0  0  0  0  0  0  0  0  0  0  0
  188.5170  174.7150  147.7010 N   0  0  0  0  0  0  0  0  0  0  0  0
  187.0530  178.2430  143.8560 O   0  0  0  0  0  0  0  0  0  0  0  0
  185.8430  177.4900  143.9030 C   0  0  2  0  0  3  0  0  0  0  0  0
  183.8220  177.9920  142.7330 O   0  0  0  0  0  1  0  0  0  0  0  0
  185.0430  177.6990  142.6520 C   0  0  0  0  0  0  0  0  0  0  0  0
  185.6400  177.5800  141.4030 O   0  0  0  0  0  0  0  0  0  0  0  0
  185.2190  176.7720  146.2780 C   0  0  0  0  0  1  0  0  0  0  0  0
  185.0700  177.8220  145.1850 C   0  0  1  0  0  3  0  0  0  0  0  0
  185.7260  179.2130  147.0450 O   0  0  0  0  0  1  0  0  0  0  0  0
  185.3420  179.2320  145.7020 C   0  0  0  0  0  2  0  0  0  0  0  0
  1  8  1  0  0  0  0
  1 27  1  1  0  0  0
  2 12  1  0  0  0  0
  3  1  1  0  0  0  0
  4  5  1  6  0  0  0
  4  6  1  0  0  0  0
  6  8  1  0  0  0  0
  6  7  1  1  0  0  0
  8 14  1  1  0  0  0
  9  3  1  0  0  0  0
 10 13  1  0  0  0  0
 10  3  2  0  0  0  0
 11 29  1  0  0  0  0
 11  9  2  0  0  0  0
 12 18  1  1  0  0  0
 12  5  1  0  0  0  0
 13  2  1  6  0  0  0
 13  4  1  0  0  0  0
 15 10  1  0  0  0  0
 16 15  2  0  0  0  0
 16 11  1  0  0  0  0
 17 18  2  0  0  0  0
 18 25  1  0  0  0  0
 19 21  1  0  0  0  0
 20 24  1  0  0  0  0
 21 25  1  0  0  0  0
 21 26  2  0  0  0  0
 22 20  1  0  0  0  0
 24 23  2  0  0  0  0
 25 22  2  0  0  0  0
 26 24  1  0  0  0  0
 27 28  3  0  0  0  0
 29 30  1  0  0  0  0
 30 32  1  6  0  0  0
 30 35  1  0  0  0  0
 32 31  1  0  0  0  0
 33 32  2  0  0  0  0
 35 37  1  0  0  0  0
 35 34  1  1  0  0  0
 37 36  1  0  0  0  0
M  END
>  <MODEL>
1

>  <REMARK>
 VINA RESULT:      -7.5      0.000      0.000
  Name = 
  8 active torsions:
  status: ('A' for Active; 'I' for Inactive)
    1  A    between atoms: C_2  and  C_7
    2  A    between atoms: C_2  and  O_27
    3  A    between atoms: C_2  and  C_34
    4  A    between atoms: C_4  and  C_17
    5  A    between atoms: C_15  and  C_34
    6  A    between atoms: C_25  and  O_27
    7  A    between atoms: C_26  and  C_28
    8  A    between atoms: C_26  and  C_32
                            x       y       z     vdW  Elec       q    Type
                         _______ _______ _______ _____ _____    ______ ____

>  <TORSDO>
F 8

$$$$
=
 OpenBabel11062418503D

 37 40  0  0  1  0  0  0  0  0999 V2000
  189.9890  174.0640  141.6300 C   0  0  1  0  0  3  0  0  0  0  0  0
  192.4690  176.8410  143.9700 C   0  0  0  0  0  2  0  0  0  0  0  0
  189.4740  175.4360  142.0110 C   0  0  0  0  0  0  0  0  0  0  0  0
  191.3870  174.6770  144.3500 C   0  0  2  0  0  3  0  0  0  0  0  0
  192.5960  174.7630  145.2610 C   0  0  0  0  0  2  0  0  0  0  0  0
  191.2870  173.2970  143.6840 C   0  0  1  0  0  3  0  0  0  0  0  0
  191.3360  172.3030  144.6650 O   0  0  0  0  0  1  0  0  0  0  0  0
  190.0040  173.1230  142.8520 C   0  0  2  0  0  3  0  0  0  0  0  0
  188.1880  175.8610  141.6340 C   0  0  0  0  0  3  0  0  0  0  0  0
  190.2660  176.2780  142.8200 C   0  0  0  0  0  0  0  0  0  0  0  0
  187.6980  177.1090  142.0250 C   0  0  0  0  0  0  0  0  0  0  0  0
  193.0070  176.2230  145.2480 C   0  0  1  0  0  3  0  0  0  0  0  0
  191.5950  175.7760  143.3200 C   0  0  1  0  0  3  0  0  0  0  0  0
  189.9000  171.7850  142.4530 O   0  0  0  0  0  1  0  0  0  0  0  0
  189.7630  177.5250  143.2230 C   0  0  0  0  0  3  0  0  0  0  0  0
  188.4950  177.9430  142.8210 C   0  0  0  0  0  3  0  0  0  0  0  0
  194.9040  177.5460  145.7180 O   0  0  0  0  0  0  0  0  0  0  0  0
  194.4940  176.4030  145.3850 C   0  0  0  0  0  0  0  0  0  0  0  0
  195.6840  175.9350  142.5850 C   0  0  0  0  0  1  0  0  0  0  0  0
  196.8590  173.3990  145.9980 C   0  0  0  0  0  2  0  0  0  0  0  0
  196.0030  175.0460  143.7380 C   0  0  0  0  0  0  0  0  0  0  0  0
  195.8690  174.5240  146.1300 C   0  0  0  0  0  3  0  0  0  0  0  0
  197.8690  172.0620  144.3010 O   0  0  0  0  0  0  0  0  0  0  0  0
  197.1960  173.0890  144.5730 C   0  0  0  0  0  0  0  0  0  0  0  0
  195.4750  175.3090  145.1140 C   0  0  0  0  0  0  0  0  0  0  0  0
  196.7940  174.0000  143.4970 C   0  0  0  0  0  3  0  0  0  0  0  0
  189.2880  173.4980  140.4580 C   0  0  0  0  0  0  0  0  0  0  0  0
  188.7390  173.0560  139.5400 N   0  0  0  0  0  0  0  0  0  0  0  0
  186.4170  177.4930  141.6110 O   0  0  0  0  0  0  0  0  0  0  0  0
  185.2970  177.5560  142.4900 C   0  0  2  0  0  3  0  0  0  0  0  0
  183.0240  178.2880  142.4060 O   0  0  0  0  0  1  0  0  0  0  0  0
  184.1270  178.2000  141.8070 C   0  0  0  0  0  0  0  0  0  0  0  0
  184.2530  178.7080  140.5200 O   0  0  0  0  0  0  0  0  0  0  0  0
  185.4610  179.7540  143.7900 C   0  0  0  0  0  1  0  0  0  0  0  0
  185.6970  178.2490  143.7980 C   0  0  1  0  0  3  0  0  0  0  0  0
  184.0860  178.3560  145.5920 O   0  0  0  0  0  1  0  0  0  0  0  0
  185.1070  177.5810  145.0370 C   0  0  0  0  0  2  0  0  0  0  0  0
  1 27  1  6  0  0  0
  1  3  1  0  0  0  0
  1  8  1  0  0  0  0
  2 12  1  0  0  0  0
  3 10  1  0  0  0  0
  4  5  1  1  0  0  0
  6  4  1  0  0  0  0
  6  7  1  1  0  0  0
  8 14  1  6  0  0  0
  8  6  1  0  0  0  0
  9  3  2  0  0  0  0
  9 11  1  0  0  0  0
 10 15  2  0  0  0  0
 10 13  1  0  0  0  0
 11 16  2  0  0  0  0
 12  5  1  0  0  0  0
 12 18  1  6  0  0  0
 13  2  1  1  0  0  0
 13  4  1  0  0  0  0
 16 15  1  0  0  0  0
 18 17  2  0  0  0  0
 19 21  1  0  0  0  0
 20 22  1  0  0  0  0
 21 25  1  0  0  0  0
 23 24  2  0  0  0  0
 24 20  1  0  0  0  0
 25 18  1  0  0  0  0
 25 22  2  0  0  0  0
 26 21  2  0  0  0  0
 26 24  1  0  0  0  0
 28 27  3  0  0  0  0
 29 11  1  0  0  0  0
 30 29  1  6  0  0  0
 30 35  1  0  0  0  0
 32 31  1  0  0  0  0
 32 30  1  0  0  0  0
 33 32  2  0  0  0  0
 35 34  1  6  0  0  0
 35 37  1  0  0  0  0
 37 36  1  0  0  0  0
M  END
>  <MODEL>
2

>  <REMARK>
 VINA RESULT:      -7.3      2.666      3.468
  Name = 
  8 active torsions:
  status: ('A' for Active; 'I' for Inactive)
    1  A    between atoms: C_2  and  C_7
    2  A    between atoms: C_2  and  O_27
    3  A    between atoms: C_2  and  C_34
    4  A    between atoms: C_4  and  C_17
    5  A    between atoms: C_15  and  C_34
    6  A    between atoms: C_25  and  O_27
    7  A    between atoms: C_26  and  C_28
    8  A    between atoms: C_26  and  C_32
                            x       y       z     vdW  Elec       q    Type
                         _______ _______ _______ _____ _____    ______ ____

>  <TORSDO>
F 8

$$$$
=
 OpenBabel11062418503D

 37 40  0  0  1  0  0  0  0  0999 V2000
  189.9610  174.5040  142.3270 C   0  0  1  0  0  3  0  0  0  0  0  0
  193.3950  175.3530  144.9390 C   0  0  0  0  0  2  0  0  0  0  0  0
  189.8870  175.5850  143.3850 C   0  0  0  0  0  0  0  0  0  0  0  0
  191.8460  173.4870  144.5930 C   0  0  2  0  0  3  0  0  0  0  0  0
  193.1530  172.9220  145.1150 C   0  0  0  0  0  2  0  0  0  0  0  0
  191.2920  172.6380  143.4410 C   0  0  1  0  0  3  0  0  0  0  0  0
  191.2160  171.3020  143.8430 O   0  0  0  0  0  1  0  0  0  0  0  0
  189.9020  173.1020  142.9680 C   0  0  2  0  0  3  0  0  0  0  0  0
  188.7180  176.3450  143.5680 C   0  0  0  0  0  3  0  0  0  0  0  0
  190.9800  175.7880  144.2530 C   0  0  0  0  0  0  0  0  0  0  0  0
  188.6350  177.3110  144.5730 C   0  0  0  0  0  0  0  0  0  0  0  0
  193.9290  174.1160  145.6380 C   0  0  1  0  0  3  0  0  0  0  0  0
  192.1870  174.8960  144.1320 C   0  0  1  0  0  3  0  0  0  0  0  0
  189.3930  172.1610  142.0650 O   0  0  0  0  0  1  0  0  0  0  0  0
  190.8870  176.7490  145.2710 C   0  0  0  0  0  3  0  0  0  0  0  0
  189.7300  177.5120  145.4240 C   0  0  0  0  0  3  0  0  0  0  0  0
  196.1260  174.9770  145.6690 O   0  0  0  0  0  0  0  0  0  0  0  0
  195.4140  173.9590  145.4620 C   0  0  0  0  0  0  0  0  0  0  0  0
  195.7870  173.2440  142.4910 C   0  0  0  0  0  1  0  0  0  0  0  0
  197.1730  170.5160  145.6690 C   0  0  0  0  0  2  0  0  0  0  0  0
  196.1750  172.3080  143.5840 C   0  0  0  0  0  0  0  0  0  0  0  0
  196.5000  171.8280  145.9670 C   0  0  0  0  0  3  0  0  0  0  0  0
  197.4530  168.9920  143.8570 O   0  0  0  0  0  0  0  0  0  0  0  0
  197.0930  170.1400  144.2230 C   0  0  0  0  0  0  0  0  0  0  0  0
  196.0520  172.6790  145.0290 C   0  0  0  0  0  0  0  0  0  0  0  0
  196.6500  171.1150  143.2230 C   0  0  0  0  0  3  0  0  0  0  0  0
  188.9740  174.6990  141.2440 C   0  0  0  0  0  0  0  0  0  0  0  0
  188.2030  174.8500  140.3950 N   0  0  0  0  0  0  0  0  0  0  0  0
  187.4560  178.0520  144.7040 O   0  0  0  0  0  0  0  0  0  0  0  0
  186.1600  177.5090  144.4630 C   0  0  2  0  0  3  0  0  0  0  0  0
  186.1470  179.0630  142.6480 O   0  0  0  0  0  0  0  0  0  0  0  0
  185.5090  178.1940  143.2980 C   0  0  0  0  0  0  0  0  0  0  0  0
  184.2100  177.8730  142.9250 O   0  0  0  0  0  1  0  0  0  0  0  0
  185.9010  176.7340  146.8880 C   0  0  0  0  0  1  0  0  0  0  0  0
  185.3230  177.5630  145.7470 C   0  0  1  0  0  3  0  0  0  0  0  0
  185.7510  179.3720  147.2870 O   0  0  0  0  0  1  0  0  0  0  0  0
  184.9850  178.9860  146.1850 C   0  0  0  0  0  2  0  0  0  0  0  0
  1 27  1  6  0  0  0
  1  8  1  0  0  0  0
  1  3  1  0  0  0  0
  2 12  1  0  0  0  0
  3  9  2  0  0  0  0
  3 10  1  0  0  0  0
  4  5  1  6  0  0  0
  5 12  1  0  0  0  0
  6  7  1  1  0  0  0
  6  4  1  0  0  0  0
  8 14  1  6  0  0  0
  8  6  1  0  0  0  0
  9 11  1  0  0  0  0
 10 15  2  0  0  0  0
 11 29  1  0  0  0  0
 11 16  2  0  0  0  0
 12 18  1  6  0  0  0
 13 10  1  0  0  0  0
 13  4  1  0  0  0  0
 13  2  1  1  0  0  0
 15 16  1  0  0  0  0
 18 17  2  0  0  0  0
 19 21  1  0  0  0  0
 20 22  1  0  0  0  0
 21 25  1  0  0  0  0
 23 24  2  0  0  0  0
 24 20  1  0  0  0  0
 25 18  1  0  0  0  0
 25 22  2  0  0  0  0
 26 21  2  0  0  0  0
 26 24  1  0  0  0  0
 28 27  3  0  0  0  0
 30 32  1  6  0  0  0
 30 29  1  0  0  0  0
 30 35  1  0  0  0  0
 31 32  2  0  0  0  0
 33 32  1  0  0  0  0
 35 37  1  0  0  0  0
 35 34  1  1  0  0  0
 37 36  1  0  0  0  0
M  END
>  <MODEL>
3

>  <REMARK>
 VINA RESULT:      -7.3      2.643      3.398
  Name = 
  8 active torsions:
  status: ('A' for Active; 'I' for Inactive)
    1  A    between atoms: C_2  and  C_7
    2  A    between atoms: C_2  and  O_27
    3  A    between atoms: C_2  and  C_34
    4  A    between atoms: C_4  and  C_17
    5  A    between atoms: C_15  and  C_34
    6  A    between atoms: C_25  and  O_27
    7  A    between atoms: C_26  and  C_28
    8  A    between atoms: C_26  and  C_32
                            x       y       z     vdW  Elec       q    Type
                         _______ _______ _______ _____ _____    ______ ____

>  <TORSDO>
F 8

$$$$
=
 OpenBabel11062418503D

 37 40  0  0  1  0  0  0  0  0999 V2000
  192.1740  175.9430  146.8590 C   0  0  1  0  0  3  0  0  0  0  0  0
  192.1910  172.5190  144.0990 C   0  0  0  0  0  2  0  0  0  0  0  0
  191.0500  175.7380  145.8650 C   0  0  0  0  0  0  0  0  0  0  0  0
  193.5430  174.5330  144.4370 C   0  0  2  0  0  3  0  0  0  0  0  0
  194.4290  173.4730  143.8120 C   0  0  0  0  0  2  0  0  0  0  0  0
  194.2680  175.2660  145.5740 C   0  0  1  0  0  3  0  0  0  0  0  0
  195.4950  175.7480  145.1090 O   0  0  0  0  0  1  0  0  0  0  0  0
  193.4520  176.4370  146.1510 C   0  0  2  0  0  3  0  0  0  0  0  0
  189.9720  176.6370  145.7900 C   0  0  0  0  0  3  0  0  0  0  0  0
  191.1180  174.6690  144.9460 C   0  0  0  0  0  0  0  0  0  0  0  0
  188.9600  176.4720  144.8420 C   0  0  0  0  0  0  0  0  0  0  0  0
  193.4810  172.4020  143.3070 C   0  0  1  0  0  3  0  0  0  0  0  0
  192.3290  173.7750  144.9510 C   0  0  1  0  0  3  0  0  0  0  0  0
  194.2620  177.1640  147.0320 O   0  0  0  0  0  1  0  0  0  0  0  0
  190.1060  174.5160  143.9860 C   0  0  0  0  0  3  0  0  0  0  0  0
  189.0300  175.4020  143.9400 C   0  0  0  0  0  3  0  0  0  0  0  0
  193.8370  170.2390  142.4320 O   0  0  0  0  0  0  0  0  0  0  0  0
  194.0750  171.0220  143.3880 C   0  0  0  0  0  0  0  0  0  0  0  0
  197.1470  171.2150  143.4120 C   0  0  0  0  0  1  0  0  0  0  0  0
  194.9540  169.5680  146.8670 C   0  0  0  0  0  2  0  0  0  0  0  0
  196.3860  170.5920  144.5310 C   0  0  0  0  0  0  0  0  0  0  0  0
  194.2580  170.0590  145.6270 C   0  0  0  0  0  3  0  0  0  0  0  0
  197.1310  168.9100  147.5840 O   0  0  0  0  0  0  0  0  0  0  0  0
  196.4380  169.4720  146.6980 C   0  0  0  0  0  0  0  0  0  0  0  0
  194.8900  170.5540  144.5510 C   0  0  0  0  0  0  0  0  0  0  0  0
  197.0960  170.0720  145.5330 C   0  0  0  0  0  3  0  0  0  0  0  0
  191.7730  176.7830  148.0060 C   0  0  0  0  0  0  0  0  0  0  0  0
  191.4580  177.4410  148.9060 N   0  0  0  0  0  0  0  0  0  0  0  0
  187.9000  177.3850  144.8190 O   0  0  0  0  0  0  0  0  0  0  0  0
  186.5530  177.0140  144.5340 C   0  0  2  0  0  3  0  0  0  0  0  0
  186.8310  178.4880  142.6730 O   0  0  0  0  0  0  0  0  0  0  0  0
  186.0820  177.6700  143.2690 C   0  0  0  0  0  0  0  0  0  0  0  0
  184.8280  177.3780  142.7470 O   0  0  0  0  0  1  0  0  0  0  0  0
  186.2080  176.7640  147.0560 C   0  0  0  0  0  1  0  0  0  0  0  0
  185.6610  177.3130  145.7450 C   0  0  1  0  0  3  0  0  0  0  0  0
  183.8850  178.9460  145.7640 O   0  0  0  0  0  1  0  0  0  0  0  0
  185.2700  178.7830  145.8560 C   0  0  0  0  0  2  0  0  0  0  0  0
  1 27  1  1  0  0  0
  3  1  1  0  0  0  0
  4  5  1  1  0  0  0
  4 13  1  0  0  0  0
  4  6  1  0  0  0  0
  6  7  1  6  0  0  0
  6  8  1  0  0  0  0
  8  1  1  0  0  0  0
  8 14  1  1  0  0  0
  9  3  1  0  0  0  0
 10 13  1  0  0  0  0
 10  3  2  0  0  0  0
 11  9  2  0  0  0  0
 12 18  1  1  0  0  0
 12  5  1  0  0  0  0
 12  2  1  0  0  0  0
 13  2  1  6  0  0  0
 15 10  1  0  0  0  0
 16 15  2  0  0  0  0
 16 11  1  0  0  0  0
 17 18  2  0  0  0  0
 18 25  1  0  0  0  0
 19 21  1  0  0  0  0
 21 25  1  0  0  0  0
 21 26  2  0  0  0  0
 22 20  1  0  0  0  0
 24 20  1  0  0  0  0
 24 23  2  0  0  0  0
 25 22  2  0  0  0  0
 26 24  1  0  0  0  0
 27 28  3  0  0  0  0
 29 11  1  0  0  0  0
 30 32  1  6  0  0  0
 30 29  1  0  0  0  0
 30 35  1  0  0  0  0
 31 32  2  0  0  0  0
 33 32  1  0  0  0  0
 35 37  1  0  0  0  0
 35 34  1  1  0  0  0
 36 37  1  0  0  0  0
M  END
>  <MODEL>
4

>  <REMARK>
 VINA RESULT:      -7.2      2.158      3.092
  Name = 
  8 active torsions:
  status: ('A' for Active; 'I' for Inactive)
    1  A    between atoms: C_2  and  C_7
    2  A    between atoms: C_2  and  O_27
    3  A    between atoms: C_2  and  C_34
    4  A    between atoms: C_4  and  C_17
    5  A    between atoms: C_15  and  C_34
    6  A    between atoms: C_25  and  O_27
    7  A    between atoms: C_26  and  C_28
    8  A    between atoms: C_26  and  C_32
                            x       y       z     vdW  Elec       q    Type
                         _______ _______ _______ _____ _____    ______ ____

>  <TORSDO>
F 8

$$$$
=
 OpenBabel11062418503D

 37 40  0  0  1  0  0  0  0  0999 V2000
  192.3320  175.6110  146.7830 C   0  0  1  0  0  3  0  0  0  0  0  0
  192.8340  172.0710  144.2230 C   0  0  0  0  0  2  0  0  0  0  0  0
  191.2280  175.1630  145.8460 C   0  0  0  0  0  0  0  0  0  0  0  0
  193.8440  174.2960  144.3930 C   0  0  2  0  0  3  0  0  0  0  0  0
  194.8740  173.3580  143.7940 C   0  0  0  0  0  2  0  0  0  0  0  0
  194.4700  175.2070  145.4570 C   0  0  1  0  0  3  0  0  0  0  0  0
  195.5860  175.8530  144.9180 O   0  0  0  0  0  1  0  0  0  0  0  0
  193.4880  176.2620  145.9980 C   0  0  2  0  0  3  0  0  0  0  0  0
  190.0140  175.8680  145.7630 C   0  0  0  0  0  3  0  0  0  0  0  0
  191.4450  174.0650  144.9880 C   0  0  0  0  0  0  0  0  0  0  0  0
  189.0160  175.4800  144.8660 C   0  0  0  0  0  0  0  0  0  0  0  0
  194.1020  172.1170  143.3880 C   0  0  1  0  0  3  0  0  0  0  0  0
  192.7870  173.3820  144.9950 C   0  0  1  0  0  3  0  0  0  0  0  0
  194.1920  177.1650  146.8040 O   0  0  0  0  0  1  0  0  0  0  0  0
  190.4450  173.6880  144.0790 C   0  0  0  0  0  3  0  0  0  0  0  0
  189.2360  174.3830  144.0240 C   0  0  0  0  0  3  0  0  0  0  0  0
  195.3270  170.3260  142.4600 O   0  0  0  0  0  0  0  0  0  0  0  0
  194.9190  170.8610  143.5240 C   0  0  0  0  0  0  0  0  0  0  0  0
  197.5180  171.4620  145.0590 C   0  0  0  0  0  1  0  0  0  0  0  0
  194.4990  168.7000  146.7090 C   0  0  0  0  0  2  0  0  0  0  0  0
  196.5170  170.4750  145.5550 C   0  0  0  0  0  0  0  0  0  0  0  0
  194.3240  169.3910  145.3850 C   0  0  0  0  0  3  0  0  0  0  0  0
  196.2260  168.1870  148.2720 O   0  0  0  0  0  0  0  0  0  0  0  0
  195.8810  168.8560  147.2650 C   0  0  0  0  0  0  0  0  0  0  0  0
  195.2250  170.2280  144.8430 C   0  0  0  0  0  0  0  0  0  0  0  0
  196.8170  169.8180  146.6760 C   0  0  0  0  0  3  0  0  0  0  0  0
  191.8300  176.4440  147.8950 C   0  0  0  0  0  0  0  0  0  0  0  0
  191.4370  177.0970  148.7660 N   0  0  0  0  0  0  0  0  0  0  0  0
  187.8190  176.2050  144.8330 O   0  0  0  0  0  0  0  0  0  0  0  0
  187.7540  177.5940  144.5170 C   0  0  2  0  0  3  0  0  0  0  0  0
  186.6500  177.9400  146.6080 O   0  0  0  0  0  1  0  0  0  0  0  0
  186.7640  178.2900  145.4040 C   0  0  0  0  0  0  0  0  0  0  0  0
  185.9770  179.3220  144.9090 O   0  0  0  0  0  0  0  0  0  0  0  0
  188.7240  177.9170  142.1720 C   0  0  0  0  0  1  0  0  0  0  0  0
  187.4680  177.7770  143.0220 C   0  0  1  0  0  3  0  0  0  0  0  0
  185.1950  177.2100  142.4410 O   0  0  0  0  0  1  0  0  0  0  0  0
  186.5080  176.7320  142.4600 C   0  0  0  0  0  2  0  0  0  0  0  0
  1 27  1  1  0  0  0
  3  1  1  0  0  0  0
  4  5  1  1  0  0  0
  4 13  1  0  0  0  0
  4  6  1  0  0  0  0
  6  7  1  6  0  0  0
  6  8  1  0  0  0  0
  8  1  1  0  0  0  0
  8 14  1  1  0  0  0
  9  3  1  0  0  0  0
 10 13  1  0  0  0  0
 10  3  2  0  0  0  0
 11  9  2  0  0  0  0
 12 18  1  1  0  0  0
 12  5  1  0  0  0  0
 12  2  1  0  0  0  0
 13  2  1  6  0  0  0
 15 10  1  0  0  0  0
 16 15  2  0  0  0  0
 16 11  1  0  0  0  0
 17 18  2  0  0  0  0
 18 25  1  0  0  0  0
 19 21  1  0  0  0  0
 20 24  1  0  0  0  0
 21 26  2  0  0  0  0
 22 20  1  0  0  0  0
 24 23  2  0  0  0  0
 25 22  2  0  0  0  0
 25 21  1  0  0  0  0
 26 24  1  0  0  0  0
 27 28  3  0  0  0  0
 29 11  1  0  0  0  0
 30 29  1  1  0  0  0
 30 32  1  0  0  0  0
 32 31  1  0  0  0  0
 33 32  2  0  0  0  0
 35 34  1  6  0  0  0
 35 30  1  0  0  0  0
 36 37  1  0  0  0  0
 37 35  1  0  0  0  0
M  END
>  <MODEL>
5

>  <REMARK>
 VINA RESULT:      -7.1      2.373      3.861
  Name = 
  8 active torsions:
  status: ('A' for Active; 'I' for Inactive)
    1  A    between atoms: C_2  and  C_7
    2  A    between atoms: C_2  and  O_27
    3  A    between atoms: C_2  and  C_34
    4  A    between atoms: C_4  and  C_17
    5  A    between atoms: C_15  and  C_34
    6  A    between atoms: C_25  and  O_27
    7  A    between atoms: C_26  and  C_28
    8  A    between atoms: C_26  and  C_32
                            x       y       z     vdW  Elec       q    Type
                         _______ _______ _______ _____ _____    ______ ____

>  <TORSDO>
F 8

$$$$
=
 OpenBabel11062418503D

 37 40  0  0  1  0  0  0  0  0999 V2000
  190.0410  174.3910  142.4240 C   0  0  1  0  0  3  0  0  0  0  0  0
  193.5830  175.5130  144.7760 C   0  0  0  0  0  2  0  0  0  0  0  0
  189.9810  175.5170  143.4350 C   0  0  0  0  0  0  0  0  0  0  0  0
  192.1050  173.5660  144.6110 C   0  0  2  0  0  3  0  0  0  0  0  0
  193.4660  173.0840  145.0760 C   0  0  0  0  0  2  0  0  0  0  0  0
  191.5230  172.6400  143.5350 C   0  0  1  0  0  3  0  0  0  0  0  0
  191.5340  171.3220  144.0000 O   0  0  0  0  0  1  0  0  0  0  0  0
  190.0870  173.0200  143.1290 C   0  0  2  0  0  3  0  0  0  0  0  0
  188.7910  176.2330  143.6560 C   0  0  0  0  0  3  0  0  0  0  0  0
  191.1140  175.8080  144.2230 C   0  0  0  0  0  0  0  0  0  0  0  0
  188.7250  177.2410  144.6200 C   0  0  0  0  0  0  0  0  0  0  0  0
  194.2160  174.3340  145.4960 C   0  0  1  0  0  3  0  0  0  0  0  0
  192.3520  174.9650  144.0670 C   0  0  1  0  0  3  0  0  0  0  0  0
  189.5690  172.0160  142.3030 O   0  0  0  0  0  1  0  0  0  0  0  0
  191.0380  176.8120  145.2000 C   0  0  0  0  0  3  0  0  0  0  0  0
  189.8580  177.5300  145.3910 C   0  0  0  0  0  3  0  0  0  0  0  0
  196.4580  174.3090  146.2320 O   0  0  0  0  0  0  0  0  0  0  0  0
  195.6940  174.2340  145.2340 C   0  0  0  0  0  0  0  0  0  0  0  0
  196.5900  176.6640  143.5700 C   0  0  0  0  0  1  0  0  0  0  0  0
  197.0040  172.5630  141.9970 C   0  0  0  0  0  2  0  0  0  0  0  0
  196.6460  175.2750  143.0340 C   0  0  0  0  0  0  0  0  0  0  0  0
  196.4240  172.8530  143.3540 C   0  0  0  0  0  3  0  0  0  0  0  0
  197.4880  173.6930  139.9530 O   0  0  0  0  0  0  0  0  0  0  0  0
  197.1840  173.7970  141.1690 C   0  0  0  0  0  0  0  0  0  0  0  0
  196.2700  174.0870  143.8630 C   0  0  0  0  0  0  0  0  0  0  0  0
  197.0580  175.1260  141.7740 C   0  0  0  0  0  3  0  0  0  0  0  0
  188.9840  174.4910  141.3960 C   0  0  0  0  0  0  0  0  0  0  0  0
  188.1560  174.5690  140.5910 N   0  0  0  0  0  0  0  0  0  0  0  0
  187.5220  177.9360  144.7900 O   0  0  0  0  0  0  0  0  0  0  0  0
  186.2450  177.3740  144.4920 C   0  0  2  0  0  3  0  0  0  0  0  0
  185.7770  179.4900  143.4860 O   0  0  0  0  0  1  0  0  0  0  0  0
  185.4800  178.2690  143.5630 C   0  0  0  0  0  0  0  0  0  0  0  0
  184.4510  177.7600  142.7800 O   0  0  0  0  0  0  0  0  0  0  0  0
  186.4140  176.7560  146.9690 C   0  0  0  0  0  1  0  0  0  0  0  0
  185.4960  177.0620  145.7930 C   0  0  1  0  0  3  0  0  0  0  0  0
  184.6780  178.6620  147.4040 O   0  0  0  0  0  1  0  0  0  0  0  0
  184.4390  178.1060  146.1450 C   0  0  0  0  0  2  0  0  0  0  0  0
  1 27  1  6  0  0  0
  1  8  1  0  0  0  0
  1  3  1  0  0  0  0
  2 12  1  0  0  0  0
  3  9  2  0  0  0  0
  3 10  1  0  0  0  0
  4  5  1  6  0  0  0
  5 12  1  0  0  0  0
  6  7  1  1  0  0  0
  6  4  1  0  0  0  0
  8 14  1  6  0  0  0
  8  6  1  0  0  0  0
  9 11  1  0  0  0  0
 10 15  2  0  0  0  0
 11 29  1  0  0  0  0
 11 16  2  0  0  0  0
 12 18  1  6  0  0  0
 13 10  1  0  0  0  0
 13  4  1  0  0  0  0
 13  2  1  1  0  0  0
 15 16  1  0  0  0  0
 18 17  2  0  0  0  0
 20 22  1  0  0  0  0
 21 19  1  0  0  0  0
 21 25  1  0  0  0  0
 22 25  2  0  0  0  0
 23 24  2  0  0  0  0
 24 26  1  0  0  0  0
 24 20  1  0  0  0  0
 25 18  1  0  0  0  0
 26 21  2  0  0  0  0
 28 27  3  0  0  0  0
 30 32  1  6  0  0  0
 30 29  1  0  0  0  0
 30 35  1  0  0  0  0
 31 32  1  0  0  0  0
 33 32  2  0  0  0  0
 35 37  1  0  0  0  0
 35 34  1  1  0  0  0
 37 36  1  0  0  0  0
M  END
>  <MODEL>
6

>  <REMARK>
 VINA RESULT:      -7.1      2.656      3.581
  Name = 
  8 active torsions:
  status: ('A' for Active; 'I' for Inactive)
    1  A    between atoms: C_2  and  C_7
    2  A    between atoms: C_2  and  O_27
    3  A    between atoms: C_2  and  C_34
    4  A    between atoms: C_4  and  C_17
    5  A    between atoms: C_15  and  C_34
    6  A    between atoms: C_25  and  O_27
    7  A    between atoms: C_26  and  C_28
    8  A    between atoms: C_26  and  C_32
                            x       y       z     vdW  Elec       q    Type
                         _______ _______ _______ _____ _____    ______ ____

>  <TORSDO>
F 8

$$$$
=
 OpenBabel11062418503D

 37 40  0  0  1  0  0  0  0  0999 V2000
  190.6060  175.3260  146.4210 C   0  0  1  0  0  3  0  0  0  0  0  0
  193.5380  175.2510  143.1450 C   0  0  0  0  0  2  0  0  0  0  0  0
  190.2000  175.6750  145.0040 C   0  0  0  0  0  0  0  0  0  0  0  0
  193.1780  176.5740  145.1750 C   0  0  2  0  0  3  0  0  0  0  0  0
  194.6620  176.5870  144.8640 C   0  0  0  0  0  2  0  0  0  0  0  0
  192.9240  176.3540  146.6730 C   0  0  1  0  0  3  0  0  0  0  0  0
  193.6540  177.2900  147.4100 O   0  0  0  0  0  1  0  0  0  0  0  0
  191.4350  176.4630  147.0520 C   0  0  2  0  0  3  0  0  0  0  0  0
  188.8780  176.0390  144.6940 C   0  0  0  0  0  3  0  0  0  0  0  0
  191.1780  175.7090  143.9870 C   0  0  0  0  0  0  0  0  0  0  0  0
  188.5160  176.4040  143.3960 C   0  0  0  0  0  0  0  0  0  0  0  0
  194.7810  176.0720  143.4420 C   0  0  1  0  0  3  0  0  0  0  0  0
  192.6150  175.4330  144.3430 C   0  0  1  0  0  3  0  0  0  0  0  0
  191.3210  176.4500  148.4470 O   0  0  0  0  0  1  0  0  0  0  0  0
  190.8120  176.0910  142.6870 C   0  0  0  0  0  3  0  0  0  0  0  0
  189.4910  176.4250  142.3900 C   0  0  0  0  0  3  0  0  0  0  0  0
  196.8360  175.7210  142.3360 O   0  0  0  0  0  0  0  0  0  0  0  0
  196.0460  175.2910  143.2170 C   0  0  0  0  0  0  0  0  0  0  0  0
  195.7930  172.5110  141.9190 C   0  0  0  0  0  1  0  0  0  0  0  0
  197.1910  172.9490  146.0810 C   0  0  0  0  0  2  0  0  0  0  0  0
  196.1880  172.6840  143.3460 C   0  0  0  0  0  0  0  0  0  0  0  0
  196.8140  174.1290  145.2260 C   0  0  0  0  0  3  0  0  0  0  0  0
  196.8980  170.5840  146.1360 O   0  0  0  0  0  0  0  0  0  0  0  0
  196.8090  171.6410  145.4620 C   0  0  0  0  0  0  0  0  0  0  0  0
  196.3720  174.0360  143.9610 C   0  0  0  0  0  0  0  0  0  0  0  0
  196.3820  171.5750  144.0610 C   0  0  0  0  0  3  0  0  0  0  0  0
  189.4600  174.9010  147.2520 C   0  0  0  0  0  0  0  0  0  0  0  0
  188.5630  174.5670  147.9030 N   0  0  0  0  0  0  0  0  0  0  0  0
  187.1830  176.7420  143.1350 O   0  0  0  0  0  0  0  0  0  0  0  0
  186.7150  178.0870  143.0700 C   0  0  2  0  0  3  0  0  0  0  0  0
  185.8060  179.6630  144.6190 O   0  0  0  0  0  0  0  0  0  0  0  0
  185.9830  178.4520  144.3280 C   0  0  0  0  0  0  0  0  0  0  0  0
  185.4930  177.4620  145.1720 O   0  0  0  0  0  1  0  0  0  0  0  0
  186.4210  177.5380  140.5890 C   0  0  0  0  0  1  0  0  0  0  0  0
  185.8820  178.2900  141.7990 C   0  0  1  0  0  3  0  0  0  0  0  0
  183.6670  178.2910  140.8420 O   0  0  0  0  0  1  0  0  0  0  0  0
  184.3910  178.0450  142.0110 C   0  0  0  0  0  2  0  0  0  0  0  0
  1  8  1  0  0  0  0
  1 27  1  1  0  0  0
  2 12  1  0  0  0  0
  3  1  1  0  0  0  0
  4  5  1  1  0  0  0
  4  6  1  0  0  0  0
  6  8  1  0  0  0  0
  6  7  1  1  0  0  0
  8 14  1  1  0  0  0
  9  3  1  0  0  0  0
 10 13  1  0  0  0  0
 10  3  2  0  0  0  0
 11  9  2  0  0  0  0
 12 18  1  1  0  0  0
 12  5  1  0  0  0  0
 13  2  1  6  0  0  0
 13  4  1  0  0  0  0
 15 10  1  0  0  0  0
 16 15  2  0  0  0  0
 16 11  1  0  0  0  0
 17 18  2  0  0  0  0
 18 25  1  0  0  0  0
 19 21  1  0  0  0  0
 21 25  1  0  0  0  0
 21 26  2  0  0  0  0
 22 20  1  0  0  0  0
 24 20  1  0  0  0  0
 24 23  2  0  0  0  0
 25 22  2  0  0  0  0
 26 24  1  0  0  0  0
 27 28  3  0  0  0  0
 29 11  1  0  0  0  0
 30 29  1  1  0  0  0
 30 32  1  0  0  0  0
 32 31  2  0  0  0  0
 32 33  1  0  0  0  0
 35 34  1  6  0  0  0
 35 37  1  0  0  0  0
 35 30  1  0  0  0  0
 36 37  1  0  0  0  0
M  END
>  <MODEL>
7

>  <REMARK>
 VINA RESULT:      -7.1      1.239      2.131
  Name = 
  8 active torsions:
  status: ('A' for Active; 'I' for Inactive)
    1  A    between atoms: C_2  and  C_7
    2  A    between atoms: C_2  and  O_27
    3  A    between atoms: C_2  and  C_34
    4  A    between atoms: C_4  and  C_17
    5  A    between atoms: C_15  and  C_34
    6  A    between atoms: C_25  and  O_27
    7  A    between atoms: C_26  and  C_28
    8  A    between atoms: C_26  and  C_32
                            x       y       z     vdW  Elec       q    Type
                         _______ _______ _______ _____ _____    ______ ____

>  <TORSDO>
F 8

$$$$
=
 OpenBabel11062418503D

 37 40  0  0  1  0  0  0  0  0999 V2000
  190.7090  173.0400  143.4280 C   0  0  1  0  0  3  0  0  0  0  0  0
  188.4740  176.8220  143.6420 C   0  0  0  0  0  2  0  0  0  0  0  0
  191.4210  174.3530  143.6790 C   0  0  0  0  0  0  0  0  0  0  0  0
  188.9750  175.1510  141.9220 C   0  0  2  0  0  3  0  0  0  0  0  0
  187.6600  175.8140  141.5630 C   0  0  0  0  0  2  0  0  0  0  0  0
  188.9040  173.6300  141.7280 C   0  0  1  0  0  3  0  0  0  0  0  0
  188.4560  173.3470  140.4350 O   0  0  0  0  0  1  0  0  0  0  0  0
  190.2570  172.9310  141.9580 C   0  0  2  0  0  3  0  0  0  0  0  0
  192.8160  174.4040  143.8450 C   0  0  0  0  0  3  0  0  0  0  0  0
  190.6860  175.5570  143.6740 C   0  0  0  0  0  0  0  0  0  0  0  0
  193.4770  175.6200  144.0310 C   0  0  0  0  0  0  0  0  0  0  0  0
  187.5800  177.0520  142.4360 C   0  0  1  0  0  3  0  0  0  0  0  0
  189.2100  175.5140  143.3800 C   0  0  1  0  0  3  0  0  0  0  0  0
  190.1480  171.5920  141.5670 O   0  0  0  0  0  1  0  0  0  0  0  0
  191.3560  176.7790  143.8460 C   0  0  0  0  0  3  0  0  0  0  0  0
  192.7380  176.8100  144.0340 C   0  0  0  0  0  3  0  0  0  0  0  0
  185.3220  177.4860  141.9040 O   0  0  0  0  0  0  0  0  0  0  0  0
  186.1680  177.3870  142.8310 C   0  0  0  0  0  0  0  0  0  0  0  0
  185.5660  180.2140  143.8890 C   0  0  0  0  0  1  0  0  0  0  0  0
  185.1930  176.6880  146.5130 C   0  0  0  0  0  2  0  0  0  0  0  0
  185.5240  179.0150  144.7720 C   0  0  0  0  0  0  0  0  0  0  0  0
  185.6170  176.5830  145.0730 C   0  0  0  0  0  3  0  0  0  0  0  0
  184.9990  178.3300  148.2300 O   0  0  0  0  0  0  0  0  0  0  0  0
  185.1600  178.1010  147.0040 C   0  0  0  0  0  0  0  0  0  0  0  0
  185.7550  177.6320  144.2460 C   0  0  0  0  0  0  0  0  0  0  0  0
  185.2610  179.2200  146.0630 C   0  0  0  0  0  3  0  0  0  0  0  0
  191.4860  171.8730  143.8950 C   0  0  0  0  0  0  0  0  0  0  0  0
  192.0950  170.9600  144.2610 N   0  0  0  0  0  0  0  0  0  0  0  0
  194.8650  175.6160  144.2080 O   0  0  0  0  0  0  0  0  0  0  0  0
  195.6980  174.5210  143.8330 C   0  0  2  0  0  3  0  0  0  0  0  0
  195.6420  173.1090  145.7590 O   0  0  0  0  0  1  0  0  0  0  0  0
  196.3200  173.8930  145.0450 C   0  0  0  0  0  0  0  0  0  0  0  0
  197.6400  174.1650  145.3830 O   0  0  0  0  0  0  0  0  0  0  0  0
  196.6760  174.1770  141.4940 C   0  0  0  0  0  1  0  0  0  0  0  0
  196.7240  174.9780  142.7880 C   0  0  1  0  0  3  0  0  0  0  0  0
  195.9340  176.7900  141.4030 O   0  0  0  0  0  1  0  0  0  0  0  0
  196.6940  176.4830  142.5350 C   0  0  0  0  0  2  0  0  0  0  0  0
  1  3  1  0  0  0  0
  1 27  1  6  0  0  0
  3  9  1  0  0  0  0
  4  5  1  1  0  0  0
  4 13  1  0  0  0  0
  5 12  1  0  0  0  0
  6  7  1  6  0  0  0
  6  4  1  0  0  0  0
  6  8  1  0  0  0  0
  8 14  1  1  0  0  0
  8  1  1  0  0  0  0
  9 11  2  0  0  0  0
 10  3  2  0  0  0  0
 10 15  1  0  0  0  0
 11 16  1  0  0  0  0
 11 29  1  0  0  0  0
 12 18  1  1  0  0  0
 12  2  1  0  0  0  0
 13  2  1  6  0  0  0
 13 10  1  0  0  0  0
 15 16  2  0  0  0  0
 17 18  2  0  0  0  0
 18 25  1  0  0  0  0
 19 21  1  0  0  0  0
 20 24  1  0  0  0  0
 21 26  2  0  0  0  0
 22 20  1  0  0  0  0
 24 23  2  0  0  0  0
 25 21  1  0  0  0  0
 25 22  2  0  0  0  0
 26 24  1  0  0  0  0
 27 28  3  0  0  0  0
 30 29  1  1  0  0  0
 30 32  1  0  0  0  0
 32 33  2  0  0  0  0
 32 31  1  0  0  0  0
 35 34  1  6  0  0  0
 35 30  1  0  0  0  0
 36 37  1  0  0  0  0
 37 35  1  0  0  0  0
M  END
>  <MODEL>
8

>  <REMARK>
 VINA RESULT:      -7.0      2.608      9.449
  Name = 
  8 active torsions:
  status: ('A' for Active; 'I' for Inactive)
    1  A    between atoms: C_2  and  C_7
    2  A    between atoms: C_2  and  O_27
    3  A    between atoms: C_2  and  C_34
    4  A    between atoms: C_4  and  C_17
    5  A    between atoms: C_15  and  C_34
    6  A    between atoms: C_25  and  O_27
    7  A    between atoms: C_26  and  C_28
    8  A    between atoms: C_26  and  C_32
                            x       y       z     vdW  Elec       q    Type
                         _______ _______ _______ _____ _____    ______ ____

>  <TORSDO>
F 8

$$$$
=
 OpenBabel11062418503D

 37 40  0  0  1  0  0  0  0  0999 V2000
  190.4830  175.4230  146.0790 C   0  0  1  0  0  3  0  0  0  0  0  0
  192.8280  175.9420  142.3950 C   0  0  0  0  0  2  0  0  0  0  0  0
  189.9600  176.2670  144.9350 C   0  0  0  0  0  0  0  0  0  0  0  0
  193.0540  176.5840  144.7480 C   0  0  2  0  0  3  0  0  0  0  0  0
  194.4450  176.4630  144.1590 C   0  0  0  0  0  2  0  0  0  0  0  0
  192.9780  175.9390  146.1380 C   0  0  1  0  0  3  0  0  0  0  0  0
  193.9890  176.4620  146.9490 O   0  0  0  0  0  1  0  0  0  0  0  0
  191.6170  176.1530  146.8270 C   0  0  2  0  0  3  0  0  0  0  0  0
  188.7140  176.9130  145.0180 C   0  0  0  0  0  3  0  0  0  0  0  0
  190.7650  176.4700  143.7940 C   0  0  0  0  0  0  0  0  0  0  0  0
  188.2540  177.7270  143.9800 C   0  0  0  0  0  0  0  0  0  0  0  0
  194.2460  176.4190  142.6560 C   0  0  1  0  0  3  0  0  0  0  0  0
  192.1470  175.8730  143.7560 C   0  0  1  0  0  3  0  0  0  0  0  0
  191.7060  175.7120  148.1530 O   0  0  0  0  0  1  0  0  0  0  0  0
  190.3040  177.3010  142.7610 C   0  0  0  0  0  3  0  0  0  0  0  0
  189.0550  177.9160  142.8470 C   0  0  0  0  0  3  0  0  0  0  0  0
  196.2850  176.1460  141.5010 O   0  0  0  0  0  0  0  0  0  0  0  0
  195.2700  175.5630  141.9640 C   0  0  0  0  0  0  0  0  0  0  0  0
  194.2940  174.3370  139.3150 C   0  0  0  0  0  1  0  0  0  0  0  0
  195.3320  171.7720  142.7500 C   0  0  0  0  0  2  0  0  0  0  0  0
  194.5770  173.5010  140.5150 C   0  0  0  0  0  0  0  0  0  0  0  0
  195.4300  173.2720  142.8030 C   0  0  0  0  0  3  0  0  0  0  0  0
  194.3110  170.0670  141.4320 O   0  0  0  0  0  0  0  0  0  0  0  0
  194.6250  171.2810  141.5250 C   0  0  0  0  0  0  0  0  0  0  0  0
  195.1110  174.0880  141.7840 C   0  0  0  0  0  0  0  0  0  0  0  0
  194.3420  172.1920  140.4130 C   0  0  0  0  0  3  0  0  0  0  0  0
  189.4060  174.9390  146.9680 C   0  0  0  0  0  0  0  0  0  0  0  0
  188.5630  174.5590  147.6640 N   0  0  0  0  0  0  0  0  0  0  0  0
  187.0000  178.3350  144.1040 O   0  0  0  0  0  0  0  0  0  0  0  0
  185.7750  177.6050  144.1350 C   0  0  2  0  0  3  0  0  0  0  0  0
  183.8420  178.4720  143.0300 O   0  0  0  0  0  1  0  0  0  0  0  0
  184.9560  177.8970  142.9130 C   0  0  0  0  0  0  0  0  0  0  0  0
  185.4200  177.5460  141.6510 O   0  0  0  0  0  0  0  0  0  0  0  0
  185.2020  176.7850  146.4900 C   0  0  0  0  0  1  0  0  0  0  0  0
  185.0340  177.8840  145.4480 C   0  0  1  0  0  3  0  0  0  0  0  0
  185.9580  179.1800  147.2620 O   0  0  0  0  0  1  0  0  0  0  0  0
  185.3230  179.2680  146.0210 C   0  0  0  0  0  2  0  0  0  0  0  0
  1  8  1  0  0  0  0
  1 27  1  1  0  0  0
  2 12  1  0  0  0  0
  3  9  1  0  0  0  0
  3  1  1  0  0  0  0
  4  5  1  6  0  0  0
  4  6  1  0  0  0  0
  6  8  1  0  0  0  0
  6  7  1  1  0  0  0
  8 14  1  1  0  0  0
 10  3  2  0  0  0  0
 11 29  1  0  0  0  0
 11  9  2  0  0  0  0
 12 18  1  6  0  0  0
 12  5  1  0  0  0  0
 13  2  1  6  0  0  0
 13 10  1  0  0  0  0
 13  4  1  0  0  0  0
 15 16  2  0  0  0  0
 15 10  1  0  0  0  0
 16 11  1  0  0  0  0
 17 18  2  0  0  0  0
 19 21  1  0  0  0  0
 20 22  1  0  0  0  0
 21 25  1  0  0  0  0
 23 24  2  0  0  0  0
 24 20  1  0  0  0  0
 25 18  1  0  0  0  0
 25 22  2  0  0  0  0
 26 21  2  0  0  0  0
 26 24  1  0  0  0  0
 27 28  3  0  0  0  0
 29 30  1  0  0  0  0
 30 32  1  6  0  0  0
 30 35  1  0  0  0  0
 32 31  1  0  0  0  0
 33 32  2  0  0  0  0
 35 37  1  0  0  0  0
 35 34  1  1  0  0  0
 37 36  1  0  0  0  0
M  END
>  <MODEL>
9

>  <REMARK>
 VINA RESULT:      -7.0      1.243      1.640
  Name = 
  8 active torsions:
  status: ('A' for Active; 'I' for Inactive)
    1  A    between atoms: C_2  and  C_7
    2  A    between atoms: C_2  and  O_27
    3  A    between atoms: C_2  and  C_34
    4  A    between atoms: C_4  and  C_17
    5  A    between atoms: C_15  and  C_34
    6  A    between atoms: C_25  and  O_27
    7  A    between atoms: C_26  and  C_28
    8  A    between atoms: C_26  and  C_32
                            x       y       z     vdW  Elec       q    Type
                         _______ _______ _______ _____ _____    ______ ____

>  <TORSDO>
F 8

$$$$
