=
 OpenBabel11062422093D

 27 32  0  0  1  0  0  0  0  0999 V2000
  187.6000  177.8570  143.3780 C   0  0  1  0  0  3  0  0  0  0  0  0
  188.2850  176.8910  145.6530 C   0  0  1  0  0  3  0  0  0  0  0  0
  185.6010  177.0610  146.4720 C   0  0  0  0  0  0  0  0  0  0  0  0
  191.3080  175.4630  144.9270 C   0  0  1  0  0  0  0  0  0  0  0  0
  185.1640  178.3240  140.7690 C   0  0  0  0  0  0  0  0  0  0  0  0
  186.5470  176.6170  141.7020 N   0  0  0  0  0  0  0  0  0  0  0  0
  189.2780  174.9160  143.3200 C   0  0  0  0  0  0  0  0  0  0  0  0
  190.0100  177.1480  143.9950 O   0  0  0  0  0  0  0  0  0  0  0  0
  189.7430  172.4280  143.0420 O   0  0  0  0  0  0  0  0  0  0  0  0
  185.9670  177.4210  145.1660 O   0  0  0  0  0  0  0  0  0  0  0  0
  191.3830  175.9500  142.4990 C   0  0  0  0  0  1  0  0  0  0  0  0
  190.4760  174.6930  145.9630 C   0  0  1  0  0  3  0  0  0  0  0  0
  189.5170  173.6370  143.1810 C   0  0  0  0  0  0  0  0  0  0  0  0
  189.7680  177.2000  145.3900 C   0  0  2  0  0  3  0  0  0  0  0  0
  184.2820  178.6720  139.9750 O   0  0  0  0  0  0  0  0  0  0  0  0
  186.0950  177.9530  141.6040 C   0  0  0  0  0  0  0  0  0  0  0  0
  187.9280  176.8720  147.1180 C   0  0  0  0  0  3  0  0  0  0  0  0
  191.6060  174.0090  145.2180 C   0  0  0  0  0  2  0  0  0  0  0  0
  191.6690  176.6580  146.9420 O   0  0  0  0  0  1  0  0  0  0  0  0
  187.9550  175.3000  143.0110 O   0  0  0  0  0  0  0  0  0  0  0  0
  190.4540  175.8520  143.6970 C   0  0  1  0  0  0  0  0  0  0  0  0
  186.6580  178.8250  142.6590 C   0  0  0  0  0  2  0  0  0  0  0  0
  187.3160  177.8100  144.8860 C   0  0  2  0  0  3  0  0  0  0  0  0
  186.6470  176.9060  147.4970 C   0  0  0  0  0  3  0  0  0  0  0  0
  184.3920  176.8550  146.7610 O   0  0  0  0  0  0  0  0  0  0  0  0
  190.6850  176.1900  146.0700 C   0  0  2  0  0  0  0  0  0  0  0  0
  187.3960  176.5430  142.6700 C   0  0  0  0  0  0  0  0  0  0  0  0
  1 22  1  6  0  0  0
  1 23  1  0  0  0  0
  2 17  1  1  0  0  0
  3 25  2  0  0  0  0
  3 24  1  0  0  0  0
  4 18  1  6  0  0  0
  4 12  1  0  0  0  0
  4 26  1  0  0  0  0
  5 16  2  0  0  0  0
  6 27  2  0  0  0  0
  7 21  1  0  0  0  0
  9 13  2  0  0  0  0
 10  3  1  0  0  0  0
 12 18  1  1  0  0  0
 12 26  1  0  0  0  0
 13  7  2  0  0  0  0
 14  8  1  6  0  0  0
 14  2  1  0  0  0  0
 14 26  1  0  0  0  0
 15  5  2  0  0  0  0
 16  6  1  0  0  0  0
 16 22  1  0  0  0  0
 17 24  2  0  0  0  0
 20  7  1  0  0  0  0
 21 11  1  6  0  0  0
 21  8  1  0  0  0  0
 21  4  1  0  0  0  0
 23 10  1  6  0  0  0
 23  2  1  0  0  0  0
 26 19  1  1  0  0  0
 27 20  1  0  0  0  0
 27  1  1  0  0  0  0
M  END
>  <MODEL>
1

>  <REMARK>
 VINA RESULT:      -8.3      0.000      0.000
  Name = 
  0 active torsions:
  status: ('A' for Active; 'I' for Inactive)
                            x       y       z     vdW  Elec       q    Type
                         _______ _______ _______ _____ _____    ______ ____

>  <TORSDO>
F 0

$$$$
=
 OpenBabel11062422093D

 27 32  0  0  1  0  0  0  0  0999 V2000
  189.4510  177.2960  142.9600 C   0  0  1  0  0  3  0  0  0  0  0  0
  190.1960  176.9330  145.3870 C   0  0  1  0  0  3  0  0  0  0  0  0
  187.5720  177.5030  146.2200 C   0  0  0  0  0  0  0  0  0  0  0  0
  193.0890  175.1550  144.9740 C   0  0  1  0  0  0  0  0  0  0  0  0
  186.9140  177.2130  140.4080 C   0  0  0  0  0  0  0  0  0  0  0  0
  188.2420  175.7280  141.7210 N   0  0  0  0  0  0  0  0  0  0  0  0
  190.9510  174.3390  143.6470 C   0  0  0  0  0  0  0  0  0  0  0  0
  191.8450  176.6140  143.6640 O   0  0  0  0  0  0  0  0  0  0  0  0
  191.2560  171.8410  144.0390 O   0  0  0  0  0  0  0  0  0  0  0  0
  187.8900  177.4720  144.8540 O   0  0  0  0  0  0  0  0  0  0  0  0
  193.0670  174.9640  142.5030 C   0  0  0  0  0  1  0  0  0  0  0  0
  192.2690  174.7520  146.2080 C   0  0  1  0  0  3  0  0  0  0  0  0
  191.1080  173.0560  143.8520 C   0  0  0  0  0  0  0  0  0  0  0  0
  191.6780  177.0550  144.9990 C   0  0  2  0  0  3  0  0  0  0  0  0
  186.0130  177.3950  139.5790 O   0  0  0  0  0  0  0  0  0  0  0  0
  187.8640  177.0170  141.2790 C   0  0  0  0  0  0  0  0  0  0  0  0
  189.9140  177.3340  146.8140 C   0  0  0  0  0  3  0  0  0  0  0  0
  193.3170  173.8150  145.6390 C   0  0  0  0  0  2  0  0  0  0  0  0
  193.6230  176.8200  146.5750 O   0  0  0  0  0  1  0  0  0  0  0  0
  189.6380  174.7170  143.2900 O   0  0  0  0  0  0  0  0  0  0  0  0
  192.1960  175.2580  143.7140 C   0  0  1  0  0  0  0  0  0  0  0  0
  188.5310  178.0990  142.0380 C   0  0  0  0  0  2  0  0  0  0  0  0
  189.2430  177.6760  144.4330 C   0  0  2  0  0  3  0  0  0  0  0  0
  188.6590  177.5570  147.2130 C   0  0  0  0  0  3  0  0  0  0  0  0
  186.3690  177.4670  146.5950 O   0  0  0  0  0  0  0  0  0  0  0  0
  192.5690  176.2040  145.8970 C   0  0  2  0  0  0  0  0  0  0  0  0
  189.1340  175.8580  142.6440 C   0  0  0  0  0  0  0  0  0  0  0  0
  1 22  1  6  0  0  0
  1 23  1  0  0  0  0
  2 17  1  1  0  0  0
  3 25  2  0  0  0  0
  3 24  1  0  0  0  0
  4 18  1  6  0  0  0
  4 26  1  0  0  0  0
  4 12  1  0  0  0  0
  5 16  2  0  0  0  0
  6 27  2  0  0  0  0
  7 21  1  0  0  0  0
  7 13  2  0  0  0  0
  8 21  1  0  0  0  0
 10  3  1  0  0  0  0
 12 18  1  1  0  0  0
 13  9  2  0  0  0  0
 14  8  1  6  0  0  0
 14  2  1  0  0  0  0
 14 26  1  0  0  0  0
 15  5  2  0  0  0  0
 16  6  1  0  0  0  0
 16 22  1  0  0  0  0
 17 24  2  0  0  0  0
 20  7  1  0  0  0  0
 21 11  1  6  0  0  0
 21  4  1  0  0  0  0
 23 10  1  1  0  0  0
 23  2  1  0  0  0  0
 26 12  1  0  0  0  0
 26 19  1  1  0  0  0
 27  1  1  0  0  0  0
 27 20  1  0  0  0  0
M  END
>  <MODEL>
2

>  <REMARK>
 VINA RESULT:      -8.0      1.674      1.953
  Name = 
  0 active torsions:
  status: ('A' for Active; 'I' for Inactive)
                            x       y       z     vdW  Elec       q    Type
                         _______ _______ _______ _____ _____    ______ ____

>  <TORSDO>
F 0

$$$$
=
 OpenBabel11062422093D

 27 32  0  0  1  0  0  0  0  0999 V2000
  191.5510  176.4470  143.6530 C   0  0  1  0  0  3  0  0  0  0  0  0
  189.0220  176.3410  143.2400 C   0  0  1  0  0  3  0  0  0  0  0  0
  189.4960  174.5400  141.1330 C   0  0  0  0  0  0  0  0  0  0  0  0
  187.7790  177.5210  146.2010 C   0  0  1  0  0  0  0  0  0  0  0  0
  194.8150  174.9340  143.5540 C   0  0  0  0  0  0  0  0  0  0  0  0
  192.7600  174.7820  144.7580 N   0  0  0  0  0  0  0  0  0  0  0  0
  189.6250  175.6300  146.3150 C   0  0  0  0  0  0  0  0  0  0  0  0
  189.7900  177.7190  145.0570 O   0  0  0  0  0  0  0  0  0  0  0  0
  188.5570  174.2410  148.1630 O   0  0  0  0  0  0  0  0  0  0  0  0
  190.5620  175.0160  141.9120 O   0  0  0  0  0  0  0  0  0  0  0  0
  189.9180  177.8420  147.4090 C   0  0  0  0  0  1  0  0  0  0  0  0
  186.9300  176.4180  145.5520 C   0  0  1  0  0  3  0  0  0  0  0  0
  189.0730  174.9160  147.2630 C   0  0  0  0  0  0  0  0  0  0  0  0
  188.7880  177.6190  144.0620 C   0  0  2  0  0  3  0  0  0  0  0  0
  195.9570  174.5120  143.3270 O   0  0  0  0  0  0  0  0  0  0  0  0
  193.6130  175.3750  143.7980 C   0  0  0  0  0  0  0  0  0  0  0  0
  187.9770  176.1110  142.1770 C   0  0  0  0  0  3  0  0  0  0  0  0
  186.7790  176.7410  147.0260 C   0  0  0  0  0  2  0  0  0  0  0  0
  186.5500  178.6650  144.5270 O   0  0  0  0  0  1  0  0  0  0  0  0
  190.5660  174.9290  145.5290 O   0  0  0  0  0  0  0  0  0  0  0  0
  189.2780  177.1370  146.2250 C   0  0  1  0  0  0  0  0  0  0  0  0
  192.9320  176.4140  142.9930 C   0  0  0  0  0  2  0  0  0  0  0  0
  190.4300  176.2520  142.6220 C   0  0  2  0  0  3  0  0  0  0  0  0
  188.1910  175.2200  141.2070 C   0  0  0  0  0  3  0  0  0  0  0  0
  189.6480  173.5320  140.3930 O   0  0  0  0  0  0  0  0  0  0  0  0
  187.4290  177.6050  144.7540 C   0  0  2  0  0  0  0  0  0  0  0  0
  191.6150  175.3720  144.7060 C   0  0  0  0  0  0  0  0  0  0  0  0
  1 22  1  6  0  0  0
  1 27  1  0  0  0  0
  2 17  1  6  0  0  0
  2 14  1  0  0  0  0
  3 24  1  0  0  0  0
  3 10  1  0  0  0  0
  4 21  1  0  0  0  0
  4 18  1  1  0  0  0
  5 16  2  0  0  0  0
  7 13  2  0  0  0  0
  8 21  1  0  0  0  0
 12  4  1  0  0  0  0
 12 18  1  1  0  0  0
 13  9  2  0  0  0  0
 14 26  1  0  0  0  0
 14  8  1  1  0  0  0
 15  5  2  0  0  0  0
 16  6  1  0  0  0  0
 20  7  1  0  0  0  0
 21  7  1  0  0  0  0
 21 11  1  1  0  0  0
 22 16  1  0  0  0  0
 23 10  1  1  0  0  0
 23  2  1  0  0  0  0
 23  1  1  0  0  0  0
 24 17  2  0  0  0  0
 25  3  2  0  0  0  0
 26 19  1  6  0  0  0
 26 12  1  0  0  0  0
 26  4  1  0  0  0  0
 27  6  2  0  0  0  0
 27 20  1  0  0  0  0
M  END
>  <MODEL>
3

>  <REMARK>
 VINA RESULT:      -7.7      2.619      6.018
  Name = 
  0 active torsions:
  status: ('A' for Active; 'I' for Inactive)
                            x       y       z     vdW  Elec       q    Type
                         _______ _______ _______ _____ _____    ______ ____

>  <TORSDO>
F 0

$$$$
=
 OpenBabel11062422093D

 27 32  0  0  1  0  0  0  0  0999 V2000
  191.6800  174.1840  144.1060 C   0  0  1  0  0  3  0  0  0  0  0  0
  190.7240  175.8410  145.8140 C   0  0  1  0  0  3  0  0  0  0  0  0
  193.3470  176.4100  146.6490 C   0  0  0  0  0  0  0  0  0  0  0  0
  187.5880  176.4000  144.5670 C   0  0  1  0  0  0  0  0  0  0  0  0
  194.3210  173.1160  141.9060 C   0  0  0  0  0  0  0  0  0  0  0  0
  192.6600  174.8200  142.0830 N   0  0  0  0  0  0  0  0  0  0  0  0
  189.6230  176.5810  142.8870 C   0  0  0  0  0  0  0  0  0  0  0  0
  189.1610  174.7030  144.3810 O   0  0  0  0  0  0  0  0  0  0  0  0
  188.8410  178.6660  141.6490 O   0  0  0  0  0  0  0  0  0  0  0  0
  193.1190  175.5210  145.5880 O   0  0  0  0  0  0  0  0  0  0  0  0
  187.7370  175.0040  142.5260 C   0  0  0  0  0  1  0  0  0  0  0  0
  188.2370  177.6280  145.2220 C   0  0  1  0  0  3  0  0  0  0  0  0
  189.2200  177.6550  142.2540 C   0  0  0  0  0  0  0  0  0  0  0  0
  189.3170  175.2340  145.6840 C   0  0  2  0  0  3  0  0  0  0  0  0
  195.2930  172.6250  141.3170 O   0  0  0  0  0  0  0  0  0  0  0  0
  193.2960  173.6360  142.5210 C   0  0  0  0  0  0  0  0  0  0  0  0
  190.9800  176.4810  147.1560 C   0  0  0  0  0  3  0  0  0  0  0  0
  187.0750  177.7910  144.2610 C   0  0  0  0  0  2  0  0  0  0  0  0
  187.2640  176.0410  146.8880 O   0  0  0  0  0  1  0  0  0  0  0  0
  191.0040  176.3130  142.7610 O   0  0  0  0  0  0  0  0  0  0  0  0
  188.5650  175.6980  143.5940 C   0  0  1  0  0  0  0  0  0  0  0  0
  192.7900  173.1670  143.8320 C   0  0  0  0  0  2  0  0  0  0  0  0
  191.8570  174.8550  145.4760 C   0  0  2  0  0  3  0  0  0  0  0  0
  192.2250  176.7910  147.5250 C   0  0  0  0  0  3  0  0  0  0  0  0
  194.4950  176.8930  146.8410 O   0  0  0  0  0  0  0  0  0  0  0  0
  188.2290  176.2780  145.9080 C   0  0  2  0  0  0  0  0  0  0  0  0
  191.7490  175.1350  142.9400 C   0  0  0  0  0  0  0  0  0  0  0  0
  1 22  1  6  0  0  0
  1 23  1  0  0  0  0
  2 17  1  1  0  0  0
  3 25  2  0  0  0  0
  3 24  1  0  0  0  0
  4 18  1  6  0  0  0
  4 12  1  0  0  0  0
  4 26  1  0  0  0  0
  5 16  2  0  0  0  0
  6 16  1  0  0  0  0
  6 27  2  0  0  0  0
  7 21  1  0  0  0  0
  9 13  2  0  0  0  0
 10  3  1  0  0  0  0
 12 18  1  1  0  0  0
 12 26  1  0  0  0  0
 13  7  2  0  0  0  0
 14  8  1  6  0  0  0
 14  2  1  0  0  0  0
 14 26  1  0  0  0  0
 15  5  2  0  0  0  0
 16 22  1  0  0  0  0
 17 24  2  0  0  0  0
 20  7  1  0  0  0  0
 20 27  1  0  0  0  0
 21 11  1  6  0  0  0
 21  8  1  0  0  0  0
 21  4  1  0  0  0  0
 23 10  1  6  0  0  0
 23  2  1  0  0  0  0
 26 19  1  1  0  0  0
 27  1  1  0  0  0  0
M  END
>  <MODEL>
4

>  <REMARK>
 VINA RESULT:      -7.3      2.526      6.065
  Name = 
  0 active torsions:
  status: ('A' for Active; 'I' for Inactive)
                            x       y       z     vdW  Elec       q    Type
                         _______ _______ _______ _____ _____    ______ ____

>  <TORSDO>
F 0

$$$$
=
 OpenBabel11062422093D

 27 32  0  0  1  0  0  0  0  0999 V2000
  190.0090  177.1310  143.0800 C   0  0  1  0  0  3  0  0  0  0  0  0
  191.1960  176.3700  145.2230 C   0  0  1  0  0  3  0  0  0  0  0  0
  188.7060  176.3450  146.5290 C   0  0  0  0  0  0  0  0  0  0  0  0
  194.1610  175.1820  143.9970 C   0  0  1  0  0  0  0  0  0  0  0  0
  187.0980  177.2160  140.9640 C   0  0  0  0  0  0  0  0  0  0  0  0
  188.7940  175.7010  141.6890 N   0  0  0  0  0  0  0  0  0  0  0  0
  191.9350  174.3560  142.8300 C   0  0  0  0  0  0  0  0  0  0  0  0
  192.5500  176.6820  143.2580 O   0  0  0  0  0  0  0  0  0  0  0  0
  192.5880  171.9080  142.5730 O   0  0  0  0  0  0  0  0  0  0  0  0
  188.7870  176.6560  145.1630 O   0  0  0  0  0  0  0  0  0  0  0  0
  193.7370  175.5260  141.5800 C   0  0  0  0  0  1  0  0  0  0  0  0
  193.6170  174.4030  145.2040 C   0  0  1  0  0  3  0  0  0  0  0  0
  192.2710  173.0980  142.7020 C   0  0  0  0  0  0  0  0  0  0  0  0
  192.5660  176.7960  144.6700 C   0  0  2  0  0  3  0  0  0  0  0  0
  186.0530  177.4330  140.3380 O   0  0  0  0  0  0  0  0  0  0  0  0
  188.2000  176.9820  141.6210 C   0  0  0  0  0  0  0  0  0  0  0  0
  191.1190  176.4070  146.7290 C   0  0  0  0  0  3  0  0  0  0  0  0
  194.6520  173.7800  144.2880 C   0  0  0  0  0  2  0  0  0  0  0  0
  194.7660  176.5240  145.8550 O   0  0  0  0  0  1  0  0  0  0  0  0
  190.5450  174.5990  142.7610 O   0  0  0  0  0  0  0  0  0  0  0  0
  193.0590  175.4170  142.9360 C   0  0  1  0  0  0  0  0  0  0  0  0
  188.8580  177.9640  142.5130 C   0  0  0  0  0  2  0  0  0  0  0  0
  190.0140  177.1490  144.6160 C   0  0  2  0  0  3  0  0  0  0  0  0
  189.9340  176.3470  147.3420 C   0  0  0  0  0  3  0  0  0  0  0  0
  187.5990  176.0470  147.0500 O   0  0  0  0  0  0  0  0  0  0  0  0
  193.6900  175.9160  145.2060 C   0  0  2  0  0  0  0  0  0  0  0  0
  189.8100  175.7630  142.4810 C   0  0  0  0  0  0  0  0  0  0  0  0
  1 22  1  1  0  0  0
  1 23  1  0  0  0  0
  2 17  1  1  0  0  0
  3 25  2  0  0  0  0
  3 24  1  0  0  0  0
  4 18  1  6  0  0  0
  4 12  1  0  0  0  0
  4 26  1  0  0  0  0
  5 16  2  0  0  0  0
  6 27  2  0  0  0  0
  7 21  1  0  0  0  0
  9 13  2  0  0  0  0
 10  3  1  0  0  0  0
 12 18  1  1  0  0  0
 12 26  1  0  0  0  0
 13  7  2  0  0  0  0
 14  8  1  6  0  0  0
 14 26  1  0  0  0  0
 14  2  1  0  0  0  0
 15  5  2  0  0  0  0
 16  6  1  0  0  0  0
 16 22  1  0  0  0  0
 17 24  2  0  0  0  0
 20  7  1  0  0  0  0
 21 11  1  6  0  0  0
 21  8  1  0  0  0  0
 21  4  1  0  0  0  0
 23 10  1  1  0  0  0
 23  2  1  0  0  0  0
 26 19  1  1  0  0  0
 27 20  1  0  0  0  0
 27  1  1  0  0  0  0
M  END
>  <MODEL>
5

>  <REMARK>
 VINA RESULT:      -7.3      2.135      2.851
  Name = 
  0 active torsions:
  status: ('A' for Active; 'I' for Inactive)
                            x       y       z     vdW  Elec       q    Type
                         _______ _______ _______ _____ _____    ______ ____

>  <TORSDO>
F 0

$$$$
=
 OpenBabel11062422093D

 27 32  0  0  1  0  0  0  0  0999 V2000
  189.2340  176.7870  142.6950 C   0  0  1  0  0  3  0  0  0  0  0  0
  190.2330  175.6790  144.7810 C   0  0  1  0  0  3  0  0  0  0  0  0
  187.9080  176.3770  146.1990 C   0  0  0  0  0  0  0  0  0  0  0  0
  192.6520  173.6790  143.4210 C   0  0  1  0  0  0  0  0  0  0  0  0
  186.3920  177.7640  140.7140 C   0  0  0  0  0  0  0  0  0  0  0  0
  187.5890  175.8030  141.3600 N   0  0  0  0  0  0  0  0  0  0  0  0
  190.2330  173.5690  142.3560 C   0  0  0  0  0  0  0  0  0  0  0  0
  191.5320  175.6000  142.7570 O   0  0  0  0  0  0  0  0  0  0  0  0
  190.1150  171.0410  142.0700 O   0  0  0  0  0  0  0  0  0  0  0  0
  188.0180  176.6690  144.8310 O   0  0  0  0  0  0  0  0  0  0  0  0
  192.2450  174.1660  141.0260 C   0  0  0  0  0  1  0  0  0  0  0  0
  191.9540  173.0810  144.6510 C   0  0  1  0  0  3  0  0  0  0  0  0
  190.1730  172.2690  142.2130 C   0  0  0  0  0  0  0  0  0  0  0  0
  191.6420  175.6840  144.1660 C   0  0  2  0  0  3  0  0  0  0  0  0
  185.4320  178.2910  140.1360 O   0  0  0  0  0  0  0  0  0  0  0  0
  187.4010  177.2040  141.3200 C   0  0  0  0  0  0  0  0  0  0  0  0
  190.2360  175.7160  146.2890 C   0  0  0  0  0  3  0  0  0  0  0  0
  192.7160  172.1900  143.6890 C   0  0  0  0  0  2  0  0  0  0  0  0
  193.7110  174.7550  145.2490 O   0  0  0  0  0  1  0  0  0  0  0  0
  188.9770  174.2150  142.3520 O   0  0  0  0  0  0  0  0  0  0  0  0
  191.6260  174.2450  142.4110 C   0  0  1  0  0  0  0  0  0  0  0  0
  188.3600  177.9330  142.1820 C   0  0  0  0  0  2  0  0  0  0  0  0
  189.3110  176.7820  144.2290 C   0  0  2  0  0  3  0  0  0  0  0  0
  189.1150  176.0030  146.9560 C   0  0  0  0  0  3  0  0  0  0  0  0
  186.7860  176.4160  146.7710 O   0  0  0  0  0  0  0  0  0  0  0  0
  192.4750  174.5030  144.6510 C   0  0  2  0  0  0  0  0  0  0  0  0
  188.6110  175.5490  142.1050 C   0  0  0  0  0  0  0  0  0  0  0  0
  1 22  1  1  0  0  0
  1 23  1  0  0  0  0
  2 17  1  1  0  0  0
  3 25  2  0  0  0  0
  3 24  1  0  0  0  0
  4 18  1  6  0  0  0
  4 12  1  0  0  0  0
  4 26  1  0  0  0  0
  5 16  2  0  0  0  0
  6 27  2  0  0  0  0
  7 21  1  0  0  0  0
  9 13  2  0  0  0  0
 10  3  1  0  0  0  0
 12 18  1  1  0  0  0
 12 26  1  0  0  0  0
 13  7  2  0  0  0  0
 14  8  1  6  0  0  0
 14 26  1  0  0  0  0
 14  2  1  0  0  0  0
 15  5  2  0  0  0  0
 16  6  1  0  0  0  0
 16 22  1  0  0  0  0
 17 24  2  0  0  0  0
 20  7  1  0  0  0  0
 21 11  1  6  0  0  0
 21  8  1  0  0  0  0
 21  4  1  0  0  0  0
 23  2  1  0  0  0  0
 23 10  1  1  0  0  0
 26 19  1  1  0  0  0
 27 20  1  0  0  0  0
 27  1  1  0  0  0  0
M  END
>  <MODEL>
6

>  <REMARK>
 VINA RESULT:      -7.2      1.726      2.264
  Name = 
  0 active torsions:
  status: ('A' for Active; 'I' for Inactive)
                            x       y       z     vdW  Elec       q    Type
                         _______ _______ _______ _____ _____    ______ ____

>  <TORSDO>
F 0

$$$$
=
 OpenBabel11062422093D

 27 32  0  0  1  0  0  0  0  0999 V2000
  190.7190  175.1450  143.4660 C   0  0  1  0  0  3  0  0  0  0  0  0
  191.9840  175.7590  145.6110 C   0  0  1  0  0  3  0  0  0  0  0  0
  189.7310  174.9750  147.1000 C   0  0  0  0  0  0  0  0  0  0  0  0
  195.2280  175.7940  144.5240 C   0  0  1  0  0  0  0  0  0  0  0  0
  188.2650  173.1700  141.7240 C   0  0  0  0  0  0  0  0  0  0  0  0
  190.4280  172.9540  142.7090 N   0  0  0  0  0  0  0  0  0  0  0  0
  193.7480  173.6930  143.8930 C   0  0  0  0  0  0  0  0  0  0  0  0
  193.1470  176.0330  143.5220 O   0  0  0  0  0  0  0  0  0  0  0  0
  195.5080  171.9070  144.3400 O   0  0  0  0  0  0  0  0  0  0  0  0
  189.7410  174.8370  145.7030 O   0  0  0  0  0  0  0  0  0  0  0  0
  194.8480  175.1110  142.1730 C   0  0  0  0  0  1  0  0  0  0  0  0
  195.0460  175.2790  145.9600 C   0  0  1  0  0  3  0  0  0  0  0  0
  194.6530  172.7770  144.1270 C   0  0  0  0  0  0  0  0  0  0  0  0
  193.0160  176.5810  144.8210 C   0  0  2  0  0  3  0  0  0  0  0  0
  187.2860  172.6560  141.1670 O   0  0  0  0  0  0  0  0  0  0  0  0
  189.2990  173.7060  142.3090 C   0  0  0  0  0  0  0  0  0  0  0  0
  191.8020  176.2300  147.0320 C   0  0  0  0  0  3  0  0  0  0  0  0
  196.3100  174.9660  145.1830 C   0  0  0  0  0  2  0  0  0  0  0  0
  194.9960  177.7730  145.8090 O   0  0  0  0  0  1  0  0  0  0  0  0
  192.4200  173.2150  143.8910 O   0  0  0  0  0  0  0  0  0  0  0  0
  194.2190  175.1300  143.5570 C   0  0  1  0  0  0  0  0  0  0  0  0
  189.3480  175.1070  142.7860 C   0  0  0  0  0  2  0  0  0  0  0  0
  190.6160  175.6490  144.9130 C   0  0  2  0  0  3  0  0  0  0  0  0
  190.7530  175.8150  147.7470 C   0  0  0  0  0  3  0  0  0  0  0  0
  188.8700  174.3730  147.7940 O   0  0  0  0  0  0  0  0  0  0  0  0
  194.3860  176.5590  145.4890 C   0  0  2  0  0  0  0  0  0  0  0  0
  191.2370  173.7360  143.3390 C   0  0  0  0  0  0  0  0  0  0  0  0
  1 22  1  1  0  0  0
  1 23  1  0  0  0  0
  2 17  1  1  0  0  0
  3 24  1  0  0  0  0
  3 25  2  0  0  0  0
  4 18  1  6  0  0  0
  4 26  1  0  0  0  0
  4 12  1  0  0  0  0
  5 16  2  0  0  0  0
  6 27  2  0  0  0  0
  7 13  2  0  0  0  0
  8 21  1  0  0  0  0
 10  3  1  0  0  0  0
 12 18  1  1  0  0  0
 13  9  2  0  0  0  0
 14  8  1  6  0  0  0
 14 26  1  0  0  0  0
 14  2  1  0  0  0  0
 15  5  2  0  0  0  0
 16  6  1  0  0  0  0
 16 22  1  0  0  0  0
 17 24  2  0  0  0  0
 20  7  1  0  0  0  0
 21 11  1  6  0  0  0
 21  7  1  0  0  0  0
 21  4  1  0  0  0  0
 23  2  1  0  0  0  0
 23 10  1  1  0  0  0
 26 19  1  1  0  0  0
 26 12  1  0  0  0  0
 27  1  1  0  0  0  0
 27 20  1  0  0  0  0
M  END
>  <MODEL>
7

>  <REMARK>
 VINA RESULT:      -7.2      3.498      4.657
  Name = 
  0 active torsions:
  status: ('A' for Active; 'I' for Inactive)
                            x       y       z     vdW  Elec       q    Type
                         _______ _______ _______ _____ _____    ______ ____

>  <TORSDO>
F 0

$$$$
=
 OpenBabel11062422093D

 27 32  0  0  1  0  0  0  0  0999 V2000
  187.8380  175.9830  144.2260 C   0  0  1  0  0  3  0  0  0  0  0  0
  189.3460  174.3110  142.9960 C   0  0  1  0  0  3  0  0  0  0  0  0
  188.1280  175.0740  140.5800 C   0  0  0  0  0  0  0  0  0  0  0  0
  191.8380  173.8020  145.2840 C   0  0  1  0  0  0  0  0  0  0  0  0
  185.9410  179.0410  144.2920 C   0  0  0  0  0  0  0  0  0  0  0  0
  188.2060  178.2900  144.2540 N   0  0  0  0  0  0  0  0  0  0  0  0
  191.1710  176.3030  144.7380 C   0  0  0  0  0  0  0  0  0  0  0  0
  189.6310  174.5160  145.3770 O   0  0  0  0  0  0  0  0  0  0  0  0
  193.5300  177.2560  144.6360 O   0  0  0  0  0  0  0  0  0  0  0  0
  187.7730  175.7050  141.7820 O   0  0  0  0  0  0  0  0  0  0  0  0
  191.0680  175.3710  147.0400 C   0  0  0  0  0  1  0  0  0  0  0  0
  192.3070  173.7860  143.8220 C   0  0  1  0  0  3  0  0  0  0  0  0
  192.3840  176.7900  144.6830 C   0  0  0  0  0  0  0  0  0  0  0  0
  189.6930  173.5890  144.3080 C   0  0  2  0  0  3  0  0  0  0  0  0
  185.1190  179.9660  144.2620 O   0  0  0  0  0  0  0  0  0  0  0  0
  186.8110  178.0700  144.3250 C   0  0  0  0  0  0  0  0  0  0  0  0
  189.4290  173.4220  141.7810 C   0  0  0  0  0  3  0  0  0  0  0  0
  193.2990  174.0070  144.9470 C   0  0  0  0  0  2  0  0  0  0  0  0
  191.2550  171.6320  144.5270 O   0  0  0  0  0  1  0  0  0  0  0  0
  190.1960  177.0890  144.0850 O   0  0  0  0  0  0  0  0  0  0  0  0
  190.9250  175.0180  145.5680 C   0  0  1  0  0  0  0  0  0  0  0  0
  186.4540  176.6350  144.2580 C   0  0  0  0  0  2  0  0  0  0  0  0
  187.9860  175.0340  143.0280 C   0  0  2  0  0  3  0  0  0  0  0  0
  188.8890  173.8130  140.6250 C   0  0  0  0  0  3  0  0  0  0  0  0
  187.8170  175.5900  139.4730 O   0  0  0  0  0  0  0  0  0  0  0  0
  191.0960  172.9950  144.2730 C   0  0  2  0  0  0  0  0  0  0  0  0
  188.7980  177.1450  144.2140 C   0  0  0  0  0  0  0  0  0  0  0  0
  1 22  1  6  0  0  0
  2 17  1  6  0  0  0
  2 23  1  0  0  0  0
  2 14  1  0  0  0  0
  3 24  1  0  0  0  0
  3 10  1  0  0  0  0
  4 18  1  1  0  0  0
  4 21  1  0  0  0  0
  5 16  2  0  0  0  0
  6 16  1  0  0  0  0
  7 21  1  0  0  0  0
  8 21  1  0  0  0  0
  9 13  2  0  0  0  0
 12 26  1  0  0  0  0
 12 18  1  1  0  0  0
 12  4  1  0  0  0  0
 13  7  2  0  0  0  0
 14  8  1  1  0  0  0
 15  5  2  0  0  0  0
 20 27  1  0  0  0  0
 20  7  1  0  0  0  0
 21 11  1  1  0  0  0
 22 16  1  0  0  0  0
 23 10  1  6  0  0  0
 23  1  1  0  0  0  0
 24 17  2  0  0  0  0
 25  3  2  0  0  0  0
 26 14  1  0  0  0  0
 26 19  1  1  0  0  0
 26  4  1  0  0  0  0
 27  1  1  0  0  0  0
 27  6  2  0  0  0  0
M  END
>  <MODEL>
8

>  <REMARK>
 VINA RESULT:      -6.8      2.311      4.374
  Name = 
  0 active torsions:
  status: ('A' for Active; 'I' for Inactive)
                            x       y       z     vdW  Elec       q    Type
                         _______ _______ _______ _____ _____    ______ ____

>  <TORSDO>
F 0

$$$$
=
 OpenBabel11062422093D

 27 32  0  0  1  0  0  0  0  0999 V2000
  187.3100  176.1180  144.7300 C   0  0  1  0  0  3  0  0  0  0  0  0
  188.3710  175.5820  142.4570 C   0  0  1  0  0  3  0  0  0  0  0  0
  186.6270  177.4390  141.2670 C   0  0  0  0  0  0  0  0  0  0  0  0
  191.3280  174.1350  143.3870 C   0  0  1  0  0  0  0  0  0  0  0  0
  185.6530  178.4050  146.9610 C   0  0  0  0  0  0  0  0  0  0  0  0
  187.7930  178.0370  145.9710 N   0  0  0  0  0  0  0  0  0  0  0  0
  190.6760  176.4310  144.5290 C   0  0  0  0  0  0  0  0  0  0  0  0
  189.2550  174.4470  144.3850 O   0  0  0  0  0  0  0  0  0  0  0  0
  192.9810  177.5100  144.4310 O   0  0  0  0  0  0  0  0  0  0  0  0
  186.6180  177.2490  142.6570 O   0  0  0  0  0  0  0  0  0  0  0  0
  191.1070  174.3660  145.8440 C   0  0  0  0  0  1  0  0  0  0  0  0
  191.4130  174.9870  142.1120 C   0  0  1  0  0  3  0  0  0  0  0  0
  191.8610  176.9850  144.4750 C   0  0  0  0  0  0  0  0  0  0  0  0
  188.9980  174.2890  143.0020 C   0  0  2  0  0  3  0  0  0  0  0  0
  184.9000  179.0990  147.6550 O   0  0  0  0  0  0  0  0  0  0  0  0
  186.4510  177.6750  146.2320 C   0  0  0  0  0  0  0  0  0  0  0  0
  188.1000  175.5390  140.9740 C   0  0  0  0  0  3  0  0  0  0  0  0
  192.6660  174.6400  142.8930 C   0  0  0  0  0  2  0  0  0  0  0  0
  190.4610  172.7140  141.6990 O   0  0  0  0  0  1  0  0  0  0  0  0
  189.6110  177.3440  144.6880 O   0  0  0  0  0  0  0  0  0  0  0  0
  190.5810  174.8840  144.5160 C   0  0  1  0  0  0  0  0  0  0  0  0
  186.0150  176.4960  145.4500 C   0  0  0  0  0  2  0  0  0  0  0  0
  187.1030  176.0220  143.2110 C   0  0  2  0  0  3  0  0  0  0  0  0
  187.3070  176.4530  140.4090 C   0  0  0  0  0  3  0  0  0  0  0  0
  186.0750  178.4510  140.7580 O   0  0  0  0  0  0  0  0  0  0  0  0
  190.3150  173.9620  142.3060 C   0  0  2  0  0  0  0  0  0  0  0  0
  188.2950  177.1770  145.1510 C   0  0  0  0  0  0  0  0  0  0  0  0
  1 27  1  0  0  0  0
  1 22  1  1  0  0  0
  2 17  1  6  0  0  0
  2 14  1  0  0  0  0
  2 23  1  0  0  0  0
  3 10  1  0  0  0  0
  4 18  1  1  0  0  0
  4 21  1  0  0  0  0
  5 15  2  0  0  0  0
  6 16  1  0  0  0  0
  7 20  1  0  0  0  0
  8 21  1  0  0  0  0
  9 13  2  0  0  0  0
 12 26  1  0  0  0  0
 12 18  1  6  0  0  0
 12  4  1  0  0  0  0
 13  7  2  0  0  0  0
 14  8  1  1  0  0  0
 16  5  2  0  0  0  0
 20 27  1  0  0  0  0
 21  7  1  0  0  0  0
 21 11  1  1  0  0  0
 22 16  1  0  0  0  0
 23 10  1  6  0  0  0
 23  1  1  0  0  0  0
 24 17  2  0  0  0  0
 24  3  1  0  0  0  0
 25  3  2  0  0  0  0
 26 19  1  6  0  0  0
 26 14  1  0  0  0  0
 26  4  1  0  0  0  0
 27  6  2  0  0  0  0
M  END
>  <MODEL>
9

>  <REMARK>
 VINA RESULT:      -6.8      1.820      4.527
  Name = 
  0 active torsions:
  status: ('A' for Active; 'I' for Inactive)
                            x       y       z     vdW  Elec       q    Type
                         _______ _______ _______ _____ _____    ______ ____

>  <TORSDO>
F 0

$$$$
