=
 OpenBabel11062422563D

 29 32  0  0  1  0  0  0  0  0999 V2000
  188.4410  173.3260  140.0720 N   0  0  0  0  0  2  0  0  0  0  0  0
  191.7120  172.9400  144.2120 C   0  0  0  0  0  2  0  0  0  0  0  0
  189.2880  174.8190  141.9220 C   0  0  2  0  0  3  0  0  0  0  0  0
  192.6040  173.2920  141.2840 O   0  0  0  0  0  0  0  0  0  0  0  0
  191.7670  174.0130  145.1940 N   0  0  0  0  0  2  0  0  0  0  0  0
  193.1420  175.0300  144.8780 S   0  0  0  0  0  0  0  0  0  0  0  0
  188.7150  175.6120  143.0170 N   0  0  0  0  0  0  0  0  0  0  0  0
  193.6240  174.8910  143.4610 O   0  0  0  0  0  0  0  0  0  0  0  0
  188.2660  173.8660  141.3760 C   0  0  0  0  0  0  0  0  0  0  0  0
  192.6720  176.6980  145.1690 C   0  0  0  0  0  3  0  0  0  0  0  0
  191.5480  177.1920  144.6590 C   0  0  0  0  0  3  0  0  0  0  0  0
  190.4340  173.0530  143.3890 C   0  0  0  0  0  2  0  0  0  0  0  0
  194.2520  174.6610  145.8200 O   0  0  0  0  0  0  0  0  0  0  0  0
  187.2880  173.4930  142.0780 O   0  0  0  0  0  0  0  0  0  0  0  0
  189.5750  173.7310  139.2600 C   0  0  0  0  0  2  0  0  0  0  0  0
  190.8160  173.2170  139.8260 N   0  0  0  0  0  2  0  0  0  0  0  0
  190.7660  176.4150  143.8040 O   0  0  0  0  0  0  0  0  0  0  0  0
  191.3850  173.5400  141.1070 C   0  0  0  0  0  0  0  0  0  0  0  0
  190.5970  174.0900  142.2810 C   0  0  1  0  0  3  0  0  0  0  0  0
  189.3660  176.3840  143.8340 C   0  0  0  0  0  0  0  0  0  0  0  0
  188.0260  176.2670  145.9370 C   0  0  0  0  0  3  0  0  0  0  0  0
  186.3490  178.0250  146.3960 C   0  0  1  0  0  3  0  0  0  0  0  0
  185.1960  178.9390  144.4500 C   0  0  0  0  0  2  0  0  0  0  0  0
  184.9240  178.0280  146.6960 N   0  0  0  0  0  2  0  0  0  0  0  0
  187.4630  177.9500  144.1860 C   0  0  0  0  0  3  0  0  0  0  0  0
  186.9680  176.6720  146.6650 C   0  0  0  0  0  3  0  0  0  0  0  0
  186.4520  178.3740  144.9560 C   0  0  0  0  0  0  0  0  0  0  0  0
  188.5730  177.1600  144.8430 C   0  0  2  0  0  3  0  0  0  0  0  0
  184.3000  178.8890  145.6830 C   0  0  0  0  0  2  0  0  0  0  0  0
  1  9  1  0  0  0  0
  2  5  1  0  0  0  0
  3  9  1  1  0  0  0
  3 19  1  0  0  0  0
  3  7  1  0  0  0  0
  6 10  1  0  0  0  0
  6  5  1  0  0  0  0
  6 13  2  0  0  0  0
  7 20  2  0  0  0  0
  8  6  2  0  0  0  0
  9 14  2  0  0  0  0
 11 10  2  0  0  0  0
 12  2  1  0  0  0  0
 15 16  1  0  0  0  0
 15  1  1  0  0  0  0
 16 18  1  0  0  0  0
 17 20  1  0  0  0  0
 17 11  1  0  0  0  0
 18  4  2  0  0  0  0
 18 19  1  0  0  0  0
 19 12  1  1  0  0  0
 21 26  2  0  0  0  0
 22 26  1  6  0  0  0
 22 24  1  0  0  0  0
 23 27  1  0  0  0  0
 23 29  1  0  0  0  0
 25 28  1  0  0  0  0
 25 27  2  0  0  0  0
 27 22  1  0  0  0  0
 28 20  1  6  0  0  0
 28 21  1  0  0  0  0
 29 24  1  0  0  0  0
M  END
>  <MODEL>
1

>  <REMARK>
 VINA RESULT:      -8.2      0.000      0.000
  Name = 
  1 active torsions:
  status: ('A' for Active; 'I' for Inactive)
    1  A    between atoms: C_21  and  C_29
                            x       y       z     vdW  Elec       q    Type
                         _______ _______ _______ _____ _____    ______ ____

>  <TORSDO>
F 1

$$$$
=
 OpenBabel11062422563D

 29 32  0  0  1  0  0  0  0  0999 V2000
  190.6230  173.0340  140.0150 N   0  0  0  0  0  2  0  0  0  0  0  0
  189.9900  173.3010  145.2600 C   0  0  0  0  0  2  0  0  0  0  0  0
  190.0390  174.7870  141.7330 C   0  0  2  0  0  3  0  0  0  0  0  0
  192.7080  173.2690  143.8100 O   0  0  0  0  0  0  0  0  0  0  0  0
  189.4240  174.4990  145.8620 N   0  0  0  0  0  2  0  0  0  0  0  0
  190.6980  175.4970  146.4980 S   0  0  0  0  0  0  0  0  0  0  0  0
  188.9270  175.7080  142.0020 N   0  0  0  0  0  0  0  0  0  0  0  0
  192.0240  175.1760  145.8660 O   0  0  0  0  0  0  0  0  0  0  0  0
  189.6250  173.7430  140.7380 C   0  0  0  0  0  0  0  0  0  0  0  0
  190.2950  177.1770  146.1780 C   0  0  0  0  0  3  0  0  0  0  0  0
  189.8990  177.5680  144.9700 C   0  0  0  0  0  3  0  0  0  0  0  0
  189.6750  173.2680  143.7690 C   0  0  0  0  0  2  0  0  0  0  0  0
  190.7900  175.2880  147.9820 O   0  0  0  0  0  0  0  0  0  0  0  0
  188.4110  173.4460  140.5790 O   0  0  0  0  0  0  0  0  0  0  0  0
  192.0270  173.3510  140.2050 C   0  0  0  0  0  2  0  0  0  0  0  0
  192.4650  172.9510  141.5360 N   0  0  0  0  0  2  0  0  0  0  0  0
  189.8860  176.6620  143.9100 O   0  0  0  0  0  0  0  0  0  0  0  0
  191.9910  173.4600  142.7950 C   0  0  0  0  0  0  0  0  0  0  0  0
  190.6530  174.1470  142.9930 C   0  0  1  0  0  3  0  0  0  0  0  0
  188.8740  176.6020  142.9440 C   0  0  0  0  0  0  0  0  0  0  0  0
  186.6120  176.9490  143.9420 C   0  0  0  0  0  3  0  0  0  0  0  0
  184.9610  178.3310  142.7280 C   0  0  1  0  0  3  0  0  0  0  0  0
  185.0400  178.2040  140.2940 C   0  0  0  0  0  2  0  0  0  0  0  0
  183.5980  178.1230  142.2580 N   0  0  0  0  0  2  0  0  0  0  0  0
  187.0880  177.7200  141.6190 C   0  0  0  0  0  3  0  0  0  0  0  0
  185.3310  177.3410  143.8080 C   0  0  0  0  0  3  0  0  0  0  0  0
  185.8240  178.1540  141.5330 C   0  0  0  0  0  0  0  0  0  0  0  0
  187.6660  177.4890  142.9970 C   0  0  2  0  0  3  0  0  0  0  0  0
  183.6210  178.4010  140.8160 C   0  0  0  0  0  2  0  0  0  0  0  0
  1 15  1  0  0  0  0
  1  9  1  0  0  0  0
  2  5  1  0  0  0  0
  3  9  1  6  0  0  0
  3  7  1  0  0  0  0
  3 19  1  0  0  0  0
  5  6  1  0  0  0  0
  6 13  2  0  0  0  0
  7 20  2  0  0  0  0
  8  6  2  0  0  0  0
 10  6  1  0  0  0  0
 11 10  2  0  0  0  0
 12  2  1  0  0  0  0
 14  9  2  0  0  0  0
 15 16  1  0  0  0  0
 16 18  1  0  0  0  0
 17 11  1  0  0  0  0
 18 19  1  0  0  0  0
 18  4  2  0  0  0  0
 19 12  1  6  0  0  0
 20 17  1  0  0  0  0
 22 26  1  1  0  0  0
 23 29  1  0  0  0  0
 23 27  1  0  0  0  0
 24 22  1  0  0  0  0
 25 28  1  0  0  0  0
 26 21  2  0  0  0  0
 27 25  2  0  0  0  0
 27 22  1  0  0  0  0
 28 20  1  6  0  0  0
 28 21  1  0  0  0  0
 29 24  1  0  0  0  0
M  END
>  <MODEL>
2

>  <REMARK>
 VINA RESULT:      -7.8      2.288      2.708
  Name = 
  1 active torsions:
  status: ('A' for Active; 'I' for Inactive)
    1  A    between atoms: C_21  and  C_29
                            x       y       z     vdW  Elec       q    Type
                         _______ _______ _______ _____ _____    ______ ____

>  <TORSDO>
F 1

$$$$
=
 OpenBabel11062422563D

 29 32  0  0  1  0  0  0  0  0999 V2000
  190.0430  172.7180  139.7000 N   0  0  0  0  0  2  0  0  0  0  0  0
  190.4460  173.5430  144.9100 C   0  0  0  0  0  2  0  0  0  0  0  0
  189.4230  174.5210  141.3530 C   0  0  2  0  0  3  0  0  0  0  0  0
  192.7410  173.8940  142.8850 O   0  0  0  0  0  0  0  0  0  0  0  0
  189.7470  174.6640  145.5220 N   0  0  0  0  0  2  0  0  0  0  0  0
  190.8520  175.9840  145.7640 S   0  0  0  0  0  0  0  0  0  0  0  0
  188.2040  175.2130  141.7900 N   0  0  0  0  0  0  0  0  0  0  0  0
  192.0590  175.8710  144.8760 O   0  0  0  0  0  0  0  0  0  0  0  0
  189.0740  173.2890  140.5700 C   0  0  0  0  0  0  0  0  0  0  0  0
  190.0070  177.4830  145.4050 C   0  0  0  0  0  3  0  0  0  0  0  0
  189.2930  177.6160  144.2910 C   0  0  0  0  0  3  0  0  0  0  0  0
  189.8510  173.2450  143.5390 C   0  0  0  0  0  2  0  0  0  0  0  0
  191.2900  176.0000  147.2010 O   0  0  0  0  0  0  0  0  0  0  0  0
  187.9580  172.7230  140.7180 O   0  0  0  0  0  0  0  0  0  0  0  0
  191.3410  173.3480  139.5360 C   0  0  0  0  0  2  0  0  0  0  0  0
  192.1220  173.2310  140.7620 N   0  0  0  0  0  2  0  0  0  0  0  0
  189.2780  176.5950  143.3410 O   0  0  0  0  0  0  0  0  0  0  0  0
  191.8080  173.7920  142.0480 C   0  0  0  0  0  0  0  0  0  0  0  0
  190.4140  174.2000  142.4880 C   0  0  1  0  0  3  0  0  0  0  0  0
  188.1350  176.1920  142.6410 C   0  0  0  0  0  0  0  0  0  0  0  0
  186.7800  178.2890  142.6050 C   0  0  0  0  0  3  0  0  0  0  0  0
  184.7840  178.4580  144.0540 C   0  0  1  0  0  3  0  0  0  0  0  0
  184.9250  177.3210  146.2070 C   0  0  0  0  0  2  0  0  0  0  0  0
  184.3340  179.3970  145.0720 N   0  0  0  0  0  2  0  0  0  0  0  0
  186.3090  176.5230  144.3010 C   0  0  0  0  0  3  0  0  0  0  0  0
  185.8370  179.0730  143.1610 C   0  0  0  0  0  3  0  0  0  0  0  0
  185.3370  177.2990  144.7990 C   0  0  0  0  0  0  0  0  0  0  0  0
  186.7880  176.8020  142.8940 C   0  0  2  0  0  3  0  0  0  0  0  0
  184.0930  178.5970  146.2810 C   0  0  0  0  0  2  0  0  0  0  0  0
  1  9  1  0  0  0  0
  2  5  1  0  0  0  0
  3  9  1  1  0  0  0
  3  7  1  0  0  0  0
  3 19  1  0  0  0  0
  5  6  1  0  0  0  0
  6 13  2  0  0  0  0
  7 20  2  0  0  0  0
  8  6  2  0  0  0  0
  9 14  2  0  0  0  0
 10  6  1  0  0  0  0
 11 10  2  0  0  0  0
 12  2  1  0  0  0  0
 15  1  1  0  0  0  0
 15 16  1  0  0  0  0
 16 18  1  0  0  0  0
 17 11  1  0  0  0  0
 18 19  1  0  0  0  0
 18  4  2  0  0  0  0
 19 12  1  6  0  0  0
 20 17  1  0  0  0  0
 21 28  1  0  0  0  0
 21 26  2  0  0  0  0
 22 26  1  1  0  0  0
 22 27  1  0  0  0  0
 22 24  1  0  0  0  0
 23 29  1  0  0  0  0
 24 29  1  0  0  0  0
 25 27  2  0  0  0  0
 27 23  1  0  0  0  0
 28 20  1  1  0  0  0
 28 25  1  0  0  0  0
M  END
>  <MODEL>
3

>  <REMARK>
 VINA RESULT:      -7.6      1.674      2.191
  Name = 
  1 active torsions:
  status: ('A' for Active; 'I' for Inactive)
    1  A    between atoms: C_21  and  C_29
                            x       y       z     vdW  Elec       q    Type
                         _______ _______ _______ _____ _____    ______ ____

>  <TORSDO>
F 1

$$$$
=
 OpenBabel11062422563D

 29 32  0  0  1  0  0  0  0  0999 V2000
  186.2210  177.7090  148.2390 N   0  0  0  0  0  2  0  0  0  0  0  0
  185.5580  176.5580  143.1190 C   0  0  0  0  0  2  0  0  0  0  0  0
  187.6420  177.5980  146.1570 C   0  0  2  0  0  3  0  0  0  0  0  0
  184.7920  179.2340  144.4400 O   0  0  0  0  0  0  0  0  0  0  0  0
  186.7190  176.4010  142.2550 N   0  0  0  0  0  2  0  0  0  0  0  0
  186.9790  177.8610  141.3470 S   0  0  0  0  0  0  0  0  0  0  0  0
  188.8390  176.8790  145.7030 N   0  0  0  0  0  0  0  0  0  0  0  0
  186.3150  179.0450  141.9940 O   0  0  0  0  0  0  0  0  0  0  0  0
  187.0850  176.9590  147.3950 C   0  0  0  0  0  0  0  0  0  0  0  0
  188.7090  178.1490  141.2490 C   0  0  0  0  0  3  0  0  0  0  0  0
  189.4770  178.0820  142.3320 C   0  0  0  0  0  3  0  0  0  0  0  0
  185.9770  176.4450  144.5800 C   0  0  0  0  0  2  0  0  0  0  0  0
  186.4310  177.6800  139.9600 O   0  0  0  0  0  0  0  0  0  0  0  0
  187.3250  175.7520  147.6640 O   0  0  0  0  0  0  0  0  0  0  0  0
  185.9190  179.0950  147.9300 C   0  0  0  0  0  2  0  0  0  0  0  0
  185.1000  179.1820  146.7270 N   0  0  0  0  0  2  0  0  0  0  0  0
  188.9040  177.8710  143.5860 O   0  0  0  0  0  0  0  0  0  0  0  0
  185.4640  178.7730  145.3980 C   0  0  0  0  0  0  0  0  0  0  0  0
  186.5550  177.7680  145.0780 C   0  0  1  0  0  3  0  0  0  0  0  0
  189.4530  177.0400  144.5690 C   0  0  0  0  0  0  0  0  0  0  0  0
  190.5970  174.8460  144.9010 C   0  0  0  0  0  3  0  0  0  0  0  0
  193.0680  174.7640  144.8980 C   0  0  1  0  0  3  0  0  0  0  0  0
  194.2050  176.7080  145.8360 C   0  0  0  0  0  2  0  0  0  0  0  0
  194.0780  174.2730  145.8260 N   0  0  0  0  0  2  0  0  0  0  0  0
  191.9210  176.9580  144.8820 C   0  0  0  0  0  3  0  0  0  0  0  0
  191.7160  174.1490  145.1760 C   0  0  0  0  0  3  0  0  0  0  0  0
  193.0280  176.2350  145.0980 C   0  0  0  0  0  0  0  0  0  0  0  0
  190.7040  176.2470  144.3350 C   0  0  2  0  0  3  0  0  0  0  0  0
  194.9640  175.4120  146.0990 C   0  0  0  0  0  2  0  0  0  0  0  0
  2 12  1  0  0  0  0
  3  7  1  6  0  0  0
  3  9  1  0  0  0  0
  4 18  2  0  0  0  0
  5  2  1  0  0  0  0
  6  8  2  0  0  0  0
  6  5  1  0  0  0  0
  9 14  2  0  0  0  0
  9  1  1  0  0  0  0
 10  6  1  0  0  0  0
 10 11  2  0  0  0  0
 11 17  1  0  0  0  0
 13  6  2  0  0  0  0
 15  1  1  0  0  0  0
 16 15  1  0  0  0  0
 17 20  1  0  0  0  0
 18 16  1  0  0  0  0
 19 12  1  1  0  0  0
 19 18  1  0  0  0  0
 19  3  1  0  0  0  0
 20  7  2  0  0  0  0
 21 26  2  0  0  0  0
 22 27  1  0  0  0  0
 22 26  1  1  0  0  0
 22 24  1  0  0  0  0
 23 29  1  0  0  0  0
 24 29  1  0  0  0  0
 25 27  2  0  0  0  0
 27 23  1  0  0  0  0
 28 20  1  1  0  0  0
 28 25  1  0  0  0  0
 28 21  1  0  0  0  0
M  END
>  <MODEL>
4

>  <REMARK>
 VINA RESULT:      -7.6      3.521      7.351
  Name = 
  1 active torsions:
  status: ('A' for Active; 'I' for Inactive)
    1  A    between atoms: C_21  and  C_29
                            x       y       z     vdW  Elec       q    Type
                         _______ _______ _______ _____ _____    ______ ____

>  <TORSDO>
F 1

$$$$
=
 OpenBabel11062422563D

 29 32  0  0  1  0  0  0  0  0999 V2000
  190.0030  171.6150  141.1170 N   0  0  0  0  0  2  0  0  0  0  0  0
  193.4020  172.6040  145.0480 C   0  0  0  0  0  2  0  0  0  0  0  0
  190.6120  173.5590  142.6070 C   0  0  2  0  0  3  0  0  0  0  0  0
  194.1340  172.5390  142.0570 O   0  0  0  0  0  0  0  0  0  0  0  0
  193.2870  173.8380  145.8130 N   0  0  0  0  0  2  0  0  0  0  0  0
  194.4430  175.0000  145.2310 S   0  0  0  0  0  0  0  0  0  0  0  0
  189.9350  174.4340  143.5720 N   0  0  0  0  0  0  0  0  0  0  0  0
  194.9030  174.6780  143.8370 O   0  0  0  0  0  0  0  0  0  0  0  0
  189.7670  172.3550  142.3090 C   0  0  0  0  0  0  0  0  0  0  0  0
  193.6840  176.5850  145.2400 C   0  0  0  0  0  3  0  0  0  0  0  0
  192.4750  176.7680  144.7180 C   0  0  0  0  0  3  0  0  0  0  0  0
  192.1020  172.3330  144.3000 C   0  0  0  0  0  2  0  0  0  0  0  0
  195.6280  175.0170  146.1550 O   0  0  0  0  0  0  0  0  0  0  0  0
  188.8940  171.9590  143.1260 O   0  0  0  0  0  0  0  0  0  0  0  0
  191.0200  172.0480  140.1770 C   0  0  0  0  0  2  0  0  0  0  0  0
  192.3500  171.8770  140.7500 N   0  0  0  0  0  2  0  0  0  0  0  0
  191.8250  175.7180  144.0700 O   0  0  0  0  0  0  0  0  0  0  0  0
  192.8850  172.5320  141.9120 C   0  0  0  0  0  0  0  0  0  0  0  0
  192.0420  173.1520  143.0120 C   0  0  1  0  0  3  0  0  0  0  0  0
  190.4560  175.4500  144.1920 C   0  0  0  0  0  0  0  0  0  0  0  0
  189.1990  175.4960  146.3480 C   0  0  0  0  0  3  0  0  0  0  0  0
  187.2560  177.0060  146.5770 C   0  0  1  0  0  3  0  0  0  0  0  0
  185.9230  177.3500  144.5630 C   0  0  0  0  0  2  0  0  0  0  0  0
  185.8580  176.8290  146.9440 N   0  0  0  0  0  2  0  0  0  0  0  0
  188.3200  176.7180  144.3600 C   0  0  0  0  0  3  0  0  0  0  0  0
  188.1020  175.8460  147.0460 C   0  0  0  0  0  3  0  0  0  0  0  0
  187.2670  177.1010  145.0950 C   0  0  0  0  0  0  0  0  0  0  0  0
  189.5620  176.2540  145.0880 C   0  0  2  0  0  3  0  0  0  0  0  0
  185.0740  177.3770  145.8290 C   0  0  0  0  0  2  0  0  0  0  0  0
  1  9  1  0  0  0  0
  2  5  1  0  0  0  0
  3  9  1  1  0  0  0
  3 19  1  0  0  0  0
  3  7  1  0  0  0  0
  6 10  1  0  0  0  0
  6  5  1  0  0  0  0
  6 13  2  0  0  0  0
  7 20  2  0  0  0  0
  8  6  2  0  0  0  0
  9 14  2  0  0  0  0
 11 10  2  0  0  0  0
 12  2  1  0  0  0  0
 15 16  1  0  0  0  0
 15  1  1  0  0  0  0
 16 18  1  0  0  0  0
 17 20  1  0  0  0  0
 17 11  1  0  0  0  0
 18  4  2  0  0  0  0
 18 19  1  0  0  0  0
 19 12  1  1  0  0  0
 21 26  2  0  0  0  0
 22 24  1  0  0  0  0
 22 26  1  6  0  0  0
 23 27  1  0  0  0  0
 23 29  1  0  0  0  0
 25 28  1  0  0  0  0
 25 27  2  0  0  0  0
 27 22  1  0  0  0  0
 28 20  1  6  0  0  0
 28 21  1  0  0  0  0
 29 24  1  0  0  0  0
M  END
>  <MODEL>
5

>  <REMARK>
 VINA RESULT:      -7.6      1.577      1.759
  Name = 
  1 active torsions:
  status: ('A' for Active; 'I' for Inactive)
    1  A    between atoms: C_21  and  C_29
                            x       y       z     vdW  Elec       q    Type
                         _______ _______ _______ _____ _____    ______ ____

>  <TORSDO>
F 1

$$$$
=
 OpenBabel11062422563D

 29 32  0  0  1  0  0  0  0  0999 V2000
  188.1500  172.9530  139.5650 N   0  0  0  0  0  2  0  0  0  0  0  0
  192.5840  172.4420  142.4040 C   0  0  0  0  0  2  0  0  0  0  0  0
  189.4750  174.3300  141.2120 C   0  0  2  0  0  3  0  0  0  0  0  0
  192.4790  173.1300  139.4030 O   0  0  0  0  0  0  0  0  0  0  0  0
  192.9020  173.4210  143.4340 N   0  0  0  0  0  2  0  0  0  0  0  0
  194.0570  174.5660  142.8200 S   0  0  0  0  0  0  0  0  0  0  0  0
  189.2470  174.9720  142.5130 N   0  0  0  0  0  0  0  0  0  0  0  0
  194.0680  174.5960  141.3170 O   0  0  0  0  0  0  0  0  0  0  0  0
  188.3750  173.3550  140.9100 C   0  0  0  0  0  0  0  0  0  0  0  0
  193.6320  176.1590  143.4280 C   0  0  0  0  0  3  0  0  0  0  0  0
  192.3820  176.6090  143.3530 C   0  0  0  0  0  3  0  0  0  0  0  0
  191.1060  172.5300  142.0410 C   0  0  0  0  0  2  0  0  0  0  0  0
  195.4250  174.1990  143.3200 O   0  0  0  0  0  0  0  0  0  0  0  0
  187.6900  172.8450  141.8360 O   0  0  0  0  0  0  0  0  0  0  0  0
  188.9460  173.5170  138.4900 C   0  0  0  0  0  2  0  0  0  0  0  0
  190.3250  173.0520  138.5780 N   0  0  0  0  0  2  0  0  0  0  0  0
  191.4040  175.8560  142.7050 O   0  0  0  0  0  0  0  0  0  0  0  0
  191.2570  173.2980  139.6450 C   0  0  0  0  0  0  0  0  0  0  0  0
  190.8610  173.6750  141.0600 C   0  0  1  0  0  3  0  0  0  0  0  0
  190.0900  175.7140  143.1670 C   0  0  0  0  0  0  0  0  0  0  0  0
  189.3060  175.2800  145.4970 C   0  0  0  0  0  3  0  0  0  0  0  0
  187.9210  176.9800  146.6380 C   0  0  1  0  0  3  0  0  0  0  0  0
  186.3890  178.2410  145.2180 C   0  0  0  0  0  2  0  0  0  0  0  0
  186.6180  176.9720  147.2880 N   0  0  0  0  0  2  0  0  0  0  0  0
  188.4460  177.2490  144.2330 C   0  0  0  0  0  3  0  0  0  0  0  0
  188.4910  175.5860  146.5250 C   0  0  0  0  0  3  0  0  0  0  0  0
  187.6880  177.5650  145.2920 C   0  0  0  0  0  0  0  0  0  0  0  0
  189.6260  176.3300  144.4530 C   0  0  2  0  0  3  0  0  0  0  0  0
  185.8230  178.0090  146.6160 C   0  0  0  0  0  2  0  0  0  0  0  0
  1  9  1  0  0  0  0
  2  5  1  0  0  0  0
  3  9  1  1  0  0  0
  3  7  1  0  0  0  0
  4 18  2  0  0  0  0
  6 13  2  0  0  0  0
  6 10  1  0  0  0  0
  6  5  1  0  0  0  0
  7 20  2  0  0  0  0
  8  6  2  0  0  0  0
  9 14  2  0  0  0  0
 11 10  2  0  0  0  0
 12  2  1  0  0  0  0
 15 16  1  0  0  0  0
 15  1  1  0  0  0  0
 16 18  1  0  0  0  0
 17 20  1  0  0  0  0
 17 11  1  0  0  0  0
 18 19  1  0  0  0  0
 19  3  1  0  0  0  0
 19 12  1  1  0  0  0
 21 26  2  0  0  0  0
 22 26  1  6  0  0  0
 22 24  1  0  0  0  0
 23 27  1  0  0  0  0
 23 29  1  0  0  0  0
 25 28  1  0  0  0  0
 25 27  2  0  0  0  0
 27 22  1  0  0  0  0
 28 20  1  6  0  0  0
 28 21  1  0  0  0  0
 29 24  1  0  0  0  0
M  END
>  <MODEL>
6

>  <REMARK>
 VINA RESULT:      -7.4      1.483      1.662
  Name = 
  1 active torsions:
  status: ('A' for Active; 'I' for Inactive)
    1  A    between atoms: C_21  and  C_29
                            x       y       z     vdW  Elec       q    Type
                         _______ _______ _______ _____ _____    ______ ____

>  <TORSDO>
F 1

$$$$
=
 OpenBabel11062422563D

 29 32  0  0  1  0  0  0  0  0999 V2000
  185.6930  178.5350  143.0010 N   0  0  0  0  0  2  0  0  0  0  0  0
  190.4770  177.4500  144.9830 C   0  0  0  0  0  2  0  0  0  0  0  0
  187.2580  176.5590  143.1120 C   0  0  2  0  0  3  0  0  0  0  0  0
  187.8720  177.5730  146.6250 O   0  0  0  0  0  0  0  0  0  0  0  0
  191.1390  176.2020  144.6350 N   0  0  0  0  0  2  0  0  0  0  0  0
  190.9300  175.0470  145.9180 S   0  0  0  0  0  0  0  0  0  0  0  0
  187.9410  175.6670  142.1660 N   0  0  0  0  0  0  0  0  0  0  0  0
  189.7600  175.3950  146.7950 O   0  0  0  0  0  0  0  0  0  0  0  0
  186.7330  177.7720  142.4020 C   0  0  0  0  0  0  0  0  0  0  0  0
  190.6650  173.4660  145.1990 C   0  0  0  0  0  3  0  0  0  0  0  0
  189.7840  173.2990  144.2180 C   0  0  0  0  0  3  0  0  0  0  0  0
  189.3610  177.7430  143.9870 C   0  0  0  0  0  2  0  0  0  0  0  0
  192.1800  175.0060  146.7490 O   0  0  0  0  0  0  0  0  0  0  0  0
  187.2400  178.1550  141.3150 O   0  0  0  0  0  0  0  0  0  0  0  0
  185.1140  178.1160  144.2650 C   0  0  0  0  0  2  0  0  0  0  0  0
  186.0820  178.2700  145.3450 N   0  0  0  0  0  2  0  0  0  0  0  0
  188.9850  174.3640  143.8040 O   0  0  0  0  0  0  0  0  0  0  0  0
  187.3400  177.5890  145.4850 C   0  0  0  0  0  0  0  0  0  0  0  0
  188.1030  176.9510  144.3390 C   0  0  1  0  0  3  0  0  0  0  0  0
  188.6730  174.6360  142.4670 C   0  0  0  0  0  0  0  0  0  0  0  0
  190.7080  174.0470  141.1470 C   0  0  0  0  0  3  0  0  0  0  0  0
  190.4440  173.1940  138.8420 C   0  0  1  0  0  3  0  0  0  0  0  0
  188.5810  174.1170  137.5660 C   0  0  0  0  0  2  0  0  0  0  0  0
  190.9610  173.5870  137.5390 N   0  0  0  0  0  2  0  0  0  0  0  0
  188.4700  174.0730  140.0500 C   0  0  0  0  0  3  0  0  0  0  0  0
  191.2830  173.7600  139.9640 C   0  0  0  0  0  3  0  0  0  0  0  0
  189.0600  173.7300  138.8980 C   0  0  0  0  0  0  0  0  0  0  0  0
  189.2230  173.8180  141.3360 C   0  0  2  0  0  3  0  0  0  0  0  0
  189.7850  173.8010  136.6850 C   0  0  0  0  0  2  0  0  0  0  0  0
  1 15  1  0  0  0  0
  3  7  1  6  0  0  0
  3 19  1  0  0  0  0
  5  2  1  0  0  0  0
  5  6  1  0  0  0  0
  6 13  2  0  0  0  0
  6  8  2  0  0  0  0
  7 20  2  0  0  0  0
  9  1  1  0  0  0  0
  9  3  1  0  0  0  0
 10  6  1  0  0  0  0
 11 10  2  0  0  0  0
 12  2  1  0  0  0  0
 14  9  2  0  0  0  0
 15 16  1  0  0  0  0
 16 18  1  0  0  0  0
 17 11  1  0  0  0  0
 18  4  2  0  0  0  0
 19 12  1  6  0  0  0
 19 18  1  0  0  0  0
 20 17  1  0  0  0  0
 21 28  1  0  0  0  0
 22 27  1  0  0  0  0
 22 26  1  1  0  0  0
 23 27  1  0  0  0  0
 24 22  1  0  0  0  0
 25 28  1  0  0  0  0
 26 21  2  0  0  0  0
 27 25  2  0  0  0  0
 28 20  1  1  0  0  0
 29 24  1  0  0  0  0
 29 23  1  0  0  0  0
M  END
>  <MODEL>
7

>  <REMARK>
 VINA RESULT:      -7.2      2.136      6.424
  Name = 
  1 active torsions:
  status: ('A' for Active; 'I' for Inactive)
    1  A    between atoms: C_21  and  C_29
                            x       y       z     vdW  Elec       q    Type
                         _______ _______ _______ _____ _____    ______ ____

>  <TORSDO>
F 1

$$$$
=
 OpenBabel11062422563D

 29 32  0  0  1  0  0  0  0  0999 V2000
  193.5860  176.7880  145.5440 N   0  0  0  0  0  2  0  0  0  0  0  0
  192.5970  174.1670  141.0570 C   0  0  0  0  0  2  0  0  0  0  0  0
  191.6490  175.5580  144.4940 C   0  0  2  0  0  3  0  0  0  0  0  0
  194.1530  173.0280  143.4600 O   0  0  0  0  0  0  0  0  0  0  0  0
  191.2330  173.7730  140.7330 N   0  0  0  0  0  2  0  0  0  0  0  0
  190.9920  172.0990  141.1410 S   0  0  0  0  0  0  0  0  0  0  0  0
  190.2660  175.8570  144.1000 N   0  0  0  0  0  0  0  0  0  0  0  0
  192.0050  171.6190  142.1430 O   0  0  0  0  0  0  0  0  0  0  0  0
  192.4050  176.8280  144.7520 C   0  0  0  0  0  0  0  0  0  0  0  0
  189.3800  171.9230  141.8170 C   0  0  0  0  0  3  0  0  0  0  0  0
  188.9420  172.7450  142.7660 C   0  0  0  0  0  3  0  0  0  0  0  0
  192.5850  175.2550  142.1240 C   0  0  0  0  0  2  0  0  0  0  0  0
  191.0950  171.2710  139.8930 O   0  0  0  0  0  0  0  0  0  0  0  0
  192.0420  177.9160  144.2300 O   0  0  0  0  0  0  0  0  0  0  0  0
  194.0280  175.5380  146.1350 C   0  0  0  0  0  2  0  0  0  0  0  0
  194.4850  174.6190  145.0990 N   0  0  0  0  0  2  0  0  0  0  0  0
  189.7930  173.7080  143.3080 O   0  0  0  0  0  0  0  0  0  0  0  0
  193.7020  174.0510  144.0350 C   0  0  0  0  0  0  0  0  0  0  0  0
  192.4070  174.6450  143.5130 C   0  0  1  0  0  3  0  0  0  0  0  0
  189.4000  175.0140  143.6200 C   0  0  0  0  0  0  0  0  0  0  0  0
  187.8670  176.0140  141.9230 C   0  0  0  0  0  3  0  0  0  0  0  0
  185.9130  177.3210  142.6860 C   0  0  1  0  0  3  0  0  0  0  0  0
  186.2230  178.6150  144.7310 C   0  0  0  0  0  2  0  0  0  0  0  0
  185.4160  178.6660  142.4300 N   0  0  0  0  0  2  0  0  0  0  0  0
  187.6090  176.5880  144.3350 C   0  0  0  0  0  3  0  0  0  0  0  0
  186.8780  176.8740  141.6130 C   0  0  0  0  0  3  0  0  0  0  0  0
  186.5890  177.3930  144.0070 C   0  0  0  0  0  0  0  0  0  0  0  0
  188.0150  175.5180  143.3470 C   0  0  2  0  0  3  0  0  0  0  0  0
  185.2860  179.3060  143.7460 C   0  0  0  0  0  2  0  0  0  0  0  0
  1 15  1  0  0  0  0
  2 12  1  0  0  0  0
  3  7  1  6  0  0  0
  3  9  1  0  0  0  0
  4 18  2  0  0  0  0
  5  2  1  0  0  0  0
  5  6  1  0  0  0  0
  6 10  1  0  0  0  0
  6  8  2  0  0  0  0
  9  1  1  0  0  0  0
 10 11  2  0  0  0  0
 11 17  1  0  0  0  0
 13  6  2  0  0  0  0
 14  9  2  0  0  0  0
 16 15  1  0  0  0  0
 17 20  1  0  0  0  0
 18 16  1  0  0  0  0
 19 12  1  6  0  0  0
 19 18  1  0  0  0  0
 19  3  1  0  0  0  0
 20  7  2  0  0  0  0
 21 28  1  0  0  0  0
 22 26  1  6  0  0  0
 22 27  1  0  0  0  0
 24 22  1  0  0  0  0
 24 29  1  0  0  0  0
 26 21  2  0  0  0  0
 27 25  2  0  0  0  0
 27 23  1  0  0  0  0
 28 20  1  1  0  0  0
 28 25  1  0  0  0  0
 29 23  1  0  0  0  0
M  END
>  <MODEL>
8

>  <REMARK>
 VINA RESULT:      -7.1      2.300      4.650
  Name = 
  1 active torsions:
  status: ('A' for Active; 'I' for Inactive)
    1  A    between atoms: C_21  and  C_29
                            x       y       z     vdW  Elec       q    Type
                         _______ _______ _______ _____ _____    ______ ____

>  <TORSDO>
F 1

$$$$
=
 OpenBabel11062422563D

 29 32  0  0  1  0  0  0  0  0999 V2000
  185.7280  177.4370  142.0370 N   0  0  0  0  0  2  0  0  0  0  0  0
  190.4550  177.9940  144.3450 C   0  0  0  0  0  2  0  0  0  0  0  0
  187.6420  175.9520  142.7420 C   0  0  2  0  0  3  0  0  0  0  0  0
  187.7550  178.0020  145.8280 O   0  0  0  0  0  0  0  0  0  0  0  0
  191.3800  176.8700  144.3830 N   0  0  0  0  0  2  0  0  0  0  0  0
  191.3020  176.0970  145.9390 S   0  0  0  0  0  0  0  0  0  0  0  0
  188.5640  175.0020  142.1050 N   0  0  0  0  0  0  0  0  0  0  0  0
  190.0190  176.4130  146.6550 O   0  0  0  0  0  0  0  0  0  0  0  0
  186.9440  176.7800  141.7030 C   0  0  0  0  0  0  0  0  0  0  0  0
  191.4180  174.3600  145.6980 C   0  0  0  0  0  3  0  0  0  0  0  0
  190.6700  173.7440  144.7870 C   0  0  0  0  0  3  0  0  0  0  0  0
  189.3880  177.7540  143.2840 C   0  0  0  0  0  2  0  0  0  0  0  0
  192.4640  176.5560  146.7730 O   0  0  0  0  0  0  0  0  0  0  0  0
  187.4510  176.9490  140.5620 O   0  0  0  0  0  0  0  0  0  0  0  0
  185.1440  177.2690  143.3550 C   0  0  0  0  0  2  0  0  0  0  0  0
  185.9710  177.9180  144.3650 N   0  0  0  0  0  2  0  0  0  0  0  0
  189.7110  174.4570  144.0690 O   0  0  0  0  0  0  0  0  0  0  0  0
  187.3240  177.5890  144.7210 C   0  0  0  0  0  0  0  0  0  0  0  0
  188.2900  176.8390  143.8220 C   0  0  1  0  0  3  0  0  0  0  0  0
  189.4600  174.2760  142.7030 C   0  0  0  0  0  0  0  0  0  0  0  0
  191.4530  173.9840  141.2280 C   0  0  0  0  0  3  0  0  0  0  0  0
  191.4660  172.1500  139.5710 C   0  0  1  0  0  3  0  0  0  0  0  0
  189.3110  171.5980  138.5690 C   0  0  0  0  0  2  0  0  0  0  0  0
  191.6620  172.0720  138.1300 N   0  0  0  0  0  2  0  0  0  0  0  0
  189.3880  172.6480  140.8220 C   0  0  0  0  0  3  0  0  0  0  0  0
  192.0200  173.4370  140.1370 C   0  0  0  0  0  3  0  0  0  0  0  0
  189.9960  172.0750  139.7750 C   0  0  0  0  0  0  0  0  0  0  0  0
  190.2520  173.3160  141.8670 C   0  0  2  0  0  3  0  0  0  0  0  0
  190.4680  171.4060  137.5940 C   0  0  0  0  0  2  0  0  0  0  0  0
  1 15  1  0  0  0  0
  2  5  1  0  0  0  0
  3  9  1  6  0  0  0
  3 19  1  0  0  0  0
  5  6  1  0  0  0  0
  6  8  2  0  0  0  0
  6 13  2  0  0  0  0
  7 20  2  0  0  0  0
  7  3  1  0  0  0  0
  9  1  1  0  0  0  0
 10  6  1  0  0  0  0
 11 10  2  0  0  0  0
 12  2  1  0  0  0  0
 14  9  2  0  0  0  0
 15 16  1  0  0  0  0
 16 18  1  0  0  0  0
 17 11  1  0  0  0  0
 18  4  2  0  0  0  0
 19 12  1  6  0  0  0
 19 18  1  0  0  0  0
 20 17  1  0  0  0  0
 21 28  1  0  0  0  0
 22 27  1  0  0  0  0
 22 26  1  6  0  0  0
 23 27  1  0  0  0  0
 24 22  1  0  0  0  0
 25 28  1  0  0  0  0
 26 21  2  0  0  0  0
 27 25  2  0  0  0  0
 28 20  1  6  0  0  0
 29 24  1  0  0  0  0
 29 23  1  0  0  0  0
M  END
>  <MODEL>
9

>  <REMARK>
 VINA RESULT:      -6.9      2.260      6.494
  Name = 
  1 active torsions:
  status: ('A' for Active; 'I' for Inactive)
    1  A    between atoms: C_21  and  C_29
                            x       y       z     vdW  Elec       q    Type
                         _______ _______ _______ _____ _____    ______ ____

>  <TORSDO>
F 1

$$$$
