=
 OpenBabel11062418563D

 33 37  0  0  1  0  0  0  0  0999 V2000
  188.6760  176.4390  143.7420 C   0  0  1  0  0  3  0  0  0  0  0  0
  184.5470  178.4430  147.3080 C   0  0  0  0  0  3  0  0  0  0  0  0
  190.7750  178.3770  143.3290 Cl  0  0  0  0  0  0  0  0  0  0  0  0
  188.5420  173.3420  140.8670 O   0  0  0  0  0  0  0  0  0  0  0  0
  184.2500  178.5770  145.9370 C   0  0  0  0  0  3  0  0  0  0  0  0
  186.3650  177.5630  145.4360 C   0  0  0  0  0  3  0  0  0  0  0  0
  183.9390  178.4960  142.8340 N   0  0  0  0  0  0  0  0  0  0  0  0
  188.7700  176.3670  145.9250 N   0  0  1  0  0  0  0  0  0  0  0  0
  186.4000  177.1280  140.4290 C   0  0  0  0  0  2  0  0  0  0  0  0
  189.5790  174.2040  142.9770 C   0  0  0  0  0  2  0  0  0  0  0  0
  186.0100  177.7010  149.0520 F   0  0  0  0  0  0  0  0  0  0  0  0
  184.3120  178.2090  141.5630 C   0  0  0  0  0  0  0  0  0  0  0  0
  187.8410  176.8630  140.9000 C   0  0  0  0  0  2  0  0  0  0  0  0
  186.6820  177.3990  146.7700 C   0  0  0  0  0  0  0  0  0  0  0  0
  187.9470  176.6470  147.1160 C   0  0  0  0  0  2  0  0  0  0  0  0
  189.5360  171.8740  142.3600 N   0  0  0  0  0  2  0  0  0  0  0  0
  185.7570  177.8490  147.7280 C   0  0  0  0  0  0  0  0  0  0  0  0
  189.0740  175.5930  142.5140 C   0  0  1  0  0  3  0  0  0  0  0  0
  185.5750  177.6480  141.5630 C   0  0  0  0  0  0  0  0  0  0  0  0
  188.3780  174.6740  140.4160 C   0  0  0  0  0  2  0  0  0  0  0  0
  188.2610  175.6660  144.8650 O   0  0  0  0  0  0  0  0  0  0  0  0
  185.9710  177.6070  142.7940 O   0  0  0  0  0  0  0  0  0  0  0  0
  189.2300  173.0870  142.0460 C   0  0  0  0  0  0  0  0  0  0  0  0
  185.0190  178.1010  143.5450 C   0  0  0  0  0  0  0  0  0  0  0  0
  189.7620  177.2700  145.5440 N   0  0  0  0  0  2  0  0  0  0  0  0
  187.9720  175.5400  141.5210 N   0  0  2  0  0  0  0  0  0  0  0  0
  185.1850  178.1270  144.9980 C   0  0  0  0  0  0  0  0  0  0  0  0
  189.7820  177.2790  144.2670 C   0  0  1  0  0  3  0  0  0  0  0  0
  183.4300  178.3890  140.3760 C   0  0  0  0  0  2  0  0  0  0  0  0
  182.2440  177.6790  140.5630 O   0  0  0  0  0  0  0  0  0  0  0  0
  181.2380  178.6440  140.4920 C   0  0  0  0  0  2  0  0  0  0  0  0
  180.6760  179.3900  142.6860 O   0  0  0  0  0  1  0  0  0  0  0  0
  180.3030  178.5010  141.6780 C   0  0  0  0  0  2  0  0  0  0  0  0
  1 28  1  0  0  0  0
  1 21  1  1  0  0  0
  2 17  1  0  0  0  0
  4 23  1  0  0  0  0
  5  2  2  0  0  0  0
  6 14  1  0  0  0  0
  7 24  2  0  0  0  0
  8 15  1  6  0  0  0
  9 13  1  0  0  0  0
  9 19  1  0  0  0  0
 12  7  1  0  0  0  0
 13 26  1  0  0  0  0
 14 15  1  0  0  0  0
 14 17  2  0  0  0  0
 17 11  1  0  0  0  0
 18 10  1  1  0  0  0
 18  1  1  0  0  0  0
 19 12  2  0  0  0  0
 19 22  1  0  0  0  0
 20  4  1  0  0  0  0
 21  8  1  0  0  0  0
 22 24  1  0  0  0  0
 23 16  2  0  0  0  0
 23 10  1  0  0  0  0
 24 27  1  0  0  0  0
 25  8  1  0  0  0  0
 26 20  1  6  0  0  0
 26 18  1  0  0  0  0
 27  6  2  0  0  0  0
 27  5  1  0  0  0  0
 28  3  1  6  0  0  0
 28 25  1  0  0  0  0
 29 30  1  0  0  0  0
 29 12  1  0  0  0  0
 31 30  1  0  0  0  0
 31 33  1  0  0  0  0
 33 32  1  0  0  0  0
M  END
>  <MODEL>
1

>  <REMARK>
 VINA RESULT:      -8.9      0.000      0.000
  Name = 
  4 active torsions:
  status: ('A' for Active; 'I' for Inactive)
    1  A    between atoms: C_8  and  C_17
    2  A    between atoms: C_8  and  O_19
    3  A    between atoms: C_14  and  C_33
    4  A    between atoms: O_19  and  C_33
                            x       y       z     vdW  Elec       q    Type
                         _______ _______ _______ _____ _____    ______ ____

>  <TORSDO>
F 4

$$$$
=
 OpenBabel11062418563D

 33 37  0  0  1  0  0  0  0  0999 V2000
  190.7650  173.7100  143.4180 C   0  0  1  0  0  3  0  0  0  0  0  0
  188.5750  173.3610  138.0460 C   0  0  0  0  0  3  0  0  0  0  0  0
  189.4750  171.8690  145.2290 Cl  0  0  0  0  0  0  0  0  0  0  0  0
  192.9070  176.8300  145.3030 O   0  0  0  0  0  0  0  0  0  0  0  0
  188.0360  174.4010  138.8300 C   0  0  0  0  0  3  0  0  0  0  0  0
  189.4650  173.7110  140.6290 C   0  0  0  0  0  3  0  0  0  0  0  0
  187.2760  176.6590  140.8450 N   0  0  0  0  0  0  0  0  0  0  0  0
  191.3840  172.2530  141.9110 N   0  0  1  0  0  0  0  0  0  0  0  0
  188.6750  177.1130  144.2420 C   0  0  0  0  0  2  0  0  0  0  0  0
  192.9140  174.4480  144.5300 C   0  0  0  0  0  2  0  0  0  0  0  0
  190.1030  171.5380  137.7850 F   0  0  0  0  0  0  0  0  0  0  0  0
  187.3440  177.3480  142.0100 C   0  0  0  0  0  0  0  0  0  0  0  0
  189.4490  175.9540  144.8960 C   0  0  0  0  0  2  0  0  0  0  0  0
  190.0280  172.6940  139.8840 C   0  0  0  0  0  0  0  0  0  0  0  0
  191.1730  171.9150  140.4910 C   0  0  0  0  0  2  0  0  0  0  0  0
  194.9130  175.7500  144.8760 N   0  0  0  0  0  2  0  0  0  0  0  0
  189.5750  172.5120  138.5670 C   0  0  0  0  0  0  0  0  0  0  0  0
  191.3700  174.5640  144.5540 C   0  0  1  0  0  3  0  0  0  0  0  0
  188.2280  176.7250  142.8700 C   0  0  0  0  0  0  0  0  0  0  0  0
  191.5170  176.7340  145.5530 C   0  0  0  0  0  2  0  0  0  0  0  0
  191.6320  173.5410  142.3000 O   0  0  0  0  0  0  0  0  0  0  0  0
  188.6760  175.6760  142.2570 O   0  0  0  0  0  0  0  0  0  0  0  0
  193.6240  175.7030  144.9260 C   0  0  0  0  0  0  0  0  0  0  0  0
  188.1240  175.6310  141.0700 C   0  0  0  0  0  0  0  0  0  0  0  0
  190.7410  171.5080  142.8990 N   0  0  0  0  0  2  0  0  0  0  0  0
  190.8620  175.9580  144.5010 N   0  0  2  0  0  0  0  0  0  0  0  0
  188.4960  174.5640  140.1410 C   0  0  0  0  0  0  0  0  0  0  0  0
  190.4310  172.3240  143.8320 C   0  0  1  0  0  3  0  0  0  0  0  0
  186.6380  178.6370  142.2570 C   0  0  0  0  0  2  0  0  0  0  0  0
  185.5240  178.4120  143.0650 O   0  0  0  0  0  0  0  0  0  0  0  0
  185.4540  179.5340  143.8920 C   0  0  0  0  0  2  0  0  0  0  0  0
  184.0780  179.0810  145.7860 O   0  0  0  0  0  1  0  0  0  0  0  0
  185.4010  179.1000  145.3440 C   0  0  0  0  0  2  0  0  0  0  0  0
  1 21  1  6  0  0  0
  1 28  1  0  0  0  0
  1 18  1  0  0  0  0
  2 17  2  0  0  0  0
  2  5  1  0  0  0  0
  4 20  1  0  0  0  0
  5 27  2  0  0  0  0
  7 24  2  0  0  0  0
  7 12  1  0  0  0  0
  8 15  1  6  0  0  0
  8 21  1  0  0  0  0
  8 25  1  0  0  0  0
  9 13  1  0  0  0  0
 10 23  1  0  0  0  0
 11 17  1  0  0  0  0
 12 29  1  0  0  0  0
 12 19  2  0  0  0  0
 14 15  1  0  0  0  0
 14  6  2  0  0  0  0
 16 23  2  0  0  0  0
 17 14  1  0  0  0  0
 18 10  1  6  0  0  0
 19  9  1  0  0  0  0
 22 19  1  0  0  0  0
 23  4  1  0  0  0  0
 24 22  1  0  0  0  0
 25 28  1  0  0  0  0
 26 18  1  0  0  0  0
 26 13  1  1  0  0  0
 26 20  1  0  0  0  0
 27  6  1  0  0  0  0
 27 24  1  0  0  0  0
 28  3  1  6  0  0  0
 29 30  1  0  0  0  0
 30 31  1  0  0  0  0
 31 33  1  0  0  0  0
 33 32  1  0  0  0  0
M  END
>  <MODEL>
2

>  <REMARK>
 VINA RESULT:      -7.2      3.695      6.537
  Name = 
  4 active torsions:
  status: ('A' for Active; 'I' for Inactive)
    1  A    between atoms: C_8  and  C_17
    2  A    between atoms: C_8  and  O_19
    3  A    between atoms: C_14  and  C_33
    4  A    between atoms: O_19  and  C_33
                            x       y       z     vdW  Elec       q    Type
                         _______ _______ _______ _____ _____    ______ ____

>  <TORSDO>
F 4

$$$$
=
 OpenBabel11062418563D

 33 37  0  0  1  0  0  0  0  0999 V2000
  193.1130  174.0030  143.4890 C   0  0  1  0  0  3  0  0  0  0  0  0
  188.2280  174.1570  140.3430 C   0  0  0  0  0  3  0  0  0  0  0  0
  193.4940  171.4410  144.7630 Cl  0  0  0  0  0  0  0  0  0  0  0  0
  195.4100  177.1490  145.1320 O   0  0  0  0  0  0  0  0  0  0  0  0
  188.1080  174.7030  141.6370 C   0  0  0  0  0  3  0  0  0  0  0  0
  190.4200  174.1860  142.0110 C   0  0  0  0  0  3  0  0  0  0  0  0
  188.3540  175.9680  144.4780 N   0  0  0  0  0  0  0  0  0  0  0  0
  192.9310  173.2840  141.4330 N   0  0  1  0  0  0  0  0  0  0  0  0
  191.4160  176.0860  146.5560 C   0  0  0  0  0  2  0  0  0  0  0  0
  195.3410  175.1990  143.5640 C   0  0  0  0  0  2  0  0  0  0  0  0
  189.5670  173.1490  138.6330 F   0  0  0  0  0  0  0  0  0  0  0  0
  188.9940  176.3350  145.6150 C   0  0  0  0  0  0  0  0  0  0  0  0
  192.6040  175.1770  146.1930 C   0  0  0  0  0  2  0  0  0  0  0  0
  190.5800  173.6590  140.7460 C   0  0  0  0  0  0  0  0  0  0  0  0
  191.9680  173.2400  140.3170 C   0  0  0  0  0  2  0  0  0  0  0  0
  196.9000  177.0270  143.3610 N   0  0  0  0  0  2  0  0  0  0  0  0
  189.4630  173.6410  139.8920 C   0  0  0  0  0  0  0  0  0  0  0  0
  194.1290  174.7240  144.4020 C   0  0  1  0  0  3  0  0  0  0  0  0
  190.3050  175.8980  145.5740 C   0  0  0  0  0  0  0  0  0  0  0  0
  194.4890  176.4880  145.9800 C   0  0  0  0  0  2  0  0  0  0  0  0
  193.1470  174.4400  142.1330 O   0  0  0  0  0  0  0  0  0  0  0  0
  190.4590  175.2690  144.4530 O   0  0  0  0  0  0  0  0  0  0  0  0
  195.9290  176.4950  144.0240 C   0  0  0  0  0  0  0  0  0  0  0  0
  189.3220  175.3060  143.8050 C   0  0  0  0  0  0  0  0  0  0  0  0
  193.1440  172.1420  142.2040 N   0  0  0  0  0  2  0  0  0  0  0  0
  193.4720  175.7990  145.1870 N   0  0  2  0  0  0  0  0  0  0  0  0
  189.2290  174.7080  142.4740 C   0  0  0  0  0  0  0  0  0  0  0  0
  193.3280  172.5360  143.4050 C   0  0  1  0  0  3  0  0  0  0  0  0
  188.3790  177.1700  146.6840 C   0  0  0  0  0  2  0  0  0  0  0  0
  187.1770  176.5940  147.0940 O   0  0  0  0  0  0  0  0  0  0  0  0
  186.2460  177.6320  147.0310 C   0  0  0  0  0  2  0  0  0  0  0  0
  183.9980  178.1420  146.4230 O   0  0  0  0  0  1  0  0  0  0  0  0
  184.9560  177.1290  146.4110 C   0  0  0  0  0  2  0  0  0  0  0  0
  1 21  1  6  0  0  0
  1 18  1  0  0  0  0
  2  5  1  0  0  0  0
  4 20  1  0  0  0  0
  5 27  2  0  0  0  0
  6 27  1  0  0  0  0
  7 12  1  0  0  0  0
  8 15  1  1  0  0  0
  8 21  1  0  0  0  0
  8 25  1  0  0  0  0
 10 23  1  0  0  0  0
 11 17  1  0  0  0  0
 12 29  1  0  0  0  0
 13  9  1  0  0  0  0
 14  6  2  0  0  0  0
 15 14  1  0  0  0  0
 16 23  2  0  0  0  0
 17  2  2  0  0  0  0
 17 14  1  0  0  0  0
 18 10  1  6  0  0  0
 18 26  1  0  0  0  0
 19 12  2  0  0  0  0
 19  9  1  0  0  0  0
 22 19  1  0  0  0  0
 23  4  1  0  0  0  0
 24 22  1  0  0  0  0
 24  7  2  0  0  0  0
 25 28  1  0  0  0  0
 26 20  1  1  0  0  0
 26 13  1  0  0  0  0
 27 24  1  0  0  0  0
 28  1  1  0  0  0  0
 28  3  1  1  0  0  0
 29 30  1  0  0  0  0
 31 30  1  0  0  0  0
 33 32  1  0  0  0  0
 33 31  1  0  0  0  0
M  END
>  <MODEL>
3

>  <REMARK>
 VINA RESULT:      -7.0      4.330      7.357
  Name = 
  4 active torsions:
  status: ('A' for Active; 'I' for Inactive)
    1  A    between atoms: C_8  and  C_17
    2  A    between atoms: C_8  and  O_19
    3  A    between atoms: C_14  and  C_33
    4  A    between atoms: O_19  and  C_33
                            x       y       z     vdW  Elec       q    Type
                         _______ _______ _______ _____ _____    ______ ____

>  <TORSDO>
F 4

$$$$
=
 OpenBabel11062418563D

 33 37  0  0  1  0  0  0  0  0999 V2000
  188.8410  176.1580  144.7230 C   0  0  1  0  0  3  0  0  0  0  0  0
  183.8830  179.0060  145.7680 C   0  0  0  0  0  3  0  0  0  0  0  0
  191.1250  177.9210  144.7670 Cl  0  0  0  0  0  0  0  0  0  0  0  0
  189.5140  172.4450  142.8160 O   0  0  0  0  0  0  0  0  0  0  0  0
  184.1590  178.7960  144.4020 C   0  0  0  0  0  3  0  0  0  0  0  0
  186.1840  177.6780  145.0400 C   0  0  0  0  0  3  0  0  0  0  0  0
  185.0760  177.9490  141.5430 N   0  0  0  0  0  0  0  0  0  0  0  0
  188.0690  176.6290  146.7120 N   0  0  1  0  0  0  0  0  0  0  0  0
  188.1210  176.0140  140.7110 C   0  0  0  0  0  2  0  0  0  0  0  0
  189.7300  173.7980  144.9120 C   0  0  0  0  0  2  0  0  0  0  0  0
  184.4640  178.7110  148.0720 F   0  0  0  0  0  0  0  0  0  0  0  0
  185.8820  177.3540  140.6310 C   0  0  0  0  0  0  0  0  0  0  0  0
  189.2290  175.8670  141.7700 C   0  0  0  0  0  2  0  0  0  0  0  0
  185.9370  177.8500  146.3870 C   0  0  0  0  0  0  0  0  0  0  0  0
  186.8810  177.2010  147.3740 C   0  0  0  0  0  2  0  0  0  0  0  0
  189.6880  171.3880  144.8710 N   0  0  0  0  0  2  0  0  0  0  0  0
  184.7650  178.5280  146.7620 C   0  0  0  0  0  0  0  0  0  0  0  0
  189.5950  175.0310  143.9850 C   0  0  1  0  0  3  0  0  0  0  0  0
  186.9790  176.8030  141.2660 C   0  0  0  0  0  0  0  0  0  0  0  0
  189.6790  173.6240  142.0500 C   0  0  0  0  0  2  0  0  0  0  0  0
  187.9420  175.6900  145.7240 O   0  0  0  0  0  0  0  0  0  0  0  0
  186.8570  177.0680  142.5280 O   0  0  0  0  0  0  0  0  0  0  0  0
  189.6580  172.4870  144.1960 C   0  0  0  0  0  0  0  0  0  0  0  0
  185.7450  177.7370  142.6980 C   0  0  0  0  0  0  0  0  0  0  0  0
  189.2190  177.4040  146.5720 N   0  0  0  0  0  2  0  0  0  0  0  0
  188.9680  174.7390  142.6710 N   0  0  2  0  0  0  0  0  0  0  0  0
  185.3340  178.1230  144.0480 C   0  0  0  0  0  0  0  0  0  0  0  0
  189.7360  177.0960  145.4450 C   0  0  1  0  0  3  0  0  0  0  0  0
  185.5560  177.2380  139.1820 C   0  0  0  0  0  2  0  0  0  0  0  0
  186.7210  176.9740  138.4600 O   0  0  0  0  0  0  0  0  0  0  0  0
  186.3050  176.1650  137.4010 C   0  0  0  0  0  2  0  0  0  0  0  0
  188.0070  174.4960  137.4400 O   0  0  0  0  0  1  0  0  0  0  0  0
  187.5140  175.5720  136.7020 C   0  0  0  0  0  2  0  0  0  0  0  0
  1 28  1  0  0  0  0
  1 21  1  1  0  0  0
  2 17  1  0  0  0  0
  4 23  1  0  0  0  0
  5  2  2  0  0  0  0
  6 14  1  0  0  0  0
  7 24  2  0  0  0  0
  8 15  1  6  0  0  0
  9 19  1  0  0  0  0
  9 13  1  0  0  0  0
 12 19  2  0  0  0  0
 12  7  1  0  0  0  0
 14 17  2  0  0  0  0
 14 15  1  0  0  0  0
 17 11  1  0  0  0  0
 18  1  1  0  0  0  0
 18 10  1  1  0  0  0
 19 22  1  0  0  0  0
 20 26  1  0  0  0  0
 20  4  1  0  0  0  0
 21  8  1  0  0  0  0
 22 24  1  0  0  0  0
 23 16  2  0  0  0  0
 23 10  1  0  0  0  0
 24 27  1  0  0  0  0
 25  8  1  0  0  0  0
 26 13  1  6  0  0  0
 26 18  1  0  0  0  0
 27  5  1  0  0  0  0
 27  6  2  0  0  0  0
 28  3  1  6  0  0  0
 28 25  1  0  0  0  0
 29 12  1  0  0  0  0
 30 29  1  0  0  0  0
 31 30  1  0  0  0  0
 33 31  1  0  0  0  0
 33 32  1  0  0  0  0
M  END
>  <MODEL>
4

>  <REMARK>
 VINA RESULT:      -6.8      2.261      3.216
  Name = 
  4 active torsions:
  status: ('A' for Active; 'I' for Inactive)
    1  A    between atoms: C_8  and  C_17
    2  A    between atoms: C_8  and  O_19
    3  A    between atoms: C_14  and  C_33
    4  A    between atoms: O_19  and  C_33
                            x       y       z     vdW  Elec       q    Type
                         _______ _______ _______ _____ _____    ______ ____

>  <TORSDO>
F 4

$$$$
=
 OpenBabel11062418563D

 33 37  0  0  1  0  0  0  0  0999 V2000
  191.8330  174.6490  143.5680 C   0  0  1  0  0  3  0  0  0  0  0  0
  189.9240  177.8690  148.0150 C   0  0  0  0  0  3  0  0  0  0  0  0
  193.6840  176.1060  141.9010 Cl  0  0  0  0  0  0  0  0  0  0  0  0
  190.1610  171.2100  141.7630 O   0  0  0  0  0  0  0  0  0  0  0  0
  189.0580  177.8360  146.9030 C   0  0  0  0  0  3  0  0  0  0  0  0
  190.6300  176.4050  145.7910 C   0  0  0  0  0  3  0  0  0  0  0  0
  187.3870  177.3250  144.3180 N   0  0  0  0  0  0  0  0  0  0  0  0
  192.8860  174.9040  145.4660 N   0  0  1  0  0  0  0  0  0  0  0  0
  188.3850  175.1930  141.4600 C   0  0  0  0  0  2  0  0  0  0  0  0
  192.1020  172.1990  142.9990 C   0  0  0  0  0  2  0  0  0  0  0  0
  191.9410  177.1670  149.0950 F   0  0  0  0  0  0  0  0  0  0  0  0
  187.1260  176.7830  143.1040 C   0  0  0  0  0  0  0  0  0  0  0  0
  189.8560  174.7600  141.3250 C   0  0  0  0  0  2  0  0  0  0  0  0
  191.4930  176.4010  146.8670 C   0  0  0  0  0  0  0  0  0  0  0  0
  192.7100  175.5050  146.8020 C   0  0  0  0  0  2  0  0  0  0  0  0
  191.5870  169.8450  142.9770 N   0  0  0  0  0  2  0  0  0  0  0  0
  191.1370  177.1480  148.0030 C   0  0  0  0  0  0  0  0  0  0  0  0
  191.5660  173.5650  142.5020 C   0  0  1  0  0  3  0  0  0  0  0  0
  188.2020  176.0190  142.6930 C   0  0  0  0  0  0  0  0  0  0  0  0
  189.9280  172.4630  141.1470 C   0  0  0  0  0  2  0  0  0  0  0  0
  191.8980  174.1440  144.8990 O   0  0  0  0  0  0  0  0  0  0  0  0
  189.1010  176.1030  143.6200 O   0  0  0  0  0  0  0  0  0  0  0  0
  191.2780  171.0280  142.5670 C   0  0  0  0  0  0  0  0  0  0  0  0
  188.6320  176.8650  144.5760 C   0  0  0  0  0  0  0  0  0  0  0  0
  193.6770  175.5510  144.5180 N   0  0  0  0  0  2  0  0  0  0  0  0
  190.1360  173.5480  142.1040 N   0  0  2  0  0  0  0  0  0  0  0  0
  189.4320  177.0900  145.7790 C   0  0  0  0  0  0  0  0  0  0  0  0
  193.1250  175.3570  143.3830 C   0  0  1  0  0  3  0  0  0  0  0  0
  185.8250  176.9240  142.3910 C   0  0  0  0  0  2  0  0  0  0  0  0
  185.4520  178.2680  142.3620 O   0  0  0  0  0  0  0  0  0  0  0  0
  184.1680  178.2920  142.9070 C   0  0  0  0  0  2  0  0  0  0  0  0
  185.1830  180.0110  144.2100 O   0  0  0  0  0  1  0  0  0  0  0  0
  184.1840  179.0380  144.2280 C   0  0  0  0  0  2  0  0  0  0  0  0
  1 21  1  1  0  0  0
  4 23  1  0  0  0  0
  5  2  2  0  0  0  0
  6 14  1  0  0  0  0
  7 24  2  0  0  0  0
  8 15  1  1  0  0  0
  9 19  1  0  0  0  0
 12  7  1  0  0  0  0
 13  9  1  0  0  0  0
 13 26  1  0  0  0  0
 14 17  2  0  0  0  0
 15 14  1  0  0  0  0
 17  2  1  0  0  0  0
 17 11  1  0  0  0  0
 18 10  1  1  0  0  0
 18  1  1  0  0  0  0
 19 12  2  0  0  0  0
 19 22  1  0  0  0  0
 20  4  1  0  0  0  0
 21  8  1  0  0  0  0
 22 24  1  0  0  0  0
 23 16  2  0  0  0  0
 23 10  1  0  0  0  0
 24 27  1  0  0  0  0
 25  8  1  0  0  0  0
 26 20  1  6  0  0  0
 26 18  1  0  0  0  0
 27  6  2  0  0  0  0
 27  5  1  0  0  0  0
 28  3  1  1  0  0  0
 28  1  1  0  0  0  0
 28 25  1  0  0  0  0
 29 12  1  0  0  0  0
 30 29  1  0  0  0  0
 30 31  1  0  0  0  0
 31 33  1  0  0  0  0
 32 33  1  0  0  0  0
M  END
>  <MODEL>
5

>  <REMARK>
 VINA RESULT:      -6.7      2.760      4.038
  Name = 
  4 active torsions:
  status: ('A' for Active; 'I' for Inactive)
    1  A    between atoms: C_8  and  C_17
    2  A    between atoms: C_8  and  O_19
    3  A    between atoms: C_14  and  C_33
    4  A    between atoms: O_19  and  C_33
                            x       y       z     vdW  Elec       q    Type
                         _______ _______ _______ _____ _____    ______ ____

>  <TORSDO>
F 4

$$$$
=
 OpenBabel11062418563D

 33 37  0  0  1  0  0  0  0  0999 V2000
  193.0040  173.9940  143.2160 C   0  0  1  0  0  3  0  0  0  0  0  0
  188.5790  174.0120  139.4460 C   0  0  0  0  0  3  0  0  0  0  0  0
  193.1690  171.5070  144.6710 Cl  0  0  0  0  0  0  0  0  0  0  0  0
  195.1180  177.2080  144.9700 O   0  0  0  0  0  0  0  0  0  0  0  0
  188.2990  174.6340  140.6800 C   0  0  0  0  0  3  0  0  0  0  0  0
  190.5320  174.1170  141.3860 C   0  0  0  0  0  3  0  0  0  0  0  0
  188.1900  176.0590  143.4530 N   0  0  0  0  0  0  0  0  0  0  0  0
  193.0810  173.1580  141.1980 N   0  0  1  0  0  0  0  0  0  0  0  0
  190.9530  176.2680  145.9090 C   0  0  0  0  0  2  0  0  0  0  0  0
  195.2220  175.1710  143.5180 C   0  0  0  0  0  2  0  0  0  0  0  0
  190.1140  172.8940  137.9880 F   0  0  0  0  0  0  0  0  0  0  0  0
  188.6810  176.4850  144.6430 C   0  0  0  0  0  0  0  0  0  0  0  0
  192.1630  175.3280  145.7580 C   0  0  0  0  0  2  0  0  0  0  0  0
  190.8480  173.5160  140.1840 C   0  0  0  0  0  0  0  0  0  0  0  0
  192.2730  173.0590  139.9680 C   0  0  0  0  0  2  0  0  0  0  0  0
  196.8250  176.9680  143.4210 N   0  0  0  0  0  2  0  0  0  0  0  0
  189.8540  173.4590  139.1930 C   0  0  0  0  0  0  0  0  0  0  0  0
  193.9020  174.7560  144.2130 C   0  0  1  0  0  3  0  0  0  0  0  0
  189.9780  176.0340  144.8000 C   0  0  0  0  0  0  0  0  0  0  0  0
  194.0810  176.6060  145.7230 C   0  0  0  0  0  2  0  0  0  0  0  0
  193.2230  174.3510  141.8540 O   0  0  0  0  0  0  0  0  0  0  0  0
  190.2670  175.3390  143.7470 O   0  0  0  0  0  0  0  0  0  0  0  0
  195.7670  176.4850  143.9780 C   0  0  0  0  0  0  0  0  0  0  0  0
  189.2260  175.3500  142.9520 C   0  0  0  0  0  0  0  0  0  0  0  0
  193.1710  172.0610  142.0530 N   0  0  0  0  0  2  0  0  0  0  0  0
  193.1660  175.8820  144.8420 N   0  0  2  0  0  0  0  0  0  0  0  0
  189.3000  174.6760  141.6560 C   0  0  0  0  0  0  0  0  0  0  0  0
  193.2020  172.5230  143.2430 C   0  0  1  0  0  3  0  0  0  0  0  0
  187.9450  177.3870  145.5720 C   0  0  0  0  0  2  0  0  0  0  0  0
  186.5740  177.2880  145.3300 O   0  0  0  0  0  0  0  0  0  0  0  0
  186.1490  178.6070  145.1590 C   0  0  0  0  0  2  0  0  0  0  0  0
  185.0210  177.4850  143.3830 O   0  0  0  0  0  1  0  0  0  0  0  0
  185.0260  178.6560  144.1400 C   0  0  0  0  0  2  0  0  0  0  0  0
  1 21  1  6  0  0  0
  1 28  1  0  0  0  0
  1 18  1  0  0  0  0
  2  5  1  0  0  0  0
  4 20  1  0  0  0  0
  5 27  2  0  0  0  0
  6 27  1  0  0  0  0
  7 12  1  0  0  0  0
  8 15  1  1  0  0  0
  8 21  1  0  0  0  0
  8 25  1  0  0  0  0
 10 23  1  0  0  0  0
 11 17  1  0  0  0  0
 12 19  2  0  0  0  0
 12 29  1  0  0  0  0
 13  9  1  0  0  0  0
 14  6  2  0  0  0  0
 15 14  1  0  0  0  0
 16 23  2  0  0  0  0
 17  2  2  0  0  0  0
 17 14  1  0  0  0  0
 18 10  1  6  0  0  0
 18 26  1  0  0  0  0
 19  9  1  0  0  0  0
 22 19  1  0  0  0  0
 23  4  1  0  0  0  0
 24  7  2  0  0  0  0
 24 22  1  0  0  0  0
 25 28  1  0  0  0  0
 26 20  1  1  0  0  0
 26 13  1  0  0  0  0
 27 24  1  0  0  0  0
 28  3  1  1  0  0  0
 30 29  1  0  0  0  0
 31 30  1  0  0  0  0
 32 33  1  0  0  0  0
 33 31  1  0  0  0  0
M  END
>  <MODEL>
6

>  <REMARK>
 VINA RESULT:      -6.7      4.259      7.226
  Name = 
  4 active torsions:
  status: ('A' for Active; 'I' for Inactive)
    1  A    between atoms: C_8  and  C_17
    2  A    between atoms: C_8  and  O_19
    3  A    between atoms: C_14  and  C_33
    4  A    between atoms: O_19  and  C_33
                            x       y       z     vdW  Elec       q    Type
                         _______ _______ _______ _____ _____    ______ ____

>  <TORSDO>
F 4

$$$$
=
 OpenBabel11062418563D

 33 37  0  0  1  0  0  0  0  0999 V2000
  193.1290  174.4300  144.6090 C   0  0  1  0  0  3  0  0  0  0  0  0
  188.4110  177.4830  146.0930 C   0  0  0  0  0  3  0  0  0  0  0  0
  195.0720  176.0550  143.2250 Cl  0  0  0  0  0  0  0  0  0  0  0  0
  193.6530  170.2620  144.1310 O   0  0  0  0  0  0  0  0  0  0  0  0
  188.2790  176.7480  144.8980 C   0  0  0  0  0  3  0  0  0  0  0  0
  190.5270  175.9640  145.1960 C   0  0  0  0  0  3  0  0  0  0  0  0
  188.3730  174.8310  142.4380 N   0  0  0  0  0  0  0  0  0  0  0  0
  192.9520  175.6550  146.4100 N   0  0  1  0  0  0  0  0  0  0  0  0
  191.2370  172.7100  141.4320 C   0  0  0  0  0  2  0  0  0  0  0  0
  194.3280  172.3340  145.3630 C   0  0  0  0  0  2  0  0  0  0  0  0
  189.7050  178.1240  148.0030 F   0  0  0  0  0  0  0  0  0  0  0  0
  188.9300  173.9190  141.6040 C   0  0  0  0  0  0  0  0  0  0  0  0
  192.6250  172.9900  142.0350 C   0  0  0  0  0  2  0  0  0  0  0  0
  190.6860  176.6570  146.3790 C   0  0  0  0  0  0  0  0  0  0  0  0
  191.9620  176.4480  147.1630 C   0  0  0  0  0  2  0  0  0  0  0  0
  194.5830  170.1060  146.2480 N   0  0  0  0  0  2  0  0  0  0  0  0
  189.6090  177.4340  146.8390 C   0  0  0  0  0  0  0  0  0  0  0  0
  193.7580  173.0990  144.1430 C   0  0  1  0  0  3  0  0  0  0  0  0
  190.2290  173.6600  141.9960 C   0  0  0  0  0  0  0  0  0  0  0  0
  193.4220  171.0390  142.9700 C   0  0  0  0  0  2  0  0  0  0  0  0
  192.6500  174.4020  145.9500 O   0  0  0  0  0  0  0  0  0  0  0  0
  190.4680  174.4040  143.0290 O   0  0  0  0  0  0  0  0  0  0  0  0
  194.2070  170.8470  145.2610 C   0  0  0  0  0  0  0  0  0  0  0  0
  189.3860  175.0920  143.2950 C   0  0  0  0  0  0  0  0  0  0  0  0
  193.8950  176.3060  145.6150 N   0  0  0  0  0  2  0  0  0  0  0  0
  192.8000  172.3130  143.3260 N   0  0  2  0  0  0  0  0  0  0  0  0
  189.3640  175.9830  144.4540 C   0  0  0  0  0  0  0  0  0  0  0  0
  194.0750  175.5730  144.5840 C   0  0  1  0  0  3  0  0  0  0  0  0
  188.1920  173.2390  140.5030 C   0  0  0  0  0  2  0  0  0  0  0  0
  188.2340  174.0300  139.3550 O   0  0  0  0  0  0  0  0  0  0  0  0
  188.5760  173.1480  138.3290 C   0  0  0  0  0  2  0  0  0  0  0  0
  190.8660  173.7800  138.1170 O   0  0  0  0  0  1  0  0  0  0  0  0
  189.6420  173.7730  137.4480 C   0  0  0  0  0  2  0  0  0  0  0  0
  1 21  1  1  0  0  0
  2 17  1  0  0  0  0
  4 23  1  0  0  0  0
  5  2  2  0  0  0  0
  6 14  1  0  0  0  0
  7 24  2  0  0  0  0
  8 15  1  6  0  0  0
  9 19  1  0  0  0  0
  9 13  1  0  0  0  0
 12 19  2  0  0  0  0
 12  7  1  0  0  0  0
 14 17  2  0  0  0  0
 14 15  1  0  0  0  0
 17 11  1  0  0  0  0
 18  1  1  0  0  0  0
 18 10  1  1  0  0  0
 19 22  1  0  0  0  0
 20 26  1  0  0  0  0
 20  4  1  0  0  0  0
 21  8  1  0  0  0  0
 22 24  1  0  0  0  0
 23 10  1  0  0  0  0
 23 16  2  0  0  0  0
 24 27  1  0  0  0  0
 25  8  1  0  0  0  0
 26 13  1  6  0  0  0
 26 18  1  0  0  0  0
 27  5  1  0  0  0  0
 27  6  2  0  0  0  0
 28  3  1  6  0  0  0
 28  1  1  0  0  0  0
 28 25  1  0  0  0  0
 29 12  1  0  0  0  0
 30 29  1  0  0  0  0
 31 30  1  0  0  0  0
 33 32  1  0  0  0  0
 33 31  1  0  0  0  0
M  END
>  <MODEL>
7

>  <REMARK>
 VINA RESULT:      -6.6      4.487      6.208
  Name = 
  4 active torsions:
  status: ('A' for Active; 'I' for Inactive)
    1  A    between atoms: C_8  and  C_17
    2  A    between atoms: C_8  and  O_19
    3  A    between atoms: C_14  and  C_33
    4  A    between atoms: O_19  and  C_33
                            x       y       z     vdW  Elec       q    Type
                         _______ _______ _______ _____ _____    ______ ____

>  <TORSDO>
F 4

$$$$
=
 OpenBabel11062418563D

 33 37  0  0  1  0  0  0  0  0999 V2000
  189.7720  175.6170  143.0440 C   0  0  1  0  0  3  0  0  0  0  0  0
  191.2880  172.0350  138.7250 C   0  0  0  0  0  3  0  0  0  0  0  0
  188.9460  178.2010  142.0590 Cl  0  0  0  0  0  0  0  0  0  0  0  0
  190.7750  175.5310  147.1500 O   0  0  0  0  0  0  0  0  0  0  0  0
  192.3690  172.6940  139.3430 C   0  0  0  0  0  3  0  0  0  0  0  0
  190.8020  173.7840  140.7960 C   0  0  0  0  0  3  0  0  0  0  0  0
  194.4410  174.2140  141.1130 N   0  0  0  0  0  0  0  0  0  0  0  0
  188.3750  174.4010  141.8830 N   0  0  1  0  0  0  0  0  0  0  0  0
  193.6590  176.4160  143.9850 C   0  0  0  0  0  2  0  0  0  0  0  0
  188.9560  175.4450  145.4320 C   0  0  0  0  0  2  0  0  0  0  0  0
  188.9420  171.5820  138.5810 F   0  0  0  0  0  0  0  0  0  0  0  0
  194.8440  175.0200  142.1250 C   0  0  0  0  0  0  0  0  0  0  0  0
  192.2170  176.9230  144.1710 C   0  0  0  0  0  2  0  0  0  0  0  0
  189.7210  173.1430  140.2260 C   0  0  0  0  0  0  0  0  0  0  0  0
  188.3580  173.3520  140.8470 C   0  0  0  0  0  2  0  0  0  0  0  0
  188.7420  174.5420  147.6560 N   0  0  0  0  0  2  0  0  0  0  0  0
  189.9650  172.2510  139.1680 C   0  0  0  0  0  0  0  0  0  0  0  0
  189.9820  176.1200  144.4880 C   0  0  1  0  0  3  0  0  0  0  0  0
  193.7410  175.5250  142.7880 C   0  0  0  0  0  0  0  0  0  0  0  0
  191.5220  176.3850  146.3020 C   0  0  0  0  0  2  0  0  0  0  0  0
  189.2090  174.3110  142.9650 O   0  0  0  0  0  0  0  0  0  0  0  0
  192.6940  175.0560  142.1890 O   0  0  0  0  0  0  0  0  0  0  0  0
  189.4830  175.1650  146.8030 C   0  0  0  0  0  0  0  0  0  0  0  0
  193.0940  174.2870  141.2080 C   0  0  0  0  0  0  0  0  0  0  0  0
  188.0920  175.7210  141.5330 N   0  0  0  0  0  2  0  0  0  0  0  0
  191.3960  175.9570  144.9100 N   0  0  2  0  0  0  0  0  0  0  0  0
  192.1050  173.5830  140.3920 C   0  0  0  0  0  0  0  0  0  0  0  0
  188.8440  176.4620  142.2510 C   0  0  1  0  0  3  0  0  0  0  0  0
  196.2690  175.2290  142.5050 C   0  0  0  0  0  2  0  0  0  0  0  0
  196.7280  174.1250  143.2250 O   0  0  0  0  0  0  0  0  0  0  0  0
  197.0960  174.6410  144.4680 C   0  0  0  0  0  2  0  0  0  0  0  0
  197.1910  173.4170  146.5120 O   0  0  0  0  0  1  0  0  0  0  0  0
  196.3140  173.9450  145.5660 C   0  0  0  0  0  2  0  0  0  0  0  0
  1 21  1  1  0  0  0
  1 18  1  0  0  0  0
  2 17  2  0  0  0  0
  2  5  1  0  0  0  0
  5 27  2  0  0  0  0
  7 24  2  0  0  0  0
  7 12  1  0  0  0  0
  8 15  1  6  0  0  0
  8 21  1  0  0  0  0
  9 13  1  0  0  0  0
 10 23  1  0  0  0  0
 11 17  1  0  0  0  0
 12 29  1  0  0  0  0
 12 19  2  0  0  0  0
 14  6  2  0  0  0  0
 14 15  1  0  0  0  0
 17 14  1  0  0  0  0
 18 26  1  0  0  0  0
 18 10  1  1  0  0  0
 19  9  1  0  0  0  0
 20  4  1  0  0  0  0
 22 19  1  0  0  0  0
 23  4  1  0  0  0  0
 23 16  2  0  0  0  0
 24 22  1  0  0  0  0
 25  8  1  0  0  0  0
 25 28  1  0  0  0  0
 26 13  1  6  0  0  0
 26 20  1  0  0  0  0
 27  6  1  0  0  0  0
 27 24  1  0  0  0  0
 28  3  1  6  0  0  0
 28  1  1  0  0  0  0
 29 30  1  0  0  0  0
 30 31  1  0  0  0  0
 31 33  1  0  0  0  0
 33 32  1  0  0  0  0
M  END
>  <MODEL>
8

>  <REMARK>
 VINA RESULT:      -6.6      4.913      9.488
  Name = 
  4 active torsions:
  status: ('A' for Active; 'I' for Inactive)
    1  A    between atoms: C_8  and  C_17
    2  A    between atoms: C_8  and  O_19
    3  A    between atoms: C_14  and  C_33
    4  A    between atoms: O_19  and  C_33
                            x       y       z     vdW  Elec       q    Type
                         _______ _______ _______ _____ _____    ______ ____

>  <TORSDO>
F 4

$$$$
=
 OpenBabel11062418563D

 33 37  0  0  1  0  0  0  0  0999 V2000
  190.2670  173.5620  141.2410 C   0  0  1  0  0  3  0  0  0  0  0  0
  188.6270  177.5210  145.1690 C   0  0  0  0  0  3  0  0  0  0  0  0
  190.0700  170.8750  142.2750 Cl  0  0  0  0  0  0  0  0  0  0  0  0
  192.7020  173.9590  137.8080 O   0  0  0  0  0  0  0  0  0  0  0  0
  190.0190  177.3150  145.0930 C   0  0  0  0  0  3  0  0  0  0  0  0
  189.6300  175.6850  143.3760 C   0  0  0  0  0  3  0  0  0  0  0  0
  193.0050  176.6740  144.4530 N   0  0  0  0  0  0  0  0  0  0  0  0
  188.2010  174.1700  141.6110 N   0  0  1  0  0  0  0  0  0  0  0  0
  194.2260  174.2950  141.8920 C   0  0  0  0  0  2  0  0  0  0  0  0
  190.4480  173.3710  138.7260 C   0  0  0  0  0  2  0  0  0  0  0  0
  186.4140  177.0450  144.3900 F   0  0  0  0  0  0  0  0  0  0  0  0
  194.0250  176.0670  143.7970 C   0  0  0  0  0  0  0  0  0  0  0  0
  193.2450  173.2730  141.2900 C   0  0  0  0  0  2  0  0  0  0  0  0
  188.2630  175.8740  143.4100 C   0  0  0  0  0  0  0  0  0  0  0  0
  187.4170  175.1500  142.3870 C   0  0  0  0  0  2  0  0  0  0  0  0
  190.8250  174.0880  136.4550 N   0  0  0  0  0  2  0  0  0  0  0  0
  187.7480  176.8080  144.3240 C   0  0  0  0  0  0  0  0  0  0  0  0
  191.1870  173.1550  140.0700 C   0  0  1  0  0  3  0  0  0  0  0  0
  193.5180  175.1690  142.8770 C   0  0  0  0  0  0  0  0  0  0  0  0
  193.3020  173.4700  138.9930 C   0  0  0  0  0  2  0  0  0  0  0  0
  189.3050  174.5550  140.9000 O   0  0  0  0  0  0  0  0  0  0  0  0
  192.2290  175.2120  142.9770 O   0  0  0  0  0  0  0  0  0  0  0  0
  191.3370  173.8090  137.6060 C   0  0  0  0  0  0  0  0  0  0  0  0
  191.9200  176.0910  143.8970 C   0  0  0  0  0  0  0  0  0  0  0  0
  188.2780  172.8490  142.0490 N   0  0  0  0  0  2  0  0  0  0  0  0
  192.5010  173.8400  140.1590 N   0  0  2  0  0  0  0  0  0  0  0  0
  190.5130  176.3770  144.1790 C   0  0  0  0  0  0  0  0  0  0  0  0
  189.4580  172.4390  141.7780 C   0  0  1  0  0  3  0  0  0  0  0  0
  195.4610  176.4130  143.9900 C   0  0  0  0  0  2  0  0  0  0  0  0
  196.1010  175.3850  144.6810 O   0  0  0  0  0  0  0  0  0  0  0  0
  197.2020  175.0570  143.8890 C   0  0  0  0  0  2  0  0  0  0  0  0
  197.9410  175.6630  141.7040 O   0  0  0  0  0  1  0  0  0  0  0  0
  197.4900  176.1860  142.9170 C   0  0  0  0  0  2  0  0  0  0  0  0
  1 21  1  6  0  0  0
  1 28  1  0  0  0  0
  4 20  1  0  0  0  0
  5  2  1  0  0  0  0
  6 14  2  0  0  0  0
  6 27  1  0  0  0  0
  8 25  1  0  0  0  0
  8 15  1  1  0  0  0
  9 19  1  0  0  0  0
 12 29  1  0  0  0  0
 12  7  1  0  0  0  0
 13  9  1  0  0  0  0
 14 17  1  0  0  0  0
 15 14  1  0  0  0  0
 16 23  2  0  0  0  0
 17 11  1  0  0  0  0
 17  2  2  0  0  0  0
 18 10  1  6  0  0  0
 18 26  1  0  0  0  0
 18  1  1  0  0  0  0
 19 22  1  0  0  0  0
 19 12  2  0  0  0  0
 21  8  1  0  0  0  0
 22 24  1  0  0  0  0
 23  4  1  0  0  0  0
 23 10  1  0  0  0  0
 24 27  1  0  0  0  0
 24  7  2  0  0  0  0
 26 20  1  6  0  0  0
 26 13  1  0  0  0  0
 27  5  2  0  0  0  0
 28 25  1  0  0  0  0
 28  3  1  1  0  0  0
 29 30  1  0  0  0  0
 31 30  1  0  0  0  0
 32 33  1  0  0  0  0
 33 31  1  0  0  0  0
M  END
>  <MODEL>
9

>  <REMARK>
 VINA RESULT:      -6.5      4.488      8.338
  Name = 
  4 active torsions:
  status: ('A' for Active; 'I' for Inactive)
    1  A    between atoms: C_8  and  C_17
    2  A    between atoms: C_8  and  O_19
    3  A    between atoms: C_14  and  C_33
    4  A    between atoms: O_19  and  C_33
                            x       y       z     vdW  Elec       q    Type
                         _______ _______ _______ _____ _____    ______ ____

>  <TORSDO>
F 4

$$$$
