=
 OpenBabel11062423063D

 57 63  0  0  1  0  0  0  0  0999 V2000
  192.2770  172.9440  143.6190 C   0  0  0  0  0  3  0  0  0  0  0  0
  189.0460  174.2050  146.6780 C   0  0  0  0  0  2  0  0  0  0  0  0
  191.7870  176.6350  142.9570 C   0  0  0  0  0  1  0  0  0  0  0  0
  191.2210  174.8590  145.6860 C   0  0  2  0  0  3  0  0  0  0  0  0
  191.2130  172.0450  144.2180 C   0  0  1  0  0  3  0  0  0  0  0  0
  189.1160  175.7110  147.0390 C   0  0  0  0  0  2  0  0  0  0  0  0
  189.0700  171.8270  145.3460 F   0  0  0  0  0  0  0  0  0  0  0  0
  190.5730  175.9560  144.9520 N   0  0  1  0  0  0  0  0  0  0  0  0
  190.1630  172.6340  145.1530 C   0  0  1  0  0  3  0  0  0  0  0  0
  192.6910  174.7390  145.3770 C   0  0  2  0  0  3  0  0  0  0  0  0
  192.9480  176.2380  145.1620 C   0  0  2  0  0  3  0  0  0  0  0  0
  189.5710  176.6020  145.8440 C   0  0  1  0  0  3  0  0  0  0  0  0
  192.9150  174.0220  144.0920 C   0  0  0  0  0  3  0  0  0  0  0  0
  191.6990  176.8120  144.4790 C   0  0  1  0  0  0  0  0  0  0  0  0
  190.2700  173.7330  145.9190 C   0  0  2  0  0  3  0  0  0  0  0  0
  185.7290  177.2340  143.0440 C   0  0  0  0  0  2  0  0  0  0  0  0
  187.1840  176.7960  142.9160 C   0  0  1  0  0  3  0  0  0  0  0  0
  187.8320  176.0630  144.0900 C   0  0  0  0  0  2  0  0  0  0  0  0
  187.1940  177.6160  146.0440 C   0  0  0  0  0  2  0  0  0  0  0  0
  185.6620  178.3140  144.0990 C   0  0  0  0  0  2  0  0  0  0  0  0
  185.7600  177.6820  145.4830 C   0  0  2  0  0  3  0  0  0  0  0  0
  188.3080  177.1170  145.1100 C   0  0  1  0  0  3  0  0  0  0  0  0
  184.8840  178.4890  146.4010 C   0  0  0  0  0  3  0  0  0  0  0  0
  185.3360  179.2610  147.2260 O   0  0  0  0  0  0  0  0  0  0  0  0
  186.9600  177.3870  140.5210 C   0  0  0  0  0  1  0  0  0  0  0  0
  187.8840  176.7760  141.5760 C   0  0  2  0  0  3  0  0  0  0  0  0
  188.3510  175.3660  141.2020 C   0  0  0  0  0  2  0  0  0  0  0  0
  188.1380  175.1210  139.8410 O   0  0  0  0  0  1  0  0  0  0  0  0
  194.3410  176.8090  144.8360 C   0  0  1  0  0  3  0  0  0  0  0  0
  194.6030  177.8740  145.7120 O   0  0  0  0  0  1  0  0  0  0  0  0
  195.4920  175.8120  144.8400 C   0  0  0  0  0  2  0  0  0  0  0  0
  194.5440  174.6960  139.0540 C   0  0  2  0  0  3  0  0  0  0  0  0
  196.7890  171.3400  134.6380 C   0  0  0  0  0  2  0  0  0  0  0  0
  195.4970  174.6820  141.3820 C   0  0  0  0  0  0  0  0  0  0  0  0
  197.9410  172.3330  134.7920 C   0  0  0  0  0  2  0  0  0  0  0  0
  196.3420  172.4610  142.2510 N   0  0  0  0  0  2  0  0  0  0  0  0
  197.6980  173.1200  136.0680 C   0  0  0  0  0  2  0  0  0  0  0  0
  195.1060  175.5390  140.1990 C   0  0  0  0  0  2  0  0  0  0  0  0
  195.6840  171.7690  135.5950 C   0  0  0  0  0  2  0  0  0  0  0  0
  196.3030  172.8260  136.4410 C   0  0  0  0  0  0  0  0  0  0  0  0
  195.8980  172.7740  139.9570 N   0  0  0  0  0  0  0  0  0  0  0  0
  195.4300  173.5070  138.8130 C   0  0  0  0  0  0  0  0  0  0  0  0
  195.8390  173.1590  137.6160 C   0  0  0  0  0  0  0  0  0  0  0  0
  195.9410  173.2830  141.1480 C   0  0  0  0  0  0  0  0  0  0  0  0
  195.8490  175.3010  142.4710 C   0  0  0  0  0  0  0  0  0  0  0  0
  196.2320  175.9370  143.5470 C   0  0  0  0  0  3  0  0  0  0  0  0
  194.4130  175.4860  137.9060 O   0  0  0  0  0  1  0  0  0  0  0  0
  195.4850  171.0670  144.5240 C   0  0  0  0  0  1  0  0  0  0  0  0
  197.9130  170.5720  142.3440 C   0  0  0  0  0  2  0  0  0  0  0  0
  195.6830  170.2570  143.2370 C   0  0  1  0  0  3  0  0  0  0  0  0
  196.4670  171.0080  142.1490 C   0  0  1  0  0  3  0  0  0  0  0  0
  196.5700  169.0960  143.5450 C   0  0  0  0  0  2  0  0  0  0  0  0
  197.7930  169.2690  143.0530 C   0  0  0  0  0  2  0  0  0  0  0  0
  190.5290  172.4540  142.1340 C   0  0  0  0  0  1  0  0  0  0  0  0
  190.5140  171.4880  143.1440 O   0  0  0  0  0  0  0  0  0  0  0  0
  191.5360  178.3240  144.7400 C   0  0  0  0  0  2  0  0  0  0  0  0
  191.1640  179.0220  143.5790 O   0  0  0  0  0  1  0  0  0  0  0  0
  1 13  2  0  0  0  0
  1  5  1  0  0  0  0
  2  6  1  0  0  0  0
  3 14  1  0  0  0  0
  4 15  1  0  0  0  0
  5  9  1  0  0  0  0
  8  4  1  0  0  0  0
  8 12  1  0  0  0  0
  9  7  1  0  0  0  0
  9 15  1  0  0  0  0
 10  4  1  0  0  0  0
 11 10  1  0  0  0  0
 12  6  1  0  0  0  0
 13 10  1  0  0  0  0
 14 56  1  0  0  0  0
 14  8  1  0  0  0  0
 14 11  1  0  0  0  0
 15  2  1  0  0  0  0
 16 20  1  0  0  0  0
 17 16  1  0  0  0  0
 17 18  1  0  0  0  0
 18 22  1  0  0  0  0
 20 21  1  0  0  0  0
 21 19  1  0  0  0  0
 21 23  1  0  0  0  0
 22 12  1  0  0  0  0
 22 19  1  0  0  0  0
 23 24  2  0  0  0  0
 25 26  1  0  0  0  0
 26 17  1  0  0  0  0
 27 26  1  0  0  0  0
 28 27  1  0  0  0  0
 29 31  1  0  0  0  0
 29 11  1  0  0  0  0
 29 30  1  0  0  0  0
 32 38  1  0  0  0  0
 33 35  1  0  0  0  0
 33 39  1  0  0  0  0
 34 45  2  0  0  0  0
 35 37  1  0  0  0  0
 37 40  1  0  0  0  0
 38 34  1  0  0  0  0
 39 40  1  0  0  0  0
 40 43  2  0  0  0  0
 41 44  2  0  0  0  0
 42 32  1  0  0  0  0
 42 41  1  0  0  0  0
 43 42  2  0  0  0  0
 44 34  1  0  0  0  0
 44 36  1  0  0  0  0
 45 46  2  0  0  0  0
 46 31  1  0  0  0  0
 47 32  1  0  0  0  0
 49 53  1  0  0  0  0
 50 52  1  0  0  0  0
 50 48  1  0  0  0  0
 51 36  1  0  0  0  0
 51 49  1  0  0  0  0
 51 50  1  0  0  0  0
 53 52  1  0  0  0  0
 54 55  1  0  0  0  0
 55  5  1  0  0  0  0
 57 56  1  0  0  0  0
M  END
>  <MODEL>
1

>  <REMARK>
 VINA RESULT:      -7.9      0.000      0.000
  Name = 
  10 active torsions:
  status: ('A' for Active; 'I' for Inactive)
    1  A    between atoms: C_5  and  C_51
    2  A    between atoms: N_9  and  C_43
    3  A    between atoms: C_10  and  C_26
    4  A    between atoms: C_10  and  C_39
    5  A    between atoms: C_13  and  C_20
    6  A    between atoms: C_17  and  O_45
    7  A    between atoms: C_20  and  C_22
    8  A    between atoms: C_26  and  C_53
    9  A    between atoms: C_46  and  C_55
   10  A    between atoms: C_47  and  C_54
                            x       y       z     vdW  Elec       q    Type
                         _______ _______ _______ _____ _____    ______ ____

>  <TORSDO>
F 10

$$$$
=
 OpenBabel11062423063D

 57 63  0  0  1  0  0  0  0  0999 V2000
  194.9470  174.4460  142.3530 C   0  0  0  0  0  3  0  0  0  0  0  0
  197.0050  174.0110  138.2330 C   0  0  0  0  0  2  0  0  0  0  0  0
  192.0730  173.9460  139.9460 C   0  0  0  0  0  1  0  0  0  0  0  0
  195.2460  173.0600  139.6980 C   0  0  2  0  0  3  0  0  0  0  0  0
  196.2880  175.0320  141.9550 C   0  0  1  0  0  3  0  0  0  0  0  0
  196.1550  173.2030  137.2190 C   0  0  0  0  0  2  0  0  0  0  0  0
  197.8160  175.7210  140.1940 F   0  0  0  0  0  0  0  0  0  0  0  0
  194.2000  173.6020  138.8190 N   0  0  1  0  0  0  0  0  0  0  0  0
  196.7920  174.8700  140.5260 C   0  0  1  0  0  3  0  0  0  0  0  0
  194.6850  172.3620  140.9110 C   0  0  2  0  0  3  0  0  0  0  0  0
  193.4140  171.8290  140.2340 C   0  0  2  0  0  3  0  0  0  0  0  0
  194.6220  173.4190  137.4020 C   0  0  1  0  0  3  0  0  0  0  0  0
  194.2980  173.3410  141.9640 C   0  0  0  0  0  3  0  0  0  0  0  0
  192.9510  172.9040  139.2410 C   0  0  1  0  0  0  0  0  0  0  0  0
  196.4770  173.9010  139.6500 C   0  0  2  0  0  3  0  0  0  0  0  0
  192.4490  177.0990  135.2270 C   0  0  0  0  0  2  0  0  0  0  0  0
  192.0800  175.7760  135.8890 C   0  0  1  0  0  3  0  0  0  0  0  0
  192.9420  175.2740  137.0470 C   0  0  0  0  0  2  0  0  0  0  0  0
  195.3000  175.5160  136.0400 C   0  0  0  0  0  2  0  0  0  0  0  0
  193.7680  176.9080  134.5130 C   0  0  0  0  0  2  0  0  0  0  0  0
  194.9050  176.9160  135.5290 C   0  0  2  0  0  3  0  0  0  0  0  0
  194.1720  174.5580  136.4550 C   0  0  1  0  0  3  0  0  0  0  0  0
  196.0830  177.5750  134.8690 C   0  0  0  0  0  3  0  0  0  0  0  0
  196.0690  178.7390  134.5150 O   0  0  0  0  0  0  0  0  0  0  0  0
  190.9380  173.8080  134.9130 C   0  0  0  0  0  1  0  0  0  0  0  0
  190.7340  175.1290  135.6540 C   0  0  2  0  0  3  0  0  0  0  0  0
  189.7740  176.0720  134.9220 C   0  0  0  0  0  2  0  0  0  0  0  0
  188.5630  176.1760  135.6170 O   0  0  0  0  0  1  0  0  0  0  0  0
  192.3800  170.9560  140.9690 C   0  0  1  0  0  3  0  0  0  0  0  0
  192.4320  169.6590  140.4380 O   0  0  0  0  0  1  0  0  0  0  0  0
  192.4910  170.9210  142.4880 C   0  0  0  0  0  2  0  0  0  0  0  0
  188.3600  175.2240  142.2720 C   0  0  2  0  0  3  0  0  0  0  0  0
  185.5660  179.0410  145.9370 C   0  0  0  0  0  2  0  0  0  0  0  0
  190.0820  173.5810  143.0870 C   0  0  0  0  0  0  0  0  0  0  0  0
  184.9320  177.7370  146.4220 C   0  0  0  0  0  2  0  0  0  0  0  0
  191.6140  174.3670  144.9410 N   0  0  0  0  0  2  0  0  0  0  0  0
  185.7140  176.5910  145.8050 C   0  0  0  0  0  2  0  0  0  0  0  0
  188.7900  173.7570  142.3190 C   0  0  0  0  0  2  0  0  0  0  0  0
  186.4750  178.6990  144.7620 C   0  0  0  0  0  2  0  0  0  0  0  0
  186.5380  177.2110  144.7520 C   0  0  0  0  0  0  0  0  0  0  0  0
  189.6470  175.5530  144.4110 N   0  0  0  0  0  0  0  0  0  0  0  0
  188.4660  175.8310  143.6410 C   0  0  0  0  0  0  0  0  0  0  0  0
  187.5040  176.5450  144.1760 C   0  0  0  0  0  0  0  0  0  0  0  0
  190.4090  174.5300  144.1830 C   0  0  0  0  0  0  0  0  0  0  0  0
  190.6250  172.3990  143.0680 C   0  0  0  0  0  0  0  0  0  0  0  0
  191.1400  171.1970  143.0680 C   0  0  0  0  0  3  0  0  0  0  0  0
  187.0590  175.3170  141.7630 O   0  0  0  0  0  1  0  0  0  0  0  0
  192.8770  176.4350  143.5370 C   0  0  0  0  0  1  0  0  0  0  0  0
  193.4670  174.9770  146.4370 C   0  0  0  0  0  2  0  0  0  0  0  0
  192.5320  176.6940  145.0080 C   0  0  1  0  0  3  0  0  0  0  0  0
  192.1640  175.4230  145.7890 C   0  0  1  0  0  3  0  0  0  0  0  0
  193.7660  177.1660  145.7020 C   0  0  0  0  0  2  0  0  0  0  0  0
  194.2770  176.2230  146.4880 C   0  0  0  0  0  2  0  0  0  0  0  0
  197.1750  176.6930  143.1510 C   0  0  0  0  0  1  0  0  0  0  0  0
  196.2030  176.4080  142.1880 O   0  0  0  0  0  0  0  0  0  0  0  0
  192.1030  172.3120  138.0960 C   0  0  0  0  0  2  0  0  0  0  0  0
  190.7370  172.6000  138.2490 O   0  0  0  0  0  1  0  0  0  0  0  0
  2 15  1  0  0  0  0
  4 10  1  0  0  0  0
  5 55  1  0  0  0  0
  5  1  1  0  0  0  0
  6 12  1  0  0  0  0
  6  2  1  0  0  0  0
  7  9  1  0  0  0  0
  8 14  1  0  0  0  0
  8  4  1  0  0  0  0
  9  5  1  0  0  0  0
 10 13  1  0  0  0  0
 11 10  1  0  0  0  0
 11 29  1  0  0  0  0
 12  8  1  0  0  0  0
 13  1  2  0  0  0  0
 14  3  1  0  0  0  0
 14 11  1  0  0  0  0
 15  4  1  0  0  0  0
 15  9  1  0  0  0  0
 16 17  1  0  0  0  0
 17 18  1  0  0  0  0
 19 22  1  0  0  0  0
 20 16  1  0  0  0  0
 20 21  1  0  0  0  0
 21 19  1  0  0  0  0
 22 18  1  0  0  0  0
 22 12  1  0  0  0  0
 23 21  1  0  0  0  0
 24 23  2  0  0  0  0
 25 26  1  0  0  0  0
 26 17  1  0  0  0  0
 27 28  1  0  0  0  0
 27 26  1  0  0  0  0
 29 31  1  0  0  0  0
 30 29  1  0  0  0  0
 31 46  1  0  0  0  0
 32 38  1  0  0  0  0
 32 42  1  0  0  0  0
 33 35  1  0  0  0  0
 34 44  1  0  0  0  0
 36 51  1  0  0  0  0
 37 35  1  0  0  0  0
 38 34  1  0  0  0  0
 39 33  1  0  0  0  0
 40 39  1  0  0  0  0
 40 37  1  0  0  0  0
 42 43  2  0  0  0  0
 42 41  1  0  0  0  0
 43 40  2  0  0  0  0
 44 41  2  0  0  0  0
 44 36  1  0  0  0  0
 45 34  2  0  0  0  0
 46 45  2  0  0  0  0
 47 32  1  0  0  0  0
 48 50  1  0  0  0  0
 49 53  1  0  0  0  0
 50 52  1  0  0  0  0
 50 51  1  0  0  0  0
 51 49  1  0  0  0  0
 52 53  1  0  0  0  0
 55 54  1  0  0  0  0
 56 57  1  0  0  0  0
 56 14  1  0  0  0  0
M  END
>  <MODEL>
2

>  <REMARK>
 VINA RESULT:      -7.0      3.090      9.631
  Name = 
  10 active torsions:
  status: ('A' for Active; 'I' for Inactive)
    1  A    between atoms: C_5  and  C_51
    2  A    between atoms: N_9  and  C_43
    3  A    between atoms: C_10  and  C_26
    4  A    between atoms: C_10  and  C_39
    5  A    between atoms: C_13  and  C_20
    6  A    between atoms: C_17  and  O_45
    7  A    between atoms: C_20  and  C_22
    8  A    between atoms: C_26  and  C_53
    9  A    between atoms: C_46  and  C_55
   10  A    between atoms: C_47  and  C_54
                            x       y       z     vdW  Elec       q    Type
                         _______ _______ _______ _____ _____    ______ ____

>  <TORSDO>
F 10

$$$$
=
 OpenBabel11062423063D

 57 63  0  0  1  0  0  0  0  0999 V2000
  194.4880  170.8390  143.5130 C   0  0  0  0  0  3  0  0  0  0  0  0
  192.9360  172.5630  139.5110 C   0  0  0  0  0  2  0  0  0  0  0  0
  197.1650  173.3040  142.4830 C   0  0  0  0  0  1  0  0  0  0  0  0
  193.9610  173.1710  141.6850 C   0  0  2  0  0  3  0  0  0  0  0  0
  193.5650  170.1390  142.5350 C   0  0  1  0  0  3  0  0  0  0  0  0
  193.4920  173.9790  139.2110 C   0  0  0  0  0  2  0  0  0  0  0  0
  192.6750  169.9600  140.2790 F   0  0  0  0  0  0  0  0  0  0  0  0
  195.2340  173.4780  141.0150 N   0  0  1  0  0  0  0  0  0  0  0  0
  193.2110  170.8100  141.2130 C   0  0  1  0  0  3  0  0  0  0  0  0
  194.0380  173.3240  143.1820 C   0  0  2  0  0  3  0  0  0  0  0  0
  195.0470  174.4810  143.1880 C   0  0  2  0  0  3  0  0  0  0  0  0
  194.9440  174.1860  139.7380 C   0  0  1  0  0  3  0  0  0  0  0  0
  194.6670  172.1310  143.8140 C   0  0  0  0  0  3  0  0  0  0  0  0
  196.0250  174.2280  142.0320 C   0  0  1  0  0  0  0  0  0  0  0  0
  193.2000  172.1260  140.9380 C   0  0  2  0  0  3  0  0  0  0  0  0
  197.2830  172.3560  135.9720 C   0  0  0  0  0  2  0  0  0  0  0  0
  196.6170  171.8730  137.2560 C   0  0  1  0  0  3  0  0  0  0  0  0
  195.4100  172.6460  137.7880 C   0  0  0  0  0  2  0  0  0  0  0  0
  196.3080  175.0590  137.7140 C   0  0  0  0  0  2  0  0  0  0  0  0
  197.9300  173.6920  136.2600 C   0  0  0  0  0  2  0  0  0  0  0  0
  196.8610  174.7780  136.3030 C   0  0  2  0  0  3  0  0  0  0  0  0
  195.9310  173.8550  138.5920 C   0  0  1  0  0  3  0  0  0  0  0  0
  197.4760  176.0250  135.7320 C   0  0  0  0  0  3  0  0  0  0  0  0
  196.8210  177.0170  135.4690 O   0  0  0  0  0  0  0  0  0  0  0  0
  195.5820  169.7800  138.0810 C   0  0  0  0  0  1  0  0  0  0  0  0
  196.9050  170.5010  137.8220 C   0  0  2  0  0  3  0  0  0  0  0  0
  197.7870  170.5790  139.0720 C   0  0  0  0  0  2  0  0  0  0  0  0
  197.1130  170.0590  140.1830 O   0  0  0  0  0  1  0  0  0  0  0  0
  195.5370  175.1560  144.4830 C   0  0  1  0  0  3  0  0  0  0  0  0
  196.0460  176.4230  144.1610 O   0  0  0  0  0  1  0  0  0  0  0  0
  194.5200  175.2560  145.6130 C   0  0  0  0  0  2  0  0  0  0  0  0
  189.1270  177.2180  147.2550 C   0  0  2  0  0  3  0  0  0  0  0  0
  183.8570  178.6360  144.8000 C   0  0  0  0  0  2  0  0  0  0  0  0
  191.0860  176.4260  145.8890 C   0  0  0  0  0  0  0  0  0  0  0  0
  184.6910  179.8000  144.2640 C   0  0  0  0  0  2  0  0  0  0  0  0
  190.5640  174.9430  143.9060 N   0  0  0  0  0  2  0  0  0  0  0  0
  186.1500  179.4830  144.5430 C   0  0  0  0  0  2  0  0  0  0  0  0
  190.6020  177.4310  146.9110 C   0  0  0  0  0  2  0  0  0  0  0  0
  184.7570  177.8110  145.7130 C   0  0  0  0  0  2  0  0  0  0  0  0
  186.1240  178.3570  145.4940 C   0  0  0  0  0  0  0  0  0  0  0  0
  188.8650  176.1770  144.9770 N   0  0  0  0  0  0  0  0  0  0  0  0
  188.3300  177.0400  145.9940 C   0  0  0  0  0  0  0  0  0  0  0  0
  187.2110  177.6850  145.7670 C   0  0  0  0  0  0  0  0  0  0  0  0
  190.1220  175.8760  144.9000 C   0  0  0  0  0  0  0  0  0  0  0  0
  192.3610  176.4140  145.6290 C   0  0  0  0  0  0  0  0  0  0  0  0
  193.6390  176.4360  145.3540 C   0  0  0  0  0  3  0  0  0  0  0  0
  188.6610  178.2960  148.0150 O   0  0  0  0  0  1  0  0  0  0  0  0
  190.9110  172.1850  144.2500 C   0  0  0  0  0  1  0  0  0  0  0  0
  190.0620  174.0580  141.6690 C   0  0  0  0  0  2  0  0  0  0  0  0
  189.6090  172.6520  143.5880 C   0  0  1  0  0  3  0  0  0  0  0  0
  189.6400  174.1180  143.1300 C   0  0  1  0  0  3  0  0  0  0  0  0
  189.4410  171.9060  142.3060 C   0  0  0  0  0  2  0  0  0  0  0  0
  189.6880  172.6790  141.2530 C   0  0  0  0  0  2  0  0  0  0  0  0
  195.0500  168.6420  143.2620 C   0  0  0  0  0  1  0  0  0  0  0  0
  194.1790  168.9270  142.2070 O   0  0  0  0  0  0  0  0  0  0  0  0
  196.6830  175.5310  141.5310 C   0  0  0  0  0  2  0  0  0  0  0  0
  195.7310  176.5000  141.1760 O   0  0  0  0  0  1  0  0  0  0  0  0
  1 13  2  0  0  0  0
  2 15  1  0  0  0  0
  4 10  1  0  0  0  0
  5  1  1  0  0  0  0
  6  2  1  0  0  0  0
  6 12  1  0  0  0  0
  7  9  1  0  0  0  0
  8  4  1  0  0  0  0
  8 14  1  0  0  0  0
  9  5  1  0  0  0  0
 10 11  1  0  0  0  0
 10 13  1  0  0  0  0
 11 29  1  0  0  0  0
 12  8  1  0  0  0  0
 14  3  1  0  0  0  0
 14 11  1  0  0  0  0
 15  9  1  0  0  0  0
 15  4  1  0  0  0  0
 16 20  1  0  0  0  0
 16 17  1  0  0  0  0
 17 18  1  0  0  0  0
 17 26  1  0  0  0  0
 18 22  1  0  0  0  0
 19 22  1  0  0  0  0
 20 21  1  0  0  0  0
 21 19  1  0  0  0  0
 22 12  1  0  0  0  0
 23 21  1  0  0  0  0
 24 23  2  0  0  0  0
 26 25  1  0  0  0  0
 26 27  1  0  0  0  0
 27 28  1  0  0  0  0
 29 31  1  0  0  0  0
 30 29  1  0  0  0  0
 32 47  1  0  0  0  0
 33 39  1  0  0  0  0
 34 38  1  0  0  0  0
 35 37  1  0  0  0  0
 35 33  1  0  0  0  0
 36 44  1  0  0  0  0
 37 40  1  0  0  0  0
 38 32  1  0  0  0  0
 40 39  1  0  0  0  0
 40 43  2  0  0  0  0
 41 42  1  0  0  0  0
 42 32  1  0  0  0  0
 43 42  2  0  0  0  0
 44 41  2  0  0  0  0
 44 34  1  0  0  0  0
 45 34  2  0  0  0  0
 46 31  1  0  0  0  0
 46 45  2  0  0  0  0
 49 51  1  0  0  0  0
 50 48  1  0  0  0  0
 51 50  1  0  0  0  0
 51 36  1  0  0  0  0
 52 50  1  0  0  0  0
 53 49  1  0  0  0  0
 53 52  1  0  0  0  0
 55  5  1  0  0  0  0
 55 54  1  0  0  0  0
 56 14  1  0  0  0  0
 57 56  1  0  0  0  0
M  END
>  <MODEL>
3

>  <REMARK>
 VINA RESULT:      -6.8      2.478      9.779
  Name = 
  10 active torsions:
  status: ('A' for Active; 'I' for Inactive)
    1  A    between atoms: C_5  and  C_51
    2  A    between atoms: N_9  and  C_43
    3  A    between atoms: C_10  and  C_26
    4  A    between atoms: C_10  and  C_39
    5  A    between atoms: C_13  and  C_20
    6  A    between atoms: C_17  and  O_45
    7  A    between atoms: C_20  and  C_22
    8  A    between atoms: C_26  and  C_53
    9  A    between atoms: C_46  and  C_55
   10  A    between atoms: C_47  and  C_54
                            x       y       z     vdW  Elec       q    Type
                         _______ _______ _______ _____ _____    ______ ____

>  <TORSDO>
F 10

$$$$
=
 OpenBabel11062423063D

 57 63  0  0  1  0  0  0  0  0999 V2000
  194.6920  174.5480  137.1420 C   0  0  0  0  0  3  0  0  0  0  0  0
  196.5980  175.0380  141.3280 C   0  0  0  0  0  2  0  0  0  0  0  0
  193.4530  171.5370  139.0660 C   0  0  0  0  0  1  0  0  0  0  0  0
  194.4920  174.4820  140.1450 C   0  0  2  0  0  3  0  0  0  0  0  0
  195.9820  175.2790  137.4580 C   0  0  1  0  0  3  0  0  0  0  0  0
  195.7880  174.3280  142.4440 C   0  0  0  0  0  2  0  0  0  0  0  0
  197.8410  175.6530  138.9820 F   0  0  0  0  0  0  0  0  0  0  0  0
  194.6210  173.0740  140.5450 N   0  0  1  0  0  0  0  0  0  0  0  0
  196.5250  175.2790  138.8830 C   0  0  1  0  0  3  0  0  0  0  0  0
  193.2940  174.7310  139.2640 C   0  0  2  0  0  3  0  0  0  0  0  0
  192.3870  173.6670  139.8980 C   0  0  2  0  0  3  0  0  0  0  0  0
  195.0980  173.0180  141.9550 C   0  0  1  0  0  3  0  0  0  0  0  0
  193.5750  174.3480  137.8530 C   0  0  0  0  0  3  0  0  0  0  0  0
  193.2830  172.4770  140.2680 C   0  0  1  0  0  0  0  0  0  0  0  0
  195.8300  175.1320  140.0250 C   0  0  2  0  0  3  0  0  0  0  0  0
  197.3040  169.1380  143.7090 C   0  0  0  0  0  2  0  0  0  0  0  0
  196.7030  170.4460  144.2150 C   0  0  1  0  0  3  0  0  0  0  0  0
  195.5070  171.0370  143.4700 C   0  0  0  0  0  2  0  0  0  0  0  0
  196.3550  170.9450  141.0400 C   0  0  0  0  0  2  0  0  0  0  0  0
  197.9370  169.4090  142.3640 C   0  0  0  0  0  2  0  0  0  0  0  0
  196.8510  169.5090  141.2990 C   0  0  2  0  0  3  0  0  0  0  0  0
  196.0400  171.8270  142.2580 C   0  0  1  0  0  3  0  0  0  0  0  0
  197.4160  168.9230  140.0360 C   0  0  0  0  0  3  0  0  0  0  0  0
  196.7240  168.6510  139.0720 O   0  0  0  0  0  0  0  0  0  0  0  0
  196.7360  169.9170  146.6350 C   0  0  0  0  0  1  0  0  0  0  0  0
  197.0420  170.9860  145.5860 C   0  0  2  0  0  3  0  0  0  0  0  0
  196.3200  172.3090  145.8660 C   0  0  0  0  0  2  0  0  0  0  0  0
  197.2050  173.3860  145.7480 O   0  0  0  0  0  1  0  0  0  0  0  0
  190.9340  173.4310  139.4460 C   0  0  1  0  0  3  0  0  0  0  0  0
  190.8510  173.6700  138.0650 O   0  0  0  0  0  1  0  0  0  0  0  0
  190.3360  172.0750  139.7940 C   0  0  0  0  0  2  0  0  0  0  0  0
  187.2060  176.6720  141.9610 C   0  0  2  0  0  3  0  0  0  0  0  0
  185.6050  179.0080  147.2330 C   0  0  0  0  0  2  0  0  0  0  0  0
  188.6040  174.5890  141.7730 C   0  0  0  0  0  0  0  0  0  0  0  0
  184.7530  177.7400  147.2650 C   0  0  0  0  0  2  0  0  0  0  0  0
  190.4200  174.2790  143.5080 N   0  0  0  0  0  2  0  0  0  0  0  0
  185.2200  176.8460  146.1290 C   0  0  0  0  0  2  0  0  0  0  0  0
  187.3190  175.2710  141.3590 C   0  0  0  0  0  2  0  0  0  0  0  0
  186.3170  179.0460  145.8860 C   0  0  0  0  0  2  0  0  0  0  0  0
  186.0640  177.7090  145.2830 C   0  0  0  0  0  0  0  0  0  0  0  0
  188.7110  175.8730  143.8150 N   0  0  0  0  0  0  0  0  0  0  0  0
  187.5550  176.6300  143.4210 C   0  0  0  0  0  0  0  0  0  0  0  0
  186.8140  177.1980  144.3430 C   0  0  0  0  0  0  0  0  0  0  0  0
  189.2170  174.9310  143.0830 C   0  0  0  0  0  0  0  0  0  0  0  0
  188.8810  173.4520  141.2040 C   0  0  0  0  0  0  0  0  0  0  0  0
  189.1280  172.2950  140.6490 C   0  0  0  0  0  3  0  0  0  0  0  0
  185.9160  177.1730  141.7500 O   0  0  0  0  0  1  0  0  0  0  0  0
  192.4250  176.0600  142.7020 C   0  0  0  0  0  1  0  0  0  0  0  0
  192.2640  173.7380  145.0410 C   0  0  0  0  0  2  0  0  0  0  0  0
  192.0970  176.0030  144.1990 C   0  0  1  0  0  3  0  0  0  0  0  0
  191.2500  174.7850  144.5990 C   0  0  1  0  0  3  0  0  0  0  0  0
  193.3690  175.7860  144.9490 C   0  0  0  0  0  2  0  0  0  0  0  0
  193.4590  174.5430  145.4130 C   0  0  0  0  0  2  0  0  0  0  0  0
  197.4020  175.7000  135.7900 C   0  0  0  0  0  1  0  0  0  0  0  0
  196.9730  174.6960  136.6620 O   0  0  0  0  0  0  0  0  0  0  0  0
  192.6850  171.6310  141.4100 C   0  0  0  0  0  2  0  0  0  0  0  0
  192.8490  170.2530  141.1880 O   0  0  0  0  0  1  0  0  0  0  0  0
  1  5  1  0  0  0  0
  1 13  2  0  0  0  0
  2  6  1  0  0  0  0
  3 14  1  0  0  0  0
  4  8  1  0  0  0  0
  5  9  1  0  0  0  0
  8 12  1  0  0  0  0
  9  7  1  0  0  0  0
  9 15  1  0  0  0  0
 10 11  1  0  0  0  0
 10  4  1  0  0  0  0
 11 14  1  0  0  0  0
 12 22  1  0  0  0  0
 12  6  1  0  0  0  0
 13 10  1  0  0  0  0
 14  8  1  0  0  0  0
 14 56  1  0  0  0  0
 15  4  1  0  0  0  0
 15  2  1  0  0  0  0
 16 17  1  0  0  0  0
 17 26  1  0  0  0  0
 18 17  1  0  0  0  0
 19 21  1  0  0  0  0
 19 22  1  0  0  0  0
 20 16  1  0  0  0  0
 21 20  1  0  0  0  0
 22 18  1  0  0  0  0
 23 21  1  0  0  0  0
 24 23  2  0  0  0  0
 26 27  1  0  0  0  0
 26 25  1  0  0  0  0
 28 27  1  0  0  0  0
 29 31  1  0  0  0  0
 29 11  1  0  0  0  0
 30 29  1  0  0  0  0
 31 46  1  0  0  0  0
 32 42  1  0  0  0  0
 33 35  1  0  0  0  0
 34 44  1  0  0  0  0
 36 51  1  0  0  0  0
 37 35  1  0  0  0  0
 38 34  1  0  0  0  0
 38 32  1  0  0  0  0
 39 33  1  0  0  0  0
 40 39  1  0  0  0  0
 40 37  1  0  0  0  0
 42 41  1  0  0  0  0
 42 43  2  0  0  0  0
 43 40  2  0  0  0  0
 44 36  1  0  0  0  0
 44 41  2  0  0  0  0
 45 34  2  0  0  0  0
 46 45  2  0  0  0  0
 47 32  1  0  0  0  0
 48 50  1  0  0  0  0
 49 53  1  0  0  0  0
 50 51  1  0  0  0  0
 50 52  1  0  0  0  0
 51 49  1  0  0  0  0
 52 53  1  0  0  0  0
 54 55  1  0  0  0  0
 55  5  1  0  0  0  0
 57 56  1  0  0  0  0
M  END
>  <MODEL>
4

>  <REMARK>
 VINA RESULT:      -6.5      2.766     10.433
  Name = 
  10 active torsions:
  status: ('A' for Active; 'I' for Inactive)
    1  A    between atoms: C_5  and  C_51
    2  A    between atoms: N_9  and  C_43
    3  A    between atoms: C_10  and  C_26
    4  A    between atoms: C_10  and  C_39
    5  A    between atoms: C_13  and  C_20
    6  A    between atoms: C_17  and  O_45
    7  A    between atoms: C_20  and  C_22
    8  A    between atoms: C_26  and  C_53
    9  A    between atoms: C_46  and  C_55
   10  A    between atoms: C_47  and  C_54
                            x       y       z     vdW  Elec       q    Type
                         _______ _______ _______ _____ _____    ______ ____

>  <TORSDO>
F 10

$$$$
=
 OpenBabel11062423063D

 57 63  0  0  1  0  0  0  0  0999 V2000
  194.1720  174.6620  141.9900 C   0  0  0  0  0  3  0  0  0  0  0  0
  197.6500  171.9870  140.5260 C   0  0  0  0  0  2  0  0  0  0  0  0
  192.7060  172.7890  139.0490 C   0  0  0  0  0  1  0  0  0  0  0  0
  195.2250  172.0070  141.0400 C   0  0  2  0  0  3  0  0  0  0  0  0
  195.6520  174.9470  142.1550 C   0  0  1  0  0  3  0  0  0  0  0  0
  197.1600  170.7190  139.7790 C   0  0  0  0  0  2  0  0  0  0  0  0
  197.9410  174.5360  141.4460 F   0  0  0  0  0  0  0  0  0  0  0  0
  194.9060  171.9150  139.6070 N   0  0  1  0  0  0  0  0  0  0  0  0
  196.6790  174.0050  141.5400 C   0  0  1  0  0  3  0  0  0  0  0  0
  193.9960  172.1220  141.9050 C   0  0  2  0  0  3  0  0  0  0  0  0
  193.0800  171.2620  141.0230 C   0  0  2  0  0  3  0  0  0  0  0  0
  195.8520  170.9600  138.9660 C   0  0  1  0  0  3  0  0  0  0  0  0
  193.4790  173.5180  141.9230 C   0  0  0  0  0  3  0  0  0  0  0  0
  193.4590  171.5550  139.5640 C   0  0  1  0  0  0  0  0  0  0  0  0
  196.5290  172.7000  141.2560 C   0  0  2  0  0  3  0  0  0  0  0  0
  197.5700  172.9520  134.9560 C   0  0  0  0  0  2  0  0  0  0  0  0
  196.8320  173.3720  136.2230 C   0  0  1  0  0  3  0  0  0  0  0  0
  197.1070  172.6070  137.5170 C   0  0  0  0  0  2  0  0  0  0  0  0
  196.8520  170.1750  136.7090 C   0  0  0  0  0  2  0  0  0  0  0  0
  197.0730  171.5790  134.5640 C   0  0  0  0  0  2  0  0  0  0  0  0
  197.7030  170.5290  135.4730 C   0  0  2  0  0  3  0  0  0  0  0  0
  196.2400  171.3320  137.5140 C   0  0  1  0  0  3  0  0  0  0  0  0
  197.9330  169.3020  134.6360 C   0  0  0  0  0  3  0  0  0  0  0  0
  197.1270  168.3920  134.5720 O   0  0  0  0  0  0  0  0  0  0  0  0
  195.4910  174.8430  137.6970 C   0  0  0  0  0  1  0  0  0  0  0  0
  196.1020  174.6940  136.3030 C   0  0  2  0  0  3  0  0  0  0  0  0
  195.0620  174.8350  135.1870 C   0  0  0  0  0  2  0  0  0  0  0  0
  194.8820  176.1810  134.8500 O   0  0  0  0  0  1  0  0  0  0  0  0
  191.6190  170.9460  141.3940 C   0  0  1  0  0  3  0  0  0  0  0  0
  191.2740  169.7060  140.8330 O   0  0  0  0  0  1  0  0  0  0  0  0
  191.2840  170.9760  142.8790 C   0  0  0  0  0  2  0  0  0  0  0  0
  188.1290  175.8610  141.5330 C   0  0  2  0  0  3  0  0  0  0  0  0
  185.0090  180.1660  144.2800 C   0  0  0  0  0  2  0  0  0  0  0  0
  189.2530  173.9940  142.7900 C   0  0  0  0  0  0  0  0  0  0  0  0
  184.0640  178.9910  144.5290 C   0  0  0  0  0  2  0  0  0  0  0  0
  190.2710  174.5830  145.0300 N   0  0  0  0  0  2  0  0  0  0  0  0
  184.8040  177.7200  144.1490 C   0  0  0  0  0  2  0  0  0  0  0  0
  188.2910  174.3470  141.6770 C   0  0  0  0  0  2  0  0  0  0  0  0
  186.1590  179.6540  143.4210 C   0  0  0  0  0  2  0  0  0  0  0  0
  185.9900  178.1750  143.4000 C   0  0  0  0  0  0  0  0  0  0  0  0
  188.7600  176.0450  143.9640 N   0  0  0  0  0  0  0  0  0  0  0  0
  187.9190  176.4820  142.8840 C   0  0  0  0  0  0  0  0  0  0  0  0
  186.9650  177.3510  143.1240 C   0  0  0  0  0  0  0  0  0  0  0  0
  189.3860  174.9110  143.9520 C   0  0  0  0  0  0  0  0  0  0  0  0
  189.5850  172.7420  142.9090 C   0  0  0  0  0  0  0  0  0  0  0  0
  189.8820  171.4750  143.0380 C   0  0  0  0  0  3  0  0  0  0  0  0
  187.0680  176.1400  140.6630 O   0  0  0  0  0  1  0  0  0  0  0  0
  192.9020  174.2370  145.9250 C   0  0  0  0  0  1  0  0  0  0  0  0
  190.1230  175.2420  147.3930 C   0  0  0  0  0  2  0  0  0  0  0  0
  192.2250  175.5770  146.2370 C   0  0  1  0  0  3  0  0  0  0  0  0
  190.7030  175.5640  146.0240 C   0  0  1  0  0  3  0  0  0  0  0  0
  192.3530  175.8370  147.7020 C   0  0  0  0  0  2  0  0  0  0  0  0
  191.1990  175.6550  148.3350 C   0  0  0  0  0  2  0  0  0  0  0  0
  194.7380  176.4930  140.8320 C   0  0  0  0  0  1  0  0  0  0  0  0
  195.8790  176.2030  141.5850 O   0  0  0  0  0  0  0  0  0  0  0  0
  193.0950  170.3890  138.6230 C   0  0  0  0  0  2  0  0  0  0  0  0
  192.0320  170.7170  137.7640 O   0  0  0  0  0  1  0  0  0  0  0  0
  1  5  1  0  0  0  0
  2 15  1  0  0  0  0
  3 14  1  0  0  0  0
  4 15  1  0  0  0  0
  4 10  1  0  0  0  0
  6  2  1  0  0  0  0
  7  9  1  0  0  0  0
  8  4  1  0  0  0  0
  9  5  1  0  0  0  0
 10 13  1  0  0  0  0
 11 29  1  0  0  0  0
 11 10  1  0  0  0  0
 12  8  1  0  0  0  0
 12  6  1  0  0  0  0
 13  1  2  0  0  0  0
 14  8  1  0  0  0  0
 14 11  1  0  0  0  0
 15  9  1  0  0  0  0
 16 17  1  0  0  0  0
 17 26  1  0  0  0  0
 17 18  1  0  0  0  0
 19 22  1  0  0  0  0
 20 16  1  0  0  0  0
 20 21  1  0  0  0  0
 21 19  1  0  0  0  0
 22 18  1  0  0  0  0
 22 12  1  0  0  0  0
 23 21  1  0  0  0  0
 24 23  2  0  0  0  0
 26 25  1  0  0  0  0
 27 26  1  0  0  0  0
 28 27  1  0  0  0  0
 29 31  1  0  0  0  0
 30 29  1  0  0  0  0
 31 46  1  0  0  0  0
 32 38  1  0  0  0  0
 32 42  1  0  0  0  0
 33 35  1  0  0  0  0
 34 45  2  0  0  0  0
 34 44  1  0  0  0  0
 36 51  1  0  0  0  0
 37 35  1  0  0  0  0
 38 34  1  0  0  0  0
 39 33  1  0  0  0  0
 40 39  1  0  0  0  0
 40 37  1  0  0  0  0
 42 43  2  0  0  0  0
 42 41  1  0  0  0  0
 43 40  2  0  0  0  0
 44 41  2  0  0  0  0
 44 36  1  0  0  0  0
 45 46  2  0  0  0  0
 47 32  1  0  0  0  0
 48 50  1  0  0  0  0
 49 53  1  0  0  0  0
 50 52  1  0  0  0  0
 51 50  1  0  0  0  0
 51 49  1  0  0  0  0
 52 53  1  0  0  0  0
 54 55  1  0  0  0  0
 55  5  1  0  0  0  0
 56 14  1  0  0  0  0
 57 56  1  0  0  0  0
M  END
>  <MODEL>
5

>  <REMARK>
 VINA RESULT:      -6.2      2.736     10.630
  Name = 
  10 active torsions:
  status: ('A' for Active; 'I' for Inactive)
    1  A    between atoms: C_5  and  C_51
    2  A    between atoms: N_9  and  C_43
    3  A    between atoms: C_10  and  C_26
    4  A    between atoms: C_10  and  C_39
    5  A    between atoms: C_13  and  C_20
    6  A    between atoms: C_17  and  O_45
    7  A    between atoms: C_20  and  C_22
    8  A    between atoms: C_26  and  C_53
    9  A    between atoms: C_46  and  C_55
   10  A    between atoms: C_47  and  C_54
                            x       y       z     vdW  Elec       q    Type
                         _______ _______ _______ _____ _____    ______ ____

>  <TORSDO>
F 10

$$$$
=
 OpenBabel11062423063D

 57 63  0  0  1  0  0  0  0  0999 V2000
  192.2240  172.2170  143.5770 C   0  0  0  0  0  3  0  0  0  0  0  0
  188.8680  173.7330  146.3750 C   0  0  0  0  0  2  0  0  0  0  0  0
  191.8940  175.8810  142.7020 C   0  0  0  0  0  1  0  0  0  0  0  0
  191.1160  174.2690  145.4790 C   0  0  2  0  0  3  0  0  0  0  0  0
  191.0980  171.3840  144.1580 C   0  0  1  0  0  3  0  0  0  0  0  0
  188.9670  175.2540  146.6630 C   0  0  0  0  0  2  0  0  0  0  0  0
  188.8880  171.2890  145.1680 F   0  0  0  0  0  0  0  0  0  0  0  0
  190.5470  175.3450  144.6540 N   0  0  1  0  0  0  0  0  0  0  0  0
  190.0160  172.0520  144.9980 C   0  0  1  0  0  3  0  0  0  0  0  0
  192.5970  174.0890  145.2630 C   0  0  2  0  0  3  0  0  0  0  0  0
  192.9150  175.5650  144.9880 C   0  0  2  0  0  3  0  0  0  0  0  0
  189.5180  176.0670  145.4520 C   0  0  1  0  0  3  0  0  0  0  0  0
  192.8690  173.2980  144.0310 C   0  0  0  0  0  3  0  0  0  0  0  0
  191.7260  176.1410  144.2060 C   0  0  1  0  0  0  0  0  0  0  0  0
  190.1160  173.1860  145.7130 C   0  0  2  0  0  3  0  0  0  0  0  0
  185.9970  178.5980  143.4050 C   0  0  0  0  0  2  0  0  0  0  0  0
  186.5550  178.3250  144.7980 C   0  0  1  0  0  3  0  0  0  0  0  0
  188.0540  178.0640  144.9460 C   0  0  0  0  0  2  0  0  0  0  0  0
  188.4220  176.2900  143.1150 C   0  0  0  0  0  2  0  0  0  0  0  0
  186.1260  177.3280  142.5960 C   0  0  0  0  0  2  0  0  0  0  0  0
  187.5740  177.1490  142.1550 C   0  0  2  0  0  3  0  0  0  0  0  0
  188.3170  176.5800  144.6210 C   0  0  1  0  0  3  0  0  0  0  0  0
  187.5460  176.5210  140.7900 C   0  0  0  0  0  3  0  0  0  0  0  0
  186.8020  176.9050  139.9070 O   0  0  0  0  0  0  0  0  0  0  0  0
  186.0770  177.5800  147.1110 C   0  0  0  0  0  1  0  0  0  0  0  0
  185.7440  178.6190  146.0400 C   0  0  2  0  0  3  0  0  0  0  0  0
  184.2450  178.6880  145.7330 C   0  0  0  0  0  2  0  0  0  0  0  0
  183.4970  178.5850  146.9110 O   0  0  0  0  0  1  0  0  0  0  0  0
  194.3420  176.0770  144.7150 C   0  0  1  0  0  3  0  0  0  0  0  0
  194.7610  176.8380  145.8170 O   0  0  0  0  0  1  0  0  0  0  0  0
  195.3780  175.0160  144.3680 C   0  0  0  0  0  2  0  0  0  0  0  0
  192.9410  172.7100  139.4310 C   0  0  2  0  0  3  0  0  0  0  0  0
  194.4170  169.1210  134.8750 C   0  0  0  0  0  2  0  0  0  0  0  0
  194.5590  173.3040  141.2630 C   0  0  0  0  0  0  0  0  0  0  0  0
  195.2750  170.3320  134.5130 C   0  0  0  0  0  2  0  0  0  0  0  0
  196.1580  171.4870  142.0020 N   0  0  0  0  0  2  0  0  0  0  0  0
  195.2650  171.2740  135.7050 C   0  0  0  0  0  2  0  0  0  0  0  0
  193.6130  173.8400  140.2120 C   0  0  0  0  0  2  0  0  0  0  0  0
  193.6040  169.4900  136.1110 C   0  0  0  0  0  2  0  0  0  0  0  0
  194.1790  170.7830  136.5720 C   0  0  0  0  0  0  0  0  0  0  0  0
  194.9420  171.2880  139.9920 N   0  0  0  0  0  0  0  0  0  0  0  0
  193.9690  171.6960  139.0170 C   0  0  0  0  0  0  0  0  0  0  0  0
  194.0470  171.2250  137.7950 C   0  0  0  0  0  0  0  0  0  0  0  0
  195.2360  172.0010  141.0330 C   0  0  0  0  0  0  0  0  0  0  0  0
  195.0750  174.1670  142.0900 C   0  0  0  0  0  0  0  0  0  0  0  0
  195.6120  175.0500  142.8910 C   0  0  0  0  0  3  0  0  0  0  0  0
  192.2610  173.2390  138.3280 O   0  0  0  0  0  1  0  0  0  0  0  0
  194.7180  169.8340  143.7450 C   0  0  0  0  0  1  0  0  0  0  0  0
  197.8820  169.9340  142.8150 C   0  0  0  0  0  2  0  0  0  0  0  0
  195.5940  169.1480  142.6920 C   0  0  1  0  0  3  0  0  0  0  0  0
  196.5980  170.0930  142.0120 C   0  0  1  0  0  3  0  0  0  0  0  0
  196.4790  168.1660  143.3850 C   0  0  0  0  0  2  0  0  0  0  0  0
  197.7340  168.5970  143.4500 C   0  0  0  0  0  2  0  0  0  0  0  0
  189.9260  171.8470  142.3170 C   0  0  0  0  0  1  0  0  0  0  0  0
  190.4430  170.7920  143.0740 O   0  0  0  0  0  0  0  0  0  0  0  0
  191.5990  177.6680  144.3790 C   0  0  0  0  0  2  0  0  0  0  0  0
  191.1350  178.2950  143.2110 O   0  0  0  0  0  1  0  0  0  0  0  0
  1 13  2  0  0  0  0
  1  5  1  0  0  0  0
  2  6  1  0  0  0  0
  3 14  1  0  0  0  0
  4 15  1  0  0  0  0
  5  9  1  0  0  0  0
  8 12  1  0  0  0  0
  8  4  1  0  0  0  0
  9  7  1  0  0  0  0
  9 15  1  0  0  0  0
 10  4  1  0  0  0  0
 11 10  1  0  0  0  0
 12  6  1  0  0  0  0
 13 10  1  0  0  0  0
 14 56  1  0  0  0  0
 14  8  1  0  0  0  0
 14 11  1  0  0  0  0
 15  2  1  0  0  0  0
 16 17  1  0  0  0  0
 17 18  1  0  0  0  0
 17 26  1  0  0  0  0
 19 22  1  0  0  0  0
 20 16  1  0  0  0  0
 21 20  1  0  0  0  0
 21 19  1  0  0  0  0
 22 18  1  0  0  0  0
 22 12  1  0  0  0  0
 23 21  1  0  0  0  0
 24 23  2  0  0  0  0
 26 25  1  0  0  0  0
 27 26  1  0  0  0  0
 27 28  1  0  0  0  0
 29 11  1  0  0  0  0
 29 30  1  0  0  0  0
 31 29  1  0  0  0  0
 32 38  1  0  0  0  0
 33 39  1  0  0  0  0
 34 45  2  0  0  0  0
 35 33  1  0  0  0  0
 35 37  1  0  0  0  0
 36 51  1  0  0  0  0
 37 40  1  0  0  0  0
 38 34  1  0  0  0  0
 39 40  1  0  0  0  0
 40 43  2  0  0  0  0
 41 44  2  0  0  0  0
 42 32  1  0  0  0  0
 42 41  1  0  0  0  0
 43 42  2  0  0  0  0
 44 34  1  0  0  0  0
 44 36  1  0  0  0  0
 45 46  2  0  0  0  0
 46 31  1  0  0  0  0
 47 32  1  0  0  0  0
 49 53  1  0  0  0  0
 50 52  1  0  0  0  0
 50 48  1  0  0  0  0
 51 50  1  0  0  0  0
 51 49  1  0  0  0  0
 52 53  1  0  0  0  0
 54 55  1  0  0  0  0
 55  5  1  0  0  0  0
 57 56  1  0  0  0  0
M  END
>  <MODEL>
6

>  <REMARK>
 VINA RESULT:      -5.8      1.360      2.862
  Name = 
  10 active torsions:
  status: ('A' for Active; 'I' for Inactive)
    1  A    between atoms: C_5  and  C_51
    2  A    between atoms: N_9  and  C_43
    3  A    between atoms: C_10  and  C_26
    4  A    between atoms: C_10  and  C_39
    5  A    between atoms: C_13  and  C_20
    6  A    between atoms: C_17  and  O_45
    7  A    between atoms: C_20  and  C_22
    8  A    between atoms: C_26  and  C_53
    9  A    between atoms: C_46  and  C_55
   10  A    between atoms: C_47  and  C_54
                            x       y       z     vdW  Elec       q    Type
                         _______ _______ _______ _____ _____    ______ ____

>  <TORSDO>
F 10

$$$$
=
 OpenBabel11062423063D

 57 63  0  0  1  0  0  0  0  0999 V2000
  193.7500  176.4950  144.2300 C   0  0  0  0  0  3  0  0  0  0  0  0
  195.6860  172.5150  145.5730 C   0  0  0  0  0  2  0  0  0  0  0  0
  191.9330  173.8690  142.2050 C   0  0  0  0  0  1  0  0  0  0  0  0
  193.5200  173.6210  145.0920 C   0  0  2  0  0  3  0  0  0  0  0  0
  195.1560  176.3210  144.7700 C   0  0  1  0  0  3  0  0  0  0  0  0
  194.7450  171.2970  145.3870 C   0  0  0  0  0  2  0  0  0  0  0  0
  197.0410  174.8540  145.2270 F   0  0  0  0  0  0  0  0  0  0  0  0
  193.3690  172.8240  143.8660 N   0  0  1  0  0  0  0  0  0  0  0  0
  195.6780  174.9250  145.0900 C   0  0  1  0  0  3  0  0  0  0  0  0
  192.4010  174.6110  145.2860 C   0  0  2  0  0  3  0  0  0  0  0  0
  191.2980  173.7570  144.6450 C   0  0  2  0  0  3  0  0  0  0  0  0
  193.8160  171.4300  144.1430 C   0  0  1  0  0  3  0  0  0  0  0  0
  192.6100  175.8310  144.4590 C   0  0  0  0  0  3  0  0  0  0  0  0
  191.9420  173.0030  143.4720 C   0  0  1  0  0  0  0  0  0  0  0  0
  194.9600  173.8370  145.4180 C   0  0  2  0  0  3  0  0  0  0  0  0
  196.0040  170.3030  140.0270 C   0  0  0  0  0  2  0  0  0  0  0  0
  194.8160  171.1300  140.5070 C   0  0  1  0  0  3  0  0  0  0  0  0
  194.8940  171.7880  141.8850 C   0  0  0  0  0  2  0  0  0  0  0  0
  195.6590  169.7990  143.3320 C   0  0  0  0  0  2  0  0  0  0  0  0
  196.0970  169.0740  140.9030 C   0  0  0  0  0  2  0  0  0  0  0  0
  196.7020  169.4530  142.2500 C   0  0  2  0  0  3  0  0  0  0  0  0
  194.5040  170.7360  142.9420 C   0  0  1  0  0  3  0  0  0  0  0  0
  197.5430  168.2910  142.6990 C   0  0  0  0  0  3  0  0  0  0  0  0
  197.9410  168.1740  143.8430 O   0  0  0  0  0  0  0  0  0  0  0  0
  192.4570  170.7800  139.8400 C   0  0  0  0  0  1  0  0  0  0  0  0
  193.7310  171.5740  139.5530 C   0  0  2  0  0  3  0  0  0  0  0  0
  194.1810  171.4580  138.0930 C   0  0  0  0  0  2  0  0  0  0  0  0
  194.5410  172.7130  137.5880 O   0  0  0  0  0  1  0  0  0  0  0  0
  189.8300  174.2140  144.5580 C   0  0  1  0  0  3  0  0  0  0  0  0
  189.4440  174.7140  145.8110 O   0  0  0  0  0  1  0  0  0  0  0  0
  189.5030  175.2130  143.4560 C   0  0  0  0  0  2  0  0  0  0  0  0
  185.1720  178.0520  140.4880 C   0  0  2  0  0  3  0  0  0  0  0  0
  179.4780  179.7300  141.2450 C   0  0  0  0  0  2  0  0  0  0  0  0
  186.4600  176.8030  142.2510 C   0  0  0  0  0  0  0  0  0  0  0  0
  179.2710  178.2190  141.1460 C   0  0  0  0  0  2  0  0  0  0  0  0
  185.9980  177.4340  144.6570 N   0  0  0  0  0  2  0  0  0  0  0  0
  180.6380  177.5630  141.2290 C   0  0  0  0  0  2  0  0  0  0  0  0
  186.0140  176.8150  140.8060 C   0  0  0  0  0  2  0  0  0  0  0  0
  180.9610  180.0040  141.0200 C   0  0  0  0  0  2  0  0  0  0  0  0
  181.6030  178.6610  141.0420 C   0  0  0  0  0  0  0  0  0  0  0  0
  184.5490  178.1140  142.9270 N   0  0  0  0  0  0  0  0  0  0  0  0
  184.1370  178.2530  141.5570 C   0  0  0  0  0  0  0  0  0  0  0  0
  182.8740  178.4850  141.2860 C   0  0  0  0  0  0  0  0  0  0  0  0
  185.6080  177.4570  143.2780 C   0  0  0  0  0  0  0  0  0  0  0  0
  187.3050  175.8770  142.6010 C   0  0  0  0  0  0  0  0  0  0  0  0
  188.1270  174.9210  142.9450 C   0  0  0  0  0  3  0  0  0  0  0  0
  184.5900  177.9130  139.2220 O   0  0  0  0  0  1  0  0  0  0  0  0
  187.7160  178.0940  146.7690 C   0  0  0  0  0  1  0  0  0  0  0  0
  184.4670  177.5490  146.5770 C   0  0  0  0  0  2  0  0  0  0  0  0
  186.4490  178.9410  146.6030 C   0  0  1  0  0  3  0  0  0  0  0  0
  185.4080  178.3180  145.6600 C   0  0  1  0  0  3  0  0  0  0  0  0
  185.7330  178.9750  147.9130 C   0  0  0  0  0  2  0  0  0  0  0  0
  184.6440  178.2120  147.8970 C   0  0  0  0  0  2  0  0  0  0  0  0
  195.9590  175.9760  142.7170 C   0  0  0  0  0  1  0  0  0  0  0  0
  196.0190  176.8500  143.8050 O   0  0  0  0  0  0  0  0  0  0  0  0
  191.1810  171.7050  143.1270 C   0  0  0  0  0  2  0  0  0  0  0  0
  190.1610  171.9260  142.1880 O   0  0  0  0  0  1  0  0  0  0  0  0
  1 13  2  0  0  0  0
  1  5  1  0  0  0  0
  3 14  1  0  0  0  0
  4 10  1  0  0  0  0
  4 15  1  0  0  0  0
  5  9  1  0  0  0  0
  6  2  1  0  0  0  0
  8 12  1  0  0  0  0
  8  4  1  0  0  0  0
  9  7  1  0  0  0  0
  9 15  1  0  0  0  0
 11 10  1  0  0  0  0
 12  6  1  0  0  0  0
 13 10  1  0  0  0  0
 14  8  1  0  0  0  0
 14 11  1  0  0  0  0
 15  2  1  0  0  0  0
 16 17  1  0  0  0  0
 16 20  1  0  0  0  0
 17 18  1  0  0  0  0
 18 22  1  0  0  0  0
 20 21  1  0  0  0  0
 21 23  1  0  0  0  0
 21 19  1  0  0  0  0
 22 19  1  0  0  0  0
 22 12  1  0  0  0  0
 23 24  2  0  0  0  0
 26 25  1  0  0  0  0
 26 17  1  0  0  0  0
 27 26  1  0  0  0  0
 28 27  1  0  0  0  0
 29 11  1  0  0  0  0
 29 30  1  0  0  0  0
 31 29  1  0  0  0  0
 32 38  1  0  0  0  0
 32 42  1  0  0  0  0
 34 45  2  0  0  0  0
 34 44  1  0  0  0  0
 35 37  1  0  0  0  0
 35 33  1  0  0  0  0
 36 51  1  0  0  0  0
 38 34  1  0  0  0  0
 39 40  1  0  0  0  0
 39 33  1  0  0  0  0
 40 37  1  0  0  0  0
 40 43  2  0  0  0  0
 41 44  2  0  0  0  0
 42 41  1  0  0  0  0
 43 42  2  0  0  0  0
 44 36  1  0  0  0  0
 45 46  2  0  0  0  0
 46 31  1  0  0  0  0
 47 32  1  0  0  0  0
 49 53  1  0  0  0  0
 50 48  1  0  0  0  0
 50 52  1  0  0  0  0
 51 49  1  0  0  0  0
 51 50  1  0  0  0  0
 53 52  1  0  0  0  0
 54 55  1  0  0  0  0
 55  5  1  0  0  0  0
 56 14  1  0  0  0  0
 57 56  1  0  0  0  0
M  END
>  <MODEL>
7

>  <REMARK>
 VINA RESULT:      -5.5      3.174     10.911
  Name = 
  10 active torsions:
  status: ('A' for Active; 'I' for Inactive)
    1  A    between atoms: C_5  and  C_51
    2  A    between atoms: N_9  and  C_43
    3  A    between atoms: C_10  and  C_26
    4  A    between atoms: C_10  and  C_39
    5  A    between atoms: C_13  and  C_20
    6  A    between atoms: C_17  and  O_45
    7  A    between atoms: C_20  and  C_22
    8  A    between atoms: C_26  and  C_53
    9  A    between atoms: C_46  and  C_55
   10  A    between atoms: C_47  and  C_54
                            x       y       z     vdW  Elec       q    Type
                         _______ _______ _______ _____ _____    ______ ____

>  <TORSDO>
F 10

$$$$
=
 OpenBabel11062423063D

 57 63  0  0  1  0  0  0  0  0999 V2000
  193.3180  176.4060  145.2080 C   0  0  0  0  0  3  0  0  0  0  0  0
  195.6800  172.4290  145.2090 C   0  0  0  0  0  2  0  0  0  0  0  0
  192.2440  174.7070  142.0050 C   0  0  0  0  0  1  0  0  0  0  0  0
  193.4470  173.4270  144.8030 C   0  0  2  0  0  3  0  0  0  0  0  0
  194.6480  176.1550  145.8910 C   0  0  1  0  0  3  0  0  0  0  0  0
  194.9850  171.3180  144.3810 C   0  0  0  0  0  2  0  0  0  0  0  0
  196.6690  174.8150  146.0810 F   0  0  0  0  0  0  0  0  0  0  0  0
  193.5950  173.2040  143.3570 N   0  0  1  0  0  0  0  0  0  0  0  0
  195.3430  174.8090  145.7270 C   0  0  1  0  0  3  0  0  0  0  0  0
  192.1650  174.1360  145.1560 C   0  0  2  0  0  3  0  0  0  0  0  0
  191.3140  173.5290  144.0320 C   0  0  2  0  0  3  0  0  0  0  0  0
  194.2230  171.8710  143.1390 C   0  0  1  0  0  3  0  0  0  0  0  0
  192.2820  175.6030  144.9350 C   0  0  0  0  0  3  0  0  0  0  0  0
  192.2240  173.3960  142.8030 C   0  0  1  0  0  0  0  0  0  0  0  0
  194.7760  173.6210  145.4550 C   0  0  2  0  0  3  0  0  0  0  0  0
  197.4910  172.6610  139.7200 C   0  0  0  0  0  2  0  0  0  0  0  0
  196.3410  173.3950  140.4020 C   0  0  1  0  0  3  0  0  0  0  0  0
  196.0410  173.0810  141.8670 C   0  0  0  0  0  2  0  0  0  0  0  0
  195.9790  170.5070  141.8100 C   0  0  0  0  0  2  0  0  0  0  0  0
  197.1060  171.2040  139.6050 C   0  0  0  0  0  2  0  0  0  0  0  0
  197.2660  170.5250  140.9610 C   0  0  2  0  0  3  0  0  0  0  0  0
  195.1710  171.8100  141.9170 C   0  0  1  0  0  3  0  0  0  0  0  0
  197.7310  169.1200  140.7000 C   0  0  0  0  0  3  0  0  0  0  0  0
  197.3510  168.1710  141.3590 O   0  0  0  0  0  0  0  0  0  0  0  0
  194.8350  174.2020  138.6100 C   0  0  0  0  0  1  0  0  0  0  0  0
  195.7190  174.6260  139.7830 C   0  0  2  0  0  3  0  0  0  0  0  0
  196.7800  175.6540  139.3790 C   0  0  0  0  0  2  0  0  0  0  0  0
  197.7350  175.8000  140.3910 O   0  0  0  0  0  1  0  0  0  0  0  0
  189.8160  173.8400  143.8570 C   0  0  1  0  0  3  0  0  0  0  0  0
  189.2210  173.9010  145.1260 O   0  0  0  0  0  1  0  0  0  0  0  0
  189.4810  175.0850  143.0450 C   0  0  0  0  0  2  0  0  0  0  0  0
  185.0910  178.4450  140.7950 C   0  0  2  0  0  3  0  0  0  0  0  0
  179.2810  179.5520  141.7080 C   0  0  0  0  0  2  0  0  0  0  0  0
  186.3900  176.8040  142.1910 C   0  0  0  0  0  0  0  0  0  0  0  0
  179.1710  178.1260  141.1690 C   0  0  0  0  0  2  0  0  0  0  0  0
  185.8060  176.6900  144.6500 N   0  0  0  0  0  2  0  0  0  0  0  0
  180.5720  177.5410  141.1310 C   0  0  0  0  0  2  0  0  0  0  0  0
  185.9950  177.2120  140.7890 C   0  0  0  0  0  2  0  0  0  0  0  0
  180.7510  179.9510  141.6460 C   0  0  0  0  0  2  0  0  0  0  0  0
  181.4740  178.6920  141.3170 C   0  0  0  0  0  0  0  0  0  0  0  0
  184.3800  177.7700  143.1150 N   0  0  0  0  0  0  0  0  0  0  0  0
  184.0080  178.2780  141.8230 C   0  0  0  0  0  0  0  0  0  0  0  0
  182.7440  178.5150  141.5650 C   0  0  0  0  0  0  0  0  0  0  0  0
  185.4650  177.0910  143.3170 C   0  0  0  0  0  0  0  0  0  0  0  0
  187.2780  175.8590  142.3040 C   0  0  0  0  0  0  0  0  0  0  0  0
  188.1450  174.8860  142.4020 C   0  0  0  0  0  3  0  0  0  0  0  0
  184.5630  178.6480  139.5150 O   0  0  0  0  0  1  0  0  0  0  0  0
  186.2960  179.4020  145.1480 C   0  0  0  0  0  1  0  0  0  0  0  0
  185.8410  176.7860  147.1060 C   0  0  0  0  0  2  0  0  0  0  0  0
  185.1220  178.7530  145.8900 C   0  0  1  0  0  3  0  0  0  0  0  0
  185.1280  177.2180  145.8320 C   0  0  1  0  0  3  0  0  0  0  0  0
  185.2770  179.0320  147.3480 C   0  0  0  0  0  2  0  0  0  0  0  0
  185.6700  177.9510  148.0150 C   0  0  0  0  0  2  0  0  0  0  0  0
  195.7550  176.7830  144.0590 C   0  0  0  0  0  1  0  0  0  0  0  0
  195.5350  177.1170  145.3980 O   0  0  0  0  0  0  0  0  0  0  0  0
  191.7400  172.2970  141.8350 C   0  0  0  0  0  2  0  0  0  0  0  0
  191.2330  172.8330  140.6400 O   0  0  0  0  0  1  0  0  0  0  0  0
  1  5  1  0  0  0  0
  2 15  1  0  0  0  0
  3 14  1  0  0  0  0
  4 10  1  0  0  0  0
  4 15  1  0  0  0  0
  6  2  1  0  0  0  0
  8  4  1  0  0  0  0
  9  5  1  0  0  0  0
  9  7  1  0  0  0  0
 11 10  1  0  0  0  0
 12  8  1  0  0  0  0
 12  6  1  0  0  0  0
 13 10  1  0  0  0  0
 13  1  2  0  0  0  0
 14  8  1  0  0  0  0
 14 11  1  0  0  0  0
 15  9  1  0  0  0  0
 16 17  1  0  0  0  0
 17 18  1  0  0  0  0
 18 22  1  0  0  0  0
 19 22  1  0  0  0  0
 20 16  1  0  0  0  0
 20 21  1  0  0  0  0
 21 19  1  0  0  0  0
 22 12  1  0  0  0  0
 23 21  1  0  0  0  0
 23 24  2  0  0  0  0
 25 26  1  0  0  0  0
 26 17  1  0  0  0  0
 27 26  1  0  0  0  0
 27 28  1  0  0  0  0
 29 11  1  0  0  0  0
 29 30  1  0  0  0  0
 31 29  1  0  0  0  0
 32 42  1  0  0  0  0
 34 45  2  0  0  0  0
 34 44  1  0  0  0  0
 35 33  1  0  0  0  0
 36 51  1  0  0  0  0
 37 35  1  0  0  0  0
 37 40  1  0  0  0  0
 38 32  1  0  0  0  0
 38 34  1  0  0  0  0
 39 33  1  0  0  0  0
 40 43  2  0  0  0  0
 40 39  1  0  0  0  0
 41 44  2  0  0  0  0
 42 41  1  0  0  0  0
 43 42  2  0  0  0  0
 44 36  1  0  0  0  0
 45 46  2  0  0  0  0
 46 31  1  0  0  0  0
 47 32  1  0  0  0  0
 48 50  1  0  0  0  0
 49 53  1  0  0  0  0
 50 52  1  0  0  0  0
 51 50  1  0  0  0  0
 51 49  1  0  0  0  0
 52 53  1  0  0  0  0
 54 55  1  0  0  0  0
 55  5  1  0  0  0  0
 56 14  1  0  0  0  0
 57 56  1  0  0  0  0
M  END
>  <MODEL>
8

>  <REMARK>
 VINA RESULT:      -5.4      3.127     11.045
  Name = 
  10 active torsions:
  status: ('A' for Active; 'I' for Inactive)
    1  A    between atoms: C_5  and  C_51
    2  A    between atoms: N_9  and  C_43
    3  A    between atoms: C_10  and  C_26
    4  A    between atoms: C_10  and  C_39
    5  A    between atoms: C_13  and  C_20
    6  A    between atoms: C_17  and  O_45
    7  A    between atoms: C_20  and  C_22
    8  A    between atoms: C_26  and  C_53
    9  A    between atoms: C_46  and  C_55
   10  A    between atoms: C_47  and  C_54
                            x       y       z     vdW  Elec       q    Type
                         _______ _______ _______ _____ _____    ______ ____

>  <TORSDO>
F 10

$$$$
=
 OpenBabel11062423063D

 57 63  0  0  1  0  0  0  0  0999 V2000
  194.1140  175.6450  144.9270 C   0  0  0  0  0  3  0  0  0  0  0  0
  194.8880  171.1220  145.5080 C   0  0  0  0  0  2  0  0  0  0  0  0
  192.0440  174.0100  142.2160 C   0  0  0  0  0  1  0  0  0  0  0  0
  193.1190  172.8100  145.1010 C   0  0  2  0  0  3  0  0  0  0  0  0
  195.3550  175.0190  145.5330 C   0  0  1  0  0  3  0  0  0  0  0  0
  193.7290  170.2400  144.9730 C   0  0  0  0  0  2  0  0  0  0  0  0
  196.7750  173.0640  145.8120 F   0  0  0  0  0  0  0  0  0  0  0  0
  192.9610  172.3330  143.7190 N   0  0  1  0  0  0  0  0  0  0  0  0
  195.4960  173.5020  145.5770 C   0  0  1  0  0  3  0  0  0  0  0  0
  192.2380  173.9920  145.4140 C   0  0  2  0  0  3  0  0  0  0  0  0
  191.0700  173.5870  144.5050 C   0  0  2  0  0  3  0  0  0  0  0  0
  193.0360  170.8450  143.7140 C   0  0  1  0  0  3  0  0  0  0  0  0
  192.8330  175.2570  144.9020 C   0  0  0  0  0  3  0  0  0  0  0  0
  191.6800  172.9390  143.2530 C   0  0  1  0  0  0  0  0  0  0  0  0
  194.5110  172.5870  145.5900 C   0  0  2  0  0  3  0  0  0  0  0  0
  195.6150  168.3470  140.5350 C   0  0  0  0  0  2  0  0  0  0  0  0
  195.8170  169.0760  141.8590 C   0  0  1  0  0  3  0  0  0  0  0  0
  194.6620  169.1090  142.8590 C   0  0  0  0  0  2  0  0  0  0  0  0
  192.7230  169.8590  141.3390 C   0  0  0  0  0  2  0  0  0  0  0  0
  194.5920  169.1180  139.7330 C   0  0  0  0  0  2  0  0  0  0  0  0
  193.1970  168.8400  140.2830 C   0  0  2  0  0  3  0  0  0  0  0  0
  193.7080  170.2490  142.4530 C   0  0  1  0  0  3  0  0  0  0  0  0
  192.2540  168.8340  139.1130 C   0  0  0  0  0  3  0  0  0  0  0  0
  191.2210  169.4770  139.1000 O   0  0  0  0  0  0  0  0  0  0  0  0
  197.3210  169.1660  143.8250 C   0  0  0  0  0  1  0  0  0  0  0  0
  197.1960  169.4750  142.3330 C   0  0  2  0  0  3  0  0  0  0  0  0
  197.5040  170.9410  142.0080 C   0  0  0  0  0  2  0  0  0  0  0  0
  197.4660  171.7210  143.1690 O   0  0  0  0  0  1  0  0  0  0  0  0
  189.7710  174.4070  144.3960 C   0  0  1  0  0  3  0  0  0  0  0  0
  189.6000  175.1320  145.5860 O   0  0  0  0  0  1  0  0  0  0  0  0
  189.6560  175.3240  143.1850 C   0  0  0  0  0  2  0  0  0  0  0  0
  185.1130  178.5430  141.0360 C   0  0  2  0  0  3  0  0  0  0  0  0
  179.2560  179.3380  141.9670 C   0  0  0  0  0  2  0  0  0  0  0  0
  186.4880  176.9200  142.3800 C   0  0  0  0  0  0  0  0  0  0  0  0
  179.2150  177.9270  141.3810 C   0  0  0  0  0  2  0  0  0  0  0  0
  185.9060  176.6960  144.8320 N   0  0  0  0  0  2  0  0  0  0  0  0
  180.6420  177.4120  141.3280 C   0  0  0  0  0  2  0  0  0  0  0  0
  186.0760  177.3550  140.9910 C   0  0  0  0  0  2  0  0  0  0  0  0
  180.7040  179.8100  141.9240 C   0  0  0  0  0  2  0  0  0  0  0  0
  181.4870  178.5990  141.5540 C   0  0  0  0  0  0  0  0  0  0  0  0
  184.4320  177.7570  143.3290 N   0  0  0  0  0  0  0  0  0  0  0  0
  184.0380  178.2890  142.0540 C   0  0  0  0  0  0  0  0  0  0  0  0
  182.7640  178.4750  141.8010 C   0  0  0  0  0  0  0  0  0  0  0  0
  185.5480  177.1240  143.5130 C   0  0  0  0  0  0  0  0  0  0  0  0
  187.4200  176.0160  142.4640 C   0  0  0  0  0  0  0  0  0  0  0  0
  188.3320  175.0820  142.5320 C   0  0  0  0  0  3  0  0  0  0  0  0
  184.5780  178.7640  139.7620 O   0  0  0  0  0  1  0  0  0  0  0  0
  186.2370  179.4170  145.4030 C   0  0  0  0  0  1  0  0  0  0  0  0
  185.9420  176.7270  147.2900 C   0  0  0  0  0  2  0  0  0  0  0  0
  185.1060  178.6800  146.1290 C   0  0  1  0  0  3  0  0  0  0  0  0
  185.2010  177.1500  146.0290 C   0  0  1  0  0  3  0  0  0  0  0  0
  185.2490  178.9280  147.5940 C   0  0  0  0  0  2  0  0  0  0  0  0
  185.7060  177.8550  148.2310 C   0  0  0  0  0  2  0  0  0  0  0  0
  195.8920  176.2260  143.7350 C   0  0  0  0  0  1  0  0  0  0  0  0
  196.4410  175.4920  144.7900 O   0  0  0  0  0  0  0  0  0  0  0  0
  190.7000  171.9690  142.5620 C   0  0  0  0  0  2  0  0  0  0  0  0
  190.3290  172.4170  141.2840 O   0  0  0  0  0  1  0  0  0  0  0  0
  1  5  1  0  0  0  0
  2 15  1  0  0  0  0
  3 14  1  0  0  0  0
  4 10  1  0  0  0  0
  4 15  1  0  0  0  0
  5  9  1  0  0  0  0
  6  2  1  0  0  0  0
  8  4  1  0  0  0  0
  9 15  1  0  0  0  0
  9  7  1  0  0  0  0
 11 10  1  0  0  0  0
 12  8  1  0  0  0  0
 12  6  1  0  0  0  0
 13  1  2  0  0  0  0
 13 10  1  0  0  0  0
 14  8  1  0  0  0  0
 14 11  1  0  0  0  0
 16 17  1  0  0  0  0
 17 26  1  0  0  0  0
 17 18  1  0  0  0  0
 19 22  1  0  0  0  0
 20 21  1  0  0  0  0
 20 16  1  0  0  0  0
 21 19  1  0  0  0  0
 22 18  1  0  0  0  0
 22 12  1  0  0  0  0
 23 21  1  0  0  0  0
 24 23  2  0  0  0  0
 26 25  1  0  0  0  0
 27 26  1  0  0  0  0
 27 28  1  0  0  0  0
 29 11  1  0  0  0  0
 29 30  1  0  0  0  0
 31 29  1  0  0  0  0
 32 42  1  0  0  0  0
 34 45  2  0  0  0  0
 34 44  1  0  0  0  0
 35 33  1  0  0  0  0
 36 51  1  0  0  0  0
 37 35  1  0  0  0  0
 37 40  1  0  0  0  0
 38 32  1  0  0  0  0
 38 34  1  0  0  0  0
 39 33  1  0  0  0  0
 40 43  2  0  0  0  0
 40 39  1  0  0  0  0
 41 44  2  0  0  0  0
 42 41  1  0  0  0  0
 43 42  2  0  0  0  0
 44 36  1  0  0  0  0
 45 46  2  0  0  0  0
 46 31  1  0  0  0  0
 47 32  1  0  0  0  0
 48 50  1  0  0  0  0
 49 53  1  0  0  0  0
 50 52  1  0  0  0  0
 51 50  1  0  0  0  0
 51 49  1  0  0  0  0
 52 53  1  0  0  0  0
 54 55  1  0  0  0  0
 55  5  1  0  0  0  0
 56 14  1  0  0  0  0
 57 56  1  0  0  0  0
M  END
>  <MODEL>
9

>  <REMARK>
 VINA RESULT:      -5.4      3.290     11.004
  Name = 
  10 active torsions:
  status: ('A' for Active; 'I' for Inactive)
    1  A    between atoms: C_5  and  C_51
    2  A    between atoms: N_9  and  C_43
    3  A    between atoms: C_10  and  C_26
    4  A    between atoms: C_10  and  C_39
    5  A    between atoms: C_13  and  C_20
    6  A    between atoms: C_17  and  O_45
    7  A    between atoms: C_20  and  C_22
    8  A    between atoms: C_26  and  C_53
    9  A    between atoms: C_46  and  C_55
   10  A    between atoms: C_47  and  C_54
                            x       y       z     vdW  Elec       q    Type
                         _______ _______ _______ _____ _____    ______ ____

>  <TORSDO>
F 10

$$$$
