=
 OpenBabel11062422473D

 67 74  0  0  1  0  0  0  0  0999 V2000
  187.0720  175.5240  141.6690 O   0  0  0  0  0  0  0  0  0  0  0  0
  191.8180  174.4090  145.2330 C   0  0  0  0  0  0  0  0  0  0  0  0
  188.4700  175.5130  141.7350 C   0  0  2  0  0  3  0  0  0  0  0  0
  192.9060  175.5210  141.7390 N   0  0  0  0  0  0  0  0  0  0  0  0
  189.5460  176.7300  146.1830 C   0  0  0  0  0  2  0  0  0  0  0  0
  188.4630  173.0440  141.3090 C   0  0  0  0  0  2  0  0  0  0  0  0
  191.0450  173.9610  144.3490 O   0  0  0  0  0  0  0  0  0  0  0  0
  186.6900  176.8750  141.7790 C   0  0  2  0  0  3  0  0  0  0  0  0
  189.7200  176.9470  144.6850 C   0  0  0  0  0  2  0  0  0  0  0  0
  192.9650  174.3220  139.6130 C   0  0  0  0  0  2  0  0  0  0  0  0
  188.9920  174.1550  142.1950 C   0  0  0  0  0  2  0  0  0  0  0  0
  188.8930  176.6480  142.6400 C   0  0  2  0  0  3  0  0  0  0  0  0
  189.5640  172.4340  140.4540 C   0  0  0  0  0  2  0  0  0  0  0  0
  193.1020  173.0730  141.6580 C   0  0  0  0  0  2  0  0  0  0  0  0
  193.4910  174.3840  141.0420 C   0  0  2  0  0  3  0  0  0  0  0  0
  193.2280  174.4490  144.9740 N   0  0  0  0  0  0  0  0  0  0  0  0
  193.1990  175.7930  142.9680 C   0  0  0  0  0  0  0  0  0  0  0  0
  188.6950  176.3020  143.9870 O   0  0  0  0  0  0  0  0  0  0  0  0
  192.6550  172.2370  140.7340 C   0  0  1  0  0  3  0  0  0  0  0  0
  195.6330  175.7600  144.1860 S   0  0  0  0  0  1  0  0  0  0  0  0
  189.8050  175.2730  146.5800 C   0  0  0  0  0  2  0  0  0  0  0  0
  187.8830  177.6900  142.2510 C   0  0  0  0  0  2  0  0  0  0  0  0
  190.0800  173.3650  139.3590 C   0  0  1  0  0  3  0  0  0  0  0  0
  191.2650  172.7030  138.6610 C   0  0  0  0  0  2  0  0  0  0  0  0
  191.2610  174.9400  146.4900 C   0  0  0  0  0  0  0  0  0  0  0  0
  193.1060  176.6830  144.1770 O   0  0  0  0  0  0  0  0  0  0  0  0
  192.0540  175.2600  147.5030 C   0  0  0  0  0  2  0  0  0  0  0  0
  194.0680  173.4250  145.5760 C   0  0  0  0  0  1  0  0  0  0  0  0
  193.8260  175.5200  144.1620 C   0  0  2  0  0  0  0  0  0  0  0  0
  192.6120  172.8600  139.3760 C   0  0  1  0  0  3  0  0  0  0  0  0
  193.4870  168.5200  141.6110 C   0  0  0  0  0  1  0  0  0  0  0  0
  192.6360  169.9920  139.9070 O   0  0  0  0  0  0  0  0  0  0  0  0
  193.5430  169.9080  140.9750 C   0  0  1  0  0  0  0  0  0  0  0  0
  192.3490  170.7950  141.0310 C   0  0  1  0  0  3  0  0  0  0  0  0
  195.8990  169.7380  141.2880 C   0  0  0  0  0  2  0  0  0  0  0  0
  196.4340  169.9970  139.0050 C   0  0  2  0  0  3  0  0  0  0  0  0
  194.8440  170.4780  140.5980 N   0  0  1  0  0  0  0  0  0  0  0  0
  196.9010  169.2990  140.2550 C   0  0  0  0  0  2  0  0  0  0  0  0
  195.0250  170.2950  139.2100 N   0  0  0  0  0  2  0  0  0  0  0  0
  195.6540  168.5090  137.2900 O   0  0  0  0  0  0  0  0  0  0  0  0
  196.6240  169.1530  137.7790 C   0  0  0  0  0  0  0  0  0  0  0  0
  197.9230  168.9920  137.2160 N   0  0  0  0  0  1  0  0  0  0  0  0
  189.0060  173.6000  138.3050 C   0  0  0  0  0  2  0  0  0  0  0  0
  188.0630  174.5230  138.7730 O   0  0  0  0  0  0  0  0  0  0  0  0
  186.8200  176.3580  137.9090 C   0  0  0  0  0  1  0  0  0  0  0  0
  187.4210  174.9900  137.6280 C   0  0  1  0  0  3  0  0  0  0  0  0
  188.3450  175.0940  136.5850 O   0  0  0  0  0  0  0  0  0  0  0  0
  187.7510  175.9750  135.6770 C   0  0  0  0  0  1  0  0  0  0  0  0
  185.6540  177.0030  142.7130 O   0  0  0  0  0  0  0  0  0  0  0  0
  184.9940  178.2030  142.4080 C   0  0  1  0  0  3  0  0  0  0  0  0
  183.5250  177.9650  142.0420 C   0  0  0  0  0  2  0  0  0  0  0  0
  183.2040  178.3270  140.5960 C   0  0  0  0  0  2  0  0  0  0  0  0
  181.7190  178.1570  140.3120 C   0  0  0  0  0  2  0  0  0  0  0  0
  177.9010  179.7450  142.6590 C   0  0  0  0  0  2  0  0  0  0  0  0
  177.6920  178.2430  142.6030 C   0  0  0  0  0  2  0  0  0  0  0  0
  180.2250  178.9440  143.0120 C   0  0  0  0  0  2  0  0  0  0  0  0
  179.3710  179.1910  140.7440 C   0  0  2  0  0  3  0  0  0  0  0  0
  181.2420  179.5290  142.2260 O   0  0  0  0  0  0  0  0  0  0  0  0
  180.9000  179.3290  140.8620 C   0  0  1  0  0  3  0  0  0  0  0  0
  179.0070  178.8450  142.1460 C   0  0  0  0  0  0  0  0  0  0  0  0
  178.7580  176.8320  140.0810 N   0  0  0  0  0  1  0  0  0  0  0  0
  178.5180  178.5790  138.5730 O   0  0  0  0  0  0  0  0  0  0  0  0
  178.8650  178.2040  139.7260 C   0  0  0  0  0  0  0  0  0  0  0  0
  185.1930  179.2770  143.4820 C   0  0  0  0  0  2  0  0  0  0  0  0
  185.9290  177.8300  145.4930 C   0  0  0  0  0  1  0  0  0  0  0  0
  184.9600  178.7790  144.8760 C   0  0  0  0  0  0  0  0  0  0  0  0
  184.0130  179.1910  145.5250 O   0  0  0  0  0  0  0  0  0  0  0  0
  1  3  1  0  0  0  0
  1  8  1  0  0  0  0
  2 25  1  0  0  0  0
  3 11  1  1  0  0  0
  3 12  1  0  0  0  0
  4 17  2  0  0  0  0
  5 21  1  0  0  0  0
  6 11  1  0  0  0  0
  7  2  2  0  0  0  0
  8 22  1  0  0  0  0
  8 49  1  1  0  0  0
  9  5  1  0  0  0  0
 12 22  1  6  0  0  0
 12 18  1  0  0  0  0
 13  6  1  0  0  0  0
 15 10  1  6  0  0  0
 15 14  1  0  0  0  0
 15  4  1  0  0  0  0
 16  2  1  0  0  0  0
 16 28  1  0  0  0  0
 17 29  1  0  0  0  0
 17 26  1  0  0  0  0
 18  9  1  0  0  0  0
 19 34  1  0  0  0  0
 19 14  1  6  0  0  0
 23 43  1  6  0  0  0
 23 13  1  0  0  0  0
 24 23  1  0  0  0  0
 25 21  1  0  0  0  0
 25 27  2  0  0  0  0
 29 26  1  0  0  0  0
 29 20  1  1  0  0  0
 29 16  1  0  0  0  0
 30 24  1  1  0  0  0
 30 10  1  0  0  0  0
 30 19  1  0  0  0  0
 32 33  1  0  0  0  0
 33 34  1  0  0  0  0
 33 31  1  1  0  0  0
 34 32  1  6  0  0  0
 36 41  1  6  0  0  0
 36 39  1  0  0  0  0
 36 38  1  0  0  0  0
 37 33  1  0  0  0  0
 37 35  1  1  0  0  0
 38 35  1  0  0  0  0
 39 37  1  0  0  0  0
 40 41  2  0  0  0  0
 42 41  1  0  0  0  0
 43 44  1  0  0  0  0
 46 45  1  1  0  0  0
 46 44  1  0  0  0  0
 47 46  1  0  0  0  0
 48 47  1  0  0  0  0
 50 51  1  1  0  0  0
 50 49  1  0  0  0  0
 50 64  1  0  0  0  0
 52 51  1  0  0  0  0
 53 52  1  0  0  0  0
 55 54  1  0  0  0  0
 57 63  1  6  0  0  0
 57 59  1  0  0  0  0
 57 60  1  0  0  0  0
 58 56  1  0  0  0  0
 59 53  1  1  0  0  0
 59 58  1  0  0  0  0
 60 55  1  0  0  0  0
 60 54  1  0  0  0  0
 60 56  1  0  0  0  0
 62 63  2  0  0  0  0
 63 61  1  0  0  0  0
 64 66  1  0  0  0  0
 66 65  1  0  0  0  0
 66 67  2  0  0  0  0
M  END
>  <MODEL>
1

>  <REMARK>
 VINA RESULT:      -7.5      0.000      0.000
  Name = 
  16 active torsions:
  status: ('A' for Active; 'I' for Inactive)
    1  A    between atoms: O_2  and  C_15
    2  A    between atoms: O_2  and  C_23
    3  A    between atoms: C_21  and  C_24
    4  A    between atoms: C_23  and  C_40
    5  A    between atoms: C_23  and  C_65
    6  A    between atoms: C_30  and  C_51
    7  A    between atoms: O_31  and  C_42
    8  A    between atoms: N_37  and  C_49
    9  A    between atoms: C_39  and  C_52
   10  A    between atoms: C_40  and  C_43
   11  A    between atoms: C_41  and  C_54
   12  A    between atoms: C_42  and  O_62
   13  A    between atoms: C_48  and  C_52
   14  A    between atoms: C_48  and  C_65
   15  A    between atoms: C_50  and  C_53
   16  A    between atoms: C_50  and  O_62
                            x       y       z     vdW  Elec       q    Type
                         _______ _______ _______ _____ _____    ______ ____

>  <TORSDO>
F 16

$$$$
=
 OpenBabel11062422473D

 67 74  0  0  1  0  0  0  0  0999 V2000
  187.9030  176.4780  141.2870 O   0  0  0  0  0  0  0  0  0  0  0  0
  191.9110  174.6630  145.4250 C   0  0  0  0  0  0  0  0  0  0  0  0
  189.2480  176.1580  141.5080 C   0  0  2  0  0  3  0  0  0  0  0  0
  193.5430  175.1670  142.0030 N   0  0  0  0  0  0  0  0  0  0  0  0
  190.1670  177.5150  145.9510 C   0  0  0  0  0  2  0  0  0  0  0  0
  188.7030  173.7260  141.2590 C   0  0  0  0  0  2  0  0  0  0  0  0
  191.1380  174.3200  144.4950 O   0  0  0  0  0  0  0  0  0  0  0  0
  187.8400  177.8850  141.2580 C   0  0  2  0  0  3  0  0  0  0  0  0
  190.5240  177.5460  144.4700 C   0  0  0  0  0  2  0  0  0  0  0  0
  193.5150  173.7900  139.9870 C   0  0  0  0  0  2  0  0  0  0  0  0
  189.3940  174.7680  142.1170 C   0  0  0  0  0  2  0  0  0  0  0  0
  189.8410  177.2490  142.3720 C   0  0  2  0  0  3  0  0  0  0  0  0
  189.7040  172.8050  140.5760 C   0  0  0  0  0  2  0  0  0  0  0  0
  193.1680  172.7410  142.1170 C   0  0  0  0  0  2  0  0  0  0  0  0
  193.9070  173.8660  141.4580 C   0  0  2  0  0  3  0  0  0  0  0  0
  193.3080  174.3600  145.3220 N   0  0  0  0  0  0  0  0  0  0  0  0
  193.7780  175.4800  143.2350 C   0  0  0  0  0  0  0  0  0  0  0  0
  189.4440  177.0850  143.7100 O   0  0  0  0  0  0  0  0  0  0  0  0
  192.6250  171.9440  141.2110 C   0  0  1  0  0  3  0  0  0  0  0  0
  196.0150  175.0140  144.7140 S   0  0  0  0  0  1  0  0  0  0  0  0
  190.0410  176.0810  146.4760 C   0  0  0  0  0  2  0  0  0  0  0  0
  189.1420  178.4510  141.8010 C   0  0  0  0  0  2  0  0  0  0  0  0
  190.5220  173.4890  139.4830 C   0  0  1  0  0  3  0  0  0  0  0  0
  191.5780  172.5140  138.9680 C   0  0  0  0  0  2  0  0  0  0  0  0
  191.3800  175.4220  146.5710 C   0  0  0  0  0  0  0  0  0  0  0  0
  193.7850  176.4780  144.3600 O   0  0  0  0  0  0  0  0  0  0  0  0
  192.1300  175.6490  147.6410 C   0  0  0  0  0  2  0  0  0  0  0  0
  193.8260  173.2340  146.0840 C   0  0  0  0  0  1  0  0  0  0  0  0
  194.2110  175.1860  144.5080 C   0  0  2  0  0  0  0  0  0  0  0  0
  192.8530  172.4300  139.8150 C   0  0  1  0  0  3  0  0  0  0  0  0
  192.4360  168.3220  142.6680 C   0  0  0  0  0  1  0  0  0  0  0  0
  192.3270  169.6360  140.6530 O   0  0  0  0  0  0  0  0  0  0  0  0
  192.9260  169.5620  141.9220 C   0  0  1  0  0  0  0  0  0  0  0  0
  191.9630  170.6430  141.5730 C   0  0  1  0  0  3  0  0  0  0  0  0
  195.0920  168.6830  142.3810 C   0  0  0  0  0  2  0  0  0  0  0  0
  196.0260  169.3320  140.3150 C   0  0  2  0  0  3  0  0  0  0  0  0
  194.3680  169.8280  141.8320 N   0  0  1  0  0  0  0  0  0  0  0  0
  196.1090  168.2510  141.3600 C   0  0  0  0  0  2  0  0  0  0  0  0
  194.7150  169.9450  140.4690 N   0  0  0  0  0  2  0  0  0  0  0  0
  197.2810  168.9680  138.3010 O   0  0  0  0  0  0  0  0  0  0  0  0
  196.1980  168.7920  138.9250 C   0  0  0  0  0  0  0  0  0  0  0  0
  195.1040  168.1660  138.2610 N   0  0  0  0  0  1  0  0  0  0  0  0
  189.6340  173.8600  138.3020 C   0  0  0  0  0  2  0  0  0  0  0  0
  190.4190  174.1550  137.1810 O   0  0  0  0  0  0  0  0  0  0  0  0
  189.2890  172.4690  135.9410 C   0  0  0  0  0  1  0  0  0  0  0  0
  189.5760  173.9550  136.0900 C   0  0  1  0  0  3  0  0  0  0  0  0
  188.3760  174.6400  136.2980 O   0  0  0  0  0  0  0  0  0  0  0  0
  188.4080  175.6900  135.3760 C   0  0  0  0  0  1  0  0  0  0  0  0
  186.7810  178.3300  142.0600 O   0  0  0  0  0  0  0  0  0  0  0  0
  185.6370  177.6510  141.6150 C   0  0  1  0  0  3  0  0  0  0  0  0
  184.8840  176.9880  142.7730 C   0  0  0  0  0  2  0  0  0  0  0  0
  185.7870  176.1410  143.6650 C   0  0  0  0  0  2  0  0  0  0  0  0
  185.4980  176.4070  145.1350 C   0  0  0  0  0  2  0  0  0  0  0  0
  187.1660  179.4920  148.3450 C   0  0  0  0  0  2  0  0  0  0  0  0
  185.6610  179.6810  148.4110 C   0  0  0  0  0  2  0  0  0  0  0  0
  186.3980  177.1430  148.0990 C   0  0  0  0  0  2  0  0  0  0  0  0
  186.5350  178.5740  146.1330 C   0  0  2  0  0  3  0  0  0  0  0  0
  186.9530  176.3830  147.0470 O   0  0  0  0  0  0  0  0  0  0  0  0
  186.6890  177.0720  145.8330 C   0  0  1  0  0  3  0  0  0  0  0  0
  186.2500  178.5450  147.5940 C   0  0  0  0  0  0  0  0  0  0  0  0
  184.1220  179.0920  145.5970 N   0  0  0  0  0  1  0  0  0  0  0  0
  185.8360  180.1410  144.4380 O   0  0  0  0  0  0  0  0  0  0  0  0
  185.5000  179.3150  145.3300 C   0  0  0  0  0  0  0  0  0  0  0  0
  184.7460  178.5180  140.7200 C   0  0  0  0  0  2  0  0  0  0  0  0
  182.6060  178.6640  142.1600 C   0  0  0  0  0  1  0  0  0  0  0  0
  183.2820  178.2540  140.8960 C   0  0  0  0  0  0  0  0  0  0  0  0
  182.6340  177.7590  139.9900 O   0  0  0  0  0  0  0  0  0  0  0  0
  1  3  1  0  0  0  0
  2 25  1  0  0  0  0
  3 11  1  1  0  0  0
  3 12  1  0  0  0  0
  4 17  2  0  0  0  0
  5 21  1  0  0  0  0
  6 11  1  0  0  0  0
  7  2  2  0  0  0  0
  8  1  1  0  0  0  0
  8 22  1  0  0  0  0
  8 49  1  1  0  0  0
  9  5  1  0  0  0  0
 12 22  1  6  0  0  0
 12 18  1  0  0  0  0
 13  6  1  0  0  0  0
 15 10  1  6  0  0  0
 15  4  1  0  0  0  0
 15 14  1  0  0  0  0
 16  2  1  0  0  0  0
 16 28  1  0  0  0  0
 17 26  1  0  0  0  0
 17 29  1  0  0  0  0
 18  9  1  0  0  0  0
 19 34  1  0  0  0  0
 19 14  1  6  0  0  0
 21 25  1  0  0  0  0
 23 43  1  6  0  0  0
 23 13  1  0  0  0  0
 24 23  1  0  0  0  0
 25 27  2  0  0  0  0
 26 29  1  0  0  0  0
 29 20  1  1  0  0  0
 29 16  1  0  0  0  0
 30 24  1  1  0  0  0
 30 10  1  0  0  0  0
 30 19  1  0  0  0  0
 32 33  1  0  0  0  0
 33 31  1  1  0  0  0
 34 32  1  6  0  0  0
 34 33  1  0  0  0  0
 36 41  1  6  0  0  0
 36 39  1  0  0  0  0
 36 38  1  0  0  0  0
 37 33  1  0  0  0  0
 37 35  1  6  0  0  0
 38 35  1  0  0  0  0
 39 37  1  0  0  0  0
 40 41  2  0  0  0  0
 42 41  1  0  0  0  0
 44 43  1  0  0  0  0
 46 45  1  1  0  0  0
 46 47  1  0  0  0  0
 46 44  1  0  0  0  0
 48 47  1  0  0  0  0
 50 64  1  1  0  0  0
 50 49  1  0  0  0  0
 50 51  1  0  0  0  0
 51 52  1  0  0  0  0
 52 53  1  0  0  0  0
 54 55  1  0  0  0  0
 57 63  1  6  0  0  0
 57 60  1  0  0  0  0
 58 56  1  0  0  0  0
 59 53  1  1  0  0  0
 59 57  1  0  0  0  0
 59 58  1  0  0  0  0
 60 56  1  0  0  0  0
 60 54  1  0  0  0  0
 60 55  1  0  0  0  0
 62 63  2  0  0  0  0
 63 61  1  0  0  0  0
 64 66  1  0  0  0  0
 66 65  1  0  0  0  0
 67 66  2  0  0  0  0
M  END
>  <MODEL>
2

>  <REMARK>
 VINA RESULT:      -6.6      2.069      3.976
  Name = 
  16 active torsions:
  status: ('A' for Active; 'I' for Inactive)
    1  A    between atoms: O_2  and  C_15
    2  A    between atoms: O_2  and  C_23
    3  A    between atoms: C_21  and  C_24
    4  A    between atoms: C_23  and  C_40
    5  A    between atoms: C_23  and  C_65
    6  A    between atoms: C_30  and  C_51
    7  A    between atoms: O_31  and  C_42
    8  A    between atoms: N_37  and  C_49
    9  A    between atoms: C_39  and  C_52
   10  A    between atoms: C_40  and  C_43
   11  A    between atoms: C_41  and  C_54
   12  A    between atoms: C_42  and  O_62
   13  A    between atoms: C_48  and  C_52
   14  A    between atoms: C_48  and  C_65
   15  A    between atoms: C_50  and  C_53
   16  A    between atoms: C_50  and  O_62
                            x       y       z     vdW  Elec       q    Type
                         _______ _______ _______ _____ _____    ______ ____

>  <TORSDO>
F 16

$$$$
=
 OpenBabel11062422473D

 67 74  0  0  1  0  0  0  0  0999 V2000
  187.5960  176.0450  141.8180 O   0  0  0  0  0  0  0  0  0  0  0  0
  192.6820  173.9420  144.3050 C   0  0  0  0  0  0  0  0  0  0  0  0
  188.9620  175.8250  141.6060 C   0  0  2  0  0  3  0  0  0  0  0  0
  193.2640  175.1860  140.7360 N   0  0  0  0  0  0  0  0  0  0  0  0
  191.0270  176.4770  145.8180 C   0  0  0  0  0  2  0  0  0  0  0  0
  188.4810  173.4310  141.0480 C   0  0  0  0  0  2  0  0  0  0  0  0
  191.6960  173.6910  143.5670 O   0  0  0  0  0  0  0  0  0  0  0  0
  187.4620  177.4240  142.0790 C   0  0  2  0  0  3  0  0  0  0  0  0
  190.9520  176.7970  144.3300 C   0  0  0  0  0  2  0  0  0  0  0  0
  192.7340  174.1820  138.5740 C   0  0  0  0  0  2  0  0  0  0  0  0
  189.3360  174.3710  141.8750 C   0  0  0  0  0  2  0  0  0  0  0  0
  189.7220  176.8030  142.4740 C   0  0  2  0  0  3  0  0  0  0  0  0
  189.2910  172.7440  139.9580 C   0  0  0  0  0  2  0  0  0  0  0  0
  193.0470  172.7520  140.4750 C   0  0  0  0  0  2  0  0  0  0  0  0
  193.5200  174.0410  139.8720 C   0  0  2  0  0  3  0  0  0  0  0  0
  194.0070  173.7990  143.7760 N   0  0  0  0  0  0  0  0  0  0  0  0
  193.8200  175.3030  141.8960 C   0  0  0  0  0  0  0  0  0  0  0  0
  189.7250  176.3720  143.8120 O   0  0  0  0  0  0  0  0  0  0  0  0
  192.3090  172.0740  139.6110 C   0  0  1  0  0  3  0  0  0  0  0  0
  196.4010  174.8090  142.6060 S   0  0  0  0  0  1  0  0  0  0  0  0
  191.1190  174.9690  146.0700 C   0  0  0  0  0  2  0  0  0  0  0  0
  188.8370  178.0110  142.3540 C   0  0  0  0  0  2  0  0  0  0  0  0
  189.7370  173.6820  138.8390 C   0  0  1  0  0  3  0  0  0  0  0  0
  190.6500  172.9180  137.8830 C   0  0  0  0  0  2  0  0  0  0  0  0
  192.4600  174.4360  145.6760 C   0  0  0  0  0  0  0  0  0  0  0  0
  194.0970  176.0870  143.1490 O   0  0  0  0  0  0  0  0  0  0  0  0
  193.4680  174.5470  146.5300 C   0  0  0  0  0  2  0  0  0  0  0  0
  194.7680  172.6140  144.1400 C   0  0  0  0  0  1  0  0  0  0  0  0
  194.6060  174.8380  142.9260 C   0  0  2  0  0  0  0  0  0  0  0  0
  192.1130  172.8140  138.3260 C   0  0  1  0  0  3  0  0  0  0  0  0
  192.6660  168.2010  139.9970 C   0  0  0  0  0  1  0  0  0  0  0  0
  191.7020  169.9610  138.6670 O   0  0  0  0  0  0  0  0  0  0  0  0
  192.8090  169.6260  139.4620 C   0  0  1  0  0  0  0  0  0  0  0  0
  191.8360  170.6720  139.8780 C   0  0  1  0  0  3  0  0  0  0  0  0
  195.1270  169.1250  139.2340 C   0  0  0  0  0  2  0  0  0  0  0  0
  195.1730  169.4020  136.8920 C   0  0  2  0  0  3  0  0  0  0  0  0
  194.0610  170.0280  138.8060 N   0  0  1  0  0  0  0  0  0  0  0  0
  195.8030  168.5960  137.9970 C   0  0  0  0  0  2  0  0  0  0  0  0
  193.9010  169.8790  137.4120 N   0  0  0  0  0  2  0  0  0  0  0  0
  193.8140  168.1680  135.3450 O   0  0  0  0  0  0  0  0  0  0  0  0
  194.9640  168.5910  135.6460 C   0  0  0  0  0  0  0  0  0  0  0  0
  196.0810  168.2060  134.8490 N   0  0  0  0  0  1  0  0  0  0  0  0
  188.5380  174.1630  138.0330 C   0  0  0  0  0  2  0  0  0  0  0  0
  188.7290  173.8920  136.6720 O   0  0  0  0  0  0  0  0  0  0  0  0
  187.2990  175.7690  136.9680 C   0  0  0  0  0  1  0  0  0  0  0  0
  188.1820  174.9890  136.0090 C   0  0  1  0  0  3  0  0  0  0  0  0
  189.2110  175.8150  135.5490 O   0  0  0  0  0  0  0  0  0  0  0  0
  188.5890  176.6750  134.6390 C   0  0  0  0  0  1  0  0  0  0  0  0
  186.6520  177.6180  143.2060 O   0  0  0  0  0  0  0  0  0  0  0  0
  185.4050  178.0470  142.7250 C   0  0  1  0  0  3  0  0  0  0  0  0
  184.7320  179.0290  143.6890 C   0  0  0  0  0  2  0  0  0  0  0  0
  184.0030  178.3350  144.8350 C   0  0  0  0  0  2  0  0  0  0  0  0
  184.9180  177.3400  145.5340 C   0  0  0  0  0  2  0  0  0  0  0  0
  187.5870  178.9650  149.1160 C   0  0  0  0  0  2  0  0  0  0  0  0
  188.5230  179.0070  147.9210 C   0  0  0  0  0  2  0  0  0  0  0  0
  186.0260  179.7180  147.3380 C   0  0  0  0  0  2  0  0  0  0  0  0
  186.4460  177.3380  147.6390 C   0  0  2  0  0  3  0  0  0  0  0  0
  184.7920  179.0410  147.2260 O   0  0  0  0  0  0  0  0  0  0  0  0
  185.0740  177.6640  147.0230 C   0  0  1  0  0  3  0  0  0  0  0  0
  187.0500  178.6960  147.7250 C   0  0  0  0  0  0  0  0  0  0  0  0
  187.9420  175.3020  147.6100 N   0  0  0  0  0  1  0  0  0  0  0  0
  187.4290  176.4140  145.6400 O   0  0  0  0  0  0  0  0  0  0  0  0
  187.2960  176.3450  146.8920 C   0  0  0  0  0  0  0  0  0  0  0  0
  185.4720  178.5520  141.2800 C   0  0  0  0  0  2  0  0  0  0  0  0
  182.9520  178.4350  140.7220 C   0  0  0  0  0  1  0  0  0  0  0  0
  184.3570  178.0450  140.4160 C   0  0  0  0  0  0  0  0  0  0  0  0
  184.6020  177.3640  139.4350 O   0  0  0  0  0  0  0  0  0  0  0  0
  1  8  1  0  0  0  0
  2 25  1  0  0  0  0
  3  1  1  0  0  0  0
  3 11  1  1  0  0  0
  3 12  1  0  0  0  0
  4 17  2  0  0  0  0
  5 21  1  0  0  0  0
  6 11  1  0  0  0  0
  7  2  2  0  0  0  0
  8 22  1  0  0  0  0
  8 49  1  1  0  0  0
  9  5  1  0  0  0  0
 12 22  1  1  0  0  0
 12 18  1  0  0  0  0
 13  6  1  0  0  0  0
 15 10  1  6  0  0  0
 15 14  1  0  0  0  0
 15  4  1  0  0  0  0
 16 28  1  0  0  0  0
 16  2  1  0  0  0  0
 17 29  1  0  0  0  0
 17 26  1  0  0  0  0
 18  9  1  0  0  0  0
 19 34  1  0  0  0  0
 19 14  1  6  0  0  0
 23 43  1  6  0  0  0
 23 13  1  0  0  0  0
 24 23  1  0  0  0  0
 25 21  1  0  0  0  0
 25 27  2  0  0  0  0
 29 20  1  6  0  0  0
 29 26  1  0  0  0  0
 29 16  1  0  0  0  0
 30 24  1  1  0  0  0
 30 10  1  0  0  0  0
 30 19  1  0  0  0  0
 32 33  1  0  0  0  0
 33 34  1  0  0  0  0
 33 31  1  1  0  0  0
 34 32  1  6  0  0  0
 36 41  1  6  0  0  0
 36 39  1  0  0  0  0
 36 38  1  0  0  0  0
 37 35  1  1  0  0  0
 37 33  1  0  0  0  0
 38 35  1  0  0  0  0
 39 37  1  0  0  0  0
 40 41  2  0  0  0  0
 42 41  1  0  0  0  0
 44 43  1  0  0  0  0
 46 44  1  0  0  0  0
 46 45  1  1  0  0  0
 47 46  1  0  0  0  0
 48 47  1  0  0  0  0
 50 64  1  6  0  0  0
 50 49  1  0  0  0  0
 50 51  1  0  0  0  0
 51 52  1  0  0  0  0
 52 53  1  0  0  0  0
 55 54  1  0  0  0  0
 56 60  1  0  0  0  0
 57 63  1  6  0  0  0
 57 60  1  0  0  0  0
 58 56  1  0  0  0  0
 59 53  1  6  0  0  0
 59 58  1  0  0  0  0
 59 57  1  0  0  0  0
 60 55  1  0  0  0  0
 60 54  1  0  0  0  0
 62 63  2  0  0  0  0
 63 61  1  0  0  0  0
 66 65  1  0  0  0  0
 66 64  1  0  0  0  0
 67 66  2  0  0  0  0
M  END
>  <MODEL>
3

>  <REMARK>
 VINA RESULT:      -6.6      2.572      4.436
  Name = 
  16 active torsions:
  status: ('A' for Active; 'I' for Inactive)
    1  A    between atoms: O_2  and  C_15
    2  A    between atoms: O_2  and  C_23
    3  A    between atoms: C_21  and  C_24
    4  A    between atoms: C_23  and  C_40
    5  A    between atoms: C_23  and  C_65
    6  A    between atoms: C_30  and  C_51
    7  A    between atoms: O_31  and  C_42
    8  A    between atoms: N_37  and  C_49
    9  A    between atoms: C_39  and  C_52
   10  A    between atoms: C_40  and  C_43
   11  A    between atoms: C_41  and  C_54
   12  A    between atoms: C_42  and  O_62
   13  A    between atoms: C_48  and  C_52
   14  A    between atoms: C_48  and  C_65
   15  A    between atoms: C_50  and  C_53
   16  A    between atoms: C_50  and  O_62
                            x       y       z     vdW  Elec       q    Type
                         _______ _______ _______ _____ _____    ______ ____

>  <TORSDO>
F 16

$$$$
=
 OpenBabel11062422473D

 67 74  0  0  1  0  0  0  0  0999 V2000
  187.7600  176.5490  141.3520 O   0  0  0  0  0  0  0  0  0  0  0  0
  191.8740  174.9500  145.4740 C   0  0  0  0  0  0  0  0  0  0  0  0
  189.1180  176.2770  141.5620 C   0  0  2  0  0  3  0  0  0  0  0  0
  193.4480  175.4340  142.0230 N   0  0  0  0  0  0  0  0  0  0  0  0
  190.0470  177.7560  145.9650 C   0  0  0  0  0  2  0  0  0  0  0  0
  188.6480  173.8230  141.3710 C   0  0  0  0  0  2  0  0  0  0  0  0
  191.1020  174.5630  144.5620 O   0  0  0  0  0  0  0  0  0  0  0  0
  187.6510  177.9520  141.2950 C   0  0  2  0  0  3  0  0  0  0  0  0
  190.3840  177.7660  144.4790 C   0  0  0  0  0  2  0  0  0  0  0  0
  193.4400  174.0150  140.0360 C   0  0  0  0  0  2  0  0  0  0  0  0
  189.3150  174.9050  142.1990 C   0  0  0  0  0  2  0  0  0  0  0  0
  189.6850  177.4040  142.3960 C   0  0  2  0  0  3  0  0  0  0  0  0
  189.6700  172.9210  140.6940 C   0  0  0  0  0  2  0  0  0  0  0  0
  193.1530  173.0000  142.1910 C   0  0  0  0  0  2  0  0  0  0  0  0
  193.8470  174.1340  141.4990 C   0  0  2  0  0  3  0  0  0  0  0  0
  193.2800  174.6890  145.3600 N   0  0  0  0  0  0  0  0  0  0  0  0
  193.6880  175.7800  143.2440 C   0  0  0  0  0  0  0  0  0  0  0  0
  189.3100  177.2550  143.7420 O   0  0  0  0  0  0  0  0  0  0  0  0
  192.6240  172.1670  141.3090 C   0  0  1  0  0  3  0  0  0  0  0  0
  195.9560  175.4170  144.7040 S   0  0  0  0  0  1  0  0  0  0  0  0
  189.9730  176.3300  146.5200 C   0  0  0  0  0  2  0  0  0  0  0  0
  188.9410  178.5700  141.8100 C   0  0  0  0  0  2  0  0  0  0  0  0
  190.4520  173.6080  139.5760 C   0  0  1  0  0  3  0  0  0  0  0  0
  191.5320  172.6560  139.0690 C   0  0  0  0  0  2  0  0  0  0  0  0
  191.3330  175.7150  146.6120 C   0  0  0  0  0  0  0  0  0  0  0  0
  193.6770  176.8010  144.3480 O   0  0  0  0  0  0  0  0  0  0  0  0
  192.0890  175.9890  147.6670 C   0  0  0  0  0  2  0  0  0  0  0  0
  193.8430  173.5970  146.1380 C   0  0  0  0  0  1  0  0  0  0  0  0
  194.1460  175.5270  144.5170 C   0  0  2  0  0  0  0  0  0  0  0  0
  192.8190  172.6310  139.9010 C   0  0  1  0  0  3  0  0  0  0  0  0
  192.1680  168.9560  143.4900 C   0  0  0  0  0  1  0  0  0  0  0  0
  192.8550  169.7860  141.3370 O   0  0  0  0  0  0  0  0  0  0  0  0
  192.8130  170.0980  142.7050 C   0  0  1  0  0  0  0  0  0  0  0  0
  192.0090  170.8530  141.7060 C   0  0  1  0  0  3  0  0  0  0  0  0
  194.3110  170.2680  144.5490 C   0  0  0  0  0  2  0  0  0  0  0  0
  196.2550  169.8450  143.2820 C   0  0  2  0  0  3  0  0  0  0  0  0
  194.1010  170.6450  143.1540 N   0  0  1  0  0  0  0  0  0  0  0  0
  195.6690  169.6270  144.6520 C   0  0  0  0  0  2  0  0  0  0  0  0
  195.1270  170.0510  142.3870 N   0  0  0  0  0  2  0  0  0  0  0  0
  197.9410  168.1660  143.6010 O   0  0  0  0  0  0  0  0  0  0  0  0
  197.0850  168.6800  142.8280 C   0  0  0  0  0  0  0  0  0  0  0  0
  196.9850  168.2110  141.4860 N   0  0  0  0  0  1  0  0  0  0  0  0
  189.5380  173.9250  138.3990 C   0  0  0  0  0  2  0  0  0  0  0  0
  190.2990  174.2790  137.2790 O   0  0  0  0  0  0  0  0  0  0  0  0
  190.5680  173.6360  135.0050 C   0  0  0  0  0  1  0  0  0  0  0  0
  189.6270  173.7130  136.1970 C   0  0  1  0  0  3  0  0  0  0  0  0
  189.2010  172.4270  136.5350 O   0  0  0  0  0  0  0  0  0  0  0  0
  189.7900  171.5990  135.5770 C   0  0  0  0  0  1  0  0  0  0  0  0
  186.5890  178.3800  142.1020 O   0  0  0  0  0  0  0  0  0  0  0  0
  185.4440  177.7230  141.6250 C   0  0  1  0  0  3  0  0  0  0  0  0
  184.6270  177.1080  142.7660 C   0  0  0  0  0  2  0  0  0  0  0  0
  185.4420  176.1600  143.6400 C   0  0  0  0  0  2  0  0  0  0  0  0
  185.2510  176.4840  145.1140 C   0  0  0  0  0  2  0  0  0  0  0  0
  187.2450  179.5260  148.1760 C   0  0  0  0  0  2  0  0  0  0  0  0
  185.7550  179.7700  148.3420 C   0  0  0  0  0  2  0  0  0  0  0  0
  186.3770  177.2060  148.0040 C   0  0  0  0  0  2  0  0  0  0  0  0
  186.4310  178.6170  146.0200 C   0  0  2  0  0  3  0  0  0  0  0  0
  186.8310  176.4190  146.9230 O   0  0  0  0  0  0  0  0  0  0  0  0
  186.5090  177.1090  145.7240 C   0  0  1  0  0  3  0  0  0  0  0  0
  186.2460  178.6090  147.4970 C   0  0  0  0  0  0  0  0  0  0  0  0
  184.0010  179.0920  145.5190 N   0  0  0  0  0  1  0  0  0  0  0  0
  185.6780  180.3080  144.4730 O   0  0  0  0  0  0  0  0  0  0  0  0
  185.3700  179.3900  145.2820 C   0  0  0  0  0  0  0  0  0  0  0  0
  184.6140  178.5960  140.6780 C   0  0  0  0  0  2  0  0  0  0  0  0
  182.0790  178.7570  141.1460 C   0  0  0  0  0  1  0  0  0  0  0  0
  183.2210  178.0880  140.4610 C   0  0  0  0  0  0  0  0  0  0  0  0
  183.0150  177.1700  139.6860 O   0  0  0  0  0  0  0  0  0  0  0  0
  1  3  1  0  0  0  0
  2 25  1  0  0  0  0
  3 11  1  1  0  0  0
  3 12  1  0  0  0  0
  4 17  2  0  0  0  0
  5 21  1  0  0  0  0
  6 11  1  0  0  0  0
  7  2  2  0  0  0  0
  8  1  1  0  0  0  0
  8 22  1  0  0  0  0
  8 49  1  1  0  0  0
  9  5  1  0  0  0  0
 12 22  1  6  0  0  0
 12 18  1  0  0  0  0
 13  6  1  0  0  0  0
 15 10  1  6  0  0  0
 15  4  1  0  0  0  0
 15 14  1  0  0  0  0
 16  2  1  0  0  0  0
 16 28  1  0  0  0  0
 17 26  1  0  0  0  0
 17 29  1  0  0  0  0
 18  9  1  0  0  0  0
 19 34  1  0  0  0  0
 19 14  1  6  0  0  0
 21 25  1  0  0  0  0
 23 43  1  6  0  0  0
 23 13  1  0  0  0  0
 24 23  1  0  0  0  0
 25 27  2  0  0  0  0
 26 29  1  0  0  0  0
 29 20  1  1  0  0  0
 29 16  1  0  0  0  0
 30 24  1  1  0  0  0
 30 10  1  0  0  0  0
 30 19  1  0  0  0  0
 32 33  1  0  0  0  0
 33 37  1  0  0  0  0
 33 31  1  1  0  0  0
 34 32  1  6  0  0  0
 34 33  1  0  0  0  0
 35 38  1  0  0  0  0
 36 41  1  6  0  0  0
 36 38  1  0  0  0  0
 37 35  1  1  0  0  0
 39 37  1  0  0  0  0
 39 36  1  0  0  0  0
 41 40  2  0  0  0  0
 42 41  1  0  0  0  0
 44 43  1  0  0  0  0
 46 45  1  6  0  0  0
 46 47  1  0  0  0  0
 46 44  1  0  0  0  0
 48 47  1  0  0  0  0
 50 64  1  1  0  0  0
 50 49  1  0  0  0  0
 50 51  1  0  0  0  0
 51 52  1  0  0  0  0
 52 53  1  0  0  0  0
 54 55  1  0  0  0  0
 57 63  1  6  0  0  0
 57 60  1  0  0  0  0
 58 56  1  0  0  0  0
 59 53  1  1  0  0  0
 59 57  1  0  0  0  0
 59 58  1  0  0  0  0
 60 56  1  0  0  0  0
 60 54  1  0  0  0  0
 60 55  1  0  0  0  0
 62 63  2  0  0  0  0
 63 61  1  0  0  0  0
 66 64  1  0  0  0  0
 66 65  1  0  0  0  0
 67 66  2  0  0  0  0
M  END
>  <MODEL>
4

>  <REMARK>
 VINA RESULT:      -6.6      2.397      4.289
  Name = 
  16 active torsions:
  status: ('A' for Active; 'I' for Inactive)
    1  A    between atoms: O_2  and  C_15
    2  A    between atoms: O_2  and  C_23
    3  A    between atoms: C_21  and  C_24
    4  A    between atoms: C_23  and  C_40
    5  A    between atoms: C_23  and  C_65
    6  A    between atoms: C_30  and  C_51
    7  A    between atoms: O_31  and  C_42
    8  A    between atoms: N_37  and  C_49
    9  A    between atoms: C_39  and  C_52
   10  A    between atoms: C_40  and  C_43
   11  A    between atoms: C_41  and  C_54
   12  A    between atoms: C_42  and  O_62
   13  A    between atoms: C_48  and  C_52
   14  A    between atoms: C_48  and  C_65
   15  A    between atoms: C_50  and  C_53
   16  A    between atoms: C_50  and  O_62
                            x       y       z     vdW  Elec       q    Type
                         _______ _______ _______ _____ _____    ______ ____

>  <TORSDO>
F 16

$$$$
=
 OpenBabel11062422473D

 67 74  0  0  1  0  0  0  0  0999 V2000
  189.7860  174.0090  144.4330 O   0  0  0  0  0  0  0  0  0  0  0  0
  195.7250  173.6900  143.3860 C   0  0  0  0  0  0  0  0  0  0  0  0
  190.7860  174.2090  143.4750 C   0  0  2  0  0  3  0  0  0  0  0  0
  193.8080  174.8790  140.2980 N   0  0  0  0  0  0  0  0  0  0  0  0
  194.5920  175.6650  145.8890 C   0  0  0  0  0  2  0  0  0  0  0  0
  190.7650  171.7580  142.9540 C   0  0  0  0  0  2  0  0  0  0  0  0
  194.6120  173.1130  143.2880 O   0  0  0  0  0  0  0  0  0  0  0  0
  189.4450  175.2910  144.9100 C   0  0  2  0  0  3  0  0  0  0  0  0
  193.6010  175.8740  144.7500 C   0  0  0  0  0  2  0  0  0  0  0  0
  192.4530  173.6590  138.6740 C   0  0  0  0  0  2  0  0  0  0  0  0
  191.6340  172.9540  143.2910 C   0  0  0  0  0  2  0  0  0  0  0  0
  191.5950  175.4130  143.9030 C   0  0  2  0  0  3  0  0  0  0  0  0
  190.9680  171.3020  141.5160 C   0  0  0  0  0  2  0  0  0  0  0  0
  194.1710  172.4870  139.8700 C   0  0  0  0  0  2  0  0  0  0  0  0
  193.8370  173.8280  139.2900 C   0  0  2  0  0  3  0  0  0  0  0  0
  196.4930  173.9350  142.2000 N   0  0  0  0  0  0  0  0  0  0  0  0
  194.8640  175.2170  140.9610 C   0  0  0  0  0  0  0  0  0  0  0  0
  192.4750  175.0690  144.9430 O   0  0  0  0  0  0  0  0  0  0  0  0
  193.2980  171.5750  139.4740 C   0  0  1  0  0  3  0  0  0  0  0  0
  197.4050  175.5730  140.0540 S   0  0  0  0  0  1  0  0  0  0  0  0
  195.2270  174.2710  145.8410 C   0  0  0  0  0  2  0  0  0  0  0  0
  190.5030  176.2840  144.4570 C   0  0  0  0  0  2  0  0  0  0  0  0
  190.4180  172.2770  140.4780 C   0  0  1  0  0  3  0  0  0  0  0  0
  190.7970  171.7850  139.0840 C   0  0  0  0  0  2  0  0  0  0  0  0
  196.1910  174.1570  144.7030 C   0  0  0  0  0  0  0  0  0  0  0  0
  195.5700  176.1080  141.9460 O   0  0  0  0  0  0  0  0  0  0  0  0
  197.4260  174.6130  144.8640 C   0  0  0  0  0  2  0  0  0  0  0  0
  197.6200  173.0600  141.9170 C   0  0  0  0  0  1  0  0  0  0  0  0
  196.1860  175.0650  141.3110 C   0  0  2  0  0  0  0  0  0  0  0  0
  192.2130  172.1560  138.6260 C   0  0  1  0  0  3  0  0  0  0  0  0
  195.2070  168.1660  139.5950 C   0  0  0  0  0  1  0  0  0  0  0  0
  193.3840  169.3610  138.5710 O   0  0  0  0  0  0  0  0  0  0  0  0
  194.6710  169.5130  139.1120 C   0  0  1  0  0  0  0  0  0  0  0  0
  193.4740  170.1090  139.7640 C   0  0  1  0  0  3  0  0  0  0  0  0
  196.9070  170.1680  138.6120 C   0  0  0  0  0  2  0  0  0  0  0  0
  196.6530  170.0150  136.2710 C   0  0  2  0  0  3  0  0  0  0  0  0
  195.5060  170.3500  138.2380 N   0  0  1  0  0  0  0  0  0  0  0  0
  197.6730  169.8250  137.3630 C   0  0  0  0  0  2  0  0  0  0  0  0
  195.3510  169.8990  136.9090 N   0  0  0  0  0  2  0  0  0  0  0  0
  197.8700  168.9250  134.5130 O   0  0  0  0  0  0  0  0  0  0  0  0
  196.7980  169.0010  135.1750 C   0  0  0  0  0  0  0  0  0  0  0  0
  195.6910  168.1830  134.8070 N   0  0  0  0  0  1  0  0  0  0  0  0
  188.8970  172.3280  140.5420 C   0  0  0  0  0  2  0  0  0  0  0  0
  188.3880  173.0030  139.4260 O   0  0  0  0  0  0  0  0  0  0  0  0
  187.6740  175.1890  138.8180 C   0  0  0  0  0  1  0  0  0  0  0  0
  188.5820  174.3540  139.7070 C   0  0  1  0  0  3  0  0  0  0  0  0
  188.2720  174.6000  141.0470 O   0  0  0  0  0  0  0  0  0  0  0  0
  187.2680  175.5710  141.0020 C   0  0  0  0  0  1  0  0  0  0  0  0
  189.4010  175.2810  146.3100 O   0  0  0  0  0  0  0  0  0  0  0  0
  188.8790  176.5260  146.6960 C   0  0  1  0  0  3  0  0  0  0  0  0
  187.4750  176.3920  147.2930 C   0  0  0  0  0  2  0  0  0  0  0  0
  186.3980  177.0520  146.4380 C   0  0  0  0  0  2  0  0  0  0  0  0
  186.9940  178.1450  145.5650 C   0  0  0  0  0  2  0  0  0  0  0  0
  183.1710  179.4170  143.0420 C   0  0  0  0  0  2  0  0  0  0  0  0
  183.4750  178.0120  142.5530 C   0  0  0  0  0  2  0  0  0  0  0  0
  183.8400  178.3260  145.1700 C   0  0  0  0  0  2  0  0  0  0  0  0
  185.5510  179.2520  143.7050 C   0  0  2  0  0  3  0  0  0  0  0  0
  184.7850  178.9970  145.9760 O   0  0  0  0  0  0  0  0  0  0  0  0
  185.9510  179.2030  145.1910 C   0  0  1  0  0  3  0  0  0  0  0  0
  184.2230  178.5810  143.7450 C   0  0  0  0  0  0  0  0  0  0  0  0
  186.1620  178.5480  141.3570 N   0  0  0  0  0  1  0  0  0  0  0  0
  187.6350  178.1920  143.1130 O   0  0  0  0  0  0  0  0  0  0  0  0
  186.5150  178.6280  142.7310 C   0  0  0  0  0  0  0  0  0  0  0  0
  189.8470  177.3250  147.5750 C   0  0  0  0  0  2  0  0  0  0  0  0
  192.3020  177.2170  148.3740 C   0  0  0  0  0  1  0  0  0  0  0  0
  191.0210  176.5260  148.0520 C   0  0  0  0  0  0  0  0  0  0  0  0
  190.9160  175.3240  148.2300 O   0  0  0  0  0  0  0  0  0  0  0  0
  1  8  1  0  0  0  0
  2 25  1  0  0  0  0
  3 11  1  1  0  0  0
  3 12  1  0  0  0  0
  3  1  1  0  0  0  0
  4 17  2  0  0  0  0
  6 11  1  0  0  0  0
  7  2  2  0  0  0  0
  8 49  1  1  0  0  0
  9 18  1  0  0  0  0
  9  5  1  0  0  0  0
 12 22  1  1  0  0  0
 12 18  1  0  0  0  0
 13  6  1  0  0  0  0
 15 10  1  1  0  0  0
 15 14  1  0  0  0  0
 15  4  1  0  0  0  0
 16  2  1  0  0  0  0
 17 29  1  0  0  0  0
 17 26  1  0  0  0  0
 19 34  1  0  0  0  0
 19 14  1  6  0  0  0
 21  5  1  0  0  0  0
 22  8  1  0  0  0  0
 23 43  1  6  0  0  0
 23 13  1  0  0  0  0
 24 23  1  0  0  0  0
 25 27  2  0  0  0  0
 25 21  1  0  0  0  0
 28 16  1  0  0  0  0
 29 20  1  6  0  0  0
 29 26  1  0  0  0  0
 29 16  1  0  0  0  0
 30 10  1  1  0  0  0
 30 24  1  0  0  0  0
 30 19  1  0  0  0  0
 32 33  1  0  0  0  0
 33 31  1  1  0  0  0
 33 34  1  0  0  0  0
 34 32  1  6  0  0  0
 36 41  1  6  0  0  0
 36 39  1  0  0  0  0
 36 38  1  0  0  0  0
 37 35  1  1  0  0  0
 37 33  1  0  0  0  0
 38 35  1  0  0  0  0
 39 37  1  0  0  0  0
 40 41  2  0  0  0  0
 42 41  1  0  0  0  0
 44 46  1  0  0  0  0
 44 43  1  0  0  0  0
 46 45  1  6  0  0  0
 46 47  1  0  0  0  0
 48 47  1  0  0  0  0
 49 50  1  0  0  0  0
 50 51  1  1  0  0  0
 50 64  1  0  0  0  0
 52 51  1  0  0  0  0
 53 52  1  0  0  0  0
 54 60  1  0  0  0  0
 55 54  1  0  0  0  0
 55 60  1  0  0  0  0
 56 58  1  0  0  0  0
 57 63  1  6  0  0  0
 57 60  1  0  0  0  0
 57 59  1  0  0  0  0
 59 53  1  6  0  0  0
 59 58  1  0  0  0  0
 60 56  1  0  0  0  0
 61 63  1  0  0  0  0
 63 62  2  0  0  0  0
 64 66  1  0  0  0  0
 66 67  2  0  0  0  0
 66 65  1  0  0  0  0
M  END
>  <MODEL>
5

>  <REMARK>
 VINA RESULT:      -5.9      2.844      4.636
  Name = 
  16 active torsions:
  status: ('A' for Active; 'I' for Inactive)
    1  A    between atoms: O_2  and  C_15
    2  A    between atoms: O_2  and  C_23
    3  A    between atoms: C_21  and  C_24
    4  A    between atoms: C_23  and  C_40
    5  A    between atoms: C_23  and  C_65
    6  A    between atoms: C_30  and  C_51
    7  A    between atoms: O_31  and  C_42
    8  A    between atoms: N_37  and  C_49
    9  A    between atoms: C_39  and  C_52
   10  A    between atoms: C_40  and  C_43
   11  A    between atoms: C_41  and  C_54
   12  A    between atoms: C_42  and  O_62
   13  A    between atoms: C_48  and  C_52
   14  A    between atoms: C_48  and  C_65
   15  A    between atoms: C_50  and  C_53
   16  A    between atoms: C_50  and  O_62
                            x       y       z     vdW  Elec       q    Type
                         _______ _______ _______ _____ _____    ______ ____

>  <TORSDO>
F 16

$$$$
=
 OpenBabel11062422473D

 67 74  0  0  1  0  0  0  0  0999 V2000
  189.9000  175.0300  142.2280 O   0  0  0  0  0  0  0  0  0  0  0  0
  191.2740  173.0460  136.6920 C   0  0  0  0  0  0  0  0  0  0  0  0
  190.3220  173.9200  141.4870 C   0  0  2  0  0  3  0  0  0  0  0  0
  191.6850  170.2980  139.3190 N   0  0  0  0  0  0  0  0  0  0  0  0
  188.1910  174.3120  137.2760 C   0  0  0  0  0  2  0  0  0  0  0  0
  192.6730  174.7850  141.5430 C   0  0  0  0  0  2  0  0  0  0  0  0
  191.7100  173.5120  137.7750 O   0  0  0  0  0  0  0  0  0  0  0  0
  188.5320  174.8220  142.4920 C   0  0  2  0  0  3  0  0  0  0  0  0
  188.5100  173.4810  138.5120 C   0  0  0  0  0  2  0  0  0  0  0  0
  193.4370  169.9000  140.9730 C   0  0  0  0  0  2  0  0  0  0  0  0
  191.5640  174.2440  140.6620 C   0  0  0  0  0  2  0  0  0  0  0  0
  189.1530  173.4630  140.6440 C   0  0  2  0  0  3  0  0  0  0  0  0
  193.8250  173.7990  141.6670 C   0  0  0  0  0  2  0  0  0  0  0  0
  193.9740  171.1270  138.9820 C   0  0  0  0  0  2  0  0  0  0  0  0
  193.1040  170.0170  139.4900 C   0  0  2  0  0  3  0  0  0  0  0  0
  191.7540  171.7760  136.2320 N   0  0  0  0  0  0  0  0  0  0  0  0
  191.1530  170.4370  138.1500 C   0  0  0  0  0  0  0  0  0  0  0  0
  188.9890  174.3080  139.5330 O   0  0  0  0  0  0  0  0  0  0  0  0
  194.8720  171.4710  139.8910 C   0  0  1  0  0  3  0  0  0  0  0  0
  191.5610  168.9510  135.9060 S   0  0  0  0  0  1  0  0  0  0  0  0
  189.4600  174.8680  136.6210 C   0  0  0  0  0  2  0  0  0  0  0  0
  188.0230  173.6970  141.6050 C   0  0  0  0  0  2  0  0  0  0  0  0
  193.4840  172.5520  142.4790 C   0  0  1  0  0  3  0  0  0  0  0  0
  194.6610  171.5820  142.4190 C   0  0  0  0  0  2  0  0  0  0  0  0
  190.2380  173.7830  135.9460 C   0  0  0  0  0  0  0  0  0  0  0  0
  189.9520  170.6250  137.2650 O   0  0  0  0  0  0  0  0  0  0  0  0
  189.8830  173.4070  134.7250 C   0  0  0  0  0  2  0  0  0  0  0  0
  192.7500  171.7590  135.1720 C   0  0  0  0  0  1  0  0  0  0  0  0
  191.2250  170.5170  136.7770 C   0  0  2  0  0  0  0  0  0  0  0  0
  194.7160  170.7030  141.1640 C   0  0  1  0  0  3  0  0  0  0  0  0
  197.1570  173.7110  137.6460 C   0  0  0  0  0  1  0  0  0  0  0  0
  197.0970  171.7640  139.0600 O   0  0  0  0  0  0  0  0  0  0  0  0
  196.3380  172.5260  138.1570 C   0  0  1  0  0  0  0  0  0  0  0  0
  195.9840  172.4420  139.6000 C   0  0  1  0  0  3  0  0  0  0  0  0
  195.9250  172.1390  135.8440 C   0  0  0  0  0  2  0  0  0  0  0  0
  196.2300  169.8030  135.9630 C   0  0  2  0  0  3  0  0  0  0  0  0
  195.6470  171.6570  137.1950 N   0  0  1  0  0  0  0  0  0  0  0  0
  196.4270  170.9730  135.0350 C   0  0  0  0  0  2  0  0  0  0  0  0
  196.1820  170.3550  137.3080 N   0  0  0  0  0  2  0  0  0  0  0  0
  197.8870  168.3270  136.8790 O   0  0  0  0  0  0  0  0  0  0  0  0
  197.3340  168.7930  135.8440 C   0  0  0  0  0  0  0  0  0  0  0  0
  197.8350  168.4280  134.5610 N   0  0  0  0  0  1  0  0  0  0  0  0
  193.2640  172.9090  143.9430 C   0  0  0  0  0  2  0  0  0  0  0  0
  191.9020  172.8440  144.2580 O   0  0  0  0  0  0  0  0  0  0  0  0
  192.5670  170.6230  144.7860 C   0  0  0  0  0  1  0  0  0  0  0  0
  191.5550  171.5070  144.0750 C   0  0  1  0  0  3  0  0  0  0  0  0
  190.2840  171.2790  144.6080 O   0  0  0  0  0  0  0  0  0  0  0  0
  189.7790  172.5550  144.8690 C   0  0  0  0  0  1  0  0  0  0  0  0
  187.8090  175.9880  142.2070 O   0  0  0  0  0  0  0  0  0  0  0  0
  187.0510  176.2720  143.3540 C   0  0  1  0  0  3  0  0  0  0  0  0
  187.8070  177.1890  144.3210 C   0  0  0  0  0  2  0  0  0  0  0  0
  188.3040  176.4630  145.5670 C   0  0  0  0  0  2  0  0  0  0  0  0
  189.7050  176.9250  145.9390 C   0  0  0  0  0  2  0  0  0  0  0  0
  194.2430  176.0630  144.8150 C   0  0  0  0  0  2  0  0  0  0  0  0
  194.2440  177.5250  145.2270 C   0  0  0  0  0  2  0  0  0  0  0  0
  192.6510  176.0050  146.7200 C   0  0  0  0  0  2  0  0  0  0  0  0
  191.8430  176.5860  144.4980 C   0  0  2  0  0  3  0  0  0  0  0  0
  191.4190  175.3460  146.5200 O   0  0  0  0  0  0  0  0  0  0  0  0
  190.7750  175.9630  145.4150 C   0  0  1  0  0  3  0  0  0  0  0  0
  193.0010  176.6780  145.4290 C   0  0  0  0  0  0  0  0  0  0  0  0
  190.9680  177.8960  142.5230 N   0  0  0  0  0  1  0  0  0  0  0  0
  191.6210  178.9880  144.4630 O   0  0  0  0  0  0  0  0  0  0  0  0
  191.4850  177.8960  143.8470 C   0  0  0  0  0  0  0  0  0  0  0  0
  185.6380  176.7600  143.0210 C   0  0  0  0  0  2  0  0  0  0  0  0
  184.7080  178.7260  144.4150 C   0  0  0  0  0  1  0  0  0  0  0  0
  185.4510  178.2330  143.2210 C   0  0  0  0  0  0  0  0  0  0  0  0
  185.9510  179.0270  142.4430 O   0  0  0  0  0  0  0  0  0  0  0  0
  1  8  1  0  0  0  0
  2  7  2  0  0  0  0
  3 11  1  6  0  0  0
  3  1  1  0  0  0  0
  4 15  1  0  0  0  0
  5  9  1  0  0  0  0
  6 13  1  0  0  0  0
  8 49  1  6  0  0  0
  9 18  1  0  0  0  0
 11  6  1  0  0  0  0
 12  3  1  0  0  0  0
 12 22  1  1  0  0  0
 13 23  1  0  0  0  0
 15 14  1  1  0  0  0
 15 10  1  0  0  0  0
 16  2  1  0  0  0  0
 16 29  1  0  0  0  0
 17  4  2  0  0  0  0
 18 12  1  0  0  0  0
 19 14  1  6  0  0  0
 19 30  1  0  0  0  0
 21  5  1  0  0  0  0
 22  8  1  0  0  0  0
 23 43  1  1  0  0  0
 24 23  1  0  0  0  0
 25 21  1  0  0  0  0
 25  2  1  0  0  0  0
 26 17  1  0  0  0  0
 27 25  2  0  0  0  0
 28 16  1  0  0  0  0
 29 20  1  6  0  0  0
 29 26  1  0  0  0  0
 29 17  1  0  0  0  0
 30 10  1  6  0  0  0
 30 24  1  0  0  0  0
 33 31  1  6  0  0  0
 33 32  1  0  0  0  0
 33 34  1  0  0  0  0
 34 32  1  1  0  0  0
 34 19  1  0  0  0  0
 36 41  1  1  0  0  0
 36 39  1  0  0  0  0
 37 35  1  6  0  0  0
 37 39  1  0  0  0  0
 37 33  1  0  0  0  0
 38 35  1  0  0  0  0
 38 36  1  0  0  0  0
 41 40  2  0  0  0  0
 42 41  1  0  0  0  0
 43 44  1  0  0  0  0
 46 44  1  0  0  0  0
 46 47  1  0  0  0  0
 46 45  1  1  0  0  0
 47 48  1  0  0  0  0
 49 50  1  0  0  0  0
 50 64  1  6  0  0  0
 50 51  1  0  0  0  0
 51 52  1  0  0  0  0
 52 53  1  0  0  0  0
 54 55  1  0  0  0  0
 54 60  1  0  0  0  0
 55 60  1  0  0  0  0
 57 63  1  1  0  0  0
 57 59  1  0  0  0  0
 57 60  1  0  0  0  0
 58 56  1  0  0  0  0
 59 53  1  1  0  0  0
 59 58  1  0  0  0  0
 60 56  1  0  0  0  0
 61 63  1  0  0  0  0
 63 62  2  0  0  0  0
 64 66  1  0  0  0  0
 66 65  1  0  0  0  0
 67 66  2  0  0  0  0
M  END
>  <MODEL>
6

>  <REMARK>
 VINA RESULT:      -5.5      3.710      8.054
  Name = 
  16 active torsions:
  status: ('A' for Active; 'I' for Inactive)
    1  A    between atoms: O_2  and  C_15
    2  A    between atoms: O_2  and  C_23
    3  A    between atoms: C_21  and  C_24
    4  A    between atoms: C_23  and  C_40
    5  A    between atoms: C_23  and  C_65
    6  A    between atoms: C_30  and  C_51
    7  A    between atoms: O_31  and  C_42
    8  A    between atoms: N_37  and  C_49
    9  A    between atoms: C_39  and  C_52
   10  A    between atoms: C_40  and  C_43
   11  A    between atoms: C_41  and  C_54
   12  A    between atoms: C_42  and  O_62
   13  A    between atoms: C_48  and  C_52
   14  A    between atoms: C_48  and  C_65
   15  A    between atoms: C_50  and  C_53
   16  A    between atoms: C_50  and  O_62
                            x       y       z     vdW  Elec       q    Type
                         _______ _______ _______ _____ _____    ______ ____

>  <TORSDO>
F 16

$$$$
=
 OpenBabel11062422473D

 67 74  0  0  1  0  0  0  0  0999 V2000
  187.7500  174.4380  140.6980 O   0  0  0  0  0  0  0  0  0  0  0  0
  192.7940  171.2900  141.7590 C   0  0  0  0  0  0  0  0  0  0  0  0
  189.1190  174.3500  140.4190 C   0  0  2  0  0  3  0  0  0  0  0  0
  193.4330  174.2280  139.3970 N   0  0  0  0  0  0  0  0  0  0  0  0
  191.1190  172.6560  144.3640 C   0  0  0  0  0  2  0  0  0  0  0  0
  188.6440  172.6190  138.6720 C   0  0  0  0  0  2  0  0  0  0  0  0
  191.8190  171.4760  140.9880 O   0  0  0  0  0  0  0  0  0  0  0  0
  187.6140  175.4700  141.6470 C   0  0  2  0  0  3  0  0  0  0  0  0
  191.0670  173.7150  143.2700 C   0  0  0  0  0  2  0  0  0  0  0  0
  192.9370  174.5250  137.0250 C   0  0  0  0  0  2  0  0  0  0  0  0
  189.4870  172.9710  139.8820 C   0  0  0  0  0  2  0  0  0  0  0  0
  189.8670  174.7130  141.6830 C   0  0  2  0  0  3  0  0  0  0  0  0
  189.4700  172.6050  137.3940 C   0  0  0  0  0  2  0  0  0  0  0  0
  193.2180  172.3030  137.8850 C   0  0  0  0  0  2  0  0  0  0  0  0
  193.7010  173.7110  138.0610 C   0  0  2  0  0  3  0  0  0  0  0  0
  194.1270  171.4360  141.2510 N   0  0  0  0  0  0  0  0  0  0  0  0
  193.9720  173.7090  140.4500 C   0  0  0  0  0  0  0  0  0  0  0  0
  189.8480  173.6400  142.5890 O   0  0  0  0  0  0  0  0  0  0  0  0
  192.4920  172.1930  136.7840 C   0  0  1  0  0  3  0  0  0  0  0  0
  196.5400  172.8900  140.8240 S   0  0  0  0  0  1  0  0  0  0  0  0
  191.2050  171.2410  143.7810 C   0  0  0  0  0  2  0  0  0  0  0  0
  188.9850  175.8100  142.2080 C   0  0  0  0  0  2  0  0  0  0  0  0
  189.9350  173.9890  136.9470 C   0  0  1  0  0  3  0  0  0  0  0  0
  190.8610  173.8380  135.7440 C   0  0  0  0  0  2  0  0  0  0  0  0
  192.5510  170.9860  143.1810 C   0  0  0  0  0  0  0  0  0  0  0  0
  194.2300  173.7090  141.9320 O   0  0  0  0  0  0  0  0  0  0  0  0
  193.5460  170.6190  143.9770 C   0  0  0  0  0  2  0  0  0  0  0  0
  194.8810  170.2310  140.9430 C   0  0  0  0  0  1  0  0  0  0  0  0
  194.7410  172.7620  141.0880 C   0  0  2  0  0  0  0  0  0  0  0  0
  192.3180  173.5010  136.0830 C   0  0  1  0  0  3  0  0  0  0  0  0
  192.5380  168.3100  136.3310 C   0  0  0  0  0  1  0  0  0  0  0  0
  192.8480  170.4210  135.2150 O   0  0  0  0  0  0  0  0  0  0  0  0
  192.9970  169.7630  136.4460 C   0  0  1  0  0  0  0  0  0  0  0  0
  192.0130  170.8650  136.2630 C   0  0  1  0  0  3  0  0  0  0  0  0
  194.8070  168.8610  137.7060 C   0  0  0  0  0  2  0  0  0  0  0  0
  196.4950  169.8180  136.3650 C   0  0  2  0  0  3  0  0  0  0  0  0
  194.3080  170.0620  137.0390 N   0  0  1  0  0  0  0  0  0  0  0  0
  196.1980  168.5980  137.1960 C   0  0  0  0  0  2  0  0  0  0  0  0
  195.2050  170.3820  135.9970 N   0  0  0  0  0  2  0  0  0  0  0  0
  197.9250  170.3960  134.5260 O   0  0  0  0  0  0  0  0  0  0  0  0
  197.2980  169.4890  135.1410 C   0  0  0  0  0  0  0  0  0  0  0  0
  197.2760  168.1690  134.6050 N   0  0  0  0  0  1  0  0  0  0  0  0
  188.7490  174.8350  136.5020 C   0  0  0  0  0  2  0  0  0  0  0  0
  187.6800  174.6750  137.3920 O   0  0  0  0  0  0  0  0  0  0  0  0
  186.6520  176.6280  138.2800 C   0  0  0  0  0  1  0  0  0  0  0  0
  186.7960  175.7060  137.0790 C   0  0  1  0  0  3  0  0  0  0  0  0
  187.2940  176.4320  135.9950 O   0  0  0  0  0  0  0  0  0  0  0  0
  186.2430  176.4510  135.0740 C   0  0  0  0  0  1  0  0  0  0  0  0
  186.7860  175.0470  142.6960 O   0  0  0  0  0  0  0  0  0  0  0  0
  186.2060  176.2070  143.2320 C   0  0  1  0  0  3  0  0  0  0  0  0
  186.7310  176.5050  144.6400 C   0  0  0  0  0  2  0  0  0  0  0  0
  188.2520  176.5980  144.7020 C   0  0  0  0  0  2  0  0  0  0  0  0
  188.7240  176.8040  146.1340 C   0  0  0  0  0  2  0  0  0  0  0  0
  193.4670  176.8910  145.8300 C   0  0  0  0  0  2  0  0  0  0  0  0
  193.1220  175.4220  145.6690 C   0  0  0  0  0  2  0  0  0  0  0  0
  191.4120  177.0520  144.4460 C   0  0  0  0  0  2  0  0  0  0  0  0
  191.2180  176.8770  146.8680 C   0  0  2  0  0  3  0  0  0  0  0  0
  190.4120  177.9540  144.8680 O   0  0  0  0  0  0  0  0  0  0  0  0
  190.0360  177.5930  146.1890 C   0  0  1  0  0  3  0  0  0  0  0  0
  192.0200  176.4650  145.6820 C   0  0  0  0  0  0  0  0  0  0  0  0
  190.1910  174.6040  147.2670 N   0  0  0  0  0  1  0  0  0  0  0  0
  191.1920  175.7660  149.0080 O   0  0  0  0  0  0  0  0  0  0  0  0
  190.8720  175.7370  147.7890 C   0  0  0  0  0  0  0  0  0  0  0  0
  186.2890  177.4030  142.2790 C   0  0  0  0  0  2  0  0  0  0  0  0
  185.2970  179.4440  143.5150 C   0  0  0  0  0  1  0  0  0  0  0  0
  185.1810  178.3940  142.4640 C   0  0  0  0  0  0  0  0  0  0  0  0
  184.2130  178.3790  141.7220 O   0  0  0  0  0  0  0  0  0  0  0  0
  1  8  1  0  0  0  0
  2 25  1  0  0  0  0
  3 11  1  1  0  0  0
  3  1  1  0  0  0  0
  3 12  1  0  0  0  0
  4 17  2  0  0  0  0
  6 11  1  0  0  0  0
  7  2  2  0  0  0  0
  8 22  1  0  0  0  0
  8 49  1  1  0  0  0
  9  5  1  0  0  0  0
 12 22  1  1  0  0  0
 12 18  1  0  0  0  0
 13  6  1  0  0  0  0
 14 15  1  0  0  0  0
 15 10  1  6  0  0  0
 15  4  1  0  0  0  0
 16  2  1  0  0  0  0
 17 29  1  0  0  0  0
 17 26  1  0  0  0  0
 18  9  1  0  0  0  0
 19 14  1  6  0  0  0
 21  5  1  0  0  0  0
 23 43  1  6  0  0  0
 23 13  1  0  0  0  0
 24 23  1  0  0  0  0
 25 21  1  0  0  0  0
 25 27  2  0  0  0  0
 28 16  1  0  0  0  0
 29 20  1  6  0  0  0
 29 16  1  0  0  0  0
 29 26  1  0  0  0  0
 30 24  1  1  0  0  0
 30 19  1  0  0  0  0
 30 10  1  0  0  0  0
 32 33  1  0  0  0  0
 33 31  1  1  0  0  0
 33 37  1  0  0  0  0
 34 32  1  6  0  0  0
 34 33  1  0  0  0  0
 34 19  1  0  0  0  0
 36 41  1  6  0  0  0
 36 38  1  0  0  0  0
 37 35  1  6  0  0  0
 38 35  1  0  0  0  0
 39 36  1  0  0  0  0
 39 37  1  0  0  0  0
 40 41  2  0  0  0  0
 42 41  1  0  0  0  0
 43 44  1  0  0  0  0
 46 44  1  0  0  0  0
 46 45  1  1  0  0  0
 47 46  1  0  0  0  0
 48 47  1  0  0  0  0
 49 50  1  0  0  0  0
 50 64  1  6  0  0  0
 50 51  1  0  0  0  0
 51 52  1  0  0  0  0
 52 53  1  0  0  0  0
 55 60  1  0  0  0  0
 55 54  1  0  0  0  0
 56 58  1  0  0  0  0
 56 60  1  0  0  0  0
 57 63  1  6  0  0  0
 58 59  1  0  0  0  0
 59 53  1  6  0  0  0
 59 57  1  0  0  0  0
 60 54  1  0  0  0  0
 60 57  1  0  0  0  0
 61 63  1  0  0  0  0
 63 62  2  0  0  0  0
 64 66  1  0  0  0  0
 66 65  1  0  0  0  0
 67 66  2  0  0  0  0
M  END
>  <MODEL>
7

>  <REMARK>
 VINA RESULT:      -5.4      3.360      6.373
  Name = 
  16 active torsions:
  status: ('A' for Active; 'I' for Inactive)
    1  A    between atoms: O_2  and  C_15
    2  A    between atoms: O_2  and  C_23
    3  A    between atoms: C_21  and  C_24
    4  A    between atoms: C_23  and  C_40
    5  A    between atoms: C_23  and  C_65
    6  A    between atoms: C_30  and  C_51
    7  A    between atoms: O_31  and  C_42
    8  A    between atoms: N_37  and  C_49
    9  A    between atoms: C_39  and  C_52
   10  A    between atoms: C_40  and  C_43
   11  A    between atoms: C_41  and  C_54
   12  A    between atoms: C_42  and  O_62
   13  A    between atoms: C_48  and  C_52
   14  A    between atoms: C_48  and  C_65
   15  A    between atoms: C_50  and  C_53
   16  A    between atoms: C_50  and  O_62
                            x       y       z     vdW  Elec       q    Type
                         _______ _______ _______ _____ _____    ______ ____

>  <TORSDO>
F 16

$$$$
=
 OpenBabel11062422473D

 67 74  0  0  1  0  0  0  0  0999 V2000
  191.7610  175.3780  145.3580 O   0  0  0  0  0  0  0  0  0  0  0  0
  195.8730  171.5020  143.2280 C   0  0  0  0  0  0  0  0  0  0  0  0
  192.5170  175.0210  144.2360 C   0  0  2  0  0  3  0  0  0  0  0  0
  194.8110  174.0370  140.5690 N   0  0  0  0  0  0  0  0  0  0  0  0
  196.6260  173.3890  145.9340 C   0  0  0  0  0  2  0  0  0  0  0  0
  190.8450  173.2410  143.6820 C   0  0  0  0  0  2  0  0  0  0  0  0
  194.6520  171.7830  143.3270 O   0  0  0  0  0  0  0  0  0  0  0  0
  192.3980  176.5050  145.9130 C   0  0  2  0  0  3  0  0  0  0  0  0
  195.8730  174.3300  145.0010 C   0  0  0  0  0  2  0  0  0  0  0  0
  192.7940  174.1860  139.2010 C   0  0  0  0  0  2  0  0  0  0  0  0
  192.3160  173.5530  143.8750 C   0  0  0  0  0  2  0  0  0  0  0  0
  193.9600  175.3670  144.5300 C   0  0  2  0  0  3  0  0  0  0  0  0
  190.5160  172.9570  142.2230 C   0  0  0  0  0  2  0  0  0  0  0  0
  193.4760  172.0430  140.0370 C   0  0  0  0  0  2  0  0  0  0  0  0
  194.0210  173.3530  139.5530 C   0  0  2  0  0  3  0  0  0  0  0  0
  196.4560  171.3590  141.9250 N   0  0  0  0  0  0  0  0  0  0  0  0
  195.9070  173.5340  141.0320 C   0  0  0  0  0  0  0  0  0  0  0  0
  194.5300  174.4070  145.3830 O   0  0  0  0  0  0  0  0  0  0  0  0
  192.1780  171.9570  139.7920 C   0  0  1  0  0  3  0  0  0  0  0  0
  197.9280  172.3120  139.6790 S   0  0  0  0  0  1  0  0  0  0  0  0
  196.1920  171.9320  145.7430 C   0  0  0  0  0  2  0  0  0  0  0  0
  193.7780  176.6490  145.2920 C   0  0  0  0  0  2  0  0  0  0  0  0
  190.6030  174.1860  141.3220 C   0  0  1  0  0  3  0  0  0  0  0  0
  190.3890  173.7570  139.8730 C   0  0  0  0  0  2  0  0  0  0  0  0
  196.6950  171.3850  144.4460 C   0  0  0  0  0  0  0  0  0  0  0  0
  197.1410  173.6320  141.8870 O   0  0  0  0  0  0  0  0  0  0  0  0
  197.9380  170.9260  144.3850 C   0  0  0  0  0  2  0  0  0  0  0  0
  196.6980  170.0150  141.4240 C   0  0  0  0  0  1  0  0  0  0  0  0
  196.8460  172.5320  141.1300 C   0  0  2  0  0  0  0  0  0  0  0  0
  191.6330  173.2020  139.1700 C   0  0  1  0  0  3  0  0  0  0  0  0
  191.0690  168.2750  139.0880 C   0  0  0  0  0  1  0  0  0  0  0  0
  190.3650  170.5780  139.0620 O   0  0  0  0  0  0  0  0  0  0  0  0
  191.4730  169.7350  138.8800 C   0  0  1  0  0  0  0  0  0  0  0  0
  191.3970  170.6920  140.0170 C   0  0  1  0  0  3  0  0  0  0  0  0
  192.1310  169.0200  136.7050 C   0  0  0  0  0  2  0  0  0  0  0  0
  191.6780  171.0840  135.6580 C   0  0  2  0  0  3  0  0  0  0  0  0
  192.2200  170.1120  137.6720 N   0  0  1  0  0  0  0  0  0  0  0  0
  191.6590  169.6010  135.3990 C   0  0  0  0  0  2  0  0  0  0  0  0
  191.6010  171.2450  137.1020 N   0  0  0  0  0  2  0  0  0  0  0  0
  189.4680  171.1760  134.7240 O   0  0  0  0  0  0  0  0  0  0  0  0
  190.5390  171.7930  134.9850 C   0  0  0  0  0  0  0  0  0  0  0  0
  190.6950  173.1380  134.5430 N   0  0  0  0  0  1  0  0  0  0  0  0
  189.5030  175.1830  141.6670 C   0  0  0  0  0  2  0  0  0  0  0  0
  188.5050  175.1590  140.6850 O   0  0  0  0  0  0  0  0  0  0  0  0
  187.1010  176.6180  139.4380 C   0  0  0  0  0  1  0  0  0  0  0  0
  188.0100  176.4610  140.6460 C   0  0  1  0  0  3  0  0  0  0  0  0
  187.2830  176.7170  141.8110 O   0  0  0  0  0  0  0  0  0  0  0  0
  186.1180  177.3470  141.3660 C   0  0  0  0  0  1  0  0  0  0  0  0
  192.5380  176.3390  147.2970 O   0  0  0  0  0  0  0  0  0  0  0  0
  191.2380  176.3250  147.8260 C   0  0  1  0  0  3  0  0  0  0  0  0
  190.2980  177.2490  147.0440 C   0  0  0  0  0  2  0  0  0  0  0  0
  189.5350  178.2190  147.9390 C   0  0  0  0  0  2  0  0  0  0  0  0
  188.3640  178.8400  147.1900 C   0  0  0  0  0  2  0  0  0  0  0  0
  184.8500  177.7690  144.1720 C   0  0  0  0  0  2  0  0  0  0  0  0
  184.5920  179.2230  144.5270 C   0  0  0  0  0  2  0  0  0  0  0  0
  187.1730  178.6440  144.2440 C   0  0  0  0  0  2  0  0  0  0  0  0
  186.1040  177.9070  146.3040 C   0  0  2  0  0  3  0  0  0  0  0  0
  188.1230  177.9100  144.9880 O   0  0  0  0  0  0  0  0  0  0  0  0
  187.6400  177.8080  146.3190 C   0  0  1  0  0  3  0  0  0  0  0  0
  185.8730  178.5460  144.9790 C   0  0  0  0  0  0  0  0  0  0  0  0
  184.3690  178.0590  148.1340 N   0  0  0  0  0  1  0  0  0  0  0  0
  185.9080  179.7680  147.8250 O   0  0  0  0  0  0  0  0  0  0  0  0
  185.4690  178.6470  147.4510 C   0  0  0  0  0  0  0  0  0  0  0  0
  190.6910  174.9060  148.0110 C   0  0  0  0  0  2  0  0  0  0  0  0
  189.1610  174.6350  145.9470 C   0  0  0  0  0  1  0  0  0  0  0  0
  189.3260  174.7090  147.4260 C   0  0  0  0  0  0  0  0  0  0  0  0
  188.3620  174.5540  148.1560 O   0  0  0  0  0  0  0  0  0  0  0  0
  1  8  1  0  0  0  0
  2  7  2  0  0  0  0
  2 25  1  0  0  0  0
  3 11  1  1  0  0  0
  3 12  1  0  0  0  0
  3  1  1  0  0  0  0
  4 17  2  0  0  0  0
  6 11  1  0  0  0  0
  8 49  1  1  0  0  0
  9 18  1  0  0  0  0
  9  5  1  0  0  0  0
 12 22  1  1  0  0  0
 12 18  1  0  0  0  0
 13  6  1  0  0  0  0
 15 10  1  1  0  0  0
 15 14  1  0  0  0  0
 15  4  1  0  0  0  0
 16  2  1  0  0  0  0
 17 29  1  0  0  0  0
 17 26  1  0  0  0  0
 19 34  1  0  0  0  0
 19 14  1  6  0  0  0
 21  5  1  0  0  0  0
 22  8  1  0  0  0  0
 23 43  1  1  0  0  0
 23 13  1  0  0  0  0
 24 23  1  0  0  0  0
 25 21  1  0  0  0  0
 27 25  2  0  0  0  0
 28 16  1  0  0  0  0
 29 20  1  6  0  0  0
 29 26  1  0  0  0  0
 29 16  1  0  0  0  0
 30 10  1  1  0  0  0
 30 19  1  0  0  0  0
 30 24  1  0  0  0  0
 33 32  1  0  0  0  0
 33 31  1  1  0  0  0
 33 34  1  0  0  0  0
 34 32  1  6  0  0  0
 36 41  1  6  0  0  0
 36 39  1  0  0  0  0
 37 35  1  6  0  0  0
 37 33  1  0  0  0  0
 38 36  1  0  0  0  0
 38 35  1  0  0  0  0
 39 37  1  0  0  0  0
 40 41  2  0  0  0  0
 42 41  1  0  0  0  0
 44 43  1  0  0  0  0
 46 45  1  6  0  0  0
 46 44  1  0  0  0  0
 46 47  1  0  0  0  0
 48 47  1  0  0  0  0
 49 50  1  0  0  0  0
 50 51  1  6  0  0  0
 50 64  1  0  0  0  0
 51 52  1  0  0  0  0
 53 52  1  0  0  0  0
 54 55  1  0  0  0  0
 54 60  1  0  0  0  0
 55 60  1  0  0  0  0
 56 60  1  0  0  0  0
 56 58  1  0  0  0  0
 57 59  1  0  0  0  0
 57 63  1  1  0  0  0
 58 59  1  0  0  0  0
 59 53  1  1  0  0  0
 60 57  1  0  0  0  0
 63 62  2  0  0  0  0
 63 61  1  0  0  0  0
 65 66  1  0  0  0  0
 66 64  1  0  0  0  0
 66 67  2  0  0  0  0
M  END
>  <MODEL>
8

>  <REMARK>
 VINA RESULT:      -4.6      3.631      6.208
  Name = 
  16 active torsions:
  status: ('A' for Active; 'I' for Inactive)
    1  A    between atoms: O_2  and  C_15
    2  A    between atoms: O_2  and  C_23
    3  A    between atoms: C_21  and  C_24
    4  A    between atoms: C_23  and  C_40
    5  A    between atoms: C_23  and  C_65
    6  A    between atoms: C_30  and  C_51
    7  A    between atoms: O_31  and  C_42
    8  A    between atoms: N_37  and  C_49
    9  A    between atoms: C_39  and  C_52
   10  A    between atoms: C_40  and  C_43
   11  A    between atoms: C_41  and  C_54
   12  A    between atoms: C_42  and  O_62
   13  A    between atoms: C_48  and  C_52
   14  A    between atoms: C_48  and  C_65
   15  A    between atoms: C_50  and  C_53
   16  A    between atoms: C_50  and  O_62
                            x       y       z     vdW  Elec       q    Type
                         _______ _______ _______ _____ _____    ______ ____

>  <TORSDO>
F 16

$$$$
