=
 OpenBabel11072409213D

 58 63  0  0  1  0  0  0  0  0999 V2000
  188.7040  176.6080  144.5760 C   0  0  0  0  0  3  0  0  0  0  0  0
  189.4680  175.5010  144.6360 C   0  0  0  0  0  0  0  0  0  0  0  0
  189.7550  174.7350  143.3510 C   0  0  2  0  0  3  0  0  0  0  0  0
  187.8220  175.9190  142.3800 C   0  0  0  0  0  3  0  0  0  0  0  0
  189.2330  177.9280  142.5570 C   0  0  0  0  0  1  0  0  0  0  0  0
  188.5480  174.7930  142.4140 C   0  0  0  0  0  0  0  0  0  0  0  0
  188.1610  177.1030  143.2590 C   0  0  2  0  0  0  0  0  0  0  0  0
  184.6910  179.5660  144.4120 O   0  0  0  0  0  0  0  0  0  0  0  0
  186.4150  178.0440  144.8480 N   0  0  0  0  0  2  0  0  0  0  0  0
  186.9470  177.9560  143.5180 C   0  0  0  0  0  0  0  0  0  0  0  0
  185.2690  178.8130  145.2370 C   0  0  0  0  0  0  0  0  0  0  0  0
  186.3520  178.5190  142.5590 O   0  0  0  0  0  0  0  0  0  0  0  0
  184.7580  178.7390  146.6100 C   0  0  0  0  0  3  0  0  0  0  0  0
  185.5410  178.9340  147.6630 C   0  0  0  0  0  2  0  0  0  0  0  0
  188.1510  173.7270  141.4790 C   0  0  0  0  0  3  0  0  0  0  0  0
  188.5160  173.6770  140.2070 C   0  0  0  0  0  3  0  0  0  0  0  0
  188.0660  172.5630  139.3230 C   0  0  0  0  0  2  0  0  0  0  0  0
  189.1640  172.1020  138.4880 N   0  0  0  0  0  0  0  0  0  0  0  0
  189.0560  173.7330  136.7790 O   0  0  0  0  0  0  0  0  0  0  0  0
  189.5770  172.6940  137.2650 C   0  0  0  0  0  0  0  0  0  0  0  0
  190.8190  170.8370  137.4850 C   0  0  0  0  0  0  0  0  0  0  0  0
  191.0450  172.1090  135.2550 C   0  0  0  0  0  1  0  0  0  0  0  0
  189.9180  170.8680  138.6850 C   0  0  0  0  0  2  0  0  0  0  0  0
  190.6130  171.9660  136.6370 N   0  0  0  0  0  0  0  0  0  0  0  0
  191.6200  169.8250  137.1850 C   0  0  0  0  0  2  0  0  0  0  0  0
  188.8460  174.7250  146.9570 C   0  0  0  0  0  1  0  0  0  0  0  0
  189.9700  174.9910  145.9650 C   0  0  2  0  0  3  0  0  0  0  0  0
  191.1140  175.8160  146.5670 C   0  0  0  0  0  2  0  0  0  0  0  0
  192.4700  175.5570  145.9160 C   0  0  0  0  0  2  0  0  0  0  0  0
  192.3460  177.0820  143.9220 C   0  0  0  0  0  1  0  0  0  0  0  0
  193.0180  176.8230  145.2620 C   0  0  2  0  0  3  0  0  0  0  0  0
  194.5380  176.7870  145.1130 C   0  0  1  0  0  3  0  0  0  0  0  0
  195.1170  177.8020  145.8770 O   0  0  0  0  0  1  0  0  0  0  0  0
  195.1390  175.4390  145.5020 C   0  0  0  0  0  2  0  0  0  0  0  0
  195.4930  174.6530  144.2800 C   0  0  0  0  0  0  0  0  0  0  0  0
  195.7390  173.2690  144.3230 C   0  0  0  0  0  0  0  0  0  0  0  0
  196.6560  172.4440  140.8080 C   0  0  0  0  0  1  0  0  0  0  0  0
  196.2460  173.2620  141.9870 C   0  0  0  0  0  0  0  0  0  0  0  0
  195.6210  175.3240  143.0650 C   0  0  0  0  0  3  0  0  0  0  0  0
  196.1180  172.6260  143.1830 N   0  0  0  0  0  0  0  0  0  0  0  0
  195.9920  174.6500  141.8970 C   0  0  0  0  0  0  0  0  0  0  0  0
  195.6600  172.5000  145.6120 C   0  0  0  0  0  3  0  0  0  0  0  0
  197.0320  172.3790  146.2550 C   0  0  0  0  0  2  0  0  0  0  0  0
  196.4530  171.2090  145.4940 C   0  0  0  0  0  2  0  0  0  0  0  0
  196.1070  175.4340  140.6400 C   0  0  0  0  0  0  0  0  0  0  0  0
  195.0950  175.6920  139.9370 O   0  0  0  0  0  0  0  0  0  0  0  0
  197.3800  175.9080  140.2100 N   0  0  0  0  0  1  0  0  0  0  0  0
  190.1830  173.4260  143.6320 O   0  0  0  0  0  0  0  0  0  0  0  0
  192.2810  172.3260  144.1860 C   0  0  0  0  0  2  0  0  0  0  0  0
  192.2980  173.6680  139.8100 C   0  0  0  0  0  2  0  0  0  0  0  0
  192.3070  170.9320  143.5290 C   0  0  1  0  0  3  0  0  0  0  0  0
  191.5520  173.3820  143.3160 C   0  0  1  0  0  3  0  0  0  0  0  0
  191.7150  173.0280  141.8340 C   0  0  2  0  0  3  0  0  0  0  0  0
  192.8270  170.9760  142.0760 C   0  0  0  0  0  2  0  0  0  0  0  0
  193.1600  169.9920  144.3540 C   0  0  0  0  0  1  0  0  0  0  0  0
  192.9770  172.3550  141.6130 N   0  0  1  0  0  0  0  0  0  0  0  0
  193.0660  172.4110  140.1770 C   0  0  0  0  0  2  0  0  0  0  0  0
  191.6520  174.1280  140.9730 O   0  0  0  0  0  0  0  0  0  0  0  0
  1  2  2  0  0  0  0
  2 27  1  0  0  0  0
  3 48  1  1  0  0  0
  3  2  1  0  0  0  0
  4  6  2  0  0  0  0
  4  7  1  0  0  0  0
  6  3  1  0  0  0  0
  7  5  1  6  0  0  0
  7 10  1  0  0  0  0
  7  1  1  0  0  0  0
  8 11  2  0  0  0  0
  9 11  1  0  0  0  0
 10  9  1  0  0  0  0
 11 13  1  0  0  0  0
 12 10  2  0  0  0  0
 13 14  2  0  0  0  0
 15  6  1  0  0  0  0
 16 15  2  0  0  0  0
 17 16  1  0  0  0  0
 18 23  1  0  0  0  0
 18 17  1  0  0  0  0
 19 20  2  0  0  0  0
 20 18  1  0  0  0  0
 21 23  1  0  0  0  0
 22 24  1  0  0  0  0
 24 20  1  0  0  0  0
 24 21  1  0  0  0  0
 25 21  2  0  0  0  0
 27 28  1  0  0  0  0
 27 26  1  1  0  0  0
 29 28  1  0  0  0  0
 31 30  1  6  0  0  0
 31 29  1  0  0  0  0
 32 31  1  0  0  0  0
 32 34  1  0  0  0  0
 32 33  1  1  0  0  0
 35 36  1  0  0  0  0
 35 34  1  0  0  0  0
 36 42  1  0  0  0  0
 37 38  1  0  0  0  0
 38 40  1  0  0  0  0
 39 35  2  0  0  0  0
 40 36  2  0  0  0  0
 41 38  2  0  0  0  0
 41 39  1  0  0  0  0
 42 43  1  0  0  0  0
 44 42  1  0  0  0  0
 44 43  1  0  0  0  0
 45 41  1  0  0  0  0
 46 45  2  0  0  0  0
 47 45  1  0  0  0  0
 50 57  1  0  0  0  0
 50 58  1  0  0  0  0
 51 49  1  0  0  0  0
 51 55  1  1  0  0  0
 52 48  1  1  0  0  0
 52 49  1  0  0  0  0
 53 58  1  6  0  0  0
 53 52  1  0  0  0  0
 54 51  1  0  0  0  0
 56 57  1  6  0  0  0
 56 53  1  0  0  0  0
 56 54  1  0  0  0  0
M  END
>  <MODEL>
1

>  <REMARK>
 VINA RESULT:      -7.7      0.000      0.000
  Name = 
  16 active torsions:
  status: ('A' for Active; 'I' for Inactive)
    1  A    between atoms: C_1  and  C_14
    2  A    between atoms: N_3  and  C_39
    3  A    between atoms: C_5  and  C_10
    4  A    between atoms: C_8  and  C_52
    5  A    between atoms: C_12  and  C_44
    6  A    between atoms: C_14  and  C_41
    7  A    between atoms: C_17  and  C_42
    8  A    between atoms: O_18  and  C_22
    9  A    between atoms: O_18  and  C_35
   10  A    between atoms: C_21  and  C_33
   11  A    between atoms: C_21  and  C_44
   12  A    between atoms: C_27  and  C_43
   13  A    between atoms: C_31  and  C_39
   14  A    between atoms: C_33  and  C_55
   15  A    between atoms: C_41  and  C_55
   16  A    between atoms: C_46  and  C_50
                            x       y       z     vdW  Elec       q    Type
                         _______ _______ _______ _____ _____    ______ ____

>  <TORSDO>
F 16

$$$$
=
 OpenBabel11072409213D

 58 63  0  0  1  0  0  0  0  0999 V2000
  189.1490  176.3920  144.7320 C   0  0  0  0  0  3  0  0  0  0  0  0
  189.7490  175.1970  144.8950 C   0  0  0  0  0  0  0  0  0  0  0  0
  190.1180  174.3860  143.6590 C   0  0  2  0  0  3  0  0  0  0  0  0
  188.5110  175.7950  142.4280 C   0  0  0  0  0  3  0  0  0  0  0  0
  190.1270  177.6100  142.8200 C   0  0  0  0  0  1  0  0  0  0  0  0
  189.0750  174.5860  142.5590 C   0  0  0  0  0  0  0  0  0  0  0  0
  188.8690  176.9360  143.3550 C   0  0  2  0  0  0  0  0  0  0  0  0
  185.6000  179.8220  144.0110 O   0  0  0  0  0  0  0  0  0  0  0  0
  187.0110  178.0710  144.6660 N   0  0  0  0  0  2  0  0  0  0  0  0
  187.7490  177.9400  143.4420 C   0  0  0  0  0  0  0  0  0  0  0  0
  185.9240  178.9800  144.8880 C   0  0  0  0  0  0  0  0  0  0  0  0
  187.4070  178.5980  142.4220 O   0  0  0  0  0  0  0  0  0  0  0  0
  185.1780  178.9470  146.1510 C   0  0  0  0  0  3  0  0  0  0  0  0
  185.7780  179.0860  147.3260 C   0  0  0  0  0  2  0  0  0  0  0  0
  188.6830  173.5680  141.5700 C   0  0  0  0  0  3  0  0  0  0  0  0
  188.6420  173.7760  140.2620 C   0  0  0  0  0  3  0  0  0  0  0  0
  188.2290  172.6910  139.3250 C   0  0  0  0  0  2  0  0  0  0  0  0
  189.1900  172.5630  138.2410 N   0  0  0  0  0  0  0  0  0  0  0  0
  189.4430  170.2130  138.2280 O   0  0  0  0  0  0  0  0  0  0  0  0
  189.7520  171.3460  137.7750 C   0  0  0  0  0  0  0  0  0  0  0  0
  190.8100  172.9700  136.6420 C   0  0  0  0  0  0  0  0  0  0  0  0
  191.7000  170.5750  136.3080 C   0  0  0  0  0  1  0  0  0  0  0  0
  189.8520  173.6720  137.5600 C   0  0  0  0  0  2  0  0  0  0  0  0
  190.7260  171.5510  136.7710 N   0  0  0  0  0  0  0  0  0  0  0  0
  191.7100  173.5910  135.8940 C   0  0  0  0  0  2  0  0  0  0  0  0
  188.8190  174.9000  147.2240 C   0  0  0  0  0  1  0  0  0  0  0  0
  189.9860  174.6440  146.2790 C   0  0  2  0  0  3  0  0  0  0  0  0
  191.3420  175.0220  146.8880 C   0  0  0  0  0  2  0  0  0  0  0  0
  192.0580  176.1470  146.1460 C   0  0  0  0  0  2  0  0  0  0  0  0
  194.4540  175.5920  146.6650 C   0  0  0  0  0  1  0  0  0  0  0  0
  193.3930  175.6700  145.5780 C   0  0  2  0  0  3  0  0  0  0  0  0
  193.8680  176.5350  144.4110 C   0  0  1  0  0  3  0  0  0  0  0  0
  193.6820  177.8860  144.7120 O   0  0  0  0  0  1  0  0  0  0  0  0
  195.3280  176.2830  144.0440 C   0  0  0  0  0  2  0  0  0  0  0  0
  195.4240  175.2590  142.9580 C   0  0  0  0  0  0  0  0  0  0  0  0
  196.4980  174.3560  142.8720 C   0  0  0  0  0  0  0  0  0  0  0  0
  195.7680  172.4400  139.7620 C   0  0  0  0  0  1  0  0  0  0  0  0
  195.5980  173.4420  140.8550 C   0  0  0  0  0  0  0  0  0  0  0  0
  194.4340  175.2280  141.9780 C   0  0  0  0  0  3  0  0  0  0  0  0
  196.5550  173.4910  141.8220 N   0  0  0  0  0  0  0  0  0  0  0  0
  194.4940  174.3210  140.9140 C   0  0  0  0  0  0  0  0  0  0  0  0
  197.6180  174.3730  143.8760 C   0  0  0  0  0  3  0  0  0  0  0  0
  197.9410  172.9660  144.3510 C   0  0  0  0  0  2  0  0  0  0  0  0
  197.1140  173.8830  145.2220 C   0  0  0  0  0  2  0  0  0  0  0  0
  193.4000  174.3480  139.9080 C   0  0  0  0  0  0  0  0  0  0  0  0
  192.2390  173.9560  140.1960 O   0  0  0  0  0  0  0  0  0  0  0  0
  193.6570  174.8230  138.5900 N   0  0  0  0  0  1  0  0  0  0  0  0
  190.3300  173.0360  143.9900 O   0  0  0  0  0  0  0  0  0  0  0  0
  192.7530  172.8260  144.0430 C   0  0  0  0  0  2  0  0  0  0  0  0
  190.9360  169.5980  141.3550 C   0  0  0  0  0  2  0  0  0  0  0  0
  193.1330  171.5960  144.8910 C   0  0  1  0  0  3  0  0  0  0  0  0
  191.4430  172.6170  143.2410 C   0  0  1  0  0  3  0  0  0  0  0  0
  191.2840  171.1330  142.8940 C   0  0  2  0  0  3  0  0  0  0  0  0
  193.1350  170.2910  144.0650 C   0  0  0  0  0  2  0  0  0  0  0  0
  194.4920  171.8090  145.5220 C   0  0  0  0  0  1  0  0  0  0  0  0
  192.5820  170.5130  142.7290 N   0  0  1  0  0  0  0  0  0  0  0  0
  192.2100  169.2670  142.1110 C   0  0  0  0  0  2  0  0  0  0  0  0
  190.5380  170.8930  141.7360 O   0  0  0  0  0  0  0  0  0  0  0  0
  1  2  2  0  0  0  0
  2 27  1  0  0  0  0
  3 48  1  1  0  0  0
  3  2  1  0  0  0  0
  4  6  2  0  0  0  0
  4  7  1  0  0  0  0
  6  3  1  0  0  0  0
  7  5  1  6  0  0  0
  7 10  1  0  0  0  0
  7  1  1  0  0  0  0
  8 11  2  0  0  0  0
  9 11  1  0  0  0  0
 10  9  1  0  0  0  0
 11 13  1  0  0  0  0
 12 10  2  0  0  0  0
 13 14  2  0  0  0  0
 15  6  1  0  0  0  0
 16 15  2  0  0  0  0
 17 16  1  0  0  0  0
 18 17  1  0  0  0  0
 20 19  2  0  0  0  0
 20 18  1  0  0  0  0
 21 24  1  0  0  0  0
 21 23  1  0  0  0  0
 22 24  1  0  0  0  0
 23 18  1  0  0  0  0
 24 20  1  0  0  0  0
 25 21  2  0  0  0  0
 27 28  1  0  0  0  0
 27 26  1  1  0  0  0
 29 28  1  0  0  0  0
 31 29  1  0  0  0  0
 31 30  1  1  0  0  0
 32 33  1  1  0  0  0
 32 31  1  0  0  0  0
 34 32  1  0  0  0  0
 35 34  1  0  0  0  0
 36 35  1  0  0  0  0
 36 42  1  0  0  0  0
 37 38  1  0  0  0  0
 38 41  2  0  0  0  0
 38 40  1  0  0  0  0
 39 35  2  0  0  0  0
 40 36  2  0  0  0  0
 41 39  1  0  0  0  0
 42 43  1  0  0  0  0
 42 44  1  0  0  0  0
 43 44  1  0  0  0  0
 45 46  2  0  0  0  0
 45 41  1  0  0  0  0
 47 45  1  0  0  0  0
 49 51  1  0  0  0  0
 50 58  1  0  0  0  0
 50 57  1  0  0  0  0
 51 55  1  6  0  0  0
 52 48  1  1  0  0  0
 52 49  1  0  0  0  0
 53 58  1  6  0  0  0
 53 52  1  0  0  0  0
 54 51  1  0  0  0  0
 56 57  1  1  0  0  0
 56 53  1  0  0  0  0
 56 54  1  0  0  0  0
M  END
>  <MODEL>
2

>  <REMARK>
 VINA RESULT:      -7.2      1.427      2.016
  Name = 
  16 active torsions:
  status: ('A' for Active; 'I' for Inactive)
    1  A    between atoms: C_1  and  C_14
    2  A    between atoms: N_3  and  C_39
    3  A    between atoms: C_5  and  C_10
    4  A    between atoms: C_8  and  C_52
    5  A    between atoms: C_12  and  C_44
    6  A    between atoms: C_14  and  C_41
    7  A    between atoms: C_17  and  C_42
    8  A    between atoms: O_18  and  C_22
    9  A    between atoms: O_18  and  C_35
   10  A    between atoms: C_21  and  C_33
   11  A    between atoms: C_21  and  C_44
   12  A    between atoms: C_27  and  C_43
   13  A    between atoms: C_31  and  C_39
   14  A    between atoms: C_33  and  C_55
   15  A    between atoms: C_41  and  C_55
   16  A    between atoms: C_46  and  C_50
                            x       y       z     vdW  Elec       q    Type
                         _______ _______ _______ _____ _____    ______ ____

>  <TORSDO>
F 16

$$$$
=
 OpenBabel11072409213D

 58 63  0  0  1  0  0  0  0  0999 V2000
  188.7290  175.4760  143.9070 C   0  0  0  0  0  3  0  0  0  0  0  0
  189.6240  174.4960  143.6780 C   0  0  0  0  0  0  0  0  0  0  0  0
  190.0090  174.1750  142.2400 C   0  0  2  0  0  3  0  0  0  0  0  0
  187.9490  175.3550  141.5730 C   0  0  0  0  0  3  0  0  0  0  0  0
  189.0990  177.3770  142.3760 C   0  0  0  0  0  1  0  0  0  0  0  0
  188.8080  174.3610  141.3110 C   0  0  0  0  0  0  0  0  0  0  0  0
  188.1350  176.2640  142.7670 C   0  0  2  0  0  0  0  0  0  0  0  0
  184.4570  178.0330  144.4370 O   0  0  0  0  0  0  0  0  0  0  0  0
  186.5440  176.9860  144.6140 N   0  0  0  0  0  2  0  0  0  0  0  0
  186.8230  176.8570  143.2120 C   0  0  0  0  0  0  0  0  0  0  0  0
  185.3410  177.5270  145.1760 C   0  0  0  0  0  0  0  0  0  0  0  0
  185.9430  177.1580  142.3600 O   0  0  0  0  0  0  0  0  0  0  0  0
  185.1280  177.5090  146.6270 C   0  0  0  0  0  3  0  0  0  0  0  0
  186.0470  177.0480  147.4670 C   0  0  0  0  0  2  0  0  0  0  0  0
  188.5500  173.5720  140.0950 C   0  0  0  0  0  3  0  0  0  0  0  0
  189.0680  173.8440  138.9060 C   0  0  0  0  0  3  0  0  0  0  0  0
  188.7530  172.9970  137.7200 C   0  0  0  0  0  2  0  0  0  0  0  0
  189.9610  172.3720  137.2060 N   0  0  0  0  0  0  0  0  0  0  0  0
  190.0250  170.4610  138.5970 O   0  0  0  0  0  0  0  0  0  0  0  0
  190.5340  171.1640  137.6840 C   0  0  0  0  0  0  0  0  0  0  0  0
  191.9840  171.9580  136.1650 C   0  0  0  0  0  0  0  0  0  0  0  0
  192.7440  169.8900  137.5030 C   0  0  0  0  0  1  0  0  0  0  0  0
  190.8690  172.9610  136.2250 C   0  0  0  0  0  2  0  0  0  0  0  0
  191.7590  170.8590  137.0470 N   0  0  0  0  0  0  0  0  0  0  0  0
  193.1010  172.1320  135.4730 C   0  0  0  0  0  2  0  0  0  0  0  0
  189.5410  172.3080  144.9340 C   0  0  0  0  0  1  0  0  0  0  0  0
  190.1790  173.6860  144.8240 C   0  0  2  0  0  3  0  0  0  0  0  0
  190.2240  174.4320  146.1620 C   0  0  0  0  0  2  0  0  0  0  0  0
  191.6360  174.7750  146.6310 C   0  0  0  0  0  2  0  0  0  0  0  0
  190.7840  177.0920  146.1620 C   0  0  0  0  0  1  0  0  0  0  0  0
  192.0140  176.2010  146.2410 C   0  0  2  0  0  3  0  0  0  0  0  0
  192.8110  176.2530  144.9370 C   0  0  1  0  0  3  0  0  0  0  0  0
  192.3500  177.3020  144.1380 O   0  0  0  0  0  1  0  0  0  0  0  0
  194.3130  176.3990  145.1670 C   0  0  0  0  0  2  0  0  0  0  0  0
  195.0420  175.2140  144.6170 C   0  0  0  0  0  0  0  0  0  0  0  0
  195.6990  175.2480  143.3740 C   0  0  0  0  0  0  0  0  0  0  0  0
  196.9920  171.7760  142.9860 C   0  0  0  0  0  1  0  0  0  0  0  0
  196.2990  172.9460  143.6020 C   0  0  0  0  0  0  0  0  0  0  0  0
  195.0370  174.0260  145.3470 C   0  0  0  0  0  3  0  0  0  0  0  0
  196.2910  174.1140  142.9050 N   0  0  0  0  0  0  0  0  0  0  0  0
  195.6650  172.8740  144.8630 C   0  0  0  0  0  0  0  0  0  0  0  0
  195.7000  176.4880  142.5230 C   0  0  0  0  0  3  0  0  0  0  0  0
  194.7340  176.3460  141.3580 C   0  0  0  0  0  2  0  0  0  0  0  0
  196.2160  176.1600  141.1320 C   0  0  0  0  0  2  0  0  0  0  0  0
  195.6160  171.6460  145.6990 C   0  0  0  0  0  0  0  0  0  0  0  0
  194.5200  171.1020  145.9960 O   0  0  0  0  0  0  0  0  0  0  0  0
  196.8240  171.0640  146.1800 N   0  0  0  0  0  1  0  0  0  0  0  0
  190.5950  172.9000  142.1500 O   0  0  0  0  0  0  0  0  0  0  0  0
  192.7350  172.0370  142.9200 C   0  0  0  0  0  2  0  0  0  0  0  0
  193.2150  174.0800  138.8530 C   0  0  0  0  0  2  0  0  0  0  0  0
  193.1020  170.7900  142.0900 C   0  0  1  0  0  3  0  0  0  0  0  0
  191.9840  173.1070  142.0870 C   0  0  1  0  0  3  0  0  0  0  0  0
  192.4370  173.0330  140.6260 C   0  0  2  0  0  3  0  0  0  0  0  0
  193.8300  171.1520  140.7770 C   0  0  0  0  0  2  0  0  0  0  0  0
  193.9610  169.8590  142.9180 C   0  0  0  0  0  1  0  0  0  0  0  0
  193.8150  172.5960  140.5470 N   0  0  1  0  0  0  0  0  0  0  0  0
  194.1190  172.9030  139.1740 C   0  0  0  0  0  2  0  0  0  0  0  0
  192.3240  174.2410  139.9300 O   0  0  0  0  0  0  0  0  0  0  0  0
  2  1  2  0  0  0  0
  2 27  1  0  0  0  0
  3 48  1  1  0  0  0
  3  2  1  0  0  0  0
  4  7  1  0  0  0  0
  6  4  2  0  0  0  0
  6  3  1  0  0  0  0
  7  5  1  6  0  0  0
  7 10  1  0  0  0  0
  7  1  1  0  0  0  0
  8 11  2  0  0  0  0
  9 11  1  0  0  0  0
 10  9  1  0  0  0  0
 11 13  1  0  0  0  0
 12 10  2  0  0  0  0
 13 14  2  0  0  0  0
 15  6  1  0  0  0  0
 16 15  2  0  0  0  0
 17 16  1  0  0  0  0
 18 20  1  0  0  0  0
 18 17  1  0  0  0  0
 20 19  2  0  0  0  0
 21 23  1  0  0  0  0
 21 24  1  0  0  0  0
 23 18  1  0  0  0  0
 24 22  1  0  0  0  0
 24 20  1  0  0  0  0
 25 21  2  0  0  0  0
 27 26  1  1  0  0  0
 27 28  1  0  0  0  0
 28 29  1  0  0  0  0
 31 30  1  6  0  0  0
 31 29  1  0  0  0  0
 32 33  1  6  0  0  0
 32 34  1  0  0  0  0
 32 31  1  0  0  0  0
 35 34  1  0  0  0  0
 35 39  1  0  0  0  0
 36 35  2  0  0  0  0
 37 38  1  0  0  0  0
 38 41  1  0  0  0  0
 40 36  1  0  0  0  0
 40 38  2  0  0  0  0
 41 39  2  0  0  0  0
 41 45  1  0  0  0  0
 42 36  1  0  0  0  0
 43 42  1  0  0  0  0
 44 43  1  0  0  0  0
 44 42  1  0  0  0  0
 45 46  2  0  0  0  0
 45 47  1  0  0  0  0
 50 57  1  0  0  0  0
 50 58  1  0  0  0  0
 51 55  1  1  0  0  0
 51 49  1  0  0  0  0
 52 48  1  6  0  0  0
 52 49  1  0  0  0  0
 53 58  1  1  0  0  0
 53 52  1  0  0  0  0
 54 51  1  0  0  0  0
 56 57  1  6  0  0  0
 56 53  1  0  0  0  0
 56 54  1  0  0  0  0
M  END
>  <MODEL>
3

>  <REMARK>
 VINA RESULT:      -7.2      1.630      2.840
  Name = 
  16 active torsions:
  status: ('A' for Active; 'I' for Inactive)
    1  A    between atoms: C_1  and  C_14
    2  A    between atoms: N_3  and  C_39
    3  A    between atoms: C_5  and  C_10
    4  A    between atoms: C_8  and  C_52
    5  A    between atoms: C_12  and  C_44
    6  A    between atoms: C_14  and  C_41
    7  A    between atoms: C_17  and  C_42
    8  A    between atoms: O_18  and  C_22
    9  A    between atoms: O_18  and  C_35
   10  A    between atoms: C_21  and  C_33
   11  A    between atoms: C_21  and  C_44
   12  A    between atoms: C_27  and  C_43
   13  A    between atoms: C_31  and  C_39
   14  A    between atoms: C_33  and  C_55
   15  A    between atoms: C_41  and  C_55
   16  A    between atoms: C_46  and  C_50
                            x       y       z     vdW  Elec       q    Type
                         _______ _______ _______ _____ _____    ______ ____

>  <TORSDO>
F 16

$$$$
=
 OpenBabel11072409213D

 58 63  0  0  1  0  0  0  0  0999 V2000
  188.9640  176.5140  144.8050 C   0  0  0  0  0  3  0  0  0  0  0  0
  189.7010  175.3900  144.8880 C   0  0  0  0  0  0  0  0  0  0  0  0
  190.0550  174.6480  143.6060 C   0  0  2  0  0  3  0  0  0  0  0  0
  188.2130  175.8960  142.5420 C   0  0  0  0  0  3  0  0  0  0  0  0
  189.6500  177.8690  142.8580 C   0  0  0  0  0  1  0  0  0  0  0  0
  188.9130  174.7540  142.5950 C   0  0  0  0  0  0  0  0  0  0  0  0
  188.5180  177.0510  143.4690 C   0  0  2  0  0  0  0  0  0  0  0  0
  184.9940  179.5130  144.4500 O   0  0  0  0  0  0  0  0  0  0  0  0
  186.5790  177.8500  144.9040 N   0  0  0  0  0  2  0  0  0  0  0  0
  187.3070  177.9250  143.6700 C   0  0  0  0  0  0  0  0  0  0  0  0
  185.4120  178.6170  145.2290 C   0  0  0  0  0  0  0  0  0  0  0  0
  186.8870  178.6520  142.7290 O   0  0  0  0  0  0  0  0  0  0  0  0
  184.6920  178.3760  146.4840 C   0  0  0  0  0  3  0  0  0  0  0  0
  185.2830  178.4860  147.6670 C   0  0  0  0  0  2  0  0  0  0  0  0
  188.5550  173.7180  141.6110 C   0  0  0  0  0  3  0  0  0  0  0  0
  188.8490  173.7820  140.3210 C   0  0  0  0  0  3  0  0  0  0  0  0
  188.4460  172.6910  139.3870 C   0  0  0  0  0  2  0  0  0  0  0  0
  189.6210  172.0230  138.8490 N   0  0  0  0  0  0  0  0  0  0  0  0
  189.5620  172.8630  136.6400 O   0  0  0  0  0  0  0  0  0  0  0  0
  190.0930  172.1290  137.5140 C   0  0  0  0  0  0  0  0  0  0  0  0
  191.4010  170.5900  138.4950 C   0  0  0  0  0  0  0  0  0  0  0  0
  191.7270  170.9220  135.9600 C   0  0  0  0  0  1  0  0  0  0  0  0
  190.4160  171.0150  139.5450 C   0  0  0  0  0  2  0  0  0  0  0  0
  191.2040  171.2900  137.2670 N   0  0  0  0  0  0  0  0  0  0  0  0
  192.2660  169.5980  138.6490 C   0  0  0  0  0  2  0  0  0  0  0  0
  188.9410  174.7630  147.2130 C   0  0  0  0  0  1  0  0  0  0  0  0
  190.1050  174.8390  146.2340 C   0  0  2  0  0  3  0  0  0  0  0  0
  191.3510  175.4970  146.8380 C   0  0  0  0  0  2  0  0  0  0  0  0
  192.0900  176.4220  145.8730 C   0  0  0  0  0  2  0  0  0  0  0  0
  194.4970  176.9230  146.3890 C   0  0  0  0  0  1  0  0  0  0  0  0
  193.5380  175.9770  145.6840 C   0  0  2  0  0  3  0  0  0  0  0  0
  193.9090  175.8230  144.2090 C   0  0  1  0  0  3  0  0  0  0  0  0
  193.1030  176.6510  143.4250 O   0  0  0  0  0  1  0  0  0  0  0  0
  195.3800  176.1220  143.9350 C   0  0  0  0  0  2  0  0  0  0  0  0
  196.0800  174.8940  143.4440 C   0  0  0  0  0  0  0  0  0  0  0  0
  196.6980  174.8360  142.1830 C   0  0  0  0  0  0  0  0  0  0  0  0
  197.9410  171.3290  141.9910 C   0  0  0  0  0  1  0  0  0  0  0  0
  197.2800  172.5460  142.5470 C   0  0  0  0  0  0  0  0  0  0  0  0
  196.0830  173.7570  144.2520 C   0  0  0  0  0  3  0  0  0  0  0  0
  197.2630  173.6660  141.7740 N   0  0  0  0  0  0  0  0  0  0  0  0
  196.6840  172.5670  143.8290 C   0  0  0  0  0  0  0  0  0  0  0  0
  196.6870  176.0160  141.2510 C   0  0  0  0  0  3  0  0  0  0  0  0
  195.4030  176.0520  140.4380 C   0  0  0  0  0  2  0  0  0  0  0  0
  196.6770  175.5360  139.8090 C   0  0  0  0  0  2  0  0  0  0  0  0
  196.6470  171.3990  144.7460 C   0  0  0  0  0  0  0  0  0  0  0  0
  196.4780  170.2300  144.3080 O   0  0  0  0  0  0  0  0  0  0  0  0
  196.8020  171.5900  146.1490 N   0  0  0  0  0  1  0  0  0  0  0  0
  190.4370  173.3240  143.8820 O   0  0  0  0  0  0  0  0  0  0  0  0
  192.4520  172.1860  144.6340 C   0  0  0  0  0  2  0  0  0  0  0  0
  192.9660  173.6490  140.3280 C   0  0  0  0  0  2  0  0  0  0  0  0
  192.5400  170.8100  143.9450 C   0  0  1  0  0  3  0  0  0  0  0  0
  191.8330  173.2730  143.7190 C   0  0  1  0  0  3  0  0  0  0  0  0
  192.1560  172.9590  142.2550 C   0  0  2  0  0  3  0  0  0  0  0  0
  193.2180  170.8890  142.5590 C   0  0  0  0  0  2  0  0  0  0  0  0
  193.2890  169.8390  144.8320 C   0  0  0  0  0  1  0  0  0  0  0  0
  193.4300  172.2790  142.1560 N   0  0  1  0  0  0  0  0  0  0  0  0
  193.6790  172.3730  140.7410 C   0  0  0  0  0  2  0  0  0  0  0  0
  192.1980  174.0830  141.4240 O   0  0  0  0  0  0  0  0  0  0  0  0
  1  2  2  0  0  0  0
  2 27  1  0  0  0  0
  3 48  1  1  0  0  0
  3  2  1  0  0  0  0
  4  6  2  0  0  0  0
  4  7  1  0  0  0  0
  6  3  1  0  0  0  0
  7  5  1  6  0  0  0
  7 10  1  0  0  0  0
  7  1  1  0  0  0  0
  8 11  2  0  0  0  0
  9 11  1  0  0  0  0
 10  9  1  0  0  0  0
 11 13  1  0  0  0  0
 12 10  2  0  0  0  0
 13 14  2  0  0  0  0
 15  6  1  0  0  0  0
 16 15  2  0  0  0  0
 17 16  1  0  0  0  0
 18 17  1  0  0  0  0
 18 23  1  0  0  0  0
 19 20  2  0  0  0  0
 20 18  1  0  0  0  0
 21 25  2  0  0  0  0
 21 23  1  0  0  0  0
 22 24  1  0  0  0  0
 24 20  1  0  0  0  0
 24 21  1  0  0  0  0
 27 28  1  0  0  0  0
 27 26  1  1  0  0  0
 29 28  1  0  0  0  0
 31 29  1  0  0  0  0
 31 30  1  6  0  0  0
 32 33  1  6  0  0  0
 32 31  1  0  0  0  0
 34 32  1  0  0  0  0
 35 34  1  0  0  0  0
 35 39  1  0  0  0  0
 36 35  2  0  0  0  0
 37 38  1  0  0  0  0
 38 41  1  0  0  0  0
 40 36  1  0  0  0  0
 40 38  2  0  0  0  0
 41 39  2  0  0  0  0
 41 45  1  0  0  0  0
 42 36  1  0  0  0  0
 43 42  1  0  0  0  0
 44 43  1  0  0  0  0
 44 42  1  0  0  0  0
 45 47  1  0  0  0  0
 46 45  2  0  0  0  0
 50 57  1  0  0  0  0
 50 58  1  0  0  0  0
 51 49  1  0  0  0  0
 51 55  1  1  0  0  0
 52 48  1  6  0  0  0
 52 49  1  0  0  0  0
 53 58  1  6  0  0  0
 53 52  1  0  0  0  0
 54 51  1  0  0  0  0
 56 57  1  6  0  0  0
 56 53  1  0  0  0  0
 56 54  1  0  0  0  0
M  END
>  <MODEL>
4

>  <REMARK>
 VINA RESULT:      -7.1      1.403      2.463
  Name = 
  16 active torsions:
  status: ('A' for Active; 'I' for Inactive)
    1  A    between atoms: C_1  and  C_14
    2  A    between atoms: N_3  and  C_39
    3  A    between atoms: C_5  and  C_10
    4  A    between atoms: C_8  and  C_52
    5  A    between atoms: C_12  and  C_44
    6  A    between atoms: C_14  and  C_41
    7  A    between atoms: C_17  and  C_42
    8  A    between atoms: O_18  and  C_22
    9  A    between atoms: O_18  and  C_35
   10  A    between atoms: C_21  and  C_33
   11  A    between atoms: C_21  and  C_44
   12  A    between atoms: C_27  and  C_43
   13  A    between atoms: C_31  and  C_39
   14  A    between atoms: C_33  and  C_55
   15  A    between atoms: C_41  and  C_55
   16  A    between atoms: C_46  and  C_50
                            x       y       z     vdW  Elec       q    Type
                         _______ _______ _______ _____ _____    ______ ____

>  <TORSDO>
F 16

$$$$
=
 OpenBabel11072409213D

 58 63  0  0  1  0  0  0  0  0999 V2000
  188.6630  175.7150  143.8220 C   0  0  0  0  0  3  0  0  0  0  0  0
  189.6000  174.7680  143.6220 C   0  0  0  0  0  0  0  0  0  0  0  0
  190.0160  174.4370  142.1950 C   0  0  2  0  0  3  0  0  0  0  0  0
  187.9190  175.5210  141.4810 C   0  0  0  0  0  3  0  0  0  0  0  0
  188.9770  177.6010  142.2610 C   0  0  0  0  0  1  0  0  0  0  0  0
  188.8210  174.5580  141.2480 C   0  0  0  0  0  0  0  0  0  0  0  0
  188.0530  176.4580  142.6610 C   0  0  2  0  0  0  0  0  0  0  0  0
  184.2960  178.1390  144.2420 O   0  0  0  0  0  0  0  0  0  0  0  0
  186.4510  177.2510  144.4670 N   0  0  0  0  0  2  0  0  0  0  0  0
  186.7120  177.0050  143.0780 C   0  0  0  0  0  0  0  0  0  0  0  0
  185.2250  177.7660  145.0040 C   0  0  0  0  0  0  0  0  0  0  0  0
  185.7990  177.1650  142.2230 O   0  0  0  0  0  0  0  0  0  0  0  0
  185.0400  177.8750  146.4550 C   0  0  0  0  0  3  0  0  0  0  0  0
  185.8120  177.2220  147.3140 C   0  0  0  0  0  2  0  0  0  0  0  0
  188.6110  173.7380  140.0430 C   0  0  0  0  0  3  0  0  0  0  0  0
  188.8080  174.1670  138.8050 C   0  0  0  0  0  3  0  0  0  0  0  0
  188.5670  173.2740  137.6360 C   0  0  0  0  0  2  0  0  0  0  0  0
  189.8240  172.9330  136.9890 N   0  0  0  0  0  0  0  0  0  0  0  0
  189.3170  170.7290  136.3010 O   0  0  0  0  0  0  0  0  0  0  0  0
  190.1310  171.6860  136.3850 C   0  0  0  0  0  0  0  0  0  0  0  0
  192.0320  172.8780  136.3030 C   0  0  0  0  0  0  0  0  0  0  0  0
  192.1890  170.4200  135.5470 C   0  0  0  0  0  1  0  0  0  0  0  0
  191.0290  173.7580  136.9930 C   0  0  0  0  0  2  0  0  0  0  0  0
  191.4660  171.6250  135.9220 N   0  0  0  0  0  0  0  0  0  0  0  0
  193.3160  173.1780  136.1740 C   0  0  0  0  0  2  0  0  0  0  0  0
  189.6920  172.5570  144.8370 C   0  0  0  0  0  1  0  0  0  0  0  0
  190.1720  174.0010  144.7900 C   0  0  2  0  0  3  0  0  0  0  0  0
  190.0460  174.7180  146.1390 C   0  0  0  0  0  2  0  0  0  0  0  0
  191.3810  174.9490  146.8420 C   0  0  0  0  0  2  0  0  0  0  0  0
  190.7540  177.2430  146.0280 C   0  0  0  0  0  1  0  0  0  0  0  0
  191.8010  176.4150  146.7560 C   0  0  2  0  0  3  0  0  0  0  0  0
  193.1770  176.5860  146.1120 C   0  0  1  0  0  3  0  0  0  0  0  0
  194.1490  175.9500  146.8870 O   0  0  0  0  0  1  0  0  0  0  0  0
  193.2290  176.0590  144.6800 C   0  0  0  0  0  2  0  0  0  0  0  0
  194.2250  174.9480  144.5690 C   0  0  0  0  0  0  0  0  0  0  0  0
  195.5620  175.1730  144.1950 C   0  0  0  0  0  0  0  0  0  0  0  0
  197.0210  171.7470  144.1030 C   0  0  0  0  0  1  0  0  0  0  0  0
  196.0060  172.8260  144.2820 C   0  0  0  0  0  0  0  0  0  0  0  0
  193.8000  173.6420  144.8070 C   0  0  0  0  0  3  0  0  0  0  0  0
  196.3990  174.1080  144.0520 N   0  0  0  0  0  0  0  0  0  0  0  0
  194.6750  172.5580  144.6760 C   0  0  0  0  0  0  0  0  0  0  0  0
  196.0650  176.5550  143.8820 C   0  0  0  0  0  3  0  0  0  0  0  0
  196.1150  176.7860  142.3810 C   0  0  0  0  0  2  0  0  0  0  0  0
  197.3850  176.4680  143.1350 C   0  0  0  0  0  2  0  0  0  0  0  0
  194.1490  171.1950  144.9470 C   0  0  0  0  0  0  0  0  0  0  0  0
  194.5850  170.5060  145.9060 O   0  0  0  0  0  0  0  0  0  0  0  0
  193.1330  170.6450  144.1130 N   0  0  0  0  0  1  0  0  0  0  0  0
  190.6540  173.1860  142.1350 O   0  0  0  0  0  0  0  0  0  0  0  0
  192.5060  173.9120  140.7360 C   0  0  0  0  0  2  0  0  0  0  0  0
  191.0150  169.8000  139.3900 C   0  0  0  0  0  2  0  0  0  0  0  0
  193.7620  173.0950  141.0980 C   0  0  1  0  0  3  0  0  0  0  0  0
  191.2010  173.0820  140.8450 C   0  0  1  0  0  3  0  0  0  0  0  0
  191.5020  171.6100  140.5440 C   0  0  2  0  0  3  0  0  0  0  0  0
  193.8340  171.7560  140.3310 C   0  0  0  0  0  2  0  0  0  0  0  0
  195.0040  173.9150  140.8240 C   0  0  0  0  0  1  0  0  0  0  0  0
  192.5930  171.5030  139.5990 N   0  0  1  0  0  0  0  0  0  0  0  0
  192.4900  170.1170  139.2230 C   0  0  0  0  0  2  0  0  0  0  0  0
  190.4120  170.8980  140.0320 O   0  0  0  0  0  0  0  0  0  0  0  0
  2  1  2  0  0  0  0
  2 27  1  0  0  0  0
  3 48  1  1  0  0  0
  3  2  1  0  0  0  0
  4  7  1  0  0  0  0
  6  4  2  0  0  0  0
  6  3  1  0  0  0  0
  7  5  1  6  0  0  0
  7 10  1  0  0  0  0
  7  1  1  0  0  0  0
  8 11  2  0  0  0  0
  9 11  1  0  0  0  0
 10  9  1  0  0  0  0
 11 13  1  0  0  0  0
 12 10  2  0  0  0  0
 13 14  2  0  0  0  0
 15  6  1  0  0  0  0
 16 15  2  0  0  0  0
 17 16  1  0  0  0  0
 18 23  1  0  0  0  0
 18 17  1  0  0  0  0
 19 20  2  0  0  0  0
 20 18  1  0  0  0  0
 21 23  1  0  0  0  0
 22 24  1  0  0  0  0
 24 21  1  0  0  0  0
 24 20  1  0  0  0  0
 25 21  2  0  0  0  0
 27 26  1  1  0  0  0
 27 28  1  0  0  0  0
 28 29  1  0  0  0  0
 31 30  1  6  0  0  0
 31 29  1  0  0  0  0
 32 31  1  0  0  0  0
 32 33  1  1  0  0  0
 34 32  1  0  0  0  0
 35 34  1  0  0  0  0
 35 39  1  0  0  0  0
 36 35  2  0  0  0  0
 37 38  1  0  0  0  0
 38 41  1  0  0  0  0
 40 36  1  0  0  0  0
 40 38  2  0  0  0  0
 41 39  2  0  0  0  0
 41 45  1  0  0  0  0
 42 36  1  0  0  0  0
 43 44  1  0  0  0  0
 43 42  1  0  0  0  0
 44 42  1  0  0  0  0
 45 46  2  0  0  0  0
 47 45  1  0  0  0  0
 49 52  1  0  0  0  0
 49 51  1  0  0  0  0
 50 58  1  0  0  0  0
 51 55  1  6  0  0  0
 52 48  1  1  0  0  0
 53 58  1  6  0  0  0
 53 52  1  0  0  0  0
 54 51  1  0  0  0  0
 56 57  1  1  0  0  0
 56 54  1  0  0  0  0
 56 53  1  0  0  0  0
 57 50  1  0  0  0  0
M  END
>  <MODEL>
5

>  <REMARK>
 VINA RESULT:      -6.8      1.762      3.057
  Name = 
  16 active torsions:
  status: ('A' for Active; 'I' for Inactive)
    1  A    between atoms: C_1  and  C_14
    2  A    between atoms: N_3  and  C_39
    3  A    between atoms: C_5  and  C_10
    4  A    between atoms: C_8  and  C_52
    5  A    between atoms: C_12  and  C_44
    6  A    between atoms: C_14  and  C_41
    7  A    between atoms: C_17  and  C_42
    8  A    between atoms: O_18  and  C_22
    9  A    between atoms: O_18  and  C_35
   10  A    between atoms: C_21  and  C_33
   11  A    between atoms: C_21  and  C_44
   12  A    between atoms: C_27  and  C_43
   13  A    between atoms: C_31  and  C_39
   14  A    between atoms: C_33  and  C_55
   15  A    between atoms: C_41  and  C_55
   16  A    between atoms: C_46  and  C_50
                            x       y       z     vdW  Elec       q    Type
                         _______ _______ _______ _____ _____    ______ ____

>  <TORSDO>
F 16

$$$$
=
 OpenBabel11072409213D

 58 63  0  0  1  0  0  0  0  0999 V2000
  189.1030  177.0800  143.7090 C   0  0  0  0  0  3  0  0  0  0  0  0
  190.1960  176.3160  143.5240 C   0  0  0  0  0  0  0  0  0  0  0  0
  190.3550  175.5700  142.2050 C   0  0  2  0  0  3  0  0  0  0  0  0
  187.9340  175.9100  141.8820 C   0  0  0  0  0  3  0  0  0  0  0  0
  188.5160  178.2890  141.6380 C   0  0  0  0  0  1  0  0  0  0  0  0
  188.9930  175.1130  141.6820 C   0  0  0  0  0  0  0  0  0  0  0  0
  188.0640  177.2210  142.6260 C   0  0  2  0  0  0  0  0  0  0  0  0
  184.4470  178.5840  144.7470 O   0  0  0  0  0  0  0  0  0  0  0  0
  186.7370  178.1200  144.5990 N   0  0  0  0  0  2  0  0  0  0  0  0
  186.7540  177.6250  143.2520 C   0  0  0  0  0  0  0  0  0  0  0  0
  185.5680  178.5370  145.3170 C   0  0  0  0  0  0  0  0  0  0  0  0
  185.6720  177.4500  142.6270 O   0  0  0  0  0  0  0  0  0  0  0  0
  185.6640  178.9240  146.7280 C   0  0  0  0  0  3  0  0  0  0  0  0
  186.4410  178.2730  147.5850 C   0  0  0  0  0  2  0  0  0  0  0  0
  188.7530  173.8860  140.9040 C   0  0  0  0  0  3  0  0  0  0  0  0
  188.4410  173.8680  139.6170 C   0  0  0  0  0  3  0  0  0  0  0  0
  188.2090  172.5810  138.9010 C   0  0  0  0  0  2  0  0  0  0  0  0
  189.1840  172.4090  137.8350 N   0  0  0  0  0  0  0  0  0  0  0  0
  189.3360  170.0500  137.8300 O   0  0  0  0  0  0  0  0  0  0  0  0
  189.7020  171.1680  137.3810 C   0  0  0  0  0  0  0  0  0  0  0  0
  190.8490  172.7430  136.2660 C   0  0  0  0  0  0  0  0  0  0  0  0
  191.6420  170.3120  135.9520 C   0  0  0  0  0  1  0  0  0  0  0  0
  189.9050  173.4880  137.1650 C   0  0  0  0  0  2  0  0  0  0  0  0
  190.7020  171.3300  136.3950 N   0  0  0  0  0  0  0  0  0  0  0  0
  191.7890  173.3240  135.5350 C   0  0  0  0  0  2  0  0  0  0  0  0
  190.5640  175.8320  145.9740 C   0  0  0  0  0  1  0  0  0  0  0  0
  191.2080  176.1490  144.6310 C   0  0  2  0  0  3  0  0  0  0  0  0
  192.2440  177.2750  144.7160 C   0  0  0  0  0  2  0  0  0  0  0  0
  193.6860  176.8000  144.5630 C   0  0  0  0  0  2  0  0  0  0  0  0
  194.4880  176.2640  146.8840 C   0  0  0  0  0  1  0  0  0  0  0  0
  194.0080  175.6890  145.5600 C   0  0  2  0  0  3  0  0  0  0  0  0
  195.0180  174.6860  145.0030 C   0  0  1  0  0  3  0  0  0  0  0  0
  196.2990  175.2420  145.0140 O   0  0  0  0  0  1  0  0  0  0  0  0
  195.0210  173.3640  145.7650 C   0  0  0  0  0  2  0  0  0  0  0  0
  194.2230  172.3350  145.0290 C   0  0  0  0  0  0  0  0  0  0  0  0
  194.8180  171.2070  144.4360 C   0  0  0  0  0  0  0  0  0  0  0  0
  191.9530  169.4810  142.7960 C   0  0  0  0  0  1  0  0  0  0  0  0
  192.6970  170.5050  143.5860 C   0  0  0  0  0  0  0  0  0  0  0  0
  192.8480  172.5220  144.8950 C   0  0  0  0  0  3  0  0  0  0  0  0
  194.0410  170.3420  143.7270 N   0  0  0  0  0  0  0  0  0  0  0  0
  192.0570  171.6160  144.1810 C   0  0  0  0  0  0  0  0  0  0  0  0
  196.3020  170.9760  144.5090 C   0  0  0  0  0  3  0  0  0  0  0  0
  196.9990  171.5370  143.2800 C   0  0  0  0  0  2  0  0  0  0  0  0
  196.7380  170.0520  143.3840 C   0  0  0  0  0  2  0  0  0  0  0  0
  190.5990  171.8850  144.0830 C   0  0  0  0  0  0  0  0  0  0  0  0
  189.9790  172.4690  145.0110 O   0  0  0  0  0  0  0  0  0  0  0  0
  189.8760  171.4780  142.9260 N   0  0  0  0  0  1  0  0  0  0  0  0
  191.2860  174.5240  142.3300 O   0  0  0  0  0  0  0  0  0  0  0  0
  193.2230  175.4570  141.1920 C   0  0  0  0  0  2  0  0  0  0  0  0
  192.3690  171.2280  139.6660 C   0  0  0  0  0  2  0  0  0  0  0  0
  194.4970  174.7720  141.7230 C   0  0  1  0  0  3  0  0  0  0  0  0
  192.0100  174.4940  141.1260 C   0  0  1  0  0  3  0  0  0  0  0  0
  192.5020  173.0650  140.8710 C   0  0  2  0  0  3  0  0  0  0  0  0
  194.8130  173.4580  140.9750 C   0  0  0  0  0  2  0  0  0  0  0  0
  195.6720  175.7200  141.6170 C   0  0  0  0  0  1  0  0  0  0  0  0
  193.7160  173.0840  140.0820 N   0  0  1  0  0  0  0  0  0  0  0  0
  193.8110  171.7000  139.6990 C   0  0  0  0  0  2  0  0  0  0  0  0
  191.5730  172.2490  140.2180 O   0  0  0  0  0  0  0  0  0  0  0  0
  2  1  2  0  0  0  0
  2 27  1  0  0  0  0
  3 48  1  1  0  0  0
  3  2  1  0  0  0  0
  4  7  1  0  0  0  0
  6  4  2  0  0  0  0
  6  3  1  0  0  0  0
  7  5  1  6  0  0  0
  7 10  1  0  0  0  0
  7  1  1  0  0  0  0
  8 11  2  0  0  0  0
  9 11  1  0  0  0  0
 10  9  1  0  0  0  0
 11 13  1  0  0  0  0
 12 10  2  0  0  0  0
 13 14  2  0  0  0  0
 15  6  1  0  0  0  0
 16 15  2  0  0  0  0
 17 16  1  0  0  0  0
 18 17  1  0  0  0  0
 20 19  2  0  0  0  0
 20 18  1  0  0  0  0
 21 24  1  0  0  0  0
 21 23  1  0  0  0  0
 22 24  1  0  0  0  0
 23 18  1  0  0  0  0
 24 20  1  0  0  0  0
 25 21  2  0  0  0  0
 27 28  1  0  0  0  0
 27 26  1  1  0  0  0
 29 28  1  0  0  0  0
 29 31  1  0  0  0  0
 31 30  1  1  0  0  0
 32 33  1  1  0  0  0
 32 31  1  0  0  0  0
 32 34  1  0  0  0  0
 35 34  1  0  0  0  0
 36 42  1  0  0  0  0
 36 35  2  0  0  0  0
 37 38  1  0  0  0  0
 38 40  2  0  0  0  0
 38 41  1  0  0  0  0
 39 35  1  0  0  0  0
 40 36  1  0  0  0  0
 41 39  2  0  0  0  0
 43 44  1  0  0  0  0
 43 42  1  0  0  0  0
 44 42  1  0  0  0  0
 45 41  1  0  0  0  0
 45 46  2  0  0  0  0
 47 45  1  0  0  0  0
 49 51  1  0  0  0  0
 50 57  1  0  0  0  0
 50 58  1  0  0  0  0
 51 55  1  6  0  0  0
 52 49  1  0  0  0  0
 52 48  1  1  0  0  0
 53 58  1  6  0  0  0
 53 52  1  0  0  0  0
 54 51  1  0  0  0  0
 56 57  1  1  0  0  0
 56 53  1  0  0  0  0
 56 54  1  0  0  0  0
M  END
>  <MODEL>
6

>  <REMARK>
 VINA RESULT:      -6.3      1.644      3.212
  Name = 
  16 active torsions:
  status: ('A' for Active; 'I' for Inactive)
    1  A    between atoms: C_1  and  C_14
    2  A    between atoms: N_3  and  C_39
    3  A    between atoms: C_5  and  C_10
    4  A    between atoms: C_8  and  C_52
    5  A    between atoms: C_12  and  C_44
    6  A    between atoms: C_14  and  C_41
    7  A    between atoms: C_17  and  C_42
    8  A    between atoms: O_18  and  C_22
    9  A    between atoms: O_18  and  C_35
   10  A    between atoms: C_21  and  C_33
   11  A    between atoms: C_21  and  C_44
   12  A    between atoms: C_27  and  C_43
   13  A    between atoms: C_31  and  C_39
   14  A    between atoms: C_33  and  C_55
   15  A    between atoms: C_41  and  C_55
   16  A    between atoms: C_46  and  C_50
                            x       y       z     vdW  Elec       q    Type
                         _______ _______ _______ _____ _____    ______ ____

>  <TORSDO>
F 16

$$$$
=
 OpenBabel11072409213D

 58 63  0  0  1  0  0  0  0  0999 V2000
  189.3960  174.4640  143.2710 C   0  0  0  0  0  3  0  0  0  0  0  0
  190.2130  173.4760  142.8610 C   0  0  0  0  0  0  0  0  0  0  0  0
  190.5290  173.3550  141.3750 C   0  0  2  0  0  3  0  0  0  0  0  0
  188.5360  174.7510  140.9800 C   0  0  0  0  0  3  0  0  0  0  0  0
  189.8490  176.5490  142.0280 C   0  0  0  0  0  1  0  0  0  0  0  0
  189.3160  173.7560  140.5360 C   0  0  0  0  0  0  0  0  0  0  0  0
  188.8230  175.4540  142.2890 C   0  0  2  0  0  0  0  0  0  0  0  0
  185.3880  177.3580  144.2940 O   0  0  0  0  0  0  0  0  0  0  0  0
  187.5840  176.5480  144.2190 N   0  0  0  0  0  2  0  0  0  0  0  0
  187.5700  176.0550  142.8720 C   0  0  0  0  0  0  0  0  0  0  0  0
  186.4690  177.1400  144.9000 C   0  0  0  0  0  0  0  0  0  0  0  0
  186.4960  176.0460  142.2110 O   0  0  0  0  0  0  0  0  0  0  0  0
  186.5770  177.5110  146.3150 C   0  0  0  0  0  3  0  0  0  0  0  0
  185.5200  177.8770  147.0290 C   0  0  0  0  0  2  0  0  0  0  0  0
  188.9640  173.1800  139.2270 C   0  0  0  0  0  3  0  0  0  0  0  0
  189.4710  173.5880  138.0730 C   0  0  0  0  0  3  0  0  0  0  0  0
  189.0590  172.9550  136.7870 C   0  0  0  0  0  2  0  0  0  0  0  0
  190.0810  172.0280  136.3270 N   0  0  0  0  0  0  0  0  0  0  0  0
  189.3250  170.0610  137.3980 O   0  0  0  0  0  0  0  0  0  0  0  0
  190.1670  170.6540  136.6740 C   0  0  0  0  0  0  0  0  0  0  0  0
  192.0170  171.0900  135.4790 C   0  0  0  0  0  0  0  0  0  0  0  0
  191.8720  168.7520  136.5550 C   0  0  0  0  0  1  0  0  0  0  0  0
  191.2720  172.3900  135.5640 C   0  0  0  0  0  2  0  0  0  0  0  0
  191.3230  170.0350  136.1450 N   0  0  0  0  0  0  0  0  0  0  0  0
  193.2290  170.9620  134.9590 C   0  0  0  0  0  2  0  0  0  0  0  0
  189.6760  171.9500  144.7980 C   0  0  0  0  0  1  0  0  0  0  0  0
  190.7470  172.4670  143.8470 C   0  0  2  0  0  3  0  0  0  0  0  0
  192.0270  172.9050  144.5700 C   0  0  0  0  0  2  0  0  0  0  0  0
  193.0860  171.8100  144.6660 C   0  0  0  0  0  2  0  0  0  0  0  0
  195.4180  171.3340  143.8590 C   0  0  0  0  0  1  0  0  0  0  0  0
  194.4870  172.3790  144.4530 C   0  0  2  0  0  3  0  0  0  0  0  0
  195.0740  172.9670  145.7360 C   0  0  1  0  0  3  0  0  0  0  0  0
  196.2220  172.2620  146.1030 O   0  0  0  0  0  1  0  0  0  0  0  0
  195.3980  174.4540  145.6120 C   0  0  0  0  0  2  0  0  0  0  0  0
  194.1420  175.2490  145.4400 C   0  0  0  0  0  0  0  0  0  0  0  0
  193.8680  175.9730  144.2660 C   0  0  0  0  0  0  0  0  0  0  0  0
  190.6240  177.6430  145.0210 C   0  0  0  0  0  1  0  0  0  0  0  0
  191.8340  176.7920  145.2190 C   0  0  0  0  0  0  0  0  0  0  0  0
  193.2340  175.3030  146.4960 C   0  0  0  0  0  3  0  0  0  0  0  0
  192.7350  176.7270  144.2010 N   0  0  0  0  0  0  0  0  0  0  0  0
  192.0640  176.0650  146.4090 C   0  0  0  0  0  0  0  0  0  0  0  0
  194.8320  175.9890  143.1120 C   0  0  0  0  0  3  0  0  0  0  0  0
  194.1110  176.2920  141.8090 C   0  0  0  0  0  2  0  0  0  0  0  0
  194.4960  174.8690  142.1420 C   0  0  0  0  0  2  0  0  0  0  0  0
  191.1440  176.0720  147.5760 C   0  0  0  0  0  0  0  0  0  0  0  0
  191.2360  176.9500  148.4740 O   0  0  0  0  0  0  0  0  0  0  0  0
  190.1370  175.0710  147.6950 N   0  0  0  0  0  1  0  0  0  0  0  0
  191.0220  172.0730  141.0700 O   0  0  0  0  0  0  0  0  0  0  0  0
  193.1250  170.8520  141.0850 C   0  0  0  0  0  2  0  0  0  0  0  0
  193.3790  174.4210  138.2300 C   0  0  0  0  0  2  0  0  0  0  0  0
  193.2610  170.0670  139.7650 C   0  0  1  0  0  3  0  0  0  0  0  0
  192.4100  172.2140  140.8990 C   0  0  1  0  0  3  0  0  0  0  0  0
  192.6890  172.7540  139.4920 C   0  0  2  0  0  3  0  0  0  0  0  0
  193.8760  170.9210  138.6350 C   0  0  0  0  0  2  0  0  0  0  0  0
  194.0990  168.8270  139.9900 C   0  0  0  0  0  1  0  0  0  0  0  0
  193.9940  172.3220  139.0380 N   0  0  1  0  0  0  0  0  0  0  0  0
  194.1780  173.1740  137.8920 C   0  0  0  0  0  2  0  0  0  0  0  0
  192.6350  174.1480  139.3930 O   0  0  0  0  0  0  0  0  0  0  0  0
  2  1  2  0  0  0  0
  2 27  1  0  0  0  0
  3 48  1  1  0  0  0
  3  2  1  0  0  0  0
  4  7  1  0  0  0  0
  6  4  2  0  0  0  0
  6  3  1  0  0  0  0
  7  5  1  6  0  0  0
  7 10  1  0  0  0  0
  7  1  1  0  0  0  0
  8 11  2  0  0  0  0
  9 11  1  0  0  0  0
 10  9  1  0  0  0  0
 11 13  1  0  0  0  0
 12 10  2  0  0  0  0
 13 14  2  0  0  0  0
 15  6  1  0  0  0  0
 16 15  2  0  0  0  0
 17 16  1  0  0  0  0
 18 20  1  0  0  0  0
 18 17  1  0  0  0  0
 20 19  2  0  0  0  0
 21 23  1  0  0  0  0
 21 24  1  0  0  0  0
 23 18  1  0  0  0  0
 24 22  1  0  0  0  0
 24 20  1  0  0  0  0
 25 21  2  0  0  0  0
 27 28  1  0  0  0  0
 27 26  1  1  0  0  0
 28 29  1  0  0  0  0
 31 30  1  1  0  0  0
 31 29  1  0  0  0  0
 31 32  1  0  0  0  0
 32 33  1  6  0  0  0
 34 32  1  0  0  0  0
 35 34  1  0  0  0  0
 35 39  1  0  0  0  0
 36 35  2  0  0  0  0
 37 38  1  0  0  0  0
 38 41  1  0  0  0  0
 40 36  1  0  0  0  0
 40 38  2  0  0  0  0
 41 39  2  0  0  0  0
 41 45  1  0  0  0  0
 42 36  1  0  0  0  0
 43 44  1  0  0  0  0
 43 42  1  0  0  0  0
 44 42  1  0  0  0  0
 45 47  1  0  0  0  0
 45 46  2  0  0  0  0
 50 58  1  0  0  0  0
 51 55  1  1  0  0  0
 51 49  1  0  0  0  0
 52 48  1  6  0  0  0
 52 49  1  0  0  0  0
 53 58  1  1  0  0  0
 53 52  1  0  0  0  0
 54 56  1  0  0  0  0
 54 51  1  0  0  0  0
 56 57  1  6  0  0  0
 56 53  1  0  0  0  0
 57 50  1  0  0  0  0
M  END
>  <MODEL>
7

>  <REMARK>
 VINA RESULT:      -6.1      2.149      4.190
  Name = 
  16 active torsions:
  status: ('A' for Active; 'I' for Inactive)
    1  A    between atoms: C_1  and  C_14
    2  A    between atoms: N_3  and  C_39
    3  A    between atoms: C_5  and  C_10
    4  A    between atoms: C_8  and  C_52
    5  A    between atoms: C_12  and  C_44
    6  A    between atoms: C_14  and  C_41
    7  A    between atoms: C_17  and  C_42
    8  A    between atoms: O_18  and  C_22
    9  A    between atoms: O_18  and  C_35
   10  A    between atoms: C_21  and  C_33
   11  A    between atoms: C_21  and  C_44
   12  A    between atoms: C_27  and  C_43
   13  A    between atoms: C_31  and  C_39
   14  A    between atoms: C_33  and  C_55
   15  A    between atoms: C_41  and  C_55
   16  A    between atoms: C_46  and  C_50
                            x       y       z     vdW  Elec       q    Type
                         _______ _______ _______ _____ _____    ______ ____

>  <TORSDO>
F 16

$$$$
=
 OpenBabel11072409213D

 58 63  0  0  1  0  0  0  0  0999 V2000
  188.3110  176.9610  144.0040 C   0  0  0  0  0  3  0  0  0  0  0  0
  189.2910  176.0440  144.1040 C   0  0  0  0  0  0  0  0  0  0  0  0
  189.7160  175.2840  142.8530 C   0  0  2  0  0  3  0  0  0  0  0  0
  187.5660  175.9820  141.8690 C   0  0  0  0  0  3  0  0  0  0  0  0
  188.5250  178.2480  141.9080 C   0  0  0  0  0  1  0  0  0  0  0  0
  188.5120  175.0370  141.9440 C   0  0  0  0  0  0  0  0  0  0  0  0
  187.6600  177.2570  142.6770 C   0  0  2  0  0  0  0  0  0  0  0  0
  183.7870  179.0600  143.7710 O   0  0  0  0  0  0  0  0  0  0  0  0
  185.8550  178.0780  144.2670 N   0  0  0  0  0  2  0  0  0  0  0  0
  186.2960  177.8520  142.9200 C   0  0  0  0  0  0  0  0  0  0  0  0
  184.5870  178.6320  144.6440 C   0  0  0  0  0  0  0  0  0  0  0  0
  185.5170  178.0680  141.9520 O   0  0  0  0  0  0  0  0  0  0  0  0
  184.2060  178.7170  146.0580 C   0  0  0  0  0  3  0  0  0  0  0  0
  185.1020  178.6350  147.0330 C   0  0  0  0  0  2  0  0  0  0  0  0
  188.3360  173.8600  141.0760 C   0  0  0  0  0  3  0  0  0  0  0  0
  188.3930  173.8950  139.7530 C   0  0  0  0  0  3  0  0  0  0  0  0
  188.1990  172.6570  138.9440 C   0  0  0  0  0  2  0  0  0  0  0  0
  189.3700  172.3980  138.1210 N   0  0  0  0  0  0  0  0  0  0  0  0
  190.0650  170.3510  139.0770 O   0  0  0  0  0  0  0  0  0  0  0  0
  190.2390  171.2830  138.2490 C   0  0  0  0  0  0  0  0  0  0  0  0
  191.1780  172.6030  136.6950 C   0  0  0  0  0  0  0  0  0  0  0  0
  192.5600  170.5630  137.4520 C   0  0  0  0  0  1  0  0  0  0  0  0
  189.9350  173.3180  137.1370 C   0  0  0  0  0  2  0  0  0  0  0  0
  191.3430  171.3560  137.3680 N   0  0  0  0  0  0  0  0  0  0  0  0
  192.0790  173.1220  135.8730 C   0  0  0  0  0  2  0  0  0  0  0  0
  188.9020  175.1370  146.4280 C   0  0  0  0  0  1  0  0  0  0  0  0
  189.9050  175.7250  145.4450 C   0  0  2  0  0  3  0  0  0  0  0  0
  190.7340  176.8660  146.0480 C   0  0  0  0  0  2  0  0  0  0  0  0
  191.8740  176.3930  146.9450 C   0  0  0  0  0  2  0  0  0  0  0  0
  193.0230  176.7100  144.7330 C   0  0  0  0  0  1  0  0  0  0  0  0
  193.1420  176.1340  146.1350 C   0  0  2  0  0  3  0  0  0  0  0  0
  193.5050  174.6500  146.0860 C   0  0  1  0  0  3  0  0  0  0  0  0
  193.1490  174.1120  144.8470 O   0  0  0  0  0  1  0  0  0  0  0  0
  194.9850  174.3930  146.3550 C   0  0  0  0  0  2  0  0  0  0  0  0
  195.7160  174.1560  145.0720 C   0  0  0  0  0  0  0  0  0  0  0  0
  196.0080  172.8620  144.6030 C   0  0  0  0  0  0  0  0  0  0  0  0
  197.9410  173.4920  141.4810 C   0  0  0  0  0  1  0  0  0  0  0  0
  197.1680  173.7800  142.7250 C   0  0  0  0  0  0  0  0  0  0  0  0
  196.1550  175.2560  144.3370 C   0  0  0  0  0  3  0  0  0  0  0  0
  196.7320  172.7200  143.4580 N   0  0  0  0  0  0  0  0  0  0  0  0
  196.8810  175.0970  143.1520 C   0  0  0  0  0  0  0  0  0  0  0  0
  195.6000  171.6390  145.3750 C   0  0  0  0  0  3  0  0  0  0  0  0
  196.7810  171.0610  146.1380 C   0  0  0  0  0  2  0  0  0  0  0  0
  196.3370  170.4210  144.8430 C   0  0  0  0  0  2  0  0  0  0  0  0
  197.3130  176.3180  142.4250 C   0  0  0  0  0  0  0  0  0  0  0  0
  197.1680  176.4210  141.1780 O   0  0  0  0  0  0  0  0  0  0  0  0
  197.9060  177.3990  143.1380 N   0  0  0  0  0  1  0  0  0  0  0  0
  190.4130  174.1110  143.1920 O   0  0  0  0  0  0  0  0  0  0  0  0
  191.8320  174.4750  141.2490 C   0  0  0  0  0  2  0  0  0  0  0  0
  191.4440  169.9980  142.1180 C   0  0  0  0  0  2  0  0  0  0  0  0
  193.2980  174.2000  141.6380 C   0  0  1  0  0  3  0  0  0  0  0  0
  190.8350  173.5390  141.9790 C   0  0  1  0  0  3  0  0  0  0  0  0
  191.5090  172.1940  142.2660 C   0  0  2  0  0  3  0  0  0  0  0  0
  193.6700  172.7070  141.5090 C   0  0  0  0  0  2  0  0  0  0  0  0
  194.2210  175.0380  140.7810 C   0  0  0  0  0  1  0  0  0  0  0  0
  192.4860  171.8910  141.2410 N   0  0  1  0  0  0  0  0  0  0  0  0
  192.7440  170.5010  141.5150 C   0  0  0  0  0  2  0  0  0  0  0  0
  190.6220  171.1160  142.3530 O   0  0  0  0  0  0  0  0  0  0  0  0
  1  2  2  0  0  0  0
  2 27  1  0  0  0  0
  3 48  1  1  0  0  0
  3  2  1  0  0  0  0
  4  6  2  0  0  0  0
  4  7  1  0  0  0  0
  6  3  1  0  0  0  0
  7  5  1  6  0  0  0
  7 10  1  0  0  0  0
  7  1  1  0  0  0  0
  8 11  2  0  0  0  0
  9 11  1  0  0  0  0
 10  9  1  0  0  0  0
 11 13  1  0  0  0  0
 12 10  2  0  0  0  0
 13 14  2  0  0  0  0
 15  6  1  0  0  0  0
 16 15  2  0  0  0  0
 17 16  1  0  0  0  0
 18 20  1  0  0  0  0
 18 17  1  0  0  0  0
 20 19  2  0  0  0  0
 21 23  1  0  0  0  0
 21 24  1  0  0  0  0
 23 18  1  0  0  0  0
 24 22  1  0  0  0  0
 24 20  1  0  0  0  0
 25 21  2  0  0  0  0
 27 28  1  0  0  0  0
 27 26  1  1  0  0  0
 28 29  1  0  0  0  0
 31 30  1  6  0  0  0
 31 29  1  0  0  0  0
 32 33  1  6  0  0  0
 32 31  1  0  0  0  0
 32 34  1  0  0  0  0
 35 34  1  0  0  0  0
 36 35  1  0  0  0  0
 36 42  1  0  0  0  0
 37 38  1  0  0  0  0
 38 41  2  0  0  0  0
 38 40  1  0  0  0  0
 39 35  2  0  0  0  0
 40 36  2  0  0  0  0
 41 39  1  0  0  0  0
 42 43  1  0  0  0  0
 44 42  1  0  0  0  0
 44 43  1  0  0  0  0
 45 47  1  0  0  0  0
 45 41  1  0  0  0  0
 46 45  2  0  0  0  0
 49 51  1  0  0  0  0
 49 52  1  0  0  0  0
 50 58  1  0  0  0  0
 51 55  1  6  0  0  0
 52 53  1  0  0  0  0
 52 48  1  1  0  0  0
 53 58  1  6  0  0  0
 54 51  1  0  0  0  0
 56 54  1  1  0  0  0
 56 57  1  0  0  0  0
 56 53  1  0  0  0  0
 57 50  1  0  0  0  0
M  END
>  <MODEL>
8

>  <REMARK>
 VINA RESULT:      -6.1      1.504      2.093
  Name = 
  16 active torsions:
  status: ('A' for Active; 'I' for Inactive)
    1  A    between atoms: C_1  and  C_14
    2  A    between atoms: N_3  and  C_39
    3  A    between atoms: C_5  and  C_10
    4  A    between atoms: C_8  and  C_52
    5  A    between atoms: C_12  and  C_44
    6  A    between atoms: C_14  and  C_41
    7  A    between atoms: C_17  and  C_42
    8  A    between atoms: O_18  and  C_22
    9  A    between atoms: O_18  and  C_35
   10  A    between atoms: C_21  and  C_33
   11  A    between atoms: C_21  and  C_44
   12  A    between atoms: C_27  and  C_43
   13  A    between atoms: C_31  and  C_39
   14  A    between atoms: C_33  and  C_55
   15  A    between atoms: C_41  and  C_55
   16  A    between atoms: C_46  and  C_50
                            x       y       z     vdW  Elec       q    Type
                         _______ _______ _______ _____ _____    ______ ____

>  <TORSDO>
F 16

$$$$
=
 OpenBabel11072409213D

 58 63  0  0  1  0  0  0  0  0999 V2000
  193.0510  171.0720  143.0940 C   0  0  0  0  0  3  0  0  0  0  0  0
  192.2890  171.9670  142.4370 C   0  0  0  0  0  0  0  0  0  0  0  0
  191.8540  171.6550  141.0110 C   0  0  2  0  0  3  0  0  0  0  0  0
  193.6760  169.9930  140.9690 C   0  0  0  0  0  3  0  0  0  0  0  0
  192.3100  168.7670  142.6080 C   0  0  0  0  0  1  0  0  0  0  0  0
  192.9490  170.8810  140.2760 C   0  0  0  0  0  0  0  0  0  0  0  0
  193.4470  169.7690  142.4470 C   0  0  2  0  0  0  0  0  0  0  0  0
  196.8590  168.1840  144.7460 O   0  0  0  0  0  0  0  0  0  0  0  0
  194.7140  169.1020  144.5470 N   0  0  0  0  0  2  0  0  0  0  0  0
  194.6890  169.2440  143.1190 C   0  0  0  0  0  0  0  0  0  0  0  0
  195.8250  168.6200  145.3150 C   0  0  0  0  0  0  0  0  0  0  0  0
  195.7270  169.0130  142.4400 O   0  0  0  0  0  0  0  0  0  0  0  0
  195.7670  168.6210  146.7810 C   0  0  0  0  0  3  0  0  0  0  0  0
  194.6160  168.5640  147.4390 C   0  0  0  0  0  2  0  0  0  0  0  0
  193.2320  170.9780  138.8340 C   0  0  0  0  0  3  0  0  0  0  0  0
  194.3540  171.4640  138.3250 C   0  0  0  0  0  3  0  0  0  0  0  0
  194.5610  171.5330  136.8500 C   0  0  0  0  0  2  0  0  0  0  0  0
  194.7600  172.9110  136.4290 N   0  0  0  0  0  0  0  0  0  0  0  0
  197.1040  173.0610  136.6990 O   0  0  0  0  0  0  0  0  0  0  0  0
  196.0030  173.5950  136.3990 C   0  0  0  0  0  0  0  0  0  0  0  0
  194.4560  175.1350  135.8740 C   0  0  0  0  0  0  0  0  0  0  0  0
  196.8640  175.9950  136.2020 C   0  0  0  0  0  1  0  0  0  0  0  0
  193.6970  173.8630  136.1180 C   0  0  0  0  0  2  0  0  0  0  0  0
  195.8630  174.9530  136.0320 N   0  0  0  0  0  0  0  0  0  0  0  0
  193.8840  176.3110  135.6620 C   0  0  0  0  0  2  0  0  0  0  0  0
  192.3850  174.4830  142.2530 C   0  0  0  0  0  1  0  0  0  0  0  0
  191.9350  173.2860  143.0800 C   0  0  2  0  0  3  0  0  0  0  0  0
  192.3320  173.3960  144.5560 C   0  0  0  0  0  2  0  0  0  0  0  0
  191.8610  174.6840  145.2270 C   0  0  0  0  0  2  0  0  0  0  0  0
  192.5070  176.1450  147.1680 C   0  0  0  0  0  1  0  0  0  0  0  0
  193.0100  175.3780  145.9540 C   0  0  2  0  0  3  0  0  0  0  0  0
  193.8140  176.2900  145.0270 C   0  0  1  0  0  3  0  0  0  0  0  0
  193.6250  177.6260  145.3890 O   0  0  0  0  0  1  0  0  0  0  0  0
  195.3050  175.9620  145.0220 C   0  0  0  0  0  2  0  0  0  0  0  0
  195.6210  174.9860  143.9340 C   0  0  0  0  0  0  0  0  0  0  0  0
  195.8780  173.6280  144.1960 C   0  0  0  0  0  0  0  0  0  0  0  0
  196.6760  172.2360  140.8340 C   0  0  0  0  0  1  0  0  0  0  0  0
  196.3030  173.2370  141.8770 C   0  0  0  0  0  0  0  0  0  0  0  0
  195.7010  175.4480  142.6210 C   0  0  0  0  0  3  0  0  0  0  0  0
  196.2210  172.8070  143.1650 N   0  0  0  0  0  0  0  0  0  0  0  0
  196.0360  174.5900  141.5680 C   0  0  0  0  0  0  0  0  0  0  0  0
  195.8510  173.0820  145.5970 C   0  0  0  0  0  3  0  0  0  0  0  0
  197.1450  173.4000  146.3270 C   0  0  0  0  0  2  0  0  0  0  0  0
  196.9230  172.0170  145.7580 C   0  0  0  0  0  2  0  0  0  0  0  0
  196.1000  175.1570  140.1960 C   0  0  0  0  0  0  0  0  0  0  0  0
  197.1950  175.5190  139.6910 O   0  0  0  0  0  0  0  0  0  0  0  0
  194.9090  175.3010  139.4290 N   0  0  0  0  0  1  0  0  0  0  0  0
  191.4500  172.8240  140.3420 O   0  0  0  0  0  0  0  0  0  0  0  0
  189.1560  172.9090  141.1470 C   0  0  0  0  0  2  0  0  0  0  0  0
  189.2970  173.7610  136.6520 C   0  0  0  0  0  2  0  0  0  0  0  0
  188.6920  174.3790  141.1880 C   0  0  1  0  0  3  0  0  0  0  0  0
  190.1130  172.6190  139.9620 C   0  0  1  0  0  3  0  0  0  0  0  0
  189.7760  173.5460  138.7900 C   0  0  2  0  0  3  0  0  0  0  0  0
  188.1310  174.8560  139.8300 C   0  0  0  0  0  2  0  0  0  0  0  0
  187.6480  174.5570  142.2690 C   0  0  0  0  0  1  0  0  0  0  0  0
  188.3630  173.8590  138.7860 N   0  0  1  0  0  0  0  0  0  0  0  0
  188.2180  174.4400  137.4760 C   0  0  0  0  0  2  0  0  0  0  0  0
  190.1100  173.0250  137.5350 O   0  0  0  0  0  0  0  0  0  0  0  0
  2 27  1  0  0  0  0
  2  1  2  0  0  0  0
  3 48  1  6  0  0  0
  3  2  1  0  0  0  0
  4  7  1  0  0  0  0
  6  4  2  0  0  0  0
  6  3  1  0  0  0  0
  7  5  1  1  0  0  0
  7  1  1  0  0  0  0
  7 10  1  0  0  0  0
  8 11  2  0  0  0  0
  9 11  1  0  0  0  0
 10  9  1  0  0  0  0
 11 13  1  0  0  0  0
 12 10  2  0  0  0  0
 13 14  2  0  0  0  0
 15  6  1  0  0  0  0
 16 15  2  0  0  0  0
 17 16  1  0  0  0  0
 18 17  1  0  0  0  0
 20 18  1  0  0  0  0
 20 19  2  0  0  0  0
 21 24  1  0  0  0  0
 21 23  1  0  0  0  0
 23 18  1  0  0  0  0
 24 22  1  0  0  0  0
 24 20  1  0  0  0  0
 25 21  2  0  0  0  0
 27 26  1  6  0  0  0
 27 28  1  0  0  0  0
 28 29  1  0  0  0  0
 29 31  1  0  0  0  0
 31 30  1  1  0  0  0
 32 33  1  1  0  0  0
 32 31  1  0  0  0  0
 34 32  1  0  0  0  0
 35 36  1  0  0  0  0
 35 34  1  0  0  0  0
 36 42  1  0  0  0  0
 37 38  1  0  0  0  0
 38 40  1  0  0  0  0
 39 35  2  0  0  0  0
 40 36  2  0  0  0  0
 41 38  2  0  0  0  0
 41 39  1  0  0  0  0
 42 44  1  0  0  0  0
 42 43  1  0  0  0  0
 44 43  1  0  0  0  0
 45 41  1  0  0  0  0
 46 45  2  0  0  0  0
 47 45  1  0  0  0  0
 49 51  1  0  0  0  0
 50 57  1  0  0  0  0
 50 58  1  0  0  0  0
 51 55  1  1  0  0  0
 52 48  1  1  0  0  0
 52 49  1  0  0  0  0
 53 58  1  6  0  0  0
 53 52  1  0  0  0  0
 54 51  1  0  0  0  0
 56 57  1  6  0  0  0
 56 53  1  0  0  0  0
 56 54  1  0  0  0  0
M  END
>  <MODEL>
9

>  <REMARK>
 VINA RESULT:      -5.8      3.039      6.713
  Name = 
  16 active torsions:
  status: ('A' for Active; 'I' for Inactive)
    1  A    between atoms: C_1  and  C_14
    2  A    between atoms: N_3  and  C_39
    3  A    between atoms: C_5  and  C_10
    4  A    between atoms: C_8  and  C_52
    5  A    between atoms: C_12  and  C_44
    6  A    between atoms: C_14  and  C_41
    7  A    between atoms: C_17  and  C_42
    8  A    between atoms: O_18  and  C_22
    9  A    between atoms: O_18  and  C_35
   10  A    between atoms: C_21  and  C_33
   11  A    between atoms: C_21  and  C_44
   12  A    between atoms: C_27  and  C_43
   13  A    between atoms: C_31  and  C_39
   14  A    between atoms: C_33  and  C_55
   15  A    between atoms: C_41  and  C_55
   16  A    between atoms: C_46  and  C_50
                            x       y       z     vdW  Elec       q    Type
                         _______ _______ _______ _____ _____    ______ ____

>  <TORSDO>
F 16

$$$$
