=
 OpenBabel11062421493D

 48 52  0  0  1  0  0  0  0  0999 V2000
  189.0840  172.3820  141.8320 C   0  0  0  0  0  3  0  0  0  0  0  0
  190.6170  171.8270  140.0570 O   0  0  0  0  0  0  0  0  0  0  0  0
  190.9440  173.4770  137.3300 N   0  0  0  0  0  1  0  0  0  0  0  0
  195.1450  174.8990  145.7550 C   0  0  0  0  0  0  0  0  0  0  0  0
  196.6330  173.5560  144.4800 O   0  0  0  0  0  0  0  0  0  0  0  0
  188.5390  173.3090  142.7260 C   0  0  0  0  0  3  0  0  0  0  0  0
  189.9370  175.0450  141.7810 C   0  0  0  0  0  3  0  0  0  0  0  0
  190.0640  172.7770  140.9160 C   0  0  0  0  0  0  0  0  0  0  0  0
  197.1470  174.3290  143.4380 C   0  0  0  0  0  0  0  0  0  0  0  0
  192.6880  171.0330  139.1490 C   0  0  1  0  0  3  0  0  0  0  0  0
  196.7330  174.0370  142.0610 C   0  0  0  0  0  0  0  0  0  0  0  0
  192.3450  171.6360  137.0560 O   0  0  0  0  0  0  0  0  0  0  0  0
  196.6460  174.0020  139.8320 C   0  0  0  0  0  0  0  0  0  0  0  0
  188.4360  175.6490  143.6820 C   0  0  2  0  0  3  0  0  0  0  0  0
  197.9410  175.2800  143.6790 O   0  0  0  0  0  0  0  0  0  0  0  0
  193.7100  173.3090  143.4300 C   0  0  0  0  0  2  0  0  0  0  0  0
  194.5760  172.7230  139.2580 C   0  0  0  0  0  2  0  0  0  0  0  0
  195.5790  173.3070  140.2050 C   0  0  0  0  0  0  0  0  0  0  0  0
  191.6900  172.1450  139.1830 C   0  0  1  0  0  3  0  0  0  0  0  0
  191.6150  174.1190  144.5510 C   0  0  1  0  0  3  0  0  0  0  0  0
  190.4820  174.1170  140.8900 C   0  0  0  0  0  3  0  0  0  0  0  0
  193.1260  174.3180  144.4070 C   0  0  1  0  0  3  0  0  0  0  0  0
  195.4960  173.2670  141.6990 C   0  0  2  0  0  3  0  0  0  0  0  0
  192.8740  170.6660  137.8020 O   0  0  0  0  0  0  0  0  0  0  0  0
  197.3870  174.4740  140.9860 C   0  0  0  0  0  3  0  0  0  0  0  0
  193.8260  174.1940  145.7610 C   0  0  0  0  0  2  0  0  0  0  0  0
  194.2550  174.0040  142.1950 C   0  0  0  0  0  2  0  0  0  0  0  0
  188.9720  174.6430  142.7080 C   0  0  0  0  0  0  0  0  0  0  0  0
  197.0210  174.2450  138.4810 N   0  0  0  0  0  1  0  0  0  0  0  0
  191.2470  172.1270  137.7660 C   0  0  1  0  0  3  0  0  0  0  0  0
  195.1910  176.1200  145.6790 O   0  0  0  0  0  0  0  0  0  0  0  0
  189.5990  174.9360  145.8620 C   0  0  0  0  0  0  0  0  0  0  0  0
  189.4490  174.4710  147.0210 O   0  0  0  0  0  0  0  0  0  0  0  0
  194.0030  171.4240  139.8150 C   0  0  0  0  0  2  0  0  0  0  0  0
  191.3410  172.8660  145.1120 O   0  0  0  0  0  1  0  0  0  0  0  0
  190.9960  175.2400  145.3950 C   0  0  2  0  0  3  0  0  0  0  0  0
  188.4380  175.1260  145.0440 N   0  0  0  0  0  2  0  0  0  0  0  0
  196.4120  174.1020  145.7740 C   0  0  0  0  0  2  0  0  0  0  0  0
  191.0470  176.4590  144.7120 O   0  0  0  0  0  1  0  0  0  0  0  0
  187.0550  176.1290  143.3240 C   0  0  0  0  0  0  0  0  0  0  0  0
  187.0620  178.1050  144.9580 C   0  0  0  0  0  0  0  0  0  0  0  0
  188.3470  178.2370  144.9640 N   0  0  0  0  0  2  0  0  0  0  0  0
  186.3890  175.5250  142.4390 O   0  0  0  0  0  0  0  0  0  0  0  0
  186.4230  177.1850  144.0570 N   0  0  0  0  0  2  0  0  0  0  0  0
  186.2930  178.9010  145.8130 O   0  0  0  0  0  0  0  0  0  0  0  0
  186.2630  177.0510  147.3450 C   0  0  0  0  0  1  0  0  0  0  0  0
  185.6210  178.3700  146.9490 C   0  0  0  0  0  3  0  0  0  0  0  0
  184.1570  178.1250  146.6130 C   0  0  0  0  0  1  0  0  0  0  0  0
  1  6  1  0  0  0  0
  2  8  1  0  0  0  0
  4 26  1  0  0  0  0
  4 38  1  0  0  0  0
  5 38  1  0  0  0  0
  7 28  1  0  0  0  0
  8  1  2  0  0  0  0
  9 15  2  0  0  0  0
  9  5  1  0  0  0  0
 10 19  1  0  0  0  0
 10 34  1  6  0  0  0
 11  9  1  0  0  0  0
 12 30  1  0  0  0  0
 12 24  1  0  0  0  0
 13 18  2  0  0  0  0
 13 25  1  0  0  0  0
 14 40  1  6  0  0  0
 14 37  1  0  0  0  0
 17 34  1  0  0  0  0
 17 18  1  0  0  0  0
 18 23  1  0  0  0  0
 19  2  1  1  0  0  0
 20 35  1  1  0  0  0
 20 36  1  0  0  0  0
 21  8  1  0  0  0  0
 21  7  2  0  0  0  0
 22 16  1  6  0  0  0
 22 20  1  0  0  0  0
 22 26  1  0  0  0  0
 23 11  1  0  0  0  0
 23 27  1  6  0  0  0
 24 10  1  0  0  0  0
 25 11  2  0  0  0  0
 27 16  1  0  0  0  0
 28  6  2  0  0  0  0
 28 14  1  0  0  0  0
 29 13  1  0  0  0  0
 30  3  1  6  0  0  0
 30 19  1  0  0  0  0
 31  4  2  0  0  0  0
 32 33  2  0  0  0  0
 36 39  1  6  0  0  0
 36 32  1  0  0  0  0
 37 32  1  0  0  0  0
 40 44  1  0  0  0  0
 41 42  2  0  0  0  0
 41 45  1  0  0  0  0
 43 40  2  0  0  0  0
 44 41  1  0  0  0  0
 45 47  1  0  0  0  0
 47 46  1  0  0  0  0
 48 47  1  0  0  0  0
M  END
>  <MODEL>
1

>  <REMARK>
 VINA RESULT:      -8.4      0.000      0.000
  Name = 
  3 active torsions:
  status: ('A' for Active; 'I' for Inactive)
    1  A    between atoms: C_5  and  O_40
    2  A    between atoms: C_11  and  C_19
    3  A    between atoms: C_17  and  O_40
                            x       y       z     vdW  Elec       q    Type
                         _______ _______ _______ _____ _____    ______ ____

>  <TORSDO>
F 3

$$$$
=
 OpenBabel11062421493D

 48 52  0  0  1  0  0  0  0  0999 V2000
  190.0380  172.2880  144.2170 C   0  0  0  0  0  3  0  0  0  0  0  0
  190.5620  171.1960  142.1340 O   0  0  0  0  0  0  0  0  0  0  0  0
  189.1860  171.8580  139.3170 N   0  0  0  0  0  1  0  0  0  0  0  0
  196.6650  176.0280  143.4790 C   0  0  0  0  0  0  0  0  0  0  0  0
  197.5430  174.3580  142.0380 O   0  0  0  0  0  0  0  0  0  0  0  0
  189.8480  173.4510  144.9690 C   0  0  0  0  0  3  0  0  0  0  0  0
  190.2470  174.7940  142.9950 C   0  0  0  0  0  3  0  0  0  0  0  0
  190.3430  172.3700  142.8560 C   0  0  0  0  0  0  0  0  0  0  0  0
  197.3220  174.7490  140.7170 C   0  0  0  0  0  0  0  0  0  0  0  0
  192.0160  170.1710  140.5280 C   0  0  1  0  0  3  0  0  0  0  0  0
  196.3420  174.0140  139.9080 C   0  0  0  0  0  0  0  0  0  0  0  0
  190.5770  170.0460  138.8610 O   0  0  0  0  0  0  0  0  0  0  0  0
  195.1710  173.2460  138.1730 C   0  0  0  0  0  0  0  0  0  0  0  0
  189.8040  175.9750  145.1510 C   0  0  2  0  0  3  0  0  0  0  0  0
  197.9410  175.7350  140.2300 O   0  0  0  0  0  0  0  0  0  0  0  0
  194.5860  173.7440  142.8040 C   0  0  0  0  0  2  0  0  0  0  0  0
  193.3640  171.8250  139.1550 C   0  0  0  0  0  2  0  0  0  0  0  0
  194.5760  172.7000  139.2260 C   0  0  0  0  0  0  0  0  0  0  0  0
  190.9820  171.2210  140.7770 C   0  0  1  0  0  3  0  0  0  0  0  0
  193.2140  174.8540  144.5900 C   0  0  1  0  0  3  0  0  0  0  0  0
  190.4400  173.6310  142.2460 C   0  0  0  0  0  3  0  0  0  0  0  0
  194.3900  175.0120  143.6210 C   0  0  1  0  0  3  0  0  0  0  0  0
  195.2540  173.1540  140.4820 C   0  0  2  0  0  3  0  0  0  0  0  0
  191.5740  169.3830  139.4480 O   0  0  0  0  0  0  0  0  0  0  0  0
  196.2850  174.0800  138.5790 C   0  0  0  0  0  3  0  0  0  0  0  0
  195.6770  175.3490  144.3740 C   0  0  0  0  0  2  0  0  0  0  0  0
  194.3110  173.9990  141.3330 C   0  0  0  0  0  2  0  0  0  0  0  0
  189.9610  174.7090  144.3600 C   0  0  0  0  0  0  0  0  0  0  0  0
  194.7760  173.0330  136.8220 N   0  0  0  0  0  1  0  0  0  0  0  0
  189.9070  170.7310  139.8780 C   0  0  1  0  0  3  0  0  0  0  0  0
  196.4420  177.1560  143.0590 O   0  0  0  0  0  0  0  0  0  0  0  0
  192.0020  176.0330  146.4840 C   0  0  0  0  0  0  0  0  0  0  0  0
  192.5330  175.9750  147.6220 O   0  0  0  0  0  0  0  0  0  0  0  0
  193.3910  170.7760  140.2620 C   0  0  0  0  0  2  0  0  0  0  0  0
  193.4890  173.8530  145.5280 O   0  0  0  0  0  1  0  0  0  0  0  0
  192.9010  176.1830  145.2870 C   0  0  2  0  0  3  0  0  0  0  0  0
  190.5760  175.9290  146.3880 N   0  0  0  0  0  2  0  0  0  0  0  0
  197.8970  175.2970  143.0440 C   0  0  0  0  0  2  0  0  0  0  0  0
  192.3830  177.1090  144.3770 O   0  0  0  0  0  1  0  0  0  0  0  0
  188.3660  176.2930  145.4610 C   0  0  0  0  0  0  0  0  0  0  0  0
  188.0100  177.7920  143.4110 C   0  0  0  0  0  0  0  0  0  0  0  0
  188.9210  177.2180  142.6970 N   0  0  0  0  0  2  0  0  0  0  0  0
  187.8160  175.7910  146.4790 O   0  0  0  0  0  0  0  0  0  0  0  0
  187.6370  177.2570  144.6920 N   0  0  0  0  0  2  0  0  0  0  0  0
  187.3610  178.9210  142.9030 O   0  0  0  0  0  0  0  0  0  0  0  0
  185.2990  179.5170  143.9820 C   0  0  0  0  0  1  0  0  0  0  0  0
  185.9510  178.9720  142.7220 C   0  0  0  0  0  3  0  0  0  0  0  0
  185.4140  177.5730  142.4550 C   0  0  0  0  0  1  0  0  0  0  0  0
  1  6  1  0  0  0  0
  2  8  1  0  0  0  0
  4 26  1  0  0  0  0
  5 38  1  0  0  0  0
  7 28  1  0  0  0  0
  8  1  2  0  0  0  0
  9  5  1  0  0  0  0
 10 34  1  6  0  0  0
 10 19  1  0  0  0  0
 11 23  1  0  0  0  0
 11  9  1  0  0  0  0
 12 24  1  0  0  0  0
 12 30  1  0  0  0  0
 13 25  1  0  0  0  0
 13 18  2  0  0  0  0
 14 40  1  1  0  0  0
 14 37  1  0  0  0  0
 15  9  2  0  0  0  0
 17 18  1  0  0  0  0
 17 34  1  0  0  0  0
 18 23  1  0  0  0  0
 19  2  1  1  0  0  0
 20 36  1  0  0  0  0
 20 35  1  1  0  0  0
 21  8  1  0  0  0  0
 21  7  2  0  0  0  0
 22 16  1  1  0  0  0
 22 26  1  0  0  0  0
 22 20  1  0  0  0  0
 23 27  1  1  0  0  0
 24 10  1  0  0  0  0
 25 11  2  0  0  0  0
 27 16  1  0  0  0  0
 28  6  2  0  0  0  0
 28 14  1  0  0  0  0
 29 13  1  0  0  0  0
 30  3  1  6  0  0  0
 30 19  1  0  0  0  0
 31  4  2  0  0  0  0
 32 33  2  0  0  0  0
 36 39  1  6  0  0  0
 36 32  1  0  0  0  0
 37 32  1  0  0  0  0
 38  4  1  0  0  0  0
 40 43  2  0  0  0  0
 41 44  1  0  0  0  0
 42 41  2  0  0  0  0
 44 40  1  0  0  0  0
 45 41  1  0  0  0  0
 47 45  1  0  0  0  0
 47 46  1  0  0  0  0
 48 47  1  0  0  0  0
M  END
>  <MODEL>
2

>  <REMARK>
 VINA RESULT:      -8.2      1.996      2.580
  Name = 
  3 active torsions:
  status: ('A' for Active; 'I' for Inactive)
    1  A    between atoms: C_5  and  O_40
    2  A    between atoms: C_11  and  C_19
    3  A    between atoms: C_17  and  O_40
                            x       y       z     vdW  Elec       q    Type
                         _______ _______ _______ _____ _____    ______ ____

>  <TORSDO>
F 3

$$$$
=
 OpenBabel11062421493D

 48 52  0  0  1  0  0  0  0  0999 V2000
  191.4590  168.7870  141.6800 C   0  0  0  0  0  3  0  0  0  0  0  0
  193.3340  168.6380  143.1880 O   0  0  0  0  0  0  0  0  0  0  0  0
  196.4100  168.5920  142.2940 N   0  0  0  0  0  1  0  0  0  0  0  0
  190.7350  176.0630  143.9130 C   0  0  0  0  0  0  0  0  0  0  0  0
  191.8880  175.6420  145.9460 O   0  0  0  0  0  0  0  0  0  0  0  0
  190.8040  169.3990  140.6080 C   0  0  0  0  0  3  0  0  0  0  0  0
  192.6660  170.9220  140.3370 C   0  0  0  0  0  3  0  0  0  0  0  0
  192.7140  169.2440  142.0940 C   0  0  0  0  0  0  0  0  0  0  0  0
  193.2340  175.9640  145.7690 C   0  0  0  0  0  0  0  0  0  0  0  0
  194.5290  169.0960  145.2150 C   0  0  1  0  0  3  0  0  0  0  0  0
  194.2280  174.8850  145.7360 C   0  0  0  0  0  0  0  0  0  0  0  0
  196.4800  168.2730  144.6010 O   0  0  0  0  0  0  0  0  0  0  0  0
  196.1670  173.7830  145.7640 C   0  0  0  0  0  0  0  0  0  0  0  0
  190.7050  171.1790  138.8120 C   0  0  2  0  0  3  0  0  0  0  0  0
  193.5890  177.1660  145.6190 O   0  0  0  0  0  0  0  0  0  0  0  0
  191.8140  173.1010  144.1450 C   0  0  0  0  0  2  0  0  0  0  0  0
  195.5940  171.3980  145.2850 C   0  0  0  0  0  2  0  0  0  0  0  0
  195.2660  172.8390  145.5240 C   0  0  0  0  0  0  0  0  0  0  0  0
  194.5550  169.1290  143.7210 C   0  0  1  0  0  3  0  0  0  0  0  0
  190.4270  172.7350  142.0840 C   0  0  1  0  0  3  0  0  0  0  0  0
  193.3180  170.3110  141.4110 C   0  0  0  0  0  3  0  0  0  0  0  0
  191.0990  173.7760  142.9830 C   0  0  1  0  0  3  0  0  0  0  0  0
  193.9000  173.4470  145.4530 C   0  0  2  0  0  3  0  0  0  0  0  0
  195.6600  168.3790  145.6470 O   0  0  0  0  0  0  0  0  0  0  0  0
  195.5350  175.0820  145.8990 C   0  0  0  0  0  3  0  0  0  0  0  0
  190.0770  174.7800  143.5160 C   0  0  0  0  0  2  0  0  0  0  0  0
  193.3150  173.3080  144.0510 C   0  0  0  0  0  2  0  0  0  0  0  0
  191.4030  170.4760  139.9390 C   0  0  0  0  0  0  0  0  0  0  0  0
  197.5660  173.5540  145.8850 N   0  0  0  0  0  1  0  0  0  0  0  0
  195.6670  168.1780  143.4700 C   0  0  1  0  0  3  0  0  0  0  0  0
  191.2260  176.7930  143.0610 O   0  0  0  0  0  0  0  0  0  0  0  0
  188.8990  172.5110  140.0680 C   0  0  0  0  0  0  0  0  0  0  0  0
  187.6680  172.6660  140.2680 O   0  0  0  0  0  0  0  0  0  0  0  0
  194.4840  170.4980  145.8160 C   0  0  0  0  0  2  0  0  0  0  0  0
  189.4240  172.0600  142.7890 O   0  0  0  0  0  1  0  0  0  0  0  0
  189.8580  173.3920  140.8210 C   0  0  2  0  0  3  0  0  0  0  0  0
  189.3220  171.4910  139.1550 N   0  0  0  0  0  2  0  0  0  0  0  0
  190.8520  176.4210  145.3620 C   0  0  0  0  0  2  0  0  0  0  0  0
  190.8880  173.8460  139.9920 O   0  0  0  0  0  1  0  0  0  0  0  0
  190.7470  170.4010  137.5250 C   0  0  0  0  0  0  0  0  0  0  0  0
  191.8440  172.2710  136.1560 C   0  0  0  0  0  0  0  0  0  0  0  0
  192.4200  172.8250  137.1700 N   0  0  0  0  0  2  0  0  0  0  0  0
  190.3140  169.2160  137.4910 O   0  0  0  0  0  0  0  0  0  0  0  0
  191.1550  171.0180  136.2970 N   0  0  0  0  0  2  0  0  0  0  0  0
  191.9330  172.8870  134.9040 O   0  0  0  0  0  0  0  0  0  0  0  0
  191.6900  175.2770  134.9090 C   0  0  0  0  0  1  0  0  0  0  0  0
  191.0700  173.9480  134.5130 C   0  0  0  0  0  3  0  0  0  0  0  0
  189.7260  173.8030  135.2130 C   0  0  0  0  0  1  0  0  0  0  0  0
  1  8  1  0  0  0  0
  4 38  1  0  0  0  0
  6  1  2  0  0  0  0
  7 21  1  0  0  0  0
  8  2  1  0  0  0  0
  9  5  1  0  0  0  0
 10 24  1  0  0  0  0
 10 34  1  1  0  0  0
 11  9  1  0  0  0  0
 11 25  2  0  0  0  0
 12 24  1  0  0  0  0
 13 29  1  0  0  0  0
 13 25  1  0  0  0  0
 14 40  1  6  0  0  0
 14 37  1  0  0  0  0
 14 28  1  0  0  0  0
 15  9  2  0  0  0  0
 17 18  1  0  0  0  0
 17 34  1  0  0  0  0
 18 13  2  0  0  0  0
 19  2  1  6  0  0  0
 19 10  1  0  0  0  0
 20 35  1  1  0  0  0
 20 22  1  0  0  0  0
 21  8  2  0  0  0  0
 22 26  1  1  0  0  0
 22 16  1  0  0  0  0
 23 27  1  6  0  0  0
 23 18  1  0  0  0  0
 23 11  1  0  0  0  0
 26  4  1  0  0  0  0
 27 16  1  0  0  0  0
 28  7  2  0  0  0  0
 28  6  1  0  0  0  0
 30  3  1  6  0  0  0
 30 19  1  0  0  0  0
 30 12  1  0  0  0  0
 31  4  2  0  0  0  0
 32 33  2  0  0  0  0
 32 36  1  0  0  0  0
 36 39  1  6  0  0  0
 36 20  1  0  0  0  0
 37 32  1  0  0  0  0
 38  5  1  0  0  0  0
 41 44  1  0  0  0  0
 41 42  2  0  0  0  0
 43 40  2  0  0  0  0
 44 40  1  0  0  0  0
 45 41  1  0  0  0  0
 47 45  1  0  0  0  0
 47 46  1  0  0  0  0
 47 48  1  0  0  0  0
M  END
>  <MODEL>
3

>  <REMARK>
 VINA RESULT:      -7.7      3.662      7.304
  Name = 
  3 active torsions:
  status: ('A' for Active; 'I' for Inactive)
    1  A    between atoms: C_5  and  O_40
    2  A    between atoms: C_11  and  C_19
    3  A    between atoms: C_17  and  O_40
                            x       y       z     vdW  Elec       q    Type
                         _______ _______ _______ _____ _____    ______ ____

>  <TORSDO>
F 3

$$$$
=
 OpenBabel11062421493D

 48 52  0  0  1  0  0  0  0  0999 V2000
  196.4080  175.2480  142.1600 C   0  0  0  0  0  3  0  0  0  0  0  0
  196.2370  175.0540  139.7640 O   0  0  0  0  0  0  0  0  0  0  0  0
  197.3350  172.5890  138.0380 N   0  0  0  0  0  1  0  0  0  0  0  0
  188.9520  173.5800  142.4400 C   0  0  0  0  0  0  0  0  0  0  0  0
  188.6230  174.2940  140.1990 O   0  0  0  0  0  0  0  0  0  0  0  0
  196.2360  174.7150  143.4410 C   0  0  0  0  0  3  0  0  0  0  0  0
  195.4380  172.6440  142.4730 C   0  0  0  0  0  3  0  0  0  0  0  0
  196.0880  174.4890  141.0310 C   0  0  0  0  0  0  0  0  0  0  0  0
  188.7100  173.1820  139.3610 C   0  0  0  0  0  0  0  0  0  0  0  0
  195.1610  175.3160  137.6380 C   0  0  1  0  0  3  0  0  0  0  0  0
  189.8650  173.0510  138.4650 C   0  0  0  0  0  0  0  0  0  0  0  0
  196.5640  174.1040  136.4440 O   0  0  0  0  0  0  0  0  0  0  0  0
  191.2100  172.3710  136.8210 C   0  0  0  0  0  0  0  0  0  0  0  0
  195.5060  172.8290  144.9620 C   0  0  2  0  0  3  0  0  0  0  0  0
  187.8170  172.2910  139.3870 O   0  0  0  0  0  0  0  0  0  0  0  0
  191.6280  174.4600  141.0050 C   0  0  0  0  0  2  0  0  0  0  0  0
  193.3680  173.5830  137.1710 C   0  0  0  0  0  2  0  0  0  0  0  0
  191.9460  173.2460  137.4960 C   0  0  0  0  0  0  0  0  0  0  0  0
  195.8260  174.3720  138.5880 C   0  0  1  0  0  3  0  0  0  0  0  0
  192.6000  174.2550  143.3110 C   0  0  1  0  0  3  0  0  0  0  0  0
  195.6080  173.1790  141.1940 C   0  0  0  0  0  3  0  0  0  0  0  0
  191.4300  173.8800  142.3970 C   0  0  1  0  0  3  0  0  0  0  0  0
  191.1660  173.7740  138.6590 C   0  0  2  0  0  3  0  0  0  0  0  0
  195.8200  175.2090  136.3980 O   0  0  0  0  0  0  0  0  0  0  0  0
  189.8950  172.2310  137.4160 C   0  0  0  0  0  3  0  0  0  0  0  0
  190.1030  174.3690  142.9790 C   0  0  0  0  0  2  0  0  0  0  0  0
  191.8080  173.3550  139.9790 C   0  0  0  0  0  2  0  0  0  0  0  0
  195.7400  173.4120  143.6000 C   0  0  0  0  0  0  0  0  0  0  0  0
  191.6460  171.6710  135.6620 N   0  0  0  0  0  1  0  0  0  0  0  0
  196.9960  173.9730  137.7660 C   0  0  1  0  0  3  0  0  0  0  0  0
  188.8180  172.4020  142.7430 O   0  0  0  0  0  0  0  0  0  0  0  0
  193.3990  174.0970  145.7160 C   0  0  0  0  0  0  0  0  0  0  0  0
  192.9140  174.9230  146.5310 O   0  0  0  0  0  0  0  0  0  0  0  0
  193.6660  175.0400  137.5110 C   0  0  0  0  0  2  0  0  0  0  0  0
  192.6470  175.6410  143.4950 O   0  0  0  0  0  1  0  0  0  0  0  0
  192.4940  173.5290  144.6570 C   0  0  2  0  0  3  0  0  0  0  0  0
  194.7880  173.7620  145.8250 N   0  0  0  0  0  2  0  0  0  0  0  0
  188.0020  174.2190  141.4760 C   0  0  0  0  0  2  0  0  0  0  0  0
  192.7010  172.1560  144.4970 O   0  0  0  0  0  1  0  0  0  0  0  0
  196.7780  172.3910  145.6360 C   0  0  0  0  0  0  0  0  0  0  0  0
  196.3980  169.8850  145.2470 C   0  0  0  0  0  0  0  0  0  0  0  0
  195.6630  170.0480  144.1980 N   0  0  0  0  0  2  0  0  0  0  0  0
  197.5660  173.2520  146.1140 O   0  0  0  0  0  0  0  0  0  0  0  0
  197.0590  171.0040  145.8610 N   0  0  0  0  0  2  0  0  0  0  0  0
  196.5760  168.5950  145.7580 O   0  0  0  0  0  0  0  0  0  0  0  0
  194.7530  169.0250  147.2620 C   0  0  0  0  0  1  0  0  0  0  0  0
  195.9730  168.1680  146.9740 C   0  0  0  0  0  3  0  0  0  0  0  0
  196.9630  168.3170  148.1200 C   0  0  0  0  0  1  0  0  0  0  0  0
  1  6  1  0  0  0  0
  2  8  1  0  0  0  0
  4 31  2  0  0  0  0
  4 26  1  0  0  0  0
  5 38  1  0  0  0  0
  6 28  2  0  0  0  0
  7 28  1  0  0  0  0
  8 21  1  0  0  0  0
  8  1  2  0  0  0  0
  9 15  2  0  0  0  0
  9  5  1  0  0  0  0
 10 34  1  6  0  0  0
 10 19  1  0  0  0  0
 11 23  1  0  0  0  0
 11  9  1  0  0  0  0
 12 30  1  0  0  0  0
 13 25  1  0  0  0  0
 13 18  2  0  0  0  0
 14 40  1  1  0  0  0
 14 37  1  0  0  0  0
 17 18  1  0  0  0  0
 17 34  1  0  0  0  0
 18 23  1  0  0  0  0
 19  2  1  1  0  0  0
 20 35  1  1  0  0  0
 20 36  1  0  0  0  0
 21  7  2  0  0  0  0
 22 16  1  6  0  0  0
 22 26  1  0  0  0  0
 22 20  1  0  0  0  0
 23 27  1  1  0  0  0
 24 12  1  0  0  0  0
 24 10  1  0  0  0  0
 25 11  2  0  0  0  0
 27 16  1  0  0  0  0
 28 14  1  0  0  0  0
 29 13  1  0  0  0  0
 30  3  1  1  0  0  0
 30 19  1  0  0  0  0
 32 37  1  0  0  0  0
 32 33  2  0  0  0  0
 36 39  1  6  0  0  0
 36 32  1  0  0  0  0
 38  4  1  0  0  0  0
 40 44  1  0  0  0  0
 40 43  2  0  0  0  0
 41 45  1  0  0  0  0
 41 44  1  0  0  0  0
 42 41  2  0  0  0  0
 45 47  1  0  0  0  0
 47 46  1  0  0  0  0
 47 48  1  0  0  0  0
M  END
>  <MODEL>
4

>  <REMARK>
 VINA RESULT:      -7.7      3.616      7.948
  Name = 
  3 active torsions:
  status: ('A' for Active; 'I' for Inactive)
    1  A    between atoms: C_5  and  O_40
    2  A    between atoms: C_11  and  C_19
    3  A    between atoms: C_17  and  O_40
                            x       y       z     vdW  Elec       q    Type
                         _______ _______ _______ _____ _____    ______ ____

>  <TORSDO>
F 3

$$$$
=
 OpenBabel11062421493D

 48 52  0  0  1  0  0  0  0  0999 V2000
  194.2510  174.2970  146.3400 C   0  0  0  0  0  3  0  0  0  0  0  0
  195.6300  172.3500  145.9940 O   0  0  0  0  0  0  0  0  0  0  0  0
  194.6210  169.3190  146.2400 N   0  0  0  0  0  1  0  0  0  0  0  0
  194.2660  175.1790  138.7450 C   0  0  0  0  0  0  0  0  0  0  0  0
  196.2660  173.9190  138.5190 O   0  0  0  0  0  0  0  0  0  0  0  0
  193.0840  175.0230  146.0880 C   0  0  0  0  0  3  0  0  0  0  0  0
  192.2720  173.2320  144.6760 C   0  0  0  0  0  3  0  0  0  0  0  0
  194.4410  173.0420  145.7550 C   0  0  0  0  0  0  0  0  0  0  0  0
  195.9290  172.5950  138.2370 C   0  0  0  0  0  0  0  0  0  0  0  0
  197.3610  171.0790  144.9290 C   0  0  1  0  0  3  0  0  0  0  0  0
  196.1610  171.5650  139.2560 C   0  0  0  0  0  0  0  0  0  0  0  0
  196.9120  169.1300  145.8570 O   0  0  0  0  0  0  0  0  0  0  0  0
  196.4080  169.5880  140.2580 C   0  0  0  0  0  0  0  0  0  0  0  0
  190.8500  175.2690  144.9250 C   0  0  2  0  0  3  0  0  0  0  0  0
  195.4100  172.2910  137.1260 O   0  0  0  0  0  0  0  0  0  0  0  0
  195.3050  173.9850  141.4820 C   0  0  0  0  0  2  0  0  0  0  0  0
  196.6880  170.0960  142.6900 C   0  0  0  0  0  2  0  0  0  0  0  0
  196.5070  170.4650  141.2500 C   0  0  0  0  0  0  0  0  0  0  0  0
  195.9250  171.1240  145.3420 C   0  0  1  0  0  3  0  0  0  0  0  0
  193.5250  175.4510  142.4730 C   0  0  1  0  0  3  0  0  0  0  0  0
  193.4410  172.5090  144.9260 C   0  0  0  0  0  3  0  0  0  0  0  0
  194.0370  174.7760  141.1980 C   0  0  1  0  0  3  0  0  0  0  0  0
  196.3350  171.8540  140.7190 C   0  0  2  0  0  3  0  0  0  0  0  0
  197.9230  169.9040  145.4630 O   0  0  0  0  0  0  0  0  0  0  0  0
  196.1870  170.2600  138.9920 C   0  0  0  0  0  3  0  0  0  0  0  0
  194.3040  175.8080  140.1020 C   0  0  0  0  0  2  0  0  0  0  0  0
  195.0710  172.4980  141.2800 C   0  0  0  0  0  2  0  0  0  0  0  0
  192.0940  174.4950  145.2470 C   0  0  0  0  0  0  0  0  0  0  0  0
  196.5140  168.1780  140.4120 N   0  0  0  0  0  1  0  0  0  0  0  0
  195.9060  169.9920  146.3020 C   0  0  1  0  0  3  0  0  0  0  0  0
  193.2110  174.7560  138.2920 O   0  0  0  0  0  0  0  0  0  0  0  0
  191.7520  177.0620  143.3180 C   0  0  0  0  0  0  0  0  0  0  0  0
  191.9660  178.2880  143.1360 O   0  0  0  0  0  0  0  0  0  0  0  0
  197.5220  171.1470  143.4140 C   0  0  0  0  0  2  0  0  0  0  0  0
  194.4520  176.3960  142.9290 O   0  0  0  0  0  1  0  0  0  0  0  0
  192.1570  176.1020  142.2330 C   0  0  2  0  0  3  0  0  0  0  0  0
  191.1600  176.6460  144.5550 N   0  0  0  0  0  2  0  0  0  0  0  0
  195.5360  175.0080  137.9710 C   0  0  0  0  0  2  0  0  0  0  0  0
  191.1760  175.1290  142.0250 O   0  0  0  0  0  1  0  0  0  0  0  0
  189.8500  175.2590  146.0500 C   0  0  0  0  0  0  0  0  0  0  0  0
  187.8850  176.0850  144.6250 C   0  0  0  0  0  0  0  0  0  0  0  0
  188.3540  175.6220  143.5150 N   0  0  0  0  0  2  0  0  0  0  0  0
  190.2030  174.8840  147.2020 O   0  0  0  0  0  0  0  0  0  0  0  0
  188.5300  175.7870  145.8750 N   0  0  0  0  0  2  0  0  0  0  0  0
  186.7140  176.8500  144.6020 O   0  0  0  0  0  0  0  0  0  0  0  0
  185.2190  177.1930  146.4500 C   0  0  0  0  0  1  0  0  0  0  0  0
  186.3770  177.7570  145.6440 C   0  0  0  0  0  3  0  0  0  0  0  0
  185.9580  179.0930  145.0490 C   0  0  0  0  0  1  0  0  0  0  0  0
  4 26  1  0  0  0  0
  6  1  1  0  0  0  0
  7 21  2  0  0  0  0
  7 28  1  0  0  0  0
  8  2  1  0  0  0  0
  8  1  2  0  0  0  0
  9  5  1  0  0  0  0
  9 11  1  0  0  0  0
 10 34  1  6  0  0  0
 10 19  1  0  0  0  0
 10 24  1  0  0  0  0
 11 23  1  0  0  0  0
 12 30  1  0  0  0  0
 13 29  1  0  0  0  0
 13 18  2  0  0  0  0
 14 28  1  0  0  0  0
 14 40  1  1  0  0  0
 15  9  2  0  0  0  0
 17 34  1  0  0  0  0
 18 17  1  0  0  0  0
 19  2  1  1  0  0  0
 19 30  1  0  0  0  0
 20 35  1  6  0  0  0
 21  8  1  0  0  0  0
 22 26  1  6  0  0  0
 22 16  1  0  0  0  0
 22 20  1  0  0  0  0
 23 18  1  0  0  0  0
 23 27  1  1  0  0  0
 24 12  1  0  0  0  0
 25 11  2  0  0  0  0
 25 13  1  0  0  0  0
 27 16  1  0  0  0  0
 28  6  2  0  0  0  0
 30  3  1  6  0  0  0
 31  4  2  0  0  0  0
 32 37  1  0  0  0  0
 33 32  2  0  0  0  0
 36 39  1  1  0  0  0
 36 20  1  0  0  0  0
 36 32  1  0  0  0  0
 37 14  1  0  0  0  0
 38  5  1  0  0  0  0
 38  4  1  0  0  0  0
 40 43  2  0  0  0  0
 41 44  1  0  0  0  0
 42 41  2  0  0  0  0
 44 40  1  0  0  0  0
 45 41  1  0  0  0  0
 45 47  1  0  0  0  0
 47 46  1  0  0  0  0
 48 47  1  0  0  0  0
M  END
>  <MODEL>
5

>  <REMARK>
 VINA RESULT:      -7.5      2.871      5.585
  Name = 
  3 active torsions:
  status: ('A' for Active; 'I' for Inactive)
    1  A    between atoms: C_5  and  O_40
    2  A    between atoms: C_11  and  C_19
    3  A    between atoms: C_17  and  O_40
                            x       y       z     vdW  Elec       q    Type
                         _______ _______ _______ _____ _____    ______ ____

>  <TORSDO>
F 3

$$$$
=
 OpenBabel11062421493D

 48 52  0  0  1  0  0  0  0  0999 V2000
  194.0930  169.8740  140.8770 C   0  0  0  0  0  3  0  0  0  0  0  0
  195.0600  170.5630  142.9750 O   0  0  0  0  0  0  0  0  0  0  0  0
  197.7040  172.3470  143.2790 N   0  0  0  0  0  1  0  0  0  0  0  0
  188.6790  175.1350  142.0890 C   0  0  0  0  0  0  0  0  0  0  0  0
  189.0760  175.1260  144.4300 O   0  0  0  0  0  0  0  0  0  0  0  0
  193.6280  170.1730  139.5930 C   0  0  0  0  0  3  0  0  0  0  0  0
  194.2610  172.4890  139.9020 C   0  0  0  0  0  3  0  0  0  0  0  0
  194.6340  170.8790  141.6840 C   0  0  0  0  0  0  0  0  0  0  0  0
  189.9660  176.1560  144.7340 C   0  0  0  0  0  0  0  0  0  0  0  0
  194.9960  171.3020  145.2540 C   0  0  1  0  0  3  0  0  0  0  0  0
  191.3310  175.8210  145.1560 C   0  0  0  0  0  0  0  0  0  0  0  0
  197.1370  171.7870  145.4690 O   0  0  0  0  0  0  0  0  0  0  0  0
  193.3960  175.9770  145.9840 C   0  0  0  0  0  0  0  0  0  0  0  0
  193.1750  171.8450  137.7480 C   0  0  2  0  0  3  0  0  0  0  0  0
  189.6080  177.3620  144.6280 O   0  0  0  0  0  0  0  0  0  0  0  0
  191.0760  173.2580  142.9400 C   0  0  0  0  0  2  0  0  0  0  0  0
  194.4760  173.7700  145.5230 C   0  0  0  0  0  2  0  0  0  0  0  0
  193.3360  174.7400  145.5070 C   0  0  0  0  0  0  0  0  0  0  0  0
  195.5160  171.5610  143.8760 C   0  0  1  0  0  3  0  0  0  0  0  0
  190.9560  172.4940  140.5520 C   0  0  1  0  0  3  0  0  0  0  0  0
  194.7230  172.1890  141.1860 C   0  0  0  0  0  3  0  0  0  0  0  0
  190.5620  173.5890  141.5470 C   0  0  1  0  0  3  0  0  0  0  0  0
  191.9920  174.4990  144.8900 C   0  0  2  0  0  3  0  0  0  0  0  0
  196.0990  171.2700  146.1280 O   0  0  0  0  0  0  0  0  0  0  0  0
  192.1440  176.6770  145.7710 C   0  0  0  0  0  3  0  0  0  0  0  0
  189.0450  173.7760  141.5840 C   0  0  0  0  0  2  0  0  0  0  0  0
  192.1180  174.2670  143.3880 C   0  0  0  0  0  2  0  0  0  0  0  0
  193.7030  171.4860  139.1060 C   0  0  0  0  0  0  0  0  0  0  0  0
  194.5330  176.5400  146.6280 N   0  0  0  0  0  1  0  0  0  0  0  0
  196.9720  171.4260  144.1290 C   0  0  1  0  0  3  0  0  0  0  0  0
  188.9310  176.1290  141.4200 O   0  0  0  0  0  0  0  0  0  0  0  0
  190.6340  171.7640  138.1400 C   0  0  0  0  0  0  0  0  0  0  0  0
  189.5540  171.1850  137.8620 O   0  0  0  0  0  0  0  0  0  0  0  0
  193.9650  172.3410  145.6810 C   0  0  0  0  0  2  0  0  0  0  0  0
  190.3390  171.2850  140.8910 O   0  0  0  0  0  1  0  0  0  0  0  0
  190.5960  172.9060  139.1190 C   0  0  2  0  0  3  0  0  0  0  0  0
  191.8420  171.2900  137.5320 N   0  0  0  0  0  2  0  0  0  0  0  0
  188.0630  175.2820  143.4450 C   0  0  0  0  0  2  0  0  0  0  0  0
  191.4010  173.9660  138.6920 O   0  0  0  0  0  1  0  0  0  0  0  0
  194.0900  171.4150  136.6340 C   0  0  0  0  0  0  0  0  0  0  0  0
  194.8740  173.7850  136.0480 C   0  0  0  0  0  0  0  0  0  0  0  0
  194.6650  174.2640  137.2290 N   0  0  0  0  0  2  0  0  0  0  0  0
  194.2120  170.1900  136.3560 O   0  0  0  0  0  0  0  0  0  0  0  0
  194.7370  172.3770  135.7920 N   0  0  0  0  0  2  0  0  0  0  0  0
  195.2760  174.6500  135.0250 O   0  0  0  0  0  0  0  0  0  0  0  0
  195.8520  176.9380  134.5720 C   0  0  0  0  0  1  0  0  0  0  0  0
  196.2900  175.6310  135.2120 C   0  0  0  0  0  3  0  0  0  0  0  0
  197.5820  175.1680  134.5560 C   0  0  0  0  0  1  0  0  0  0  0  0
  1  8  1  0  0  0  0
  4 38  1  0  0  0  0
  5  9  1  0  0  0  0
  6  1  2  0  0  0  0
  7 21  1  0  0  0  0
  8  2  1  0  0  0  0
  9 11  1  0  0  0  0
 10 34  1  1  0  0  0
 10 24  1  0  0  0  0
 11 25  2  0  0  0  0
 12 24  1  0  0  0  0
 13 29  1  0  0  0  0
 14 40  1  6  0  0  0
 14 28  1  0  0  0  0
 15  9  2  0  0  0  0
 16 27  1  0  0  0  0
 17 34  1  0  0  0  0
 18 17  1  0  0  0  0
 18 13  2  0  0  0  0
 19  2  1  6  0  0  0
 19 30  1  0  0  0  0
 19 10  1  0  0  0  0
 20 35  1  1  0  0  0
 20 22  1  0  0  0  0
 21  8  2  0  0  0  0
 22 26  1  1  0  0  0
 22 16  1  0  0  0  0
 23 27  1  6  0  0  0
 23 11  1  0  0  0  0
 23 18  1  0  0  0  0
 25 13  1  0  0  0  0
 26  4  1  0  0  0  0
 28  6  1  0  0  0  0
 28  7  2  0  0  0  0
 30  3  1  6  0  0  0
 30 12  1  0  0  0  0
 31  4  2  0  0  0  0
 32 36  1  0  0  0  0
 33 32  2  0  0  0  0
 36 39  1  6  0  0  0
 36 20  1  0  0  0  0
 37 14  1  0  0  0  0
 37 32  1  0  0  0  0
 38  5  1  0  0  0  0
 41 42  2  0  0  0  0
 43 40  2  0  0  0  0
 44 41  1  0  0  0  0
 44 40  1  0  0  0  0
 45 47  1  0  0  0  0
 45 41  1  0  0  0  0
 46 47  1  0  0  0  0
 48 47  1  0  0  0  0
M  END
>  <MODEL>
6

>  <REMARK>
 VINA RESULT:      -7.2      3.024      8.708
  Name = 
  3 active torsions:
  status: ('A' for Active; 'I' for Inactive)
    1  A    between atoms: C_5  and  O_40
    2  A    between atoms: C_11  and  C_19
    3  A    between atoms: C_17  and  O_40
                            x       y       z     vdW  Elec       q    Type
                         _______ _______ _______ _____ _____    ______ ____

>  <TORSDO>
F 3

$$$$
=
 OpenBabel11062421493D

 48 52  0  0  1  0  0  0  0  0999 V2000
  190.0850  171.8540  142.0940 C   0  0  0  0  0  3  0  0  0  0  0  0
  189.5860  172.2970  139.7780 O   0  0  0  0  0  0  0  0  0  0  0  0
  187.9720  174.8480  138.7030 N   0  0  0  0  0  1  0  0  0  0  0  0
  197.2700  173.9600  140.5480 C   0  0  0  0  0  0  0  0  0  0  0  0
  196.9970  173.4970  138.2350 O   0  0  0  0  0  0  0  0  0  0  0  0
  190.5840  172.2660  143.3330 C   0  0  0  0  0  3  0  0  0  0  0  0
  191.0140  174.4700  142.4290 C   0  0  0  0  0  3  0  0  0  0  0  0
  190.0570  172.7410  141.0150 C   0  0  0  0  0  0  0  0  0  0  0  0
  196.6450  174.6790  137.5830 C   0  0  0  0  0  0  0  0  0  0  0  0
  190.0460  172.3190  137.4260 C   0  0  1  0  0  3  0  0  0  0  0  0
  195.2850  174.8260  137.0520 C   0  0  0  0  0  0  0  0  0  0  0  0
  188.3290  173.5530  136.7990 O   0  0  0  0  0  0  0  0  0  0  0  0
  193.5180  175.5790  135.9180 C   0  0  0  0  0  0  0  0  0  0  0  0
  191.6380  174.0320  144.8070 C   0  0  2  0  0  3  0  0  0  0  0  0
  197.4800  175.6200  137.4700 O   0  0  0  0  0  0  0  0  0  0  0  0
  194.3350  173.0590  139.7940 C   0  0  0  0  0  2  0  0  0  0  0  0
  191.5820  174.2020  136.6950 C   0  0  0  0  0  2  0  0  0  0  0  0
  193.0260  174.5960  136.6620 C   0  0  0  0  0  0  0  0  0  0  0  0
  189.6360  173.1180  138.6210 C   0  0  1  0  0  3  0  0  0  0  0  0
  194.0260  172.9690  142.2840 C   0  0  1  0  0  3  0  0  0  0  0  0
  190.5180  174.0560  141.1910 C   0  0  0  0  0  3  0  0  0  0  0  0
  194.8880  173.5080  141.1390 C   0  0  1  0  0  3  0  0  0  0  0  0
  194.1130  174.0050  137.5050 C   0  0  2  0  0  3  0  0  0  0  0  0
  189.0700  172.5080  136.4300 O   0  0  0  0  0  0  0  0  0  0  0  0
  194.9400  175.7430  136.1500 C   0  0  0  0  0  3  0  0  0  0  0  0
  196.3390  173.0490  141.2830 C   0  0  0  0  0  2  0  0  0  0  0  0
  193.8430  174.2470  138.9870 C   0  0  0  0  0  2  0  0  0  0  0  0
  191.0590  173.5740  143.5010 C   0  0  0  0  0  0  0  0  0  0  0  0
  192.7570  176.3620  135.0060 N   0  0  0  0  0  1  0  0  0  0  0  0
  188.2720  173.5220  138.1950 C   0  0  1  0  0  3  0  0  0  0  0  0
  197.4420  175.1090  140.9350 O   0  0  0  0  0  0  0  0  0  0  0  0
  193.9130  172.8330  144.8180 C   0  0  0  0  0  0  0  0  0  0  0  0
  194.6300  171.9620  145.3720 O   0  0  0  0  0  0  0  0  0  0  0  0
  191.4380  172.7020  136.9340 C   0  0  0  0  0  2  0  0  0  0  0  0
  194.0790  171.5710  142.3150 O   0  0  0  0  0  1  0  0  0  0  0  0
  194.4730  173.5610  143.6260 C   0  0  2  0  0  3  0  0  0  0  0  0
  192.5960  173.0650  145.3330 N   0  0  0  0  0  2  0  0  0  0  0  0
  197.9410  173.4840  139.2970 C   0  0  0  0  0  2  0  0  0  0  0  0
  194.1830  174.9270  143.6850 O   0  0  0  0  0  1  0  0  0  0  0  0
  190.5850  174.3180  145.8430 C   0  0  0  0  0  0  0  0  0  0  0  0
  191.7360  176.4100  146.7770 C   0  0  0  0  0  0  0  0  0  0  0  0
  192.3600  176.6890  145.6820 N   0  0  0  0  0  2  0  0  0  0  0  0
  189.5720  173.5710  145.9350 O   0  0  0  0  0  0  0  0  0  0  0  0
  190.7640  175.3520  146.8190 N   0  0  0  0  0  2  0  0  0  0  0  0
  191.9880  177.1800  147.9170 O   0  0  0  0  0  0  0  0  0  0  0  0
  189.9430  178.4180  148.1540 C   0  0  0  0  0  1  0  0  0  0  0  0
  190.9650  177.5290  148.8420 C   0  0  0  0  0  3  0  0  0  0  0  0
  191.5680  178.2880  150.0150 C   0  0  0  0  0  1  0  0  0  0  0  0
  1  6  1  0  0  0  0
  2  8  1  0  0  0  0
  4 31  2  0  0  0  0
  4 26  1  0  0  0  0
  5 38  1  0  0  0  0
  6 28  2  0  0  0  0
  7 28  1  0  0  0  0
  8 21  1  0  0  0  0
  8  1  2  0  0  0  0
  9  5  1  0  0  0  0
 10 34  1  6  0  0  0
 10 19  1  0  0  0  0
 11 23  1  0  0  0  0
 11  9  1  0  0  0  0
 12 30  1  0  0  0  0
 13 25  1  0  0  0  0
 13 18  2  0  0  0  0
 14 37  1  0  0  0  0
 14 40  1  1  0  0  0
 15  9  2  0  0  0  0
 17 34  1  0  0  0  0
 18 17  1  0  0  0  0
 18 23  1  0  0  0  0
 19  2  1  1  0  0  0
 20 35  1  1  0  0  0
 20 36  1  0  0  0  0
 21  7  2  0  0  0  0
 22 16  1  6  0  0  0
 22 26  1  0  0  0  0
 22 20  1  0  0  0  0
 23 27  1  1  0  0  0
 24 12  1  0  0  0  0
 24 10  1  0  0  0  0
 25 11  2  0  0  0  0
 27 16  1  0  0  0  0
 28 14  1  0  0  0  0
 29 13  1  0  0  0  0
 30 19  1  0  0  0  0
 30  3  1  1  0  0  0
 32 37  1  0  0  0  0
 32 33  2  0  0  0  0
 36 39  1  6  0  0  0
 36 32  1  0  0  0  0
 38  4  1  0  0  0  0
 40 43  2  0  0  0  0
 40 44  1  0  0  0  0
 41 44  1  0  0  0  0
 41 45  1  0  0  0  0
 42 41  2  0  0  0  0
 45 47  1  0  0  0  0
 46 47  1  0  0  0  0
 47 48  1  0  0  0  0
M  END
>  <MODEL>
7

>  <REMARK>
 VINA RESULT:      -7.0      2.975      4.597
  Name = 
  3 active torsions:
  status: ('A' for Active; 'I' for Inactive)
    1  A    between atoms: C_5  and  O_40
    2  A    between atoms: C_11  and  C_19
    3  A    between atoms: C_17  and  O_40
                            x       y       z     vdW  Elec       q    Type
                         _______ _______ _______ _____ _____    ______ ____

>  <TORSDO>
F 3

$$$$
=
 OpenBabel11062421493D

 48 52  0  0  1  0  0  0  0  0999 V2000
  190.5510  170.6240  141.1810 C   0  0  0  0  0  3  0  0  0  0  0  0
  191.6290  169.8490  139.1700 O   0  0  0  0  0  0  0  0  0  0  0  0
  190.5820  170.4070  136.1940 N   0  0  0  0  0  1  0  0  0  0  0  0
  196.1390  175.8130  141.7200 C   0  0  0  0  0  0  0  0  0  0  0  0
  197.5960  174.5060  140.3750 O   0  0  0  0  0  0  0  0  0  0  0  0
  189.9790  171.6490  141.9400 C   0  0  0  0  0  3  0  0  0  0  0  0
  190.3460  173.2020  140.1190 C   0  0  0  0  0  3  0  0  0  0  0  0
  191.0320  170.8820  139.8950 C   0  0  0  0  0  0  0  0  0  0  0  0
  197.4930  174.9420  139.0540 C   0  0  0  0  0  0  0  0  0  0  0  0
  193.5120  169.3120  137.7870 C   0  0  1  0  0  3  0  0  0  0  0  0
  196.8500  174.0720  138.0620 C   0  0  0  0  0  0  0  0  0  0  0  0
  192.4150  168.9980  135.9000 O   0  0  0  0  0  0  0  0  0  0  0  0
  196.1720  173.2000  136.1250 C   0  0  0  0  0  0  0  0  0  0  0  0
  189.3120  174.0740  142.2180 C   0  0  2  0  0  3  0  0  0  0  0  0
  197.9280  176.0790  138.7200 O   0  0  0  0  0  0  0  0  0  0  0  0
  194.7870  173.1790  140.6110 C   0  0  0  0  0  2  0  0  0  0  0  0
  194.6240  171.3330  136.7300 C   0  0  0  0  0  2  0  0  0  0  0  0
  195.5700  172.4510  137.0400 C   0  0  0  0  0  0  0  0  0  0  0  0
  192.2330  170.0770  137.9050 C   0  0  1  0  0  3  0  0  0  0  0  0
  192.9360  173.8030  142.1880 C   0  0  1  0  0  3  0  0  0  0  0  0
  190.9200  172.1760  139.3640 C   0  0  0  0  0  3  0  0  0  0  0  0
  194.1740  174.3010  141.4370 C   0  0  1  0  0  3  0  0  0  0  0  0
  195.9210  172.9440  138.4100 C   0  0  2  0  0  3  0  0  0  0  0  0
  193.4390  168.5340  136.6170 O   0  0  0  0  0  0  0  0  0  0  0  0
  196.9820  174.2300  136.7470 C   0  0  0  0  0  3  0  0  0  0  0  0
  195.2150  174.8590  142.4070 C   0  0  0  0  0  2  0  0  0  0  0  0
  194.6860  173.4830  139.1270 C   0  0  0  0  0  2  0  0  0  0  0  0
  189.8830  172.9450  141.4120 C   0  0  0  0  0  0  0  0  0  0  0  0
  196.0490  173.0130  134.7200 N   0  0  0  0  0  1  0  0  0  0  0  0
  191.4550  169.4300  136.8190 C   0  0  1  0  0  3  0  0  0  0  0  0
  195.7230  176.8920  141.3170 O   0  0  0  0  0  0  0  0  0  0  0  0
  191.2050  174.5220  143.9010 C   0  0  0  0  0  0  0  0  0  0  0  0
  191.5550  174.4950  145.1080 O   0  0  0  0  0  0  0  0  0  0  0  0
  194.7290  170.2320  137.7810 C   0  0  0  0  0  2  0  0  0  0  0  0
  193.2930  172.8190  143.1160 O   0  0  0  0  0  1  0  0  0  0  0  0
  192.2150  174.9670  142.8780 C   0  0  2  0  0  3  0  0  0  0  0  0
  189.8750  174.1060  143.5640 N   0  0  0  0  0  2  0  0  0  0  0  0
  197.5600  175.4180  141.4650 C   0  0  0  0  0  2  0  0  0  0  0  0
  191.6370  175.8210  141.9350 O   0  0  0  0  0  1  0  0  0  0  0  0
  187.8100  174.0330  142.2970 C   0  0  0  0  0  0  0  0  0  0  0  0
  187.5350  176.5240  142.8370 C   0  0  0  0  0  0  0  0  0  0  0  0
  188.6360  176.8820  142.2640 N   0  0  0  0  0  2  0  0  0  0  0  0
  187.1980  172.9500  142.0860 O   0  0  0  0  0  0  0  0  0  0  0  0
  187.0580  175.1730  142.7310 N   0  0  0  0  0  2  0  0  0  0  0  0
  186.7890  177.4810  143.5320 O   0  0  0  0  0  0  0  0  0  0  0  0
  187.6660  176.4670  145.5250 C   0  0  0  0  0  1  0  0  0  0  0  0
  186.8320  177.5990  144.9490 C   0  0  0  0  0  3  0  0  0  0  0  0
  185.4230  177.5120  145.5170 C   0  0  0  0  0  1  0  0  0  0  0  0
  1  6  1  0  0  0  0
  2  8  1  0  0  0  0
  4 26  1  0  0  0  0
  5 38  1  0  0  0  0
  7 28  1  0  0  0  0
  8  1  2  0  0  0  0
  9  5  1  0  0  0  0
 10 34  1  6  0  0  0
 10 19  1  0  0  0  0
 11 23  1  0  0  0  0
 11  9  1  0  0  0  0
 12 24  1  0  0  0  0
 12 30  1  0  0  0  0
 13 25  1  0  0  0  0
 13 18  2  0  0  0  0
 14 40  1  1  0  0  0
 14 37  1  0  0  0  0
 15  9  2  0  0  0  0
 17 18  1  0  0  0  0
 17 34  1  0  0  0  0
 18 23  1  0  0  0  0
 19  2  1  1  0  0  0
 20 36  1  0  0  0  0
 20 35  1  1  0  0  0
 21  8  1  0  0  0  0
 21  7  2  0  0  0  0
 22 16  1  1  0  0  0
 22 20  1  0  0  0  0
 22 26  1  0  0  0  0
 23 27  1  6  0  0  0
 24 10  1  0  0  0  0
 25 11  2  0  0  0  0
 27 16  1  0  0  0  0
 28  6  2  0  0  0  0
 28 14  1  0  0  0  0
 29 13  1  0  0  0  0
 30  3  1  6  0  0  0
 30 19  1  0  0  0  0
 31  4  2  0  0  0  0
 32 33  2  0  0  0  0
 36 39  1  6  0  0  0
 36 32  1  0  0  0  0
 37 32  1  0  0  0  0
 38  4  1  0  0  0  0
 40 44  1  0  0  0  0
 41 45  1  0  0  0  0
 42 41  2  0  0  0  0
 43 40  2  0  0  0  0
 44 41  1  0  0  0  0
 45 47  1  0  0  0  0
 47 48  1  0  0  0  0
 47 46  1  0  0  0  0
M  END
>  <MODEL>
8

>  <REMARK>
 VINA RESULT:      -7.0      2.269      3.124
  Name = 
  3 active torsions:
  status: ('A' for Active; 'I' for Inactive)
    1  A    between atoms: C_5  and  O_40
    2  A    between atoms: C_11  and  C_19
    3  A    between atoms: C_17  and  O_40
                            x       y       z     vdW  Elec       q    Type
                         _______ _______ _______ _____ _____    ______ ____

>  <TORSDO>
F 3

$$$$
=
 OpenBabel11062421493D

 48 52  0  0  1  0  0  0  0  0999 V2000
  193.4530  176.7970  144.5530 C   0  0  0  0  0  3  0  0  0  0  0  0
  195.1140  175.1080  144.1060 O   0  0  0  0  0  0  0  0  0  0  0  0
  195.9570  172.7790  146.1380 N   0  0  0  0  0  1  0  0  0  0  0  0
  188.8310  172.9570  139.8270 C   0  0  0  0  0  0  0  0  0  0  0  0
  190.6690  171.9210  138.7360 O   0  0  0  0  0  0  0  0  0  0  0  0
  192.1710  177.1650  144.9720 C   0  0  0  0  0  3  0  0  0  0  0  0
  191.6550  174.8450  145.4310 C   0  0  0  0  0  3  0  0  0  0  0  0
  193.8400  175.4540  144.5600 C   0  0  0  0  0  0  0  0  0  0  0  0
  190.8910  170.6760  139.3250 C   0  0  0  0  0  0  0  0  0  0  0  0
  196.3040  173.5480  142.7300 C   0  0  1  0  0  3  0  0  0  0  0  0
  192.0960  170.4750  140.1400 C   0  0  0  0  0  0  0  0  0  0  0  0
  197.4130  172.5210  144.3370 O   0  0  0  0  0  0  0  0  0  0  0  0
  193.7380  169.5090  141.2980 C   0  0  0  0  0  0  0  0  0  0  0  0
  189.8690  176.5460  145.8200 C   0  0  2  0  0  3  0  0  0  0  0  0
  190.0570  169.7400  139.1760 O   0  0  0  0  0  0  0  0  0  0  0  0
  191.6230  173.6960  141.1130 C   0  0  0  0  0  2  0  0  0  0  0  0
  195.0490  171.3850  142.3030 C   0  0  0  0  0  2  0  0  0  0  0  0
  193.9530  170.8080  141.4620 C   0  0  0  0  0  0  0  0  0  0  0  0
  195.5220  173.7540  143.9870 C   0  0  1  0  0  3  0  0  0  0  0  0
  190.2670  175.3660  142.4060 C   0  0  1  0  0  3  0  0  0  0  0  0
  192.9350  174.4790  145.0090 C   0  0  0  0  0  3  0  0  0  0  0  0
  190.2240  174.0910  141.5600 C   0  0  1  0  0  3  0  0  0  0  0  0
  192.8960  171.5910  140.7470 C   0  0  2  0  0  3  0  0  0  0  0  0
  197.5330  172.9580  143.0830 O   0  0  0  0  0  0  0  0  0  0  0  0
  192.5710  169.2750  140.4700 C   0  0  0  0  0  3  0  0  0  0  0  0
  189.3210  174.2730  140.3400 C   0  0  0  0  0  2  0  0  0  0  0  0
  192.0380  172.3750  141.7350 C   0  0  0  0  0  2  0  0  0  0  0  0
  191.2650  176.1860  145.4040 C   0  0  0  0  0  0  0  0  0  0  0  0
  194.5500  168.4790  141.8510 N   0  0  0  0  0  1  0  0  0  0  0  0
  196.5670  173.4220  144.9880 C   0  0  1  0  0  3  0  0  0  0  0  0
  188.0470  172.2910  140.4900 O   0  0  0  0  0  0  0  0  0  0  0  0
  188.7680  177.0650  143.5540 C   0  0  0  0  0  0  0  0  0  0  0  0
  188.2470  177.9470  142.8260 O   0  0  0  0  0  0  0  0  0  0  0  0
  195.5420  172.7030  141.7140 C   0  0  0  0  0  2  0  0  0  0  0  0
  190.7230  176.4430  141.6380 O   0  0  0  0  0  1  0  0  0  0  0  0
  188.8880  175.6690  143.0050 C   0  0  2  0  0  3  0  0  0  0  0  0
  189.2400  177.4410  144.8540 N   0  0  0  0  0  2  0  0  0  0  0  0
  189.3560  172.4240  138.5300 C   0  0  0  0  0  2  0  0  0  0  0  0
  188.5460  174.7150  143.9670 O   0  0  0  0  0  1  0  0  0  0  0  0
  189.8090  177.1580  147.1930 C   0  0  0  0  0  0  0  0  0  0  0  0
  187.2560  177.3850  147.2390 C   0  0  0  0  0  0  0  0  0  0  0  0
  187.0460  176.4120  146.4160 N   0  0  0  0  0  2  0  0  0  0  0  0
  190.8730  177.3420  147.8470 O   0  0  0  0  0  0  0  0  0  0  0  0
  188.5790  177.6560  147.7320 N   0  0  0  0  0  2  0  0  0  0  0  0
  186.1700  178.1490  147.6780 O   0  0  0  0  0  0  0  0  0  0  0  0
  184.0670  178.2910  146.5280 C   0  0  0  0  0  1  0  0  0  0  0  0
  185.4030  178.9600  146.7970 C   0  0  0  0  0  3  0  0  0  0  0  0
  186.1440  179.1310  145.4790 C   0  0  0  0  0  1  0  0  0  0  0  0
  1  8  2  0  0  0  0
  1  6  1  0  0  0  0
  2  8  1  0  0  0  0
  4 26  1  0  0  0  0
  4 31  2  0  0  0  0
  5  9  1  0  0  0  0
  6 28  2  0  0  0  0
  8 21  1  0  0  0  0
  9 11  1  0  0  0  0
 10 34  1  6  0  0  0
 10 24  1  0  0  0  0
 10 19  1  0  0  0  0
 11 25  2  0  0  0  0
 11 23  1  0  0  0  0
 12 30  1  0  0  0  0
 13 18  2  0  0  0  0
 13 29  1  0  0  0  0
 14 40  1  1  0  0  0
 15  9  2  0  0  0  0
 16 22  1  0  0  0  0
 16 27  1  0  0  0  0
 18 17  1  0  0  0  0
 19  2  1  1  0  0  0
 19 30  1  0  0  0  0
 20 35  1  6  0  0  0
 20 36  1  0  0  0  0
 21  7  2  0  0  0  0
 22 26  1  6  0  0  0
 22 20  1  0  0  0  0
 23 18  1  0  0  0  0
 23 27  1  1  0  0  0
 24 12  1  0  0  0  0
 25 13  1  0  0  0  0
 28  7  1  0  0  0  0
 28 14  1  0  0  0  0
 30  3  1  1  0  0  0
 32 37  1  0  0  0  0
 33 32  2  0  0  0  0
 34 17  1  0  0  0  0
 36 32  1  0  0  0  0
 36 39  1  1  0  0  0
 37 14  1  0  0  0  0
 38  5  1  0  0  0  0
 38  4  1  0  0  0  0
 40 44  1  0  0  0  0
 40 43  2  0  0  0  0
 41 45  1  0  0  0  0
 41 44  1  0  0  0  0
 42 41  2  0  0  0  0
 46 47  1  0  0  0  0
 47 45  1  0  0  0  0
 48 47  1  0  0  0  0
M  END
>  <MODEL>
9

>  <REMARK>
 VINA RESULT:      -6.6      2.367      5.890
  Name = 
  3 active torsions:
  status: ('A' for Active; 'I' for Inactive)
    1  A    between atoms: C_5  and  O_40
    2  A    between atoms: C_11  and  C_19
    3  A    between atoms: C_17  and  O_40
                            x       y       z     vdW  Elec       q    Type
                         _______ _______ _______ _____ _____    ______ ____

>  <TORSDO>
F 3

$$$$
