=
 OpenBabel11062419523D

 30 34  0  0  1  0  0  0  0  0999 V2000
  188.1780  175.4830  141.4490 C   0  0  2  0  0  3  0  0  0  0  0  0
  187.3670  176.4310  142.2650 C   0  0  0  0  0  0  0  0  0  0  0  0
  192.3690  175.3570  143.4670 C   0  0  0  0  0  0  0  0  0  0  0  0
  191.9110  176.7780  143.5410 C   0  0  0  0  0  2  0  0  0  0  0  0
  187.6020  177.8880  144.1210 N   0  0  0  0  0  0  0  0  0  0  0  0
  187.6680  174.1910  141.5870 O   0  0  0  0  0  1  0  0  0  0  0  0
  188.1130  176.9700  143.2690 C   0  0  0  0  0  0  0  0  0  0  0  0
  185.5160  177.7110  142.9320 C   0  0  0  0  0  0  0  0  0  0  0  0
  186.0740  176.7950  142.0850 N   0  0  0  0  0  0  0  0  0  0  0  0
  184.0920  178.1060  142.7300 C   0  0  0  0  0  1  0  0  0  0  0  0
  191.7980  174.4900  142.6190 C   0  0  0  0  0  3  0  0  0  0  0  0
  190.6180  174.7370  141.8400 N   0  0  0  0  0  2  0  0  0  0  0  0
  190.5390  176.8640  144.0080 N   0  0  0  0  0  2  0  0  0  0  0  0
  189.5090  175.5870  142.1640 C   0  0  0  0  0  0  0  0  0  0  0  0
  186.2970  178.2720  143.9800 C   0  0  0  0  0  0  0  0  0  0  0  0
  189.4500  176.4410  143.1930 C   0  0  0  0  0  0  0  0  0  0  0  0
  195.8140  174.1450  145.7340 C   0  0  0  0  0  0  0  0  0  0  0  0
  194.2970  173.8090  143.8770 C   0  0  0  0  0  3  0  0  0  0  0  0
  195.4190  173.4130  144.6110 C   0  0  0  0  0  3  0  0  0  0  0  0
  193.5560  174.9400  144.2570 C   0  0  0  0  0  0  0  0  0  0  0  0
  193.9670  175.6690  145.3880 C   0  0  0  0  0  3  0  0  0  0  0  0
  195.0880  175.2730  146.1220 C   0  0  0  0  0  3  0  0  0  0  0  0
  197.2180  173.6490  146.6530 Cl  0  0  0  0  0  0  0  0  0  0  0  0
  185.3930  180.4840  144.2220 O   0  0  0  0  0  1  0  0  0  0  0  0
  185.7210  179.3060  144.9030 C   0  0  1  0  0  3  0  0  0  0  0  0
  184.5790  178.7440  145.7790 C   0  0  1  0  0  3  0  0  0  0  0  0
  184.9210  177.4830  146.3050 O   0  0  0  0  0  0  0  0  0  0  0  0
  184.8050  178.5270  147.2440 C   0  0  1  0  0  3  0  0  0  0  0  0
  186.2120  180.2110  148.1430 F   0  0  0  0  0  0  0  0  0  0  0  0
  186.1830  178.8770  147.7830 C   0  0  0  0  0  2  0  0  0  0  0  0
  1  6  1  1  0  0  0
  1 14  1  0  0  0  0
  1  2  1  0  0  0  0
  2  7  1  0  0  0  0
  3  4  1  0  0  0  0
  3 20  1  0  0  0  0
  4 13  1  0  0  0  0
  7  5  2  0  0  0  0
  8 15  2  0  0  0  0
  9  2  2  0  0  0  0
  9  8  1  0  0  0  0
 10  8  1  0  0  0  0
 11  3  2  0  0  0  0
 12 14  1  0  0  0  0
 12 11  1  0  0  0  0
 14 16  2  0  0  0  0
 15  5  1  0  0  0  0
 15 25  1  0  0  0  0
 16  7  1  0  0  0  0
 16 13  1  0  0  0  0
 17 22  1  0  0  0  0
 17 23  1  0  0  0  0
 18 20  2  0  0  0  0
 18 19  1  0  0  0  0
 19 17  2  0  0  0  0
 20 21  1  0  0  0  0
 21 22  2  0  0  0  0
 25 24  1  6  0  0  0
 26 25  1  6  0  0  0
 26 27  1  0  0  0  0
 26 28  1  0  0  0  0
 27 28  1  0  0  0  0
 28 30  1  6  0  0  0
 30 29  1  0  0  0  0
M  END
>  <MODEL>
1

>  <REMARK>
 VINA RESULT:      -8.1      0.000      0.000
  Name = 
  4 active torsions:
  status: ('A' for Active; 'I' for Inactive)
    1  A    between atoms: C_2  and  C_30
    2  A    between atoms: C_7  and  C_13
    3  A    between atoms: C_24  and  C_30
    4  A    between atoms: C_26  and  C_29
                            x       y       z     vdW  Elec       q    Type
                         _______ _______ _______ _____ _____    ______ ____

>  <TORSDO>
F 4

$$$$
=
 OpenBabel11062419523D

 30 34  0  0  1  0  0  0  0  0999 V2000
  191.8830  176.3000  147.2060 C   0  0  2  0  0  3  0  0  0  0  0  0
  192.8390  175.7020  146.2310 C   0  0  0  0  0  0  0  0  0  0  0  0
  188.2700  177.7820  144.6740 C   0  0  0  0  0  0  0  0  0  0  0  0
  189.4950  178.0760  143.8690 C   0  0  0  0  0  2  0  0  0  0  0  0
  193.0920  175.3930  143.8930 N   0  0  0  0  0  0  0  0  0  0  0  0
  191.3650  175.2990  148.0290 O   0  0  0  0  0  1  0  0  0  0  0  0
  192.3770  175.8290  144.9560 C   0  0  0  0  0  0  0  0  0  0  0  0
  194.7860  174.6590  145.4380 C   0  0  0  0  0  0  0  0  0  0  0  0
  194.0390  175.1240  146.4830 N   0  0  0  0  0  0  0  0  0  0  0  0
  196.1050  174.0220  145.7210 C   0  0  0  0  0  1  0  0  0  0  0  0
  188.3510  177.5270  145.9880 C   0  0  0  0  0  3  0  0  0  0  0  0
  189.5650  177.3320  146.7280 N   0  0  0  0  0  2  0  0  0  0  0  0
  190.3860  176.9310  143.8310 N   0  0  0  0  0  2  0  0  0  0  0  0
  190.8080  176.7900  146.2580 C   0  0  0  0  0  0  0  0  0  0  0  0
  194.3010  174.7930  144.1070 C   0  0  0  0  0  0  0  0  0  0  0  0
  191.1110  176.5160  144.9840 C   0  0  0  0  0  0  0  0  0  0  0  0
  184.4150  178.1400  142.8100 C   0  0  0  0  0  0  0  0  0  0  0  0
  185.9810  178.7930  144.5360 C   0  0  0  0  0  3  0  0  0  0  0  0
  184.7270  178.9140  143.9310 C   0  0  0  0  0  3  0  0  0  0  0  0
  186.9380  177.8980  144.0290 C   0  0  0  0  0  0  0  0  0  0  0  0
  186.6100  177.1270  142.8980 C   0  0  0  0  0  3  0  0  0  0  0  0
  185.3560  177.2480  142.2930 C   0  0  0  0  0  3  0  0  0  0  0  0
  182.8440  178.2910  142.0520 Cl  0  0  0  0  0  0  0  0  0  0  0  0
  194.6900  173.0730  142.4760 O   0  0  0  0  0  1  0  0  0  0  0  0
  195.1170  174.3230  142.9380 C   0  0  1  0  0  3  0  0  0  0  0  0
  195.2380  175.3970  141.8340 C   0  0  1  0  0  3  0  0  0  0  0  0
  195.7480  176.6010  142.3570 O   0  0  0  0  0  0  0  0  0  0  0  0
  196.5890  175.9220  141.4550 C   0  0  1  0  0  3  0  0  0  0  0  0
  197.9410  176.0290  143.4000 F   0  0  0  0  0  0  0  0  0  0  0  0
  197.7820  175.3510  142.2080 C   0  0  0  0  0  2  0  0  0  0  0  0
  1  6  1  1  0  0  0
  2  9  1  0  0  0  0
  2  1  1  0  0  0  0
  3 11  2  0  0  0  0
  4  3  1  0  0  0  0
  5 15  2  0  0  0  0
  5  7  1  0  0  0  0
  7 16  1  0  0  0  0
  7  2  2  0  0  0  0
  8 10  1  0  0  0  0
  8  9  2  0  0  0  0
 11 12  1  0  0  0  0
 13  4  1  0  0  0  0
 13 16  1  0  0  0  0
 14 12  1  0  0  0  0
 14  1  1  0  0  0  0
 15  8  1  0  0  0  0
 16 14  2  0  0  0  0
 17 19  1  0  0  0  0
 19 18  2  0  0  0  0
 20 18  1  0  0  0  0
 20  3  1  0  0  0  0
 21 20  2  0  0  0  0
 22 17  2  0  0  0  0
 22 21  1  0  0  0  0
 23 17  1  0  0  0  0
 25 24  1  6  0  0  0
 25 15  1  0  0  0  0
 26 27  1  0  0  0  0
 26 25  1  1  0  0  0
 28 26  1  0  0  0  0
 28 30  1  1  0  0  0
 28 27  1  0  0  0  0
 30 29  1  0  0  0  0
M  END
>  <MODEL>
2

>  <REMARK>
 VINA RESULT:      -7.9      4.907      9.497
  Name = 
  4 active torsions:
  status: ('A' for Active; 'I' for Inactive)
    1  A    between atoms: C_2  and  C_30
    2  A    between atoms: C_7  and  C_13
    3  A    between atoms: C_24  and  C_30
    4  A    between atoms: C_26  and  C_29
                            x       y       z     vdW  Elec       q    Type
                         _______ _______ _______ _____ _____    ______ ____

>  <TORSDO>
F 4

$$$$
=
 OpenBabel11062419523D

 30 34  0  0  1  0  0  0  0  0999 V2000
  189.7940  176.3970  146.8760 C   0  0  2  0  0  3  0  0  0  0  0  0
  188.6460  177.1050  146.2400 C   0  0  0  0  0  0  0  0  0  0  0  0
  192.8320  175.5940  143.4430 C   0  0  0  0  0  0  0  0  0  0  0  0
  191.4720  175.3800  142.8580 C   0  0  0  0  0  2  0  0  0  0  0  0
  187.9110  177.8120  144.0980 N   0  0  0  0  0  0  0  0  0  0  0  0
  190.4520  177.2630  147.7500 O   0  0  0  0  0  1  0  0  0  0  0  0
  188.8370  177.2330  144.8970 C   0  0  0  0  0  0  0  0  0  0  0  0
  186.5580  178.1630  146.0600 C   0  0  0  0  0  0  0  0  0  0  0  0
  187.5140  177.5610  146.8290 N   0  0  0  0  0  0  0  0  0  0  0  0
  185.3150  178.6640  146.7140 C   0  0  0  0  0  1  0  0  0  0  0  0
  193.0190  175.6050  144.7700 C   0  0  0  0  0  3  0  0  0  0  0  0
  191.9810  175.5970  145.7610 N   0  0  0  0  0  2  0  0  0  0  0  0
  190.5720  176.4620  143.2120 N   0  0  0  0  0  2  0  0  0  0  0  0
  190.6580  176.1440  145.6580 C   0  0  0  0  0  0  0  0  0  0  0  0
  186.7610  178.2960  144.6580 C   0  0  0  0  0  0  0  0  0  0  0  0
  190.0930  176.6240  144.5440 C   0  0  0  0  0  0  0  0  0  0  0  0
  196.2360  175.8050  140.8280 C   0  0  0  0  0  0  0  0  0  0  0  0
  195.2610  176.0510  143.0300 C   0  0  0  0  0  3  0  0  0  0  0  0
  196.3710  176.1190  142.1830 C   0  0  0  0  0  3  0  0  0  0  0  0
  194.0030  175.6690  142.5340 C   0  0  0  0  0  0  0  0  0  0  0  0
  193.8830  175.3540  141.1680 C   0  0  0  0  0  3  0  0  0  0  0  0
  194.9930  175.4220  140.3210 C   0  0  0  0  0  3  0  0  0  0  0  0
  197.6250  175.8910  139.7670 Cl  0  0  0  0  0  0  0  0  0  0  0  0
  185.6100  180.2990  144.0010 O   0  0  0  0  0  1  0  0  0  0  0  0
  185.7130  178.9200  143.7830 C   0  0  1  0  0  3  0  0  0  0  0  0
  185.8710  178.5250  142.2990 C   0  0  1  0  0  3  0  0  0  0  0  0
  185.4220  177.2080  142.0770 O   0  0  0  0  0  0  0  0  0  0  0  0
  184.6550  178.2250  141.4760 C   0  0  1  0  0  3  0  0  0  0  0  0
  182.3260  177.7920  141.3730 F   0  0  0  0  0  0  0  0  0  0  0  0
  183.3110  178.3270  142.1800 C   0  0  0  0  0  2  0  0  0  0  0  0
  1  6  1  1  0  0  0
  2  9  1  0  0  0  0
  2  1  1  0  0  0  0
  3 11  2  0  0  0  0
  4 13  1  0  0  0  0
  4  3  1  0  0  0  0
  5 15  2  0  0  0  0
  5  7  1  0  0  0  0
  7  2  2  0  0  0  0
  8 10  1  0  0  0  0
  8  9  2  0  0  0  0
 11 12  1  0  0  0  0
 13 16  1  0  0  0  0
 14 12  1  0  0  0  0
 14  1  1  0  0  0  0
 15  8  1  0  0  0  0
 16  7  1  0  0  0  0
 16 14  2  0  0  0  0
 17 19  1  0  0  0  0
 19 18  2  0  0  0  0
 20 18  1  0  0  0  0
 20  3  1  0  0  0  0
 21 20  2  0  0  0  0
 22 17  2  0  0  0  0
 22 21  1  0  0  0  0
 23 17  1  0  0  0  0
 25 24  1  6  0  0  0
 25 15  1  0  0  0  0
 26 25  1  1  0  0  0
 27 26  1  0  0  0  0
 28 27  1  0  0  0  0
 28 30  1  1  0  0  0
 28 26  1  0  0  0  0
 29 30  1  0  0  0  0
M  END
>  <MODEL>
3

>  <REMARK>
 VINA RESULT:      -7.8      3.109      4.236
  Name = 
  4 active torsions:
  status: ('A' for Active; 'I' for Inactive)
    1  A    between atoms: C_2  and  C_30
    2  A    between atoms: C_7  and  C_13
    3  A    between atoms: C_24  and  C_30
    4  A    between atoms: C_26  and  C_29
                            x       y       z     vdW  Elec       q    Type
                         _______ _______ _______ _____ _____    ______ ____

>  <TORSDO>
F 4

$$$$
=
 OpenBabel11062419523D

 30 34  0  0  1  0  0  0  0  0999 V2000
  187.0300  177.9590  146.9470 C   0  0  2  0  0  3  0  0  0  0  0  0
  188.1560  177.1690  146.3730 C   0  0  0  0  0  0  0  0  0  0  0  0
  184.0750  178.6760  143.4230 C   0  0  0  0  0  0  0  0  0  0  0  0
  185.4510  178.8000  142.8490 C   0  0  0  0  0  2  0  0  0  0  0  0
  188.8920  176.3070  144.2890 N   0  0  0  0  0  0  0  0  0  0  0  0
  186.3240  177.1740  147.8600 O   0  0  0  0  0  1  0  0  0  0  0  0
  187.9790  176.9680  145.0370 C   0  0  0  0  0  0  0  0  0  0  0  0
  190.2010  176.0200  146.2900 C   0  0  0  0  0  0  0  0  0  0  0  0
  189.2600  176.7040  147.0060 N   0  0  0  0  0  0  0  0  0  0  0  0
  191.4130  175.5090  146.9930 C   0  0  0  0  0  1  0  0  0  0  0  0
  183.8690  178.7520  144.7450 C   0  0  0  0  0  3  0  0  0  0  0  0
  184.8930  178.7780  145.7510 N   0  0  0  0  0  2  0  0  0  0  0  0
  186.3010  177.7060  143.2810 N   0  0  0  0  0  2  0  0  0  0  0  0
  186.1940  178.1730  145.7020 C   0  0  0  0  0  0  0  0  0  0  0  0
  190.0130  175.8110  144.8950 C   0  0  0  0  0  0  0  0  0  0  0  0
  186.7540  177.6050  144.6280 C   0  0  0  0  0  0  0  0  0  0  0  0
  180.7230  178.4190  140.7470 C   0  0  0  0  0  0  0  0  0  0  0  0
  183.0570  178.0030  141.2340 C   0  0  0  0  0  3  0  0  0  0  0  0
  181.9690  177.9160  140.3620 C   0  0  0  0  0  3  0  0  0  0  0  0
  182.9140  178.5940  142.5010 C   0  0  0  0  0  0  0  0  0  0  0  0
  181.6530  179.0930  142.8760 C   0  0  0  0  0  3  0  0  0  0  0  0
  180.5650  179.0060  142.0040 C   0  0  0  0  0  3  0  0  0  0  0  0
  179.3600  178.3100  139.6540 Cl  0  0  0  0  0  0  0  0  0  0  0  0
  190.6160  173.8160  143.7010 O   0  0  0  0  0  1  0  0  0  0  0  0
  191.0470  175.0940  144.0760 C   0  0  1  0  0  3  0  0  0  0  0  0
  191.5720  175.9530  142.9050 C   0  0  1  0  0  3  0  0  0  0  0  0
  191.9980  177.2170  143.3590 O   0  0  0  0  0  0  0  0  0  0  0  0
  193.0110  176.3680  142.8750 C   0  0  1  0  0  3  0  0  0  0  0  0
  193.8010  176.8250  145.0640 F   0  0  0  0  0  0  0  0  0  0  0  0
  193.8810  175.9070  144.0350 C   0  0  0  0  0  2  0  0  0  0  0  0
  1  6  1  1  0  0  0
  2  1  1  0  0  0  0
  2  9  1  0  0  0  0
  3 11  2  0  0  0  0
  4 13  1  0  0  0  0
  4  3  1  0  0  0  0
  5 15  2  0  0  0  0
  5  7  1  0  0  0  0
  7  2  2  0  0  0  0
  8 10  1  0  0  0  0
  8  9  2  0  0  0  0
 11 12  1  0  0  0  0
 13 16  1  0  0  0  0
 14 12  1  0  0  0  0
 14  1  1  0  0  0  0
 15  8  1  0  0  0  0
 16  7  1  0  0  0  0
 16 14  2  0  0  0  0
 17 22  1  0  0  0  0
 18 20  2  0  0  0  0
 19 17  2  0  0  0  0
 19 18  1  0  0  0  0
 20 21  1  0  0  0  0
 20  3  1  0  0  0  0
 22 21  2  0  0  0  0
 23 17  1  0  0  0  0
 25 24  1  6  0  0  0
 25 15  1  0  0  0  0
 26 27  1  0  0  0  0
 26 25  1  1  0  0  0
 28 26  1  0  0  0  0
 28 27  1  0  0  0  0
 28 30  1  1  0  0  0
 30 29  1  0  0  0  0
M  END
>  <MODEL>
4

>  <REMARK>
 VINA RESULT:      -7.7      4.638      9.461
  Name = 
  4 active torsions:
  status: ('A' for Active; 'I' for Inactive)
    1  A    between atoms: C_2  and  C_30
    2  A    between atoms: C_7  and  C_13
    3  A    between atoms: C_24  and  C_30
    4  A    between atoms: C_26  and  C_29
                            x       y       z     vdW  Elec       q    Type
                         _______ _______ _______ _____ _____    ______ ____

>  <TORSDO>
F 4

$$$$
=
 OpenBabel11062419523D

 30 34  0  0  1  0  0  0  0  0999 V2000
  194.4250  176.0860  144.3540 C   0  0  2  0  0  3  0  0  0  0  0  0
  194.6740  174.6500  144.6670 C   0  0  0  0  0  0  0  0  0  0  0  0
  189.8130  176.6480  144.6120 C   0  0  0  0  0  0  0  0  0  0  0  0
  190.0380  175.3100  143.9830 C   0  0  0  0  0  2  0  0  0  0  0  0
  193.4710  172.6590  145.1320 N   0  0  0  0  0  0  0  0  0  0  0  0
  194.9470  176.8850  145.3720 O   0  0  0  0  0  1  0  0  0  0  0  0
  193.5010  173.9860  144.8690 C   0  0  0  0  0  0  0  0  0  0  0  0
  195.8760  172.6620  145.0050 C   0  0  0  0  0  0  0  0  0  0  0  0
  195.8620  174.0010  144.7290 N   0  0  0  0  0  0  0  0  0  0  0  0
  197.1860  171.9530  145.0730 C   0  0  0  0  0  1  0  0  0  0  0  0
  190.7930  177.5610  144.6640 C   0  0  0  0  0  3  0  0  0  0  0  0
  192.1660  177.3340  144.3100 N   0  0  0  0  0  2  0  0  0  0  0  0
  191.0300  174.5460  144.7160 N   0  0  0  0  0  2  0  0  0  0  0  0
  192.9120  176.1120  144.4070 C   0  0  0  0  0  0  0  0  0  0  0  0
  194.6500  171.9720  145.2150 C   0  0  0  0  0  0  0  0  0  0  0  0
  192.4080  174.9070  144.6980 C   0  0  0  0  0  0  0  0  0  0  0  0
  185.8670  177.6900  145.9590 C   0  0  0  0  0  0  0  0  0  0  0  0
  187.9270  176.4530  146.2510 C   0  0  0  0  0  3  0  0  0  0  0  0
  186.6450  176.7910  146.6930 C   0  0  0  0  0  3  0  0  0  0  0  0
  188.4470  177.0090  145.0700 C   0  0  0  0  0  0  0  0  0  0  0  0
  187.6530  177.9140  144.3430 C   0  0  0  0  0  3  0  0  0  0  0  0
  186.3710  178.2520  144.7850 C   0  0  0  0  0  3  0  0  0  0  0  0
  184.2610  178.1120  146.5130 Cl  0  0  0  0  0  0  0  0  0  0  0  0
  194.5650  170.2180  146.8550 O   0  0  0  0  0  1  0  0  0  0  0  0
  194.6330  170.4950  145.4850 C   0  0  1  0  0  3  0  0  0  0  0  0
  193.5760  169.7530  144.6370 C   0  0  1  0  0  3  0  0  0  0  0  0
  193.8690  169.8570  143.2630 O   0  0  0  0  0  0  0  0  0  0  0  0
  193.9830  168.5660  143.8170 C   0  0  1  0  0  3  0  0  0  0  0  0
  196.1330  168.7810  142.8390 F   0  0  0  0  0  0  0  0  0  0  0  0
  195.4490  168.1670  143.8700 C   0  0  0  0  0  2  0  0  0  0  0  0
  1 14  1  0  0  0  0
  1  2  1  0  0  0  0
  1  6  1  1  0  0  0
  2  9  2  0  0  0  0
  2  7  1  0  0  0  0
  3 11  2  0  0  0  0
  3 20  1  0  0  0  0
  4  3  1  0  0  0  0
  4 13  1  0  0  0  0
  5 15  1  0  0  0  0
  7  5  2  0  0  0  0
  8 10  1  0  0  0  0
  8 15  2  0  0  0  0
  9  8  1  0  0  0  0
 12 14  1  0  0  0  0
 12 11  1  0  0  0  0
 14 16  2  0  0  0  0
 15 25  1  0  0  0  0
 16 13  1  0  0  0  0
 16  7  1  0  0  0  0
 17 23  1  0  0  0  0
 17 19  1  0  0  0  0
 18 19  2  0  0  0  0
 20 18  1  0  0  0  0
 21 22  1  0  0  0  0
 21 20  2  0  0  0  0
 22 17  2  0  0  0  0
 25 24  1  1  0  0  0
 26 25  1  1  0  0  0
 27 28  1  0  0  0  0
 27 26  1  0  0  0  0
 28 30  1  1  0  0  0
 28 26  1  0  0  0  0
 29 30  1  0  0  0  0
M  END
>  <MODEL>
5

>  <REMARK>
 VINA RESULT:      -7.2      5.381      9.806
  Name = 
  4 active torsions:
  status: ('A' for Active; 'I' for Inactive)
    1  A    between atoms: C_2  and  C_30
    2  A    between atoms: C_7  and  C_13
    3  A    between atoms: C_24  and  C_30
    4  A    between atoms: C_26  and  C_29
                            x       y       z     vdW  Elec       q    Type
                         _______ _______ _______ _____ _____    ______ ____

>  <TORSDO>
F 4

$$$$
=
 OpenBabel11062419523D

 30 34  0  0  1  0  0  0  0  0999 V2000
  192.7590  175.9130  146.7140 C   0  0  2  0  0  3  0  0  0  0  0  0
  193.7670  175.6960  145.6370 C   0  0  0  0  0  0  0  0  0  0  0  0
  189.0090  177.6670  144.5890 C   0  0  0  0  0  0  0  0  0  0  0  0
  190.1960  178.2850  143.9220 C   0  0  0  0  0  2  0  0  0  0  0  0
  194.0420  176.0560  143.3090 N   0  0  0  0  0  0  0  0  0  0  0  0
  192.3460  174.6820  147.2250 O   0  0  0  0  0  1  0  0  0  0  0  0
  193.2900  176.1180  144.4330 C   0  0  0  0  0  0  0  0  0  0  0  0
  195.8060  175.0990  144.6400 C   0  0  0  0  0  0  0  0  0  0  0  0
  195.0190  175.1900  145.7530 N   0  0  0  0  0  0  0  0  0  0  0  0
  197.1820  174.5400  144.7730 C   0  0  0  0  0  1  0  0  0  0  0  0
  189.1190  177.0770  145.7870 C   0  0  0  0  0  3  0  0  0  0  0  0
  190.3490  176.8070  146.4770 N   0  0  0  0  0  2  0  0  0  0  0  0
  191.1960  177.2850  143.5990 N   0  0  0  0  0  2  0  0  0  0  0  0
  191.6380  176.5350  145.9080 C   0  0  0  0  0  0  0  0  0  0  0  0
  195.3050  175.5390  143.3830 C   0  0  0  0  0  0  0  0  0  0  0  0
  191.9630  176.6460  144.6140 C   0  0  0  0  0  0  0  0  0  0  0  0
  185.1400  178.1120  142.7710 C   0  0  0  0  0  0  0  0  0  0  0  0
  187.5480  177.9570  142.5730 C   0  0  0  0  0  3  0  0  0  0  0  0
  186.2920  178.1000  141.9780 C   0  0  0  0  0  3  0  0  0  0  0  0
  187.6700  177.8250  143.9670 C   0  0  0  0  0  0  0  0  0  0  0  0
  186.5020  177.8360  144.7510 C   0  0  0  0  0  3  0  0  0  0  0  0
  185.2460  177.9790  144.1560 C   0  0  0  0  0  3  0  0  0  0  0  0
  183.5670  178.2910  142.0250 Cl  0  0  0  0  0  0  0  0  0  0  0  0
  197.3870  176.1300  142.3400 O   0  0  0  0  0  1  0  0  0  0  0  0
  196.1600  175.4840  142.1500 C   0  0  1  0  0  3  0  0  0  0  0  0
  196.2820  174.0530  141.5800 C   0  0  1  0  0  3  0  0  0  0  0  0
  195.0280  173.5730  141.1540 O   0  0  0  0  0  0  0  0  0  0  0  0
  195.9740  173.8010  140.1360 C   0  0  1  0  0  3  0  0  0  0  0  0
  196.6390  175.5190  138.6420 F   0  0  0  0  0  0  0  0  0  0  0  0
  195.5440  175.0030  139.3070 C   0  0  0  0  0  2  0  0  0  0  0  0
  1  6  1  6  0  0  0
  2  9  1  0  0  0  0
  2  1  1  0  0  0  0
  3 11  2  0  0  0  0
  4  3  1  0  0  0  0
  5 15  2  0  0  0  0
  5  7  1  0  0  0  0
  7 16  1  0  0  0  0
  7  2  2  0  0  0  0
  8 10  1  0  0  0  0
  8  9  2  0  0  0  0
 11 12  1  0  0  0  0
 13  4  1  0  0  0  0
 13 16  1  0  0  0  0
 14 12  1  0  0  0  0
 14  1  1  0  0  0  0
 15  8  1  0  0  0  0
 16 14  2  0  0  0  0
 17 22  1  0  0  0  0
 18 20  2  0  0  0  0
 19 18  1  0  0  0  0
 19 17  2  0  0  0  0
 20  3  1  0  0  0  0
 20 21  1  0  0  0  0
 22 21  2  0  0  0  0
 23 17  1  0  0  0  0
 25 24  1  1  0  0  0
 25 15  1  0  0  0  0
 26 25  1  6  0  0  0
 27 26  1  0  0  0  0
 28 30  1  6  0  0  0
 28 27  1  0  0  0  0
 28 26  1  0  0  0  0
 29 30  1  0  0  0  0
M  END
>  <MODEL>
6

>  <REMARK>
 VINA RESULT:      -7.0      5.184      9.640
  Name = 
  4 active torsions:
  status: ('A' for Active; 'I' for Inactive)
    1  A    between atoms: C_2  and  C_30
    2  A    between atoms: C_7  and  C_13
    3  A    between atoms: C_24  and  C_30
    4  A    between atoms: C_26  and  C_29
                            x       y       z     vdW  Elec       q    Type
                         _______ _______ _______ _____ _____    ______ ____

>  <TORSDO>
F 4

$$$$
=
 OpenBabel11062419523D

 30 34  0  0  1  0  0  0  0  0999 V2000
  187.1420  177.9590  146.9560 C   0  0  2  0  0  3  0  0  0  0  0  0
  188.2200  177.0740  146.4290 C   0  0  0  0  0  0  0  0  0  0  0  0
  184.2190  178.6310  143.3980 C   0  0  0  0  0  0  0  0  0  0  0  0
  185.5970  178.6430  142.8170 C   0  0  0  0  0  2  0  0  0  0  0  0
  188.8980  176.0490  144.4000 N   0  0  0  0  0  0  0  0  0  0  0  0
  186.3970  177.2700  147.9150 O   0  0  0  0  0  1  0  0  0  0  0  0
  188.0260  176.8050  145.1080 C   0  0  0  0  0  0  0  0  0  0  0  0
  190.1970  175.8080  146.4140 C   0  0  0  0  0  0  0  0  0  0  0  0
  189.2990  176.5850  147.0890 N   0  0  0  0  0  0  0  0  0  0  0  0
  191.3810  175.2720  147.1450 C   0  0  0  0  0  1  0  0  0  0  0  0
  184.0230  178.7970  144.7140 C   0  0  0  0  0  3  0  0  0  0  0  0
  185.0500  178.8240  145.7150 N   0  0  0  0  0  2  0  0  0  0  0  0
  186.3860  177.5310  143.3120 N   0  0  0  0  0  2  0  0  0  0  0  0
  186.3140  178.1450  145.7020 C   0  0  0  0  0  0  0  0  0  0  0  0
  189.9920  175.5280  145.0340 C   0  0  0  0  0  0  0  0  0  0  0  0
  186.8380  177.4840  144.6620 C   0  0  0  0  0  0  0  0  0  0  0  0
  180.8480  178.4070  140.7420 C   0  0  0  0  0  0  0  0  0  0  0  0
  183.1870  177.9920  141.2050 C   0  0  0  0  0  3  0  0  0  0  0  0
  182.0930  177.9160  140.3400 C   0  0  0  0  0  3  0  0  0  0  0  0
  183.0520  178.5600  142.4830 C   0  0  0  0  0  0  0  0  0  0  0  0
  181.7910  179.0480  142.8760 C   0  0  0  0  0  3  0  0  0  0  0  0
  180.6970  178.9710  142.0100 C   0  0  0  0  0  3  0  0  0  0  0  0
  179.4770  178.3110  139.6580 Cl  0  0  0  0  0  0  0  0  0  0  0  0
  192.2410  175.3140  144.2180 O   0  0  0  0  0  1  0  0  0  0  0  0
  190.9800  174.7070  144.2590 C   0  0  1  0  0  3  0  0  0  0  0  0
  191.0040  173.2300  144.7120 C   0  0  1  0  0  3  0  0  0  0  0  0
  189.6990  172.7540  144.9450 O   0  0  0  0  0  0  0  0  0  0  0  0
  190.3730  172.1790  143.8500 C   0  0  1  0  0  3  0  0  0  0  0  0
  190.1320  171.8360  141.5160 F   0  0  0  0  0  0  0  0  0  0  0  0
  189.7290  172.6510  142.5560 C   0  0  0  0  0  2  0  0  0  0  0  0
  1  6  1  1  0  0  0
  2  1  1  0  0  0  0
  2  9  1  0  0  0  0
  3 11  2  0  0  0  0
  4 13  1  0  0  0  0
  4  3  1  0  0  0  0
  5 15  2  0  0  0  0
  5  7  1  0  0  0  0
  7  2  2  0  0  0  0
  8  9  2  0  0  0  0
  8 10  1  0  0  0  0
 11 12  1  0  0  0  0
 13 16  1  0  0  0  0
 14 12  1  0  0  0  0
 14  1  1  0  0  0  0
 15  8  1  0  0  0  0
 16  7  1  0  0  0  0
 16 14  2  0  0  0  0
 17 22  1  0  0  0  0
 18 20  2  0  0  0  0
 19 17  2  0  0  0  0
 19 18  1  0  0  0  0
 20 21  1  0  0  0  0
 20  3  1  0  0  0  0
 22 21  2  0  0  0  0
 23 17  1  0  0  0  0
 25 24  1  1  0  0  0
 25 15  1  0  0  0  0
 26 25  1  6  0  0  0
 26 27  1  0  0  0  0
 28 30  1  6  0  0  0
 28 26  1  0  0  0  0
 28 27  1  0  0  0  0
 29 30  1  0  0  0  0
M  END
>  <MODEL>
7

>  <REMARK>
 VINA RESULT:      -7.0      4.923      9.481
  Name = 
  4 active torsions:
  status: ('A' for Active; 'I' for Inactive)
    1  A    between atoms: C_2  and  C_30
    2  A    between atoms: C_7  and  C_13
    3  A    between atoms: C_24  and  C_30
    4  A    between atoms: C_26  and  C_29
                            x       y       z     vdW  Elec       q    Type
                         _______ _______ _______ _____ _____    ______ ____

>  <TORSDO>
F 4

$$$$
=
 OpenBabel11062419523D

 30 34  0  0  1  0  0  0  0  0999 V2000
  191.6630  173.3050  140.7540 C   0  0  2  0  0  3  0  0  0  0  0  0
  192.9510  173.7600  141.3530 C   0  0  0  0  0  0  0  0  0  0  0  0
  188.3210  175.3810  143.2390 C   0  0  0  0  0  0  0  0  0  0  0  0
  189.3880  174.9940  144.2130 C   0  0  0  0  0  2  0  0  0  0  0  0
  193.7490  175.0740  143.1600 N   0  0  0  0  0  0  0  0  0  0  0  0
  191.5360  173.8260  139.4660 O   0  0  0  0  0  1  0  0  0  0  0  0
  192.7290  174.5670  142.4290 C   0  0  0  0  0  0  0  0  0  0  0  0
  195.2690  173.9400  141.6760 C   0  0  0  0  0  0  0  0  0  0  0  0
  194.2110  173.4390  140.9710 N   0  0  0  0  0  0  0  0  0  0  0  0
  196.6530  173.5840  141.2490 C   0  0  0  0  0  1  0  0  0  0  0  0
  188.2670  174.8310  142.0190 C   0  0  0  0  0  3  0  0  0  0  0  0
  189.2680  173.9810  141.4400 N   0  0  0  0  0  2  0  0  0  0  0  0
  190.7030  175.3710  143.7280 N   0  0  0  0  0  2  0  0  0  0  0  0
  190.6820  173.9900  141.6820 C   0  0  0  0  0  0  0  0  0  0  0  0
  195.0350  174.7820  142.7980 C   0  0  0  0  0  0  0  0  0  0  0  0
  191.3100  174.6980  142.6290 C   0  0  0  0  0  0  0  0  0  0  0  0
  185.1720  178.0150  144.5110 C   0  0  0  0  0  0  0  0  0  0  0  0
  186.2220  176.6750  142.7900 C   0  0  0  0  0  3  0  0  0  0  0  0
  185.1950  177.5300  143.2010 C   0  0  0  0  0  3  0  0  0  0  0  0
  187.2380  176.2950  143.6830 C   0  0  0  0  0  0  0  0  0  0  0  0
  187.2000  176.7900  145.0000 C   0  0  0  0  0  3  0  0  0  0  0  0
  186.1740  177.6450  145.4100 C   0  0  0  0  0  3  0  0  0  0  0  0
  183.8870  179.0870  145.0250 Cl  0  0  0  0  0  0  0  0  0  0  0  0
  196.3750  176.6860  143.3890 O   0  0  0  0  0  1  0  0  0  0  0  0
  196.1770  175.3180  143.6110 C   0  0  1  0  0  3  0  0  0  0  0  0
  196.0730  174.9290  145.1030 C   0  0  1  0  0  3  0  0  0  0  0  0
  195.6350  173.5980  145.2460 O   0  0  0  0  0  0  0  0  0  0  0  0
  196.9590  173.8530  145.6530 C   0  0  1  0  0  3  0  0  0  0  0  0
  197.9410  171.8310  144.8970 F   0  0  0  0  0  0  0  0  0  0  0  0
  197.9230  173.1950  144.6770 C   0  0  0  0  0  2  0  0  0  0  0  0
  1  6  1  6  0  0  0
  1  2  1  0  0  0  0
  1 14  1  0  0  0  0
  2  7  1  0  0  0  0
  3 20  1  0  0  0  0
  3  4  1  0  0  0  0
  7 16  1  0  0  0  0
  7  5  2  0  0  0  0
  8 15  2  0  0  0  0
  9  2  2  0  0  0  0
  9  8  1  0  0  0  0
 10  8  1  0  0  0  0
 11  3  2  0  0  0  0
 12 14  1  0  0  0  0
 12 11  1  0  0  0  0
 13  4  1  0  0  0  0
 14 16  2  0  0  0  0
 15  5  1  0  0  0  0
 15 25  1  0  0  0  0
 16 13  1  0  0  0  0
 17 23  1  0  0  0  0
 17 22  1  0  0  0  0
 18 19  1  0  0  0  0
 18 20  2  0  0  0  0
 19 17  2  0  0  0  0
 20 21  1  0  0  0  0
 21 22  2  0  0  0  0
 25 24  1  1  0  0  0
 26 25  1  6  0  0  0
 26 27  1  0  0  0  0
 26 28  1  0  0  0  0
 27 28  1  0  0  0  0
 28 30  1  6  0  0  0
 30 29  1  0  0  0  0
M  END
>  <MODEL>
8

>  <REMARK>
 VINA RESULT:      -6.9      5.005      9.109
  Name = 
  4 active torsions:
  status: ('A' for Active; 'I' for Inactive)
    1  A    between atoms: C_2  and  C_30
    2  A    between atoms: C_7  and  C_13
    3  A    between atoms: C_24  and  C_30
    4  A    between atoms: C_26  and  C_29
                            x       y       z     vdW  Elec       q    Type
                         _______ _______ _______ _____ _____    ______ ____

>  <TORSDO>
F 4

$$$$
=
 OpenBabel11062419523D

 30 34  0  0  1  0  0  0  0  0999 V2000
  188.9180  174.5120  141.1520 C   0  0  2  0  0  3  0  0  0  0  0  0
  188.1760  175.4320  142.0620 C   0  0  0  0  0  0  0  0  0  0  0  0
  192.7540  173.2720  143.4760 C   0  0  0  0  0  0  0  0  0  0  0  0
  192.5250  174.7180  143.7860 C   0  0  0  0  0  2  0  0  0  0  0  0
  188.4130  176.4700  144.1820 N   0  0  0  0  0  0  0  0  0  0  0  0
  188.1930  173.3310  140.9880 O   0  0  0  0  0  1  0  0  0  0  0  0
  188.8700  175.6400  143.2160 C   0  0  0  0  0  0  0  0  0  0  0  0
  186.4870  176.8870  142.7970 C   0  0  0  0  0  0  0  0  0  0  0  0
  186.9900  176.0510  141.8410 N   0  0  0  0  0  0  0  0  0  0  0  0
  185.1810  177.5640  142.5490 C   0  0  0  0  0  1  0  0  0  0  0  0
  192.1590  172.6880  142.4270 C   0  0  0  0  0  3  0  0  0  0  0  0
  191.1390  173.2790  141.6080 N   0  0  0  0  0  2  0  0  0  0  0  0
  191.1380  174.9660  144.1350 N   0  0  0  0  0  2  0  0  0  0  0  0
  190.1490  174.2450  141.9910 C   0  0  0  0  0  0  0  0  0  0  0  0
  187.2140  177.1020  144.0010 C   0  0  0  0  0  0  0  0  0  0  0  0
  190.1030  174.8990  143.1580 C   0  0  0  0  0  0  0  0  0  0  0  0
  195.6370  171.0610  145.7710 C   0  0  0  0  0  0  0  0  0  0  0  0
  193.4870  171.1920  144.6660 C   0  0  0  0  0  3  0  0  0  0  0  0
  194.4230  170.4690  145.4110 C   0  0  0  0  0  3  0  0  0  0  0  0
  193.7520  172.5150  144.2730 C   0  0  0  0  0  0  0  0  0  0  0  0
  194.9790  173.0960  144.6410 C   0  0  0  0  0  3  0  0  0  0  0  0
  195.9150  172.3730  145.3850 C   0  0  0  0  0  3  0  0  0  0  0  0
  196.8090  170.1550  146.7040 Cl  0  0  0  0  0  0  0  0  0  0  0  0
  186.2930  179.2630  144.5020 O   0  0  0  0  0  1  0  0  0  0  0  0
  186.7030  178.0430  145.0530 C   0  0  1  0  0  3  0  0  0  0  0  0
  185.6560  177.3830  145.9760 C   0  0  1  0  0  3  0  0  0  0  0  0
  186.2760  176.5450  146.9240 O   0  0  0  0  0  0  0  0  0  0  0  0
  185.6540  177.6980  147.4420 C   0  0  1  0  0  3  0  0  0  0  0  0
  186.1840  179.9400  148.0050 F   0  0  0  0  0  0  0  0  0  0  0  0
  186.7170  178.6680  147.9340 C   0  0  0  0  0  2  0  0  0  0  0  0
  1  6  1  1  0  0  0
  1 14  1  0  0  0  0
  1  2  1  0  0  0  0
  2  7  1  0  0  0  0
  3  4  1  0  0  0  0
  3 20  1  0  0  0  0
  4 13  1  0  0  0  0
  7  5  2  0  0  0  0
  8 15  2  0  0  0  0
  9  2  2  0  0  0  0
  9  8  1  0  0  0  0
 10  8  1  0  0  0  0
 11  3  2  0  0  0  0
 12 14  1  0  0  0  0
 12 11  1  0  0  0  0
 14 16  2  0  0  0  0
 15  5  1  0  0  0  0
 15 25  1  0  0  0  0
 16  7  1  0  0  0  0
 16 13  1  0  0  0  0
 17 23  1  0  0  0  0
 18 19  2  0  0  0  0
 19 17  1  0  0  0  0
 20 21  2  0  0  0  0
 20 18  1  0  0  0  0
 21 22  1  0  0  0  0
 22 17  2  0  0  0  0
 25 24  1  6  0  0  0
 26 25  1  6  0  0  0
 26 27  1  0  0  0  0
 26 28  1  0  0  0  0
 27 28  1  0  0  0  0
 28 30  1  6  0  0  0
 30 29  1  0  0  0  0
M  END
>  <MODEL>
9

>  <REMARK>
 VINA RESULT:      -6.8      1.658      1.980
  Name = 
  4 active torsions:
  status: ('A' for Active; 'I' for Inactive)
    1  A    between atoms: C_2  and  C_30
    2  A    between atoms: C_7  and  C_13
    3  A    between atoms: C_24  and  C_30
    4  A    between atoms: C_26  and  C_29
                            x       y       z     vdW  Elec       q    Type
                         _______ _______ _______ _____ _____    ______ ____

>  <TORSDO>
F 4

$$$$
