=
 OpenBabel11062421143D

 33 37  0  0  1  0  0  0  0  0999 V2000
  192.6040  176.3050  143.7920 N   0  0  0  0  0  0  0  0  0  0  0  0
  190.4200  176.0790  144.5890 C   0  0  0  0  0  0  0  0  0  0  0  0
  191.6130  175.2900  144.1740 C   0  0  1  0  0  3  0  0  0  0  0  0
  189.1970  175.5000  145.0630 N   0  0  0  0  0  2  0  0  0  0  0  0
  191.9280  177.5160  144.0220 N   0  0  0  0  0  0  0  0  0  0  0  0
  190.6320  177.3390  144.4970 N   0  0  0  0  0  0  0  0  0  0  0  0
  187.2510  176.8500  144.4890 C   0  0  0  0  0  3  0  0  0  0  0  0
  188.0140  176.2030  145.4660 C   0  0  0  0  0  0  0  0  0  0  0  0
  186.0930  177.5470  144.8400 C   0  0  0  0  0  0  0  0  0  0  0  0
  186.0840  176.9940  148.4810 F   0  0  0  0  0  0  0  0  0  0  0  0
  185.6860  177.6010  146.1940 C   0  0  0  0  0  0  0  0  0  0  0  0
  186.4510  176.9550  147.1740 C   0  0  0  0  0  0  0  0  0  0  0  0
  184.5210  178.3010  146.5370 C   0  0  0  0  0  3  0  0  0  0  0  0
  183.7680  178.9390  145.5460 C   0  0  0  0  0  3  0  0  0  0  0  0
  185.3360  178.1890  143.8560 C   0  0  0  0  0  3  0  0  0  0  0  0
  184.1750  178.8840  144.2090 C   0  0  0  0  0  3  0  0  0  0  0  0
  187.6080  176.2620  146.8080 C   0  0  0  0  0  3  0  0  0  0  0  0
  190.2900  174.7680  142.1120 C   0  0  0  0  0  3  0  0  0  0  0  0
  189.9250  173.9480  141.0430 C   0  0  0  0  0  0  0  0  0  0  0  0
  191.5570  172.3120  141.7690 C   0  0  0  0  0  3  0  0  0  0  0  0
  190.5650  172.7150  140.8750 C   0  0  0  0  0  3  0  0  0  0  0  0
  191.2930  174.3810  143.0170 C   0  0  0  0  0  0  0  0  0  0  0  0
  191.9370  173.1260  142.8480 C   0  0  0  0  0  0  0  0  0  0  0  0
  192.9980  172.6180  143.7570 C   0  0  0  0  0  0  0  0  0  0  0  0
  194.3520  173.0480  143.5740 N   0  0  0  0  0  2  0  0  0  0  0  0
  192.7230  171.8160  144.6910 O   0  0  0  0  0  0  0  0  0  0  0  0
  197.0080  173.7390  145.8860 C   0  0  0  0  0  2  0  0  0  0  0  0
  196.7600  172.7420  143.6990 C   0  0  0  0  0  2  0  0  0  0  0  0
  195.5320  173.5180  145.6540 C   0  0  0  0  0  2  0  0  0  0  0  0
  195.4400  172.6150  144.4380 C   0  0  0  0  0  3  0  0  0  0  0  0
  197.6330  173.6790  144.5120 C   0  0  0  0  0  2  0  0  0  0  0  0
  188.9260  174.3820  140.1680 O   0  0  0  0  0  0  0  0  0  0  0  0
  188.6250  173.7100  138.9520 C   0  0  0  0  0  1  0  0  0  0  0  0
  1  5  2  0  0  0  0
  1  3  1  0  0  0  0
  2  4  1  0  0  0  0
  3 22  1  6  0  0  0
  3  2  1  0  0  0  0
  4  8  1  0  0  0  0
  5  6  1  0  0  0  0
  6  2  2  0  0  0  0
  7  9  2  0  0  0  0
  7  8  1  0  0  0  0
  8 17  2  0  0  0  0
  9 11  1  0  0  0  0
 11 13  1  0  0  0  0
 11 12  2  0  0  0  0
 12 10  1  0  0  0  0
 14 13  2  0  0  0  0
 15 16  2  0  0  0  0
 15  9  1  0  0  0  0
 16 14  1  0  0  0  0
 17 12  1  0  0  0  0
 18 22  1  0  0  0  0
 19 18  2  0  0  0  0
 20 23  1  0  0  0  0
 21 19  1  0  0  0  0
 21 20  2  0  0  0  0
 23 22  2  0  0  0  0
 23 24  1  0  0  0  0
 24 26  2  0  0  0  0
 25 24  1  0  0  0  0
 25 30  1  0  0  0  0
 28 30  1  0  0  0  0
 28 31  1  0  0  0  0
 29 27  1  0  0  0  0
 30 29  1  0  0  0  0
 31 27  1  0  0  0  0
 32 19  1  0  0  0  0
 33 32  1  0  0  0  0
M  END
>  <MODEL>
1

>  <REMARK>
 VINA RESULT:      -8.0      0.000      0.000
  Name = 
  5 active torsions:
  status: ('A' for Active; 'I' for Inactive)
    1  A    between atoms: C_1  and  C_23
    2  A    between atoms: N_2  and  C_31
    3  A    between atoms: C_5  and  O_12
    4  A    between atoms: C_8  and  N_20
    5  A    between atoms: C_16  and  C_19
                            x       y       z     vdW  Elec       q    Type
                         _______ _______ _______ _____ _____    ______ ____

>  <TORSDO>
F 5

$$$$
=
 OpenBabel11062421143D

 33 37  0  0  1  0  0  0  0  0999 V2000
  191.7450  174.0120  142.5650 N   0  0  0  0  0  0  0  0  0  0  0  0
  190.3500  175.8180  143.0650 C   0  0  0  0  0  0  0  0  0  0  0  0
  191.7710  175.4630  142.7940 C   0  0  1  0  0  3  0  0  0  0  0  0
  189.8890  177.1490  143.3310 N   0  0  0  0  0  2  0  0  0  0  0  0
  190.3840  173.6890  142.7070 N   0  0  0  0  0  0  0  0  0  0  0  0
  189.5870  174.7910  143.0030 N   0  0  0  0  0  0  0  0  0  0  0  0
  188.0940  177.5360  144.9330 C   0  0  0  0  0  3  0  0  0  0  0  0
  188.5410  177.5520  143.6080 C   0  0  0  0  0  0  0  0  0  0  0  0
  186.7890  177.9190  145.2450 C   0  0  0  0  0  0  0  0  0  0  0  0
  185.5280  178.7240  141.8800 F   0  0  0  0  0  0  0  0  0  0  0  0
  185.9070  178.3260  144.2160 C   0  0  0  0  0  0  0  0  0  0  0  0
  186.3540  178.3400  142.8870 C   0  0  0  0  0  0  0  0  0  0  0  0
  184.6000  178.7110  144.5390 C   0  0  0  0  0  3  0  0  0  0  0  0
  184.1710  178.6940  145.8700 C   0  0  0  0  0  3  0  0  0  0  0  0
  186.3520  177.9030  146.5730 C   0  0  0  0  0  3  0  0  0  0  0  0
  185.0450  178.2900  146.8840 C   0  0  0  0  0  3  0  0  0  0  0  0
  187.6630  177.9530  142.5900 C   0  0  0  0  0  3  0  0  0  0  0  0
  192.0740  175.9350  145.2360 C   0  0  0  0  0  3  0  0  0  0  0  0
  192.8370  176.2930  146.3470 C   0  0  0  0  0  0  0  0  0  0  0  0
  194.7950  176.4360  144.9300 C   0  0  0  0  0  3  0  0  0  0  0  0
  194.2040  176.5440  146.1880 C   0  0  0  0  0  3  0  0  0  0  0  0
  192.6550  175.8130  143.9620 C   0  0  0  0  0  0  0  0  0  0  0  0
  194.0420  176.0740  143.8010 C   0  0  0  0  0  0  0  0  0  0  0  0
  194.7490  175.9880  142.4970 C   0  0  0  0  0  0  0  0  0  0  0  0
  195.7420  174.9750  142.2960 N   0  0  0  0  0  2  0  0  0  0  0  0
  194.4840  176.7910  141.5610 O   0  0  0  0  0  0  0  0  0  0  0  0
  196.8270  172.9720  139.5240 C   0  0  0  0  0  2  0  0  0  0  0  0
  197.8400  174.2450  141.3100 C   0  0  0  0  0  2  0  0  0  0  0  0
  195.7400  173.8060  140.1570 C   0  0  0  0  0  2  0  0  0  0  0  0
  196.4570  174.8110  141.0400 C   0  0  0  0  0  3  0  0  0  0  0  0
  197.9400  172.9390  140.5450 C   0  0  0  0  0  2  0  0  0  0  0  0
  192.2110  176.3950  147.5940 O   0  0  0  0  0  0  0  0  0  0  0  0
  191.1730  175.5160  148.0050 C   0  0  0  0  0  1  0  0  0  0  0  0
  1  5  2  0  0  0  0
  1  3  1  0  0  0  0
  2  4  1  0  0  0  0
  3  2  1  0  0  0  0
  3 22  1  1  0  0  0
  4  8  1  0  0  0  0
  5  6  1  0  0  0  0
  6  2  2  0  0  0  0
  7  9  1  0  0  0  0
  8  7  2  0  0  0  0
  9 15  1  0  0  0  0
 10 12  1  0  0  0  0
 11 13  1  0  0  0  0
 11  9  2  0  0  0  0
 12 11  1  0  0  0  0
 13 14  2  0  0  0  0
 14 16  1  0  0  0  0
 15 16  2  0  0  0  0
 17 12  2  0  0  0  0
 17  8  1  0  0  0  0
 18 19  1  0  0  0  0
 19 32  1  0  0  0  0
 20 21  1  0  0  0  0
 21 19  2  0  0  0  0
 22 18  2  0  0  0  0
 23 22  1  0  0  0  0
 23 20  2  0  0  0  0
 24 23  1  0  0  0  0
 25 24  1  0  0  0  0
 26 24  2  0  0  0  0
 27 29  1  0  0  0  0
 27 31  1  0  0  0  0
 29 30  1  0  0  0  0
 30 28  1  0  0  0  0
 30 25  1  0  0  0  0
 31 28  1  0  0  0  0
 32 33  1  0  0  0  0
M  END
>  <MODEL>
2

>  <REMARK>
 VINA RESULT:      -7.9      2.972      4.518
  Name = 
  5 active torsions:
  status: ('A' for Active; 'I' for Inactive)
    1  A    between atoms: C_1  and  C_23
    2  A    between atoms: N_2  and  C_31
    3  A    between atoms: C_5  and  O_12
    4  A    between atoms: C_8  and  N_20
    5  A    between atoms: C_16  and  C_19
                            x       y       z     vdW  Elec       q    Type
                         _______ _______ _______ _____ _____    ______ ____

>  <TORSDO>
F 5

$$$$
=
 OpenBabel11062421143D

 33 37  0  0  1  0  0  0  0  0999 V2000
  192.6920  176.0790  142.9070 N   0  0  0  0  0  0  0  0  0  0  0  0
  190.4810  175.9070  143.6380 C   0  0  0  0  0  0  0  0  0  0  0  0
  191.7180  175.1080  143.4230 C   0  0  1  0  0  3  0  0  0  0  0  0
  189.2560  175.3710  144.1550 N   0  0  0  0  0  2  0  0  0  0  0  0
  191.9650  177.2820  142.8870 N   0  0  0  0  0  0  0  0  0  0  0  0
  190.6540  177.1380  143.3290 N   0  0  0  0  0  0  0  0  0  0  0  0
  187.7510  176.5590  145.6590 C   0  0  0  0  0  3  0  0  0  0  0  0
  188.0310  176.0830  144.3740 C   0  0  0  0  0  0  0  0  0  0  0  0
  186.5680  177.2550  145.9140 C   0  0  0  0  0  0  0  0  0  0  0  0
  185.0500  177.2060  142.5590 F   0  0  0  0  0  0  0  0  0  0  0  0
  185.6430  177.4830  144.8680 C   0  0  0  0  0  0  0  0  0  0  0  0
  185.9220  177.0040  143.5800 C   0  0  0  0  0  0  0  0  0  0  0  0
  184.4600  178.1840  145.1330 C   0  0  0  0  0  3  0  0  0  0  0  0
  184.1970  178.6570  146.4230 C   0  0  0  0  0  3  0  0  0  0  0  0
  186.2970  177.7290  147.2010 C   0  0  0  0  0  3  0  0  0  0  0  0
  185.1140  178.4290  147.4540 C   0  0  0  0  0  3  0  0  0  0  0  0
  187.1090  176.3080  143.3400 C   0  0  0  0  0  3  0  0  0  0  0  0
  190.6150  174.2190  141.3570 C   0  0  0  0  0  3  0  0  0  0  0  0
  190.3340  173.2130  140.4330 C   0  0  0  0  0  0  0  0  0  0  0  0
  191.7880  171.7120  141.6570 C   0  0  0  0  0  3  0  0  0  0  0  0
  190.9260  171.9550  140.5880 C   0  0  0  0  0  3  0  0  0  0  0  0
  191.4880  173.9940  142.4350 C   0  0  0  0  0  0  0  0  0  0  0  0
  192.0830  172.7150  142.5940 C   0  0  0  0  0  0  0  0  0  0  0  0
  193.0070  172.3710  143.7070 C   0  0  0  0  0  0  0  0  0  0  0  0
  194.3960  172.7030  143.6010 N   0  0  0  0  0  2  0  0  0  0  0  0
  192.5840  171.7940  144.7460 O   0  0  0  0  0  0  0  0  0  0  0  0
  196.9860  173.7300  145.8630 C   0  0  0  0  0  2  0  0  0  0  0  0
  196.7220  172.1540  144.0500 C   0  0  0  0  0  2  0  0  0  0  0  0
  195.5100  173.6330  145.5590 C   0  0  0  0  0  2  0  0  0  0  0  0
  195.3560  172.4220  144.6580 C   0  0  0  0  0  3  0  0  0  0  0  0
  197.6750  173.1790  144.6360 C   0  0  0  0  0  2  0  0  0  0  0  0
  189.4630  173.4890  139.3740 O   0  0  0  0  0  0  0  0  0  0  0  0
  188.2950  172.7220  139.1210 C   0  0  0  0  0  1  0  0  0  0  0  0
  1  3  1  0  0  0  0
  2  4  1  0  0  0  0
  3 22  1  6  0  0  0
  3  2  1  0  0  0  0
  4  8  1  0  0  0  0
  5  1  2  0  0  0  0
  5  6  1  0  0  0  0
  6  2  2  0  0  0  0
  7  9  1  0  0  0  0
  8  7  2  0  0  0  0
  9 15  1  0  0  0  0
 10 12  1  0  0  0  0
 11 13  1  0  0  0  0
 11  9  2  0  0  0  0
 12 11  1  0  0  0  0
 13 14  2  0  0  0  0
 14 16  1  0  0  0  0
 15 16  2  0  0  0  0
 17 12  2  0  0  0  0
 17  8  1  0  0  0  0
 18 22  1  0  0  0  0
 19 21  1  0  0  0  0
 19 18  2  0  0  0  0
 20 23  1  0  0  0  0
 21 20  2  0  0  0  0
 22 23  2  0  0  0  0
 23 24  1  0  0  0  0
 24 26  2  0  0  0  0
 25 24  1  0  0  0  0
 25 30  1  0  0  0  0
 28 31  1  0  0  0  0
 28 30  1  0  0  0  0
 29 27  1  0  0  0  0
 30 29  1  0  0  0  0
 31 27  1  0  0  0  0
 32 19  1  0  0  0  0
 33 32  1  0  0  0  0
M  END
>  <MODEL>
3

>  <REMARK>
 VINA RESULT:      -7.8      1.332      1.815
  Name = 
  5 active torsions:
  status: ('A' for Active; 'I' for Inactive)
    1  A    between atoms: C_1  and  C_23
    2  A    between atoms: N_2  and  C_31
    3  A    between atoms: C_5  and  O_12
    4  A    between atoms: C_8  and  N_20
    5  A    between atoms: C_16  and  C_19
                            x       y       z     vdW  Elec       q    Type
                         _______ _______ _______ _____ _____    ______ ____

>  <TORSDO>
F 5

$$$$
=
 OpenBabel11062421143D

 33 37  0  0  1  0  0  0  0  0999 V2000
  188.9510  175.5530  145.2690 N   0  0  0  0  0  0  0  0  0  0  0  0
  191.1260  174.8440  144.7970 C   0  0  0  0  0  0  0  0  0  0  0  0
  189.9780  175.5950  144.2190 C   0  0  1  0  0  3  0  0  0  0  0  0
  192.3760  174.6400  144.1250 N   0  0  0  0  0  2  0  0  0  0  0  0
  189.5770  174.8300  146.3000 N   0  0  0  0  0  0  0  0  0  0  0  0
  190.8700  174.4270  145.9810 N   0  0  0  0  0  0  0  0  0  0  0  0
  193.4080  172.5350  144.7890 C   0  0  0  0  0  3  0  0  0  0  0  0
  193.5110  173.9200  144.6220 C   0  0  0  0  0  0  0  0  0  0  0  0
  194.4910  171.7970  145.2730 C   0  0  0  0  0  0  0  0  0  0  0  0
  196.9560  174.4930  145.7390 F   0  0  0  0  0  0  0  0  0  0  0  0
  195.7020  172.4520  145.5980 C   0  0  0  0  0  0  0  0  0  0  0  0
  195.8060  173.8400  145.4320 C   0  0  0  0  0  0  0  0  0  0  0  0
  196.7840  171.7030  146.0800 C   0  0  0  0  0  3  0  0  0  0  0  0
  196.6650  170.3190  146.2370 C   0  0  0  0  0  3  0  0  0  0  0  0
  194.3790  170.4140  145.4340 C   0  0  0  0  0  3  0  0  0  0  0  0
  195.4650  169.6760  145.9160 C   0  0  0  0  0  3  0  0  0  0  0  0
  194.7140  174.5650  144.9490 C   0  0  0  0  0  3  0  0  0  0  0  0
  189.9230  173.6520  142.6390 C   0  0  0  0  0  3  0  0  0  0  0  0
  189.5290  173.0200  141.4600 C   0  0  0  0  0  0  0  0  0  0  0  0
  188.2510  174.9870  140.8570 C   0  0  0  0  0  3  0  0  0  0  0  0
  188.6880  173.6950  140.5680 C   0  0  0  0  0  3  0  0  0  0  0  0
  189.4840  174.9500  142.9510 C   0  0  0  0  0  0  0  0  0  0  0  0
  188.6360  175.6360  142.0410 C   0  0  0  0  0  0  0  0  0  0  0  0
  188.1300  177.0150  142.2690 C   0  0  0  0  0  0  0  0  0  0  0  0
  186.8540  177.2060  142.8910 N   0  0  0  0  0  2  0  0  0  0  0  0
  188.8100  178.0210  141.9270 O   0  0  0  0  0  0  0  0  0  0  0  0
  184.9590  179.4610  144.9410 C   0  0  0  0  0  2  0  0  0  0  0  0
  184.8650  178.5890  142.6900 C   0  0  0  0  0  2  0  0  0  0  0  0
  186.2740  178.7700  144.6690 C   0  0  0  0  0  2  0  0  0  0  0  0
  186.3040  178.5240  143.1710 C   0  0  0  0  0  3  0  0  0  0  0  0
  184.0090  178.9210  143.8970 C   0  0  0  0  0  2  0  0  0  0  0  0
  189.9880  171.7250  141.1990 O   0  0  0  0  0  0  0  0  0  0  0  0
  190.4950  170.8720  142.2160 C   0  0  0  0  0  1  0  0  0  0  0  0
  1  5  2  0  0  0  0
  2  6  2  0  0  0  0
  3 22  1  6  0  0  0
  3  2  1  0  0  0  0
  3  1  1  0  0  0  0
  4  8  1  0  0  0  0
  4  2  1  0  0  0  0
  6  5  1  0  0  0  0
  7  9  1  0  0  0  0
  8  7  2  0  0  0  0
  8 17  1  0  0  0  0
  9 15  2  0  0  0  0
  9 11  1  0  0  0  0
 11 13  2  0  0  0  0
 12 11  1  0  0  0  0
 12 10  1  0  0  0  0
 13 14  1  0  0  0  0
 15 16  1  0  0  0  0
 16 14  2  0  0  0  0
 17 12  2  0  0  0  0
 18 22  1  0  0  0  0
 19 18  2  0  0  0  0
 20 23  1  0  0  0  0
 21 20  2  0  0  0  0
 21 19  1  0  0  0  0
 23 24  1  0  0  0  0
 23 22  2  0  0  0  0
 24 25  1  0  0  0  0
 25 30  1  0  0  0  0
 26 24  2  0  0  0  0
 28 30  1  0  0  0  0
 28 31  1  0  0  0  0
 29 27  1  0  0  0  0
 30 29  1  0  0  0  0
 31 27  1  0  0  0  0
 32 19  1  0  0  0  0
 32 33  1  0  0  0  0
M  END
>  <MODEL>
4

>  <REMARK>
 VINA RESULT:      -7.6      2.828      8.760
  Name = 
  5 active torsions:
  status: ('A' for Active; 'I' for Inactive)
    1  A    between atoms: C_1  and  C_23
    2  A    between atoms: N_2  and  C_31
    3  A    between atoms: C_5  and  O_12
    4  A    between atoms: C_8  and  N_20
    5  A    between atoms: C_16  and  C_19
                            x       y       z     vdW  Elec       q    Type
                         _______ _______ _______ _____ _____    ______ ____

>  <TORSDO>
F 5

$$$$
=
 OpenBabel11062421143D

 33 37  0  0  1  0  0  0  0  0999 V2000
  191.4750  174.1640  141.8220 N   0  0  0  0  0  0  0  0  0  0  0  0
  190.2590  175.6900  143.1060 C   0  0  0  0  0  0  0  0  0  0  0  0
  191.5920  175.4730  142.4790 C   0  0  1  0  0  3  0  0  0  0  0  0
  189.9000  176.8610  143.8510 N   0  0  0  0  0  2  0  0  0  0  0  0
  190.1540  173.7770  142.1090 N   0  0  0  0  0  0  0  0  0  0  0  0
  189.4630  174.7120  142.8740 N   0  0  0  0  0  0  0  0  0  0  0  0
  187.7400  177.9890  143.8600 C   0  0  0  0  0  3  0  0  0  0  0  0
  188.6420  177.1230  144.4870 C   0  0  0  0  0  0  0  0  0  0  0  0
  186.5050  178.2720  144.4470 C   0  0  0  0  0  0  0  0  0  0  0  0
  186.7600  176.2370  147.5060 F   0  0  0  0  0  0  0  0  0  0  0  0
  186.1610  177.6810  145.6850 C   0  0  0  0  0  0  0  0  0  0  0  0
  187.0650  176.8150  146.3160 C   0  0  0  0  0  0  0  0  0  0  0  0
  184.9190  177.9690  146.2660 C   0  0  0  0  0  3  0  0  0  0  0  0
  184.0270  178.8340  145.6230 C   0  0  0  0  0  3  0  0  0  0  0  0
  185.6100  179.1360  143.8120 C   0  0  0  0  0  3  0  0  0  0  0  0
  184.3720  179.4170  144.3990 C   0  0  0  0  0  3  0  0  0  0  0  0
  188.2970  176.5420  145.7170 C   0  0  0  0  0  3  0  0  0  0  0  0
  192.3390  175.3600  144.8670 C   0  0  0  0  0  3  0  0  0  0  0  0
  193.3100  175.3880  145.8680 C   0  0  0  0  0  0  0  0  0  0  0  0
  195.0200  175.6490  144.1730 C   0  0  0  0  0  3  0  0  0  0  0  0
  194.6560  175.5330  145.5140 C   0  0  0  0  0  3  0  0  0  0  0  0
  192.6890  175.4670  143.5100 C   0  0  0  0  0  0  0  0  0  0  0  0
  194.0550  175.6210  143.1530 C   0  0  0  0  0  0  0  0  0  0  0  0
  194.5280  175.7570  141.7510 C   0  0  0  0  0  0  0  0  0  0  0  0
  194.8060  174.5820  140.9810 N   0  0  0  0  0  2  0  0  0  0  0  0
  194.6830  176.8930  141.2260 O   0  0  0  0  0  0  0  0  0  0  0  0
  194.4400  173.7040  137.5210 C   0  0  0  0  0  2  0  0  0  0  0  0
  196.0730  173.4000  139.2750 C   0  0  0  0  0  2  0  0  0  0  0  0
  194.0480  174.6080  138.6640 C   0  0  0  0  0  2  0  0  0  0  0  0
  195.2470  174.6330  139.5950 C   0  0  0  0  0  3  0  0  0  0  0  0
  195.3800  172.6890  138.1290 C   0  0  0  0  0  2  0  0  0  0  0  0
  192.9100  175.2710  147.2030 O   0  0  0  0  0  0  0  0  0  0  0  0
  191.5570  175.4160  147.6140 C   0  0  0  0  0  1  0  0  0  0  0  0
  1  5  2  0  0  0  0
  1  3  1  0  0  0  0
  2  4  1  0  0  0  0
  3  2  1  0  0  0  0
  3 22  1  1  0  0  0
  4  8  1  0  0  0  0
  5  6  1  0  0  0  0
  6  2  2  0  0  0  0
  7  9  2  0  0  0  0
  7  8  1  0  0  0  0
  8 17  2  0  0  0  0
  9 11  1  0  0  0  0
 11 13  1  0  0  0  0
 11 12  2  0  0  0  0
 12 10  1  0  0  0  0
 14 13  2  0  0  0  0
 15 16  2  0  0  0  0
 15  9  1  0  0  0  0
 16 14  1  0  0  0  0
 17 12  1  0  0  0  0
 18 19  1  0  0  0  0
 19 32  1  0  0  0  0
 20 21  1  0  0  0  0
 21 19  2  0  0  0  0
 22 18  2  0  0  0  0
 23 22  1  0  0  0  0
 23 20  2  0  0  0  0
 24 23  1  0  0  0  0
 25 24  1  0  0  0  0
 26 24  2  0  0  0  0
 27 31  1  0  0  0  0
 27 29  1  0  0  0  0
 28 30  1  0  0  0  0
 29 30  1  0  0  0  0
 30 25  1  0  0  0  0
 31 28  1  0  0  0  0
 32 33  1  0  0  0  0
M  END
>  <MODEL>
5

>  <REMARK>
 VINA RESULT:      -7.5      2.923      4.418
  Name = 
  5 active torsions:
  status: ('A' for Active; 'I' for Inactive)
    1  A    between atoms: C_1  and  C_23
    2  A    between atoms: N_2  and  C_31
    3  A    between atoms: C_5  and  O_12
    4  A    between atoms: C_8  and  N_20
    5  A    between atoms: C_16  and  C_19
                            x       y       z     vdW  Elec       q    Type
                         _______ _______ _______ _____ _____    ______ ____

>  <TORSDO>
F 5

$$$$
=
 OpenBabel11062421143D

 33 37  0  0  1  0  0  0  0  0999 V2000
  189.9500  178.5280  143.7290 N   0  0  0  0  0  0  0  0  0  0  0  0
  189.1310  176.6750  142.5660 C   0  0  0  0  0  0  0  0  0  0  0  0
  188.6990  177.8340  143.3950 C   0  0  1  0  0  3  0  0  0  0  0  0
  188.2330  175.7150  141.9940 N   0  0  0  0  0  2  0  0  0  0  0  0
  190.9290  177.7500  143.0870 N   0  0  0  0  0  0  0  0  0  0  0  0
  190.4020  176.6580  142.4050 N   0  0  0  0  0  0  0  0  0  0  0  0
  189.3390  173.5530  141.7870 C   0  0  0  0  0  3  0  0  0  0  0  0
  188.5870  174.5750  141.1990 C   0  0  0  0  0  0  0  0  0  0  0  0
  189.7060  172.4280  141.0470 C   0  0  0  0  0  0  0  0  0  0  0  0
  188.1800  173.2620  137.8010 F   0  0  0  0  0  0  0  0  0  0  0  0
  189.3160  172.3170  139.6910 C   0  0  0  0  0  0  0  0  0  0  0  0
  188.5640  173.3420  139.1000 C   0  0  0  0  0  0  0  0  0  0  0  0
  189.6870  171.1830  138.9570 C   0  0  0  0  0  3  0  0  0  0  0  0
  190.4360  170.1680  139.5620 C   0  0  0  0  0  3  0  0  0  0  0  0
  190.4560  171.4110  141.6440 C   0  0  0  0  0  3  0  0  0  0  0  0
  190.8200  170.2820  140.9020 C   0  0  0  0  0  3  0  0  0  0  0  0
  188.2060  174.4630  139.8530 C   0  0  0  0  0  3  0  0  0  0  0  0
  188.6670  176.5710  145.5570 C   0  0  0  0  0  3  0  0  0  0  0  0
  188.0400  176.0910  146.7070 C   0  0  0  0  0  0  0  0  0  0  0  0
  186.0000  177.2130  146.0380 C   0  0  0  0  0  3  0  0  0  0  0  0
  186.7000  176.4170  146.9450 C   0  0  0  0  0  3  0  0  0  0  0  0
  187.9790  177.3820  144.6380 C   0  0  0  0  0  0  0  0  0  0  0  0
  186.6180  177.7070  144.8780 C   0  0  0  0  0  0  0  0  0  0  0  0
  185.7990  178.5430  143.9620 C   0  0  0  0  0  0  0  0  0  0  0  0
  185.0680  177.9200  142.8990 N   0  0  0  0  0  2  0  0  0  0  0  0
  185.7330  179.7940  144.1090 O   0  0  0  0  0  0  0  0  0  0  0  0
  182.0150  178.3530  141.0640 C   0  0  0  0  0  2  0  0  0  0  0  0
  184.3680  178.0990  140.5780 C   0  0  0  0  0  2  0  0  0  0  0  0
  182.7650  178.5120  142.3650 C   0  0  0  0  0  2  0  0  0  0  0  0
  184.2240  178.6670  141.9790 C   0  0  0  0  0  3  0  0  0  0  0  0
  182.9850  177.6610  140.1350 C   0  0  0  0  0  2  0  0  0  0  0  0
  188.7700  175.2930  147.5940 O   0  0  0  0  0  0  0  0  0  0  0  0
  189.9070  174.5420  147.1920 C   0  0  0  0  0  1  0  0  0  0  0  0
  2  3  1  0  0  0  0
  3  1  1  0  0  0  0
  3 22  1  1  0  0  0
  4  2  1  0  0  0  0
  5  1  2  0  0  0  0
  6  2  2  0  0  0  0
  6  5  1  0  0  0  0
  8  7  1  0  0  0  0
  8  4  1  0  0  0  0
  9 15  1  0  0  0  0
  9  7  2  0  0  0  0
 10 12  1  0  0  0  0
 11  9  1  0  0  0  0
 12 11  2  0  0  0  0
 12 17  1  0  0  0  0
 13 14  2  0  0  0  0
 13 11  1  0  0  0  0
 14 16  1  0  0  0  0
 16 15  2  0  0  0  0
 17  8  2  0  0  0  0
 18 19  1  0  0  0  0
 19 21  2  0  0  0  0
 19 32  1  0  0  0  0
 20 21  1  0  0  0  0
 22 23  1  0  0  0  0
 22 18  2  0  0  0  0
 23 20  2  0  0  0  0
 24 26  2  0  0  0  0
 24 23  1  0  0  0  0
 25 24  1  0  0  0  0
 27 29  1  0  0  0  0
 28 30  1  0  0  0  0
 30 29  1  0  0  0  0
 30 25  1  0  0  0  0
 31 28  1  0  0  0  0
 31 27  1  0  0  0  0
 33 32  1  0  0  0  0
M  END
>  <MODEL>
6

>  <REMARK>
 VINA RESULT:      -7.4      4.149      9.185
  Name = 
  5 active torsions:
  status: ('A' for Active; 'I' for Inactive)
    1  A    between atoms: C_1  and  C_23
    2  A    between atoms: N_2  and  C_31
    3  A    between atoms: C_5  and  O_12
    4  A    between atoms: C_8  and  N_20
    5  A    between atoms: C_16  and  C_19
                            x       y       z     vdW  Elec       q    Type
                         _______ _______ _______ _____ _____    ______ ____

>  <TORSDO>
F 5

$$$$
=
 OpenBabel11062421143D

 33 37  0  0  1  0  0  0  0  0999 V2000
  190.2660  178.4310  144.1900 N   0  0  0  0  0  0  0  0  0  0  0  0
  189.7640  176.3190  143.3290 C   0  0  0  0  0  0  0  0  0  0  0  0
  189.7740  177.1070  144.5920 C   0  0  1  0  0  3  0  0  0  0  0  0
  189.3350  174.9540  143.2350 N   0  0  0  0  0  2  0  0  0  0  0  0
  190.4710  178.2900  142.8060 N   0  0  0  0  0  0  0  0  0  0  0  0
  190.1600  177.0200  142.3320 N   0  0  0  0  0  0  0  0  0  0  0  0
  190.0590  172.9580  142.0380 C   0  0  0  0  0  3  0  0  0  0  0  0
  189.3120  174.1400  142.0540 C   0  0  0  0  0  0  0  0  0  0  0  0
  190.0640  172.1390  140.9080 C   0  0  0  0  0  0  0  0  0  0  0  0
  187.8360  174.0670  138.6990 F   0  0  0  0  0  0  0  0  0  0  0  0
  189.3110  172.5050  139.7670 C   0  0  0  0  0  0  0  0  0  0  0  0
  188.5650  173.6920  139.7810 C   0  0  0  0  0  0  0  0  0  0  0  0
  189.3210  171.6760  138.6380 C   0  0  0  0  0  3  0  0  0  0  0  0
  190.0700  170.4940  138.6410 C   0  0  0  0  0  3  0  0  0  0  0  0
  190.8110  170.9580  140.9020 C   0  0  0  0  0  3  0  0  0  0  0  0
  190.8140  170.1370  139.7700 C   0  0  0  0  0  3  0  0  0  0  0  0
  188.5690  174.5020  140.9190 C   0  0  0  0  0  3  0  0  0  0  0  0
  192.0600  176.4320  145.3650 C   0  0  0  0  0  3  0  0  0  0  0  0
  192.9410  175.8310  146.2640 C   0  0  0  0  0  0  0  0  0  0  0  0
  191.0700  175.2930  147.7050 C   0  0  0  0  0  3  0  0  0  0  0  0
  192.4390  175.2600  147.4390 C   0  0  0  0  0  3  0  0  0  0  0  0
  190.6790  176.4810  145.6210 C   0  0  0  0  0  0  0  0  0  0  0  0
  190.1700  175.8960  146.8110 C   0  0  0  0  0  0  0  0  0  0  0  0
  188.7280  175.8810  147.1680 C   0  0  0  0  0  0  0  0  0  0  0  0
  187.9320  177.0520  146.9470 N   0  0  0  0  0  2  0  0  0  0  0  0
  188.1910  174.8510  147.6590 O   0  0  0  0  0  0  0  0  0  0  0  0
  184.5460  177.8170  146.0380 C   0  0  0  0  0  2  0  0  0  0  0  0
  186.1400  178.5010  147.7210 C   0  0  0  0  0  2  0  0  0  0  0  0
  185.7010  176.8460  145.9880 C   0  0  0  0  0  2  0  0  0  0  0  0
  186.5090  177.1060  147.2460 C   0  0  0  0  0  3  0  0  0  0  0  0
  185.0840  179.0270  146.7680 C   0  0  0  0  0  2  0  0  0  0  0  0
  194.3070  175.8140  145.9650 O   0  0  0  0  0  0  0  0  0  0  0  0
  194.8950  176.6890  145.0130 C   0  0  0  0  0  1  0  0  0  0  0  0
  1  3  1  0  0  0  0
  2  3  1  0  0  0  0
  3 22  1  1  0  0  0
  4  2  1  0  0  0  0
  5  1  2  0  0  0  0
  6  5  1  0  0  0  0
  6  2  2  0  0  0  0
  7  8  1  0  0  0  0
  8  4  1  0  0  0  0
  9  7  2  0  0  0  0
 10 12  1  0  0  0  0
 11 12  2  0  0  0  0
 11  9  1  0  0  0  0
 12 17  1  0  0  0  0
 13 14  2  0  0  0  0
 13 11  1  0  0  0  0
 14 16  1  0  0  0  0
 15  9  1  0  0  0  0
 16 15  2  0  0  0  0
 17  8  2  0  0  0  0
 18 22  2  0  0  0  0
 18 19  1  0  0  0  0
 19 21  2  0  0  0  0
 21 20  1  0  0  0  0
 22 23  1  0  0  0  0
 23 24  1  0  0  0  0
 23 20  2  0  0  0  0
 24 26  2  0  0  0  0
 25 24  1  0  0  0  0
 25 30  1  0  0  0  0
 27 31  1  0  0  0  0
 29 27  1  0  0  0  0
 29 30  1  0  0  0  0
 30 28  1  0  0  0  0
 31 28  1  0  0  0  0
 32 19  1  0  0  0  0
 33 32  1  0  0  0  0
M  END
>  <MODEL>
7

>  <REMARK>
 VINA RESULT:      -7.4      3.333      8.136
  Name = 
  5 active torsions:
  status: ('A' for Active; 'I' for Inactive)
    1  A    between atoms: C_1  and  C_23
    2  A    between atoms: N_2  and  C_31
    3  A    between atoms: C_5  and  O_12
    4  A    between atoms: C_8  and  N_20
    5  A    between atoms: C_16  and  C_19
                            x       y       z     vdW  Elec       q    Type
                         _______ _______ _______ _____ _____    ______ ____

>  <TORSDO>
F 5

$$$$
=
 OpenBabel11062421143D

 33 37  0  0  1  0  0  0  0  0999 V2000
  188.2210  176.5680  142.8050 N   0  0  0  0  0  0  0  0  0  0  0  0
  189.0710  174.4290  142.4100 C   0  0  0  0  0  0  0  0  0  0  0  0
  188.7850  175.4030  143.4990 C   0  0  1  0  0  3  0  0  0  0  0  0
  189.6230  173.1230  142.6210 N   0  0  0  0  0  2  0  0  0  0  0  0
  188.2250  176.1710  141.4560 N   0  0  0  0  0  0  0  0  0  0  0  0
  188.7380  174.8920  141.2620 N   0  0  0  0  0  0  0  0  0  0  0  0
  189.5950  172.4220  140.2880 C   0  0  0  0  0  3  0  0  0  0  0  0
  189.9300  172.1470  141.6170 C   0  0  0  0  0  0  0  0  0  0  0  0
  189.8750  171.4970  139.2800 C   0  0  0  0  0  0  0  0  0  0  0  0
  191.4370  168.8220  141.2730 F   0  0  0  0  0  0  0  0  0  0  0  0
  190.5030  170.2700  139.6030 C   0  0  0  0  0  0  0  0  0  0  0  0
  190.8370  169.9930  140.9360 C   0  0  0  0  0  0  0  0  0  0  0  0
  190.7820  169.3490  138.5850 C   0  0  0  0  0  3  0  0  0  0  0  0
  190.4440  169.6420  137.2600 C   0  0  0  0  0  3  0  0  0  0  0  0
  189.5390  171.7810  137.9540 C   0  0  0  0  0  3  0  0  0  0  0  0
  189.8230  170.8550  136.9460 C   0  0  0  0  0  3  0  0  0  0  0  0
  190.5490  170.9270  141.9330 C   0  0  0  0  0  3  0  0  0  0  0  0
  191.2540  175.8220  143.5450 C   0  0  0  0  0  3  0  0  0  0  0  0
  192.4530  176.1200  144.1940 C   0  0  0  0  0  0  0  0  0  0  0  0
  191.2470  176.3120  146.2860 C   0  0  0  0  0  3  0  0  0  0  0  0
  192.4440  176.3660  145.5710 C   0  0  0  0  0  3  0  0  0  0  0  0
  190.0390  175.7720  144.2480 C   0  0  0  0  0  0  0  0  0  0  0  0
  190.0320  176.0150  145.6470 C   0  0  0  0  0  0  0  0  0  0  0  0
  188.8050  175.9710  146.4840 C   0  0  0  0  0  0  0  0  0  0  0  0
  187.8400  177.0250  146.3800 N   0  0  0  0  0  2  0  0  0  0  0  0
  188.5970  175.0170  147.2810 O   0  0  0  0  0  0  0  0  0  0  0  0
  184.3480  177.7790  146.7150 C   0  0  0  0  0  2  0  0  0  0  0  0
  186.4190  178.4000  147.7930 C   0  0  0  0  0  2  0  0  0  0  0  0
  185.4150  176.8310  146.2230 C   0  0  0  0  0  2  0  0  0  0  0  0
  186.6020  177.0390  147.1460 C   0  0  0  0  0  3  0  0  0  0  0  0
  185.1020  178.9570  147.2850 C   0  0  0  0  0  2  0  0  0  0  0  0
  193.6340  176.1640  143.4480 O   0  0  0  0  0  0  0  0  0  0  0  0
  194.8440  175.5640  143.8910 C   0  0  0  0  0  1  0  0  0  0  0  0
  1  3  1  0  0  0  0
  2  4  1  0  0  0  0
  2  3  1  0  0  0  0
  3 22  1  6  0  0  0
  5  1  2  0  0  0  0
  6  5  1  0  0  0  0
  6  2  2  0  0  0  0
  7  8  1  0  0  0  0
  8 17  2  0  0  0  0
  8  4  1  0  0  0  0
  9 11  1  0  0  0  0
  9  7  2  0  0  0  0
 11 12  2  0  0  0  0
 12 10  1  0  0  0  0
 12 17  1  0  0  0  0
 13 11  1  0  0  0  0
 14 13  2  0  0  0  0
 15  9  1  0  0  0  0
 16 14  1  0  0  0  0
 16 15  2  0  0  0  0
 18 19  2  0  0  0  0
 18 22  1  0  0  0  0
 19 21  1  0  0  0  0
 21 20  2  0  0  0  0
 22 23  2  0  0  0  0
 23 20  1  0  0  0  0
 23 24  1  0  0  0  0
 24 26  2  0  0  0  0
 25 24  1  0  0  0  0
 25 30  1  0  0  0  0
 27 31  1  0  0  0  0
 29 27  1  0  0  0  0
 29 30  1  0  0  0  0
 30 28  1  0  0  0  0
 31 28  1  0  0  0  0
 32 33  1  0  0  0  0
 32 19  1  0  0  0  0
M  END
>  <MODEL>
8

>  <REMARK>
 VINA RESULT:      -7.1      3.472      8.564
  Name = 
  5 active torsions:
  status: ('A' for Active; 'I' for Inactive)
    1  A    between atoms: C_1  and  C_23
    2  A    between atoms: N_2  and  C_31
    3  A    between atoms: C_5  and  O_12
    4  A    between atoms: C_8  and  N_20
    5  A    between atoms: C_16  and  C_19
                            x       y       z     vdW  Elec       q    Type
                         _______ _______ _______ _____ _____    ______ ____

>  <TORSDO>
F 5

$$$$
=
 OpenBabel11062421143D

 33 37  0  0  1  0  0  0  0  0999 V2000
  190.7810  171.8230  143.2350 N   0  0  0  0  0  0  0  0  0  0  0  0
  189.8210  173.8920  143.7360 C   0  0  0  0  0  0  0  0  0  0  0  0
  190.4750  173.1290  142.6370 C   0  0  1  0  0  3  0  0  0  0  0  0
  189.3300  175.2320  143.6040 N   0  0  0  0  0  2  0  0  0  0  0  0
  190.2910  171.9470  144.5460 N   0  0  0  0  0  0  0  0  0  0  0  0
  189.7270  173.1920  144.8050 N   0  0  0  0  0  0  0  0  0  0  0  0
  187.3190  176.2140  144.5700 C   0  0  0  0  0  3  0  0  0  0  0  0
  188.7040  176.0220  144.6240 C   0  0  0  0  0  0  0  0  0  0  0  0
  186.6710  176.9780  145.5430 C   0  0  0  0  0  0  0  0  0  0  0  0
  189.5450  177.9290  147.6400 F   0  0  0  0  0  0  0  0  0  0  0  0
  187.4170  177.5640  146.5920 C   0  0  0  0  0  0  0  0  0  0  0  0
  188.8060  177.3750  146.6460 C   0  0  0  0  0  0  0  0  0  0  0  0
  186.7580  178.3270  147.5650 C   0  0  0  0  0  3  0  0  0  0  0  0
  185.3730  178.5050  147.4980 C   0  0  0  0  0  3  0  0  0  0  0  0
  185.2880  177.1620  145.4820 C   0  0  0  0  0  3  0  0  0  0  0  0
  184.6400  177.9240  146.4590 C   0  0  0  0  0  3  0  0  0  0  0  0
  189.4400  176.6090  145.6650 C   0  0  0  0  0  3  0  0  0  0  0  0
  192.5460  174.4560  143.1090 C   0  0  0  0  0  3  0  0  0  0  0  0
  193.6990  175.1400  142.7230 C   0  0  0  0  0  0  0  0  0  0  0  0
  193.2350  174.5760  140.4130 C   0  0  0  0  0  3  0  0  0  0  0  0
  194.0410  175.1970  141.3670 C   0  0  0  0  0  3  0  0  0  0  0  0
  191.7280  173.8160  142.1620 C   0  0  0  0  0  0  0  0  0  0  0  0
  192.0730  173.8800  140.7860 C   0  0  0  0  0  0  0  0  0  0  0  0
  191.2680  173.2520  139.7060 C   0  0  0  0  0  0  0  0  0  0  0  0
  191.7010  172.0140  139.1300 N   0  0  0  0  0  2  0  0  0  0  0  0
  190.2050  173.7900  139.2920 O   0  0  0  0  0  0  0  0  0  0  0  0
  190.0850  169.0920  137.8170 C   0  0  0  0  0  2  0  0  0  0  0  0
  191.9110  170.5500  137.2010 C   0  0  0  0  0  2  0  0  0  0  0  0
  190.0120  170.3090  138.7070 C   0  0  0  0  0  2  0  0  0  0  0  0
  190.9540  171.3250  138.0880 C   0  0  0  0  0  3  0  0  0  0  0  0
  191.4930  169.0930  137.2680 C   0  0  0  0  0  2  0  0  0  0  0  0
  194.4830  175.7550  143.7040 O   0  0  0  0  0  0  0  0  0  0  0  0
  193.9230  176.4150  144.8310 C   0  0  0  0  0  1  0  0  0  0  0  0
  1  5  2  0  0  0  0
  2  6  2  0  0  0  0
  3 22  1  1  0  0  0
  3  1  1  0  0  0  0
  3  2  1  0  0  0  0
  4  2  1  0  0  0  0
  4  8  1  0  0  0  0
  5  6  1  0  0  0  0
  7  8  2  0  0  0  0
  7  9  1  0  0  0  0
  8 17  1  0  0  0  0
  9 11  1  0  0  0  0
 11 12  1  0  0  0  0
 11 13  2  0  0  0  0
 12 10  1  0  0  0  0
 14 13  1  0  0  0  0
 15  9  2  0  0  0  0
 15 16  1  0  0  0  0
 16 14  2  0  0  0  0
 17 12  2  0  0  0  0
 19 18  1  0  0  0  0
 19 32  1  0  0  0  0
 20 23  2  0  0  0  0
 20 21  1  0  0  0  0
 21 19  2  0  0  0  0
 22 18  2  0  0  0  0
 23 22  1  0  0  0  0
 24 23  1  0  0  0  0
 25 24  1  0  0  0  0
 26 24  2  0  0  0  0
 27 29  1  0  0  0  0
 28 31  1  0  0  0  0
 28 30  1  0  0  0  0
 30 29  1  0  0  0  0
 30 25  1  0  0  0  0
 31 27  1  0  0  0  0
 32 33  1  0  0  0  0
M  END
>  <MODEL>
9

>  <REMARK>
 VINA RESULT:      -7.1      2.765      5.146
  Name = 
  5 active torsions:
  status: ('A' for Active; 'I' for Inactive)
    1  A    between atoms: C_1  and  C_23
    2  A    between atoms: N_2  and  C_31
    3  A    between atoms: C_5  and  O_12
    4  A    between atoms: C_8  and  N_20
    5  A    between atoms: C_16  and  C_19
                            x       y       z     vdW  Elec       q    Type
                         _______ _______ _______ _____ _____    ______ ____

>  <TORSDO>
F 5

$$$$
