=
 OpenBabel11062420233D

 53 58  0  0  1  0  0  0  0  0999 V2000
  191.3990  174.1210  141.7680 C   0  0  1  0  0  3  0  0  0  0  0  0
  191.9290  172.3830  138.4710 C   0  0  1  0  0  0  0  0  0  0  0  0
  197.3960  172.3380  142.2510 C   0  0  0  0  0  2  0  0  0  0  0  0
  191.4820  175.5310  141.9280 O   0  0  0  0  0  0  0  0  0  0  0  0
  191.3400  171.0940  138.6310 O   0  0  0  0  0  0  0  0  0  0  0  0
  189.9580  171.1390  138.3390 C   0  0  2  0  0  3  0  0  0  0  0  0
  192.6370  171.3230  141.6100 C   0  0  0  0  0  1  0  0  0  0  0  0
  193.3310  172.5550  141.0540 C   0  0  2  0  0  3  0  0  0  0  0  0
  196.0020  171.8850  145.6500 C   0  0  0  0  0  2  0  0  0  0  0  0
  191.0140  177.4400  143.1070 O   0  0  0  0  0  0  0  0  0  0  0  0
  193.8610  176.7960  146.8830 C   0  0  0  0  0  2  0  0  0  0  0  0
  191.8890  171.6220  135.8460 C   0  0  0  0  0  2  0  0  0  0  0  0
  193.7510  173.2720  136.7650 C   0  0  0  0  0  1  0  0  0  0  0  0
  191.4770  173.3120  139.5170 N   0  0  1  0  0  0  0  0  0  0  0  0
  194.3380  173.0630  142.0710 C   0  0  0  0  0  2  0  0  0  0  0  0
  191.5620  175.7520  145.4830 C   0  0  2  0  0  3  0  0  0  0  0  0
  189.8040  171.1520  136.8050 C   0  0  0  0  0  2  0  0  0  0  0  0
  190.6560  175.4120  144.3100 C   0  0  0  0  0  2  0  0  0  0  0  0
  194.0100  175.9710  145.8490 C   0  0  0  0  0  0  0  0  0  0  0  0
  189.2450  172.2800  139.1380 C   0  0  0  0  0  2  0  0  0  0  0  0
  190.9760  170.5930  136.2230 O   0  0  0  0  0  0  0  0  0  0  0  0
  195.1790  173.1450  145.4280 C   0  0  0  0  0  2  0  0  0  0  0  0
  192.4870  172.4740  137.0070 C   0  0  2  0  0  0  0  0  0  0  0  0
  191.4110  173.3390  137.3360 C   0  0  0  0  0  2  0  0  0  0  0  0
  197.1840  171.8470  144.6920 C   0  0  0  0  0  2  0  0  0  0  0  0
  191.0510  176.1820  143.0870 C   0  0  0  0  0  0  0  0  0  0  0  0
  189.9820  173.7410  141.2860 C   0  0  1  0  0  3  0  0  0  0  0  0
  192.9120  175.4220  145.1740 O   0  0  0  0  0  0  0  0  0  0  0  0
  190.2810  172.7850  140.1620 C   0  0  2  0  0  3  0  0  0  0  0  0
  196.7130  171.4690  143.2970 C   0  0  0  0  0  2  0  0  0  0  0  0
  196.8020  173.7460  142.2180 C   0  0  2  0  0  3  0  0  0  0  0  0
  192.3510  173.6730  140.6330 C   0  0  1  0  0  3  0  0  0  0  0  0
  191.1510  175.0380  146.6090 O   0  0  0  0  0  1  0  0  0  0  0  0
  195.3880  175.6370  145.3840 C   0  0  0  0  0  2  0  0  0  0  0  0
  195.5080  173.7710  141.3810 C   0  0  2  0  0  3  0  0  0  0  0  0
  195.8970  174.3500  146.0130 C   0  0  0  0  0  2  0  0  0  0  0  0
  197.9410  175.5950  142.6510 C   0  0  0  0  0  1  0  0  0  0  0  0
  197.7440  174.6190  141.6710 O   0  0  0  0  0  0  0  0  0  0  0  0
  195.5050  175.1330  139.5300 C   0  0  0  0  0  1  0  0  0  0  0  0
  195.1660  175.0550  140.8920 O   0  0  0  0  0  0  0  0  0  0  0  0
  189.1430  173.2170  142.2990 O   0  0  0  0  0  0  0  0  0  0  0  0
  187.8160  173.6390  142.0960 C   0  0  0  0  0  2  0  0  0  0  0  0
  187.8010  175.0690  141.5870 C   0  0  0  0  0  2  0  0  0  0  0  0
  187.3310  176.0080  142.6830 C   0  0  0  0  0  2  0  0  0  0  0  0
  187.6220  177.4510  142.3070 C   0  0  0  0  0  2  0  0  0  0  0  0
  186.4500  178.2860  142.5240 N   0  0  0  0  0  2  0  0  0  0  0  0
  185.3950  177.4350  142.8950 N   0  0  0  0  0  2  0  0  0  0  0  0
  186.1200  177.1730  147.4130 C   0  0  0  0  0  1  0  0  0  0  0  0
  186.0780  177.7790  146.0230 C   0  0  1  0  0  3  0  0  0  0  0  0
  185.1420  177.0910  145.2310 O   0  0  0  0  0  0  0  0  0  0  0  0
  185.6860  179.2330  146.1160 C   0  0  0  0  0  2  0  0  0  0  0  0
  185.2180  179.6840  144.4430 S   0  0  0  0  0  0  0  0  0  0  0  0
  184.8080  177.9280  144.1420 C   0  0  1  0  0  3  0  0  0  0  0  0
  1  4  1  6  0  0  0
  2 24  1  6  0  0  0
  2  5  1  0  0  0  0
  2 14  1  0  0  0  0
  3 30  1  0  0  0  0
  4 26  1  0  0  0  0
  6 17  1  6  0  0  0
  6  5  1  0  0  0  0
  6 20  1  0  0  0  0
  8  7  1  1  0  0  0
  8 15  1  0  0  0  0
 12 21  1  0  0  0  0
 12 23  1  0  0  0  0
 13 23  1  0  0  0  0
 14 29  1  0  0  0  0
 14 32  1  0  0  0  0
 16 33  1  0  0  0  0
 18 16  1  0  0  0  0
 19 11  2  0  0  0  0
 20 29  1  0  0  0  0
 21 17  1  0  0  0  0
 22  9  1  0  0  0  0
 22 36  1  0  0  0  0
 23 24  1  0  0  0  0
 23  2  1  0  0  0  0
 25  9  1  0  0  0  0
 26 10  2  0  0  0  0
 26 18  1  0  0  0  0
 27  1  1  0  0  0  0
 27 41  1  0  0  0  0
 28 16  1  0  0  0  0
 28 19  1  0  0  0  0
 29 27  1  0  0  0  0
 30 25  1  0  0  0  0
 31  3  1  0  0  0  0
 32  8  1  0  0  0  0
 32  1  1  0  0  0  0
 34 19  1  0  0  0  0
 34 36  1  0  0  0  0
 35 15  1  0  0  0  0
 35 31  1  0  0  0  0
 38 31  1  0  0  0  0
 38 37  1  0  0  0  0
 39 40  1  0  0  0  0
 40 35  1  0  0  0  0
 42 41  1  0  0  0  0
 43 42  1  0  0  0  0
 43 44  1  0  0  0  0
 45 46  1  0  0  0  0
 45 44  1  0  0  0  0
 46 47  1  0  0  0  0
 47 53  1  0  0  0  0
 49 51  1  0  0  0  0
 49 48  1  0  0  0  0
 50 49  1  0  0  0  0
 52 51  1  0  0  0  0
 53 52  1  0  0  0  0
 53 50  1  0  0  0  0
M  END
>  <MODEL>
1

>  <REMARK>
 VINA RESULT:      -7.8      0.000      0.000
  Name = 
  10 active torsions:
  status: ('A' for Active; 'I' for Inactive)
    1  A    between atoms: C_1  and  O_8
    2  A    between atoms: C_1  and  C_16
    3  A    between atoms: N_3  and  C_9
    4  A    between atoms: N_3  and  N_17
    5  A    between atoms: O_8  and  C_40
    6  A    between atoms: C_9  and  C_48
    7  A    between atoms: O_15  and  C_46
    8  A    between atoms: C_16  and  C_48
    9  A    between atoms: N_17  and  C_41
   10  A    between atoms: O_50  and  C_52
                            x       y       z     vdW  Elec       q    Type
                         _______ _______ _______ _____ _____    ______ ____

>  <TORSDO>
F 10

$$$$
=
 OpenBabel11062420233D

 53 58  0  0  1  0  0  0  0  0999 V2000
  190.7340  173.4310  142.6830 C   0  0  1  0  0  3  0  0  0  0  0  0
  190.9460  175.8270  145.5790 C   0  0  1  0  0  0  0  0  0  0  0  0
  196.6910  175.3580  142.2700 C   0  0  0  0  0  2  0  0  0  0  0  0
  190.8730  172.0240  142.8230 O   0  0  0  0  0  0  0  0  0  0  0  0
  190.3310  177.0270  145.1150 O   0  0  0  0  0  0  0  0  0  0  0  0
  188.9320  176.9770  145.3100 C   0  0  2  0  0  3  0  0  0  0  0  0
  191.8670  176.2580  142.3470 C   0  0  0  0  0  1  0  0  0  0  0  0
  192.5530  175.1990  143.1930 C   0  0  2  0  0  3  0  0  0  0  0  0
  195.5580  175.0440  138.7600 C   0  0  0  0  0  2  0  0  0  0  0  0
  190.5600  169.8950  142.0330 O   0  0  0  0  0  0  0  0  0  0  0  0
  193.6760  169.8900  138.4180 C   0  0  0  0  0  2  0  0  0  0  0  0
  190.6730  177.1030  147.9800 C   0  0  0  0  0  2  0  0  0  0  0  0
  192.6540  175.3900  147.5570 C   0  0  0  0  0  1  0  0  0  0  0  0
  190.6070  174.6840  144.7180 N   0  0  1  0  0  0  0  0  0  0  0  0
  193.6520  174.5420  142.3770 C   0  0  0  0  0  2  0  0  0  0  0  0
  191.2420  171.0880  139.4050 C   0  0  2  0  0  3  0  0  0  0  0  0
  188.6570  177.2700  146.7990 C   0  0  0  0  0  2  0  0  0  0  0  0
  190.2350  171.6160  140.4150 C   0  0  0  0  0  2  0  0  0  0  0  0
  193.7170  170.9140  139.2670 C   0  0  0  0  0  0  0  0  0  0  0  0
  188.3210  175.6650  144.7160 C   0  0  0  0  0  2  0  0  0  0  0  0
  189.7620  177.9890  147.3350 O   0  0  0  0  0  0  0  0  0  0  0  0
  194.7600  173.8190  139.1780 C   0  0  0  0  0  2  0  0  0  0  0  0
  191.3880  176.0620  147.0660 C   0  0  2  0  0  0  0  0  0  0  0  0
  190.3700  175.0980  146.8460 C   0  0  0  0  0  2  0  0  0  0  0  0
  196.6580  175.3320  139.7720 C   0  0  0  0  0  2  0  0  0  0  0  0
  190.5560  171.1310  141.7960 C   0  0  0  0  0  0  0  0  0  0  0  0
  189.2720  173.8340  142.9740 C   0  0  1  0  0  3  0  0  0  0  0  0
  192.5520  171.5370  139.7350 O   0  0  0  0  0  0  0  0  0  0  0  0
  189.4510  175.0110  143.8940 C   0  0  2  0  0  3  0  0  0  0  0  0
  196.0670  175.9630  141.0210 C   0  0  0  0  0  2  0  0  0  0  0  0
  196.1410  173.9610  142.5500 C   0  0  2  0  0  3  0  0  0  0  0  0
  191.5780  174.1450  143.7660 C   0  0  1  0  0  3  0  0  0  0  0  0
  190.8990  171.5370  138.1290 O   0  0  0  0  0  1  0  0  0  0  0  0
  195.0420  171.4000  139.7500 C   0  0  0  0  0  2  0  0  0  0  0  0
  194.7860  174.0460  143.2800 C   0  0  2  0  0  3  0  0  0  0  0  0
  195.5590  172.5550  138.9070 C   0  0  0  0  0  2  0  0  0  0  0  0
  197.7800  174.2500  144.0110 C   0  0  0  0  0  1  0  0  0  0  0  0
  197.0640  173.2620  143.3320 O   0  0  0  0  0  0  0  0  0  0  0  0
  194.5710  173.1260  145.3750 C   0  0  0  0  0  1  0  0  0  0  0  0
  194.4460  172.8730  143.9980 O   0  0  0  0  0  0  0  0  0  0  0  0
  188.5000  174.1020  141.8170 O   0  0  0  0  0  0  0  0  0  0  0  0
  188.6850  175.4350  141.4080 C   0  0  0  0  0  2  0  0  0  0  0  0
  187.6700  175.7940  140.3390 C   0  0  0  0  0  2  0  0  0  0  0  0
  187.0740  177.1620  140.6230 C   0  0  0  0  0  2  0  0  0  0  0  0
  187.9120  177.9000  141.6540 C   0  0  0  0  0  2  0  0  0  0  0  0
  187.0590  178.6410  142.5730 N   0  0  0  0  0  2  0  0  0  0  0  0
  185.7300  178.4300  142.1700 N   0  0  0  0  0  2  0  0  0  0  0  0
  184.9240  176.7950  146.3750 C   0  0  0  0  0  1  0  0  0  0  0  0
  185.4130  177.7470  145.3020 C   0  0  1  0  0  3  0  0  0  0  0  0
  184.6960  177.5340  144.1110 O   0  0  0  0  0  0  0  0  0  0  0  0
  185.2130  179.1720  145.7580 C   0  0  0  0  0  2  0  0  0  0  0  0
  185.3730  180.1540  144.2650 S   0  0  0  0  0  0  0  0  0  0  0  0
  184.8460  178.6870  143.3080 C   0  0  1  0  0  3  0  0  0  0  0  0
  1  4  1  1  0  0  0
  1 27  1  0  0  0  0
  1 32  1  0  0  0  0
  2 24  1  1  0  0  0
  2 23  1  0  0  0  0
  3 31  1  0  0  0  0
  5  6  1  0  0  0  0
  5  2  1  0  0  0  0
  6 20  1  1  0  0  0
  6 17  1  0  0  0  0
  8  7  1  6  0  0  0
  8 32  1  0  0  0  0
  9 22  1  0  0  0  0
  9 25  1  0  0  0  0
 11 19  2  0  0  0  0
 14  2  1  0  0  0  0
 15  8  1  0  0  0  0
 15 35  1  0  0  0  0
 16 28  1  0  0  0  0
 16 18  1  0  0  0  0
 17 21  1  0  0  0  0
 18 26  1  0  0  0  0
 19 28  1  0  0  0  0
 19 34  1  0  0  0  0
 21 12  1  0  0  0  0
 23 13  1  0  0  0  0
 23 12  1  0  0  0  0
 24 23  1  0  0  0  0
 25 30  1  0  0  0  0
 26 10  2  0  0  0  0
 26  4  1  0  0  0  0
 27 29  1  0  0  0  0
 29 20  1  0  0  0  0
 29 14  1  0  0  0  0
 30  3  1  0  0  0  0
 31 35  1  0  0  0  0
 31 38  1  0  0  0  0
 32 14  1  0  0  0  0
 33 16  1  0  0  0  0
 35 40  1  0  0  0  0
 36 22  1  0  0  0  0
 36 34  1  0  0  0  0
 38 37  1  0  0  0  0
 40 39  1  0  0  0  0
 41 27  1  0  0  0  0
 42 41  1  0  0  0  0
 43 44  1  0  0  0  0
 43 42  1  0  0  0  0
 44 45  1  0  0  0  0
 45 46  1  0  0  0  0
 47 46  1  0  0  0  0
 47 53  1  0  0  0  0
 49 51  1  0  0  0  0
 49 48  1  0  0  0  0
 50 49  1  0  0  0  0
 52 51  1  0  0  0  0
 53 50  1  0  0  0  0
 53 52  1  0  0  0  0
M  END
>  <MODEL>
2

>  <REMARK>
 VINA RESULT:      -7.4      2.099      6.253
  Name = 
  10 active torsions:
  status: ('A' for Active; 'I' for Inactive)
    1  A    between atoms: C_1  and  O_8
    2  A    between atoms: C_1  and  C_16
    3  A    between atoms: N_3  and  C_9
    4  A    between atoms: N_3  and  N_17
    5  A    between atoms: O_8  and  C_40
    6  A    between atoms: C_9  and  C_48
    7  A    between atoms: O_15  and  C_46
    8  A    between atoms: C_16  and  C_48
    9  A    between atoms: N_17  and  C_41
   10  A    between atoms: O_50  and  C_52
                            x       y       z     vdW  Elec       q    Type
                         _______ _______ _______ _____ _____    ______ ____

>  <TORSDO>
F 10

$$$$
=
 OpenBabel11062420233D

 53 58  0  0  1  0  0  0  0  0999 V2000
  191.7060  171.9910  143.1660 C   0  0  1  0  0  3  0  0  0  0  0  0
  192.0950  175.0650  145.3040 C   0  0  1  0  0  0  0  0  0  0  0  0
  195.9760  175.2390  139.9110 C   0  0  0  0  0  2  0  0  0  0  0  0
  192.3810  170.7680  143.4280 O   0  0  0  0  0  0  0  0  0  0  0  0
  190.9670  175.8800  144.9930 O   0  0  0  0  0  0  0  0  0  0  0  0
  189.8560  175.5160  145.7880 C   0  0  2  0  0  3  0  0  0  0  0  0
  191.5430  174.8070  141.9710 C   0  0  0  0  0  1  0  0  0  0  0  0
  192.8220  174.2480  142.5700 C   0  0  2  0  0  3  0  0  0  0  0  0
  193.8260  173.6700  137.3400 C   0  0  0  0  0  2  0  0  0  0  0  0
  192.5850  168.5000  143.1650 O   0  0  0  0  0  0  0  0  0  0  0  0
  193.9310  168.3180  138.5900 C   0  0  0  0  0  2  0  0  0  0  0  0
  192.2880  176.8390  147.3740 C   0  0  0  0  0  2  0  0  0  0  0  0
  194.4450  175.6660  146.3710 C   0  0  0  0  0  1  0  0  0  0  0  0
  191.8970  173.6810  144.8500 N   0  0  1  0  0  0  0  0  0  0  0  0
  193.7010  173.7070  141.4560 C   0  0  0  0  0  2  0  0  0  0  0  0
  191.7760  169.0510  140.3650 C   0  0  2  0  0  3  0  0  0  0  0  0
  190.0630  176.1280  147.1880 C   0  0  0  0  0  2  0  0  0  0  0  0
  191.0950  169.5520  141.6290 C   0  0  0  0  0  2  0  0  0  0  0  0
  193.9120  169.5100  139.1810 C   0  0  0  0  0  0  0  0  0  0  0  0
  189.5830  173.9780  145.7140 C   0  0  0  0  0  2  0  0  0  0  0  0
  190.9500  177.2350  147.0770 O   0  0  0  0  0  0  0  0  0  0  0  0
  193.7330  172.4440  138.2340 C   0  0  0  0  0  2  0  0  0  0  0  0
  192.9380  175.8140  146.3960 C   0  0  2  0  0  0  0  0  0  0  0  0
  192.3280  174.5920  146.7840 C   0  0  0  0  0  2  0  0  0  0  0  0
  195.0390  174.5100  137.7130 C   0  0  0  0  0  2  0  0  0  0  0  0
  192.0510  169.5740  142.7810 C   0  0  0  0  0  0  0  0  0  0  0  0
  190.4140  172.0550  144.0090 C   0  0  1  0  0  3  0  0  0  0  0  0
  192.8610  169.9060  140.0190 O   0  0  0  0  0  0  0  0  0  0  0  0
  190.4850  173.4460  144.5810 C   0  0  2  0  0  3  0  0  0  0  0  0
  194.7650  175.2830  138.9920 C   0  0  0  0  0  2  0  0  0  0  0  0
  196.1080  173.8800  140.5990 C   0  0  2  0  0  3  0  0  0  0  0  0
  192.5740  173.1760  143.6550 C   0  0  1  0  0  3  0  0  0  0  0  0
  190.8520  169.0190  139.3210 O   0  0  0  0  0  1  0  0  0  0  0  0
  195.0520  170.4460  138.9580 C   0  0  0  0  0  2  0  0  0  0  0  0
  195.1830  173.8020  141.8300 C   0  0  2  0  0  3  0  0  0  0  0  0
  194.7720  171.4140  137.8200 C   0  0  0  0  0  2  0  0  0  0  0  0
  197.9410  172.7410  140.1020 C   0  0  0  0  0  1  0  0  0  0  0  0
  197.4380  173.6980  140.9860 O   0  0  0  0  0  0  0  0  0  0  0  0
  196.1600  173.4760  143.8840 C   0  0  0  0  0  1  0  0  0  0  0  0
  195.5760  172.8290  142.7810 O   0  0  0  0  0  0  0  0  0  0  0  0
  189.2310  171.7750  143.2840 O   0  0  0  0  0  0  0  0  0  0  0  0
  189.2040  172.5210  142.0910 C   0  0  0  0  0  2  0  0  0  0  0  0
  187.8740  173.2400  141.9600 C   0  0  0  0  0  2  0  0  0  0  0  0
  188.0950  174.6620  141.4730 C   0  0  0  0  0  2  0  0  0  0  0  0
  187.8580  175.6510  142.6010 C   0  0  0  0  0  2  0  0  0  0  0  0
  186.4360  175.9120  142.7650 N   0  0  0  0  0  2  0  0  0  0  0  0
  186.2690  177.3060  142.8080 N   0  0  0  0  0  2  0  0  0  0  0  0
  186.2610  176.9810  147.3790 C   0  0  0  0  0  1  0  0  0  0  0  0
  186.3500  177.6290  146.0110 C   0  0  1  0  0  3  0  0  0  0  0  0
  185.6910  176.8290  145.0610 O   0  0  0  0  0  0  0  0  0  0  0  0
  185.7060  178.9930  146.0520 C   0  0  0  0  0  2  0  0  0  0  0  0
  185.4540  179.4290  144.3300 S   0  0  0  0  0  0  0  0  0  0  0  0
  185.4060  177.6430  143.9410 C   0  0  1  0  0  3  0  0  0  0  0  0
  1  4  1  1  0  0  0
  1 32  1  0  0  0  0
  1 27  1  0  0  0  0
  2 23  1  0  0  0  0
  2 24  1  1  0  0  0
  3 31  1  0  0  0  0
  5  2  1  0  0  0  0
  5  6  1  0  0  0  0
  6 20  1  1  0  0  0
  6 17  1  0  0  0  0
  8  7  1  6  0  0  0
  8 32  1  0  0  0  0
  9 25  1  0  0  0  0
  9 22  1  0  0  0  0
 11 19  2  0  0  0  0
 13 23  1  0  0  0  0
 14  2  1  0  0  0  0
 15 35  1  0  0  0  0
 15  8  1  0  0  0  0
 16 18  1  0  0  0  0
 18 26  1  0  0  0  0
 19 28  1  0  0  0  0
 21 17  1  0  0  0  0
 21 12  1  0  0  0  0
 23 24  1  0  0  0  0
 23 12  1  0  0  0  0
 25 30  1  0  0  0  0
 26 10  2  0  0  0  0
 26  4  1  0  0  0  0
 27 29  1  0  0  0  0
 28 16  1  0  0  0  0
 29 14  1  0  0  0  0
 29 20  1  0  0  0  0
 30  3  1  0  0  0  0
 31 38  1  0  0  0  0
 31 35  1  0  0  0  0
 32 14  1  0  0  0  0
 33 16  1  0  0  0  0
 34 19  1  0  0  0  0
 35 40  1  0  0  0  0
 36 22  1  0  0  0  0
 36 34  1  0  0  0  0
 37 38  1  0  0  0  0
 40 39  1  0  0  0  0
 41 27  1  0  0  0  0
 42 41  1  0  0  0  0
 43 42  1  0  0  0  0
 44 43  1  0  0  0  0
 44 45  1  0  0  0  0
 45 46  1  0  0  0  0
 46 47  1  0  0  0  0
 47 53  1  0  0  0  0
 49 51  1  0  0  0  0
 49 48  1  0  0  0  0
 50 49  1  0  0  0  0
 52 51  1  0  0  0  0
 53 52  1  0  0  0  0
 53 50  1  0  0  0  0
M  END
>  <MODEL>
3

>  <REMARK>
 VINA RESULT:      -7.3      2.176      6.416
  Name = 
  10 active torsions:
  status: ('A' for Active; 'I' for Inactive)
    1  A    between atoms: C_1  and  O_8
    2  A    between atoms: C_1  and  C_16
    3  A    between atoms: N_3  and  C_9
    4  A    between atoms: N_3  and  N_17
    5  A    between atoms: O_8  and  C_40
    6  A    between atoms: C_9  and  C_48
    7  A    between atoms: O_15  and  C_46
    8  A    between atoms: C_16  and  C_48
    9  A    between atoms: N_17  and  C_41
   10  A    between atoms: O_50  and  C_52
                            x       y       z     vdW  Elec       q    Type
                         _______ _______ _______ _____ _____    ______ ____

>  <TORSDO>
F 10

$$$$
=
 OpenBabel11062420233D

 53 58  0  0  1  0  0  0  0  0999 V2000
  191.7170  172.4240  143.6740 C   0  0  1  0  0  3  0  0  0  0  0  0
  191.3290  175.6130  145.6370 C   0  0  1  0  0  0  0  0  0  0  0  0
  196.3990  175.8940  141.3480 C   0  0  0  0  0  2  0  0  0  0  0  0
  192.3970  171.2800  144.1720 O   0  0  0  0  0  0  0  0  0  0  0  0
  190.2540  176.3080  145.0080 O   0  0  0  0  0  0  0  0  0  0  0  0
  189.0120  175.8820  145.5320 C   0  0  2  0  0  3  0  0  0  0  0  0
  191.6390  175.1580  142.2940 C   0  0  0  0  0  1  0  0  0  0  0  0
  192.7700  174.7430  143.2210 C   0  0  2  0  0  3  0  0  0  0  0  0
  195.0780  174.0250  138.4400 C   0  0  0  0  0  2  0  0  0  0  0  0
  192.8330  169.0300  144.1150 O   0  0  0  0  0  0  0  0  0  0  0  0
  195.2780  168.7660  140.0250 C   0  0  0  0  0  2  0  0  0  0  0  0
  190.8670  177.4870  147.5720 C   0  0  0  0  0  2  0  0  0  0  0  0
  193.2890  176.4700  147.2000 C   0  0  0  0  0  1  0  0  0  0  0  0
  191.3560  174.1970  145.2400 N   0  0  1  0  0  0  0  0  0  0  0  0
  193.9360  174.2350  142.3920 C   0  0  0  0  0  2  0  0  0  0  0  0
  192.7020  169.3810  141.1730 C   0  0  2  0  0  3  0  0  0  0  0  0
  188.8190  176.5720  146.8980 C   0  0  0  0  0  2  0  0  0  0  0  0
  191.6930  169.8740  142.1980 C   0  0  0  0  0  2  0  0  0  0  0  0
  195.0220  169.9770  140.5150 C   0  0  0  0  0  0  0  0  0  0  0  0
  188.8840  174.3230  145.4950 C   0  0  0  0  0  2  0  0  0  0  0  0
  189.6190  177.7470  146.9330 O   0  0  0  0  0  0  0  0  0  0  0  0
  194.8610  172.8370  139.3630 C   0  0  0  0  0  2  0  0  0  0  0  0
  191.8150  176.4820  146.8500 C   0  0  2  0  0  0  0  0  0  0  0  0
  191.2240  175.2290  147.1570 C   0  0  0  0  0  2  0  0  0  0  0  0
  196.0930  174.9870  139.0410 C   0  0  0  0  0  2  0  0  0  0  0  0
  192.3300  170.0330  143.5440 C   0  0  0  0  0  0  0  0  0  0  0  0
  190.2560  172.4090  144.1720 C   0  0  1  0  0  3  0  0  0  0  0  0
  193.7700  170.3130  141.0450 O   0  0  0  0  0  0  0  0  0  0  0  0
  190.0760  173.8240  144.6520 C   0  0  2  0  0  3  0  0  0  0  0  0
  195.4530  175.7880  140.1620 C   0  0  0  0  0  2  0  0  0  0  0  0
  196.4590  174.5850  142.1350 C   0  0  2  0  0  3  0  0  0  0  0  0
  192.3440  173.7030  144.2810 C   0  0  1  0  0  3  0  0  0  0  0  0
  192.0700  169.2190  139.9390 O   0  0  0  0  0  1  0  0  0  0  0  0
  196.1080  171.0000  140.5150 C   0  0  0  0  0  2  0  0  0  0  0  0
  195.2680  174.4790  143.1070 C   0  0  2  0  0  3  0  0  0  0  0  0
  196.0450  171.8870  139.2830 C   0  0  0  0  0  2  0  0  0  0  0  0
  197.9410  175.8730  143.1600 C   0  0  0  0  0  1  0  0  0  0  0  0
  197.6620  174.5410  142.8440 O   0  0  0  0  0  0  0  0  0  0  0  0
  195.6100  174.3310  145.3740 C   0  0  0  0  0  1  0  0  0  0  0  0
  195.4860  173.5890  144.1870 O   0  0  0  0  0  0  0  0  0  0  0  0
  189.3130  171.9910  143.2010 O   0  0  0  0  0  0  0  0  0  0  0  0
  189.4890  172.7190  142.0100 C   0  0  0  0  0  2  0  0  0  0  0  0
  188.1410  172.9950  141.3690 C   0  0  0  0  0  2  0  0  0  0  0  0
  187.4350  174.1210  142.1040 C   0  0  0  0  0  2  0  0  0  0  0  0
  188.0630  175.4590  141.7520 C   0  0  0  0  0  2  0  0  0  0  0  0
  187.1660  176.5530  142.0940 N   0  0  0  0  0  2  0  0  0  0  0  0
  186.3410  176.1040  143.1390 N   0  0  0  0  0  2  0  0  0  0  0  0
  185.5840  179.0420  146.5740 C   0  0  0  0  0  1  0  0  0  0  0  0
  186.0090  178.5540  145.2030 C   0  0  1  0  0  3  0  0  0  0  0  0
  185.3460  177.3530  144.8970 O   0  0  0  0  0  0  0  0  0  0  0  0
  185.6660  179.5940  144.1650 C   0  0  0  0  0  2  0  0  0  0  0  0
  185.7710  178.7250  142.5980 S   0  0  0  0  0  0  0  0  0  0  0  0
  185.4080  177.1740  143.4960 C   0  0  1  0  0  3  0  0  0  0  0  0
  1 27  1  0  0  0  0
  1  4  1  1  0  0  0
  1 32  1  0  0  0  0
  2 23  1  0  0  0  0
  2 24  1  1  0  0  0
  3 31  1  0  0  0  0
  5  6  1  0  0  0  0
  5  2  1  0  0  0  0
  6 20  1  1  0  0  0
  6 17  1  0  0  0  0
  8  7  1  6  0  0  0
  8 32  1  0  0  0  0
  9 25  1  0  0  0  0
  9 22  1  0  0  0  0
 11 19  2  0  0  0  0
 14  2  1  0  0  0  0
 15 35  1  0  0  0  0
 15  8  1  0  0  0  0
 16 18  1  0  0  0  0
 17 21  1  0  0  0  0
 18 26  1  0  0  0  0
 19 34  1  0  0  0  0
 19 28  1  0  0  0  0
 21 12  1  0  0  0  0
 23 24  1  0  0  0  0
 23 13  1  0  0  0  0
 23 12  1  0  0  0  0
 25 30  1  0  0  0  0
 26 10  2  0  0  0  0
 26  4  1  0  0  0  0
 27 29  1  0  0  0  0
 28 16  1  0  0  0  0
 29 14  1  0  0  0  0
 29 20  1  0  0  0  0
 30  3  1  0  0  0  0
 31 38  1  0  0  0  0
 31 35  1  0  0  0  0
 32 14  1  0  0  0  0
 33 16  1  0  0  0  0
 35 40  1  0  0  0  0
 36 22  1  0  0  0  0
 36 34  1  0  0  0  0
 38 37  1  0  0  0  0
 40 39  1  0  0  0  0
 41 27  1  0  0  0  0
 42 41  1  0  0  0  0
 43 42  1  0  0  0  0
 43 44  1  0  0  0  0
 45 46  1  0  0  0  0
 45 44  1  0  0  0  0
 46 47  1  0  0  0  0
 47 53  1  0  0  0  0
 49 48  1  0  0  0  0
 50 49  1  0  0  0  0
 51 49  1  0  0  0  0
 52 53  1  0  0  0  0
 52 51  1  0  0  0  0
 53 50  1  0  0  0  0
M  END
>  <MODEL>
4

>  <REMARK>
 VINA RESULT:      -7.2      2.405      6.266
  Name = 
  10 active torsions:
  status: ('A' for Active; 'I' for Inactive)
    1  A    between atoms: C_1  and  O_8
    2  A    between atoms: C_1  and  C_16
    3  A    between atoms: N_3  and  C_9
    4  A    between atoms: N_3  and  N_17
    5  A    between atoms: O_8  and  C_40
    6  A    between atoms: C_9  and  C_48
    7  A    between atoms: O_15  and  C_46
    8  A    between atoms: C_16  and  C_48
    9  A    between atoms: N_17  and  C_41
   10  A    between atoms: O_50  and  C_52
                            x       y       z     vdW  Elec       q    Type
                         _______ _______ _______ _____ _____    ______ ____

>  <TORSDO>
F 10

$$$$
=
 OpenBabel11062420233D

 53 58  0  0  1  0  0  0  0  0999 V2000
  192.2640  175.6510  142.8720 C   0  0  1  0  0  3  0  0  0  0  0  0
  188.5840  176.2300  142.3270 C   0  0  1  0  0  0  0  0  0  0  0  0
  190.4560  170.0980  140.5760 C   0  0  0  0  0  2  0  0  0  0  0  0
  193.2620  176.0580  141.9470 O   0  0  0  0  0  0  0  0  0  0  0  0
  187.9910  176.0980  143.6180 O   0  0  0  0  0  0  0  0  0  0  0  0
  188.0410  177.3260  144.3160 C   0  0  2  0  0  3  0  0  0  0  0  0
  190.1580  173.6840  143.9140 C   0  0  0  0  0  1  0  0  0  0  0  0
  190.3980  173.9130  142.4310 C   0  0  2  0  0  3  0  0  0  0  0  0
  192.9760  169.2740  143.1590 C   0  0  0  0  0  2  0  0  0  0  0  0
  195.4420  176.5680  141.4530 O   0  0  0  0  0  0  0  0  0  0  0  0
  197.3870  172.2180  141.7120 C   0  0  0  0  0  2  0  0  0  0  0  0
  186.1290  177.2910  141.7620 C   0  0  0  0  0  2  0  0  0  0  0  0
  187.5430  176.0400  139.8990 C   0  0  0  0  0  1  0  0  0  0  0  0
  190.0400  176.4120  142.4230 N   0  0  1  0  0  0  0  0  0  0  0  0
  191.3120  172.8240  141.8980 C   0  0  0  0  0  2  0  0  0  0  0  0
  196.0700  174.2850  143.2380 C   0  0  2  0  0  3  0  0  0  0  0  0
  186.9180  178.2250  143.7600 C   0  0  0  0  0  2  0  0  0  0  0  0
  195.1280  175.4420  143.5310 C   0  0  0  0  0  2  0  0  0  0  0  0
  196.0590  172.3040  141.7390 C   0  0  0  0  0  0  0  0  0  0  0  0
  189.4890  177.9160  144.3270 C   0  0  0  0  0  2  0  0  0  0  0  0
  185.9220  177.3990  143.1690 O   0  0  0  0  0  0  0  0  0  0  0  0
  193.7490  170.5110  142.7310 C   0  0  0  0  0  2  0  0  0  0  0  0
  187.4400  176.5770  141.3110 C   0  0  2  0  0  0  0  0  0  0  0  0
  188.4240  177.5760  141.5330 C   0  0  0  0  0  2  0  0  0  0  0  0
  192.0240  168.8340  142.0560 C   0  0  0  0  0  2  0  0  0  0  0  0
  194.6240  176.0580  142.2620 C   0  0  0  0  0  0  0  0  0  0  0  0
  191.9060  176.8350  143.7960 C   0  0  1  0  0  3  0  0  0  0  0  0
  195.3930  173.2740  142.4980 O   0  0  0  0  0  0  0  0  0  0  0  0
  190.4020  176.7990  143.7800 C   0  0  2  0  0  3  0  0  0  0  0  0
  190.8140  169.7540  142.0140 C   0  0  0  0  0  2  0  0  0  0  0  0
  191.4260  171.1220  139.9880 C   0  0  2  0  0  3  0  0  0  0  0  0
  190.9580  175.3170  142.1110 C   0  0  1  0  0  3  0  0  0  0  0  0
  196.5400  173.7530  144.4390 O   0  0  0  0  0  1  0  0  0  0  0  0
  195.2580  171.3480  140.9200 C   0  0  0  0  0  2  0  0  0  0  0  0
  191.0350  172.5500  140.4160 C   0  0  2  0  0  3  0  0  0  0  0  0
  194.8290  170.1350  141.7290 C   0  0  0  0  0  2  0  0  0  0  0  0
  190.1100  170.5810  138.2900 C   0  0  0  0  0  1  0  0  0  0  0  0
  191.4020  171.0160  138.5950 O   0  0  0  0  0  0  0  0  0  0  0  0
  192.9410  173.5890  139.6630 C   0  0  0  0  0  1  0  0  0  0  0  0
  191.5390  173.5630  139.5640 O   0  0  0  0  0  0  0  0  0  0  0  0
  192.4840  176.7630  145.0870 O   0  0  0  0  0  0  0  0  0  0  0  0
  192.0990  175.5680  145.7240 C   0  0  0  0  0  2  0  0  0  0  0  0
  191.8900  175.8180  147.2070 C   0  0  0  0  0  2  0  0  0  0  0  0
  190.4350  176.1610  147.4770 C   0  0  0  0  0  2  0  0  0  0  0  0
  189.5420  174.9760  147.1480 C   0  0  0  0  0  2  0  0  0  0  0  0
  188.2040  175.1770  147.6870 N   0  0  0  0  0  2  0  0  0  0  0  0
  187.5270  176.0400  146.8100 N   0  0  0  0  0  2  0  0  0  0  0  0
  186.3110  180.2450  148.1650 C   0  0  0  0  0  1  0  0  0  0  0  0
  186.2870  178.9610  147.3590 C   0  0  1  0  0  3  0  0  0  0  0  0
  186.8730  177.9210  148.1030 O   0  0  0  0  0  0  0  0  0  0  0  0
  184.8610  178.5970  147.0260 C   0  0  0  0  0  2  0  0  0  0  0  0
  184.9390  176.8780  146.5160 S   0  0  0  0  0  0  0  0  0  0  0  0
  186.4430  176.6980  147.5400 C   0  0  1  0  0  3  0  0  0  0  0  0
  1  4  1  6  0  0  0
  1 27  1  0  0  0  0
  2 24  1  1  0  0  0
  2 14  1  0  0  0  0
  2  5  1  0  0  0  0
  3 30  1  0  0  0  0
  4 26  1  0  0  0  0
  5  6  1  0  0  0  0
  6 17  1  6  0  0  0
  6 20  1  0  0  0  0
  8  7  1  1  0  0  0
 10 26  2  0  0  0  0
 11 19  2  0  0  0  0
 12 21  1  0  0  0  0
 13 23  1  0  0  0  0
 14 29  1  0  0  0  0
 15  8  1  0  0  0  0
 16 18  1  0  0  0  0
 16 33  1  0  0  0  0
 19 28  1  0  0  0  0
 21 17  1  0  0  0  0
 22  9  1  0  0  0  0
 23 24  1  0  0  0  0
 23 12  1  0  0  0  0
 23  2  1  0  0  0  0
 25  9  1  0  0  0  0
 26 18  1  0  0  0  0
 27 41  1  0  0  0  0
 28 16  1  0  0  0  0
 29 27  1  0  0  0  0
 29 20  1  0  0  0  0
 30 25  1  0  0  0  0
 31 35  1  0  0  0  0
 31  3  1  0  0  0  0
 32 14  1  0  0  0  0
 32  8  1  0  0  0  0
 32  1  1  0  0  0  0
 34 36  1  0  0  0  0
 34 19  1  0  0  0  0
 35 15  1  0  0  0  0
 36 22  1  0  0  0  0
 37 38  1  0  0  0  0
 38 31  1  0  0  0  0
 40 39  1  0  0  0  0
 40 35  1  0  0  0  0
 41 42  1  0  0  0  0
 42 43  1  0  0  0  0
 43 44  1  0  0  0  0
 45 44  1  0  0  0  0
 45 46  1  0  0  0  0
 47 53  1  0  0  0  0
 47 46  1  0  0  0  0
 49 50  1  0  0  0  0
 49 48  1  0  0  0  0
 51 49  1  0  0  0  0
 52 51  1  0  0  0  0
 52 53  1  0  0  0  0
 53 50  1  0  0  0  0
M  END
>  <MODEL>
5

>  <REMARK>
 VINA RESULT:      -7.0      2.304      5.970
  Name = 
  10 active torsions:
  status: ('A' for Active; 'I' for Inactive)
    1  A    between atoms: C_1  and  O_8
    2  A    between atoms: C_1  and  C_16
    3  A    between atoms: N_3  and  C_9
    4  A    between atoms: N_3  and  N_17
    5  A    between atoms: O_8  and  C_40
    6  A    between atoms: C_9  and  C_48
    7  A    between atoms: O_15  and  C_46
    8  A    between atoms: C_16  and  C_48
    9  A    between atoms: N_17  and  C_41
   10  A    between atoms: O_50  and  C_52
                            x       y       z     vdW  Elec       q    Type
                         _______ _______ _______ _____ _____    ______ ____

>  <TORSDO>
F 10

$$$$
=
 OpenBabel11062420233D

 53 58  0  0  1  0  0  0  0  0999 V2000
  192.6110  175.0040  142.2780 C   0  0  1  0  0  3  0  0  0  0  0  0
  188.9200  175.6700  142.5970 C   0  0  1  0  0  0  0  0  0  0  0  0
  190.1960  170.1910  139.0570 C   0  0  0  0  0  2  0  0  0  0  0  0
  193.4370  175.6390  141.3120 O   0  0  0  0  0  0  0  0  0  0  0  0
  188.5700  175.2130  143.9020 O   0  0  0  0  0  0  0  0  0  0  0  0
  188.7960  176.2260  144.8610 C   0  0  2  0  0  3  0  0  0  0  0  0
  190.6590  172.8200  143.1760 C   0  0  0  0  0  1  0  0  0  0  0  0
  190.6300  173.4170  141.7790 C   0  0  2  0  0  3  0  0  0  0  0  0
  193.1150  168.7660  140.8320 C   0  0  0  0  0  2  0  0  0  0  0  0
  195.5070  176.2760  140.5590 O   0  0  0  0  0  0  0  0  0  0  0  0
  197.2950  172.0170  139.3590 C   0  0  0  0  0  2  0  0  0  0  0  0
  186.4460  176.8180  142.7850 C   0  0  0  0  0  2  0  0  0  0  0  0
  187.4420  176.0870  140.4380 C   0  0  0  0  0  1  0  0  0  0  0  0
  190.3740  175.8350  142.4590 N   0  0  1  0  0  0  0  0  0  0  0  0
  191.3860  172.5050  140.8290 C   0  0  0  0  0  2  0  0  0  0  0  0
  196.3630  173.6230  141.5700 C   0  0  2  0  0  3  0  0  0  0  0  0
  187.6260  177.2270  144.7670 C   0  0  0  0  0  2  0  0  0  0  0  0
  195.5380  174.6610  142.3130 C   0  0  0  0  0  2  0  0  0  0  0  0
  195.9990  172.0820  139.6550 C   0  0  0  0  0  0  0  0  0  0  0  0
  190.2430  176.8080  144.7450 C   0  0  0  0  0  2  0  0  0  0  0  0
  186.5060  176.5670  144.1870 O   0  0  0  0  0  0  0  0  0  0  0  0
  193.8430  170.0780  140.5880 C   0  0  0  0  0  2  0  0  0  0  0  0
  187.6220  176.2520  141.9320 C   0  0  2  0  0  0  0  0  0  0  0  0
  188.6680  177.1710  142.2060 C   0  0  0  0  0  2  0  0  0  0  0  0
  191.9590  168.6100  139.8550 C   0  0  0  0  0  2  0  0  0  0  0  0
  194.8330  175.5720  141.3550 C   0  0  0  0  0  0  0  0  0  0  0  0
  192.4770  175.9150  143.5170 C   0  0  1  0  0  3  0  0  0  0  0  0
  195.5230  172.8250  140.7430 O   0  0  0  0  0  0  0  0  0  0  0  0
  190.9950  175.8720  143.7760 C   0  0  2  0  0  3  0  0  0  0  0  0
  190.7990  169.5000  140.2710 C   0  0  0  0  0  2  0  0  0  0  0  0
  191.0800  171.3380  138.5700 C   0  0  2  0  0  3  0  0  0  0  0  0
  191.1760  174.8610  141.7170 C   0  0  1  0  0  3  0  0  0  0  0  0
  197.0260  172.8100  142.4910 O   0  0  0  0  0  1  0  0  0  0  0  0
  195.0240  171.3560  138.7910 C   0  0  0  0  0  2  0  0  0  0  0  0
  190.8310  172.6100  139.4060 C   0  0  2  0  0  3  0  0  0  0  0  0
  194.7040  169.9750  139.3390 C   0  0  0  0  0  2  0  0  0  0  0  0
  190.1050  170.4520  136.7900 C   0  0  0  0  0  1  0  0  0  0  0  0
  190.7950  171.5860  137.2250 O   0  0  0  0  0  0  0  0  0  0  0  0
  192.6040  173.8210  138.5900 C   0  0  0  0  0  1  0  0  0  0  0  0
  191.2080  173.8080  138.7530 O   0  0  0  0  0  0  0  0  0  0  0  0
  193.2800  175.5260  144.6170 O   0  0  0  0  0  0  0  0  0  0  0  0
  193.9850  176.6350  145.1190 C   0  0  0  0  0  2  0  0  0  0  0  0
  195.2880  176.1780  145.7490 C   0  0  0  0  0  2  0  0  0  0  0  0
  195.2740  174.6710  145.9380 C   0  0  0  0  0  2  0  0  0  0  0  0
  196.6730  174.1020  145.7680 C   0  0  0  0  0  2  0  0  0  0  0  0
  196.8140  172.8560  146.5070 N   0  0  0  0  0  2  0  0  0  0  0  0
  197.1960  171.8660  145.5860 N   0  0  0  0  0  2  0  0  0  0  0  0
  193.0730  170.3590  144.2680 C   0  0  0  0  0  1  0  0  0  0  0  0
  194.5850  170.4590  144.3300 C   0  0  1  0  0  3  0  0  0  0  0  0
  194.9750  171.0260  145.5570 O   0  0  0  0  0  0  0  0  0  0  0  0
  195.1910  169.0830  144.1990 C   0  0  0  0  0  2  0  0  0  0  0  0
  196.8860  169.2780  144.7550 S   0  0  0  0  0  0  0  0  0  0  0  0
  196.3340  170.6970  145.7670 C   0  0  1  0  0  3  0  0  0  0  0  0
  1  4  1  6  0  0  0
  1 27  1  0  0  0  0
  2 24  1  1  0  0  0
  2  5  1  0  0  0  0
  3 30  1  0  0  0  0
  4 26  1  0  0  0  0
  5  6  1  0  0  0  0
  6 20  1  6  0  0  0
  8  7  1  1  0  0  0
 10 26  2  0  0  0  0
 11 19  2  0  0  0  0
 12 21  1  0  0  0  0
 13 23  1  0  0  0  0
 14  2  1  0  0  0  0
 14 29  1  0  0  0  0
 15  8  1  0  0  0  0
 16 18  1  0  0  0  0
 16 33  1  0  0  0  0
 17  6  1  0  0  0  0
 19 28  1  0  0  0  0
 21 17  1  0  0  0  0
 22  9  1  0  0  0  0
 23 24  1  0  0  0  0
 23  2  1  0  0  0  0
 23 12  1  0  0  0  0
 25 30  1  0  0  0  0
 25  9  1  0  0  0  0
 26 18  1  0  0  0  0
 27 29  1  0  0  0  0
 27 41  1  0  0  0  0
 28 16  1  0  0  0  0
 29 20  1  0  0  0  0
 31  3  1  0  0  0  0
 31 35  1  0  0  0  0
 32  8  1  0  0  0  0
 32  1  1  0  0  0  0
 32 14  1  0  0  0  0
 34 36  1  0  0  0  0
 34 19  1  0  0  0  0
 35 15  1  0  0  0  0
 36 22  1  0  0  0  0
 37 38  1  0  0  0  0
 38 31  1  0  0  0  0
 39 40  1  0  0  0  0
 40 35  1  0  0  0  0
 41 42  1  0  0  0  0
 42 43  1  0  0  0  0
 43 44  1  0  0  0  0
 45 44  1  0  0  0  0
 45 46  1  0  0  0  0
 47 53  1  0  0  0  0
 47 46  1  0  0  0  0
 48 49  1  0  0  0  0
 49 50  1  0  0  0  0
 50 53  1  0  0  0  0
 51 49  1  0  0  0  0
 51 52  1  0  0  0  0
 52 53  1  0  0  0  0
M  END
>  <MODEL>
6

>  <REMARK>
 VINA RESULT:      -6.6      3.379      8.144
  Name = 
  10 active torsions:
  status: ('A' for Active; 'I' for Inactive)
    1  A    between atoms: C_1  and  O_8
    2  A    between atoms: C_1  and  C_16
    3  A    between atoms: N_3  and  C_9
    4  A    between atoms: N_3  and  N_17
    5  A    between atoms: O_8  and  C_40
    6  A    between atoms: C_9  and  C_48
    7  A    between atoms: O_15  and  C_46
    8  A    between atoms: C_16  and  C_48
    9  A    between atoms: N_17  and  C_41
   10  A    between atoms: O_50  and  C_52
                            x       y       z     vdW  Elec       q    Type
                         _______ _______ _______ _____ _____    ______ ____

>  <TORSDO>
F 10

$$$$
=
 OpenBabel11062420233D

 53 58  0  0  1  0  0  0  0  0999 V2000
  192.0140  172.7400  141.4530 C   0  0  1  0  0  3  0  0  0  0  0  0
  193.8520  174.6360  144.1370 C   0  0  1  0  0  0  0  0  0  0  0  0
  197.7050  173.3400  138.8790 C   0  0  0  0  0  2  0  0  0  0  0  0
  191.8330  171.3310  141.4790 O   0  0  0  0  0  0  0  0  0  0  0  0
  193.4370  175.9920  143.9850 O   0  0  0  0  0  0  0  0  0  0  0  0
  192.2380  176.2270  144.6950 C   0  0  2  0  0  3  0  0  0  0  0  0
  193.6270  175.2650  140.8150 C   0  0  0  0  0  1  0  0  0  0  0  0
  194.2790  173.9810  141.2980 C   0  0  2  0  0  3  0  0  0  0  0  0
  195.3470  173.7390  136.0540 C   0  0  0  0  0  2  0  0  0  0  0  0
  190.7300  169.4430  140.7900 O   0  0  0  0  0  0  0  0  0  0  0  0
  192.2290  169.2160  136.2650 C   0  0  0  0  0  2  0  0  0  0  0  0
  194.7930  175.6200  146.5060 C   0  0  0  0  0  2  0  0  0  0  0  0
  195.9860  173.5810  145.3000 C   0  0  0  0  0  1  0  0  0  0  0  0
  192.9490  173.7170  143.4280 N   0  0  1  0  0  0  0  0  0  0  0  0
  194.8080  173.2080  140.1030 C   0  0  0  0  0  2  0  0  0  0  0  0
  190.7010  170.7850  138.1450 C   0  0  2  0  0  3  0  0  0  0  0  0
  192.6000  176.3790  146.1870 C   0  0  0  0  0  2  0  0  0  0  0  0
  190.2930  171.3880  139.4810 C   0  0  0  0  0  2  0  0  0  0  0  0
  192.8300  170.0880  137.0720 C   0  0  0  0  0  0  0  0  0  0  0  0
  191.1430  175.1710  144.3300 C   0  0  0  0  0  2  0  0  0  0  0  0
  193.9660  176.7620  146.2880 O   0  0  0  0  0  0  0  0  0  0  0  0
  194.4700  172.6770  136.6990 C   0  0  0  0  0  2  0  0  0  0  0  0
  194.8430  174.5740  145.3520 C   0  0  2  0  0  0  0  0  0  0  0  0
  193.6050  173.8960  145.5010 C   0  0  0  0  0  2  0  0  0  0  0  0
  196.7720  173.6430  136.5810 C   0  0  0  0  0  2  0  0  0  0  0  0
  190.9540  170.6700  140.6170 C   0  0  0  0  0  0  0  0  0  0  0  0
  190.9080  173.4150  142.2920 C   0  0  1  0  0  3  0  0  0  0  0  0
  192.1100  170.8870  137.9690 O   0  0  0  0  0  0  0  0  0  0  0  0
  191.6970  174.3950  143.1180 C   0  0  2  0  0  3  0  0  0  0  0  0
  196.8490  174.2230  137.9840 C   0  0  0  0  0  2  0  0  0  0  0  0
  196.9570  172.0740  139.2960 C   0  0  2  0  0  3  0  0  0  0  0  0
  193.3430  173.1040  142.1590 C   0  0  1  0  0  3  0  0  0  0  0  0
  190.0470  171.4590  137.1130 O   0  0  0  0  0  1  0  0  0  0  0  0
  194.3170  170.2030  137.0320 C   0  0  0  0  0  2  0  0  0  0  0  0
  196.0240  172.3620  140.4890 C   0  0  2  0  0  3  0  0  0  0  0  0
  194.7700  171.3130  136.0980 C   0  0  0  0  0  2  0  0  0  0  0  0
  197.9160  170.2210  138.5520 C   0  0  0  0  0  1  0  0  0  0  0  0
  197.8900  171.0940  139.6420 O   0  0  0  0  0  0  0  0  0  0  0  0
  194.8630  170.3790  140.4530 C   0  0  0  0  0  1  0  0  0  0  0  0
  195.6800  171.2100  141.2380 O   0  0  0  0  0  0  0  0  0  0  0  0
  189.8660  173.9930  141.5260 O   0  0  0  0  0  0  0  0  0  0  0  0
  188.6150  173.5690  142.0100 C   0  0  0  0  0  2  0  0  0  0  0  0
  187.7110  174.7690  142.2280 C   0  0  0  0  0  2  0  0  0  0  0  0
  188.1020  175.8940  141.2840 C   0  0  0  0  0  2  0  0  0  0  0  0
  187.1310  177.0550  141.4130 C   0  0  0  0  0  2  0  0  0  0  0  0
  187.7220  178.1340  142.1910 N   0  0  0  0  0  2  0  0  0  0  0  0
  186.6680  178.9440  142.6470 N   0  0  0  0  0  2  0  0  0  0  0  0
  185.8620  178.8340  147.1570 C   0  0  0  0  0  1  0  0  0  0  0  0
  185.6060  179.0860  145.6840 C   0  0  1  0  0  3  0  0  0  0  0  0
  186.4340  178.2550  144.9070 O   0  0  0  0  0  0  0  0  0  0  0  0
  184.1610  178.7940  145.3630 C   0  0  0  0  0  2  0  0  0  0  0  0
  184.1090  178.6650  143.5740 S   0  0  0  0  0  0  0  0  0  0  0  0
  185.8730  178.1840  143.6120 C   0  0  1  0  0  3  0  0  0  0  0  0
  1  4  1  1  0  0  0
  1 32  1  0  0  0  0
  1 27  1  0  0  0  0
  2 23  1  0  0  0  0
  2 24  1  1  0  0  0
  3 31  1  0  0  0  0
  5  2  1  0  0  0  0
  5  6  1  0  0  0  0
  6 20  1  1  0  0  0
  6 17  1  0  0  0  0
  8  7  1  6  0  0  0
  8 32  1  0  0  0  0
  9 25  1  0  0  0  0
  9 22  1  0  0  0  0
 11 19  2  0  0  0  0
 13 23  1  0  0  0  0
 14  2  1  0  0  0  0
 15 35  1  0  0  0  0
 15  8  1  0  0  0  0
 16 18  1  0  0  0  0
 17 21  1  0  0  0  0
 18 26  1  0  0  0  0
 19 28  1  0  0  0  0
 21 12  1  0  0  0  0
 23 24  1  0  0  0  0
 23 12  1  0  0  0  0
 25 30  1  0  0  0  0
 26 10  2  0  0  0  0
 26  4  1  0  0  0  0
 27 29  1  0  0  0  0
 28 16  1  0  0  0  0
 29 14  1  0  0  0  0
 29 20  1  0  0  0  0
 30  3  1  0  0  0  0
 31 38  1  0  0  0  0
 31 35  1  0  0  0  0
 32 14  1  0  0  0  0
 33 16  1  0  0  0  0
 34 19  1  0  0  0  0
 35 40  1  0  0  0  0
 36 22  1  0  0  0  0
 36 34  1  0  0  0  0
 37 38  1  0  0  0  0
 39 40  1  0  0  0  0
 41 42  1  0  0  0  0
 41 27  1  0  0  0  0
 42 43  1  0  0  0  0
 44 45  1  0  0  0  0
 44 43  1  0  0  0  0
 45 46  1  0  0  0  0
 46 47  1  0  0  0  0
 47 53  1  0  0  0  0
 49 48  1  0  0  0  0
 50 49  1  0  0  0  0
 51 49  1  0  0  0  0
 52 53  1  0  0  0  0
 52 51  1  0  0  0  0
 53 50  1  0  0  0  0
M  END
>  <MODEL>
7

>  <REMARK>
 VINA RESULT:      -6.6      2.030      6.530
  Name = 
  10 active torsions:
  status: ('A' for Active; 'I' for Inactive)
    1  A    between atoms: C_1  and  O_8
    2  A    between atoms: C_1  and  C_16
    3  A    between atoms: N_3  and  C_9
    4  A    between atoms: N_3  and  N_17
    5  A    between atoms: O_8  and  C_40
    6  A    between atoms: C_9  and  C_48
    7  A    between atoms: O_15  and  C_46
    8  A    between atoms: C_16  and  C_48
    9  A    between atoms: N_17  and  C_41
   10  A    between atoms: O_50  and  C_52
                            x       y       z     vdW  Elec       q    Type
                         _______ _______ _______ _____ _____    ______ ____

>  <TORSDO>
F 10

$$$$
=
 OpenBabel11062420233D

 53 58  0  0  1  0  0  0  0  0999 V2000
  191.8780  171.9260  141.7520 C   0  0  1  0  0  3  0  0  0  0  0  0
  195.3480  170.8240  142.7130 C   0  0  1  0  0  0  0  0  0  0  0  0
  193.0580  175.6580  146.6570 C   0  0  0  0  0  2  0  0  0  0  0  0
  191.6160  172.8570  140.7110 O   0  0  0  0  0  0  0  0  0  0  0  0
  195.1640  169.6120  143.4430 O   0  0  0  0  0  0  0  0  0  0  0  0
  195.0990  168.5070  142.5630 C   0  0  2  0  0  3  0  0  0  0  0  0
  192.5900  171.2060  144.6440 C   0  0  0  0  0  1  0  0  0  0  0  0
  193.1870  172.4090  143.9320 C   0  0  2  0  0  3  0  0  0  0  0  0
  189.4750  174.7850  146.9780 C   0  0  0  0  0  2  0  0  0  0  0  0
  190.1890  173.8020  139.1860 O   0  0  0  0  0  0  0  0  0  0  0  0
  187.3100  176.2120  142.1310 C   0  0  0  0  0  2  0  0  0  0  0  0
  197.9380  169.9540  142.7200 C   0  0  0  0  0  2  0  0  0  0  0  0
  197.3630  172.5420  142.6560 C   0  0  0  0  0  1  0  0  0  0  0  0
  194.1420  171.1750  141.9470 N   0  0  1  0  0  0  0  0  0  0  0  0
  192.4090  173.6550  144.3170 C   0  0  0  0  0  2  0  0  0  0  0  0
  188.1870  173.5720  141.3610 C   0  0  2  0  0  3  0  0  0  0  0  0
  196.5400  168.1690  142.1300 C   0  0  0  0  0  2  0  0  0  0  0  0
  189.1250  172.4830  140.8640 C   0  0  0  0  0  2  0  0  0  0  0  0
  188.4190  175.6860  142.6460 C   0  0  0  0  0  0  0  0  0  0  0  0
  194.0490  168.7440  141.4280 C   0  0  0  0  0  2  0  0  0  0  0  0
  197.4420  168.6740  143.1080 O   0  0  0  0  0  0  0  0  0  0  0  0
  189.3710  174.8570  145.4630 C   0  0  0  0  0  2  0  0  0  0  0  0
  196.8900  171.1040  142.6330 C   0  0  2  0  0  0  0  0  0  0  0  0
  196.2270  170.8210  141.4100 C   0  0  0  0  0  2  0  0  0  0  0  0
  190.6950  175.5540  147.4640 C   0  0  0  0  0  2  0  0  0  0  0  0
  190.3320  173.0760  140.2050 C   0  0  0  0  0  0  0  0  0  0  0  0
  192.0270  170.5120  141.1510 C   0  0  1  0  0  3  0  0  0  0  0  0
  188.8490  174.3940  142.3160 O   0  0  0  0  0  0  0  0  0  0  0  0
  193.2710  170.0120  141.8350 C   0  0  2  0  0  3  0  0  0  0  0  0
  191.9590  174.7540  147.1940 C   0  0  0  0  0  2  0  0  0  0  0  0
  192.8150  176.0260  145.1940 C   0  0  2  0  0  3  0  0  0  0  0  0
  193.2490  172.2430  142.3970 C   0  0  1  0  0  3  0  0  0  0  0  0
  187.0630  172.9850  141.9440 O   0  0  0  0  0  1  0  0  0  0  0  0
  189.2390  176.5040  143.5860 C   0  0  0  0  0  2  0  0  0  0  0  0
  193.3000  174.8990  144.2620 C   0  0  2  0  0  3  0  0  0  0  0  0
  188.8750  176.2280  145.0350 C   0  0  0  0  0  2  0  0  0  0  0  0
  194.5590  177.2420  145.8160 C   0  0  0  0  0  1  0  0  0  0  0  0
  193.4970  177.2120  144.9090 O   0  0  0  0  0  0  0  0  0  0  0  0
  192.3740  175.7630  142.3450 C   0  0  0  0  0  1  0  0  0  0  0  0
  193.5700  175.3260  142.9380 O   0  0  0  0  0  0  0  0  0  0  0  0
  190.8890  169.6850  141.3190 O   0  0  0  0  0  0  0  0  0  0  0  0
  190.7580  168.8130  140.2210 C   0  0  0  0  0  2  0  0  0  0  0  0
  190.7520  169.6080  138.9280 C   0  0  0  0  0  2  0  0  0  0  0  0
  191.0710  168.6980  137.7550 C   0  0  0  0  0  2  0  0  0  0  0  0
  191.2070  169.5080  136.4780 C   0  0  0  0  0  2  0  0  0  0  0  0
  192.5370  170.0930  136.3800 N   0  0  0  0  0  2  0  0  0  0  0  0
  192.3940  171.3530  135.7750 N   0  0  0  0  0  2  0  0  0  0  0  0
  194.6800  173.4880  139.1240 C   0  0  0  0  0  1  0  0  0  0  0  0
  193.9800  173.2990  137.7930 C   0  0  1  0  0  3  0  0  0  0  0  0
  193.0820  172.2200  137.8760 O   0  0  0  0  0  0  0  0  0  0  0  0
  193.2220  174.5540  137.4350 C   0  0  0  0  0  2  0  0  0  0  0  0
  192.0910  174.0480  136.1370 S   0  0  0  0  0  0  0  0  0  0  0  0
  192.1550  172.3520  136.8170 C   0  0  1  0  0  3  0  0  0  0  0  0
  1  4  1  6  0  0  0
  1 32  1  0  0  0  0
  2 24  1  6  0  0  0
  2  5  1  0  0  0  0
  3 30  1  0  0  0  0
  6 20  1  6  0  0  0
  6  5  1  0  0  0  0
  8 15  1  0  0  0  0
  8  7  1  1  0  0  0
  9 25  1  0  0  0  0
 10 26  2  0  0  0  0
 11 19  2  0  0  0  0
 12 21  1  0  0  0  0
 14 32  1  0  0  0  0
 14  2  1  0  0  0  0
 16 33  1  0  0  0  0
 16 28  1  0  0  0  0
 17  6  1  0  0  0  0
 17 21  1  0  0  0  0
 18 16  1  0  0  0  0
 19 34  1  0  0  0  0
 20 29  1  0  0  0  0
 22  9  1  0  0  0  0
 23 13  1  0  0  0  0
 23  2  1  0  0  0  0
 23 12  1  0  0  0  0
 24 23  1  0  0  0  0
 26  4  1  0  0  0  0
 26 18  1  0  0  0  0
 27 41  1  0  0  0  0
 27  1  1  0  0  0  0
 27 29  1  0  0  0  0
 28 19  1  0  0  0  0
 29 14  1  0  0  0  0
 30 25  1  0  0  0  0
 31  3  1  0  0  0  0
 32  8  1  0  0  0  0
 34 36  1  0  0  0  0
 35 15  1  0  0  0  0
 35 31  1  0  0  0  0
 36 22  1  0  0  0  0
 38 31  1  0  0  0  0
 38 37  1  0  0  0  0
 39 40  1  0  0  0  0
 40 35  1  0  0  0  0
 42 41  1  0  0  0  0
 43 42  1  0  0  0  0
 44 43  1  0  0  0  0
 45 44  1  0  0  0  0
 46 45  1  0  0  0  0
 47 46  1  0  0  0  0
 47 53  1  0  0  0  0
 49 50  1  0  0  0  0
 49 48  1  0  0  0  0
 51 49  1  0  0  0  0
 52 53  1  0  0  0  0
 52 51  1  0  0  0  0
 53 50  1  0  0  0  0
M  END
>  <MODEL>
8

>  <REMARK>
 VINA RESULT:      -6.4      3.531      7.386
  Name = 
  10 active torsions:
  status: ('A' for Active; 'I' for Inactive)
    1  A    between atoms: C_1  and  O_8
    2  A    between atoms: C_1  and  C_16
    3  A    between atoms: N_3  and  C_9
    4  A    between atoms: N_3  and  N_17
    5  A    between atoms: O_8  and  C_40
    6  A    between atoms: C_9  and  C_48
    7  A    between atoms: O_15  and  C_46
    8  A    between atoms: C_16  and  C_48
    9  A    between atoms: N_17  and  C_41
   10  A    between atoms: O_50  and  C_52
                            x       y       z     vdW  Elec       q    Type
                         _______ _______ _______ _____ _____    ______ ____

>  <TORSDO>
F 10

$$$$
=
 OpenBabel11062420233D

 53 58  0  0  1  0  0  0  0  0999 V2000
  191.7740  172.0350  142.7630 C   0  0  1  0  0  3  0  0  0  0  0  0
  190.0980  175.3650  143.2890 C   0  0  1  0  0  0  0  0  0  0  0  0
  196.6290  175.9730  142.2170 C   0  0  0  0  0  2  0  0  0  0  0  0
  192.1800  171.1900  143.8300 O   0  0  0  0  0  0  0  0  0  0  0  0
  189.4730  175.6680  142.0430 O   0  0  0  0  0  0  0  0  0  0  0  0
  188.1910  175.0780  141.9740 C   0  0  2  0  0  3  0  0  0  0  0  0
  192.2030  174.3710  140.8270 C   0  0  0  0  0  1  0  0  0  0  0  0
  192.6870  174.4050  142.2670 C   0  0  2  0  0  3  0  0  0  0  0  0
  197.2630  173.3400  139.6940 C   0  0  0  0  0  2  0  0  0  0  0  0
  192.7810  169.1270  144.6290 O   0  0  0  0  0  0  0  0  0  0  0  0
  197.0590  168.6570  142.5650 C   0  0  0  0  0  2  0  0  0  0  0  0
  188.4960  177.4170  144.1230 C   0  0  0  0  0  2  0  0  0  0  0  0
  190.8160  176.9220  145.3090 C   0  0  0  0  0  1  0  0  0  0  0  0
  190.4640  173.9440  143.3720 N   0  0  1  0  0  0  0  0  0  0  0  0
  194.1570  174.0260  142.3100 C   0  0  0  0  0  2  0  0  0  0  0  0
  194.2270  168.8790  142.0510 C   0  0  2  0  0  3  0  0  0  0  0  0
  187.2290  175.9510  142.8050 C   0  0  0  0  0  2  0  0  0  0  0  0
  192.7840  169.3150  142.2520 C   0  0  0  0  0  2  0  0  0  0  0  0
  196.4690  169.8490  142.5010 C   0  0  0  0  0  0  0  0  0  0  0  0
  188.2460  173.5530  142.3150 C   0  0  0  0  0  2  0  0  0  0  0  0
  187.7710  177.2630  142.9040 O   0  0  0  0  0  0  0  0  0  0  0  0
  196.6930  172.3290  140.6760 C   0  0  0  0  0  2  0  0  0  0  0  0
  189.7710  176.5340  144.2840 C   0  0  2  0  0  0  0  0  0  0  0  0
  189.2240  175.2610  144.5920 C   0  0  0  0  0  2  0  0  0  0  0  0
  197.7010  174.6020  140.4240 C   0  0  0  0  0  2  0  0  0  0  0  0
  192.5760  169.8640  143.6300 C   0  0  0  0  0  0  0  0  0  0  0  0
  190.2830  171.7850  142.4480 C   0  0  1  0  0  3  0  0  0  0  0  0
  195.1040  169.9870  142.2190 O   0  0  0  0  0  0  0  0  0  0  0  0
  189.7440  173.1870  142.3560 C   0  0  2  0  0  3  0  0  0  0  0  0
  196.4870  175.4340  140.8010 C   0  0  0  0  0  2  0  0  0  0  0  0
  196.3750  174.8840  143.2580 C   0  0  2  0  0  3  0  0  0  0  0  0
  191.8540  173.5130  143.2150 C   0  0  1  0  0  3  0  0  0  0  0  0
  194.3780  168.3490  140.7690 O   0  0  0  0  0  1  0  0  0  0  0  0
  197.2840  171.0720  142.7560 C   0  0  0  0  0  2  0  0  0  0  0  0
  194.8630  174.6960  143.4920 C   0  0  2  0  0  3  0  0  0  0  0  0
  197.8150  171.6740  141.4650 C   0  0  0  0  0  2  0  0  0  0  0  0
  197.9400  174.2380  144.6860 C   0  0  0  0  0  1  0  0  0  0  0  0
  197.0040  175.2470  144.4520 O   0  0  0  0  0  0  0  0  0  0  0  0
  194.0630  175.0870  145.6100 C   0  0  0  0  0  1  0  0  0  0  0  0
  194.5450  174.0970  144.7360 O   0  0  0  0  0  0  0  0  0  0  0  0
  190.0560  170.9890  141.2980 O   0  0  0  0  0  0  0  0  0  0  0  0
  190.5500  171.6410  140.1530 C   0  0  0  0  0  2  0  0  0  0  0  0
  189.5720  171.4790  139.0040 C   0  0  0  0  0  2  0  0  0  0  0  0
  188.6030  172.6490  138.9760 C   0  0  0  0  0  2  0  0  0  0  0  0
  189.1560  173.7740  138.1190 C   0  0  0  0  0  2  0  0  0  0  0  0
  190.0970  173.2570  137.1370 N   0  0  0  0  0  2  0  0  0  0  0  0
  190.8720  174.3410  136.6900 N   0  0  0  0  0  2  0  0  0  0  0  0
  195.3260  175.2990  137.1830 C   0  0  0  0  0  1  0  0  0  0  0  0
  194.0150  174.5580  137.3580 C   0  0  1  0  0  3  0  0  0  0  0  0
  193.1550  174.8500  136.2840 O   0  0  0  0  0  0  0  0  0  0  0  0
  194.2730  173.0720  137.4030 C   0  0  0  0  0  2  0  0  0  0  0  0
  192.6660  172.3230  137.1330 S   0  0  0  0  0  0  0  0  0  0  0  0
  192.1700  173.8380  136.2380 C   0  0  1  0  0  3  0  0  0  0  0  0
  1 32  1  0  0  0  0
  1  4  1  1  0  0  0
  2 14  1  0  0  0  0
  2 23  1  0  0  0  0
  2 24  1  1  0  0  0
  3 31  1  0  0  0  0
  5  2  1  0  0  0  0
  6  5  1  0  0  0  0
  6 20  1  1  0  0  0
  6 17  1  0  0  0  0
  8  7  1  6  0  0  0
  8 15  1  0  0  0  0
  8 32  1  0  0  0  0
  9 25  1  0  0  0  0
  9 22  1  0  0  0  0
 12 23  1  0  0  0  0
 15 35  1  0  0  0  0
 16 28  1  0  0  0  0
 16 18  1  0  0  0  0
 17 21  1  0  0  0  0
 18 26  1  0  0  0  0
 19 11  2  0  0  0  0
 19 34  1  0  0  0  0
 20 29  1  0  0  0  0
 21 12  1  0  0  0  0
 22 36  1  0  0  0  0
 23 24  1  0  0  0  0
 23 13  1  0  0  0  0
 25 30  1  0  0  0  0
 26  4  1  0  0  0  0
 26 10  2  0  0  0  0
 27  1  1  0  0  0  0
 28 19  1  0  0  0  0
 29 27  1  0  0  0  0
 29 14  1  0  0  0  0
 30  3  1  0  0  0  0
 31 35  1  0  0  0  0
 31 38  1  0  0  0  0
 32 14  1  0  0  0  0
 33 16  1  0  0  0  0
 35 40  1  0  0  0  0
 36 34  1  0  0  0  0
 38 37  1  0  0  0  0
 40 39  1  0  0  0  0
 41 27  1  0  0  0  0
 42 41  1  0  0  0  0
 43 42  1  0  0  0  0
 44 43  1  0  0  0  0
 45 44  1  0  0  0  0
 46 45  1  0  0  0  0
 47 46  1  0  0  0  0
 48 49  1  0  0  0  0
 49 51  1  0  0  0  0
 50 49  1  0  0  0  0
 52 51  1  0  0  0  0
 53 50  1  0  0  0  0
 53 47  1  0  0  0  0
 53 52  1  0  0  0  0
M  END
>  <MODEL>
9

>  <REMARK>
 VINA RESULT:      -6.4      3.041      7.151
  Name = 
  10 active torsions:
  status: ('A' for Active; 'I' for Inactive)
    1  A    between atoms: C_1  and  O_8
    2  A    between atoms: C_1  and  C_16
    3  A    between atoms: N_3  and  C_9
    4  A    between atoms: N_3  and  N_17
    5  A    between atoms: O_8  and  C_40
    6  A    between atoms: C_9  and  C_48
    7  A    between atoms: O_15  and  C_46
    8  A    between atoms: C_16  and  C_48
    9  A    between atoms: N_17  and  C_41
   10  A    between atoms: O_50  and  C_52
                            x       y       z     vdW  Elec       q    Type
                         _______ _______ _______ _____ _____    ______ ____

>  <TORSDO>
F 10

$$$$
