=
 OpenBabel11072408563D

 45 48  0  0  1  0  0  0  0  0999 V2000
  187.7980  176.6970  144.9340 C   0  0  0  0  0  2  0  0  0  0  0  0
  189.0810  178.1400  142.2060 C   0  0  0  0  0  2  0  0  0  0  0  0
  187.8250  177.3280  142.5010 C   0  0  0  0  0  2  0  0  0  0  0  0
  187.2910  177.6930  143.8860 C   0  0  1  0  0  3  0  0  0  0  0  0
  190.1370  177.6920  144.4640 C   0  0  0  0  0  2  0  0  0  0  0  0
  189.3240  176.4940  144.9560 C   0  0  1  0  0  3  0  0  0  0  0  0
  190.3050  177.6140  142.9510 C   0  0  0  0  0  2  0  0  0  0  0  0
  189.8020  176.0530  146.2740 N   0  0  0  0  0  0  0  0  0  0  0  0
  190.4250  176.9770  147.1740 C   0  0  0  0  0  3  0  0  0  0  0  0
  191.3090  176.5910  148.0910 C   0  0  0  0  0  2  0  0  0  0  0  0
  189.7320  174.6550  146.7050 C   0  0  0  0  0  2  0  0  0  0  0  0
  189.7450  173.6970  145.5180 C   0  0  0  0  0  2  0  0  0  0  0  0
  191.1170  173.6600  144.8740 C   0  0  0  0  0  2  0  0  0  0  0  0
  193.6160  173.5600  143.2620 C   0  0  1  0  0  3  0  0  0  0  0  0
  190.9630  173.7420  143.3590 C   0  0  2  0  0  3  0  0  0  0  0  0
  190.4960  172.1950  141.4120 C   0  0  0  0  0  1  0  0  0  0  0  0
  194.0830  172.1520  143.6400 C   0  0  0  0  0  2  0  0  0  0  0  0
  191.3390  172.4470  142.6430 C   0  0  2  0  0  0  0  0  0  0  0  0
  191.7960  171.1960  143.4290 C   0  0  0  0  0  2  0  0  0  0  0  0
  192.2600  173.6600  142.5140 C   0  0  2  0  0  3  0  0  0  0  0  0
  192.9770  171.4150  144.3670 C   0  0  0  0  0  2  0  0  0  0  0  0
  194.3550  176.6950  146.1320 C   0  0  0  0  0  0  0  0  0  0  0  0
  193.7100  176.9790  144.9260 C   0  0  0  0  0  3  0  0  0  0  0  0
  194.7730  175.3910  146.4110 C   0  0  0  0  0  3  0  0  0  0  0  0
  193.4810  175.9590  143.9970 C   0  0  0  0  0  3  0  0  0  0  0  0
  194.5420  174.3700  145.4850 C   0  0  0  0  0  3  0  0  0  0  0  0
  193.8930  174.6480  144.2700 C   0  0  0  0  0  0  0  0  0  0  0  0
  194.5750  177.6820  147.0320 F   0  0  0  0  0  0  0  0  0  0  0  0
  185.7580  177.7740  143.9070 C   0  0  2  0  0  3  0  0  0  0  0  0
  185.1770  177.3970  142.5540 C   0  0  0  0  0  2  0  0  0  0  0  0
  184.0830  178.3060  142.2290 N   0  0  0  0  0  2  0  0  0  0  0  0
  183.9610  178.4650  140.7760 C   0  0  1  0  0  3  0  0  0  0  0  0
  185.0360  177.7680  140.0900 N   0  0  0  0  0  1  0  0  0  0  0  0
  182.6680  177.9910  140.2950 N   0  0  0  0  0  2  0  0  0  0  0  0
  181.6600  178.4150  141.2540 C   0  0  0  0  0  2  0  0  0  0  0  0
  180.0070  179.7050  140.1170 O   0  0  0  0  0  1  0  0  0  0  0  0
  180.2900  178.4260  140.5980 C   0  0  2  0  0  3  0  0  0  0  0  0
  178.4170  177.1000  141.2730 O   0  0  0  0  0  0  0  0  0  0  0  0
  178.1660  178.3100  143.8300 C   0  0  0  0  0  1  0  0  0  0  0  0
  179.1850  178.6440  142.8500 N   0  0  0  0  0  2  0  0  0  0  0  0
  179.2390  178.0080  141.5730 C   0  0  0  0  0  0  0  0  0  0  0  0
  185.2920  179.1870  144.2380 C   0  0  0  0  0  2  0  0  0  0  0  0
  185.3900  179.4530  145.7310 C   0  0  0  0  0  2  0  0  0  0  0  0
  185.4500  178.3010  147.6090 C   0  0  0  0  0  1  0  0  0  0  0  0
  184.7150  178.4560  146.4340 O   0  0  0  0  0  0  0  0  0  0  0  0
  1  6  1  0  0  0  0
  2  3  1  0  0  0  0
  2  7  1  0  0  0  0
  3  4  1  0  0  0  0
  4 29  1  6  0  0  0
  4  1  1  0  0  0  0
  5  6  1  0  0  0  0
  6  8  1  1  0  0  0
  7  5  1  0  0  0  0
  8 11  1  0  0  0  0
  8  9  1  0  0  0  0
  9 10  2  0  0  0  0
 12 11  1  0  0  0  0
 13 12  1  0  0  0  0
 14 17  1  0  0  0  0
 14 27  1  1  0  0  0
 15 13  1  1  0  0  0
 17 21  1  0  0  0  0
 18 16  1  6  0  0  0
 18 15  1  0  0  0  0
 18 19  1  0  0  0  0
 19 21  1  0  0  0  0
 20 18  1  0  0  0  0
 20 14  1  0  0  0  0
 20 15  1  0  0  0  0
 22 24  1  0  0  0  0
 22 28  1  0  0  0  0
 23 22  2  0  0  0  0
 25 27  2  0  0  0  0
 25 23  1  0  0  0  0
 26 24  2  0  0  0  0
 27 26  1  0  0  0  0
 29 42  1  0  0  0  0
 30 29  1  0  0  0  0
 31 30  1  0  0  0  0
 32 31  1  0  0  0  0
 33 32  1  0  0  0  0
 34 32  1  0  0  0  0
 34 35  1  0  0  0  0
 36 37  1  0  0  0  0
 37 35  1  0  0  0  0
 37 41  1  0  0  0  0
 38 41  2  0  0  0  0
 40 39  1  0  0  0  0
 41 40  1  0  0  0  0
 42 43  1  0  0  0  0
 43 45  1  0  0  0  0
 45 44  1  0  0  0  0
M  END
>  <MODEL>
1

>  <REMARK>
 VINA RESULT:      -7.4      0.000      0.000
  Name = 
  18 active torsions:
  status: ('A' for Active; 'I' for Inactive)
    1  A    between atoms: N_2  and  C_20
    2  A    between atoms: N_2  and  C_33
    3  A    between atoms: N_5  and  C_16
    4  A    between atoms: N_5  and  C_20
    5  A    between atoms: C_9  and  N_39
    6  A    between atoms: C_10  and  C_21
    7  A    between atoms: C_10  and  O_35
    8  A    between atoms: C_11  and  C_34
    9  A    between atoms: C_13  and  C_27
   10  A    between atoms: C_15  and  N_39
   11  A    between atoms: C_15  and  C_45
   12  A    between atoms: C_16  and  C_43
   13  A    between atoms: C_21  and  C_30
   14  A    between atoms: C_23  and  C_30
   15  A    between atoms: C_27  and  C_45
   16  A    between atoms: C_30  and  C_33
   17  A    between atoms: C_38  and  N_39
   18  A    between atoms: C_43  and  C_44
                            x       y       z     vdW  Elec       q    Type
                         _______ _______ _______ _____ _____    ______ ____

>  <TORSDO>
F 18

$$$$
=
 OpenBabel11072408563D

 45 48  0  0  1  0  0  0  0  0999 V2000
  188.0540  176.5940  144.9330 C   0  0  0  0  0  2  0  0  0  0  0  0
  189.1920  178.1410  142.1980 C   0  0  0  0  0  2  0  0  0  0  0  0
  188.0140  177.2210  142.4990 C   0  0  0  0  0  2  0  0  0  0  0  0
  187.4560  177.5400  143.8860 C   0  0  1  0  0  3  0  0  0  0  0  0
  190.2930  177.7920  144.4530 C   0  0  0  0  0  2  0  0  0  0  0  0
  189.5910  176.5280  144.9490 C   0  0  1  0  0  3  0  0  0  0  0  0
  190.4610  177.7270  142.9390 C   0  0  0  0  0  2  0  0  0  0  0  0
  190.1120  176.1330  146.2660 N   0  0  0  0  0  0  0  0  0  0  0  0
  190.1830  177.0790  147.3390 C   0  0  0  0  0  3  0  0  0  0  0  0
  191.1450  177.0430  148.2580 C   0  0  0  0  0  2  0  0  0  0  0  0
  190.6430  174.7940  146.5280 C   0  0  0  0  0  2  0  0  0  0  0  0
  190.7830  173.9810  145.2460 C   0  0  0  0  0  2  0  0  0  0  0  0
  192.2430  173.8200  144.8690 C   0  0  0  0  0  2  0  0  0  0  0  0
  195.1910  173.5910  144.5320 C   0  0  1  0  0  3  0  0  0  0  0  0
  193.1110  174.5140  145.9120 C   0  0  2  0  0  3  0  0  0  0  0  0
  194.0630  176.8150  146.3650 C   0  0  0  0  0  1  0  0  0  0  0  0
  195.3320  174.3270  143.1970 C   0  0  0  0  0  2  0  0  0  0  0  0
  193.8930  175.7000  145.3550 C   0  0  2  0  0  0  0  0  0  0  0  0
  193.7580  176.1300  143.8760 C   0  0  0  0  0  2  0  0  0  0  0  0
  194.6470  174.4230  145.7240 C   0  0  2  0  0  3  0  0  0  0  0  0
  194.0370  175.0350  142.8540 C   0  0  0  0  0  2  0  0  0  0  0  0
  193.8630  169.4950  144.2670 C   0  0  0  0  0  0  0  0  0  0  0  0
  193.9070  170.3000  143.1250 C   0  0  0  0  0  3  0  0  0  0  0  0
  194.2430  170.0180  145.5050 C   0  0  0  0  0  3  0  0  0  0  0  0
  194.3300  171.6280  143.2200 C   0  0  0  0  0  3  0  0  0  0  0  0
  194.6700  171.3460  145.6020 C   0  0  0  0  0  3  0  0  0  0  0  0
  194.7170  172.1610  144.4580 C   0  0  0  0  0  0  0  0  0  0  0  0
  193.4540  168.2080  144.1730 F   0  0  0  0  0  0  0  0  0  0  0  0
  185.9220  177.4850  143.9140 C   0  0  2  0  0  3  0  0  0  0  0  0
  185.3260  178.5140  142.9660 C   0  0  0  0  0  2  0  0  0  0  0  0
  184.1140  177.9700  142.3630 N   0  0  0  0  0  2  0  0  0  0  0  0
  184.0100  178.3810  140.9590 C   0  0  1  0  0  3  0  0  0  0  0  0
  185.1420  177.8880  140.1920 N   0  0  0  0  0  1  0  0  0  0  0  0
  182.7600  177.9230  140.3610 N   0  0  0  0  0  2  0  0  0  0  0  0
  181.6820  178.2780  141.2700 C   0  0  0  0  0  2  0  0  0  0  0  0
  180.3710  180.1940  140.7220 O   0  0  0  0  0  1  0  0  0  0  0  0
  180.5010  178.8240  140.4880 C   0  0  2  0  0  3  0  0  0  0  0  0
  178.2530  178.1050  140.1000 O   0  0  0  0  0  0  0  0  0  0  0  0
  177.9750  176.7980  142.6060 C   0  0  0  0  0  1  0  0  0  0  0  0
  179.1800  177.4670  142.1480 N   0  0  0  0  0  2  0  0  0  0  0  0
  179.2430  178.1230  140.8810 C   0  0  0  0  0  0  0  0  0  0  0  0
  185.3920  177.7770  145.3130 C   0  0  0  0  0  2  0  0  0  0  0  0
  185.5210  179.2550  145.6420 C   0  0  0  0  0  2  0  0  0  0  0  0
  185.3870  178.1990  147.5720 C   0  0  0  0  0  1  0  0  0  0  0  0
  185.7630  179.4160  147.0060 O   0  0  0  0  0  0  0  0  0  0  0  0
  1  6  1  0  0  0  0
  2  3  1  0  0  0  0
  2  7  1  0  0  0  0
  3  4  1  0  0  0  0
  4 29  1  6  0  0  0
  4  1  1  0  0  0  0
  5  6  1  0  0  0  0
  6  8  1  1  0  0  0
  7  5  1  0  0  0  0
  8 11  1  0  0  0  0
  8  9  1  0  0  0  0
  9 10  2  0  0  0  0
 12 11  1  0  0  0  0
 13 12  1  0  0  0  0
 14 27  1  6  0  0  0
 14 20  1  0  0  0  0
 15 13  1  6  0  0  0
 17 14  1  0  0  0  0
 18 20  1  0  0  0  0
 18 15  1  0  0  0  0
 18 16  1  1  0  0  0
 19 18  1  0  0  0  0
 20 15  1  0  0  0  0
 21 17  1  0  0  0  0
 21 19  1  0  0  0  0
 22 24  1  0  0  0  0
 23 25  1  0  0  0  0
 23 22  2  0  0  0  0
 24 26  2  0  0  0  0
 25 27  2  0  0  0  0
 27 26  1  0  0  0  0
 28 22  1  0  0  0  0
 29 42  1  0  0  0  0
 30 29  1  0  0  0  0
 31 30  1  0  0  0  0
 32 31  1  0  0  0  0
 33 32  1  0  0  0  0
 34 32  1  0  0  0  0
 34 35  1  0  0  0  0
 37 36  1  0  0  0  0
 37 41  1  0  0  0  0
 37 35  1  0  0  0  0
 38 41  2  0  0  0  0
 40 39  1  0  0  0  0
 41 40  1  0  0  0  0
 42 43  1  0  0  0  0
 43 45  1  0  0  0  0
 45 44  1  0  0  0  0
M  END
>  <MODEL>
2

>  <REMARK>
 VINA RESULT:      -7.0      1.942      3.186
  Name = 
  18 active torsions:
  status: ('A' for Active; 'I' for Inactive)
    1  A    between atoms: N_2  and  C_20
    2  A    between atoms: N_2  and  C_33
    3  A    between atoms: N_5  and  C_16
    4  A    between atoms: N_5  and  C_20
    5  A    between atoms: C_9  and  N_39
    6  A    between atoms: C_10  and  C_21
    7  A    between atoms: C_10  and  O_35
    8  A    between atoms: C_11  and  C_34
    9  A    between atoms: C_13  and  C_27
   10  A    between atoms: C_15  and  N_39
   11  A    between atoms: C_15  and  C_45
   12  A    between atoms: C_16  and  C_43
   13  A    between atoms: C_21  and  C_30
   14  A    between atoms: C_23  and  C_30
   15  A    between atoms: C_27  and  C_45
   16  A    between atoms: C_30  and  C_33
   17  A    between atoms: C_38  and  N_39
   18  A    between atoms: C_43  and  C_44
                            x       y       z     vdW  Elec       q    Type
                         _______ _______ _______ _____ _____    ______ ____

>  <TORSDO>
F 18

$$$$
=
 OpenBabel11072408563D

 45 48  0  0  1  0  0  0  0  0999 V2000
  187.8350  176.9340  145.0770 C   0  0  0  0  0  2  0  0  0  0  0  0
  189.0570  178.2780  142.2720 C   0  0  0  0  0  2  0  0  0  0  0  0
  187.7820  177.5240  142.6340 C   0  0  0  0  0  2  0  0  0  0  0  0
  187.3250  177.9340  144.0340 C   0  0  1  0  0  3  0  0  0  0  0  0
  190.1910  177.8210  144.4910 C   0  0  0  0  0  2  0  0  0  0  0  0
  189.3500  176.6670  145.0380 C   0  0  1  0  0  3  0  0  0  0  0  0
  190.2900  177.7110  142.9730 C   0  0  0  0  0  2  0  0  0  0  0  0
  189.8670  176.2270  146.3420 N   0  0  0  0  0  0  0  0  0  0  0  0
  190.4110  177.1710  147.2710 C   0  0  0  0  0  3  0  0  0  0  0  0
  191.2790  176.8210  148.2160 C   0  0  0  0  0  2  0  0  0  0  0  0
  189.9160  174.8150  146.7280 C   0  0  0  0  0  2  0  0  0  0  0  0
  190.4500  173.9390  145.6010 C   0  0  0  0  0  2  0  0  0  0  0  0
  191.7480  174.5010  145.0540 C   0  0  0  0  0  2  0  0  0  0  0  0
  192.8400  173.4090  142.5100 C   0  0  1  0  0  3  0  0  0  0  0  0
  192.8420  173.4460  145.1710 C   0  0  2  0  0  3  0  0  0  0  0  0
  195.3540  173.3390  145.4600 C   0  0  0  0  0  1  0  0  0  0  0  0
  193.4470  174.6950  141.9440 C   0  0  0  0  0  2  0  0  0  0  0  0
  194.2020  173.9290  144.6740 C   0  0  2  0  0  0  0  0  0  0  0  0
  194.4010  175.3660  144.1410 C   0  0  0  0  0  2  0  0  0  0  0  0
  193.4350  172.8960  143.8490 C   0  0  2  0  0  3  0  0  0  0  0  0
  193.4670  175.7730  143.0080 C   0  0  0  0  0  2  0  0  0  0  0  0
  188.5770  172.9840  142.0010 C   0  0  0  0  0  0  0  0  0  0  0  0
  189.2070  174.1980  141.7120 C   0  0  0  0  0  3  0  0  0  0  0  0
  189.3280  171.9010  142.4660 C   0  0  0  0  0  3  0  0  0  0  0  0
  190.5870  174.3300  141.8880 C   0  0  0  0  0  3  0  0  0  0  0  0
  190.7090  172.0310  142.6390 C   0  0  0  0  0  3  0  0  0  0  0  0
  191.3490  173.2480  142.3490 C   0  0  0  0  0  0  0  0  0  0  0  0
  187.2400  172.8560  141.8300 F   0  0  0  0  0  0  0  0  0  0  0  0
  185.7990  178.0810  144.1200 C   0  0  2  0  0  3  0  0  0  0  0  0
  185.2430  178.7010  142.8480 C   0  0  0  0  0  2  0  0  0  0  0  0
  184.3690  177.7400  142.1850 N   0  0  0  0  0  2  0  0  0  0  0  0
  183.4470  178.4260  141.2740 C   0  0  1  0  0  3  0  0  0  0  0  0
  183.4330  177.7790  139.9720 N   0  0  0  0  0  1  0  0  0  0  0  0
  182.0960  178.4790  141.8220 N   0  0  0  0  0  2  0  0  0  0  0  0
  181.1710  178.2000  140.7360 C   0  0  0  0  0  2  0  0  0  0  0  0
  178.9030  177.5760  141.1320 O   0  0  0  0  0  1  0  0  0  0  0  0
  179.7740  178.6650  141.1090 C   0  0  2  0  0  3  0  0  0  0  0  0
  178.4470  179.3660  139.2470 O   0  0  0  0  0  0  0  0  0  0  0  0
  179.3580  182.0550  139.2910 C   0  0  0  0  0  1  0  0  0  0  0  0
  179.7680  181.0240  140.2290 N   0  0  0  0  0  2  0  0  0  0  0  0
  179.2840  179.6850  140.1350 C   0  0  0  0  0  0  0  0  0  0  0  0
  185.4030  178.9760  145.2880 C   0  0  0  0  0  2  0  0  0  0  0  0
  184.4910  178.2350  146.2520 C   0  0  0  0  0  2  0  0  0  0  0  0
  185.9300  177.9660  147.9010 C   0  0  0  0  0  1  0  0  0  0  0  0
  184.7570  178.6400  147.5600 O   0  0  0  0  0  0  0  0  0  0  0  0
  2  3  1  0  0  0  0
  2  7  1  0  0  0  0
  3  4  1  0  0  0  0
  4 29  1  6  0  0  0
  4  1  1  0  0  0  0
  5  6  1  0  0  0  0
  6  1  1  0  0  0  0
  6  8  1  1  0  0  0
  7  5  1  0  0  0  0
  8 11  1  0  0  0  0
  8  9  1  0  0  0  0
  9 10  2  0  0  0  0
 12 11  1  0  0  0  0
 13 12  1  0  0  0  0
 14 27  1  1  0  0  0
 14 20  1  0  0  0  0
 15 13  1  6  0  0  0
 17 14  1  0  0  0  0
 17 21  1  0  0  0  0
 18 15  1  0  0  0  0
 18 16  1  1  0  0  0
 19 18  1  0  0  0  0
 20 18  1  0  0  0  0
 20 15  1  0  0  0  0
 21 19  1  0  0  0  0
 22 24  1  0  0  0  0
 23 25  1  0  0  0  0
 23 22  2  0  0  0  0
 24 26  2  0  0  0  0
 25 27  2  0  0  0  0
 27 26  1  0  0  0  0
 28 22  1  0  0  0  0
 29 42  1  0  0  0  0
 30 29  1  0  0  0  0
 31 30  1  0  0  0  0
 32 34  1  0  0  0  0
 32 31  1  0  0  0  0
 33 32  1  0  0  0  0
 35 37  1  0  0  0  0
 35 34  1  0  0  0  0
 37 36  1  0  0  0  0
 38 41  2  0  0  0  0
 39 40  1  0  0  0  0
 41 40  1  0  0  0  0
 41 37  1  0  0  0  0
 42 43  1  0  0  0  0
 43 45  1  0  0  0  0
 45 44  1  0  0  0  0
M  END
>  <MODEL>
3

>  <REMARK>
 VINA RESULT:      -6.9      2.013      3.432
  Name = 
  18 active torsions:
  status: ('A' for Active; 'I' for Inactive)
    1  A    between atoms: N_2  and  C_20
    2  A    between atoms: N_2  and  C_33
    3  A    between atoms: N_5  and  C_16
    4  A    between atoms: N_5  and  C_20
    5  A    between atoms: C_9  and  N_39
    6  A    between atoms: C_10  and  C_21
    7  A    between atoms: C_10  and  O_35
    8  A    between atoms: C_11  and  C_34
    9  A    between atoms: C_13  and  C_27
   10  A    between atoms: C_15  and  N_39
   11  A    between atoms: C_15  and  C_45
   12  A    between atoms: C_16  and  C_43
   13  A    between atoms: C_21  and  C_30
   14  A    between atoms: C_23  and  C_30
   15  A    between atoms: C_27  and  C_45
   16  A    between atoms: C_30  and  C_33
   17  A    between atoms: C_38  and  N_39
   18  A    between atoms: C_43  and  C_44
                            x       y       z     vdW  Elec       q    Type
                         _______ _______ _______ _____ _____    ______ ____

>  <TORSDO>
F 18

$$$$
=
 OpenBabel11072408563D

 45 48  0  0  1  0  0  0  0  0999 V2000
  192.5230  173.5660  145.1640 C   0  0  0  0  0  2  0  0  0  0  0  0
  190.8330  171.5510  143.1030 C   0  0  0  0  0  2  0  0  0  0  0  0
  192.2980  171.9360  143.2640 C   0  0  0  0  0  2  0  0  0  0  0  0
  192.6270  172.0950  144.7480 C   0  0  1  0  0  3  0  0  0  0  0  0
  189.9900  173.3110  144.7180 C   0  0  0  0  0  2  0  0  0  0  0  0
  191.1920  174.2520  144.8080 C   0  0  1  0  0  3  0  0  0  0  0  0
  189.8910  172.7350  143.3100 C   0  0  0  0  0  2  0  0  0  0  0  0
  190.8960  175.3800  145.7020 N   0  0  0  0  0  0  0  0  0  0  0  0
  191.7660  175.6970  146.7950 C   0  0  0  0  0  3  0  0  0  0  0  0
  191.3260  176.2700  147.9120 C   0  0  0  0  0  2  0  0  0  0  0  0
  189.6810  176.1870  145.5680 C   0  0  0  0  0  2  0  0  0  0  0  0
  189.8900  177.3740  144.6350 C   0  0  0  0  0  2  0  0  0  0  0  0
  188.7430  177.4920  143.6500 C   0  0  0  0  0  2  0  0  0  0  0  0
  185.8490  176.8580  143.3670 C   0  0  1  0  0  3  0  0  0  0  0  0
  188.3900  176.1060  143.1220 C   0  0  2  0  0  3  0  0  0  0  0  0
  188.1300  174.9330  140.8950 C   0  0  0  0  0  1  0  0  0  0  0  0
  185.4830  177.9030  142.3100 C   0  0  0  0  0  2  0  0  0  0  0  0
  187.7520  176.1330  141.7360 C   0  0  2  0  0  0  0  0  0  0  0  0
  187.5350  177.4610  140.9750 C   0  0  0  0  0  2  0  0  0  0  0  0
  186.8850  175.7830  142.9440 C   0  0  2  0  0  3  0  0  0  0  0  0
  186.7400  178.5190  141.7300 C   0  0  0  0  0  2  0  0  0  0  0  0
  186.1280  178.3250  147.4150 C   0  0  0  0  0  0  0  0  0  0  0  0
  185.8950  179.2090  146.3570 C   0  0  0  0  0  3  0  0  0  0  0  0
  186.2810  176.9590  147.1640 C   0  0  0  0  0  3  0  0  0  0  0  0
  185.8140  178.7260  145.0470 C   0  0  0  0  0  3  0  0  0  0  0  0
  186.1970  176.4750  145.8540 C   0  0  0  0  0  3  0  0  0  0  0  0
  185.9620  177.3570  144.7860 C   0  0  0  0  0  0  0  0  0  0  0  0
  186.2060  178.7920  148.6830 F   0  0  0  0  0  0  0  0  0  0  0  0
  194.0110  171.5270  145.0940 C   0  0  2  0  0  3  0  0  0  0  0  0
  195.1120  172.3530  144.4480 C   0  0  0  0  0  2  0  0  0  0  0  0
  196.0170  172.8420  145.4820 N   0  0  0  0  0  2  0  0  0  0  0  0
  197.3940  172.8890  144.9810 C   0  0  1  0  0  3  0  0  0  0  0  0
  197.5470  172.0290  143.8180 N   0  0  0  0  0  1  0  0  0  0  0  0
  197.7970  174.2520  144.6530 N   0  0  0  0  0  2  0  0  0  0  0  0
  197.8600  174.3550  143.2040 C   0  0  0  0  0  2  0  0  0  0  0  0
  196.8550  175.5120  141.3760 O   0  0  0  0  0  1  0  0  0  0  0  0
  196.6250  175.0650  142.6780 C   0  0  2  0  0  3  0  0  0  0  0  0
  196.9650  177.2740  143.5290 O   0  0  0  0  0  0  0  0  0  0  0  0
  194.7590  177.1920  145.3170 C   0  0  0  0  0  1  0  0  0  0  0  0
  195.1360  176.1190  144.4130 N   0  0  0  0  0  2  0  0  0  0  0  0
  196.2720  176.2210  143.5550 C   0  0  0  0  0  0  0  0  0  0  0  0
  194.1510  170.0930  144.5960 C   0  0  0  0  0  2  0  0  0  0  0  0
  194.9960  169.2690  145.5540 C   0  0  0  0  0  2  0  0  0  0  0  0
  194.6760  168.6670  147.6510 C   0  0  0  0  0  1  0  0  0  0  0  0
  194.1680  168.4900  146.3630 O   0  0  0  0  0  0  0  0  0  0  0  0
  2  3  1  0  0  0  0
  2  7  1  0  0  0  0
  3  4  1  0  0  0  0
  4 29  1  6  0  0  0
  4  1  1  0  0  0  0
  5  6  1  0  0  0  0
  6  1  1  0  0  0  0
  6  8  1  1  0  0  0
  7  5  1  0  0  0  0
  8  9  1  0  0  0  0
  9 10  2  0  0  0  0
 11  8  1  0  0  0  0
 12 11  1  0  0  0  0
 13 12  1  0  0  0  0
 14 27  1  1  0  0  0
 15 13  1  1  0  0  0
 17 14  1  0  0  0  0
 18 16  1  6  0  0  0
 18 20  1  0  0  0  0
 18 15  1  0  0  0  0
 19 21  1  0  0  0  0
 19 18  1  0  0  0  0
 20 15  1  0  0  0  0
 20 14  1  0  0  0  0
 21 17  1  0  0  0  0
 22 28  1  0  0  0  0
 23 22  2  0  0  0  0
 24 22  1  0  0  0  0
 25 23  1  0  0  0  0
 26 24  2  0  0  0  0
 27 25  2  0  0  0  0
 27 26  1  0  0  0  0
 30 29  1  0  0  0  0
 30 31  1  0  0  0  0
 32 31  1  0  0  0  0
 33 32  1  0  0  0  0
 34 32  1  0  0  0  0
 35 34  1  0  0  0  0
 36 37  1  0  0  0  0
 37 35  1  0  0  0  0
 37 41  1  0  0  0  0
 38 41  2  0  0  0  0
 40 39  1  0  0  0  0
 41 40  1  0  0  0  0
 42 29  1  0  0  0  0
 42 43  1  0  0  0  0
 43 45  1  0  0  0  0
 45 44  1  0  0  0  0
M  END
>  <MODEL>
4

>  <REMARK>
 VINA RESULT:      -6.7      5.752     10.655
  Name = 
  18 active torsions:
  status: ('A' for Active; 'I' for Inactive)
    1  A    between atoms: N_2  and  C_20
    2  A    between atoms: N_2  and  C_33
    3  A    between atoms: N_5  and  C_16
    4  A    between atoms: N_5  and  C_20
    5  A    between atoms: C_9  and  N_39
    6  A    between atoms: C_10  and  C_21
    7  A    between atoms: C_10  and  O_35
    8  A    between atoms: C_11  and  C_34
    9  A    between atoms: C_13  and  C_27
   10  A    between atoms: C_15  and  N_39
   11  A    between atoms: C_15  and  C_45
   12  A    between atoms: C_16  and  C_43
   13  A    between atoms: C_21  and  C_30
   14  A    between atoms: C_23  and  C_30
   15  A    between atoms: C_27  and  C_45
   16  A    between atoms: C_30  and  C_33
   17  A    between atoms: C_38  and  N_39
   18  A    between atoms: C_43  and  C_44
                            x       y       z     vdW  Elec       q    Type
                         _______ _______ _______ _____ _____    ______ ____

>  <TORSDO>
F 18

$$$$
=
 OpenBabel11072408563D

 45 48  0  0  1  0  0  0  0  0999 V2000
  191.5600  174.1900  142.7740 C   0  0  0  0  0  2  0  0  0  0  0  0
  189.7100  172.4180  144.9210 C   0  0  0  0  0  2  0  0  0  0  0  0
  189.8600  172.4490  143.4040 C   0  0  0  0  0  2  0  0  0  0  0  0
  191.3220  172.6990  143.0380 C   0  0  1  0  0  3  0  0  0  0  0  0
  191.0850  174.5130  145.2940 C   0  0  0  0  0  2  0  0  0  0  0  0
  191.0930  175.1330  143.8970 C   0  0  1  0  0  3  0  0  0  0  0  0
  189.7530  173.8140  145.5400 C   0  0  0  0  0  2  0  0  0  0  0  0
  191.8400  176.3990  143.8990 N   0  0  0  0  0  0  0  0  0  0  0  0
  193.2390  176.4230  144.2070 C   0  0  0  0  0  3  0  0  0  0  0  0
  193.7100  176.9460  145.3370 C   0  0  0  0  0  2  0  0  0  0  0  0
  191.1930  177.6910  143.6600 C   0  0  0  0  0  2  0  0  0  0  0  0
  189.8270  177.7720  144.3330 C   0  0  0  0  0  2  0  0  0  0  0  0
  188.7160  177.7140  143.3030 C   0  0  0  0  0  2  0  0  0  0  0  0
  185.9370  176.6540  143.3890 C   0  0  1  0  0  3  0  0  0  0  0  0
  188.5170  176.2700  142.8590 C   0  0  2  0  0  3  0  0  0  0  0  0
  188.1800  174.9720  140.7130 C   0  0  0  0  0  1  0  0  0  0  0  0
  185.2990  177.5860  142.3550 C   0  0  0  0  0  2  0  0  0  0  0  0
  187.7250  176.1410  141.5600 C   0  0  2  0  0  0  0  0  0  0  0  0
  187.2250  177.3880  140.7950 C   0  0  0  0  0  2  0  0  0  0  0  0
  187.0660  175.7230  142.8740 C   0  0  2  0  0  3  0  0  0  0  0  0
  186.3730  178.3520  141.6120 C   0  0  0  0  0  2  0  0  0  0  0  0
  186.4570  178.3250  147.3330 C   0  0  0  0  0  0  0  0  0  0  0  0
  185.9090  179.0970  146.3040 C   0  0  0  0  0  3  0  0  0  0  0  0
  186.8480  177.0060  147.0840 C   0  0  0  0  0  3  0  0  0  0  0  0
  185.7520  178.5510  145.0270 C   0  0  0  0  0  3  0  0  0  0  0  0
  186.6880  176.4580  145.8080 C   0  0  0  0  0  3  0  0  0  0  0  0
  186.1370  177.2280  144.7700 C   0  0  0  0  0  0  0  0  0  0  0  0
  186.6090  178.8530  148.5700 F   0  0  0  0  0  0  0  0  0  0  0  0
  191.7660  171.8540  141.8350 C   0  0  2  0  0  3  0  0  0  0  0  0
  193.1900  171.3550  142.0200 C   0  0  0  0  0  2  0  0  0  0  0  0
  194.0220  171.8540  140.9300 N   0  0  0  0  0  2  0  0  0  0  0  0
  195.2840  172.3900  141.4490 C   0  0  1  0  0  3  0  0  0  0  0  0
  196.0470  171.3510  142.1210 N   0  0  0  0  0  1  0  0  0  0  0  0
  196.0840  172.9930  140.3890 N   0  0  0  0  0  2  0  0  0  0  0  0
  195.2840  174.0440  139.7800 C   0  0  0  0  0  2  0  0  0  0  0  0
  197.4340  175.0360  139.4920 O   0  0  0  0  0  1  0  0  0  0  0  0
  196.0870  175.3310  139.7030 C   0  0  2  0  0  3  0  0  0  0  0  0
  194.9090  176.8340  141.1430 O   0  0  0  0  0  0  0  0  0  0  0  0
  196.8840  176.8210  143.1840 C   0  0  0  0  0  1  0  0  0  0  0  0
  196.9550  176.0500  141.9540 N   0  0  0  0  0  2  0  0  0  0  0  0
  195.9330  176.1210  140.9600 C   0  0  0  0  0  0  0  0  0  0  0  0
  191.7220  172.6720  140.5500 C   0  0  0  0  0  2  0  0  0  0  0  0
  190.5370  172.2630  139.6900 C   0  0  0  0  0  2  0  0  0  0  0  0
  189.8420  170.5950  138.4270 C   0  0  0  0  0  1  0  0  0  0  0  0
  190.4340  170.8720  139.6590 O   0  0  0  0  0  0  0  0  0  0  0  0
  1  4  1  0  0  0  0
  1  6  1  0  0  0  0
  2  7  1  0  0  0  0
  3  2  1  0  0  0  0
  4 29  1  6  0  0  0
  4  3  1  0  0  0  0
  5  7  1  0  0  0  0
  6  8  1  1  0  0  0
  6  5  1  0  0  0  0
  8  9  1  0  0  0  0
  9 10  2  0  0  0  0
 11  8  1  0  0  0  0
 11 12  1  0  0  0  0
 13 12  1  0  0  0  0
 14 27  1  1  0  0  0
 15 20  1  0  0  0  0
 15 13  1  1  0  0  0
 17 14  1  0  0  0  0
 18 16  1  6  0  0  0
 18 15  1  0  0  0  0
 18 20  1  0  0  0  0
 19 18  1  0  0  0  0
 19 21  1  0  0  0  0
 20 14  1  0  0  0  0
 21 17  1  0  0  0  0
 22 28  1  0  0  0  0
 23 22  2  0  0  0  0
 24 22  1  0  0  0  0
 25 23  1  0  0  0  0
 26 24  2  0  0  0  0
 27 25  2  0  0  0  0
 27 26  1  0  0  0  0
 29 30  1  0  0  0  0
 31 32  1  0  0  0  0
 31 30  1  0  0  0  0
 32 33  1  0  0  0  0
 34 32  1  0  0  0  0
 35 34  1  0  0  0  0
 36 37  1  0  0  0  0
 37 35  1  0  0  0  0
 37 41  1  0  0  0  0
 40 39  1  0  0  0  0
 41 38  2  0  0  0  0
 41 40  1  0  0  0  0
 42 29  1  0  0  0  0
 43 42  1  0  0  0  0
 44 45  1  0  0  0  0
 45 43  1  0  0  0  0
M  END
>  <MODEL>
5

>  <REMARK>
 VINA RESULT:      -6.6      5.159     10.072
  Name = 
  18 active torsions:
  status: ('A' for Active; 'I' for Inactive)
    1  A    between atoms: N_2  and  C_20
    2  A    between atoms: N_2  and  C_33
    3  A    between atoms: N_5  and  C_16
    4  A    between atoms: N_5  and  C_20
    5  A    between atoms: C_9  and  N_39
    6  A    between atoms: C_10  and  C_21
    7  A    between atoms: C_10  and  O_35
    8  A    between atoms: C_11  and  C_34
    9  A    between atoms: C_13  and  C_27
   10  A    between atoms: C_15  and  N_39
   11  A    between atoms: C_15  and  C_45
   12  A    between atoms: C_16  and  C_43
   13  A    between atoms: C_21  and  C_30
   14  A    between atoms: C_23  and  C_30
   15  A    between atoms: C_27  and  C_45
   16  A    between atoms: C_30  and  C_33
   17  A    between atoms: C_38  and  N_39
   18  A    between atoms: C_43  and  C_44
                            x       y       z     vdW  Elec       q    Type
                         _______ _______ _______ _____ _____    ______ ____

>  <TORSDO>
F 18

$$$$
=
 OpenBabel11072408563D

 45 48  0  0  1  0  0  0  0  0999 V2000
  192.0200  174.2670  143.1160 C   0  0  0  0  0  2  0  0  0  0  0  0
  190.0390  171.6270  142.5880 C   0  0  0  0  0  2  0  0  0  0  0  0
  190.8920  172.5250  141.6980 C   0  0  0  0  0  2  0  0  0  0  0  0
  192.1770  172.9040  142.4330 C   0  0  1  0  0  3  0  0  0  0  0  0
  190.3000  173.0860  144.6420 C   0  0  0  0  0  2  0  0  0  0  0  0
  190.7900  174.4000  144.0310 C   0  0  1  0  0  3  0  0  0  0  0  0
  189.3240  172.4070  143.6890 C   0  0  0  0  0  2  0  0  0  0  0  0
  190.9890  175.4120  145.0780 N   0  0  0  0  0  0  0  0  0  0  0  0
  192.1470  175.3780  145.9200 C   0  0  0  0  0  3  0  0  0  0  0  0
  192.3150  176.2240  146.9330 C   0  0  0  0  0  2  0  0  0  0  0  0
  189.9970  176.4530  145.3590 C   0  0  0  0  0  2  0  0  0  0  0  0
  190.0290  177.5610  144.3120 C   0  0  0  0  0  2  0  0  0  0  0  0
  188.7670  177.5420  143.4710 C   0  0  0  0  0  2  0  0  0  0  0  0
  185.9210  176.6790  143.3830 C   0  0  1  0  0  3  0  0  0  0  0  0
  188.4940  176.1150  143.0080 C   0  0  2  0  0  3  0  0  0  0  0  0
  188.1980  174.8480  140.8370 C   0  0  0  0  0  1  0  0  0  0  0  0
  185.4130  177.6560  142.3180 C   0  0  0  0  0  2  0  0  0  0  0  0
  187.7760  176.0450  141.6620 C   0  0  2  0  0  0  0  0  0  0  0  0
  187.4120  177.3250  140.8760 C   0  0  0  0  0  2  0  0  0  0  0  0
  187.0110  175.6720  142.9310 C   0  0  2  0  0  3  0  0  0  0  0  0
  186.5820  178.3450  141.6460 C   0  0  0  0  0  2  0  0  0  0  0  0
  186.3180  178.3040  147.3600 C   0  0  0  0  0  0  0  0  0  0  0  0
  185.9360  179.1260  146.2950 C   0  0  0  0  0  3  0  0  0  0  0  0
  186.5810  176.9500  147.1380 C   0  0  0  0  0  3  0  0  0  0  0  0
  185.8180  178.5930  145.0080 C   0  0  0  0  0  3  0  0  0  0  0  0
  186.4600  176.4160  145.8520 C   0  0  0  0  0  3  0  0  0  0  0  0
  186.0760  177.2350  144.7770 C   0  0  0  0  0  0  0  0  0  0  0  0
  186.4310  178.8200  148.6070 F   0  0  0  0  0  0  0  0  0  0  0  0
  193.3960  172.8980  141.5000 C   0  0  2  0  0  3  0  0  0  0  0  0
  194.6860  173.0340  142.2930 C   0  0  0  0  0  2  0  0  0  0  0  0
  194.8960  171.8250  143.0820 N   0  0  0  0  0  2  0  0  0  0  0  0
  196.3070  171.4280  143.0490 C   0  0  1  0  0  3  0  0  0  0  0  0
  197.0190  172.1460  142.0050 N   0  0  0  0  0  1  0  0  0  0  0  0
  196.9540  171.6460  144.3380 N   0  0  0  0  0  2  0  0  0  0  0  0
  197.8750  172.7610  144.1840 C   0  0  0  0  0  2  0  0  0  0  0  0
  196.9200  173.2610  146.3120 O   0  0  0  0  0  1  0  0  0  0  0  0
  197.5770  173.8300  145.2200 C   0  0  2  0  0  3  0  0  0  0  0  0
  195.5980  175.1700  145.1150 O   0  0  0  0  0  0  0  0  0  0  0  0
  196.4490  176.6930  142.8740 C   0  0  0  0  0  1  0  0  0  0  0  0
  197.2340  175.6530  143.5180 N   0  0  0  0  0  2  0  0  0  0  0  0
  196.7330  174.9120  144.6300 C   0  0  0  0  0  0  0  0  0  0  0  0
  193.3320  174.0580  140.5130 C   0  0  0  0  0  2  0  0  0  0  0  0
  194.6100  174.1440  139.6950 C   0  0  0  0  0  2  0  0  0  0  0  0
  196.4800  175.2880  139.4580 C   0  0  0  0  0  1  0  0  0  0  0  0
  195.1260  175.4380  139.7600 O   0  0  0  0  0  0  0  0  0  0  0  0
  1  6  1  0  0  0  0
  2  7  1  0  0  0  0
  3  4  1  0  0  0  0
  3  2  1  0  0  0  0
  4 29  1  6  0  0  0
  4  1  1  0  0  0  0
  6  5  1  0  0  0  0
  6  8  1  1  0  0  0
  7  5  1  0  0  0  0
  8 11  1  0  0  0  0
  8  9  1  0  0  0  0
  9 10  2  0  0  0  0
 12 11  1  0  0  0  0
 13 12  1  0  0  0  0
 14 27  1  1  0  0  0
 15 13  1  1  0  0  0
 17 14  1  0  0  0  0
 18 16  1  6  0  0  0
 18 20  1  0  0  0  0
 18 15  1  0  0  0  0
 19 21  1  0  0  0  0
 19 18  1  0  0  0  0
 20 15  1  0  0  0  0
 20 14  1  0  0  0  0
 21 17  1  0  0  0  0
 22 28  1  0  0  0  0
 23 22  2  0  0  0  0
 24 22  1  0  0  0  0
 25 23  1  0  0  0  0
 26 24  2  0  0  0  0
 27 25  2  0  0  0  0
 27 26  1  0  0  0  0
 29 30  1  0  0  0  0
 30 31  1  0  0  0  0
 32 31  1  0  0  0  0
 32 34  1  0  0  0  0
 33 32  1  0  0  0  0
 35 34  1  0  0  0  0
 35 37  1  0  0  0  0
 37 36  1  0  0  0  0
 39 40  1  0  0  0  0
 40 41  1  0  0  0  0
 41 38  2  0  0  0  0
 41 37  1  0  0  0  0
 42 29  1  0  0  0  0
 43 45  1  0  0  0  0
 43 42  1  0  0  0  0
 44 45  1  0  0  0  0
M  END
>  <MODEL>
6

>  <REMARK>
 VINA RESULT:      -6.5      5.470     10.651
  Name = 
  18 active torsions:
  status: ('A' for Active; 'I' for Inactive)
    1  A    between atoms: N_2  and  C_20
    2  A    between atoms: N_2  and  C_33
    3  A    between atoms: N_5  and  C_16
    4  A    between atoms: N_5  and  C_20
    5  A    between atoms: C_9  and  N_39
    6  A    between atoms: C_10  and  C_21
    7  A    between atoms: C_10  and  O_35
    8  A    between atoms: C_11  and  C_34
    9  A    between atoms: C_13  and  C_27
   10  A    between atoms: C_15  and  N_39
   11  A    between atoms: C_15  and  C_45
   12  A    between atoms: C_16  and  C_43
   13  A    between atoms: C_21  and  C_30
   14  A    between atoms: C_23  and  C_30
   15  A    between atoms: C_27  and  C_45
   16  A    between atoms: C_30  and  C_33
   17  A    between atoms: C_38  and  N_39
   18  A    between atoms: C_43  and  C_44
                            x       y       z     vdW  Elec       q    Type
                         _______ _______ _______ _____ _____    ______ ____

>  <TORSDO>
F 18

$$$$
=
 OpenBabel11072408563D

 45 48  0  0  1  0  0  0  0  0999 V2000
  192.1600  174.5050  145.2480 C   0  0  0  0  0  2  0  0  0  0  0  0
  190.9160  171.8940  143.5710 C   0  0  0  0  0  2  0  0  0  0  0  0
  192.1330  172.7970  143.4030 C   0  0  0  0  0  2  0  0  0  0  0  0
  192.7030  173.1510  144.7760 C   0  0  1  0  0  3  0  0  0  0  0  0
  189.8680  173.3170  145.3870 C   0  0  0  0  0  2  0  0  0  0  0  0
  190.6260  174.6350  145.2260 C   0  0  1  0  0  3  0  0  0  0  0  0
  189.6760  172.6640  144.0230 C   0  0  0  0  0  2  0  0  0  0  0  0
  190.1440  175.6280  146.1960 N   0  0  0  0  0  0  0  0  0  0  0  0
  190.6870  175.6840  147.5200 C   0  0  0  0  0  3  0  0  0  0  0  0
  191.2320  176.7900  148.0200 C   0  0  0  0  0  2  0  0  0  0  0  0
  189.0510  176.5540  145.8900 C   0  0  0  0  0  2  0  0  0  0  0  0
  189.4530  177.5720  144.8290 C   0  0  0  0  0  2  0  0  0  0  0  0
  188.5030  177.5200  143.6480 C   0  0  0  0  0  2  0  0  0  0  0  0
  185.6570  176.8160  143.1400 C   0  0  1  0  0  3  0  0  0  0  0  0
  188.2050  176.0650  143.3060 C   0  0  2  0  0  3  0  0  0  0  0  0
  188.1940  174.5550  141.2760 C   0  0  0  0  0  1  0  0  0  0  0  0
  185.4200  177.6780  141.8980 C   0  0  0  0  0  2  0  0  0  0  0  0
  187.7290  175.8670  141.8700 C   0  0  2  0  0  0  0  0  0  0  0  0
  187.6080  177.0580  140.8900 C   0  0  0  0  0  2  0  0  0  0  0  0
  186.7270  175.7000  143.0120 C   0  0  2  0  0  3  0  0  0  0  0  0
  186.7380  178.2110  141.3760 C   0  0  0  0  0  2  0  0  0  0  0  0
  185.5560  178.8210  146.9590 C   0  0  0  0  0  0  0  0  0  0  0  0
  185.5530  177.4250  146.8930 C   0  0  0  0  0  3  0  0  0  0  0  0
  185.5830  179.5760  145.7830 C   0  0  0  0  0  3  0  0  0  0  0  0
  185.5770  176.7830  145.6520 C   0  0  0  0  0  3  0  0  0  0  0  0
  185.6110  178.9350  144.5410 C   0  0  0  0  0  3  0  0  0  0  0  0
  185.6100  177.5320  144.4670 C   0  0  0  0  0  0  0  0  0  0  0  0
  185.5330  179.4430  148.1610 F   0  0  0  0  0  0  0  0  0  0  0  0
  194.2380  173.1490  144.7790 C   0  0  2  0  0  3  0  0  0  0  0  0
  194.7760  171.8170  145.2760 C   0  0  0  0  0  2  0  0  0  0  0  0
  195.2400  171.0290  144.1390 N   0  0  0  0  0  2  0  0  0  0  0  0
  194.7890  169.6390  144.2590 C   0  0  1  0  0  3  0  0  0  0  0  0
  193.5500  169.5630  145.0140 N   0  0  0  0  0  1  0  0  0  0  0  0
  194.6170  169.0190  142.9490 N   0  0  0  0  0  2  0  0  0  0  0  0
  193.2330  169.2170  142.5490 C   0  0  0  0  0  2  0  0  0  0  0  0
  193.6190  170.9240  140.9280 O   0  0  0  0  0  1  0  0  0  0  0  0
  193.1670  169.6140  141.0840 C   0  0  2  0  0  3  0  0  0  0  0  0
  190.8310  169.1740  141.3510 O   0  0  0  0  0  0  0  0  0  0  0  0
  190.1790  169.6370  138.6260 C   0  0  0  0  0  1  0  0  0  0  0  0
  191.5090  169.7660  139.1950 N   0  0  0  0  0  2  0  0  0  0  0  0
  191.7690  169.4980  140.5730 C   0  0  0  0  0  0  0  0  0  0  0  0
  194.7830  174.2420  145.6910 C   0  0  0  0  0  2  0  0  0  0  0  0
  196.0000  174.9070  145.0700 C   0  0  0  0  0  2  0  0  0  0  0  0
  194.9250  176.8130  145.3400 C   0  0  0  0  0  1  0  0  0  0  0  0
  195.6110  176.0600  144.3880 O   0  0  0  0  0  0  0  0  0  0  0  0
  2  7  1  0  0  0  0
  3  2  1  0  0  0  0
  3  4  1  0  0  0  0
  4 29  1  6  0  0  0
  4  1  1  0  0  0  0
  6  1  1  0  0  0  0
  6  5  1  0  0  0  0
  6  8  1  1  0  0  0
  7  5  1  0  0  0  0
  8  9  1  0  0  0  0
  9 10  2  0  0  0  0
 11  8  1  0  0  0  0
 12 11  1  0  0  0  0
 13 12  1  0  0  0  0
 14 27  1  1  0  0  0
 15 13  1  6  0  0  0
 17 14  1  0  0  0  0
 18 16  1  6  0  0  0
 18 20  1  0  0  0  0
 18 15  1  0  0  0  0
 19 21  1  0  0  0  0
 19 18  1  0  0  0  0
 20 14  1  0  0  0  0
 20 15  1  0  0  0  0
 21 17  1  0  0  0  0
 22 28  1  0  0  0  0
 23 22  1  0  0  0  0
 24 22  2  0  0  0  0
 25 23  2  0  0  0  0
 26 24  1  0  0  0  0
 27 26  2  0  0  0  0
 27 25  1  0  0  0  0
 29 30  1  0  0  0  0
 29 42  1  0  0  0  0
 31 32  1  0  0  0  0
 31 30  1  0  0  0  0
 32 33  1  0  0  0  0
 34 32  1  0  0  0  0
 35 34  1  0  0  0  0
 36 37  1  0  0  0  0
 37 35  1  0  0  0  0
 39 40  1  0  0  0  0
 40 41  1  0  0  0  0
 41 37  1  0  0  0  0
 41 38  2  0  0  0  0
 43 42  1  0  0  0  0
 45 43  1  0  0  0  0
 45 44  1  0  0  0  0
M  END
>  <MODEL>
7

>  <REMARK>
 VINA RESULT:      -6.4      5.210      9.899
  Name = 
  18 active torsions:
  status: ('A' for Active; 'I' for Inactive)
    1  A    between atoms: N_2  and  C_20
    2  A    between atoms: N_2  and  C_33
    3  A    between atoms: N_5  and  C_16
    4  A    between atoms: N_5  and  C_20
    5  A    between atoms: C_9  and  N_39
    6  A    between atoms: C_10  and  C_21
    7  A    between atoms: C_10  and  O_35
    8  A    between atoms: C_11  and  C_34
    9  A    between atoms: C_13  and  C_27
   10  A    between atoms: C_15  and  N_39
   11  A    between atoms: C_15  and  C_45
   12  A    between atoms: C_16  and  C_43
   13  A    between atoms: C_21  and  C_30
   14  A    between atoms: C_23  and  C_30
   15  A    between atoms: C_27  and  C_45
   16  A    between atoms: C_30  and  C_33
   17  A    between atoms: C_38  and  N_39
   18  A    between atoms: C_43  and  C_44
                            x       y       z     vdW  Elec       q    Type
                         _______ _______ _______ _____ _____    ______ ____

>  <TORSDO>
F 18

$$$$
=
 OpenBabel11072408563D

 45 48  0  0  1  0  0  0  0  0999 V2000
  191.5980  174.2280  143.0250 C   0  0  0  0  0  2  0  0  0  0  0  0
  189.7050  172.3850  145.0710 C   0  0  0  0  0  2  0  0  0  0  0  0
  189.9300  172.4270  143.5640 C   0  0  0  0  0  2  0  0  0  0  0  0
  191.3990  172.7290  143.2740 C   0  0  1  0  0  3  0  0  0  0  0  0
  190.9850  174.5240  145.5190 C   0  0  0  0  0  2  0  0  0  0  0  0
  191.0420  175.1500  144.1250 C   0  0  1  0  0  3  0  0  0  0  0  0
  189.6680  173.7780  145.6950 C   0  0  0  0  0  2  0  0  0  0  0  0
  191.7430  176.4410  144.1690 N   0  0  0  0  0  0  0  0  0  0  0  0
  193.0560  176.5430  144.7330 C   0  0  0  0  0  3  0  0  0  0  0  0
  194.1260  176.0160  144.1450 C   0  0  0  0  0  2  0  0  0  0  0  0
  191.1220  177.6860  143.7090 C   0  0  0  0  0  2  0  0  0  0  0  0
  189.7340  177.8790  144.3090 C   0  0  0  0  0  2  0  0  0  0  0  0
  188.6660  177.7650  143.2390 C   0  0  0  0  0  2  0  0  0  0  0  0
  185.9300  176.6030  143.3850 C   0  0  1  0  0  3  0  0  0  0  0  0
  188.5160  176.3040  142.8310 C   0  0  2  0  0  3  0  0  0  0  0  0
  188.2030  174.9430  140.7210 C   0  0  0  0  0  1  0  0  0  0  0  0
  185.2450  177.4860  142.3390 C   0  0  0  0  0  2  0  0  0  0  0  0
  187.7150  176.1150  141.5460 C   0  0  2  0  0  0  0  0  0  0  0  0
  187.1590  177.3230  140.7590 C   0  0  0  0  0  2  0  0  0  0  0  0
  187.0870  175.7040  142.8780 C   0  0  2  0  0  3  0  0  0  0  0  0
  186.2800  178.2740  141.5640 C   0  0  0  0  0  2  0  0  0  0  0  0
  186.5350  178.3270  147.2940 C   0  0  0  0  0  0  0  0  0  0  0  0
  186.8970  177.0010  147.0420 C   0  0  0  0  0  3  0  0  0  0  0  0
  185.9660  179.1010  146.2790 C   0  0  0  0  0  3  0  0  0  0  0  0
  186.6900  176.4470  145.7750 C   0  0  0  0  0  3  0  0  0  0  0  0
  185.7620  178.5490  145.0110 C   0  0  0  0  0  3  0  0  0  0  0  0
  186.1240  177.2170  144.7500 C   0  0  0  0  0  0  0  0  0  0  0  0
  186.7370  178.8640  148.5200 F   0  0  0  0  0  0  0  0  0  0  0  0
  191.9330  171.9050  142.0920 C   0  0  2  0  0  3  0  0  0  0  0  0
  193.0810  171.0110  142.5310 C   0  0  0  0  0  2  0  0  0  0  0  0
  192.5750  169.9840  143.4350 N   0  0  0  0  0  2  0  0  0  0  0  0
  193.5530  169.7000  144.4900 C   0  0  1  0  0  3  0  0  0  0  0  0
  193.8350  168.2760  144.5600 N   0  0  0  0  0  1  0  0  0  0  0  0
  194.7890  170.4470  144.2870 N   0  0  0  0  0  2  0  0  0  0  0  0
  195.8940  169.5120  144.4230 C   0  0  0  0  0  2  0  0  0  0  0  0
  196.2560  169.8790  146.7520 O   0  0  0  0  0  1  0  0  0  0  0  0
  196.8540  169.9930  145.4970 C   0  0  2  0  0  3  0  0  0  0  0  0
  197.9410  171.7140  144.2420 O   0  0  0  0  0  0  0  0  0  0  0  0
  197.1980  173.8130  146.0050 C   0  0  0  0  0  1  0  0  0  0  0  0
  196.8200  172.4190  146.1670 N   0  0  0  0  0  2  0  0  0  0  0  0
  197.2480  171.4120  145.2510 C   0  0  0  0  0  0  0  0  0  0  0  0
  192.4470  172.8150  140.9830 C   0  0  0  0  0  2  0  0  0  0  0  0
  192.2020  172.1930  139.6180 C   0  0  0  0  0  2  0  0  0  0  0  0
  190.7820  171.9070  137.9560 C   0  0  0  0  0  1  0  0  0  0  0  0
  191.0350  172.7180  139.0620 O   0  0  0  0  0  0  0  0  0  0  0  0
  1  4  1  0  0  0  0
  1  6  1  0  0  0  0
  2  7  1  0  0  0  0
  3  2  1  0  0  0  0
  4 29  1  6  0  0  0
  4  3  1  0  0  0  0
  5  7  1  0  0  0  0
  6  8  1  1  0  0  0
  6  5  1  0  0  0  0
  8  9  1  0  0  0  0
 10  9  2  0  0  0  0
 11  8  1  0  0  0  0
 11 12  1  0  0  0  0
 13 12  1  0  0  0  0
 14 27  1  1  0  0  0
 15 20  1  0  0  0  0
 15 13  1  1  0  0  0
 17 14  1  0  0  0  0
 18 16  1  6  0  0  0
 18 15  1  0  0  0  0
 18 20  1  0  0  0  0
 19 18  1  0  0  0  0
 19 21  1  0  0  0  0
 20 14  1  0  0  0  0
 21 17  1  0  0  0  0
 22 28  1  0  0  0  0
 23 22  1  0  0  0  0
 24 22  2  0  0  0  0
 25 23  2  0  0  0  0
 26 24  1  0  0  0  0
 27 26  2  0  0  0  0
 27 25  1  0  0  0  0
 29 30  1  0  0  0  0
 30 31  1  0  0  0  0
 31 32  1  0  0  0  0
 32 33  1  0  0  0  0
 34 35  1  0  0  0  0
 34 32  1  0  0  0  0
 35 37  1  0  0  0  0
 37 36  1  0  0  0  0
 38 41  2  0  0  0  0
 39 40  1  0  0  0  0
 41 37  1  0  0  0  0
 41 40  1  0  0  0  0
 42 29  1  0  0  0  0
 43 42  1  0  0  0  0
 44 45  1  0  0  0  0
 45 43  1  0  0  0  0
M  END
>  <MODEL>
8

>  <REMARK>
 VINA RESULT:      -6.4      5.081     10.805
  Name = 
  18 active torsions:
  status: ('A' for Active; 'I' for Inactive)
    1  A    between atoms: N_2  and  C_20
    2  A    between atoms: N_2  and  C_33
    3  A    between atoms: N_5  and  C_16
    4  A    between atoms: N_5  and  C_20
    5  A    between atoms: C_9  and  N_39
    6  A    between atoms: C_10  and  C_21
    7  A    between atoms: C_10  and  O_35
    8  A    between atoms: C_11  and  C_34
    9  A    between atoms: C_13  and  C_27
   10  A    between atoms: C_15  and  N_39
   11  A    between atoms: C_15  and  C_45
   12  A    between atoms: C_16  and  C_43
   13  A    between atoms: C_21  and  C_30
   14  A    between atoms: C_23  and  C_30
   15  A    between atoms: C_27  and  C_45
   16  A    between atoms: C_30  and  C_33
   17  A    between atoms: C_38  and  N_39
   18  A    between atoms: C_43  and  C_44
                            x       y       z     vdW  Elec       q    Type
                         _______ _______ _______ _____ _____    ______ ____

>  <TORSDO>
F 18

$$$$
=
 OpenBabel11072408563D

 45 48  0  0  1  0  0  0  0  0999 V2000
  192.7740  173.6300  145.3090 C   0  0  0  0  0  2  0  0  0  0  0  0
  195.6820  175.2340  144.9330 C   0  0  0  0  0  2  0  0  0  0  0  0
  195.2580  173.7700  144.9520 C   0  0  0  0  0  2  0  0  0  0  0  0
  193.9000  173.6200  144.2690 C   0  0  1  0  0  3  0  0  0  0  0  0
  193.4300  176.0980  145.7090 C   0  0  0  0  0  2  0  0  0  0  0  0
  192.7880  174.8300  146.2730 C   0  0  1  0  0  3  0  0  0  0  0  0
  194.9320  176.0720  145.9670 C   0  0  0  0  0  2  0  0  0  0  0  0
  191.4500  175.1230  146.8060 N   0  0  0  0  0  0  0  0  0  0  0  0
  191.2940  175.8250  148.0450 C   0  0  0  0  0  3  0  0  0  0  0  0
  191.3820  177.1500  148.1290 C   0  0  0  0  0  2  0  0  0  0  0  0
  190.2260  174.6620  146.1470 C   0  0  0  0  0  2  0  0  0  0  0  0
  188.9950  174.8980  147.0150 C   0  0  0  0  0  2  0  0  0  0  0  0
  187.9630  175.7210  146.2700 C   0  0  0  0  0  2  0  0  0  0  0  0
  187.5220  178.0260  144.4400 C   0  0  1  0  0  3  0  0  0  0  0  0
  187.8610  177.1000  146.9120 C   0  0  2  0  0  3  0  0  0  0  0  0
  186.1100  178.5600  148.0100 C   0  0  0  0  0  1  0  0  0  0  0  0
  186.1480  177.6300  143.8910 C   0  0  0  0  0  2  0  0  0  0  0  0
  186.4680  177.7150  146.8070 C   0  0  2  0  0  0  0  0  0  0  0  0
  185.3030  176.9560  146.1310 C   0  0  0  0  0  2  0  0  0  0  0  0
  187.6020  178.3000  145.9650 C   0  0  2  0  0  3  0  0  0  0  0  0
  185.5720  176.4900  144.7050 C   0  0  0  0  0  2  0  0  0  0  0  0
  190.9520  176.0200  142.7590 C   0  0  0  0  0  0  0  0  0  0  0  0
  191.1160  177.1700  143.5370 C   0  0  0  0  0  3  0  0  0  0  0  0
  189.6700  175.5190  142.5150 C   0  0  0  0  0  3  0  0  0  0  0  0
  189.9980  177.8190  144.0710 C   0  0  0  0  0  3  0  0  0  0  0  0
  188.5530  176.1650  143.0520 C   0  0  0  0  0  3  0  0  0  0  0  0
  188.7100  177.3200  143.8350 C   0  0  0  0  0  0  0  0  0  0  0  0
  192.0340  175.3920  142.2430 F   0  0  0  0  0  0  0  0  0  0  0  0
  193.8290  172.3550  143.4010 C   0  0  2  0  0  3  0  0  0  0  0  0
  192.4000  171.8470  143.2990 C   0  0  0  0  0  2  0  0  0  0  0  0
  191.8440  172.2300  142.0060 N   0  0  0  0  0  2  0  0  0  0  0  0
  191.5260  171.0410  141.2100 C   0  0  1  0  0  3  0  0  0  0  0  0
  190.9000  170.0210  142.0360 N   0  0  0  0  0  1  0  0  0  0  0  0
  190.6640  171.3700  140.0800 N   0  0  0  0  0  2  0  0  0  0  0  0
  190.8630  172.7760  139.7700 C   0  0  0  0  0  2  0  0  0  0  0  0
  188.4870  172.5720  139.8030 O   0  0  0  0  0  1  0  0  0  0  0  0
  189.5300  173.4390  139.4730 C   0  0  2  0  0  3  0  0  0  0  0  0
  188.3410  174.1810  137.5350 O   0  0  0  0  0  0  0  0  0  0  0  0
  190.5900  174.0670  135.8050 C   0  0  0  0  0  1  0  0  0  0  0  0
  190.6160  173.7520  137.2230 N   0  0  0  0  0  2  0  0  0  0  0  0
  189.4400  173.8110  138.0300 C   0  0  0  0  0  0  0  0  0  0  0  0
  194.6790  171.2380  143.9970 C   0  0  0  0  0  2  0  0  0  0  0  0
  193.9310  169.9160  143.9680 C   0  0  0  0  0  2  0  0  0  0  0  0
  195.0220  169.7820  145.8790 C   0  0  0  0  0  1  0  0  0  0  0  0
  194.5500  169.0040  144.8230 O   0  0  0  0  0  0  0  0  0  0  0  0
  1  6  1  0  0  0  0
  2  3  1  0  0  0  0
  2  7  1  0  0  0  0
  4 29  1  1  0  0  0
  4  3  1  0  0  0  0
  4  1  1  0  0  0  0
  5  7  1  0  0  0  0
  5  6  1  0  0  0  0
  6  8  1  6  0  0  0
  8  9  1  0  0  0  0
  9 10  2  0  0  0  0
 11  8  1  0  0  0  0
 11 12  1  0  0  0  0
 13 12  1  0  0  0  0
 14 27  1  1  0  0  0
 14 20  1  0  0  0  0
 15 13  1  6  0  0  0
 17 14  1  0  0  0  0
 17 21  1  0  0  0  0
 18 15  1  0  0  0  0
 18 16  1  1  0  0  0
 19 18  1  0  0  0  0
 20 18  1  0  0  0  0
 20 15  1  0  0  0  0
 21 19  1  0  0  0  0
 22 23  1  0  0  0  0
 23 25  2  0  0  0  0
 24 22  2  0  0  0  0
 24 26  1  0  0  0  0
 26 27  2  0  0  0  0
 27 25  1  0  0  0  0
 28 22  1  0  0  0  0
 29 42  1  0  0  0  0
 30 29  1  0  0  0  0
 31 30  1  0  0  0  0
 32 31  1  0  0  0  0
 32 33  1  0  0  0  0
 34 32  1  0  0  0  0
 35 34  1  0  0  0  0
 37 35  1  0  0  0  0
 37 36  1  0  0  0  0
 38 41  2  0  0  0  0
 39 40  1  0  0  0  0
 40 41  1  0  0  0  0
 41 37  1  0  0  0  0
 43 42  1  0  0  0  0
 43 45  1  0  0  0  0
 45 44  1  0  0  0  0
M  END
>  <MODEL>
9

>  <REMARK>
 VINA RESULT:      -6.3      4.772      8.690
  Name = 
  18 active torsions:
  status: ('A' for Active; 'I' for Inactive)
    1  A    between atoms: N_2  and  C_20
    2  A    between atoms: N_2  and  C_33
    3  A    between atoms: N_5  and  C_16
    4  A    between atoms: N_5  and  C_20
    5  A    between atoms: C_9  and  N_39
    6  A    between atoms: C_10  and  C_21
    7  A    between atoms: C_10  and  O_35
    8  A    between atoms: C_11  and  C_34
    9  A    between atoms: C_13  and  C_27
   10  A    between atoms: C_15  and  N_39
   11  A    between atoms: C_15  and  C_45
   12  A    between atoms: C_16  and  C_43
   13  A    between atoms: C_21  and  C_30
   14  A    between atoms: C_23  and  C_30
   15  A    between atoms: C_27  and  C_45
   16  A    between atoms: C_30  and  C_33
   17  A    between atoms: C_38  and  N_39
   18  A    between atoms: C_43  and  C_44
                            x       y       z     vdW  Elec       q    Type
                         _______ _______ _______ _____ _____    ______ ____

>  <TORSDO>
F 18

$$$$
