=
 OpenBabel11072408453D

 36 40  0  0  1  0  0  0  0  0999 V2000
  188.4530  175.6260  141.5390 N   0  0  0  0  0  0  0  0  0  0  0  0
  193.8700  176.9430  144.8520 O   0  0  0  0  0  0  0  0  0  0  0  0
  190.4450  175.8340  142.9060 C   0  0  0  0  0  0  0  0  0  0  0  0
  192.2780  175.1850  144.4920 C   0  0  1  0  0  3  0  0  0  0  0  0
  190.5830  177.1490  143.1220 C   0  0  0  0  0  0  0  0  0  0  0  0
  191.8260  177.6540  143.7970 C   0  0  0  0  0  2  0  0  0  0  0  0
  190.9480  173.6990  142.9760 C   0  0  0  0  0  0  0  0  0  0  0  0
  192.4950  176.6710  144.7560 C   0  0  1  0  0  0  0  0  0  0  0  0
  191.3160  174.9280  143.4170 N   0  0  0  0  0  0  0  0  0  0  0  0
  189.5000  175.1650  142.1450 C   0  0  0  0  0  0  0  0  0  0  0  0
  189.7040  178.1410  142.6810 O   0  0  0  0  0  0  0  0  0  0  0  0
  187.9290  176.9530  141.4670 C   0  0  0  0  0  0  0  0  0  0  0  0
  193.5000  175.9080  143.9700 C   0  0  1  0  0  3  0  0  0  0  0  0
  188.4990  178.0370  141.9830 C   0  0  0  0  0  3  0  0  0  0  0  0
  189.8250  173.8250  142.1690 C   0  0  0  0  0  0  0  0  0  0  0  0
  191.1860  171.6920  144.3000 N   0  0  0  0  0  1  0  0  0  0  0  0
  192.7320  171.9520  142.5680 N   0  0  0  0  0  2  0  0  0  0  0  0
  191.6280  172.4240  143.3310 C   0  0  0  0  0  0  0  0  0  0  0  0
  189.0240  172.7290  141.5390 C   0  0  0  0  0  2  0  0  0  0  0  0
  189.7210  172.2360  140.2830 C   0  0  0  0  0  2  0  0  0  0  0  0
  189.2370  173.0020  139.1040 C   0  0  0  0  0  0  0  0  0  0  0  0
  190.1270  173.7540  138.3480 O   0  0  0  0  0  0  0  0  0  0  0  0
  188.0170  172.9850  138.8050 O   0  0  0  0  0  1  0  0  0  0  0  0
  186.6130  177.1400  140.7870 C   0  0  0  0  0  2  0  0  0  0  0  0
  185.9100  178.3910  141.2970 C   0  0  0  0  0  2  0  0  0  0  0  0
  184.5160  178.0480  141.7960 C   0  0  0  0  0  2  0  0  0  0  0  0
  184.3800  178.3270  143.2880 C   0  0  2  0  0  3  0  0  0  0  0  0
  183.1770  178.9900  143.5340 O   0  0  0  0  0  1  0  0  0  0  0  0
  185.5570  179.1340  143.8480 C   0  0  0  0  0  2  0  0  0  0  0  0
  186.8560  177.4760  145.2580 N   0  0  0  0  0  2  0  0  0  0  0  0
  185.6850  179.2500  146.2240 O   0  0  0  0  0  0  0  0  0  0  0  0
  186.0290  178.6370  145.1780 C   0  0  0  0  0  0  0  0  0  0  0  0
  187.3190  176.9520  146.5340 C   0  0  0  0  0  2  0  0  0  0  0  0
  189.7420  177.5090  146.6960 O   0  0  0  0  0  1  0  0  0  0  0  0
  188.7520  176.5720  146.4270 C   0  0  0  0  0  0  0  0  0  0  0  0
  189.0680  175.4110  146.0590 O   0  0  0  0  0  0  0  0  0  0  0  0
  1 10  2  0  0  0  0
  3  5  2  0  0  0  0
  3  9  1  0  0  0  0
  4  9  1  6  0  0  0
  4  8  1  0  0  0  0
  5  6  1  0  0  0  0
  7 18  1  0  0  0  0
  7  9  1  0  0  0  0
  8  6  1  6  0  0  0
  8  2  1  0  0  0  0
 10 15  1  0  0  0  0
 10  3  1  0  0  0  0
 11  5  1  0  0  0  0
 12  1  1  0  0  0  0
 12 14  2  0  0  0  0
 13  4  1  0  0  0  0
 13  8  1  0  0  0  0
 13  2  1  1  0  0  0
 14 11  1  0  0  0  0
 15  7  2  0  0  0  0
 17 18  2  0  0  0  0
 18 16  1  0  0  0  0
 19 15  1  0  0  0  0
 20 19  1  0  0  0  0
 21 20  1  0  0  0  0
 22 21  2  0  0  0  0
 23 21  1  0  0  0  0
 24 25  1  0  0  0  0
 24 12  1  0  0  0  0
 25 26  1  0  0  0  0
 26 27  1  0  0  0  0
 27 28  1  6  0  0  0
 27 29  1  0  0  0  0
 29 32  1  0  0  0  0
 30 33  1  0  0  0  0
 32 30  1  0  0  0  0
 32 31  2  0  0  0  0
 35 33  1  0  0  0  0
 35 34  1  0  0  0  0
 36 35  2  0  0  0  0
M  END
>  <MODEL>
1

>  <REMARK>
 VINA RESULT:      -6.4      0.000      0.000
  Name = 
  12 active torsions:
  status: ('A' for Active; 'I' for Inactive)
    1  A    between atoms: N_3  and  C_9
    2  A    between atoms: C_5  and  C_12
    3  A    between atoms: C_5  and  C_36
    4  A    between atoms: C_6  and  C_8
    5  A    between atoms: C_6  and  C_30
    6  A    between atoms: C_8  and  C_29
    7  A    between atoms: C_9  and  C_13
    8  A    between atoms: C_12  and  C_18
    9  A    between atoms: C_19  and  C_20
   10  A    between atoms: C_19  and  C_30
   11  A    between atoms: C_20  and  C_33
   12  A    between atoms: C_22  and  C_31
                            x       y       z     vdW  Elec       q    Type
                         _______ _______ _______ _____ _____    ______ ____

>  <TORSDO>
F 12

$$$$
=
 OpenBabel11072408453D

 36 40  0  0  1  0  0  0  0  0999 V2000
  189.5540  176.1750  144.2140 N   0  0  0  0  0  0  0  0  0  0  0  0
  195.6800  175.0220  146.0040 O   0  0  0  0  0  0  0  0  0  0  0  0
  191.8230  175.4780  144.7160 C   0  0  0  0  0  0  0  0  0  0  0  0
  193.9270  174.1130  144.6430 C   0  0  1  0  0  3  0  0  0  0  0  0
  192.1010  176.0330  145.9040 C   0  0  0  0  0  0  0  0  0  0  0  0
  193.5010  175.9480  146.4420 C   0  0  0  0  0  2  0  0  0  0  0  0
  192.1740  174.3490  142.8680 C   0  0  0  0  0  0  0  0  0  0  0  0
  194.3050  174.7330  145.9830 C   0  0  1  0  0  0  0  0  0  0  0  0
  192.7220  174.7070  144.0560 N   0  0  0  0  0  0  0  0  0  0  0  0
  190.6800  175.5930  143.9420 C   0  0  0  0  0  0  0  0  0  0  0  0
  191.2150  176.7910  146.6740 O   0  0  0  0  0  0  0  0  0  0  0  0
  189.1240  176.8650  145.3870 C   0  0  0  0  0  0  0  0  0  0  0  0
  195.0400  175.1320  144.7540 C   0  0  1  0  0  3  0  0  0  0  0  0
  189.8760  177.1170  146.4540 C   0  0  0  0  0  3  0  0  0  0  0  0
  190.9040  174.9030  142.7700 C   0  0  0  0  0  0  0  0  0  0  0  0
  192.7830  172.1900  141.9700 N   0  0  0  0  0  1  0  0  0  0  0  0
  193.4470  174.0380  140.7040 N   0  0  0  0  0  2  0  0  0  0  0  0
  192.8260  173.4770  141.8540 C   0  0  0  0  0  0  0  0  0  0  0  0
  189.9020  174.7020  141.6780 C   0  0  0  0  0  2  0  0  0  0  0  0
  189.1960  173.3700  141.8620 C   0  0  0  0  0  2  0  0  0  0  0  0
  189.0380  172.6970  140.5470 C   0  0  0  0  0  0  0  0  0  0  0  0
  190.1060  172.0140  139.9800 O   0  0  0  0  0  1  0  0  0  0  0  0
  187.9410  172.7640  139.9370 O   0  0  0  0  0  0  0  0  0  0  0  0
  187.7010  177.3160  145.4400 C   0  0  0  0  0  2  0  0  0  0  0  0
  186.9410  176.5840  146.5380 C   0  0  0  0  0  2  0  0  0  0  0  0
  185.4470  176.8330  146.4020 C   0  0  0  0  0  2  0  0  0  0  0  0
  185.1260  178.3200  146.4880 C   0  0  2  0  0  3  0  0  0  0  0  0
  184.6120  178.6160  147.7510 O   0  0  0  0  0  1  0  0  0  0  0  0
  184.1520  178.7790  145.3960 C   0  0  0  0  0  2  0  0  0  0  0  0
  184.7620  178.0680  143.0410 N   0  0  0  0  0  2  0  0  0  0  0  0
  185.4470  180.1220  143.9140 O   0  0  0  0  0  0  0  0  0  0  0  0
  184.8240  179.0400  144.0840 C   0  0  0  0  0  0  0  0  0  0  0  0
  185.4170  178.2780  141.7590 C   0  0  0  0  0  2  0  0  0  0  0  0
  187.8890  178.3980  142.0440 O   0  0  0  0  0  1  0  0  0  0  0  0
  186.7580  177.6380  141.7730 C   0  0  0  0  0  0  0  0  0  0  0  0
  186.8730  176.4140  141.5060 O   0  0  0  0  0  0  0  0  0  0  0  0
  1 12  1  0  0  0  0
  3  5  2  0  0  0  0
  4  9  1  6  0  0  0
  4 13  1  0  0  0  0
  4  8  1  0  0  0  0
  5  6  1  0  0  0  0
  5 11  1  0  0  0  0
  7  9  1  0  0  0  0
  8  2  1  0  0  0  0
  8  6  1  1  0  0  0
  9  3  1  0  0  0  0
 10  1  2  0  0  0  0
 10  3  1  0  0  0  0
 12 24  1  0  0  0  0
 12 14  2  0  0  0  0
 13  8  1  0  0  0  0
 13  2  1  1  0  0  0
 14 11  1  0  0  0  0
 15  7  2  0  0  0  0
 15 10  1  0  0  0  0
 17 18  2  0  0  0  0
 18 16  1  0  0  0  0
 18  7  1  0  0  0  0
 19 20  1  0  0  0  0
 19 15  1  0  0  0  0
 21 20  1  0  0  0  0
 22 21  1  0  0  0  0
 23 21  2  0  0  0  0
 24 25  1  0  0  0  0
 26 27  1  0  0  0  0
 26 25  1  0  0  0  0
 27 28  1  1  0  0  0
 29 27  1  0  0  0  0
 30 32  1  0  0  0  0
 31 32  2  0  0  0  0
 32 29  1  0  0  0  0
 33 35  1  0  0  0  0
 33 30  1  0  0  0  0
 35 34  1  0  0  0  0
 36 35  2  0  0  0  0
M  END
>  <MODEL>
2

>  <REMARK>
 VINA RESULT:      -6.3      1.810      3.385
  Name = 
  12 active torsions:
  status: ('A' for Active; 'I' for Inactive)
    1  A    between atoms: N_3  and  C_9
    2  A    between atoms: C_5  and  C_12
    3  A    between atoms: C_5  and  C_36
    4  A    between atoms: C_6  and  C_8
    5  A    between atoms: C_6  and  C_30
    6  A    between atoms: C_8  and  C_29
    7  A    between atoms: C_9  and  C_13
    8  A    between atoms: C_12  and  C_18
    9  A    between atoms: C_19  and  C_20
   10  A    between atoms: C_19  and  C_30
   11  A    between atoms: C_20  and  C_33
   12  A    between atoms: C_22  and  C_31
                            x       y       z     vdW  Elec       q    Type
                         _______ _______ _______ _____ _____    ______ ____

>  <TORSDO>
F 12

$$$$
=
 OpenBabel11072408453D

 36 40  0  0  1  0  0  0  0  0999 V2000
  189.4510  174.9390  144.8660 N   0  0  0  0  0  0  0  0  0  0  0  0
  195.6880  176.5660  144.1490 O   0  0  0  0  0  0  0  0  0  0  0  0
  191.8500  175.2590  144.7030 C   0  0  0  0  0  0  0  0  0  0  0  0
  194.2970  174.7110  144.7640 C   0  0  1  0  0  3  0  0  0  0  0  0
  192.0360  176.5770  144.8580 C   0  0  0  0  0  0  0  0  0  0  0  0
  193.4050  177.1540  144.6390 C   0  0  0  0  0  2  0  0  0  0  0  0
  192.3770  173.1620  144.3270 C   0  0  0  0  0  0  0  0  0  0  0  0
  194.5680  176.2030  144.9160 C   0  0  1  0  0  0  0  0  0  0  0  0
  192.8860  174.4060  144.5100 N   0  0  0  0  0  0  0  0  0  0  0  0
  190.6660  174.5400  144.6620 C   0  0  0  0  0  0  0  0  0  0  0  0
  191.0320  177.5140  145.1170 O   0  0  0  0  0  0  0  0  0  0  0  0
  188.9410  176.2280  145.2100 C   0  0  0  0  0  0  0  0  0  0  0  0
  194.8930  175.5230  143.6350 C   0  0  1  0  0  3  0  0  0  0  0  0
  189.6620  177.3400  145.3170 C   0  0  0  0  0  3  0  0  0  0  0  0
  190.9920  173.2250  144.4040 C   0  0  0  0  0  0  0  0  0  0  0  0
  193.4760  171.5400  142.9140 N   0  0  0  0  0  2  0  0  0  0  0  0
  193.7070  171.2010  145.2140 N   0  0  0  0  0  1  0  0  0  0  0  0
  193.1830  171.9310  144.1110 C   0  0  0  0  0  0  0  0  0  0  0  0
  190.0210  172.0880  144.3510 C   0  0  0  0  0  2  0  0  0  0  0  0
  189.2380  172.1360  143.0500 C   0  0  0  0  0  2  0  0  0  0  0  0
  190.0470  171.5480  141.9520 C   0  0  0  0  0  0  0  0  0  0  0  0
  190.4030  170.2060  141.9890 O   0  0  0  0  0  1  0  0  0  0  0  0
  190.4280  172.2730  140.9980 O   0  0  0  0  0  0  0  0  0  0  0  0
  187.4820  176.3350  145.5090 C   0  0  0  0  0  2  0  0  0  0  0  0
  187.2470  176.5430  146.9990 C   0  0  0  0  0  2  0  0  0  0  0  0
  185.9000  177.2080  147.2350 C   0  0  0  0  0  2  0  0  0  0  0  0
  185.8940  178.6400  146.7150 C   0  0  2  0  0  3  0  0  0  0  0  0
  185.9260  179.5280  147.7910 O   0  0  0  0  0  1  0  0  0  0  0  0
  184.6890  178.9380  145.8150 C   0  0  0  0  0  2  0  0  0  0  0  0
  184.8480  177.7930  143.5590 N   0  0  0  0  0  2  0  0  0  0  0  0
  185.4990  180.0150  143.8510 O   0  0  0  0  0  0  0  0  0  0  0  0
  185.0360  178.9600  144.3600 C   0  0  0  0  0  0  0  0  0  0  0  0
  185.1910  177.7700  142.1460 C   0  0  0  0  0  2  0  0  0  0  0  0
  187.6110  178.2370  141.7810 O   0  0  0  0  0  0  0  0  0  0  0  0
  186.5940  177.3110  141.9790 C   0  0  0  0  0  0  0  0  0  0  0  0
  186.8570  176.0800  141.9840 O   0  0  0  0  0  1  0  0  0  0  0  0
  1 12  1  0  0  0  0
  2  8  1  0  0  0  0
  3  5  2  0  0  0  0
  4  9  1  6  0  0  0
  4  8  1  0  0  0  0
  5 11  1  0  0  0  0
  6  5  1  0  0  0  0
  7 15  2  0  0  0  0
  7  9  1  0  0  0  0
  8  6  1  1  0  0  0
  9  3  1  0  0  0  0
 10  3  1  0  0  0  0
 10  1  2  0  0  0  0
 11 14  1  0  0  0  0
 12 14  2  0  0  0  0
 12 24  1  0  0  0  0
 13  2  1  1  0  0  0
 13  4  1  0  0  0  0
 13  8  1  0  0  0  0
 15 10  1  0  0  0  0
 16 18  2  0  0  0  0
 18  7  1  0  0  0  0
 18 17  1  0  0  0  0
 19 15  1  0  0  0  0
 20 19  1  0  0  0  0
 21 22  1  0  0  0  0
 21 20  1  0  0  0  0
 23 21  2  0  0  0  0
 24 25  1  0  0  0  0
 25 26  1  0  0  0  0
 27 26  1  0  0  0  0
 27 28  1  1  0  0  0
 29 27  1  0  0  0  0
 30 32  1  0  0  0  0
 31 32  2  0  0  0  0
 32 29  1  0  0  0  0
 33 30  1  0  0  0  0
 34 35  2  0  0  0  0
 35 36  1  0  0  0  0
 35 33  1  0  0  0  0
M  END
>  <MODEL>
3

>  <REMARK>
 VINA RESULT:      -6.3      2.029      3.495
  Name = 
  12 active torsions:
  status: ('A' for Active; 'I' for Inactive)
    1  A    between atoms: N_3  and  C_9
    2  A    between atoms: C_5  and  C_12
    3  A    between atoms: C_5  and  C_36
    4  A    between atoms: C_6  and  C_8
    5  A    between atoms: C_6  and  C_30
    6  A    between atoms: C_8  and  C_29
    7  A    between atoms: C_9  and  C_13
    8  A    between atoms: C_12  and  C_18
    9  A    between atoms: C_19  and  C_20
   10  A    between atoms: C_19  and  C_30
   11  A    between atoms: C_20  and  C_33
   12  A    between atoms: C_22  and  C_31
                            x       y       z     vdW  Elec       q    Type
                         _______ _______ _______ _____ _____    ______ ____

>  <TORSDO>
F 12

$$$$
=
 OpenBabel11072408453D

 36 40  0  0  1  0  0  0  0  0999 V2000
  189.6980  176.5030  143.1900 N   0  0  0  0  0  0  0  0  0  0  0  0
  190.3890  170.1700  141.9760 O   0  0  0  0  0  0  0  0  0  0  0  0
  190.2490  174.2050  142.6440 C   0  0  0  0  0  0  0  0  0  0  0  0
  191.6270  172.2250  141.9540 C   0  0  1  0  0  3  0  0  0  0  0  0
  189.0800  173.6350  142.3190 C   0  0  0  0  0  0  0  0  0  0  0  0
  189.0270  172.1520  142.0900 C   0  0  0  0  0  2  0  0  0  0  0  0
  192.4000  174.3380  143.0560 C   0  0  0  0  0  0  0  0  0  0  0  0
  190.3250  171.5200  141.5910 C   0  0  1  0  0  0  0  0  0  0  0  0
  191.4150  173.5130  142.6210 N   0  0  0  0  0  0  0  0  0  0  0  0
  190.5030  175.4940  143.0840 C   0  0  0  0  0  0  0  0  0  0  0  0
  187.8460  174.2880  142.2630 O   0  0  0  0  0  0  0  0  0  0  0  0
  188.3080  176.6200  142.8810 C   0  0  0  0  0  0  0  0  0  0  0  0
  191.0890  171.0830  142.7890 C   0  0  1  0  0  3  0  0  0  0  0  0
  187.5220  175.6290  142.4720 C   0  0  0  0  0  3  0  0  0  0  0  0
  191.8510  175.5760  143.3650 C   0  0  0  0  0  0  0  0  0  0  0  0
  194.6870  174.4070  142.2810 N   0  0  0  0  0  2  0  0  0  0  0  0
  194.3200  173.2020  144.2500 N   0  0  0  0  0  1  0  0  0  0  0  0
  193.8390  173.9740  143.1550 C   0  0  0  0  0  0  0  0  0  0  0  0
  192.5710  176.8140  143.7950 C   0  0  0  0  0  2  0  0  0  0  0  0
  192.7770  176.7960  145.3000 C   0  0  0  0  0  2  0  0  0  0  0  0
  194.2050  176.5240  145.6100 C   0  0  0  0  0  0  0  0  0  0  0  0
  195.1990  176.9280  144.7290 O   0  0  0  0  0  0  0  0  0  0  0  0
  194.5110  175.9080  146.6620 O   0  0  0  0  0  1  0  0  0  0  0  0
  187.6880  177.9740  142.9930 C   0  0  0  0  0  2  0  0  0  0  0  0
  186.1990  177.8670  143.2910 C   0  0  0  0  0  2  0  0  0  0  0  0
  185.8610  178.6130  144.5710 C   0  0  0  0  0  2  0  0  0  0  0  0
  184.7250  177.9300  145.3240 C   0  0  2  0  0  3  0  0  0  0  0  0
  183.9290  178.8940  145.9450 O   0  0  0  0  0  1  0  0  0  0  0  0
  185.2260  176.9100  146.3520 C   0  0  0  0  0  2  0  0  0  0  0  0
  187.7050  176.3820  146.3430 N   0  0  0  0  0  2  0  0  0  0  0  0
  186.8300  178.1220  147.6300 O   0  0  0  0  0  0  0  0  0  0  0  0
  186.6220  177.1830  146.8160 C   0  0  0  0  0  0  0  0  0  0  0  0
  189.0730  176.6060  146.7850 C   0  0  0  0  0  2  0  0  0  0  0  0
  190.8020  175.1730  147.8640 O   0  0  0  0  0  1  0  0  0  0  0  0
  189.7640  175.3000  146.9500 C   0  0  0  0  0  0  0  0  0  0  0  0
  189.4310  174.3180  146.2360 O   0  0  0  0  0  0  0  0  0  0  0  0
  3 10  1  0  0  0  0
  4  9  1  1  0  0  0
  4 13  1  0  0  0  0
  5  3  2  0  0  0  0
  6  5  1  0  0  0  0
  7 18  1  0  0  0  0
  7 15  2  0  0  0  0
  8  4  1  0  0  0  0
  8  2  1  0  0  0  0
  8  6  1  1  0  0  0
  8 13  1  0  0  0  0
  9  3  1  0  0  0  0
  9  7  1  0  0  0  0
 10  1  2  0  0  0  0
 10 15  1  0  0  0  0
 11  5  1  0  0  0  0
 11 14  1  0  0  0  0
 12 24  1  0  0  0  0
 12  1  1  0  0  0  0
 13  2  1  6  0  0  0
 14 12  2  0  0  0  0
 15 19  1  0  0  0  0
 16 18  2  0  0  0  0
 18 17  1  0  0  0  0
 19 20  1  0  0  0  0
 20 21  1  0  0  0  0
 21 23  1  0  0  0  0
 22 21  2  0  0  0  0
 24 25  1  0  0  0  0
 25 26  1  0  0  0  0
 26 27  1  0  0  0  0
 27 28  1  1  0  0  0
 27 29  1  0  0  0  0
 29 32  1  0  0  0  0
 30 33  1  0  0  0  0
 30 32  1  0  0  0  0
 32 31  2  0  0  0  0
 33 35  1  0  0  0  0
 35 34  1  0  0  0  0
 36 35  2  0  0  0  0
M  END
>  <MODEL>
4

>  <REMARK>
 VINA RESULT:      -6.3      2.011      4.498
  Name = 
  12 active torsions:
  status: ('A' for Active; 'I' for Inactive)
    1  A    between atoms: N_3  and  C_9
    2  A    between atoms: C_5  and  C_12
    3  A    between atoms: C_5  and  C_36
    4  A    between atoms: C_6  and  C_8
    5  A    between atoms: C_6  and  C_30
    6  A    between atoms: C_8  and  C_29
    7  A    between atoms: C_9  and  C_13
    8  A    between atoms: C_12  and  C_18
    9  A    between atoms: C_19  and  C_20
   10  A    between atoms: C_19  and  C_30
   11  A    between atoms: C_20  and  C_33
   12  A    between atoms: C_22  and  C_31
                            x       y       z     vdW  Elec       q    Type
                         _______ _______ _______ _____ _____    ______ ____

>  <TORSDO>
F 12

$$$$
=
 OpenBabel11072408453D

 36 40  0  0  1  0  0  0  0  0999 V2000
  188.7830  175.5420  142.8220 N   0  0  0  0  0  0  0  0  0  0  0  0
  194.8500  176.2900  144.9870 O   0  0  0  0  0  0  0  0  0  0  0  0
  191.0420  175.5170  143.7060 C   0  0  0  0  0  0  0  0  0  0  0  0
  193.1730  174.6050  144.6650 C   0  0  1  0  0  3  0  0  0  0  0  0
  191.2590  176.7660  144.1390 C   0  0  0  0  0  0  0  0  0  0  0  0
  192.6370  177.1520  144.5950 C   0  0  0  0  0  2  0  0  0  0  0  0
  191.4920  173.4210  143.2340 C   0  0  0  0  0  0  0  0  0  0  0  0
  193.4830  176.0130  145.1600 C   0  0  1  0  0  0  0  0  0  0  0  0
  191.9830  174.5460  143.8120 N   0  0  0  0  0  0  0  0  0  0  0  0
  189.9300  174.9920  143.0670 C   0  0  0  0  0  0  0  0  0  0  0  0
  190.3280  177.8060  144.1190 O   0  0  0  0  0  0  0  0  0  0  0  0
  188.2900  176.8450  143.1380 C   0  0  0  0  0  0  0  0  0  0  0  0
  194.2610  175.4430  144.0280 C   0  0  1  0  0  3  0  0  0  0  0  0
  188.9930  177.8180  143.7120 C   0  0  0  0  0  3  0  0  0  0  0  0
  190.2170  173.6810  142.7490 C   0  0  0  0  0  0  0  0  0  0  0  0
  193.0570  171.8850  142.2210 N   0  0  0  0  0  2  0  0  0  0  0  0
  192.0090  171.1270  144.1670 N   0  0  0  0  0  1  0  0  0  0  0  0
  192.2020  172.1160  143.1630 C   0  0  0  0  0  0  0  0  0  0  0  0
  189.2650  172.7160  142.1170 C   0  0  0  0  0  2  0  0  0  0  0  0
  189.6360  172.5010  140.6600 C   0  0  0  0  0  2  0  0  0  0  0  0
  188.6090  173.1200  139.7820 C   0  0  0  0  0  0  0  0  0  0  0  0
  188.4520  174.5000  139.7580 O   0  0  0  0  0  1  0  0  0  0  0  0
  187.8680  172.3910  139.0760 O   0  0  0  0  0  0  0  0  0  0  0  0
  186.8580  177.1350  142.8310 C   0  0  0  0  0  2  0  0  0  0  0  0
  186.6720  178.5950  142.4390 C   0  0  0  0  0  2  0  0  0  0  0  0
  185.7450  179.2920  143.4220 C   0  0  0  0  0  2  0  0  0  0  0  0
  184.6280  178.3620  143.8810 C   0  0  2  0  0  3  0  0  0  0  0  0
  183.6000  178.3640  142.9380 O   0  0  0  0  0  1  0  0  0  0  0  0
  184.0820  178.7320  145.2650 C   0  0  0  0  0  2  0  0  0  0  0  0
  185.6980  177.0250  146.2120 N   0  0  0  0  0  2  0  0  0  0  0  0
  184.9440  178.8320  147.4840 O   0  0  0  0  0  0  0  0  0  0  0  0
  184.9260  178.2130  146.3860 C   0  0  0  0  0  0  0  0  0  0  0  0
  186.5170  176.4810  147.2840 C   0  0  0  0  0  2  0  0  0  0  0  0
  188.5660  175.4090  146.3540 O   0  0  0  0  0  0  0  0  0  0  0  0
  187.9500  176.5320  146.8930 C   0  0  0  0  0  0  0  0  0  0  0  0
  188.6150  177.5840  147.0810 O   0  0  0  0  0  1  0  0  0  0  0  0
  1 10  2  0  0  0  0
  1 12  1  0  0  0  0
  2  8  1  0  0  0  0
  3  9  1  0  0  0  0
  3  5  2  0  0  0  0
  4  9  1  6  0  0  0
  4  8  1  0  0  0  0
  5  6  1  0  0  0  0
  7  9  1  0  0  0  0
  8  6  1  6  0  0  0
 10  3  1  0  0  0  0
 11  5  1  0  0  0  0
 12 14  2  0  0  0  0
 13  4  1  0  0  0  0
 13  2  1  1  0  0  0
 13  8  1  0  0  0  0
 14 11  1  0  0  0  0
 15 10  1  0  0  0  0
 15  7  2  0  0  0  0
 16 18  2  0  0  0  0
 18  7  1  0  0  0  0
 18 17  1  0  0  0  0
 19 15  1  0  0  0  0
 20 19  1  0  0  0  0
 21 20  1  0  0  0  0
 22 21  1  0  0  0  0
 23 21  2  0  0  0  0
 24 12  1  0  0  0  0
 25 24  1  0  0  0  0
 25 26  1  0  0  0  0
 26 27  1  0  0  0  0
 27 28  1  6  0  0  0
 27 29  1  0  0  0  0
 29 32  1  0  0  0  0
 30 32  1  0  0  0  0
 30 33  1  0  0  0  0
 32 31  2  0  0  0  0
 34 35  2  0  0  0  0
 35 36  1  0  0  0  0
 35 33  1  0  0  0  0
M  END
>  <MODEL>
5

>  <REMARK>
 VINA RESULT:      -6.2      1.207      1.502
  Name = 
  12 active torsions:
  status: ('A' for Active; 'I' for Inactive)
    1  A    between atoms: N_3  and  C_9
    2  A    between atoms: C_5  and  C_12
    3  A    between atoms: C_5  and  C_36
    4  A    between atoms: C_6  and  C_8
    5  A    between atoms: C_6  and  C_30
    6  A    between atoms: C_8  and  C_29
    7  A    between atoms: C_9  and  C_13
    8  A    between atoms: C_12  and  C_18
    9  A    between atoms: C_19  and  C_20
   10  A    between atoms: C_19  and  C_30
   11  A    between atoms: C_20  and  C_33
   12  A    between atoms: C_22  and  C_31
                            x       y       z     vdW  Elec       q    Type
                         _______ _______ _______ _____ _____    ______ ____

>  <TORSDO>
F 12

$$$$
=
 OpenBabel11072408453D

 36 40  0  0  1  0  0  0  0  0999 V2000
  188.9440  175.6810  143.6930 N   0  0  0  0  0  0  0  0  0  0  0  0
  183.5900  179.3180  143.2770 O   0  0  0  0  0  0  0  0  0  0  0  0
  186.8770  176.9430  143.8290 C   0  0  0  0  0  0  0  0  0  0  0  0
  184.7910  177.9250  144.8180 C   0  0  1  0  0  3  0  0  0  0  0  0
  186.4500  177.0480  142.5620 C   0  0  0  0  0  0  0  0  0  0  0  0
  185.2710  177.9270  142.2580 C   0  0  0  0  0  2  0  0  0  0  0  0
  186.8980  177.2610  146.0000 C   0  0  0  0  0  0  0  0  0  0  0  0
  184.2660  178.0910  143.3960 C   0  0  1  0  0  0  0  0  0  0  0  0
  186.1860  177.4780  144.8660 N   0  0  0  0  0  0  0  0  0  0  0  0
  188.0350  176.3610  144.3170 C   0  0  0  0  0  0  0  0  0  0  0  0
  187.0700  176.4800  141.4470 O   0  0  0  0  0  0  0  0  0  0  0  0
  189.0410  175.3010  142.3190 C   0  0  0  0  0  0  0  0  0  0  0  0
  184.6760  179.2900  144.1740 C   0  0  1  0  0  3  0  0  0  0  0  0
  188.1990  175.6650  141.3560 C   0  0  0  0  0  3  0  0  0  0  0  0
  188.0630  176.5770  145.6790 C   0  0  0  0  0  0  0  0  0  0  0  0
  185.9380  176.8090  148.1710 N   0  0  0  0  0  1  0  0  0  0  0  0
  186.7120  178.9890  147.8380 N   0  0  0  0  0  2  0  0  0  0  0  0
  186.4730  177.6680  147.3660 C   0  0  0  0  0  0  0  0  0  0  0  0
  189.1020  176.0510  146.6180 C   0  0  0  0  0  2  0  0  0  0  0  0
  190.0730  177.1580  146.9880 C   0  0  0  0  0  2  0  0  0  0  0  0
  191.0270  176.6680  148.0180 C   0  0  0  0  0  0  0  0  0  0  0  0
  191.3040  175.3110  148.1220 O   0  0  0  0  0  0  0  0  0  0  0  0
  191.5670  177.4820  148.8080 O   0  0  0  0  0  1  0  0  0  0  0  0
  190.1610  174.3930  141.9320 C   0  0  0  0  0  2  0  0  0  0  0  0
  189.7710  172.9350  142.1290 C   0  0  0  0  0  2  0  0  0  0  0  0
  190.2320  172.4440  143.4930 C   0  0  0  0  0  2  0  0  0  0  0  0
  191.7230  172.1270  143.4890 C   0  0  2  0  0  3  0  0  0  0  0  0
  191.9080  170.7450  143.5310 O   0  0  0  0  0  1  0  0  0  0  0  0
  192.4730  172.8000  144.6450 C   0  0  0  0  0  2  0  0  0  0  0  0
  192.5020  175.3110  144.9900 N   0  0  0  0  0  2  0  0  0  0  0  0
  193.8450  174.2820  143.3820 O   0  0  0  0  0  0  0  0  0  0  0  0
  192.9870  174.1610  144.2960 C   0  0  0  0  0  0  0  0  0  0  0  0
  192.9640  176.6520  144.6680 C   0  0  0  0  0  2  0  0  0  0  0  0
  194.1910  177.1640  146.7750 O   0  0  0  0  0  1  0  0  0  0  0  0
  194.2230  176.9360  145.4050 C   0  0  0  0  0  0  0  0  0  0  0  0
  195.3140  177.0040  144.7820 O   0  0  0  0  0  0  0  0  0  0  0  0
  1 10  2  0  0  0  0
  2  8  1  0  0  0  0
  3 10  1  0  0  0  0
  3  9  1  0  0  0  0
  4  9  1  6  0  0  0
  5  3  2  0  0  0  0
  6  5  1  0  0  0  0
  7 18  1  0  0  0  0
  8  6  1  6  0  0  0
  8 13  1  0  0  0  0
  8  4  1  0  0  0  0
  9  7  1  0  0  0  0
 10 15  1  0  0  0  0
 11  5  1  0  0  0  0
 12  1  1  0  0  0  0
 13  2  1  1  0  0  0
 13  4  1  0  0  0  0
 14 11  1  0  0  0  0
 14 12  2  0  0  0  0
 15  7  2  0  0  0  0
 15 19  1  0  0  0  0
 18 17  2  0  0  0  0
 18 16  1  0  0  0  0
 19 20  1  0  0  0  0
 20 21  1  0  0  0  0
 21 22  2  0  0  0  0
 21 23  1  0  0  0  0
 24 25  1  0  0  0  0
 24 12  1  0  0  0  0
 25 26  1  0  0  0  0
 27 26  1  0  0  0  0
 27 28  1  1  0  0  0
 27 29  1  0  0  0  0
 31 32  2  0  0  0  0
 32 29  1  0  0  0  0
 32 30  1  0  0  0  0
 33 30  1  0  0  0  0
 33 35  1  0  0  0  0
 35 34  1  0  0  0  0
 36 35  2  0  0  0  0
M  END
>  <MODEL>
6

>  <REMARK>
 VINA RESULT:      -6.1      2.247      7.506
  Name = 
  12 active torsions:
  status: ('A' for Active; 'I' for Inactive)
    1  A    between atoms: N_3  and  C_9
    2  A    between atoms: C_5  and  C_12
    3  A    between atoms: C_5  and  C_36
    4  A    between atoms: C_6  and  C_8
    5  A    between atoms: C_6  and  C_30
    6  A    between atoms: C_8  and  C_29
    7  A    between atoms: C_9  and  C_13
    8  A    between atoms: C_12  and  C_18
    9  A    between atoms: C_19  and  C_20
   10  A    between atoms: C_19  and  C_30
   11  A    between atoms: C_20  and  C_33
   12  A    between atoms: C_22  and  C_31
                            x       y       z     vdW  Elec       q    Type
                         _______ _______ _______ _____ _____    ______ ____

>  <TORSDO>
F 12

$$$$
=
 OpenBabel11072408453D

 36 40  0  0  1  0  0  0  0  0999 V2000
  191.7230  175.3090  143.5860 N   0  0  0  0  0  0  0  0  0  0  0  0
  186.3380  178.0820  141.2690 O   0  0  0  0  0  0  0  0  0  0  0  0
  189.6990  176.1080  142.5150 C   0  0  0  0  0  0  0  0  0  0  0  0
  187.7120  176.1370  140.9840 C   0  0  1  0  0  3  0  0  0  0  0  0
  189.7180  177.4370  142.6850 C   0  0  0  0  0  0  0  0  0  0  0  0
  188.5130  178.2420  142.2900 C   0  0  0  0  0  2  0  0  0  0  0  0
  188.9260  174.1480  141.9040 C   0  0  0  0  0  0  0  0  0  0  0  0
  187.6710  177.6500  141.1610 C   0  0  1  0  0  0  0  0  0  0  0  0
  188.6920  175.4830  141.8550 N   0  0  0  0  0  0  0  0  0  0  0  0
  190.5930  175.1540  142.9730 C   0  0  0  0  0  0  0  0  0  0  0  0
  190.7400  178.1630  143.3010 O   0  0  0  0  0  0  0  0  0  0  0  0
  192.4150  176.4970  143.9740 C   0  0  0  0  0  0  0  0  0  0  0  0
  186.6230  176.8060  141.7940 C   0  0  1  0  0  3  0  0  0  0  0  0
  191.9590  177.7380  143.8310 C   0  0  0  0  0  3  0  0  0  0  0  0
  190.0990  173.9180  142.6100 C   0  0  0  0  0  0  0  0  0  0  0  0
  188.2290  172.7900  140.0310 N   0  0  0  0  0  2  0  0  0  0  0  0
  187.1090  172.3920  142.0430 N   0  0  0  0  0  1  0  0  0  0  0  0
  188.0700  173.1070  141.2740 C   0  0  0  0  0  0  0  0  0  0  0  0
  190.7880  172.6100  142.8380 C   0  0  0  0  0  2  0  0  0  0  0  0
  191.5670  172.2130  141.5960 C   0  0  0  0  0  2  0  0  0  0  0  0
  191.0750  170.9060  141.0890 C   0  0  0  0  0  0  0  0  0  0  0  0
  190.6840  169.9140  141.9800 O   0  0  0  0  0  1  0  0  0  0  0  0
  191.0320  170.6910  139.8510 O   0  0  0  0  0  0  0  0  0  0  0  0
  193.7810  176.3410  144.5570 C   0  0  0  0  0  2  0  0  0  0  0  0
  193.8160  176.8390  145.9960 C   0  0  0  0  0  2  0  0  0  0  0  0
  193.1010  175.8590  146.9120 C   0  0  0  0  0  2  0  0  0  0  0  0
  191.7550  176.4110  147.3670 C   0  0  2  0  0  3  0  0  0  0  0  0
  191.9350  177.2080  148.4980 O   0  0  0  0  0  1  0  0  0  0  0  0
  190.7290  175.3080  147.6500 C   0  0  0  0  0  2  0  0  0  0  0  0
  188.8050  176.5220  146.5320 N   0  0  0  0  0  2  0  0  0  0  0  0
  189.2760  174.2830  146.0650 O   0  0  0  0  0  0  0  0  0  0  0  0
  189.5700  175.3290  146.7030 C   0  0  0  0  0  0  0  0  0  0  0  0
  187.6620  176.5750  145.6340 C   0  0  0  0  0  2  0  0  0  0  0  0
  186.5970  177.9490  147.4190 O   0  0  0  0  0  1  0  0  0  0  0  0
  186.4620  177.0370  146.3800 C   0  0  0  0  0  0  0  0  0  0  0  0
  185.3270  176.5770  146.0920 O   0  0  0  0  0  0  0  0  0  0  0  0
  1 12  1  0  0  0  0
  3  5  2  0  0  0  0
  3 10  1  0  0  0  0
  4  8  1  0  0  0  0
  4 13  1  0  0  0  0
  4  9  1  1  0  0  0
  5 11  1  0  0  0  0
  6  5  1  0  0  0  0
  7 15  2  0  0  0  0
  8  2  1  0  0  0  0
  8 13  1  0  0  0  0
  8  6  1  1  0  0  0
  9  7  1  0  0  0  0
  9  3  1  0  0  0  0
 10  1  2  0  0  0  0
 11 14  1  0  0  0  0
 12 24  1  0  0  0  0
 13  2  1  6  0  0  0
 14 12  2  0  0  0  0
 15 19  1  0  0  0  0
 15 10  1  0  0  0  0
 16 18  2  0  0  0  0
 18  7  1  0  0  0  0
 18 17  1  0  0  0  0
 20 19  1  0  0  0  0
 21 20  1  0  0  0  0
 21 22  1  0  0  0  0
 23 21  2  0  0  0  0
 24 25  1  0  0  0  0
 25 26  1  0  0  0  0
 26 27  1  0  0  0  0
 27 29  1  0  0  0  0
 27 28  1  1  0  0  0
 30 32  1  0  0  0  0
 31 32  2  0  0  0  0
 32 29  1  0  0  0  0
 33 35  1  0  0  0  0
 33 30  1  0  0  0  0
 35 34  1  0  0  0  0
 36 35  2  0  0  0  0
M  END
>  <MODEL>
7

>  <REMARK>
 VINA RESULT:      -6.1      2.136      5.334
  Name = 
  12 active torsions:
  status: ('A' for Active; 'I' for Inactive)
    1  A    between atoms: N_3  and  C_9
    2  A    between atoms: C_5  and  C_12
    3  A    between atoms: C_5  and  C_36
    4  A    between atoms: C_6  and  C_8
    5  A    between atoms: C_6  and  C_30
    6  A    between atoms: C_8  and  C_29
    7  A    between atoms: C_9  and  C_13
    8  A    between atoms: C_12  and  C_18
    9  A    between atoms: C_19  and  C_20
   10  A    between atoms: C_19  and  C_30
   11  A    between atoms: C_20  and  C_33
   12  A    between atoms: C_22  and  C_31
                            x       y       z     vdW  Elec       q    Type
                         _______ _______ _______ _____ _____    ______ ____

>  <TORSDO>
F 12

$$$$
=
 OpenBabel11072408453D

 36 40  0  0  1  0  0  0  0  0999 V2000
  189.5160  175.3260  144.0420 N   0  0  0  0  0  0  0  0  0  0  0  0
  184.4600  178.6620  141.7260 O   0  0  0  0  0  0  0  0  0  0  0  0
  187.4900  176.5230  143.4550 C   0  0  0  0  0  0  0  0  0  0  0  0
  185.2330  177.5850  143.7250 C   0  0  1  0  0  3  0  0  0  0  0  0
  187.3880  176.4020  142.1240 C   0  0  0  0  0  0  0  0  0  0  0  0
  186.3280  177.1790  141.3970 C   0  0  0  0  0  2  0  0  0  0  0  0
  186.9790  177.1970  145.4790 C   0  0  0  0  0  0  0  0  0  0  0  0
  185.0750  177.4950  142.2110 C   0  0  1  0  0  0  0  0  0  0  0  0
  186.5700  177.1990  144.1860 N   0  0  0  0  0  0  0  0  0  0  0  0
  188.4880  176.0690  144.3020 C   0  0  0  0  0  0  0  0  0  0  0  0
  188.2590  175.6780  141.3050 O   0  0  0  0  0  0  0  0  0  0  0  0
  189.9450  174.7280  142.8180 C   0  0  0  0  0  0  0  0  0  0  0  0
  185.2910  178.8190  142.8510 C   0  0  1  0  0  3  0  0  0  0  0  0
  189.3690  174.8980  141.6320 C   0  0  0  0  0  3  0  0  0  0  0  0
  188.1820  176.5100  145.5730 C   0  0  0  0  0  0  0  0  0  0  0  0
  186.0330  179.0870  146.6510 N   0  0  0  0  0  2  0  0  0  0  0  0
  185.6720  176.9990  147.6370 N   0  0  0  0  0  1  0  0  0  0  0  0
  186.2350  177.8110  146.6120 C   0  0  0  0  0  0  0  0  0  0  0  0
  188.9530  176.1810  146.8110 C   0  0  0  0  0  2  0  0  0  0  0  0
  190.1000  177.1630  146.9820 C   0  0  0  0  0  2  0  0  0  0  0  0
  191.0380  176.6660  148.0230 C   0  0  0  0  0  0  0  0  0  0  0  0
  191.5660  177.5430  148.9610 O   0  0  0  0  0  1  0  0  0  0  0  0
  191.3690  175.4540  148.0390 O   0  0  0  0  0  0  0  0  0  0  0  0
  191.1180  173.8060  142.8740 C   0  0  0  0  0  2  0  0  0  0  0  0
  191.7160  173.7720  144.2740 C   0  0  0  0  0  2  0  0  0  0  0  0
  193.0700  174.4630  144.2890 C   0  0  0  0  0  2  0  0  0  0  0  0
  193.0120  175.7720  145.0670 C   0  0  2  0  0  3  0  0  0  0  0  0
  192.6870  176.8170  144.2010 O   0  0  0  0  0  1  0  0  0  0  0  0
  194.3200  176.0800  145.8050 C   0  0  0  0  0  2  0  0  0  0  0  0
  195.9330  176.7850  143.9810 N   0  0  0  0  0  2  0  0  0  0  0  0
  196.2010  174.7770  145.1410 O   0  0  0  0  0  0  0  0  0  0  0  0
  195.5370  175.8330  144.9680 C   0  0  0  0  0  0  0  0  0  0  0  0
  197.0980  176.5720  143.1370 C   0  0  0  0  0  2  0  0  0  0  0  0
  197.0770  174.6060  141.6060 O   0  0  0  0  0  1  0  0  0  0  0  0
  196.6840  175.9120  141.8710 C   0  0  0  0  0  0  0  0  0  0  0  0
  196.0060  176.5490  141.0230 O   0  0  0  0  0  0  0  0  0  0  0  0
  1 10  2  0  0  0  0
  2  8  1  0  0  0  0
  3  9  1  0  0  0  0
  3 10  1  0  0  0  0
  4  9  1  6  0  0  0
  5  3  2  0  0  0  0
  6  5  1  0  0  0  0
  7 15  2  0  0  0  0
  7 18  1  0  0  0  0
  8  6  1  6  0  0  0
  8 13  1  0  0  0  0
  8  4  1  0  0  0  0
  9  7  1  0  0  0  0
 10 15  1  0  0  0  0
 11 14  1  0  0  0  0
 11  5  1  0  0  0  0
 12 24  1  0  0  0  0
 12  1  1  0  0  0  0
 13  2  1  1  0  0  0
 13  4  1  0  0  0  0
 14 12  2  0  0  0  0
 15 19  1  0  0  0  0
 18 16  2  0  0  0  0
 18 17  1  0  0  0  0
 19 20  1  0  0  0  0
 20 21  1  0  0  0  0
 21 23  2  0  0  0  0
 21 22  1  0  0  0  0
 24 25  1  0  0  0  0
 25 26  1  0  0  0  0
 26 27  1  0  0  0  0
 27 28  1  6  0  0  0
 27 29  1  0  0  0  0
 30 32  1  0  0  0  0
 32 31  2  0  0  0  0
 32 29  1  0  0  0  0
 33 30  1  0  0  0  0
 34 35  1  0  0  0  0
 35 33  1  0  0  0  0
 36 35  2  0  0  0  0
M  END
>  <MODEL>
8

>  <REMARK>
 VINA RESULT:      -6.0      2.388      8.007
  Name = 
  12 active torsions:
  status: ('A' for Active; 'I' for Inactive)
    1  A    between atoms: N_3  and  C_9
    2  A    between atoms: C_5  and  C_12
    3  A    between atoms: C_5  and  C_36
    4  A    between atoms: C_6  and  C_8
    5  A    between atoms: C_6  and  C_30
    6  A    between atoms: C_8  and  C_29
    7  A    between atoms: C_9  and  C_13
    8  A    between atoms: C_12  and  C_18
    9  A    between atoms: C_19  and  C_20
   10  A    between atoms: C_19  and  C_30
   11  A    between atoms: C_20  and  C_33
   12  A    between atoms: C_22  and  C_31
                            x       y       z     vdW  Elec       q    Type
                         _______ _______ _______ _____ _____    ______ ____

>  <TORSDO>
F 12

$$$$
=
 OpenBabel11072408453D

 36 40  0  0  1  0  0  0  0  0999 V2000
  190.1450  175.4840  143.8950 N   0  0  0  0  0  0  0  0  0  0  0  0
  196.5330  176.6010  143.8260 O   0  0  0  0  0  0  0  0  0  0  0  0
  192.5590  175.6340  143.7050 C   0  0  0  0  0  0  0  0  0  0  0  0
  194.8930  175.0650  142.9840 C   0  0  1  0  0  3  0  0  0  0  0  0
  192.9490  176.3240  144.7860 C   0  0  0  0  0  0  0  0  0  0  0  0
  194.3840  176.7540  144.9000 C   0  0  0  0  0  2  0  0  0  0  0  0
  192.7450  174.5780  141.7910 C   0  0  0  0  0  0  0  0  0  0  0  0
  195.3940  175.8590  144.1850 C   0  0  1  0  0  0  0  0  0  0  0  0
  193.4450  175.1760  142.7870 N   0  0  0  0  0  0  0  0  0  0  0  0
  191.2780  175.3040  143.2930 C   0  0  0  0  0  0  0  0  0  0  0  0
  192.1100  176.7810  145.8050 O   0  0  0  0  0  0  0  0  0  0  0  0
  189.8500  176.0590  145.1690 C   0  0  0  0  0  0  0  0  0  0  0  0
  195.5720  176.4070  142.8150 C   0  0  1  0  0  3  0  0  0  0  0  0
  190.7360  176.6180  145.9870 C   0  0  0  0  0  3  0  0  0  0  0  0
  191.3890  174.6590  142.0790 C   0  0  0  0  0  0  0  0  0  0  0  0
  193.6930  174.6160  139.5690 N   0  0  0  0  0  2  0  0  0  0  0  0
  193.6140  172.5210  140.6010 N   0  0  0  0  0  1  0  0  0  0  0  0
  193.3460  173.9180  140.6010 C   0  0  0  0  0  0  0  0  0  0  0  0
  190.2540  174.0610  141.3090 C   0  0  0  0  0  2  0  0  0  0  0  0
  190.1140  172.5890  141.6540 C   0  0  0  0  0  2  0  0  0  0  0  0
  188.8970  172.3780  142.4800 C   0  0  0  0  0  0  0  0  0  0  0  0
  187.6450  172.7010  141.9730 O   0  0  0  0  0  0  0  0  0  0  0  0
  189.0040  171.9250  143.6480 O   0  0  0  0  0  1  0  0  0  0  0  0
  188.4350  176.0000  145.6410 C   0  0  0  0  0  2  0  0  0  0  0  0
  188.1570  177.0970  146.6600 C   0  0  0  0  0  2  0  0  0  0  0  0
  186.7050  177.0450  147.1100 C   0  0  0  0  0  2  0  0  0  0  0  0
  185.8830  178.1460  146.4510 C   0  0  2  0  0  3  0  0  0  0  0  0
  184.9510  178.6430  147.3620 O   0  0  0  0  0  1  0  0  0  0  0  0
  185.1800  177.6740  145.1730 C   0  0  0  0  0  2  0  0  0  0  0  0
  186.3340  177.6140  142.9170 N   0  0  0  0  0  2  0  0  0  0  0  0
  185.5220  179.6060  143.8220 O   0  0  0  0  0  0  0  0  0  0  0  0
  185.6790  178.3620  143.9410 C   0  0  0  0  0  0  0  0  0  0  0  0
  186.8480  178.2490  141.7140 C   0  0  0  0  0  2  0  0  0  0  0  0
  184.6650  178.3750  140.5190 O   0  0  0  0  0  1  0  0  0  0  0  0
  185.9750  177.9130  140.5590 C   0  0  0  0  0  0  0  0  0  0  0  0
  186.4120  177.1820  139.6330 O   0  0  0  0  0  0  0  0  0  0  0  0
  1 12  1  0  0  0  0
  2  8  1  0  0  0  0
  3  5  2  0  0  0  0
  4  9  1  1  0  0  0
  4  8  1  0  0  0  0
  5  6  1  0  0  0  0
  5 11  1  0  0  0  0
  7 15  2  0  0  0  0
  7  9  1  0  0  0  0
  8  6  1  1  0  0  0
  9  3  1  0  0  0  0
 10  3  1  0  0  0  0
 10  1  2  0  0  0  0
 11 14  1  0  0  0  0
 12 24  1  0  0  0  0
 12 14  2  0  0  0  0
 13  4  1  0  0  0  0
 13  2  1  6  0  0  0
 13  8  1  0  0  0  0
 15 10  1  0  0  0  0
 16 18  2  0  0  0  0
 18 17  1  0  0  0  0
 18  7  1  0  0  0  0
 19 20  1  0  0  0  0
 19 15  1  0  0  0  0
 20 21  1  0  0  0  0
 21 23  1  0  0  0  0
 22 21  2  0  0  0  0
 24 25  1  0  0  0  0
 25 26  1  0  0  0  0
 27 26  1  0  0  0  0
 27 28  1  1  0  0  0
 29 27  1  0  0  0  0
 30 32  1  0  0  0  0
 31 32  2  0  0  0  0
 32 29  1  0  0  0  0
 33 30  1  0  0  0  0
 34 35  1  0  0  0  0
 35 33  1  0  0  0  0
 36 35  2  0  0  0  0
M  END
>  <MODEL>
9

>  <REMARK>
 VINA RESULT:      -6.0      2.182      4.046
  Name = 
  12 active torsions:
  status: ('A' for Active; 'I' for Inactive)
    1  A    between atoms: N_3  and  C_9
    2  A    between atoms: C_5  and  C_12
    3  A    between atoms: C_5  and  C_36
    4  A    between atoms: C_6  and  C_8
    5  A    between atoms: C_6  and  C_30
    6  A    between atoms: C_8  and  C_29
    7  A    between atoms: C_9  and  C_13
    8  A    between atoms: C_12  and  C_18
    9  A    between atoms: C_19  and  C_20
   10  A    between atoms: C_19  and  C_30
   11  A    between atoms: C_20  and  C_33
   12  A    between atoms: C_22  and  C_31
                            x       y       z     vdW  Elec       q    Type
                         _______ _______ _______ _____ _____    ______ ____

>  <TORSDO>
F 12

$$$$
