=
 OpenBabel11072408493D

 26 29  0  0  1  0  0  0  0  0999 V2000
  190.3200  176.1590  144.8500 N   0  0  0  0  0  2  0  0  0  0  0  0
  190.7810  173.7240  144.9530 C   0  0  0  0  0  2  0  0  0  0  0  0
  192.6600  174.9270  142.8480 N   0  0  0  0  0  2  0  0  0  0  0  0
  192.0100  173.6250  142.7820 C   0  0  0  0  0  2  0  0  0  0  0  0
  191.1570  175.1210  145.4460 C   0  0  1  0  0  3  0  0  0  0  0  0
  192.6100  175.4520  145.2830 C   0  0  0  0  0  0  0  0  0  0  0  0
  190.6470  173.6570  143.4400 C   0  0  0  0  0  2  0  0  0  0  0  0
  194.5930  175.9340  143.9510 C   0  0  0  0  0  0  0  0  0  0  0  0
  194.5900  176.3950  146.3260 C   0  0  0  0  0  3  0  0  0  0  0  0
  193.2770  175.9350  146.4150 C   0  0  0  0  0  3  0  0  0  0  0  0
  193.2810  175.4350  144.0350 C   0  0  0  0  0  0  0  0  0  0  0  0
  195.2440  176.3990  145.0960 C   0  0  0  0  0  3  0  0  0  0  0  0
  195.4620  175.9550  142.4260 Cl  0  0  0  0  0  0  0  0  0  0  0  0
  186.8330  176.1230  142.4840 C   0  0  0  0  0  3  0  0  0  0  0  0
  187.9400  176.3350  144.2870 C   0  0  0  0  0  0  0  0  0  0  0  0
  186.2470  176.8550  145.9280 C   0  0  0  0  0  0  0  0  0  0  0  0
  188.0430  176.0770  143.0110 O   0  0  0  0  0  0  0  0  0  0  0  0
  185.8860  176.4260  143.4660 C   0  0  0  0  0  3  0  0  0  0  0  0
  186.6340  176.5570  144.6170 C   0  0  0  0  0  0  0  0  0  0  0  0
  188.9620  176.3950  145.2350 C   0  0  0  0  0  0  0  0  0  0  0  0
  187.2560  176.9320  146.9070 C   0  0  0  0  0  3  0  0  0  0  0  0
  188.6040  176.7010  146.5630 C   0  0  0  0  0  3  0  0  0  0  0  0
  184.8240  177.1190  146.2870 C   0  0  0  0  0  2  0  0  0  0  0  0
  184.5740  178.6160  146.3610 C   0  0  0  0  0  2  0  0  0  0  0  0
  184.0890  179.1400  145.0220 C   0  0  0  0  0  2  0  0  0  0  0  0
  185.1810  179.9440  144.3410 C   0  0  0  0  0  1  0  0  0  0  0  0
  1 20  1  0  0  0  0
  2  5  1  0  0  0  0
  3 11  1  0  0  0  0
  4  3  1  0  0  0  0
  4  7  1  0  0  0  0
  5  1  1  6  0  0  0
  6  5  1  0  0  0  0
  6 10  1  0  0  0  0
  7  2  1  0  0  0  0
  8 11  1  0  0  0  0
  8 12  2  0  0  0  0
  9 10  2  0  0  0  0
 11  6  2  0  0  0  0
 12  9  1  0  0  0  0
 13  8  1  0  0  0  0
 14 17  1  0  0  0  0
 14 18  2  0  0  0  0
 15 19  2  0  0  0  0
 15 20  1  0  0  0  0
 16 23  1  0  0  0  0
 16 21  2  0  0  0  0
 17 15  1  0  0  0  0
 18 19  1  0  0  0  0
 19 16  1  0  0  0  0
 20 22  2  0  0  0  0
 22 21  1  0  0  0  0
 23 24  1  0  0  0  0
 25 24  1  0  0  0  0
 26 25  1  0  0  0  0
M  END
>  <MODEL>
1

>  <REMARK>
 VINA RESULT:      -7.4      0.000      0.000
  Name = 
  5 active torsions:
  status: ('A' for Active; 'I' for Inactive)
    1  A    between atoms: C_5  and  N_9
    2  A    between atoms: C_7  and  C_18
    3  A    between atoms: N_9  and  C_14
    4  A    between atoms: C_10  and  C_12
    5  A    between atoms: C_10  and  C_18
                            x       y       z     vdW  Elec       q    Type
                         _______ _______ _______ _____ _____    ______ ____

>  <TORSDO>
F 5

$$$$
=
 OpenBabel11072408493D

 26 29  0  0  1  0  0  0  0  0999 V2000
  189.7390  176.0740  142.7530 N   0  0  0  0  0  2  0  0  0  0  0  0
  190.6780  173.7990  142.4400 C   0  0  0  0  0  2  0  0  0  0  0  0
  192.7940  175.4740  143.8990 N   0  0  0  0  0  2  0  0  0  0  0  0
  193.0450  174.4580  142.8870 C   0  0  0  0  0  2  0  0  0  0  0  0
  189.9230  174.7590  143.3600 C   0  0  1  0  0  3  0  0  0  0  0  0
  190.5200  174.8840  144.7290 C   0  0  0  0  0  0  0  0  0  0  0  0
  191.9360  174.4220  141.8560 C   0  0  0  0  0  2  0  0  0  0  0  0
  192.2690  175.5660  146.2840 C   0  0  0  0  0  0  0  0  0  0  0  0
  190.0860  174.9380  147.1180 C   0  0  0  0  0  3  0  0  0  0  0  0
  189.6530  174.7070  145.8130 C   0  0  0  0  0  3  0  0  0  0  0  0
  191.8530  175.3040  144.9660 C   0  0  0  0  0  0  0  0  0  0  0  0
  191.3900  175.3710  147.3520 C   0  0  0  0  0  3  0  0  0  0  0  0
  193.9020  176.1080  146.6300 Cl  0  0  0  0  0  0  0  0  0  0  0  0
  186.6100  177.3440  140.2330 C   0  0  0  0  0  3  0  0  0  0  0  0
  187.6920  177.2320  142.0600 C   0  0  0  0  0  0  0  0  0  0  0  0
  186.4120  178.6260  143.5580 C   0  0  0  0  0  0  0  0  0  0  0  0
  187.6700  176.8200  140.8210 O   0  0  0  0  0  0  0  0  0  0  0  0
  185.8990  178.1410  141.1330 C   0  0  0  0  0  3  0  0  0  0  0  0
  186.6250  178.0470  142.3020 C   0  0  0  0  0  0  0  0  0  0  0  0
  188.6320  176.9310  143.0460 C   0  0  0  0  0  0  0  0  0  0  0  0
  187.3460  178.3480  144.5730 C   0  0  0  0  0  3  0  0  0  0  0  0
  188.4480  177.5050  144.3200 C   0  0  0  0  0  3  0  0  0  0  0  0
  185.2590  179.5340  143.8200 C   0  0  0  0  0  2  0  0  0  0  0  0
  184.0760  178.7380  144.3470 C   0  0  0  0  0  2  0  0  0  0  0  0
  183.9940  178.8470  145.8590 C   0  0  0  0  0  2  0  0  0  0  0  0
  184.4510  177.5550  146.5080 C   0  0  0  0  0  1  0  0  0  0  0  0
  1 20  1  0  0  0  0
  2  5  1  0  0  0  0
  3 11  1  0  0  0  0
  4  3  1  0  0  0  0
  5  1  1  6  0  0  0
  5  6  1  0  0  0  0
  6 11  2  0  0  0  0
  6 10  1  0  0  0  0
  7  2  1  0  0  0  0
  7  4  1  0  0  0  0
  8 13  1  0  0  0  0
  8 12  2  0  0  0  0
  9 12  1  0  0  0  0
 10  9  2  0  0  0  0
 11  8  1  0  0  0  0
 14 17  1  0  0  0  0
 14 18  2  0  0  0  0
 15 19  2  0  0  0  0
 15 20  1  0  0  0  0
 16 23  1  0  0  0  0
 16 21  2  0  0  0  0
 17 15  1  0  0  0  0
 18 19  1  0  0  0  0
 19 16  1  0  0  0  0
 20 22  2  0  0  0  0
 22 21  1  0  0  0  0
 23 24  1  0  0  0  0
 24 25  1  0  0  0  0
 25 26  1  0  0  0  0
M  END
>  <MODEL>
2

>  <REMARK>
 VINA RESULT:      -7.2      1.932      2.857
  Name = 
  5 active torsions:
  status: ('A' for Active; 'I' for Inactive)
    1  A    between atoms: C_5  and  N_9
    2  A    between atoms: C_7  and  C_18
    3  A    between atoms: N_9  and  C_14
    4  A    between atoms: C_10  and  C_12
    5  A    between atoms: C_10  and  C_18
                            x       y       z     vdW  Elec       q    Type
                         _______ _______ _______ _____ _____    ______ ____

>  <TORSDO>
F 5

$$$$
=
 OpenBabel11072408493D

 26 29  0  0  1  0  0  0  0  0999 V2000
  190.5710  174.4500  144.2290 N   0  0  0  0  0  2  0  0  0  0  0  0
  191.8600  172.3310  144.2970 C   0  0  0  0  0  2  0  0  0  0  0  0
  193.4860  174.3430  142.6490 N   0  0  0  0  0  2  0  0  0  0  0  0
  193.3710  172.9130  142.3970 C   0  0  0  0  0  2  0  0  0  0  0  0
  191.6210  173.7070  144.9200 C   0  0  1  0  0  3  0  0  0  0  0  0
  192.8620  174.5370  145.0530 C   0  0  0  0  0  0  0  0  0  0  0  0
  192.0030  172.3950  142.7850 C   0  0  0  0  0  2  0  0  0  0  0  0
  194.7210  175.8260  144.1470 C   0  0  0  0  0  0  0  0  0  0  0  0
  194.1730  175.9830  146.4980 C   0  0  0  0  0  3  0  0  0  0  0  0
  193.1190  175.0890  146.3130 C   0  0  0  0  0  3  0  0  0  0  0  0
  193.6830  174.8970  143.9550 C   0  0  0  0  0  0  0  0  0  0  0  0
  194.9690  176.3540  145.4160 C   0  0  0  0  0  3  0  0  0  0  0  0
  195.7550  176.3210  142.8170 Cl  0  0  0  0  0  0  0  0  0  0  0  0
  188.2100  177.6190  142.7670 C   0  0  0  0  0  3  0  0  0  0  0  0
  188.9000  176.2430  144.2340 C   0  0  0  0  0  0  0  0  0  0  0  0
  187.5960  176.8040  146.1870 C   0  0  0  0  0  0  0  0  0  0  0  0
  189.0460  176.6210  142.9930 O   0  0  0  0  0  0  0  0  0  0  0  0
  187.4780  177.9110  143.9200 C   0  0  0  0  0  3  0  0  0  0  0  0
  187.9470  177.0040  144.8480 C   0  0  0  0  0  0  0  0  0  0  0  0
  189.5770  175.2250  144.9050 C   0  0  0  0  0  0  0  0  0  0  0  0
  188.2670  175.7900  146.8950 C   0  0  0  0  0  3  0  0  0  0  0  0
  189.2500  175.0040  146.2590 C   0  0  0  0  0  3  0  0  0  0  0  0
  186.5720  177.6490  146.8660 C   0  0  0  0  0  2  0  0  0  0  0  0
  185.1860  177.0650  146.6490 C   0  0  0  0  0  2  0  0  0  0  0  0
  184.1470  178.1700  146.5930 C   0  0  0  0  0  2  0  0  0  0  0  0
  184.1950  178.8740  145.2490 C   0  0  0  0  0  1  0  0  0  0  0  0
  1 20  1  0  0  0  0
  2  5  1  0  0  0  0
  3 11  1  0  0  0  0
  4  3  1  0  0  0  0
  4  7  1  0  0  0  0
  5  1  1  6  0  0  0
  5  6  1  0  0  0  0
  6 10  1  0  0  0  0
  7  2  1  0  0  0  0
  8 12  2  0  0  0  0
 10  9  2  0  0  0  0
 11  8  1  0  0  0  0
 11  6  2  0  0  0  0
 12  9  1  0  0  0  0
 13  8  1  0  0  0  0
 14 17  1  0  0  0  0
 14 18  2  0  0  0  0
 15 19  2  0  0  0  0
 15 20  1  0  0  0  0
 16 23  1  0  0  0  0
 16 21  2  0  0  0  0
 17 15  1  0  0  0  0
 18 19  1  0  0  0  0
 19 16  1  0  0  0  0
 20 22  2  0  0  0  0
 22 21  1  0  0  0  0
 24 23  1  0  0  0  0
 25 24  1  0  0  0  0
 26 25  1  0  0  0  0
M  END
>  <MODEL>
3

>  <REMARK>
 VINA RESULT:      -7.2      1.189      1.464
  Name = 
  5 active torsions:
  status: ('A' for Active; 'I' for Inactive)
    1  A    between atoms: C_5  and  N_9
    2  A    between atoms: C_7  and  C_18
    3  A    between atoms: N_9  and  C_14
    4  A    between atoms: C_10  and  C_12
    5  A    between atoms: C_10  and  C_18
                            x       y       z     vdW  Elec       q    Type
                         _______ _______ _______ _____ _____    ______ ____

>  <TORSDO>
F 5

$$$$
=
 OpenBabel11072408493D

 26 29  0  0  1  0  0  0  0  0999 V2000
  190.3660  175.7780  144.2460 N   0  0  0  0  0  2  0  0  0  0  0  0
  189.9290  173.8360  145.7270 C   0  0  0  0  0  2  0  0  0  0  0  0
  192.2980  173.1010  143.9230 N   0  0  0  0  0  2  0  0  0  0  0  0
  191.2410  172.2040  144.3670 C   0  0  0  0  0  2  0  0  0  0  0  0
  190.7250  175.1210  145.5000 C   0  0  1  0  0  3  0  0  0  0  0  0
  192.2100  174.9410  145.5990 C   0  0  0  0  0  0  0  0  0  0  0  0
  189.9210  172.9330  144.5030 C   0  0  0  0  0  2  0  0  0  0  0  0
  194.3510  174.0720  144.8250 C   0  0  0  0  0  0  0  0  0  0  0  0
  194.2890  175.8170  146.5000 C   0  0  0  0  0  3  0  0  0  0  0  0
  192.8950  175.8200  146.4470 C   0  0  0  0  0  3  0  0  0  0  0  0
  192.9450  174.0420  144.7880 C   0  0  0  0  0  0  0  0  0  0  0  0
  195.0140  174.9480  145.6870 C   0  0  0  0  0  3  0  0  0  0  0  0
  195.3090  172.9950  143.8240 Cl  0  0  0  0  0  0  0  0  0  0  0  0
  187.7860  176.0070  140.9220 C   0  0  0  0  0  3  0  0  0  0  0  0
  188.4570  176.4880  142.8810 C   0  0  0  0  0  0  0  0  0  0  0  0
  186.8120  178.0720  143.6650 C   0  0  0  0  0  0  0  0  0  0  0  0
  188.7230  175.7710  141.8230 O   0  0  0  0  0  0  0  0  0  0  0  0
  186.8580  176.9260  141.4150 C   0  0  0  0  0  3  0  0  0  0  0  0
  187.3200  177.2160  142.6810 C   0  0  0  0  0  0  0  0  0  0  0  0
  189.1770  176.5550  144.0740 C   0  0  0  0  0  0  0  0  0  0  0  0
  187.5200  178.1690  144.8770 C   0  0  0  0  0  3  0  0  0  0  0  0
  188.6940  177.4150  145.0820 C   0  0  0  0  0  3  0  0  0  0  0  0
  185.5830  178.8850  143.4410 C   0  0  0  0  0  2  0  0  0  0  0  0
  185.1490  179.5450  144.7400 C   0  0  0  0  0  2  0  0  0  0  0  0
  183.9940  178.7820  145.3630 C   0  0  0  0  0  2  0  0  0  0  0  0
  184.3500  178.3370  146.7690 C   0  0  0  0  0  1  0  0  0  0  0  0
  3  4  1  0  0  0  0
  3 11  1  0  0  0  0
  4  7  1  0  0  0  0
  5  1  1  6  0  0  0
  5  6  1  0  0  0  0
  5  2  1  0  0  0  0
  6 10  1  0  0  0  0
  7  2  1  0  0  0  0
  8 12  2  0  0  0  0
 10  9  2  0  0  0  0
 11  8  1  0  0  0  0
 11  6  2  0  0  0  0
 12  9  1  0  0  0  0
 13  8  1  0  0  0  0
 14 18  2  0  0  0  0
 14 17  1  0  0  0  0
 15 20  1  0  0  0  0
 16 21  2  0  0  0  0
 17 15  1  0  0  0  0
 18 19  1  0  0  0  0
 19 15  2  0  0  0  0
 19 16  1  0  0  0  0
 20  1  1  0  0  0  0
 20 22  2  0  0  0  0
 21 22  1  0  0  0  0
 23 16  1  0  0  0  0
 23 24  1  0  0  0  0
 24 25  1  0  0  0  0
 25 26  1  0  0  0  0
M  END
>  <MODEL>
4

>  <REMARK>
 VINA RESULT:      -7.1      1.561      1.908
  Name = 
  5 active torsions:
  status: ('A' for Active; 'I' for Inactive)
    1  A    between atoms: C_5  and  N_9
    2  A    between atoms: C_7  and  C_18
    3  A    between atoms: N_9  and  C_14
    4  A    between atoms: C_10  and  C_12
    5  A    between atoms: C_10  and  C_18
                            x       y       z     vdW  Elec       q    Type
                         _______ _______ _______ _____ _____    ______ ____

>  <TORSDO>
F 5

$$$$
=
 OpenBabel11072408493D

 26 29  0  0  1  0  0  0  0  0999 V2000
  188.5010  177.6000  145.1860 N   0  0  0  0  0  2  0  0  0  0  0  0
  186.1180  176.9570  145.4410 C   0  0  0  0  0  2  0  0  0  0  0  0
  186.4200  178.3030  142.7010 N   0  0  0  0  0  2  0  0  0  0  0  0
  185.2810  178.4230  143.6010 C   0  0  0  0  0  2  0  0  0  0  0  0
  187.5000  176.5730  144.9110 C   0  0  1  0  0  3  0  0  0  0  0  0
  187.5110  176.1970  143.4600 C   0  0  0  0  0  0  0  0  0  0  0  0
  185.7180  178.3700  145.0500 C   0  0  0  0  0  2  0  0  0  0  0  0
  187.2900  176.6920  141.0840 C   0  0  0  0  0  0  0  0  0  0  0  0
  188.2980  174.6110  141.7970 C   0  0  0  0  0  3  0  0  0  0  0  0
  188.1200  174.9800  143.1290 C   0  0  0  0  0  3  0  0  0  0  0  0
  187.0740  177.0590  142.4240 C   0  0  0  0  0  0  0  0  0  0  0  0
  187.8880  175.4680  140.7770 C   0  0  0  0  0  3  0  0  0  0  0  0
  186.7870  177.7340  139.7640 Cl  0  0  0  0  0  0  0  0  0  0  0  0
  191.0780  175.5170  147.7880 C   0  0  0  0  0  3  0  0  0  0  0  0
  190.5870  176.6530  146.0600 C   0  0  0  0  0  0  0  0  0  0  0  0
  192.7050  176.9030  144.9310 C   0  0  0  0  0  0  0  0  0  0  0  0
  190.0910  176.1050  147.1370 O   0  0  0  0  0  0  0  0  0  0  0  0
  192.2830  175.6860  147.1020 C   0  0  0  0  0  3  0  0  0  0  0  0
  191.9300  176.4230  145.9910 C   0  0  0  0  0  0  0  0  0  0  0  0
  189.9100  177.3780  145.0790 C   0  0  0  0  0  0  0  0  0  0  0  0
  192.0550  177.6460  143.9280 C   0  0  0  0  0  3  0  0  0  0  0  0
  190.6660  177.8810  144.0010 C   0  0  0  0  0  3  0  0  0  0  0  0
  194.1770  176.6730  144.8640 C   0  0  0  0  0  2  0  0  0  0  0  0
  194.4930  175.6070  143.8280 C   0  0  0  0  0  2  0  0  0  0  0  0
  195.0410  174.3610  144.4980 C   0  0  0  0  0  2  0  0  0  0  0  0
  195.6240  174.7030  145.8570 C   0  0  0  0  0  1  0  0  0  0  0  0
  3  4  1  0  0  0  0
  4  7  1  0  0  0  0
  5  1  1  6  0  0  0
  5  2  1  0  0  0  0
  6  5  1  0  0  0  0
  7  2  1  0  0  0  0
  8 11  1  0  0  0  0
  9 10  2  0  0  0  0
 10  6  1  0  0  0  0
 11  3  1  0  0  0  0
 11  6  2  0  0  0  0
 12  8  2  0  0  0  0
 12  9  1  0  0  0  0
 13  8  1  0  0  0  0
 15 17  1  0  0  0  0
 16 19  2  0  0  0  0
 17 14  1  0  0  0  0
 18 14  2  0  0  0  0
 19 15  1  0  0  0  0
 19 18  1  0  0  0  0
 20  1  1  0  0  0  0
 20 15  2  0  0  0  0
 21 22  2  0  0  0  0
 21 16  1  0  0  0  0
 22 20  1  0  0  0  0
 23 16  1  0  0  0  0
 24 25  1  0  0  0  0
 24 23  1  0  0  0  0
 25 26  1  0  0  0  0
M  END
>  <MODEL>
5

>  <REMARK>
 VINA RESULT:      -7.0      2.834      7.221
  Name = 
  5 active torsions:
  status: ('A' for Active; 'I' for Inactive)
    1  A    between atoms: C_5  and  N_9
    2  A    between atoms: C_7  and  C_18
    3  A    between atoms: N_9  and  C_14
    4  A    between atoms: C_10  and  C_12
    5  A    between atoms: C_10  and  C_18
                            x       y       z     vdW  Elec       q    Type
                         _______ _______ _______ _____ _____    ______ ____

>  <TORSDO>
F 5

$$$$
=
 OpenBabel11072408493D

 26 29  0  0  1  0  0  0  0  0999 V2000
  191.0260  176.5430  144.9740 N   0  0  0  0  0  2  0  0  0  0  0  0
  189.4860  174.6710  145.5030 C   0  0  0  0  0  2  0  0  0  0  0  0
  188.0120  177.2840  146.1430 N   0  0  0  0  0  2  0  0  0  0  0  0
  187.9240  176.0370  146.8910 C   0  0  0  0  0  2  0  0  0  0  0  0
  189.9450  175.7010  144.4700 C   0  0  1  0  0  3  0  0  0  0  0  0
  188.8340  176.5390  143.9130 C   0  0  0  0  0  0  0  0  0  0  0  0
  189.2400  175.2890  146.8700 C   0  0  0  0  0  2  0  0  0  0  0  0
  187.0920  178.2330  144.0880 C   0  0  0  0  0  0  0  0  0  0  0  0
  187.8310  177.4800  141.9110 C   0  0  0  0  0  3  0  0  0  0  0  0
  188.7440  176.6190  142.5180 C   0  0  0  0  0  3  0  0  0  0  0  0
  187.9850  177.3440  144.7120 C   0  0  0  0  0  0  0  0  0  0  0  0
  187.0100  178.2890  142.6950 C   0  0  0  0  0  3  0  0  0  0  0  0
  186.0330  179.2690  145.0320 Cl  0  0  0  0  0  0  0  0  0  0  0  0
  193.7830  176.0410  141.8270 C   0  0  0  0  0  3  0  0  0  0  0  0
  193.1450  176.0210  143.8550 C   0  0  0  0  0  0  0  0  0  0  0  0
  195.1100  175.2990  145.0560 C   0  0  0  0  0  0  0  0  0  0  0  0
  192.7600  176.2680  142.6310 O   0  0  0  0  0  0  0  0  0  0  0  0
  194.8970  175.6260  142.5610 C   0  0  0  0  0  3  0  0  0  0  0  0
  194.4500  175.6240  143.8660 C   0  0  0  0  0  0  0  0  0  0  0  0
  192.3930  176.1250  145.0260 C   0  0  0  0  0  0  0  0  0  0  0  0
  194.3770  175.3840  146.2550 C   0  0  0  0  0  3  0  0  0  0  0  0
  193.0290  175.7960  146.2410 C   0  0  0  0  0  3  0  0  0  0  0  0
  196.5290  174.8430  145.0690 C   0  0  0  0  0  2  0  0  0  0  0  0
  196.7290  173.7890  146.1450 C   0  0  0  0  0  2  0  0  0  0  0  0
  196.9940  172.4330  145.5160 C   0  0  0  0  0  2  0  0  0  0  0  0
  195.7110  171.6280  145.4340 C   0  0  0  0  0  1  0  0  0  0  0  0
  1 20  1  0  0  0  0
  2  7  1  0  0  0  0
  3  4  1  0  0  0  0
  5  1  1  1  0  0  0
  5  2  1  0  0  0  0
  6  5  1  0  0  0  0
  6 11  1  0  0  0  0
  7  4  1  0  0  0  0
  8 11  2  0  0  0  0
  8 13  1  0  0  0  0
  9 10  1  0  0  0  0
  9 12  2  0  0  0  0
 10  6  2  0  0  0  0
 11  3  1  0  0  0  0
 12  8  1  0  0  0  0
 14 18  2  0  0  0  0
 14 17  1  0  0  0  0
 15 19  2  0  0  0  0
 15 20  1  0  0  0  0
 16 23  1  0  0  0  0
 16 21  2  0  0  0  0
 17 15  1  0  0  0  0
 18 19  1  0  0  0  0
 19 16  1  0  0  0  0
 20 22  2  0  0  0  0
 22 21  1  0  0  0  0
 23 24  1  0  0  0  0
 25 24  1  0  0  0  0
 26 25  1  0  0  0  0
M  END
>  <MODEL>
6

>  <REMARK>
 VINA RESULT:      -6.8      2.972      7.885
  Name = 
  5 active torsions:
  status: ('A' for Active; 'I' for Inactive)
    1  A    between atoms: C_5  and  N_9
    2  A    between atoms: C_7  and  C_18
    3  A    between atoms: N_9  and  C_14
    4  A    between atoms: C_10  and  C_12
    5  A    between atoms: C_10  and  C_18
                            x       y       z     vdW  Elec       q    Type
                         _______ _______ _______ _____ _____    ______ ____

>  <TORSDO>
F 5

$$$$
=
 OpenBabel11072408493D

 26 29  0  0  1  0  0  0  0  0999 V2000
  190.3870  177.2220  144.4110 N   0  0  0  0  0  2  0  0  0  0  0  0
  189.1610  175.0820  144.6800 C   0  0  0  0  0  2  0  0  0  0  0  0
  187.9480  177.0900  146.6560 N   0  0  0  0  0  2  0  0  0  0  0  0
  188.1480  175.6670  146.8860 C   0  0  0  0  0  2  0  0  0  0  0  0
  189.2140  176.4530  144.0040 C   0  0  1  0  0  3  0  0  0  0  0  0
  187.9630  177.2610  144.1710 C   0  0  0  0  0  0  0  0  0  0  0  0
  189.3900  175.1640  146.1810 C   0  0  0  0  0  2  0  0  0  0  0  0
  186.3570  178.5330  145.4910 C   0  0  0  0  0  0  0  0  0  0  0  0
  186.3130  178.6660  143.0750 C   0  0  0  0  0  3  0  0  0  0  0  0
  187.3960  177.7910  143.0070 C   0  0  0  0  0  3  0  0  0  0  0  0
  187.4280  177.6230  145.4320 C   0  0  0  0  0  0  0  0  0  0  0  0
  185.7980  179.0400  144.3160 C   0  0  0  0  0  3  0  0  0  0  0  0
  185.6700  179.0290  147.0280 Cl  0  0  0  0  0  0  0  0  0  0  0  0
  193.5870  176.5240  147.0630 C   0  0  0  0  0  3  0  0  0  0  0  0
  192.6500  176.6440  145.1580 C   0  0  0  0  0  0  0  0  0  0  0  0
  194.4130  176.0390  143.6250 C   0  0  0  0  0  0  0  0  0  0  0  0
  192.4530  176.7930  146.4400 O   0  0  0  0  0  0  0  0  0  0  0  0
  194.5780  176.1800  146.1410 C   0  0  0  0  0  3  0  0  0  0  0  0
  193.9400  176.2680  144.9220 C   0  0  0  0  0  0  0  0  0  0  0  0
  191.7310  176.8240  144.1240 C   0  0  0  0  0  0  0  0  0  0  0  0
  193.5140  176.2210  142.5580 C   0  0  0  0  0  3  0  0  0  0  0  0
  192.1810  176.6090  142.8050 C   0  0  0  0  0  3  0  0  0  0  0  0
  195.8280  175.6490  143.3620 C   0  0  0  0  0  2  0  0  0  0  0  0
  196.0090  174.1570  143.5850 C   0  0  0  0  0  2  0  0  0  0  0  0
  197.2630  173.8900  144.3970 C   0  0  0  0  0  2  0  0  0  0  0  0
  196.9010  173.4420  145.8000 C   0  0  0  0  0  1  0  0  0  0  0  0
  2  7  1  0  0  0  0
  3  4  1  0  0  0  0
  5  6  1  0  0  0  0
  5  1  1  1  0  0  0
  5  2  1  0  0  0  0
  6 11  1  0  0  0  0
  7  4  1  0  0  0  0
  8 13  1  0  0  0  0
  9 12  2  0  0  0  0
 10  9  1  0  0  0  0
 10  6  2  0  0  0  0
 11  8  2  0  0  0  0
 11  3  1  0  0  0  0
 12  8  1  0  0  0  0
 15 17  1  0  0  0  0
 16 19  2  0  0  0  0
 17 14  1  0  0  0  0
 18 14  2  0  0  0  0
 19 15  1  0  0  0  0
 19 18  1  0  0  0  0
 20  1  1  0  0  0  0
 20 15  2  0  0  0  0
 21 22  2  0  0  0  0
 21 16  1  0  0  0  0
 22 20  1  0  0  0  0
 23 24  1  0  0  0  0
 23 16  1  0  0  0  0
 24 25  1  0  0  0  0
 25 26  1  0  0  0  0
M  END
>  <MODEL>
7

>  <REMARK>
 VINA RESULT:      -6.8      3.020      8.091
  Name = 
  5 active torsions:
  status: ('A' for Active; 'I' for Inactive)
    1  A    between atoms: C_5  and  N_9
    2  A    between atoms: C_7  and  C_18
    3  A    between atoms: N_9  and  C_14
    4  A    between atoms: C_10  and  C_12
    5  A    between atoms: C_10  and  C_18
                            x       y       z     vdW  Elec       q    Type
                         _______ _______ _______ _____ _____    ______ ____

>  <TORSDO>
F 5

$$$$
=
 OpenBabel11072408493D

 26 29  0  0  1  0  0  0  0  0999 V2000
  189.4660  175.7750  145.0250 N   0  0  0  0  0  2  0  0  0  0  0  0
  190.1130  178.0870  144.3980 C   0  0  0  0  0  2  0  0  0  0  0  0
  187.6670  177.3270  142.7110 N   0  0  0  0  0  2  0  0  0  0  0  0
  188.8000  178.1300  142.2750 C   0  0  0  0  0  2  0  0  0  0  0  0
  189.2330  177.1940  145.2740 C   0  0  1  0  0  3  0  0  0  0  0  0
  187.7710  177.5150  145.1920 C   0  0  0  0  0  0  0  0  0  0  0  0
  190.0840  177.6740  142.9350 C   0  0  0  0  0  2  0  0  0  0  0  0
  185.6320  177.6270  144.0300 C   0  0  0  0  0  0  0  0  0  0  0  0
  185.7150  177.8750  146.4350 C   0  0  0  0  0  3  0  0  0  0  0  0
  187.0990  177.7070  146.4050 C   0  0  0  0  0  3  0  0  0  0  0  0
  187.0310  177.4910  143.9840 C   0  0  0  0  0  0  0  0  0  0  0  0
  184.9830  177.8300  145.2500 C   0  0  0  0  0  3  0  0  0  0  0  0
  184.6670  177.5830  142.5640 Cl  0  0  0  0  0  0  0  0  0  0  0  0
  191.4810  173.1880  142.3780 C   0  0  0  0  0  3  0  0  0  0  0  0
  191.2390  174.3160  144.1640 C   0  0  0  0  0  0  0  0  0  0  0  0
  193.2700  173.8700  145.3900 C   0  0  0  0  0  0  0  0  0  0  0  0
  190.6710  174.0020  143.0310 O   0  0  0  0  0  0  0  0  0  0  0  0
  192.6410  172.9570  143.1210 C   0  0  0  0  0  3  0  0  0  0  0  0
  192.4520  173.7000  144.2680 C   0  0  0  0  0  0  0  0  0  0  0  0
  190.7440  175.1480  145.1690 C   0  0  0  0  0  0  0  0  0  0  0  0
  192.7960  174.6960  146.4260 C   0  0  0  0  0  3  0  0  0  0  0  0
  191.5430  175.3330  146.3160 C   0  0  0  0  0  3  0  0  0  0  0  0
  194.5860  173.1800  145.5160 C   0  0  0  0  0  2  0  0  0  0  0  0
  195.6870  174.1980  145.7660 C   0  0  0  0  0  2  0  0  0  0  0  0
  196.9910  173.4970  146.0990 C   0  0  0  0  0  2  0  0  0  0  0  0
  196.8470  171.9980  145.9210 C   0  0  0  0  0  1  0  0  0  0  0  0
  1 20  1  0  0  0  0
  2  5  1  0  0  0  0
  3 11  1  0  0  0  0
  4  3  1  0  0  0  0
  4  7  1  0  0  0  0
  5  1  1  6  0  0  0
  6  5  1  0  0  0  0
  6 10  1  0  0  0  0
  7  2  1  0  0  0  0
  8 12  2  0  0  0  0
 10  9  2  0  0  0  0
 11  8  1  0  0  0  0
 11  6  2  0  0  0  0
 12  9  1  0  0  0  0
 13  8  1  0  0  0  0
 14 17  1  0  0  0  0
 14 18  2  0  0  0  0
 15 19  2  0  0  0  0
 15 20  1  0  0  0  0
 16 23  1  0  0  0  0
 16 21  2  0  0  0  0
 17 15  1  0  0  0  0
 18 19  1  0  0  0  0
 19 16  1  0  0  0  0
 20 22  2  0  0  0  0
 22 21  1  0  0  0  0
 23 24  1  0  0  0  0
 24 25  1  0  0  0  0
 26 25  1  0  0  0  0
M  END
>  <MODEL>
8

>  <REMARK>
 VINA RESULT:      -6.8      3.013      7.676
  Name = 
  5 active torsions:
  status: ('A' for Active; 'I' for Inactive)
    1  A    between atoms: C_5  and  N_9
    2  A    between atoms: C_7  and  C_18
    3  A    between atoms: N_9  and  C_14
    4  A    between atoms: C_10  and  C_12
    5  A    between atoms: C_10  and  C_18
                            x       y       z     vdW  Elec       q    Type
                         _______ _______ _______ _____ _____    ______ ____

>  <TORSDO>
F 5

$$$$
=
 OpenBabel11072408493D

 26 29  0  0  1  0  0  0  0  0999 V2000
  191.8960  177.4300  144.0140 N   0  0  0  0  0  2  0  0  0  0  0  0
  193.9610  176.0700  144.2210 C   0  0  0  0  0  2  0  0  0  0  0  0
  191.7040  174.5330  145.6180 N   0  0  0  0  0  2  0  0  0  0  0  0
  193.0940  174.6020  146.0450 C   0  0  0  0  0  2  0  0  0  0  0  0
  192.6830  176.3480  143.4290 C   0  0  1  0  0  3  0  0  0  0  0  0
  191.8330  175.1340  143.2040 C   0  0  0  0  0  0  0  0  0  0  0  0
  193.7050  175.9480  145.7150 C   0  0  0  0  0  2  0  0  0  0  0  0
  190.3780  173.3300  143.9550 C   0  0  0  0  0  0  0  0  0  0  0  0
  190.5340  173.8560  141.5990 C   0  0  0  0  0  3  0  0  0  0  0  0
  191.4340  174.8810  141.8860 C   0  0  0  0  0  3  0  0  0  0  0  0
  191.3110  174.3380  144.2540 C   0  0  0  0  0  0  0  0  0  0  0  0
  190.0030  173.0860  142.6320 C   0  0  0  0  0  3  0  0  0  0  0  0
  189.6850  172.3300  145.2210 Cl  0  0  0  0  0  0  0  0  0  0  0  0
  188.8870  177.1860  146.9530 C   0  0  0  0  0  3  0  0  0  0  0  0
  189.6430  177.4300  144.9810 C   0  0  0  0  0  0  0  0  0  0  0  0
  187.6540  177.7510  143.6520 C   0  0  0  0  0  0  0  0  0  0  0  0
  189.9880  177.2260  146.2240 O   0  0  0  0  0  0  0  0  0  0  0  0
  187.7620  177.3750  146.1470 C   0  0  0  0  0  3  0  0  0  0  0  0
  188.2860  177.5300  144.8800 C   0  0  0  0  0  0  0  0  0  0  0  0
  190.4780  177.5420  143.8690 C   0  0  0  0  0  0  0  0  0  0  0  0
  188.4670  177.8600  142.5080 C   0  0  0  0  0  3  0  0  0  0  0  0
  189.8690  177.7580  142.6150 C   0  0  0  0  0  3  0  0  0  0  0  0
  186.1700  177.8380  143.5350 C   0  0  0  0  0  2  0  0  0  0  0  0
  185.7480  179.2780  143.2980 C   0  0  0  0  0  2  0  0  0  0  0  0
  184.8120  179.7440  144.3980 C   0  0  0  0  0  2  0  0  0  0  0  0
  184.3580  178.5670  145.2410 C   0  0  0  0  0  1  0  0  0  0  0  0
  2  7  1  0  0  0  0
  3  4  1  0  0  0  0
  5  1  1  1  0  0  0
  5  2  1  0  0  0  0
  6  5  1  0  0  0  0
  6 11  1  0  0  0  0
  7  4  1  0  0  0  0
  8 11  2  0  0  0  0
  8 13  1  0  0  0  0
  9 10  1  0  0  0  0
  9 12  2  0  0  0  0
 10  6  2  0  0  0  0
 11  3  1  0  0  0  0
 12  8  1  0  0  0  0
 15 17  1  0  0  0  0
 16 19  2  0  0  0  0
 17 14  1  0  0  0  0
 18 14  2  0  0  0  0
 19 15  1  0  0  0  0
 19 18  1  0  0  0  0
 20  1  1  0  0  0  0
 20 15  2  0  0  0  0
 21 22  2  0  0  0  0
 21 16  1  0  0  0  0
 22 20  1  0  0  0  0
 23 16  1  0  0  0  0
 24 23  1  0  0  0  0
 24 25  1  0  0  0  0
 25 26  1  0  0  0  0
M  END
>  <MODEL>
9

>  <REMARK>
 VINA RESULT:      -6.7      2.213      3.989
  Name = 
  5 active torsions:
  status: ('A' for Active; 'I' for Inactive)
    1  A    between atoms: C_5  and  N_9
    2  A    between atoms: C_7  and  C_18
    3  A    between atoms: N_9  and  C_14
    4  A    between atoms: C_10  and  C_12
    5  A    between atoms: C_10  and  C_18
                            x       y       z     vdW  Elec       q    Type
                         _______ _______ _______ _____ _____    ______ ____

>  <TORSDO>
F 5

$$$$
