=
 OpenBabel11062419423D

 30 33  0  0  1  0  0  0  0  0999 V2000
  191.8870  176.6330  144.0920 O   0  0  0  0  0  0  0  0  0  0  0  0
  195.3810  175.5720  145.7320 C   0  0  1  0  0  3  0  0  0  0  0  0
  192.6450  175.6530  144.7950 C   0  0  1  0  0  3  0  0  0  0  0  0
  197.8060  174.3460  142.5190 O   0  0  0  0  0  1  0  0  0  0  0  0
  195.0150  175.9400  144.3370 N   0  0  2  0  0  0  0  0  0  0  0  0
  193.8200  175.2120  143.9240 C   0  0  0  0  0  2  0  0  0  0  0  0
  194.2550  175.4900  146.6010 O   0  0  0  0  0  0  0  0  0  0  0  0
  193.1710  176.2480  146.1130 C   0  0  2  0  0  3  0  0  0  0  0  0
  196.7560  174.4000  143.4350 C   0  0  1  0  0  3  0  0  0  0  0  0
  197.2830  174.1770  144.8420 C   0  0  1  0  0  3  0  0  0  0  0  0
  192.0720  176.2790  147.1550 C   0  0  0  0  0  1  0  0  0  0  0  0
  196.1150  174.2300  145.8100 C   0  0  0  0  0  2  0  0  0  0  0  0
  196.1030  175.7760  143.3650 C   0  0  0  0  0  2  0  0  0  0  0  0
  197.1960  172.2750  145.8350 O   0  0  0  0  0  1  0  0  0  0  0  0
  197.8950  172.9260  144.9290 O   0  0  0  0  0  0  0  0  0  0  0  0
  188.0890  175.8570  142.5250 C   0  0  0  0  0  0  0  0  0  0  0  0
  186.9750  175.5990  141.9950 O   0  0  0  0  0  0  0  0  0  0  0  0
  190.4530  175.5860  142.4660 C   0  0  0  0  0  3  0  0  0  0  0  0
  190.6050  176.3910  143.5910 C   0  0  0  0  0  0  0  0  0  0  0  0
  189.4630  176.9310  144.1920 C   0  0  0  0  0  3  0  0  0  0  0  0
  189.2160  175.3400  141.9630 N   0  0  0  0  0  0  0  0  0  0  0  0
  188.1830  176.6750  143.6790 C   0  0  1  0  0  3  0  0  0  0  0  0
  184.9210  180.1890  144.2310 O   0  0  0  0  0  0  0  0  0  0  0  0
  187.0050  177.2830  144.3660 C   0  0  0  0  0  0  0  0  0  0  0  0
  185.2160  177.2300  146.1910 C   0  0  0  0  0  3  0  0  0  0  0  0
  186.5270  178.4750  143.9810 C   0  0  0  0  0  3  0  0  0  0  0  0
  185.3710  179.0880  144.6420 C   0  0  0  0  0  0  0  0  0  0  0  0
  186.3040  176.4890  145.4560 C   0  0  0  0  0  2  0  0  0  0  0  0
  184.7660  178.4210  145.8010 C   0  0  0  0  0  0  0  0  0  0  0  0
  183.7360  179.0320  146.5050 O   0  0  0  0  0  1  0  0  0  0  0  0
  2 12  1  6  0  0  0
  2  7  1  0  0  0  0
  3  1  1  6  0  0  0
  3  8  1  0  0  0  0
  5 13  1  6  0  0  0
  5  2  1  0  0  0  0
  6  5  1  0  0  0  0
  6  3  1  0  0  0  0
  8  7  1  0  0  0  0
  8 11  1  1  0  0  0
  9  4  1  6  0  0  0
  9 10  1  0  0  0  0
 10 15  1  6  0  0  0
 10 12  1  0  0  0  0
 13  9  1  0  0  0  0
 15 14  1  0  0  0  0
 16 22  1  0  0  0  0
 17 16  2  0  0  0  0
 18 19  1  0  0  0  0
 19  1  1  0  0  0  0
 19 20  2  0  0  0  0
 21 18  2  0  0  0  0
 21 16  1  0  0  0  0
 22 20  1  0  0  0  0
 22 24  1  6  0  0  0
 23 27  2  0  0  0  0
 24 28  1  0  0  0  0
 26 24  2  0  0  0  0
 26 27  1  0  0  0  0
 27 29  1  0  0  0  0
 28 25  1  0  0  0  0
 29 25  2  0  0  0  0
 29 30  1  0  0  0  0
M  END
>  <MODEL>
1

>  <REMARK>
 VINA RESULT:      -7.6      0.000      0.000
  Name = 
  4 active torsions:
  status: ('A' for Active; 'I' for Inactive)
    1  A    between atoms: C_2  and  C_23
    2  A    between atoms: C_5  and  O_9
    3  A    between atoms: O_9  and  C_17
    4  A    between atoms: C_26  and  O_30
                            x       y       z     vdW  Elec       q    Type
                         _______ _______ _______ _____ _____    ______ ____

>  <TORSDO>
F 4

$$$$
=
 OpenBabel11062419423D

 30 33  0  0  1  0  0  0  0  0999 V2000
  187.6380  175.8940  141.3510 O   0  0  0  0  0  0  0  0  0  0  0  0
  186.2150  178.8630  143.6260 C   0  0  1  0  0  3  0  0  0  0  0  0
  186.5160  176.4980  141.9870 C   0  0  1  0  0  3  0  0  0  0  0  0
  187.2030  177.8230  147.5820 O   0  0  0  0  0  1  0  0  0  0  0  0
  187.2470  177.8240  143.8890 N   0  0  2  0  0  0  0  0  0  0  0  0
  186.7470  176.5100  143.4970 C   0  0  0  0  0  2  0  0  0  0  0  0
  185.5550  178.6910  142.3750 O   0  0  0  0  0  0  0  0  0  0  0  0
  186.3420  177.9390  141.4780 C   0  0  2  0  0  3  0  0  0  0  0  0
  186.6390  177.7810  146.3070 C   0  0  1  0  0  3  0  0  0  0  0  0
  185.7370  178.9850  146.0980 C   0  0  1  0  0  3  0  0  0  0  0  0
  185.6850  177.9420  140.1120 C   0  0  0  0  0  1  0  0  0  0  0  0
  185.1320  178.9010  144.7090 C   0  0  0  0  0  2  0  0  0  0  0  0
  187.7540  177.8120  145.2670 C   0  0  0  0  0  2  0  0  0  0  0  0
  183.9510  177.9610  146.7120 O   0  0  0  0  0  1  0  0  0  0  0  0
  184.7120  178.9820  147.0470 O   0  0  0  0  0  0  0  0  0  0  0  0
  189.8930  172.8480  143.1160 C   0  0  0  0  0  0  0  0  0  0  0  0
  190.5190  171.8860  143.6370 O   0  0  0  0  0  0  0  0  0  0  0  0
  188.0440  173.5630  141.8000 C   0  0  0  0  0  3  0  0  0  0  0  0
  188.4120  174.8970  141.9530 C   0  0  0  0  0  0  0  0  0  0  0  0
  189.5530  175.1990  142.7020 C   0  0  0  0  0  3  0  0  0  0  0  0
  188.7820  172.5810  142.3780 N   0  0  0  0  0  0  0  0  0  0  0  0
  190.3210  174.1870  143.2960 C   0  0  1  0  0  3  0  0  0  0  0  0
  194.8750  175.7510  143.6260 O   0  0  0  0  0  0  0  0  0  0  0  0
  191.5260  174.5770  144.0860 C   0  0  0  0  0  0  0  0  0  0  0  0
  192.7240  174.8730  146.3260 C   0  0  0  0  0  3  0  0  0  0  0  0
  192.6520  174.9650  143.4730 C   0  0  0  0  0  3  0  0  0  0  0  0
  193.8460  175.3520  144.2310 C   0  0  0  0  0  0  0  0  0  0  0  0
  191.4270  174.6070  145.6030 C   0  0  0  0  0  2  0  0  0  0  0  0
  193.8370  175.2430  145.6940 C   0  0  0  0  0  0  0  0  0  0  0  0
  194.9870  175.5080  146.4260 O   0  0  0  0  0  1  0  0  0  0  0  0
  1 19  1  0  0  0  0
  2  5  1  0  0  0  0
  2 12  1  1  0  0  0
  3  1  1  6  0  0  0
  3  6  1  0  0  0  0
  5  6  1  1  0  0  0
  5 13  1  0  0  0  0
  7  2  1  0  0  0  0
  8 11  1  6  0  0  0
  8  3  1  0  0  0  0
  8  7  1  0  0  0  0
  9  4  1  1  0  0  0
 10  9  1  0  0  0  0
 10 15  1  1  0  0  0
 12 10  1  0  0  0  0
 13  9  1  0  0  0  0
 14 15  1  0  0  0  0
 16 22  1  0  0  0  0
 16 17  2  0  0  0  0
 18 19  1  0  0  0  0
 18 21  2  0  0  0  0
 19 20  2  0  0  0  0
 20 22  1  0  0  0  0
 21 16  1  0  0  0  0
 22 24  1  1  0  0  0
 23 27  2  0  0  0  0
 24 28  1  0  0  0  0
 26 24  2  0  0  0  0
 26 27  1  0  0  0  0
 27 29  1  0  0  0  0
 28 25  1  0  0  0  0
 29 25  2  0  0  0  0
 29 30  1  0  0  0  0
M  END
>  <MODEL>
2

>  <REMARK>
 VINA RESULT:      -7.6      2.525      8.798
  Name = 
  4 active torsions:
  status: ('A' for Active; 'I' for Inactive)
    1  A    between atoms: C_2  and  C_23
    2  A    between atoms: C_5  and  O_9
    3  A    between atoms: O_9  and  C_17
    4  A    between atoms: C_26  and  O_30
                            x       y       z     vdW  Elec       q    Type
                         _______ _______ _______ _____ _____    ______ ____

>  <TORSDO>
F 4

$$$$
=
 OpenBabel11062419423D

 30 33  0  0  1  0  0  0  0  0999 V2000
  189.3590  175.1020  146.0930 O   0  0  0  0  0  0  0  0  0  0  0  0
  193.2060  174.4010  145.2350 C   0  0  1  0  0  3  0  0  0  0  0  0
  190.3670  174.9440  145.0980 C   0  0  1  0  0  3  0  0  0  0  0  0
  195.1860  178.0580  145.8750 O   0  0  0  0  0  1  0  0  0  0  0  0
  192.5500  175.4770  146.0260 N   0  0  2  0  0  0  0  0  0  0  0  0
  191.4240  176.0320  145.2820 C   0  0  0  0  0  2  0  0  0  0  0  0
  192.2750  173.5350  144.5910 O   0  0  0  0  0  0  0  0  0  0  0  0
  191.0210  173.5580  145.2350 C   0  0  2  0  0  3  0  0  0  0  0  0
  194.3170  177.1010  145.3520 C   0  0  1  0  0  3  0  0  0  0  0  0
  195.1100  175.9710  144.7190 C   0  0  1  0  0  3  0  0  0  0  0  0
  190.1290  172.4910  144.6320 C   0  0  0  0  0  1  0  0  0  0  0  0
  194.1350  174.9560  144.1500 C   0  0  0  0  0  2  0  0  0  0  0  0
  193.4620  176.5340  146.4800 C   0  0  0  0  0  2  0  0  0  0  0  0
  195.1760  176.3300  142.6030 O   0  0  0  0  0  1  0  0  0  0  0  0
  195.9090  176.4680  143.6880 O   0  0  0  0  0  0  0  0  0  0  0  0
  186.5710  178.2180  146.1100 C   0  0  0  0  0  0  0  0  0  0  0  0
  185.7350  179.1580  146.1840 O   0  0  0  0  0  0  0  0  0  0  0  0
  188.2360  176.9190  147.2060 C   0  0  0  0  0  3  0  0  0  0  0  0
  188.4200  176.1370  146.0690 C   0  0  0  0  0  0  0  0  0  0  0  0
  187.6590  176.4180  144.9290 C   0  0  0  0  0  3  0  0  0  0  0  0
  187.3280  177.9270  147.2030 N   0  0  0  0  0  0  0  0  0  0  0  0
  186.7230  177.4620  144.9200 C   0  0  1  0  0  3  0  0  0  0  0  0
  186.3510  177.7770  140.1190 O   0  0  0  0  0  0  0  0  0  0  0  0
  185.9410  177.7080  143.6730 C   0  0  0  0  0  0  0  0  0  0  0  0
  183.7560  178.3230  142.4960 C   0  0  0  0  0  3  0  0  0  0  0  0
  186.5290  177.6460  142.4700 C   0  0  0  0  0  3  0  0  0  0  0  0
  185.7770  177.8830  141.2340 C   0  0  0  0  0  0  0  0  0  0  0  0
  184.4430  177.9460  143.7840 C   0  0  0  0  0  2  0  0  0  0  0  0
  184.3650  178.2700  141.3130 C   0  0  0  0  0  0  0  0  0  0  0  0
  183.6610  178.5980  140.1610 O   0  0  0  0  0  1  0  0  0  0  0  0
  2 12  1  6  0  0  0
  2  5  1  0  0  0  0
  3  8  1  0  0  0  0
  3  6  1  0  0  0  0
  3  1  1  1  0  0  0
  5  6  1  6  0  0  0
  5 13  1  0  0  0  0
  7  2  1  0  0  0  0
  7  8  1  0  0  0  0
  8 11  1  6  0  0  0
  9  4  1  1  0  0  0
  9 13  1  0  0  0  0
 10 15  1  6  0  0  0
 10  9  1  0  0  0  0
 12 10  1  0  0  0  0
 14 15  1  0  0  0  0
 16 17  2  0  0  0  0
 16 21  1  0  0  0  0
 19  1  1  0  0  0  0
 19 18  1  0  0  0  0
 20 19  2  0  0  0  0
 21 18  2  0  0  0  0
 22 24  1  1  0  0  0
 22 20  1  0  0  0  0
 22 16  1  0  0  0  0
 23 27  2  0  0  0  0
 24 28  1  0  0  0  0
 25 28  1  0  0  0  0
 26 24  2  0  0  0  0
 27 29  1  0  0  0  0
 27 26  1  0  0  0  0
 29 25  2  0  0  0  0
 30 29  1  0  0  0  0
M  END
>  <MODEL>
3

>  <REMARK>
 VINA RESULT:      -7.5      2.692      4.037
  Name = 
  4 active torsions:
  status: ('A' for Active; 'I' for Inactive)
    1  A    between atoms: C_2  and  C_23
    2  A    between atoms: C_5  and  O_9
    3  A    between atoms: O_9  and  C_17
    4  A    between atoms: C_26  and  O_30
                            x       y       z     vdW  Elec       q    Type
                         _______ _______ _______ _____ _____    ______ ____

>  <TORSDO>
F 4

$$$$
=
 OpenBabel11062419423D

 30 33  0  0  1  0  0  0  0  0999 V2000
  192.6250  176.0500  143.8110 O   0  0  0  0  0  0  0  0  0  0  0  0
  196.1610  174.7650  145.1800 C   0  0  1  0  0  3  0  0  0  0  0  0
  193.3400  175.1930  144.6960 C   0  0  1  0  0  3  0  0  0  0  0  0
  197.5620  172.0420  142.2950 O   0  0  0  0  0  1  0  0  0  0  0  0
  195.5620  174.7470  143.8170 N   0  0  2  0  0  0  0  0  0  0  0  0
  194.1980  174.2320  143.8760 C   0  0  0  0  0  2  0  0  0  0  0  0
  195.2590  175.2330  146.1790 O   0  0  0  0  0  0  0  0  0  0  0  0
  194.2400  176.0320  145.6200 C   0  0  2  0  0  3  0  0  0  0  0  0
  196.7670  172.6320  143.2770 C   0  0  1  0  0  3  0  0  0  0  0  0
  197.5480  172.7490  144.5750 C   0  0  1  0  0  3  0  0  0  0  0  0
  193.4230  176.6540  146.7340 C   0  0  0  0  0  1  0  0  0  0  0  0
  196.6510  173.3830  145.6220 C   0  0  0  0  0  2  0  0  0  0  0  0
  196.3610  174.0280  142.8170 C   0  0  0  0  0  2  0  0  0  0  0  0
  197.0410  171.1490  145.9140 O   0  0  0  0  0  1  0  0  0  0  0  0
  197.9390  171.4820  145.0110 O   0  0  0  0  0  0  0  0  0  0  0  0
  188.6460  175.3790  142.7180 C   0  0  0  0  0  0  0  0  0  0  0  0
  187.4690  175.1480  142.3300 O   0  0  0  0  0  0  0  0  0  0  0  0
  190.9720  174.9650  142.4360 C   0  0  0  0  0  3  0  0  0  0  0  0
  191.2860  175.8460  143.4680 C   0  0  0  0  0  0  0  0  0  0  0  0
  190.2440  176.4970  144.1370 C   0  0  0  0  0  3  0  0  0  0  0  0
  189.6770  174.7550  142.0870 N   0  0  0  0  0  0  0  0  0  0  0  0
  188.9050  176.2780  143.7830 C   0  0  1  0  0  3  0  0  0  0  0  0
  186.2520  177.0480  147.7410 O   0  0  0  0  0  0  0  0  0  0  0  0
  187.8410  177.0070  144.5340 C   0  0  0  0  0  0  0  0  0  0  0  0
  186.0140  178.7930  144.6450 C   0  0  0  0  0  3  0  0  0  0  0  0
  187.5320  176.6640  145.7920 C   0  0  0  0  0  3  0  0  0  0  0  0
  186.4910  177.3680  146.5470 C   0  0  0  0  0  0  0  0  0  0  0  0
  187.1700  178.2020  143.8770 C   0  0  0  0  0  2  0  0  0  0  0  0
  185.7140  178.4250  145.8890 C   0  0  0  0  0  0  0  0  0  0  0  0
  184.6570  179.0360  146.5510 O   0  0  0  0  0  1  0  0  0  0  0  0
  2 12  1  1  0  0  0
  2  7  1  0  0  0  0
  3  1  1  6  0  0  0
  3  8  1  0  0  0  0
  5 13  1  6  0  0  0
  5  6  1  0  0  0  0
  5  2  1  0  0  0  0
  6  3  1  0  0  0  0
  8  7  1  0  0  0  0
  8 11  1  1  0  0  0
  9  4  1  6  0  0  0
  9 10  1  0  0  0  0
 10 15  1  1  0  0  0
 10 12  1  0  0  0  0
 13  9  1  0  0  0  0
 15 14  1  0  0  0  0
 16 22  1  0  0  0  0
 17 16  2  0  0  0  0
 18 19  1  0  0  0  0
 19  1  1  0  0  0  0
 19 20  2  0  0  0  0
 21 18  2  0  0  0  0
 21 16  1  0  0  0  0
 22 20  1  0  0  0  0
 22 24  1  6  0  0  0
 24 26  2  0  0  0  0
 25 29  2  0  0  0  0
 26 27  1  0  0  0  0
 27 23  2  0  0  0  0
 28 24  1  0  0  0  0
 28 25  1  0  0  0  0
 29 27  1  0  0  0  0
 29 30  1  0  0  0  0
M  END
>  <MODEL>
4

>  <REMARK>
 VINA RESULT:      -7.3      1.257      1.712
  Name = 
  4 active torsions:
  status: ('A' for Active; 'I' for Inactive)
    1  A    between atoms: C_2  and  C_23
    2  A    between atoms: C_5  and  O_9
    3  A    between atoms: O_9  and  C_17
    4  A    between atoms: C_26  and  O_30
                            x       y       z     vdW  Elec       q    Type
                         _______ _______ _______ _____ _____    ______ ____

>  <TORSDO>
F 4

$$$$
=
 OpenBabel11062419423D

 30 33  0  0  1  0  0  0  0  0999 V2000
  192.0670  177.1530  144.6120 O   0  0  0  0  0  0  0  0  0  0  0  0
  195.8040  176.0900  143.6500 C   0  0  1  0  0  3  0  0  0  0  0  0
  193.1080  176.1850  144.6980 C   0  0  1  0  0  3  0  0  0  0  0  0
  195.5950  174.7050  139.6830 O   0  0  0  0  0  1  0  0  0  0  0  0
  194.6210  176.4130  142.8080 N   0  0  2  0  0  0  0  0  0  0  0  0
  193.4490  175.6920  143.2930 C   0  0  0  0  0  2  0  0  0  0  0  0
  195.5060  176.0590  145.0430 O   0  0  0  0  0  0  0  0  0  0  0  0
  194.3550  176.8180  145.3410 C   0  0  2  0  0  3  0  0  0  0  0  0
  195.3840  174.8110  141.0570 C   0  0  1  0  0  3  0  0  0  0  0  0
  196.6960  174.6300  141.7990 C   0  0  1  0  0  3  0  0  0  0  0  0
  194.1880  176.9060  146.8440 C   0  0  0  0  0  1  0  0  0  0  0  0
  196.4280  174.7380  143.2890 C   0  0  0  0  0  2  0  0  0  0  0  0
  194.8260  176.1940  141.3710 C   0  0  0  0  0  2  0  0  0  0  0  0
  196.3640  172.5200  142.0240 O   0  0  0  0  0  1  0  0  0  0  0  0
  197.2320  173.3710  141.5200 O   0  0  0  0  0  0  0  0  0  0  0  0
  188.3280  176.5580  146.3860 C   0  0  0  0  0  0  0  0  0  0  0  0
  187.2320  176.3380  146.9670 O   0  0  0  0  0  0  0  0  0  0  0  0
  190.7030  176.4310  146.4610 C   0  0  0  0  0  3  0  0  0  0  0  0
  190.8030  176.9650  145.1790 C   0  0  0  0  0  0  0  0  0  0  0  0
  189.6300  177.3050  144.4980 C   0  0  0  0  0  3  0  0  0  0  0  0
  189.4840  176.2410  147.0280 N   0  0  0  0  0  0  0  0  0  0  0  0
  188.3690  177.1150  145.0830 C   0  0  1  0  0  3  0  0  0  0  0  0
  184.4120  179.7910  144.3950 O   0  0  0  0  0  0  0  0  0  0  0  0
  187.1560  177.4960  144.3010 C   0  0  0  0  0  0  0  0  0  0  0  0
  185.5960  177.1620  142.3030 C   0  0  0  0  0  3  0  0  0  0  0  0
  186.3360  178.4630  144.7350 C   0  0  0  0  0  3  0  0  0  0  0  0
  185.1400  178.8510  143.9810 C   0  0  0  0  0  0  0  0  0  0  0  0
  186.9110  176.8250  142.9590 C   0  0  0  0  0  2  0  0  0  0  0  0
  184.7870  178.1170  142.7610 C   0  0  0  0  0  0  0  0  0  0  0  0
  183.6070  178.4010  142.0870 O   0  0  0  0  0  1  0  0  0  0  0  0
  1 19  1  0  0  0  0
  2 12  1  6  0  0  0
  2  7  1  0  0  0  0
  3  1  1  6  0  0  0
  3  8  1  0  0  0  0
  5 13  1  6  0  0  0
  5  6  1  0  0  0  0
  5  2  1  0  0  0  0
  6  3  1  0  0  0  0
  7  8  1  0  0  0  0
  8 11  1  1  0  0  0
  9  4  1  6  0  0  0
  9 13  1  0  0  0  0
  9 10  1  0  0  0  0
 10 15  1  1  0  0  0
 10 12  1  0  0  0  0
 15 14  1  0  0  0  0
 16 17  2  0  0  0  0
 16 21  1  0  0  0  0
 18 21  2  0  0  0  0
 19 18  1  0  0  0  0
 20 22  1  0  0  0  0
 20 19  2  0  0  0  0
 22 24  1  6  0  0  0
 22 16  1  0  0  0  0
 24 26  2  0  0  0  0
 25 29  2  0  0  0  0
 25 28  1  0  0  0  0
 27 23  2  0  0  0  0
 27 26  1  0  0  0  0
 28 24  1  0  0  0  0
 29 27  1  0  0  0  0
 30 29  1  0  0  0  0
M  END
>  <MODEL>
5

>  <REMARK>
 VINA RESULT:      -7.2      2.121      2.792
  Name = 
  4 active torsions:
  status: ('A' for Active; 'I' for Inactive)
    1  A    between atoms: C_2  and  C_23
    2  A    between atoms: C_5  and  O_9
    3  A    between atoms: O_9  and  C_17
    4  A    between atoms: C_26  and  O_30
                            x       y       z     vdW  Elec       q    Type
                         _______ _______ _______ _____ _____    ______ ____

>  <TORSDO>
F 4

$$$$
=
 OpenBabel11062419423D

 30 33  0  0  1  0  0  0  0  0999 V2000
  191.0960  174.4480  143.6390 O   0  0  0  0  0  0  0  0  0  0  0  0
  190.5180  171.8340  140.6630 C   0  0  1  0  0  3  0  0  0  0  0  0
  190.1820  173.8010  142.7590 C   0  0  1  0  0  3  0  0  0  0  0  0
  191.6060  173.8730  137.1470 O   0  0  0  0  0  1  0  0  0  0  0  0
  191.3310  173.0780  140.7430 N   0  0  2  0  0  0  0  0  0  0  0  0
  190.5390  174.1600  141.3170 C   0  0  0  0  0  2  0  0  0  0  0  0
  189.7320  171.6060  141.8300 O   0  0  0  0  0  0  0  0  0  0  0  0
  190.2660  172.2760  142.9490 C   0  0  2  0  0  3  0  0  0  0  0  0
  190.9380  173.5330  138.3230 C   0  0  1  0  0  3  0  0  0  0  0  0
  190.2890  172.1670  138.1750 C   0  0  1  0  0  3  0  0  0  0  0  0
  189.5090  171.8560  144.1930 C   0  0  0  0  0  1  0  0  0  0  0  0
  189.5630  171.8350  139.4650 C   0  0  0  0  0  2  0  0  0  0  0  0
  191.9410  173.4820  139.4690 C   0  0  0  0  0  2  0  0  0  0  0  0
  189.6770  171.1340  136.3950 O   0  0  0  0  0  1  0  0  0  0  0  0
  189.3720  172.1870  137.1230 O   0  0  0  0  0  0  0  0  0  0  0  0
  189.9770  177.1310  146.6440 C   0  0  0  0  0  0  0  0  0  0  0  0
  189.6970  177.9220  147.5850 O   0  0  0  0  0  0  0  0  0  0  0  0
  191.6060  175.7420  145.6050 C   0  0  0  0  0  3  0  0  0  0  0  0
  190.6930  175.3460  144.6310 C   0  0  0  0  0  0  0  0  0  0  0  0
  189.3960  175.8680  144.6730 C   0  0  0  0  0  3  0  0  0  0  0  0
  191.2330  176.6130  146.5770 N   0  0  0  0  0  0  0  0  0  0  0  0
  189.0090  176.7720  145.6730 C   0  0  1  0  0  3  0  0  0  0  0  0
  185.5180  179.5800  143.8770 O   0  0  0  0  0  0  0  0  0  0  0  0
  187.6090  177.2900  145.6630 C   0  0  0  0  0  0  0  0  0  0  0  0
  185.2490  177.3560  146.6460 C   0  0  0  0  0  3  0  0  0  0  0  0
  187.2270  178.2180  144.7750 C   0  0  0  0  0  3  0  0  0  0  0  0
  185.8560  178.7380  144.7490 C   0  0  0  0  0  0  0  0  0  0  0  0
  186.5990  176.6830  146.6240 C   0  0  0  0  0  2  0  0  0  0  0  0
  184.8960  178.2890  145.7640 C   0  0  0  0  0  0  0  0  0  0  0  0
  183.6240  178.8430  145.8200 O   0  0  0  0  0  1  0  0  0  0  0  0
  1 19  1  0  0  0  0
  2 12  1  6  0  0  0
  2  5  1  0  0  0  0
  2  7  1  0  0  0  0
  3  8  1  0  0  0  0
  3  1  1  1  0  0  0
  5 13  1  6  0  0  0
  5  6  1  0  0  0  0
  6  3  1  0  0  0  0
  7  8  1  0  0  0  0
  8 11  1  1  0  0  0
  9  4  1  6  0  0  0
  9 13  1  0  0  0  0
 10 15  1  6  0  0  0
 10  9  1  0  0  0  0
 10 12  1  0  0  0  0
 14 15  1  0  0  0  0
 16 17  2  0  0  0  0
 18 21  2  0  0  0  0
 19 20  2  0  0  0  0
 19 18  1  0  0  0  0
 20 22  1  0  0  0  0
 21 16  1  0  0  0  0
 22 24  1  1  0  0  0
 22 16  1  0  0  0  0
 23 27  2  0  0  0  0
 24 28  1  0  0  0  0
 26 24  2  0  0  0  0
 27 26  1  0  0  0  0
 27 29  1  0  0  0  0
 28 25  1  0  0  0  0
 29 30  1  0  0  0  0
 29 25  2  0  0  0  0
M  END
>  <MODEL>
6

>  <REMARK>
 VINA RESULT:      -7.2      3.607      5.820
  Name = 
  4 active torsions:
  status: ('A' for Active; 'I' for Inactive)
    1  A    between atoms: C_2  and  C_23
    2  A    between atoms: C_5  and  O_9
    3  A    between atoms: O_9  and  C_17
    4  A    between atoms: C_26  and  O_30
                            x       y       z     vdW  Elec       q    Type
                         _______ _______ _______ _____ _____    ______ ____

>  <TORSDO>
F 4

$$$$
=
 OpenBabel11062419423D

 30 33  0  0  1  0  0  0  0  0999 V2000
  188.5730  177.0600  146.8660 O   0  0  0  0  0  0  0  0  0  0  0  0
  185.5590  177.5780  144.2840 C   0  0  1  0  0  3  0  0  0  0  0  0
  187.8060  177.9560  146.0670 C   0  0  1  0  0  3  0  0  0  0  0  0
  187.0720  176.4040  140.5370 O   0  0  0  0  0  1  0  0  0  0  0  0
  186.8010  176.7630  144.2020 N   0  0  2  0  0  0  0  0  0  0  0  0
  187.9540  177.5650  144.5980 C   0  0  0  0  0  2  0  0  0  0  0  0
  185.5000  178.3910  145.4520 O   0  0  0  0  0  0  0  0  0  0  0  0
  186.3250  177.8810  146.4760 C   0  0  2  0  0  3  0  0  0  0  0  0
  186.9040  177.1000  141.7340 C   0  0  1  0  0  3  0  0  0  0  0  0
  185.5310  177.7480  141.7690 C   0  0  1  0  0  3  0  0  0  0  0  0
  186.0870  178.6670  147.7490 C   0  0  0  0  0  1  0  0  0  0  0  0
  185.3870  178.5050  143.0760 C   0  0  0  0  0  2  0  0  0  0  0  0
  187.0180  176.1230  142.8990 C   0  0  0  0  0  2  0  0  0  0  0  0
  184.1190  178.6100  140.4000 O   0  0  0  0  0  1  0  0  0  0  0  0
  185.3990  178.6420  140.7040 O   0  0  0  0  0  0  0  0  0  0  0  0
  191.0150  174.0700  145.2590 C   0  0  0  0  0  0  0  0  0  0  0  0
  191.7090  173.1220  144.8040 O   0  0  0  0  0  0  0  0  0  0  0  0
  188.9700  174.7630  146.2600 C   0  0  0  0  0  3  0  0  0  0  0  0
  189.4120  176.0820  146.3230 C   0  0  0  0  0  0  0  0  0  0  0  0
  190.6850  176.3900  145.8330 C   0  0  0  0  0  3  0  0  0  0  0  0
  189.7710  173.7990  145.7380 N   0  0  0  0  0  0  0  0  0  0  0  0
  191.5130  175.3970  145.2880 C   0  0  1  0  0  3  0  0  0  0  0  0
  194.6720  176.1660  141.7210 O   0  0  0  0  0  0  0  0  0  0  0  0
  192.8620  175.7910  144.7850 C   0  0  0  0  0  0  0  0  0  0  0  0
  195.2690  176.5390  145.2120 C   0  0  0  0  0  3  0  0  0  0  0  0
  193.1380  175.7720  143.4740 C   0  0  0  0  0  3  0  0  0  0  0  0
  194.4570  176.1560  142.9610 C   0  0  0  0  0  0  0  0  0  0  0  0
  193.8940  176.2970  145.7810 C   0  0  0  0  0  2  0  0  0  0  0  0
  195.5260  176.4990  143.9060 C   0  0  0  0  0  0  0  0  0  0  0  0
  196.8090  176.7670  143.4480 O   0  0  0  0  0  1  0  0  0  0  0  0
  2 12  1  6  0  0  0
  2  7  1  0  0  0  0
  3  8  1  0  0  0  0
  3  1  1  1  0  0  0
  5 13  1  6  0  0  0
  5  2  1  0  0  0  0
  5  6  1  0  0  0  0
  6  3  1  0  0  0  0
  7  8  1  0  0  0  0
  8 11  1  1  0  0  0
  9  4  1  6  0  0  0
  9 10  1  0  0  0  0
  9 13  1  0  0  0  0
 10 15  1  6  0  0  0
 10 12  1  0  0  0  0
 14 15  1  0  0  0  0
 16 22  1  0  0  0  0
 16 21  1  0  0  0  0
 17 16  2  0  0  0  0
 18 19  1  0  0  0  0
 19  1  1  0  0  0  0
 20 19  2  0  0  0  0
 21 18  2  0  0  0  0
 22 24  1  1  0  0  0
 22 20  1  0  0  0  0
 23 27  2  0  0  0  0
 24 28  1  0  0  0  0
 25 28  1  0  0  0  0
 26 24  2  0  0  0  0
 27 26  1  0  0  0  0
 27 29  1  0  0  0  0
 29 25  2  0  0  0  0
 30 29  1  0  0  0  0
M  END
>  <MODEL>
7

>  <REMARK>
 VINA RESULT:      -7.1      2.589      8.920
  Name = 
  4 active torsions:
  status: ('A' for Active; 'I' for Inactive)
    1  A    between atoms: C_2  and  C_23
    2  A    between atoms: C_5  and  O_9
    3  A    between atoms: O_9  and  C_17
    4  A    between atoms: C_26  and  O_30
                            x       y       z     vdW  Elec       q    Type
                         _______ _______ _______ _____ _____    ______ ____

>  <TORSDO>
F 4

$$$$
=
 OpenBabel11062419423D

 30 33  0  0  1  0  0  0  0  0999 V2000
  190.7910  177.1940  145.4210 O   0  0  0  0  0  0  0  0  0  0  0  0
  193.8240  174.6590  144.7830 C   0  0  1  0  0  3  0  0  0  0  0  0
  191.4000  176.2260  144.5710 C   0  0  1  0  0  3  0  0  0  0  0  0
  197.0180  177.0430  143.4350 O   0  0  0  0  0  1  0  0  0  0  0  0
  193.7930  176.1330  144.9870 N   0  0  2  0  0  0  0  0  0  0  0  0
  192.7720  176.7360  144.1360 C   0  0  0  0  0  2  0  0  0  0  0  0
  192.5240  174.0810  144.7020 O   0  0  0  0  0  0  0  0  0  0  0  0
  191.5570  174.8950  145.3270 C   0  0  2  0  0  3  0  0  0  0  0  0
  195.7740  176.4160  143.5000 C   0  0  1  0  0  3  0  0  0  0  0  0
  195.9500  174.9090  143.4530 C   0  0  1  0  0  3  0  0  0  0  0  0
  190.2360  174.1550  145.3780 C   0  0  0  0  0  1  0  0  0  0  0  0
  194.5800  174.2600  143.5120 C   0  0  0  0  0  2  0  0  0  0  0  0
  195.0930  176.7940  144.8100 C   0  0  0  0  0  2  0  0  0  0  0  0
  195.6310  173.9890  141.5380 O   0  0  0  0  0  1  0  0  0  0  0  0
  196.5820  174.5390  142.2640 O   0  0  0  0  0  0  0  0  0  0  0  0
  186.6700  177.4390  146.0830 C   0  0  0  0  0  0  0  0  0  0  0  0
  185.4390  177.4860  146.3460 O   0  0  0  0  0  0  0  0  0  0  0  0
  188.8880  177.1500  146.8960 C   0  0  0  0  0  3  0  0  0  0  0  0
  189.4090  177.2800  145.6120 C   0  0  0  0  0  0  0  0  0  0  0  0
  188.5290  177.5020  144.5480 C   0  0  0  0  0  3  0  0  0  0  0  0
  187.5480  177.2300  147.1010 N   0  0  0  0  0  0  0  0  0  0  0  0
  187.1450  177.5910  144.7560 C   0  0  1  0  0  3  0  0  0  0  0  0
  182.8730  178.6620  142.7830 O   0  0  0  0  0  0  0  0  0  0  0  0
  186.2600  177.8260  143.5770 C   0  0  0  0  0  0  0  0  0  0  0  0
  185.8930  177.9180  141.0480 C   0  0  0  0  0  3  0  0  0  0  0  0
  184.9620  178.1170  143.7400 C   0  0  0  0  0  3  0  0  0  0  0  0
  184.0780  178.3510  142.5950 C   0  0  0  0  0  0  0  0  0  0  0  0
  186.8760  177.8130  142.1870 C   0  0  0  0  0  2  0  0  0  0  0  0
  184.6030  178.1920  141.2340 C   0  0  0  0  0  0  0  0  0  0  0  0
  183.7590  178.3100  140.1380 O   0  0  0  0  0  1  0  0  0  0  0  0
  1 19  1  0  0  0  0
  2 12  1  6  0  0  0
  2  5  1  0  0  0  0
  3  8  1  0  0  0  0
  3  1  1  1  0  0  0
  5  6  1  6  0  0  0
  6  3  1  0  0  0  0
  7  2  1  0  0  0  0
  7  8  1  0  0  0  0
  8 11  1  6  0  0  0
  9  4  1  1  0  0  0
  9 13  1  0  0  0  0
 10 15  1  6  0  0  0
 10  9  1  0  0  0  0
 10 12  1  0  0  0  0
 13  5  1  0  0  0  0
 14 15  1  0  0  0  0
 16 17  2  0  0  0  0
 16 21  1  0  0  0  0
 18 21  2  0  0  0  0
 19 18  1  0  0  0  0
 20 22  1  0  0  0  0
 20 19  2  0  0  0  0
 22 24  1  6  0  0  0
 22 16  1  0  0  0  0
 24 26  2  0  0  0  0
 25 29  2  0  0  0  0
 25 28  1  0  0  0  0
 27 23  2  0  0  0  0
 27 26  1  0  0  0  0
 28 24  1  0  0  0  0
 29 27  1  0  0  0  0
 30 29  1  0  0  0  0
M  END
>  <MODEL>
8

>  <REMARK>
 VINA RESULT:      -7.1      2.338      3.346
  Name = 
  4 active torsions:
  status: ('A' for Active; 'I' for Inactive)
    1  A    between atoms: C_2  and  C_23
    2  A    between atoms: C_5  and  O_9
    3  A    between atoms: O_9  and  C_17
    4  A    between atoms: C_26  and  O_30
                            x       y       z     vdW  Elec       q    Type
                         _______ _______ _______ _____ _____    ______ ____

>  <TORSDO>
F 4

$$$$
=
 OpenBabel11062419423D

 30 33  0  0  1  0  0  0  0  0999 V2000
  187.8380  177.0330  146.8970 O   0  0  0  0  0  0  0  0  0  0  0  0
  185.0390  177.4430  144.0650 C   0  0  1  0  0  3  0  0  0  0  0  0
  187.0660  177.9060  146.0770 C   0  0  1  0  0  3  0  0  0  0  0  0
  186.9950  176.6470  140.4250 O   0  0  0  0  0  1  0  0  0  0  0  0
  186.3550  176.7480  144.0610 N   0  0  2  0  0  0  0  0  0  0  0  0
  187.3850  177.6230  144.6100 C   0  0  0  0  0  2  0  0  0  0  0  0
  184.7960  178.1720  145.2650 O   0  0  0  0  0  0  0  0  0  0  0  0
  185.5670  177.6730  146.3350 C   0  0  2  0  0  3  0  0  0  0  0  0
  186.6520  177.2480  141.6370 C   0  0  1  0  0  3  0  0  0  0  0  0
  185.2270  177.7680  141.5720 C   0  0  1  0  0  3  0  0  0  0  0  0
  185.1400  178.3530  147.6200 C   0  0  0  0  0  1  0  0  0  0  0  0
  184.8920  178.4250  142.8990 C   0  0  0  0  0  2  0  0  0  0  0  0
  186.7510  176.2130  142.7520 C   0  0  0  0  0  2  0  0  0  0  0  0
  183.8340  178.6940  140.2250 O   0  0  0  0  0  1  0  0  0  0  0  0
  185.1100  178.7120  140.5500 O   0  0  0  0  0  0  0  0  0  0  0  0
  191.5830  175.5400  145.7890 C   0  0  0  0  0  0  0  0  0  0  0  0
  192.7410  175.1440  145.4890 O   0  0  0  0  0  0  0  0  0  0  0  0
  190.2350  176.9810  147.1200 C   0  0  0  0  0  3  0  0  0  0  0  0
  189.0760  176.5150  146.5060 C   0  0  0  0  0  0  0  0  0  0  0  0
  189.1870  175.5330  145.5160 C   0  0  0  0  0  3  0  0  0  0  0  0
  191.4470  176.4920  146.7520 N   0  0  0  0  0  0  0  0  0  0  0  0
  190.4360  175.0210  145.1380 C   0  0  1  0  0  3  0  0  0  0  0  0
  190.8590  173.6530  140.5290 O   0  0  0  0  0  0  0  0  0  0  0  0
  190.4860  173.9760  144.0730 C   0  0  0  0  0  0  0  0  0  0  0  0
  190.3660  171.5280  143.3440 C   0  0  0  0  0  3  0  0  0  0  0  0
  190.6300  174.3160  142.7850 C   0  0  0  0  0  3  0  0  0  0  0  0
  190.6820  173.3040  141.7250 C   0  0  0  0  0  0  0  0  0  0  0  0
  190.4540  172.5120  144.4840 C   0  0  0  0  0  2  0  0  0  0  0  0
  190.4960  171.8900  142.0690 C   0  0  0  0  0  0  0  0  0  0  0  0
  190.4400  170.9250  141.0710 O   0  0  0  0  0  1  0  0  0  0  0  0
  2 12  1  6  0  0  0
  2  7  1  0  0  0  0
  3  8  1  0  0  0  0
  3  1  1  1  0  0  0
  5 13  1  6  0  0  0
  5  2  1  0  0  0  0
  5  6  1  0  0  0  0
  6  3  1  0  0  0  0
  7  8  1  0  0  0  0
  8 11  1  1  0  0  0
  9  4  1  6  0  0  0
  9 13  1  0  0  0  0
 10 15  1  6  0  0  0
 10  9  1  0  0  0  0
 10 12  1  0  0  0  0
 14 15  1  0  0  0  0
 16 21  1  0  0  0  0
 17 16  2  0  0  0  0
 19  1  1  0  0  0  0
 19 18  1  0  0  0  0
 20 19  2  0  0  0  0
 21 18  2  0  0  0  0
 22 24  1  6  0  0  0
 22 20  1  0  0  0  0
 22 16  1  0  0  0  0
 23 27  2  0  0  0  0
 24 28  1  0  0  0  0
 25 28  1  0  0  0  0
 26 24  2  0  0  0  0
 27 29  1  0  0  0  0
 27 26  1  0  0  0  0
 29 25  2  0  0  0  0
 30 29  1  0  0  0  0
M  END
>  <MODEL>
9

>  <REMARK>
 VINA RESULT:      -7.0      3.275      8.801
  Name = 
  4 active torsions:
  status: ('A' for Active; 'I' for Inactive)
    1  A    between atoms: C_2  and  C_23
    2  A    between atoms: C_5  and  O_9
    3  A    between atoms: O_9  and  C_17
    4  A    between atoms: C_26  and  O_30
                            x       y       z     vdW  Elec       q    Type
                         _______ _______ _______ _____ _____    ______ ____

>  <TORSDO>
F 4

$$$$
