=
 OpenBabel11062420143D

 25 28  0  0  1  0  0  0  0  0999 V2000
  185.1610  178.1010  142.7440 C   0  0  1  0  0  3  0  0  0  0  0  0
  185.0920  179.4360  143.1410 O   0  0  0  0  0  1  0  0  0  0  0  0
  187.7140  177.8840  141.3340 C   0  0  0  0  0  2  0  0  0  0  0  0
  186.4220  177.9170  140.6370 N   0  0  0  0  0  0  0  0  0  0  0  0
  184.0820  178.0750  140.4310 N   0  0  0  0  0  2  0  0  0  0  0  0
  185.2640  178.0270  141.2330 C   0  0  0  0  0  0  0  0  0  0  0  0
  187.6910  176.4690  145.0300 C   0  0  0  0  0  0  0  0  0  0  0  0
  186.3420  177.4430  143.3960 C   0  0  0  0  0  0  0  0  0  0  0  0
  186.4210  176.9460  144.7130 C   0  0  0  0  0  0  0  0  0  0  0  0
  187.5400  177.3480  142.7140 C   0  0  0  0  0  0  0  0  0  0  0  0
  188.7170  176.6820  143.7080 S   0  0  0  0  0  0  0  0  0  0  0  0
  182.7500  178.1810  141.0040 C   0  0  0  0  0  1  0  0  0  0  0  0
  188.1180  175.9370  146.3580 C   0  0  0  0  0  2  0  0  0  0  0  0
  189.5700  175.9800  146.4800 N   0  0  0  0  0  0  0  0  0  0  0  0
  191.7470  175.1480  146.8350 N   0  0  0  0  0  0  0  0  0  0  0  0
  190.1720  173.8580  145.6350 O   0  0  0  0  0  0  0  0  0  0  0  0
  191.7480  176.4780  147.4350 C   0  0  0  0  0  2  0  0  0  0  0  0
  192.8690  174.4820  146.4790 O   0  0  0  0  0  1  0  0  0  0  0  0
  190.3330  176.9240  147.2230 C   0  0  0  0  0  0  0  0  0  0  0  0
  190.4670  174.9060  146.2690 C   0  0  0  0  0  0  0  0  0  0  0  0
  189.8610  178.0080  147.6570 O   0  0  0  0  0  0  0  0  0  0  0  0
  185.3430  176.9120  145.6580 N   0  0  0  0  0  2  0  0  0  0  0  0
  185.6890  179.1090  146.6070 C   0  0  0  0  0  2  0  0  0  0  0  0
  184.6590  178.0860  146.1750 C   0  0  0  0  0  3  0  0  0  0  0  0
  184.9930  178.2520  147.6440 C   0  0  0  0  0  2  0  0  0  0  0  0
  1  2  1  6  0  0  0
  1  8  1  0  0  0  0
  3 10  1  0  0  0  0
  4  6  2  0  0  0  0
  4  3  1  0  0  0  0
  5 12  1  0  0  0  0
  5  6  1  0  0  0  0
  6  1  1  0  0  0  0
  7 13  1  0  0  0  0
  8  9  1  0  0  0  0
  9  7  2  0  0  0  0
  9 22  1  0  0  0  0
 10  8  2  0  0  0  0
 10 11  1  0  0  0  0
 11  7  1  0  0  0  0
 13 14  1  0  0  0  0
 14 19  1  0  0  0  0
 15 17  1  0  0  0  0
 16 20  2  0  0  0  0
 18 15  1  0  0  0  0
 19 17  1  0  0  0  0
 19 21  2  0  0  0  0
 20 14  1  0  0  0  0
 20 15  1  0  0  0  0
 22 24  1  0  0  0  0
 23 25  1  0  0  0  0
 24 23  1  0  0  0  0
 24 25  1  0  0  0  0
M  END
>  <MODEL>
1

>  <REMARK>
 VINA RESULT:      -7.1      0.000      0.000
  Name = 
  4 active torsions:
  status: ('A' for Active; 'I' for Inactive)
    1  A    between atoms: N_3  and  C_9
    2  A    between atoms: C_9  and  C_11
    3  A    between atoms: N_12  and  C_15
    4  A    between atoms: N_12  and  C_16
                            x       y       z     vdW  Elec       q    Type
                         _______ _______ _______ _____ _____    ______ ____

>  <TORSDO>
F 4

$$$$
=
 OpenBabel11062420143D

 25 28  0  0  1  0  0  0  0  0999 V2000
  185.3310  178.0900  142.7620 C   0  0  1  0  0  3  0  0  0  0  0  0
  185.5350  179.4320  143.0860 O   0  0  0  0  0  1  0  0  0  0  0  0
  187.3190  177.5240  140.6920 C   0  0  0  0  0  2  0  0  0  0  0  0
  185.8920  177.7050  140.3950 N   0  0  0  0  0  0  0  0  0  0  0  0
  183.6280  178.1540  140.8620 N   0  0  0  0  0  2  0  0  0  0  0  0
  184.9790  177.9730  141.2910 C   0  0  0  0  0  0  0  0  0  0  0  0
  188.2150  176.2000  144.3130 C   0  0  0  0  0  0  0  0  0  0  0  0
  186.5680  177.3030  143.0830 C   0  0  0  0  0  0  0  0  0  0  0  0
  186.9700  176.8270  144.3480 C   0  0  0  0  0  0  0  0  0  0  0  0
  187.4950  177.0430  142.0920 C   0  0  0  0  0  0  0  0  0  0  0  0
  188.8270  176.2550  142.7420 S   0  0  0  0  0  0  0  0  0  0  0  0
  182.5430  178.4390  141.7860 C   0  0  0  0  0  1  0  0  0  0  0  0
  188.9470  175.6460  145.4900 C   0  0  0  0  0  2  0  0  0  0  0  0
  190.2190  175.0700  145.0720 N   0  0  0  0  0  0  0  0  0  0  0  0
  191.9330  173.4580  144.9320 N   0  0  0  0  0  0  0  0  0  0  0  0
  189.6700  172.7770  144.9390 O   0  0  0  0  0  0  0  0  0  0  0  0
  192.6230  174.7430  144.9440 C   0  0  0  0  0  2  0  0  0  0  0  0
  192.4900  172.3090  144.4870 O   0  0  0  0  0  1  0  0  0  0  0  0
  191.4890  175.7130  145.0870 C   0  0  0  0  0  0  0  0  0  0  0  0
  190.5330  173.6930  144.9840 C   0  0  0  0  0  0  0  0  0  0  0  0
  191.6340  176.9570  145.2140 O   0  0  0  0  0  0  0  0  0  0  0  0
  186.2190  176.9490  145.5630 N   0  0  0  0  0  2  0  0  0  0  0  0
  185.8940  177.7640  147.8160 C   0  0  0  0  0  2  0  0  0  0  0  0
  186.1510  178.1520  146.3760 C   0  0  0  0  0  3  0  0  0  0  0  0
  184.7590  178.2830  146.9590 C   0  0  0  0  0  2  0  0  0  0  0  0
  1  8  1  0  0  0  0
  1  2  1  6  0  0  0
  3 10  1  0  0  0  0
  4  3  1  0  0  0  0
  4  6  2  0  0  0  0
  5  6  1  0  0  0  0
  5 12  1  0  0  0  0
  6  1  1  0  0  0  0
  7  9  2  0  0  0  0
  7 13  1  0  0  0  0
  8  9  1  0  0  0  0
  9 22  1  0  0  0  0
 10 11  1  0  0  0  0
 10  8  2  0  0  0  0
 11  7  1  0  0  0  0
 14 19  1  0  0  0  0
 14 13  1  0  0  0  0
 15 17  1  0  0  0  0
 15 20  1  0  0  0  0
 16 20  2  0  0  0  0
 17 19  1  0  0  0  0
 18 15  1  0  0  0  0
 19 21  2  0  0  0  0
 20 14  1  0  0  0  0
 22 24  1  0  0  0  0
 24 25  1  0  0  0  0
 24 23  1  0  0  0  0
 25 23  1  0  0  0  0
M  END
>  <MODEL>
2

>  <REMARK>
 VINA RESULT:      -6.7      1.493      1.615
  Name = 
  4 active torsions:
  status: ('A' for Active; 'I' for Inactive)
    1  A    between atoms: N_3  and  C_9
    2  A    between atoms: C_9  and  C_11
    3  A    between atoms: N_12  and  C_15
    4  A    between atoms: N_12  and  C_16
                            x       y       z     vdW  Elec       q    Type
                         _______ _______ _______ _____ _____    ______ ____

>  <TORSDO>
F 4

$$$$
=
 OpenBabel11062420143D

 25 28  0  0  1  0  0  0  0  0999 V2000
  190.2970  172.8220  144.0860 C   0  0  1  0  0  3  0  0  0  0  0  0
  189.6250  172.2520  145.1680 O   0  0  0  0  0  1  0  0  0  0  0  0
  188.3430  172.7950  141.9100 C   0  0  0  0  0  2  0  0  0  0  0  0
  189.4680  171.8530  141.9800 N   0  0  0  0  0  0  0  0  0  0  0  0
  191.3810  170.8380  142.9020 N   0  0  0  0  0  2  0  0  0  0  0  0
  190.3510  171.8270  142.9420 C   0  0  0  0  0  0  0  0  0  0  0  0
  188.8570  176.2950  143.6850 C   0  0  0  0  0  0  0  0  0  0  0  0
  189.5990  174.0830  143.6690 C   0  0  0  0  0  0  0  0  0  0  0  0
  189.7050  175.3540  144.2690 C   0  0  0  0  0  0  0  0  0  0  0  0
  188.6800  174.0520  142.6370 C   0  0  0  0  0  0  0  0  0  0  0  0
  187.9650  175.5600  142.4570 S   0  0  0  0  0  0  0  0  0  0  0  0
  192.4150  170.7400  143.9190 C   0  0  0  0  0  1  0  0  0  0  0  0
  188.6860  177.7100  144.1280 C   0  0  0  0  0  2  0  0  0  0  0  0
  187.3010  177.9600  144.5070 N   0  0  0  0  0  0  0  0  0  0  0  0
  185.2060  177.5230  145.4940 N   0  0  0  0  0  0  0  0  0  0  0  0
  187.1900  176.8820  146.6050 O   0  0  0  0  0  0  0  0  0  0  0  0
  184.9000  178.2330  144.2560 C   0  0  0  0  0  2  0  0  0  0  0  0
  184.3470  177.4210  146.5340 O   0  0  0  0  0  1  0  0  0  0  0  0
  186.2600  178.4310  143.6580 C   0  0  0  0  0  0  0  0  0  0  0  0
  186.6150  177.4060  145.6140 C   0  0  0  0  0  0  0  0  0  0  0  0
  186.4670  178.9470  142.5290 O   0  0  0  0  0  0  0  0  0  0  0  0
  190.5720  175.6920  145.3600 N   0  0  0  0  0  2  0  0  0  0  0  0
  190.7400  176.5900  147.5980 C   0  0  0  0  0  2  0  0  0  0  0  0
  190.2880  175.4150  146.7580 C   0  0  0  0  0  3  0  0  0  0  0  0
  191.5920  175.3410  147.5270 C   0  0  0  0  0  2  0  0  0  0  0  0
  1  2  1  1  0  0  0
  3  4  1  0  0  0  0
  3 10  1  0  0  0  0
  4  6  2  0  0  0  0
  5  6  1  0  0  0  0
  5 12  1  0  0  0  0
  6  1  1  0  0  0  0
  7 13  1  0  0  0  0
  7  9  2  0  0  0  0
  8  1  1  0  0  0  0
  8  9  1  0  0  0  0
  9 22  1  0  0  0  0
 10  8  2  0  0  0  0
 11 10  1  0  0  0  0
 11  7  1  0  0  0  0
 13 14  1  0  0  0  0
 14 20  1  0  0  0  0
 15 20  1  0  0  0  0
 15 18  1  0  0  0  0
 17 15  1  0  0  0  0
 19 17  1  0  0  0  0
 19 14  1  0  0  0  0
 20 16  2  0  0  0  0
 21 19  2  0  0  0  0
 22 24  1  0  0  0  0
 24 25  1  0  0  0  0
 24 23  1  0  0  0  0
 25 23  1  0  0  0  0
M  END
>  <MODEL>
3

>  <REMARK>
 VINA RESULT:      -6.6      3.046      6.554
  Name = 
  4 active torsions:
  status: ('A' for Active; 'I' for Inactive)
    1  A    between atoms: N_3  and  C_9
    2  A    between atoms: C_9  and  C_11
    3  A    between atoms: N_12  and  C_15
    4  A    between atoms: N_12  and  C_16
                            x       y       z     vdW  Elec       q    Type
                         _______ _______ _______ _____ _____    ______ ____

>  <TORSDO>
F 4

$$$$
=
 OpenBabel11062420143D

 25 28  0  0  1  0  0  0  0  0999 V2000
  190.2550  172.7280  144.0880 C   0  0  1  0  0  3  0  0  0  0  0  0
  189.5220  172.0030  145.0290 O   0  0  0  0  0  1  0  0  0  0  0  0
  188.4880  172.9120  141.7640 C   0  0  0  0  0  2  0  0  0  0  0  0
  189.6440  172.0070  141.8140 N   0  0  0  0  0  0  0  0  0  0  0  0
  191.5190  170.9480  142.7660 N   0  0  0  0  0  2  0  0  0  0  0  0
  190.4460  171.8890  142.8390 C   0  0  0  0  0  0  0  0  0  0  0  0
  188.7000  176.1730  143.9970 C   0  0  0  0  0  0  0  0  0  0  0  0
  189.5370  174.0080  143.7710 C   0  0  0  0  0  0  0  0  0  0  0  0
  189.5380  175.1950  144.5310 C   0  0  0  0  0  0  0  0  0  0  0  0
  188.7080  174.0770  142.6680 C   0  0  0  0  0  0  0  0  0  0  0  0
  187.9450  175.5710  142.6140 S   0  0  0  0  0  0  0  0  0  0  0  0
  192.4690  170.7570  143.8490 C   0  0  0  0  0  1  0  0  0  0  0  0
  188.4310  177.5140  144.5950 C   0  0  0  0  0  2  0  0  0  0  0  0
  187.0850  177.5600  145.1530 N   0  0  0  0  0  0  0  0  0  0  0  0
  185.0120  178.5100  145.7500 N   0  0  0  0  0  0  0  0  0  0  0  0
  186.0320  179.0980  143.7020 O   0  0  0  0  0  0  0  0  0  0  0  0
  185.3300  177.5850  146.8330 C   0  0  0  0  0  2  0  0  0  0  0  0
  183.7660  178.9710  145.4980 O   0  0  0  0  0  1  0  0  0  0  0  0
  186.6720  177.0610  146.4200 C   0  0  0  0  0  0  0  0  0  0  0  0
  186.0470  178.4480  144.7800 C   0  0  0  0  0  0  0  0  0  0  0  0
  187.3680  176.2730  147.1140 O   0  0  0  0  0  0  0  0  0  0  0  0
  190.2970  175.4210  145.7260 N   0  0  0  0  0  2  0  0  0  0  0  0
  192.5460  174.9200  146.4610 C   0  0  0  0  0  2  0  0  0  0  0  0
  191.6600  175.9260  145.7570 C   0  0  0  0  0  3  0  0  0  0  0  0
  192.0740  176.1570  147.1960 C   0  0  0  0  0  2  0  0  0  0  0  0
  1  2  1  1  0  0  0
  3  4  1  0  0  0  0
  3 10  1  0  0  0  0
  4  6  2  0  0  0  0
  5  6  1  0  0  0  0
  5 12  1  0  0  0  0
  6  1  1  0  0  0  0
  7  9  2  0  0  0  0
  7 13  1  0  0  0  0
  8  1  1  0  0  0  0
  8  9  1  0  0  0  0
  9 22  1  0  0  0  0
 10  8  2  0  0  0  0
 11 10  1  0  0  0  0
 11  7  1  0  0  0  0
 13 14  1  0  0  0  0
 14 19  1  0  0  0  0
 15 17  1  0  0  0  0
 16 20  2  0  0  0  0
 18 15  1  0  0  0  0
 19 17  1  0  0  0  0
 19 21  2  0  0  0  0
 20 14  1  0  0  0  0
 20 15  1  0  0  0  0
 22 24  1  0  0  0  0
 23 25  1  0  0  0  0
 24 23  1  0  0  0  0
 24 25  1  0  0  0  0
M  END
>  <MODEL>
4

>  <REMARK>
 VINA RESULT:      -6.6      3.004      6.701
  Name = 
  4 active torsions:
  status: ('A' for Active; 'I' for Inactive)
    1  A    between atoms: N_3  and  C_9
    2  A    between atoms: C_9  and  C_11
    3  A    between atoms: N_12  and  C_15
    4  A    between atoms: N_12  and  C_16
                            x       y       z     vdW  Elec       q    Type
                         _______ _______ _______ _____ _____    ______ ____

>  <TORSDO>
F 4

$$$$
=
 OpenBabel11062420143D

 25 28  0  0  1  0  0  0  0  0999 V2000
  186.8190  177.2890  144.5830 C   0  0  1  0  0  3  0  0  0  0  0  0
  185.8360  176.4980  143.9890 O   0  0  0  0  0  1  0  0  0  0  0  0
  186.7260  176.5730  147.4180 C   0  0  0  0  0  2  0  0  0  0  0  0
  186.1740  177.8310  146.8970 N   0  0  0  0  0  0  0  0  0  0  0  0
  185.5880  179.4200  145.2610 N   0  0  0  0  0  2  0  0  0  0  0  0
  186.1860  178.1770  145.6370 C   0  0  0  0  0  0  0  0  0  0  0  0
  189.6960  174.9610  145.3580 C   0  0  0  0  0  0  0  0  0  0  0  0
  187.8760  176.4100  145.1860 C   0  0  0  0  0  0  0  0  0  0  0  0
  188.9410  175.7750  144.5150 C   0  0  0  0  0  0  0  0  0  0  0  0
  187.8160  176.0840  146.5280 C   0  0  0  0  0  0  0  0  0  0  0  0
  189.0410  175.0010  146.9120 S   0  0  0  0  0  0  0  0  0  0  0  0
  185.5660  179.8950  143.8880 C   0  0  0  0  0  1  0  0  0  0  0  0
  190.8490  174.1070  144.9450 C   0  0  0  0  0  2  0  0  0  0  0  0
  192.0830  174.8820  144.9530 N   0  0  0  0  0  0  0  0  0  0  0  0
  193.6180  176.5170  145.6810 N   0  0  0  0  0  0  0  0  0  0  0  0
  192.3620  175.2910  147.2630 O   0  0  0  0  0  0  0  0  0  0  0  0
  193.7470  176.4980  144.2280 C   0  0  0  0  0  2  0  0  0  0  0  0
  194.5580  177.0190  146.5130 O   0  0  0  0  0  1  0  0  0  0  0  0
  192.7160  175.4860  143.8300 C   0  0  0  0  0  0  0  0  0  0  0  0
  192.6570  175.5450  146.0650 C   0  0  0  0  0  0  0  0  0  0  0  0
  192.4280  175.2000  142.6380 O   0  0  0  0  0  0  0  0  0  0  0  0
  189.2550  175.9200  143.1230 N   0  0  0  0  0  2  0  0  0  0  0  0
  188.1970  173.9360  142.2350 C   0  0  0  0  0  2  0  0  0  0  0  0
  188.4340  175.4170  142.0340 C   0  0  0  0  0  3  0  0  0  0  0  0
  189.2300  174.4070  141.2340 C   0  0  0  0  0  2  0  0  0  0  0  0
  1  2  1  1  0  0  0
  1  8  1  0  0  0  0
  1  6  1  0  0  0  0
  4  3  1  0  0  0  0
  5  6  1  0  0  0  0
  6  4  2  0  0  0  0
  7 11  1  0  0  0  0
  8 10  2  0  0  0  0
  9  8  1  0  0  0  0
  9  7  2  0  0  0  0
 10 11  1  0  0  0  0
 10  3  1  0  0  0  0
 12  5  1  0  0  0  0
 13 14  1  0  0  0  0
 13  7  1  0  0  0  0
 14 20  1  0  0  0  0
 15 20  1  0  0  0  0
 15 18  1  0  0  0  0
 17 15  1  0  0  0  0
 19 17  1  0  0  0  0
 19 14  1  0  0  0  0
 20 16  2  0  0  0  0
 21 19  2  0  0  0  0
 22  9  1  0  0  0  0
 24 23  1  0  0  0  0
 24 22  1  0  0  0  0
 25 24  1  0  0  0  0
 25 23  1  0  0  0  0
M  END
>  <MODEL>
5

>  <REMARK>
 VINA RESULT:      -6.4      2.688      4.589
  Name = 
  4 active torsions:
  status: ('A' for Active; 'I' for Inactive)
    1  A    between atoms: N_3  and  C_9
    2  A    between atoms: C_9  and  C_11
    3  A    between atoms: N_12  and  C_15
    4  A    between atoms: N_12  and  C_16
                            x       y       z     vdW  Elec       q    Type
                         _______ _______ _______ _____ _____    ______ ____

>  <TORSDO>
F 4

$$$$
=
 OpenBabel11062420143D

 25 28  0  0  1  0  0  0  0  0999 V2000
  189.1880  176.0020  145.8370 C   0  0  1  0  0  3  0  0  0  0  0  0
  188.2260  175.1060  146.3040 O   0  0  0  0  0  1  0  0  0  0  0  0
  189.8690  175.0240  143.1660 C   0  0  0  0  0  2  0  0  0  0  0  0
  190.7500  174.8430  144.3270 N   0  0  0  0  0  0  0  0  0  0  0  0
  191.4080  174.9880  146.5830 N   0  0  0  0  0  2  0  0  0  0  0  0
  190.4720  175.2540  145.5360 C   0  0  0  0  0  0  0  0  0  0  0  0
  187.4420  178.1490  143.2610 C   0  0  0  0  0  0  0  0  0  0  0  0
  188.6720  176.7000  144.6120 C   0  0  0  0  0  0  0  0  0  0  0  0
  187.7840  177.7930  144.5640 C   0  0  0  0  0  0  0  0  0  0  0  0
  189.0060  176.2240  143.3580 C   0  0  0  0  0  0  0  0  0  0  0  0
  188.2070  177.1080  142.1760 S   0  0  0  0  0  0  0  0  0  0  0  0
  191.1930  175.4190  147.9540 C   0  0  0  0  0  1  0  0  0  0  0  0
  186.4770  179.2200  142.8720 C   0  0  0  0  0  2  0  0  0  0  0  0
  185.2340  178.6320  142.3880 N   0  0  0  0  0  0  0  0  0  0  0  0
  183.5050  178.1600  140.8570 N   0  0  0  0  0  0  0  0  0  0  0  0
  185.7450  178.2710  140.1110 O   0  0  0  0  0  0  0  0  0  0  0  0
  182.8430  178.2680  142.1520 C   0  0  0  0  0  2  0  0  0  0  0  0
  182.9650  177.5360  139.7860 O   0  0  0  0  0  1  0  0  0  0  0  0
  183.9800  178.6190  143.0630 C   0  0  0  0  0  0  0  0  0  0  0  0
  184.9000  178.3540  141.0410 C   0  0  0  0  0  0  0  0  0  0  0  0
  183.8510  178.8820  144.2870 O   0  0  0  0  0  0  0  0  0  0  0  0
  187.2620  178.4940  145.7010 N   0  0  0  0  0  2  0  0  0  0  0  0
  185.5080  179.0650  147.2640 C   0  0  0  0  0  2  0  0  0  0  0  0
  186.3130  177.9390  146.6510 C   0  0  0  0  0  3  0  0  0  0  0  0
  186.6470  178.4390  148.0420 C   0  0  0  0  0  2  0  0  0  0  0  0
  1  2  1  6  0  0  0
  3 10  1  0  0  0  0
  3  4  1  0  0  0  0
  4  6  2  0  0  0  0
  5 12  1  0  0  0  0
  6  1  1  0  0  0  0
  6  5  1  0  0  0  0
  7  9  2  0  0  0  0
  8  1  1  0  0  0  0
  9  8  1  0  0  0  0
  9 22  1  0  0  0  0
 10  8  2  0  0  0  0
 11  7  1  0  0  0  0
 11 10  1  0  0  0  0
 13  7  1  0  0  0  0
 14 13  1  0  0  0  0
 14 19  1  0  0  0  0
 15 20  1  0  0  0  0
 15 17  1  0  0  0  0
 16 20  2  0  0  0  0
 17 19  1  0  0  0  0
 18 15  1  0  0  0  0
 19 21  2  0  0  0  0
 20 14  1  0  0  0  0
 22 24  1  0  0  0  0
 23 25  1  0  0  0  0
 24 23  1  0  0  0  0
 24 25  1  0  0  0  0
M  END
>  <MODEL>
6

>  <REMARK>
 VINA RESULT:      -6.3      1.945      6.740
  Name = 
  4 active torsions:
  status: ('A' for Active; 'I' for Inactive)
    1  A    between atoms: N_3  and  C_9
    2  A    between atoms: C_9  and  C_11
    3  A    between atoms: N_12  and  C_15
    4  A    between atoms: N_12  and  C_16
                            x       y       z     vdW  Elec       q    Type
                         _______ _______ _______ _____ _____    ______ ____

>  <TORSDO>
F 4

$$$$
=
 OpenBabel11062420143D

 25 28  0  0  1  0  0  0  0  0999 V2000
  187.0910  176.6890  142.8930 C   0  0  1  0  0  3  0  0  0  0  0  0
  186.1440  175.6660  142.9510 O   0  0  0  0  0  1  0  0  0  0  0  0
  186.6400  178.2460  145.3280 C   0  0  0  0  0  2  0  0  0  0  0  0
  186.2140  178.7060  144.0000 N   0  0  0  0  0  0  0  0  0  0  0  0
  185.8980  178.5840  141.6700 N   0  0  0  0  0  2  0  0  0  0  0  0
  186.3870  178.0320  142.8940 C   0  0  0  0  0  0  0  0  0  0  0  0
  189.7420  175.7900  145.4350 C   0  0  0  0  0  0  0  0  0  0  0  0
  188.0270  176.5720  144.0610 C   0  0  0  0  0  0  0  0  0  0  0  0
  189.1300  175.7030  144.1860 C   0  0  0  0  0  0  0  0  0  0  0  0
  187.8000  177.3170  145.2020 C   0  0  0  0  0  0  0  0  0  0  0  0
  188.9170  176.9110  146.3870 S   0  0  0  0  0  0  0  0  0  0  0  0
  186.0560  177.9150  140.3890 C   0  0  0  0  0  1  0  0  0  0  0  0
  190.8910  174.9600  145.9040 C   0  0  0  0  0  2  0  0  0  0  0  0
  192.1350  175.7130  145.8040 N   0  0  0  0  0  0  0  0  0  0  0  0
  194.3850  176.1260  145.2340 N   0  0  0  0  0  0  0  0  0  0  0  0
  192.9960  174.9190  143.7530 O   0  0  0  0  0  0  0  0  0  0  0  0
  194.1910  176.7950  146.5170 C   0  0  0  0  0  2  0  0  0  0  0  0
  195.3900  176.4190  144.3790 O   0  0  0  0  0  1  0  0  0  0  0  0
  192.7690  176.4500  146.8430 C   0  0  0  0  0  0  0  0  0  0  0  0
  193.1580  175.5290  144.8420 C   0  0  0  0  0  0  0  0  0  0  0  0
  192.1940  176.7660  147.9180 O   0  0  0  0  0  0  0  0  0  0  0  0
  189.6070  174.8090  143.1710 N   0  0  0  0  0  2  0  0  0  0  0  0
  189.4040  172.4540  143.6810 C   0  0  0  0  0  2  0  0  0  0  0  0
  188.9440  173.5770  142.7760 C   0  0  0  0  0  3  0  0  0  0  0  0
  189.9800  172.5860  142.2880 C   0  0  0  0  0  2  0  0  0  0  0  0
  1  6  1  0  0  0  0
  1  2  1  1  0  0  0
  1  8  1  0  0  0  0
  4  3  1  0  0  0  0
  5  6  1  0  0  0  0
  6  4  2  0  0  0  0
  7 13  1  0  0  0  0
  7 11  1  0  0  0  0
  8  9  1  0  0  0  0
  8 10  2  0  0  0  0
  9  7  2  0  0  0  0
 10  3  1  0  0  0  0
 10 11  1  0  0  0  0
 12  5  1  0  0  0  0
 14 13  1  0  0  0  0
 14 19  1  0  0  0  0
 15 17  1  0  0  0  0
 16 20  2  0  0  0  0
 17 19  1  0  0  0  0
 18 15  1  0  0  0  0
 19 21  2  0  0  0  0
 20 15  1  0  0  0  0
 20 14  1  0  0  0  0
 22  9  1  0  0  0  0
 24 22  1  0  0  0  0
 24 23  1  0  0  0  0
 25 24  1  0  0  0  0
 25 23  1  0  0  0  0
M  END
>  <MODEL>
7

>  <REMARK>
 VINA RESULT:      -6.2      2.570      4.085
  Name = 
  4 active torsions:
  status: ('A' for Active; 'I' for Inactive)
    1  A    between atoms: N_3  and  C_9
    2  A    between atoms: C_9  and  C_11
    3  A    between atoms: N_12  and  C_15
    4  A    between atoms: N_12  and  C_16
                            x       y       z     vdW  Elec       q    Type
                         _______ _______ _______ _____ _____    ______ ____

>  <TORSDO>
F 4

$$$$
=
 OpenBabel11062420143D

 25 28  0  0  1  0  0  0  0  0999 V2000
  186.8590  177.2520  144.7340 C   0  0  1  0  0  3  0  0  0  0  0  0
  185.9230  176.4110  144.1300 O   0  0  0  0  0  1  0  0  0  0  0  0
  186.6620  176.6410  147.5870 C   0  0  0  0  0  2  0  0  0  0  0  0
  186.0990  177.8620  146.9960 N   0  0  0  0  0  0  0  0  0  0  0  0
  185.5420  179.3700  145.2770 N   0  0  0  0  0  2  0  0  0  0  0  0
  186.1560  178.1610  145.7250 C   0  0  0  0  0  0  0  0  0  0  0  0
  189.7600  175.0380  145.7180 C   0  0  0  0  0  0  0  0  0  0  0  0
  187.9110  176.4260  145.4140 C   0  0  0  0  0  0  0  0  0  0  0  0
  189.0210  175.7980  144.8140 C   0  0  0  0  0  0  0  0  0  0  0  0
  187.8030  176.1490  146.7640 C   0  0  0  0  0  0  0  0  0  0  0  0
  189.0380  175.1170  147.2400 S   0  0  0  0  0  0  0  0  0  0  0  0
  185.5670  179.7940  143.8870 C   0  0  0  0  0  1  0  0  0  0  0  0
  190.9530  174.2020  145.3870 C   0  0  0  0  0  2  0  0  0  0  0  0
  192.1590  175.0200  145.3780 N   0  0  0  0  0  0  0  0  0  0  0  0
  194.3660  175.6310  144.8200 N   0  0  0  0  0  0  0  0  0  0  0  0
  192.9750  174.6230  143.1980 O   0  0  0  0  0  0  0  0  0  0  0  0
  194.1910  176.0660  146.2020 C   0  0  0  0  0  2  0  0  0  0  0  0
  195.3250  176.1110  143.9960 O   0  0  0  0  0  1  0  0  0  0  0  0
  192.7990  175.6030  146.5080 C   0  0  0  0  0  0  0  0  0  0  0  0
  193.1520  175.0490  144.3700 C   0  0  0  0  0  0  0  0  0  0  0  0
  192.2510  175.7070  147.6370 O   0  0  0  0  0  0  0  0  0  0  0  0
  189.3900  175.8990  143.4320 N   0  0  0  0  0  2  0  0  0  0  0  0
  190.3360  178.1020  143.7450 C   0  0  0  0  0  2  0  0  0  0  0  0
  190.3580  176.8450  142.9020 C   0  0  0  0  0  3  0  0  0  0  0  0
  189.6320  178.0780  142.4050 C   0  0  0  0  0  2  0  0  0  0  0  0
  1  2  1  1  0  0  0
  1  8  1  0  0  0  0
  1  6  1  0  0  0  0
  4  3  1  0  0  0  0
  5  6  1  0  0  0  0
  6  4  2  0  0  0  0
  7 11  1  0  0  0  0
  8 10  2  0  0  0  0
  9  8  1  0  0  0  0
  9  7  2  0  0  0  0
 10 11  1  0  0  0  0
 10  3  1  0  0  0  0
 12  5  1  0  0  0  0
 13  7  1  0  0  0  0
 14 13  1  0  0  0  0
 14 19  1  0  0  0  0
 15 17  1  0  0  0  0
 16 20  2  0  0  0  0
 17 19  1  0  0  0  0
 18 15  1  0  0  0  0
 19 21  2  0  0  0  0
 20 15  1  0  0  0  0
 20 14  1  0  0  0  0
 22  9  1  0  0  0  0
 24 22  1  0  0  0  0
 24 23  1  0  0  0  0
 25 24  1  0  0  0  0
 25 23  1  0  0  0  0
M  END
>  <MODEL>
8

>  <REMARK>
 VINA RESULT:      -6.2      2.676      4.332
  Name = 
  4 active torsions:
  status: ('A' for Active; 'I' for Inactive)
    1  A    between atoms: N_3  and  C_9
    2  A    between atoms: C_9  and  C_11
    3  A    between atoms: N_12  and  C_15
    4  A    between atoms: N_12  and  C_16
                            x       y       z     vdW  Elec       q    Type
                         _______ _______ _______ _____ _____    ______ ____

>  <TORSDO>
F 4

$$$$
=
 OpenBabel11062420143D

 25 28  0  0  1  0  0  0  0  0999 V2000
  187.6350  177.2680  142.3020 C   0  0  1  0  0  3  0  0  0  0  0  0
  188.5430  178.2900  142.0230 O   0  0  0  0  0  1  0  0  0  0  0  0
  188.6180  174.9760  140.7750 C   0  0  0  0  0  2  0  0  0  0  0  0
  187.4480  175.7620  140.3630 N   0  0  0  0  0  0  0  0  0  0  0  0
  185.8560  177.4920  140.4860 N   0  0  0  0  0  2  0  0  0  0  0  0
  186.9890  176.7990  141.0130 C   0  0  0  0  0  0  0  0  0  0  0  0
  189.4260  174.9050  144.6480 C   0  0  0  0  0  0  0  0  0  0  0  0
  188.3470  176.1380  142.9890 C   0  0  0  0  0  0  0  0  0  0  0  0
  188.6970  176.0550  144.3520 C   0  0  0  0  0  0  0  0  0  0  0  0
  188.8020  175.0630  142.2510 C   0  0  0  0  0  0  0  0  0  0  0  0
  189.6590  174.0090  143.2380 S   0  0  0  0  0  0  0  0  0  0  0  0
  185.2670  178.6460  141.1460 C   0  0  0  0  0  1  0  0  0  0  0  0
  189.9980  174.5530  145.9810 C   0  0  0  0  0  2  0  0  0  0  0  0
  191.2930  175.1970  146.1650 N   0  0  0  0  0  0  0  0  0  0  0  0
  193.6220  175.3400  146.4920 N   0  0  0  0  0  0  0  0  0  0  0  0
  192.7300  173.6760  145.0710 O   0  0  0  0  0  0  0  0  0  0  0  0
  193.0640  176.4460  147.2620 C   0  0  0  0  0  2  0  0  0  0  0  0
  194.9140  175.2750  146.0960 O   0  0  0  0  0  1  0  0  0  0  0  0
  191.5910  176.2670  147.0560 C   0  0  0  0  0  0  0  0  0  0  0  0
  192.5600  174.6520  145.8490 C   0  0  0  0  0  0  0  0  0  0  0  0
  190.7080  176.9730  147.6100 O   0  0  0  0  0  0  0  0  0  0  0  0
  188.3650  177.0200  145.3590 N   0  0  0  0  0  2  0  0  0  0  0  0
  185.9920  176.7910  145.7580 C   0  0  0  0  0  2  0  0  0  0  0  0
  187.3640  176.8240  146.3950 C   0  0  0  0  0  3  0  0  0  0  0  0
  186.4690  178.0430  146.4620 C   0  0  0  0  0  2  0  0  0  0  0  0
  1  2  1  6  0  0  0
  1  8  1  0  0  0  0
  3 10  1  0  0  0  0
  4  3  1  0  0  0  0
  4  6  2  0  0  0  0
  5  6  1  0  0  0  0
  5 12  1  0  0  0  0
  6  1  1  0  0  0  0
  7 13  1  0  0  0  0
  8  9  1  0  0  0  0
  9  7  2  0  0  0  0
  9 22  1  0  0  0  0
 10  8  2  0  0  0  0
 10 11  1  0  0  0  0
 11  7  1  0  0  0  0
 13 14  1  0  0  0  0
 14 19  1  0  0  0  0
 15 17  1  0  0  0  0
 16 20  2  0  0  0  0
 18 15  1  0  0  0  0
 19 17  1  0  0  0  0
 19 21  2  0  0  0  0
 20 14  1  0  0  0  0
 20 15  1  0  0  0  0
 22 24  1  0  0  0  0
 23 24  1  0  0  0  0
 23 25  1  0  0  0  0
 24 25  1  0  0  0  0
M  END
>  <MODEL>
9

>  <REMARK>
 VINA RESULT:      -6.2      1.839      2.428
  Name = 
  4 active torsions:
  status: ('A' for Active; 'I' for Inactive)
    1  A    between atoms: N_3  and  C_9
    2  A    between atoms: C_9  and  C_11
    3  A    between atoms: N_12  and  C_15
    4  A    between atoms: N_12  and  C_16
                            x       y       z     vdW  Elec       q    Type
                         _______ _______ _______ _____ _____    ______ ____

>  <TORSDO>
F 4

$$$$
