=
 OpenBabel11072408533D

 60 64  0  0  1  0  0  0  0  0999 V2000
  194.1640  174.8240  144.9090 C   0  0  2  0  0  0  0  0  0  0  0  0
  194.8550  175.4720  145.9080 C   0  0  0  0  0  2  0  0  0  0  0  0
  192.2500  176.2080  147.8970 O   0  0  0  0  0  0  0  0  0  0  0  0
  193.3760  175.3300  146.0730 N   0  0  0  0  0  0  0  0  0  0  0  0
  192.1820  175.5460  146.8270 C   0  0  0  0  0  0  0  0  0  0  0  0
  190.8810  174.9990  146.3830 C   0  0  0  0  0  0  0  0  0  0  0  0
  190.8250  174.0550  145.4510 C   0  0  0  0  0  2  0  0  0  0  0  0
  188.9800  174.4650  147.6870 O   0  0  0  0  0  1  0  0  0  0  0  0
  189.5850  175.4910  146.9570 C   0  0  2  0  0  3  0  0  0  0  0  0
  188.6370  176.0340  145.8770 C   0  0  1  0  0  3  0  0  0  0  0  0
  185.0580  180.3990  144.6550 O   0  0  0  0  0  0  0  0  0  0  0  0
  184.6200  178.0480  144.6590 C   0  0  0  0  0  2  0  0  0  0  0  0
  185.6230  179.3030  142.6940 N   0  0  0  0  0  2  0  0  0  0  0  0
  185.4070  176.7250  146.2470 C   0  0  0  0  0  2  0  0  0  0  0  0
  187.2850  177.7330  142.1950 O   0  0  0  0  0  0  0  0  0  0  0  0
  184.9300  178.0170  146.0200 O   0  0  0  0  0  0  0  0  0  0  0  0
  187.8390  177.2370  146.3880 C   0  0  0  0  0  2  0  0  0  0  0  0
  185.9460  178.0710  141.9760 C   0  0  2  0  0  3  0  0  0  0  0  0
  189.1360  175.4050  142.3570 C   0  0  0  0  0  2  0  0  0  0  0  0
  187.2520  176.7350  143.1740 C   0  0  0  0  0  2  0  0  0  0  0  0
  186.6130  176.7840  147.1610 C   0  0  0  0  0  2  0  0  0  0  0  0
  185.1330  179.3070  144.0310 C   0  0  0  0  0  0  0  0  0  0  0  0
  188.6060  176.1250  143.3450 C   0  0  0  0  0  0  0  0  0  0  0  0
  189.4140  176.3600  144.5880 C   0  0  1  0  0  3  0  0  0  0  0  0
  185.6880  178.2280  140.4780 C   0  0  0  0  0  3  0  0  0  0  0  0
  184.2220  178.0180  140.1270 C   0  0  0  0  0  1  0  0  0  0  0  0
  186.5530  177.2720  139.6810 C   0  0  0  0  0  1  0  0  0  0  0  0
  191.0180  177.8460  143.3920 C   0  0  0  0  0  1  0  0  0  0  0  0
  190.1010  177.7240  144.5920 C   0  0  0  0  0  2  0  0  0  0  0  0
  194.9090  172.7970  145.8460 O   0  0  0  0  0  0  0  0  0  0  0  0
  194.3890  173.3360  144.8810 C   0  0  0  0  0  0  0  0  0  0  0  0
  193.9540  172.5180  143.6800 C   0  0  0  0  0  2  0  0  0  0  0  0
  193.5780  171.0590  143.9700 C   0  0  1  0  0  3  0  0  0  0  0  0
  192.0750  170.9400  144.1810 C   0  0  0  0  0  1  0  0  0  0  0  0
  194.0890  170.0960  142.8810 C   0  0  1  0  0  3  0  0  0  0  0  0
  193.2760  168.9650  142.7910 O   0  0  0  0  0  1  0  0  0  0  0  0
  194.2970  170.7000  141.4800 C   0  0  2  0  0  3  0  0  0  0  0  0
  191.0500  170.1100  139.6070 C   0  0  0  0  0  3  0  0  0  0  0  0
  190.5090  171.3970  139.5560 C   0  0  0  0  0  0  0  0  0  0  0  0
  191.1920  172.4660  140.1450 C   0  0  0  0  0  3  0  0  0  0  0  0
  189.2960  171.6180  138.9170 O   0  0  0  0  0  1  0  0  0  0  0  0
  192.9550  170.9530  140.8520 C   0  0  0  0  0  0  0  0  0  0  0  0
  192.4150  172.2460  140.7860 C   0  0  0  0  0  3  0  0  0  0  0  0
  192.2730  169.8890  140.2480 C   0  0  0  0  0  3  0  0  0  0  0  0
  196.5670  169.9220  140.8650 C   0  0  2  0  0  3  0  0  0  0  0  0
  196.0940  170.9480  139.5150 S   0  0  0  0  0  0  0  0  0  0  0  0
  196.0100  170.4040  138.1190 O   0  0  0  0  0  0  0  0  0  0  0  0
  195.6680  172.3820  139.6820 O   0  0  0  0  0  0  0  0  0  0  0  0
  195.1540  169.8720  140.6070 N   0  0  0  0  0  0  0  0  0  0  0  0
  197.0090  170.6490  142.1210 C   0  0  0  0  0  0  0  0  0  0  0  0
  197.2670  172.0290  142.1650 C   0  0  0  0  0  3  0  0  0  0  0  0
  197.6910  172.6320  143.3520 C   0  0  0  0  0  3  0  0  0  0  0  0
  197.2150  169.8850  143.2720 C   0  0  0  0  0  3  0  0  0  0  0  0
  197.6420  170.4860  144.4580 C   0  0  0  0  0  3  0  0  0  0  0  0
  197.8750  171.8610  144.5010 C   0  0  0  0  0  3  0  0  0  0  0  0
  194.0150  175.6560  143.6360 C   0  0  0  0  0  2  0  0  0  0  0  0
  195.2630  175.7190  142.8070 C   0  0  0  0  0  0  0  0  0  0  0  0
  195.3950  174.9980  141.8310 O   0  0  0  0  0  0  0  0  0  0  0  0
  196.3290  176.7130  143.1310 C   0  0  0  0  0  2  0  0  0  0  0  0
  197.5580  176.0720  143.2740 O   0  0  0  0  0  1  0  0  0  0  0  0
  1 56  1  6  0  0  0
  1  2  1  0  0  0  0
  1  4  1  0  0  0  0
  2  4  1  0  0  0  0
  4  5  1  0  0  0  0
  5  3  2  0  0  0  0
  6  5  1  0  0  0  0
  6  9  1  0  0  0  0
  7  6  2  0  0  0  0
  9  8  1  6  0  0  0
 10 17  1  0  0  0  0
 10  9  1  1  0  0  0
 12 16  1  0  0  0  0
 13 22  1  0  0  0  0
 14 21  1  0  0  0  0
 15 20  1  0  0  0  0
 16 14  1  0  0  0  0
 17 21  1  0  0  0  0
 18 25  1  6  0  0  0
 18 15  1  0  0  0  0
 18 13  1  0  0  0  0
 19 23  2  0  0  0  0
 20 23  1  0  0  0  0
 22 11  2  0  0  0  0
 22 12  1  0  0  0  0
 23 24  1  0  0  0  0
 24 29  1  1  0  0  0
 24 10  1  0  0  0  0
 26 25  1  0  0  0  0
 27 25  1  0  0  0  0
 28 29  1  0  0  0  0
 31  1  1  0  0  0  0
 31 30  2  0  0  0  0
 32 33  1  0  0  0  0
 32 31  1  0  0  0  0
 33 34  1  6  0  0  0
 35 36  1  6  0  0  0
 35 33  1  0  0  0  0
 37 35  1  1  0  0  0
 38 44  1  0  0  0  0
 39 38  2  0  0  0  0
 39 40  1  0  0  0  0
 40 43  2  0  0  0  0
 41 39  1  0  0  0  0
 42 37  1  0  0  0  0
 43 42  1  0  0  0  0
 44 42  2  0  0  0  0
 45 50  1  1  0  0  0
 46 48  2  0  0  0  0
 46 49  1  0  0  0  0
 46 45  1  0  0  0  0
 47 46  2  0  0  0  0
 49 45  1  0  0  0  0
 49 37  1  0  0  0  0
 50 51  2  0  0  0  0
 50 53  1  0  0  0  0
 51 52  1  0  0  0  0
 52 55  2  0  0  0  0
 53 54  2  0  0  0  0
 54 55  1  0  0  0  0
 57 59  1  0  0  0  0
 57 56  1  0  0  0  0
 58 57  2  0  0  0  0
 59 60  1  0  0  0  0
M  END
>  <MODEL>
1

>  <REMARK>
 VINA RESULT:      -7.5      0.000      0.000
  Name = 
  16 active torsions:
  status: ('A' for Active; 'I' for Inactive)
    1  A    between atoms: C_1  and  C_31
    2  A    between atoms: C_1  and  C_38
    3  A    between atoms: C_2  and  C_21
    4  A    between atoms: C_3  and  C_48
    5  A    between atoms: C_7  and  C_24
    6  A    between atoms: C_8  and  C_45
    7  A    between atoms: C_8  and  C_48
    8  A    between atoms: C_15  and  C_26
    9  A    between atoms: C_15  and  C_43
   10  A    between atoms: C_17  and  C_31
   11  A    between atoms: C_17  and  C_43
   12  A    between atoms: C_18  and  C_38
   13  A    between atoms: C_24  and  C_26
   14  A    between atoms: C_29  and  C_32
   15  A    between atoms: C_38  and  N_59
   16  A    between atoms: C_52  and  C_58
                            x       y       z     vdW  Elec       q    Type
                         _______ _______ _______ _____ _____    ______ ____

>  <TORSDO>
F 16

$$$$
=
 OpenBabel11072408533D

 60 64  0  0  1  0  0  0  0  0999 V2000
  194.7300  173.5330  144.7980 C   0  0  2  0  0  0  0  0  0  0  0  0
  195.3510  174.2980  145.7600 C   0  0  0  0  0  2  0  0  0  0  0  0
  196.3560  176.8260  143.7890 O   0  0  0  0  0  0  0  0  0  0  0  0
  195.3340  174.8280  144.3620 N   0  0  0  0  0  0  0  0  0  0  0  0
  195.6690  175.8400  143.4110 C   0  0  0  0  0  0  0  0  0  0  0  0
  195.2140  175.7560  142.0050 C   0  0  0  0  0  0  0  0  0  0  0  0
  194.0410  176.2590  141.6410 C   0  0  0  0  0  2  0  0  0  0  0  0
  196.5900  176.0750  140.1070 O   0  0  0  0  0  1  0  0  0  0  0  0
  196.0510  175.0990  140.9470 C   0  0  2  0  0  3  0  0  0  0  0  0
  195.2600  174.0530  140.1450 C   0  0  1  0  0  3  0  0  0  0  0  0
  194.5200  171.9110  134.8340 O   0  0  0  0  0  0  0  0  0  0  0  0
  192.8920  172.8230  136.3300 C   0  0  0  0  0  2  0  0  0  0  0  0
  193.6790  170.4110  136.3860 N   0  0  0  0  0  2  0  0  0  0  0  0
  193.3040  174.6400  137.5220 C   0  0  0  0  0  2  0  0  0  0  0  0
  193.9120  170.2600  138.7090 O   0  0  0  0  0  0  0  0  0  0  0  0
  193.5750  174.0400  136.2910 O   0  0  0  0  0  0  0  0  0  0  0  0
  195.4880  174.2160  138.6400 C   0  0  0  0  0  2  0  0  0  0  0  0
  193.0030  170.1410  137.6530 C   0  0  2  0  0  3  0  0  0  0  0  0
  194.0950  170.9600  141.5990 C   0  0  0  0  0  2  0  0  0  0  0  0
  193.6700  171.5240  139.2570 C   0  0  0  0  0  2  0  0  0  0  0  0
  194.5670  175.2770  138.0640 C   0  0  0  0  0  2  0  0  0  0  0  0
  193.7630  171.7150  135.8220 C   0  0  0  0  0  0  0  0  0  0  0  0
  194.4250  171.6930  140.5350 C   0  0  0  0  0  0  0  0  0  0  0  0
  195.5930  172.6310  140.6310 C   0  0  1  0  0  3  0  0  0  0  0  0
  192.3820  168.7440  137.6560 C   0  0  0  0  0  3  0  0  0  0  0  0
  190.9740  168.7450  137.0800 C   0  0  0  0  0  1  0  0  0  0  0  0
  192.3690  168.1660  139.0570 C   0  0  0  0  0  1  0  0  0  0  0  0
  197.9110  171.8580  141.1180 C   0  0  0  0  0  1  0  0  0  0  0  0
  196.8690  172.0410  140.0350 C   0  0  0  0  0  2  0  0  0  0  0  0
  192.6080  172.5720  144.4550 O   0  0  0  0  0  0  0  0  0  0  0  0
  193.2280  173.5250  144.9040 C   0  0  0  0  0  0  0  0  0  0  0  0
  192.5020  174.6720  145.5800 C   0  0  0  0  0  2  0  0  0  0  0  0
  190.9700  174.6340  145.4880 C   0  0  1  0  0  3  0  0  0  0  0  0
  190.3660  174.5660  146.8830 C   0  0  0  0  0  1  0  0  0  0  0  0
  190.4050  175.8110  144.6680 C   0  0  1  0  0  3  0  0  0  0  0  0
  191.4300  176.5230  144.0430 O   0  0  0  0  0  1  0  0  0  0  0  0
  189.3110  175.4630  143.6420 C   0  0  2  0  0  3  0  0  0  0  0  0
  190.8020  173.1600  141.0210 C   0  0  0  0  0  3  0  0  0  0  0  0
  190.3540  171.9080  141.4500 C   0  0  0  0  0  0  0  0  0  0  0  0
  189.5750  171.8040  142.6060 C   0  0  0  0  0  3  0  0  0  0  0  0
  190.6790  170.7680  140.7270 O   0  0  0  0  0  1  0  0  0  0  0  0
  189.7030  174.2080  142.9140 C   0  0  0  0  0  0  0  0  0  0  0  0
  189.2450  172.9510  143.3330 C   0  0  0  0  0  3  0  0  0  0  0  0
  190.4730  174.3090  141.7480 C   0  0  0  0  0  3  0  0  0  0  0  0
  188.0260  177.5150  143.1180 C   0  0  2  0  0  3  0  0  0  0  0  0
  187.3830  176.3200  141.9970 S   0  0  0  0  0  0  0  0  0  0  0  0
  187.4650  176.5230  140.5130 O   0  0  0  0  0  0  0  0  0  0  0  0
  186.8020  175.0040  142.4430 O   0  0  0  0  0  0  0  0  0  0  0  0
  189.0200  176.5640  142.7010 N   0  0  0  0  0  0  0  0  0  0  0  0
  187.5320  177.4090  144.5480 C   0  0  0  0  0  0  0  0  0  0  0  0
  188.3360  177.6830  145.6670 C   0  0  0  0  0  3  0  0  0  0  0  0
  187.8230  177.5460  146.9590 C   0  0  0  0  0  3  0  0  0  0  0  0
  186.2220  176.9660  144.7490 C   0  0  0  0  0  3  0  0  0  0  0  0
  185.7090  176.8260  146.0410 C   0  0  0  0  0  3  0  0  0  0  0  0
  186.5070  177.1210  147.1460 C   0  0  0  0  0  3  0  0  0  0  0  0
  195.5310  172.2950  144.3960 C   0  0  0  0  0  2  0  0  0  0  0  0
  195.7920  171.3500  145.5320 C   0  0  0  0  0  0  0  0  0  0  0  0
  196.8440  171.4000  146.1480 O   0  0  0  0  0  0  0  0  0  0  0  0
  194.7380  170.3850  145.9600 C   0  0  0  0  0  2  0  0  0  0  0  0
  194.8260  169.2120  145.2120 O   0  0  0  0  0  1  0  0  0  0  0  0
  1 56  1  6  0  0  0
  1 31  1  0  0  0  0
  1  2  1  0  0  0  0
  4  1  1  0  0  0  0
  4  2  1  0  0  0  0
  5  3  2  0  0  0  0
  5  4  1  0  0  0  0
  6  5  1  0  0  0  0
  7  6  2  0  0  0  0
  9  8  1  6  0  0  0
  9  6  1  0  0  0  0
 10 24  1  0  0  0  0
 10  9  1  1  0  0  0
 11 22  2  0  0  0  0
 13 18  1  0  0  0  0
 14 21  1  0  0  0  0
 15 20  1  0  0  0  0
 16 12  1  0  0  0  0
 16 14  1  0  0  0  0
 17 10  1  0  0  0  0
 18 25  1  6  0  0  0
 18 15  1  0  0  0  0
 20 23  1  0  0  0  0
 21 17  1  0  0  0  0
 22 12  1  0  0  0  0
 22 13  1  0  0  0  0
 23 24  1  0  0  0  0
 23 19  2  0  0  0  0
 24 29  1  6  0  0  0
 25 27  1  0  0  0  0
 26 25  1  0  0  0  0
 29 28  1  0  0  0  0
 30 31  2  0  0  0  0
 31 32  1  0  0  0  0
 33 32  1  0  0  0  0
 33 34  1  1  0  0  0
 35 36  1  6  0  0  0
 35 33  1  0  0  0  0
 37 35  1  1  0  0  0
 38 39  2  0  0  0  0
 38 44  1  0  0  0  0
 39 40  1  0  0  0  0
 40 43  2  0  0  0  0
 41 39  1  0  0  0  0
 42 43  1  0  0  0  0
 42 37  1  0  0  0  0
 44 42  2  0  0  0  0
 45 50  1  1  0  0  0
 46 48  2  0  0  0  0
 46 49  1  0  0  0  0
 46 45  1  0  0  0  0
 47 46  2  0  0  0  0
 49 45  1  0  0  0  0
 49 37  1  0  0  0  0
 50 53  2  0  0  0  0
 50 51  1  0  0  0  0
 51 52  2  0  0  0  0
 52 55  1  0  0  0  0
 53 54  1  0  0  0  0
 54 55  2  0  0  0  0
 56 57  1  0  0  0  0
 57 59  1  0  0  0  0
 57 58  2  0  0  0  0
 60 59  1  0  0  0  0
M  END
>  <MODEL>
2

>  <REMARK>
 VINA RESULT:      -7.4      2.828      9.025
  Name = 
  16 active torsions:
  status: ('A' for Active; 'I' for Inactive)
    1  A    between atoms: C_1  and  C_31
    2  A    between atoms: C_1  and  C_38
    3  A    between atoms: C_2  and  C_21
    4  A    between atoms: C_3  and  C_48
    5  A    between atoms: C_7  and  C_24
    6  A    between atoms: C_8  and  C_45
    7  A    between atoms: C_8  and  C_48
    8  A    between atoms: C_15  and  C_26
    9  A    between atoms: C_15  and  C_43
   10  A    between atoms: C_17  and  C_31
   11  A    between atoms: C_17  and  C_43
   12  A    between atoms: C_18  and  C_38
   13  A    between atoms: C_24  and  C_26
   14  A    between atoms: C_29  and  C_32
   15  A    between atoms: C_38  and  N_59
   16  A    between atoms: C_52  and  C_58
                            x       y       z     vdW  Elec       q    Type
                         _______ _______ _______ _____ _____    ______ ____

>  <TORSDO>
F 16

$$$$
=
 OpenBabel11072408533D

 60 64  0  0  1  0  0  0  0  0999 V2000
  192.7690  175.4900  145.8750 C   0  0  2  0  0  0  0  0  0  0  0  0
  193.7020  176.2180  146.5790 C   0  0  0  0  0  2  0  0  0  0  0  0
  196.3340  174.1770  146.1420 O   0  0  0  0  0  0  0  0  0  0  0  0
  194.1600  174.9490  145.9340 N   0  0  0  0  0  0  0  0  0  0  0  0
  195.1910  174.0040  145.6420 C   0  0  0  0  0  0  0  0  0  0  0  0
  194.9430  172.8430  144.7570 C   0  0  0  0  0  0  0  0  0  0  0  0
  194.1410  171.8580  145.1410 C   0  0  0  0  0  2  0  0  0  0  0  0
  196.3620  173.8710  143.1670 O   0  0  0  0  0  1  0  0  0  0  0  0
  195.5890  172.7330  143.4080 C   0  0  2  0  0  3  0  0  0  0  0  0
  194.5630  172.5130  142.2860 C   0  0  1  0  0  3  0  0  0  0  0  0
  193.8140  172.9270  136.5750 O   0  0  0  0  0  0  0  0  0  0  0  0
  192.5250  173.9030  138.3370 C   0  0  0  0  0  2  0  0  0  0  0  0
  192.1790  171.5450  137.4610 N   0  0  0  0  0  2  0  0  0  0  0  0
  193.4860  174.7920  140.1190 C   0  0  0  0  0  2  0  0  0  0  0  0
  191.9570  170.5140  139.5500 O   0  0  0  0  0  0  0  0  0  0  0  0
  193.6610  174.6020  138.7480 O   0  0  0  0  0  0  0  0  0  0  0  0
  195.0700  173.0610  140.9500 C   0  0  0  0  0  2  0  0  0  0  0  0
  191.2630  171.1960  138.5460 C   0  0  2  0  0  3  0  0  0  0  0  0
  191.9700  170.0090  142.4850 C   0  0  0  0  0  2  0  0  0  0  0  0
  192.2000  171.4720  140.5390 C   0  0  0  0  0  2  0  0  0  0  0  0
  194.7970  174.5510  140.8360 C   0  0  0  0  0  2  0  0  0  0  0  0
  192.9020  172.7710  137.4310 C   0  0  0  0  0  0  0  0  0  0  0  0
  192.7440  170.8260  141.7710 C   0  0  0  0  0  0  0  0  0  0  0  0
  194.1710  171.0280  142.1920 C   0  0  1  0  0  3  0  0  0  0  0  0
  190.1110  170.3340  138.0320 C   0  0  0  0  0  3  0  0  0  0  0  0
  190.4050  168.8470  138.1710 C   0  0  0  0  0  1  0  0  0  0  0  0
  189.7940  170.6670  136.5880 C   0  0  0  0  0  1  0  0  0  0  0  0
  195.8140  169.1570  142.3010 C   0  0  0  0  0  1  0  0  0  0  0  0
  195.1460  170.1660  141.3910 C   0  0  0  0  0  2  0  0  0  0  0  0
  192.6840  175.5510  143.5230 O   0  0  0  0  0  0  0  0  0  0  0  0
  192.3740  176.1130  144.5630 C   0  0  0  0  0  0  0  0  0  0  0  0
  191.5840  177.4070  144.5370 C   0  0  0  0  0  2  0  0  0  0  0  0
  190.0810  177.2740  144.8150 C   0  0  1  0  0  3  0  0  0  0  0  0
  189.7710  177.7240  146.2350 C   0  0  0  0  0  1  0  0  0  0  0  0
  189.2250  178.0180  143.7710 C   0  0  1  0  0  3  0  0  0  0  0  0
  189.9560  178.2640  142.6080 O   0  0  0  0  0  1  0  0  0  0  0  0
  187.8740  177.3720  143.4100 C   0  0  2  0  0  3  0  0  0  0  0  0
  188.0260  175.3150  140.2250 C   0  0  0  0  0  3  0  0  0  0  0  0
  188.4320  174.0680  140.7080 C   0  0  0  0  0  0  0  0  0  0  0  0
  188.6740  173.8920  142.0730 C   0  0  0  0  0  3  0  0  0  0  0  0
  188.5900  173.0020  139.8320 O   0  0  0  0  0  1  0  0  0  0  0  0
  188.1170  176.2210  142.4750 C   0  0  0  0  0  0  0  0  0  0  0  0
  188.5110  174.9640  142.9560 C   0  0  0  0  0  3  0  0  0  0  0  0
  187.8630  176.3880  141.1080 C   0  0  0  0  0  3  0  0  0  0  0  0
  185.8840  178.8080  143.7450 C   0  0  2  0  0  3  0  0  0  0  0  0
  185.3010  177.5190  142.6970 S   0  0  0  0  0  0  0  0  0  0  0  0
  184.7400  177.8170  141.3380 O   0  0  0  0  0  0  0  0  0  0  0  0
  185.4060  176.0600  143.0530 O   0  0  0  0  0  0  0  0  0  0  0  0
  186.9000  178.3290  142.8480 N   0  0  0  0  0  0  0  0  0  0  0  0
  186.0370  178.4470  145.2100 C   0  0  0  0  0  0  0  0  0  0  0  0
  186.1650  177.1270  145.6720 C   0  0  0  0  0  3  0  0  0  0  0  0
  186.2830  176.8630  147.0400 C   0  0  0  0  0  3  0  0  0  0  0  0
  185.9960  179.4890  146.1410 C   0  0  0  0  0  3  0  0  0  0  0  0
  186.1110  179.2260  147.5080 C   0  0  0  0  0  3  0  0  0  0  0  0
  186.2600  177.9140  147.9580 C   0  0  0  0  0  3  0  0  0  0  0  0
  191.7690  174.7590  146.7700 C   0  0  0  0  0  2  0  0  0  0  0  0
  190.6900  174.0440  146.0120 C   0  0  0  0  0  0  0  0  0  0  0  0
  189.5140  174.2620  146.2570 O   0  0  0  0  0  0  0  0  0  0  0  0
  191.0460  173.1090  144.9050 C   0  0  0  0  0  2  0  0  0  0  0  0
  190.0690  172.1240  144.7730 O   0  0  0  0  0  1  0  0  0  0  0  0
  1  4  1  0  0  0  0
  1  2  1  0  0  0  0
  1 56  1  1  0  0  0
  4  2  1  0  0  0  0
  5  4  1  0  0  0  0
  5  3  2  0  0  0  0
  6  7  2  0  0  0  0
  6  5  1  0  0  0  0
  9  8  1  6  0  0  0
  9  6  1  0  0  0  0
 10  9  1  1  0  0  0
 11 22  2  0  0  0  0
 12 16  1  0  0  0  0
 13 18  1  0  0  0  0
 14 21  1  0  0  0  0
 15 20  1  0  0  0  0
 16 14  1  0  0  0  0
 17 10  1  0  0  0  0
 18 25  1  6  0  0  0
 18 15  1  0  0  0  0
 20 23  1  0  0  0  0
 21 17  1  0  0  0  0
 22 13  1  0  0  0  0
 22 12  1  0  0  0  0
 23 24  1  0  0  0  0
 23 19  2  0  0  0  0
 24 29  1  6  0  0  0
 24 10  1  0  0  0  0
 25 26  1  0  0  0  0
 27 25  1  0  0  0  0
 29 28  1  0  0  0  0
 30 31  2  0  0  0  0
 31  1  1  0  0  0  0
 32 31  1  0  0  0  0
 32 33  1  0  0  0  0
 33 34  1  1  0  0  0
 35 36  1  6  0  0  0
 35 33  1  0  0  0  0
 37 35  1  6  0  0  0
 38 39  2  0  0  0  0
 38 44  1  0  0  0  0
 39 40  1  0  0  0  0
 40 43  2  0  0  0  0
 41 39  1  0  0  0  0
 42 43  1  0  0  0  0
 42 37  1  0  0  0  0
 44 42  2  0  0  0  0
 45 50  1  1  0  0  0
 46 49  1  0  0  0  0
 46 48  2  0  0  0  0
 46 45  1  0  0  0  0
 47 46  2  0  0  0  0
 49 37  1  0  0  0  0
 49 45  1  0  0  0  0
 50 51  2  0  0  0  0
 50 53  1  0  0  0  0
 51 52  1  0  0  0  0
 52 55  2  0  0  0  0
 53 54  2  0  0  0  0
 54 55  1  0  0  0  0
 57 58  2  0  0  0  0
 57 56  1  0  0  0  0
 59 57  1  0  0  0  0
 60 59  1  0  0  0  0
M  END
>  <MODEL>
3

>  <REMARK>
 VINA RESULT:      -7.0      2.723      9.147
  Name = 
  16 active torsions:
  status: ('A' for Active; 'I' for Inactive)
    1  A    between atoms: C_1  and  C_31
    2  A    between atoms: C_1  and  C_38
    3  A    between atoms: C_2  and  C_21
    4  A    between atoms: C_3  and  C_48
    5  A    between atoms: C_7  and  C_24
    6  A    between atoms: C_8  and  C_45
    7  A    between atoms: C_8  and  C_48
    8  A    between atoms: C_15  and  C_26
    9  A    between atoms: C_15  and  C_43
   10  A    between atoms: C_17  and  C_31
   11  A    between atoms: C_17  and  C_43
   12  A    between atoms: C_18  and  C_38
   13  A    between atoms: C_24  and  C_26
   14  A    between atoms: C_29  and  C_32
   15  A    between atoms: C_38  and  N_59
   16  A    between atoms: C_52  and  C_58
                            x       y       z     vdW  Elec       q    Type
                         _______ _______ _______ _____ _____    ______ ____

>  <TORSDO>
F 16

$$$$
=
 OpenBabel11072408533D

 60 64  0  0  1  0  0  0  0  0999 V2000
  190.2530  173.1940  138.6790 C   0  0  2  0  0  0  0  0  0  0  0  0
  189.4720  172.4970  137.7840 C   0  0  0  0  0  2  0  0  0  0  0  0
  190.1850  169.3890  138.8430 O   0  0  0  0  0  0  0  0  0  0  0  0
  190.2390  171.7040  138.7950 N   0  0  0  0  0  0  0  0  0  0  0  0
  190.6100  170.4510  139.3710 C   0  0  0  0  0  0  0  0  0  0  0  0
  191.4700  170.3820  140.5740 C   0  0  0  0  0  0  0  0  0  0  0  0
  190.9570  170.5620  141.7840 C   0  0  0  0  0  2  0  0  0  0  0  0
  193.4430  169.7740  141.7310 O   0  0  0  0  0  1  0  0  0  0  0  0
  192.9430  170.1140  140.4720 C   0  0  2  0  0  3  0  0  0  0  0  0
  193.7110  171.3030  139.8740 C   0  0  1  0  0  3  0  0  0  0  0  0
  197.4380  175.5140  141.1870 O   0  0  0  0  0  0  0  0  0  0  0  0
  195.2740  175.6780  140.1830 C   0  0  0  0  0  2  0  0  0  0  0  0
  197.4080  175.2100  138.8910 N   0  0  0  0  0  2  0  0  0  0  0  0
  193.5700  174.4620  140.8980 C   0  0  0  0  0  2  0  0  0  0  0  0
  196.5360  173.5070  137.5440 O   0  0  0  0  0  0  0  0  0  0  0  0
  194.7240  175.1150  141.3360 O   0  0  0  0  0  0  0  0  0  0  0  0
  194.4110  172.1200  140.9640 C   0  0  0  0  0  2  0  0  0  0  0  0
  196.6830  174.8920  137.6620 C   0  0  2  0  0  3  0  0  0  0  0  0
  194.7460  171.4100  136.4170 C   0  0  0  0  0  2  0  0  0  0  0  0
  195.2290  173.2420  137.9640 C   0  0  0  0  0  2  0  0  0  0  0  0
  193.4540  173.1200  141.5900 C   0  0  0  0  0  2  0  0  0  0  0  0
  196.7510  175.4370  140.1340 C   0  0  0  0  0  0  0  0  0  0  0  0
  194.8650  171.8210  137.6790 C   0  0  0  0  0  0  0  0  0  0  0  0
  194.6910  170.8250  138.7890 C   0  0  1  0  0  3  0  0  0  0  0  0
  197.4130  175.4440  136.4380 C   0  0  0  0  0  3  0  0  0  0  0  0
  196.5400  176.3970  135.6340 C   0  0  0  0  0  1  0  0  0  0  0  0
  197.9020  174.3160  135.5510 C   0  0  0  0  0  1  0  0  0  0  0  0
  196.5440  169.1960  138.4350 C   0  0  0  0  0  1  0  0  0  0  0  0
  196.0250  170.3060  139.3250 C   0  0  0  0  0  2  0  0  0  0  0  0
  188.4100  174.4620  139.4140 O   0  0  0  0  0  0  0  0  0  0  0  0
  189.4650  173.9300  139.7290 C   0  0  0  0  0  0  0  0  0  0  0  0
  189.9630  173.9900  141.1590 C   0  0  0  0  0  2  0  0  0  0  0  0
  188.8750  174.0300  142.2410 C   0  0  1  0  0  3  0  0  0  0  0  0
  187.8600  172.9220  142.0000 C   0  0  0  0  0  1  0  0  0  0  0  0
  189.4640  173.9770  143.6650 C   0  0  1  0  0  3  0  0  0  0  0  0
  190.5820  173.1420  143.7130 O   0  0  0  0  0  1  0  0  0  0  0  0
  189.7990  175.3320  144.3160 C   0  0  2  0  0  3  0  0  0  0  0  0
  192.8090  174.8890  146.5830 C   0  0  0  0  0  3  0  0  0  0  0  0
  193.8480  175.3610  145.7770 C   0  0  0  0  0  0  0  0  0  0  0  0
  193.5770  175.8140  144.4820 C   0  0  0  0  0  3  0  0  0  0  0  0
  195.1490  175.3860  146.2620 O   0  0  0  0  0  1  0  0  0  0  0  0
  191.2240  175.3070  144.7930 C   0  0  0  0  0  0  0  0  0  0  0  0
  192.2680  175.7930  143.9930 C   0  0  0  0  0  3  0  0  0  0  0  0
  191.4980  174.8680  146.0950 C   0  0  0  0  0  3  0  0  0  0  0  0
  187.8210  176.6240  145.0610 C   0  0  2  0  0  3  0  0  0  0  0  0
  189.1690  177.4140  145.8710 S   0  0  0  0  0  0  0  0  0  0  0  0
  189.2350  177.4950  147.3690 O   0  0  0  0  0  0  0  0  0  0  0  0
  190.3600  177.9690  145.1360 O   0  0  0  0  0  0  0  0  0  0  0  0
  188.8710  175.7040  145.4030 N   0  0  0  0  0  0  0  0  0  0  0  0
  187.6520  176.9550  143.5900 C   0  0  0  0  0  0  0  0  0  0  0  0
  188.5580  177.7480  142.8670 C   0  0  0  0  0  3  0  0  0  0  0  0
  188.3310  178.0310  141.5170 C   0  0  0  0  0  3  0  0  0  0  0  0
  186.5050  176.4820  142.9480 C   0  0  0  0  0  3  0  0  0  0  0  0
  186.2750  176.7660  141.6000 C   0  0  0  0  0  3  0  0  0  0  0  0
  187.1910  177.5360  140.8820 C   0  0  0  0  0  3  0  0  0  0  0  0
  191.5260  173.7660  138.0560 C   0  0  0  0  0  2  0  0  0  0  0  0
  191.4750  173.8630  136.5600 C   0  0  0  0  0  0  0  0  0  0  0  0
  191.7670  172.9020  135.8680 O   0  0  0  0  0  0  0  0  0  0  0  0
  191.0010  175.1180  135.9060 C   0  0  0  0  0  2  0  0  0  0  0  0
  192.0250  176.0630  135.8790 O   0  0  0  0  0  1  0  0  0  0  0  0
  1 56  1  6  0  0  0
  1  4  1  0  0  0  0
  1 31  1  0  0  0  0
  2  1  1  0  0  0  0
  2  4  1  0  0  0  0
  3  5  2  0  0  0  0
  4  5  1  0  0  0  0
  5  6  1  0  0  0  0
  6  7  2  0  0  0  0
  9  6  1  0  0  0  0
  9  8  1  1  0  0  0
 10  9  1  1  0  0  0
 10 17  1  0  0  0  0
 12 16  1  0  0  0  0
 13 22  1  0  0  0  0
 14 16  1  0  0  0  0
 14 21  1  0  0  0  0
 15 18  1  0  0  0  0
 15 20  1  0  0  0  0
 17 21  1  0  0  0  0
 18 25  1  6  0  0  0
 18 13  1  0  0  0  0
 19 23  2  0  0  0  0
 22 12  1  0  0  0  0
 22 11  2  0  0  0  0
 23 20  1  0  0  0  0
 23 24  1  0  0  0  0
 24 29  1  1  0  0  0
 24 10  1  0  0  0  0
 26 25  1  0  0  0  0
 27 25  1  0  0  0  0
 28 29  1  0  0  0  0
 30 31  2  0  0  0  0
 31 32  1  0  0  0  0
 32 33  1  0  0  0  0
 33 34  1  6  0  0  0
 33 35  1  0  0  0  0
 35 36  1  6  0  0  0
 37 35  1  1  0  0  0
 37 42  1  0  0  0  0
 37 49  1  0  0  0  0
 39 41  1  0  0  0  0
 39 38  2  0  0  0  0
 40 39  1  0  0  0  0
 42 44  2  0  0  0  0
 43 40  2  0  0  0  0
 43 42  1  0  0  0  0
 44 38  1  0  0  0  0
 45 50  1  6  0  0  0
 45 49  1  0  0  0  0
 45 46  1  0  0  0  0
 46 47  2  0  0  0  0
 48 46  2  0  0  0  0
 49 46  1  0  0  0  0
 51 50  2  0  0  0  0
 52 51  1  0  0  0  0
 53 50  1  0  0  0  0
 54 53  2  0  0  0  0
 55 52  2  0  0  0  0
 55 54  1  0  0  0  0
 57 56  1  0  0  0  0
 58 57  2  0  0  0  0
 59 57  1  0  0  0  0
 60 59  1  0  0  0  0
M  END
>  <MODEL>
4

>  <REMARK>
 VINA RESULT:      -7.0      3.505      9.811
  Name = 
  16 active torsions:
  status: ('A' for Active; 'I' for Inactive)
    1  A    between atoms: C_1  and  C_31
    2  A    between atoms: C_1  and  C_38
    3  A    between atoms: C_2  and  C_21
    4  A    between atoms: C_3  and  C_48
    5  A    between atoms: C_7  and  C_24
    6  A    between atoms: C_8  and  C_45
    7  A    between atoms: C_8  and  C_48
    8  A    between atoms: C_15  and  C_26
    9  A    between atoms: C_15  and  C_43
   10  A    between atoms: C_17  and  C_31
   11  A    between atoms: C_17  and  C_43
   12  A    between atoms: C_18  and  C_38
   13  A    between atoms: C_24  and  C_26
   14  A    between atoms: C_29  and  C_32
   15  A    between atoms: C_38  and  N_59
   16  A    between atoms: C_52  and  C_58
                            x       y       z     vdW  Elec       q    Type
                         _______ _______ _______ _____ _____    ______ ____

>  <TORSDO>
F 16

$$$$
=
 OpenBabel11072408533D

 60 64  0  0  1  0  0  0  0  0999 V2000
  189.1890  172.8390  139.1520 C   0  0  2  0  0  0  0  0  0  0  0  0
  188.3490  171.8870  139.6850 C   0  0  0  0  0  2  0  0  0  0  0  0
  190.6590  169.5560  140.4030 O   0  0  0  0  0  0  0  0  0  0  0  0
  189.8120  171.5760  139.6510 N   0  0  0  0  0  0  0  0  0  0  0  0
  190.9030  170.6960  139.9260 C   0  0  0  0  0  0  0  0  0  0  0  0
  192.3030  171.1040  139.6730 C   0  0  0  0  0  0  0  0  0  0  0  0
  193.0070  170.5420  138.6970 C   0  0  0  0  0  2  0  0  0  0  0  0
  193.8020  172.9350  139.6940 O   0  0  0  0  0  1  0  0  0  0  0  0
  192.9780  172.1530  140.5060 C   0  0  2  0  0  3  0  0  0  0  0  0
  193.7680  171.5480  141.6770 C   0  0  1  0  0  3  0  0  0  0  0  0
  197.0330  172.9250  146.2370 O   0  0  0  0  0  0  0  0  0  0  0  0
  197.5410  171.4750  144.4040 C   0  0  0  0  0  2  0  0  0  0  0  0
  196.2650  170.7530  146.4760 N   0  0  0  0  0  2  0  0  0  0  0  0
  196.9960  172.0000  142.3260 C   0  0  0  0  0  2  0  0  0  0  0  0
  194.6030  169.5430  145.3580 O   0  0  0  0  0  0  0  0  0  0  0  0
  197.4020  172.5610  143.5380 O   0  0  0  0  0  0  0  0  0  0  0  0
  194.5850  172.6150  142.4090 C   0  0  0  0  0  2  0  0  0  0  0  0
  195.8940  169.4660  145.8910 C   0  0  2  0  0  3  0  0  0  0  0  0
  192.8590  168.4140  143.2240 C   0  0  0  0  0  2  0  0  0  0  0  0
  194.7870  169.7150  143.9830 C   0  0  0  0  0  2  0  0  0  0  0  0
  195.9110  172.8570  141.7090 C   0  0  0  0  0  2  0  0  0  0  0  0
  196.9150  171.7770  145.7310 C   0  0  0  0  0  0  0  0  0  0  0  0
  193.4840  169.5910  143.2610 C   0  0  0  0  0  0  0  0  0  0  0  0
  192.8290  170.7840  142.6280 C   0  0  1  0  0  3  0  0  0  0  0  0
  195.9610  168.3510  146.9340 C   0  0  0  0  0  3  0  0  0  0  0  0
  194.7090  168.3030  147.7980 C   0  0  0  0  0  1  0  0  0  0  0  0
  197.1890  168.5080  147.8080 C   0  0  0  0  0  1  0  0  0  0  0  0
  190.6070  171.5310  143.4730 C   0  0  0  0  0  1  0  0  0  0  0  0
  192.1050  171.6650  143.6450 C   0  0  0  0  0  2  0  0  0  0  0  0
  190.5000  174.3100  140.4410 O   0  0  0  0  0  0  0  0  0  0  0  0
  189.3790  174.0450  140.0340 C   0  0  0  0  0  0  0  0  0  0  0  0
  188.1980  174.9270  140.3880 C   0  0  0  0  0  2  0  0  0  0  0  0
  188.4610  175.9860  141.4680 C   0  0  1  0  0  3  0  0  0  0  0  0
  187.6520  177.2410  141.1750 C   0  0  0  0  0  1  0  0  0  0  0  0
  188.2030  175.4480  142.8890 C   0  0  1  0  0  3  0  0  0  0  0  0
  188.4790  174.0830  142.9650 O   0  0  0  0  0  1  0  0  0  0  0  0
  188.9150  176.1880  144.0380 C   0  0  2  0  0  3  0  0  0  0  0  0
  192.5370  175.0870  144.3070 C   0  0  0  0  0  3  0  0  0  0  0  0
  193.1870  176.0480  143.5280 C   0  0  0  0  0  0  0  0  0  0  0  0
  192.4490  177.0540  142.8970 C   0  0  0  0  0  3  0  0  0  0  0  0
  194.5680  176.0080  143.3850 O   0  0  0  0  0  1  0  0  0  0  0  0
  190.4000  176.1270  143.8120 C   0  0  0  0  0  0  0  0  0  0  0  0
  191.0590  177.0970  143.0440 C   0  0  0  0  0  3  0  0  0  0  0  0
  191.1460  175.1300  144.4540 C   0  0  0  0  0  3  0  0  0  0  0  0
  187.4200  176.3010  146.0090 C   0  0  2  0  0  3  0  0  0  0  0  0
  188.9530  176.9250  146.6080 S   0  0  0  0  0  0  0  0  0  0  0  0
  189.6720  176.2590  147.7450 O   0  0  0  0  0  0  0  0  0  0  0  0
  189.6700  178.0890  145.9760 O   0  0  0  0  0  0  0  0  0  0  0  0
  188.5500  175.6800  145.3760 N   0  0  0  0  0  0  0  0  0  0  0  0
  186.6030  177.2610  145.1660 C   0  0  0  0  0  0  0  0  0  0  0  0
  186.7350  178.6580  145.2360 C   0  0  0  0  0  3  0  0  0  0  0  0
  185.9360  179.4860  144.4430 C   0  0  0  0  0  3  0  0  0  0  0  0
  185.6380  176.7150  144.3160 C   0  0  0  0  0  3  0  0  0  0  0  0
  184.8360  177.5410  143.5250 C   0  0  0  0  0  3  0  0  0  0  0  0
  184.9880  178.9270  143.5840 C   0  0  0  0  0  3  0  0  0  0  0  0
  189.1010  172.9410  137.6300 C   0  0  0  0  0  2  0  0  0  0  0  0
  190.0770  173.9110  137.0330 C   0  0  0  0  0  0  0  0  0  0  0  0
  189.6800  174.9090  136.4540 O   0  0  0  0  0  0  0  0  0  0  0  0
  191.5440  173.6970  137.2000 C   0  0  0  0  0  2  0  0  0  0  0  0
  192.1990  173.8720  135.9820 O   0  0  0  0  0  1  0  0  0  0  0  0
  1 56  1  6  0  0  0
  1  4  1  0  0  0  0
  1  2  1  0  0  0  0
  1 31  1  0  0  0  0
  4  2  1  0  0  0  0
  4  5  1  0  0  0  0
  5  3  2  0  0  0  0
  6  5  1  0  0  0  0
  6  9  1  0  0  0  0
  7  6  2  0  0  0  0
  9  8  1  6  0  0  0
 10  9  1  6  0  0  0
 10 17  1  0  0  0  0
 10 24  1  0  0  0  0
 12 22  1  0  0  0  0
 14 16  1  0  0  0  0
 15 18  1  0  0  0  0
 16 12  1  0  0  0  0
 18 13  1  0  0  0  0
 18 25  1  1  0  0  0
 19 23  2  0  0  0  0
 20 15  1  0  0  0  0
 21 14  1  0  0  0  0
 21 17  1  0  0  0  0
 22 11  2  0  0  0  0
 22 13  1  0  0  0  0
 23 20  1  0  0  0  0
 24 23  1  0  0  0  0
 24 29  1  1  0  0  0
 25 26  1  0  0  0  0
 25 27  1  0  0  0  0
 28 29  1  0  0  0  0
 31 32  1  0  0  0  0
 31 30  2  0  0  0  0
 32 33  1  0  0  0  0
 33 34  1  6  0  0  0
 33 35  1  0  0  0  0
 35 36  1  6  0  0  0
 37 35  1  6  0  0  0
 37 49  1  0  0  0  0
 38 44  1  0  0  0  0
 39 38  2  0  0  0  0
 40 43  2  0  0  0  0
 40 39  1  0  0  0  0
 41 39  1  0  0  0  0
 42 37  1  0  0  0  0
 42 44  2  0  0  0  0
 43 42  1  0  0  0  0
 45 50  1  6  0  0  0
 45 46  1  0  0  0  0
 46 47  2  0  0  0  0
 48 46  2  0  0  0  0
 49 45  1  0  0  0  0
 49 46  1  0  0  0  0
 50 51  1  0  0  0  0
 52 51  2  0  0  0  0
 53 50  2  0  0  0  0
 54 55  2  0  0  0  0
 54 53  1  0  0  0  0
 55 52  1  0  0  0  0
 57 59  1  0  0  0  0
 57 56  1  0  0  0  0
 58 57  2  0  0  0  0
 60 59  1  0  0  0  0
M  END
>  <MODEL>
5

>  <REMARK>
 VINA RESULT:      -6.8      2.933     10.390
  Name = 
  16 active torsions:
  status: ('A' for Active; 'I' for Inactive)
    1  A    between atoms: C_1  and  C_31
    2  A    between atoms: C_1  and  C_38
    3  A    between atoms: C_2  and  C_21
    4  A    between atoms: C_3  and  C_48
    5  A    between atoms: C_7  and  C_24
    6  A    between atoms: C_8  and  C_45
    7  A    between atoms: C_8  and  C_48
    8  A    between atoms: C_15  and  C_26
    9  A    between atoms: C_15  and  C_43
   10  A    between atoms: C_17  and  C_31
   11  A    between atoms: C_17  and  C_43
   12  A    between atoms: C_18  and  C_38
   13  A    between atoms: C_24  and  C_26
   14  A    between atoms: C_29  and  C_32
   15  A    between atoms: C_38  and  N_59
   16  A    between atoms: C_52  and  C_58
                            x       y       z     vdW  Elec       q    Type
                         _______ _______ _______ _____ _____    ______ ____

>  <TORSDO>
F 16

$$$$
=
 OpenBabel11072408533D

 60 64  0  0  1  0  0  0  0  0999 V2000
  191.0010  173.0150  142.4170 C   0  0  2  0  0  0  0  0  0  0  0  0
  190.5250  171.7570  142.7130 C   0  0  0  0  0  2  0  0  0  0  0  0
  193.0640  170.7270  144.6570 O   0  0  0  0  0  0  0  0  0  0  0  0
  191.8320  172.1600  143.3180 N   0  0  0  0  0  0  0  0  0  0  0  0
  192.9620  171.8730  144.1420 C   0  0  0  0  0  0  0  0  0  0  0  0
  193.9990  172.8940  144.4110 C   0  0  0  0  0  0  0  0  0  0  0  0
  193.6630  174.1120  144.8160 C   0  0  0  0  0  2  0  0  0  0  0  0
  196.2150  173.4900  144.9910 O   0  0  0  0  0  1  0  0  0  0  0  0
  195.4590  172.5970  144.2290 C   0  0  2  0  0  3  0  0  0  0  0  0
  195.8820  172.6330  142.7530 C   0  0  1  0  0  3  0  0  0  0  0  0
  194.2280  171.0760  137.4430 O   0  0  0  0  0  0  0  0  0  0  0  0
  196.2580  170.5630  138.5990 C   0  0  0  0  0  2  0  0  0  0  0  0
  195.8720  172.7000  137.2850 N   0  0  0  0  0  2  0  0  0  0  0  0
  196.2640  170.0140  140.7410 C   0  0  0  0  0  2  0  0  0  0  0  0
  196.7980  174.1560  138.8650 O   0  0  0  0  0  0  0  0  0  0  0  0
  195.5070  169.9030  139.5740 O   0  0  0  0  0  0  0  0  0  0  0  0
  194.9450  171.7900  141.8830 C   0  0  0  0  0  2  0  0  0  0  0  0
  197.0980  173.3180  137.7870 C   0  0  2  0  0  3  0  0  0  0  0  0
  197.9410  175.2630  141.3830 C   0  0  0  0  0  2  0  0  0  0  0  0
  197.1270  173.4140  140.0040 C   0  0  0  0  0  2  0  0  0  0  0  0
  195.3510  170.3270  141.9090 C   0  0  0  0  0  2  0  0  0  0  0  0
  195.3820  171.4570  137.7760 C   0  0  0  0  0  0  0  0  0  0  0  0
  197.0630  174.2740  141.2250 C   0  0  0  0  0  0  0  0  0  0  0  0
  195.9850  174.0850  142.2530 C   0  0  1  0  0  3  0  0  0  0  0  0
  197.7980  174.1170  136.6870 C   0  0  0  0  0  3  0  0  0  0  0  0
  197.4960  175.6050  136.7830 C   0  0  0  0  0  1  0  0  0  0  0  0
  197.4090  173.5960  135.3170 C   0  0  0  0  0  1  0  0  0  0  0  0
  194.7190  176.2120  141.9630 C   0  0  0  0  0  1  0  0  0  0  0  0
  194.6550  174.7050  141.8290 C   0  0  0  0  0  2  0  0  0  0  0  0
  189.3400  173.8430  143.8660 O   0  0  0  0  0  0  0  0  0  0  0  0
  190.2460  174.1260  143.0960 C   0  0  0  0  0  0  0  0  0  0  0  0
  190.6240  175.5730  142.8450 C   0  0  0  0  0  2  0  0  0  0  0  0
  190.6090  176.4880  144.0780 C   0  0  1  0  0  3  0  0  0  0  0  0
  192.0230  176.9420  144.4090 C   0  0  0  0  0  1  0  0  0  0  0  0
  189.6420  177.6770  143.9120 C   0  0  1  0  0  3  0  0  0  0  0  0
  189.8710  178.3430  142.7070 O   0  0  0  0  0  1  0  0  0  0  0  0
  188.1410  177.3610  144.0550 C   0  0  2  0  0  3  0  0  0  0  0  0
  186.0220  178.2990  141.0500 C   0  0  0  0  0  3  0  0  0  0  0  0
  186.2330  177.2120  140.1990 C   0  0  0  0  0  0  0  0  0  0  0  0
  187.0790  176.1700  140.5920 C   0  0  0  0  0  3  0  0  0  0  0  0
  185.5980  177.1610  138.9650 O   0  0  0  0  0  1  0  0  0  0  0  0
  187.5190  177.3140  142.6870 C   0  0  0  0  0  0  0  0  0  0  0  0
  187.7160  176.2180  141.8350 C   0  0  0  0  0  3  0  0  0  0  0  0
  186.6590  178.3480  142.2940 C   0  0  0  0  0  3  0  0  0  0  0  0
  187.5720  178.0820  146.3550 C   0  0  2  0  0  3  0  0  0  0  0  0
  186.0560  177.4430  145.7280 S   0  0  0  0  0  0  0  0  0  0  0  0
  184.8320  178.3040  145.6280 O   0  0  0  0  0  0  0  0  0  0  0  0
  185.9160  176.0470  145.1800 O   0  0  0  0  0  0  0  0  0  0  0  0
  187.4270  178.3010  144.9420 N   0  0  0  0  0  0  0  0  0  0  0  0
  188.5930  177.0480  146.7870 C   0  0  0  0  0  0  0  0  0  0  0  0
  188.3480  175.6650  146.7740 C   0  0  0  0  0  3  0  0  0  0  0  0
  189.3280  174.7670  147.2050 C   0  0  0  0  0  3  0  0  0  0  0  0
  189.8200  177.5130  147.2690 C   0  0  0  0  0  3  0  0  0  0  0  0
  190.8000  176.6170  147.7030 C   0  0  0  0  0  3  0  0  0  0  0  0
  190.5560  175.2430  147.6660 C   0  0  0  0  0  3  0  0  0  0  0  0
  191.5390  173.1400  140.9920 C   0  0  0  0  0  2  0  0  0  0  0  0
  190.5440  172.7620  139.9350 C   0  0  0  0  0  0  0  0  0  0  0  0
  190.7660  171.8260  139.1840 O   0  0  0  0  0  0  0  0  0  0  0  0
  189.2420  173.4860  139.8390 C   0  0  0  0  0  2  0  0  0  0  0  0
  188.1840  172.6040  140.0510 O   0  0  0  0  0  1  0  0  0  0  0  0
  1 56  1  6  0  0  0
  1  2  1  0  0  0  0
  1 31  1  0  0  0  0
  1  4  1  0  0  0  0
  2  4  1  0  0  0  0
  4  5  1  0  0  0  0
  5  6  1  0  0  0  0
  5  3  2  0  0  0  0
  6  7  2  0  0  0  0
  9  6  1  0  0  0  0
  9  8  1  1  0  0  0
 10  9  1  1  0  0  0
 11 22  2  0  0  0  0
 12 16  1  0  0  0  0
 13 22  1  0  0  0  0
 13 18  1  0  0  0  0
 14 21  1  0  0  0  0
 15 20  1  0  0  0  0
 16 14  1  0  0  0  0
 17 21  1  0  0  0  0
 17 10  1  0  0  0  0
 18 25  1  6  0  0  0
 18 15  1  0  0  0  0
 20 23  1  0  0  0  0
 22 12  1  0  0  0  0
 23 19  2  0  0  0  0
 23 24  1  0  0  0  0
 24 29  1  6  0  0  0
 24 10  1  0  0  0  0
 25 26  1  0  0  0  0
 27 25  1  0  0  0  0
 29 28  1  0  0  0  0
 31 30  2  0  0  0  0
 32 31  1  0  0  0  0
 32 33  1  0  0  0  0
 33 34  1  6  0  0  0
 35 36  1  6  0  0  0
 35 33  1  0  0  0  0
 37 35  1  6  0  0  0
 37 49  1  0  0  0  0
 38 44  1  0  0  0  0
 39 40  1  0  0  0  0
 39 38  2  0  0  0  0
 40 43  2  0  0  0  0
 41 39  1  0  0  0  0
 42 37  1  0  0  0  0
 43 42  1  0  0  0  0
 44 42  2  0  0  0  0
 45 50  1  6  0  0  0
 46 45  1  0  0  0  0
 47 46  2  0  0  0  0
 48 46  2  0  0  0  0
 49 46  1  0  0  0  0
 49 45  1  0  0  0  0
 50 53  1  0  0  0  0
 51 50  2  0  0  0  0
 51 52  1  0  0  0  0
 52 55  2  0  0  0  0
 53 54  2  0  0  0  0
 55 54  1  0  0  0  0
 57 56  1  0  0  0  0
 58 57  2  0  0  0  0
 59 57  1  0  0  0  0
 59 60  1  0  0  0  0
M  END
>  <MODEL>
6

>  <REMARK>
 VINA RESULT:      -6.7      3.020      9.749
  Name = 
  16 active torsions:
  status: ('A' for Active; 'I' for Inactive)
    1  A    between atoms: C_1  and  C_31
    2  A    between atoms: C_1  and  C_38
    3  A    between atoms: C_2  and  C_21
    4  A    between atoms: C_3  and  C_48
    5  A    between atoms: C_7  and  C_24
    6  A    between atoms: C_8  and  C_45
    7  A    between atoms: C_8  and  C_48
    8  A    between atoms: C_15  and  C_26
    9  A    between atoms: C_15  and  C_43
   10  A    between atoms: C_17  and  C_31
   11  A    between atoms: C_17  and  C_43
   12  A    between atoms: C_18  and  C_38
   13  A    between atoms: C_24  and  C_26
   14  A    between atoms: C_29  and  C_32
   15  A    between atoms: C_38  and  N_59
   16  A    between atoms: C_52  and  C_58
                            x       y       z     vdW  Elec       q    Type
                         _______ _______ _______ _____ _____    ______ ____

>  <TORSDO>
F 16

$$$$
=
 OpenBabel11072408533D

 60 64  0  0  1  0  0  0  0  0999 V2000
  192.7030  175.5330  145.3040 C   0  0  2  0  0  0  0  0  0  0  0  0
  193.0420  176.8360  145.0130 C   0  0  0  0  0  2  0  0  0  0  0  0
  193.8930  176.4030  141.7920 O   0  0  0  0  0  0  0  0  0  0  0  0
  193.1420  175.8340  143.9080 N   0  0  0  0  0  0  0  0  0  0  0  0
  193.4400  175.5050  142.5500 C   0  0  0  0  0  0  0  0  0  0  0  0
  193.2160  174.1400  142.0210 C   0  0  0  0  0  0  0  0  0  0  0  0
  192.0000  173.6090  142.0100 C   0  0  0  0  0  2  0  0  0  0  0  0
  195.5320  174.0460  141.5440 O   0  0  0  0  0  1  0  0  0  0  0  0
  194.3470  173.3090  141.4890 C   0  0  2  0  0  3  0  0  0  0  0  0
  194.0770  172.8020  140.0640 C   0  0  1  0  0  3  0  0  0  0  0  0
  195.9940  173.0930  134.6250 O   0  0  0  0  0  0  0  0  0  0  0  0
  193.8110  173.5660  135.4790 C   0  0  0  0  0  2  0  0  0  0  0  0
  194.6180  171.2430  134.8510 N   0  0  0  0  0  2  0  0  0  0  0  0
  193.5230  174.6720  137.3720 C   0  0  0  0  0  2  0  0  0  0  0  0
  193.7600  170.1450  136.7310 O   0  0  0  0  0  0  0  0  0  0  0  0
  194.3640  174.5800  136.2630 O   0  0  0  0  0  0  0  0  0  0  0  0
  194.9640  173.5150  139.0400 C   0  0  0  0  0  2  0  0  0  0  0  0
  193.4500  170.5950  135.4440 C   0  0  2  0  0  3  0  0  0  0  0  0
  192.5500  169.5990  139.3970 C   0  0  0  0  0  2  0  0  0  0  0  0
  193.2220  171.1060  137.5920 C   0  0  0  0  0  2  0  0  0  0  0  0
  194.3540  174.8430  138.6260 C   0  0  0  0  0  2  0  0  0  0  0  0
  194.8790  172.6350  134.9920 C   0  0  0  0  0  0  0  0  0  0  0  0
  193.2900  170.6370  139.0090 C   0  0  0  0  0  0  0  0  0  0  0  0
  194.2270  171.2720  139.9960 C   0  0  1  0  0  3  0  0  0  0  0  0
  192.9790  169.4230  134.5830 C   0  0  0  0  0  3  0  0  0  0  0  0
  191.5300  169.0530  134.8680 C   0  0  0  0  0  1  0  0  0  0  0  0
  193.8720  168.2160  134.7860 C   0  0  0  0  0  1  0  0  0  0  0  0
  195.7160  169.2740  139.9390 C   0  0  0  0  0  1  0  0  0  0  0  0
  195.6660  170.7840  139.8350 C   0  0  0  0  0  2  0  0  0  0  0  0
  190.7550  174.2130  145.2410 O   0  0  0  0  0  0  0  0  0  0  0  0
  191.2240  175.3150  145.4830 C   0  0  0  0  0  0  0  0  0  0  0  0
  190.3380  176.4420  145.9770 C   0  0  0  0  0  2  0  0  0  0  0  0
  188.8780  176.3940  145.5060 C   0  0  1  0  0  3  0  0  0  0  0  0
  187.9430  176.3900  146.7070 C   0  0  0  0  0  1  0  0  0  0  0  0
  188.5460  177.5290  144.5170 C   0  0  1  0  0  3  0  0  0  0  0  0
  189.6800  177.9170  143.8010 O   0  0  0  0  0  1  0  0  0  0  0  0
  187.3820  177.2660  143.5440 C   0  0  2  0  0  3  0  0  0  0  0  0
  188.1690  175.4280  140.3190 C   0  0  0  0  0  3  0  0  0  0  0  0
  188.3760  174.1230  140.7750 C   0  0  0  0  0  0  0  0  0  0  0  0
  188.2750  173.8360  142.1400 C   0  0  0  0  0  3  0  0  0  0  0  0
  188.6770  173.1110  139.8740 O   0  0  0  0  0  1  0  0  0  0  0  0
  187.7740  176.1670  142.5970 C   0  0  0  0  0  0  0  0  0  0  0  0
  187.9690  174.8530  143.0480 C   0  0  0  0  0  3  0  0  0  0  0  0
  187.8620  176.4460  141.2270 C   0  0  0  0  0  3  0  0  0  0  0  0
  185.9510  179.2860  143.4670 C   0  0  2  0  0  3  0  0  0  0  0  0
  185.2570  178.2330  142.2390 S   0  0  0  0  0  0  0  0  0  0  0  0
  185.1770  178.6610  140.8030 O   0  0  0  0  0  0  0  0  0  0  0  0
  184.7890  176.8310  142.5270 O   0  0  0  0  0  0  0  0  0  0  0  0
  186.9420  178.4740  142.8170 N   0  0  0  0  0  0  0  0  0  0  0  0
  185.6110  178.9360  144.9030 C   0  0  0  0  0  0  0  0  0  0  0  0
  184.6820  177.9450  145.2590 C   0  0  0  0  0  3  0  0  0  0  0  0
  184.4010  177.6860  146.6030 C   0  0  0  0  0  3  0  0  0  0  0  0
  186.2260  179.6810  145.9140 C   0  0  0  0  0  3  0  0  0  0  0  0
  185.9440  179.4250  147.2570 C   0  0  0  0  0  3  0  0  0  0  0  0
  185.0360  178.4240  147.6030 C   0  0  0  0  0  3  0  0  0  0  0  0
  193.7480  174.8100  146.1530 C   0  0  0  0  0  2  0  0  0  0  0  0
  194.3360  173.6020  145.4870 C   0  0  0  0  0  0  0  0  0  0  0  0
  193.6650  172.5940  145.3320 O   0  0  0  0  0  0  0  0  0  0  0  0
  195.7270  173.6450  144.9480 C   0  0  0  0  0  2  0  0  0  0  0  0
  196.3000  174.8920  145.1930 O   0  0  0  0  0  1  0  0  0  0  0  0
  1 31  1  0  0  0  0
  1 56  1  1  0  0  0
  2  1  1  0  0  0  0
  3  5  2  0  0  0  0
  4  2  1  0  0  0  0
  4  1  1  0  0  0  0
  5  4  1  0  0  0  0
  6  5  1  0  0  0  0
  7  6  2  0  0  0  0
  9  8  1  6  0  0  0
  9  6  1  0  0  0  0
 10  9  1  1  0  0  0
 11 22  2  0  0  0  0
 12 16  1  0  0  0  0
 13 22  1  0  0  0  0
 13 18  1  0  0  0  0
 14 21  1  0  0  0  0
 15 20  1  0  0  0  0
 16 14  1  0  0  0  0
 17 10  1  0  0  0  0
 18 25  1  6  0  0  0
 18 15  1  0  0  0  0
 20 23  1  0  0  0  0
 21 17  1  0  0  0  0
 22 12  1  0  0  0  0
 23 19  2  0  0  0  0
 23 24  1  0  0  0  0
 24 29  1  6  0  0  0
 24 10  1  0  0  0  0
 25 27  1  0  0  0  0
 25 26  1  0  0  0  0
 29 28  1  0  0  0  0
 30 31  2  0  0  0  0
 31 32  1  0  0  0  0
 33 32  1  0  0  0  0
 33 34  1  1  0  0  0
 35 36  1  6  0  0  0
 35 33  1  0  0  0  0
 37 35  1  6  0  0  0
 38 39  2  0  0  0  0
 38 44  1  0  0  0  0
 39 40  1  0  0  0  0
 40 43  2  0  0  0  0
 41 39  1  0  0  0  0
 42 43  1  0  0  0  0
 42 37  1  0  0  0  0
 44 42  2  0  0  0  0
 45 50  1  1  0  0  0
 46 48  2  0  0  0  0
 46 49  1  0  0  0  0
 46 45  1  0  0  0  0
 47 46  2  0  0  0  0
 49 45  1  0  0  0  0
 49 37  1  0  0  0  0
 50 51  2  0  0  0  0
 50 53  1  0  0  0  0
 51 52  1  0  0  0  0
 52 55  2  0  0  0  0
 53 54  2  0  0  0  0
 54 55  1  0  0  0  0
 57 56  1  0  0  0  0
 58 57  2  0  0  0  0
 59 60  1  0  0  0  0
 59 57  1  0  0  0  0
M  END
>  <MODEL>
7

>  <REMARK>
 VINA RESULT:      -6.7      3.266      9.983
  Name = 
  16 active torsions:
  status: ('A' for Active; 'I' for Inactive)
    1  A    between atoms: C_1  and  C_31
    2  A    between atoms: C_1  and  C_38
    3  A    between atoms: C_2  and  C_21
    4  A    between atoms: C_3  and  C_48
    5  A    between atoms: C_7  and  C_24
    6  A    between atoms: C_8  and  C_45
    7  A    between atoms: C_8  and  C_48
    8  A    between atoms: C_15  and  C_26
    9  A    between atoms: C_15  and  C_43
   10  A    between atoms: C_17  and  C_31
   11  A    between atoms: C_17  and  C_43
   12  A    between atoms: C_18  and  C_38
   13  A    between atoms: C_24  and  C_26
   14  A    between atoms: C_29  and  C_32
   15  A    between atoms: C_38  and  N_59
   16  A    between atoms: C_52  and  C_58
                            x       y       z     vdW  Elec       q    Type
                         _______ _______ _______ _____ _____    ______ ____

>  <TORSDO>
F 16

$$$$
=
 OpenBabel11072408533D

 60 64  0  0  1  0  0  0  0  0999 V2000
  193.5460  171.6370  143.9180 C   0  0  2  0  0  0  0  0  0  0  0  0
  192.7140  170.6240  144.3410 C   0  0  0  0  0  2  0  0  0  0  0  0
  189.9750  172.4740  144.9420 O   0  0  0  0  0  0  0  0  0  0  0  0
  192.1470  172.0070  144.2880 N   0  0  0  0  0  0  0  0  0  0  0  0
  191.0570  172.9120  144.4690 C   0  0  0  0  0  0  0  0  0  0  0  0
  191.1740  174.3420  144.1020 C   0  0  0  0  0  0  0  0  0  0  0  0
  191.6820  174.7010  142.9300 C   0  0  0  0  0  2  0  0  0  0  0  0
  190.7030  174.9400  146.3430 O   0  0  0  0  0  1  0  0  0  0  0  0
  190.7320  175.4300  145.0350 C   0  0  2  0  0  3  0  0  0  0  0  0
  189.3720  176.0240  144.6370 C   0  0  1  0  0  3  0  0  0  0  0  0
  185.5520  180.1300  146.0120 O   0  0  0  0  0  0  0  0  0  0  0  0
  185.2180  177.7700  145.8100 C   0  0  0  0  0  2  0  0  0  0  0  0
  185.1340  179.3900  143.8570 N   0  0  0  0  0  2  0  0  0  0  0  0
  186.6970  176.3210  146.5870 C   0  0  0  0  0  2  0  0  0  0  0  0
  186.3890  178.0850  142.3740 O   0  0  0  0  0  0  0  0  0  0  0  0
  186.1420  177.5770  146.8390 O   0  0  0  0  0  0  0  0  0  0  0  0
  188.8900  177.0530  145.6630 C   0  0  0  0  0  2  0  0  0  0  0  0
  185.1010  178.3130  142.8690 C   0  0  2  0  0  3  0  0  0  0  0  0
  188.1410  175.9590  141.2430 C   0  0  0  0  0  2  0  0  0  0  0  0
  186.8490  176.9590  143.0630 C   0  0  0  0  0  2  0  0  0  0  0  0
  188.1920  176.3710  146.8260 C   0  0  0  0  0  2  0  0  0  0  0  0
  185.3420  179.1520  145.2450 C   0  0  0  0  0  0  0  0  0  0  0  0
  188.1330  176.4720  142.4730 C   0  0  0  0  0  0  0  0  0  0  0  0
  189.4310  176.6080  143.2140 C   0  0  1  0  0  3  0  0  0  0  0  0
  184.1550  178.6550  141.7180 C   0  0  0  0  0  3  0  0  0  0  0  0
  182.7100  178.3100  142.0460 C   0  0  0  0  0  1  0  0  0  0  0  0
  184.5810  177.9500  140.4460 C   0  0  0  0  0  1  0  0  0  0  0  0
  191.5210  177.9640  143.1420 C   0  0  0  0  0  1  0  0  0  0  0  0
  190.0070  178.0210  143.1340 C   0  0  0  0  0  2  0  0  0  0  0  0
  194.9990  171.6530  142.0650 O   0  0  0  0  0  0  0  0  0  0  0  0
  193.8370  171.6080  142.4410 C   0  0  0  0  0  0  0  0  0  0  0  0
  192.7040  171.5000  141.4390 C   0  0  0  0  0  2  0  0  0  0  0  0
  193.1220  171.4820  139.9620 C   0  0  1  0  0  3  0  0  0  0  0  0
  193.1490  170.0520  139.4450 C   0  0  0  0  0  1  0  0  0  0  0  0
  192.2370  172.3970  139.0940 C   0  0  1  0  0  3  0  0  0  0  0  0
  191.2640  173.0330  139.8660 O   0  0  0  0  0  1  0  0  0  0  0  0
  192.9730  173.4350  138.2260 C   0  0  2  0  0  3  0  0  0  0  0  0
  196.4460  174.0370  139.6310 C   0  0  0  0  0  3  0  0  0  0  0  0
  196.2020  175.0270  140.5860 C   0  0  0  0  0  0  0  0  0  0  0  0
  194.9050  175.5170  140.7700 C   0  0  0  0  0  3  0  0  0  0  0  0
  197.2450  175.5210  141.3580 O   0  0  0  0  0  1  0  0  0  0  0  0
  194.0950  174.0340  139.0270 C   0  0  0  0  0  0  0  0  0  0  0  0
  193.8530  175.0170  139.9960 C   0  0  0  0  0  3  0  0  0  0  0  0
  195.3940  173.5360  138.8570 C   0  0  0  0  0  3  0  0  0  0  0  0
  191.2570  174.0970  136.5670 C   0  0  2  0  0  3  0  0  0  0  0  0
  192.6910  174.9870  136.0660 S   0  0  0  0  0  0  0  0  0  0  0  0
  192.6930  176.4870  136.0060 O   0  0  0  0  0  0  0  0  0  0  0  0
  194.0060  174.3220  135.7590 O   0  0  0  0  0  0  0  0  0  0  0  0
  192.0820  174.4790  137.6800 N   0  0  0  0  0  0  0  0  0  0  0  0
  191.2360  172.6250  136.2020 C   0  0  0  0  0  0  0  0  0  0  0  0
  192.1800  172.0240  135.3530 C   0  0  0  0  0  3  0  0  0  0  0  0
  192.0910  170.6650  135.0430 C   0  0  0  0  0  3  0  0  0  0  0  0
  190.1880  171.8490  136.7040 C   0  0  0  0  0  3  0  0  0  0  0  0
  190.0950  170.4910  136.3920 C   0  0  0  0  0  3  0  0  0  0  0  0
  191.0500  169.8960  135.5660 C   0  0  0  0  0  3  0  0  0  0  0  0
  194.5990  172.0300  144.9540 C   0  0  0  0  0  2  0  0  0  0  0  0
  194.7930  173.5110  145.0850 C   0  0  0  0  0  0  0  0  0  0  0  0
  194.1570  174.1480  145.9080 O   0  0  0  0  0  0  0  0  0  0  0  0
  195.8170  174.2090  144.2520 C   0  0  0  0  0  2  0  0  0  0  0  0
  196.9330  174.5250  145.0260 O   0  0  0  0  0  1  0  0  0  0  0  0
  1  4  1  0  0  0  0
  1  2  1  0  0  0  0
  1 56  1  1  0  0  0
  4  2  1  0  0  0  0
  4  5  1  0  0  0  0
  5  3  2  0  0  0  0
  6  5  1  0  0  0  0
  6  9  1  0  0  0  0
  7  6  2  0  0  0  0
  9  8  1  1  0  0  0
 10  9  1  1  0  0  0
 10 17  1  0  0  0  0
 12 16  1  0  0  0  0
 13 22  1  0  0  0  0
 14 21  1  0  0  0  0
 14 16  1  0  0  0  0
 15 18  1  0  0  0  0
 15 20  1  0  0  0  0
 17 21  1  0  0  0  0
 18 25  1  6  0  0  0
 18 13  1  0  0  0  0
 19 23  2  0  0  0  0
 22 12  1  0  0  0  0
 22 11  2  0  0  0  0
 23 20  1  0  0  0  0
 23 24  1  0  0  0  0
 24 29  1  1  0  0  0
 24 10  1  0  0  0  0
 25 26  1  0  0  0  0
 27 25  1  0  0  0  0
 29 28  1  0  0  0  0
 30 31  2  0  0  0  0
 31  1  1  0  0  0  0
 32 31  1  0  0  0  0
 33 34  1  6  0  0  0
 33 32  1  0  0  0  0
 35 36  1  1  0  0  0
 35 33  1  0  0  0  0
 37 42  1  0  0  0  0
 37 35  1  1  0  0  0
 38 39  1  0  0  0  0
 39 40  2  0  0  0  0
 39 41  1  0  0  0  0
 42 43  2  0  0  0  0
 43 40  1  0  0  0  0
 44 42  1  0  0  0  0
 44 38  2  0  0  0  0
 45 50  1  6  0  0  0
 45 49  1  0  0  0  0
 46 45  1  0  0  0  0
 46 49  1  0  0  0  0
 47 46  2  0  0  0  0
 48 46  2  0  0  0  0
 49 37  1  0  0  0  0
 50 53  1  0  0  0  0
 51 50  2  0  0  0  0
 52 51  1  0  0  0  0
 52 55  2  0  0  0  0
 54 53  2  0  0  0  0
 55 54  1  0  0  0  0
 56 57  1  0  0  0  0
 57 58  2  0  0  0  0
 59 60  1  0  0  0  0
 59 57  1  0  0  0  0
M  END
>  <MODEL>
8

>  <REMARK>
 VINA RESULT:      -6.6      2.666      4.888
  Name = 
  16 active torsions:
  status: ('A' for Active; 'I' for Inactive)
    1  A    between atoms: C_1  and  C_31
    2  A    between atoms: C_1  and  C_38
    3  A    between atoms: C_2  and  C_21
    4  A    between atoms: C_3  and  C_48
    5  A    between atoms: C_7  and  C_24
    6  A    between atoms: C_8  and  C_45
    7  A    between atoms: C_8  and  C_48
    8  A    between atoms: C_15  and  C_26
    9  A    between atoms: C_15  and  C_43
   10  A    between atoms: C_17  and  C_31
   11  A    between atoms: C_17  and  C_43
   12  A    between atoms: C_18  and  C_38
   13  A    between atoms: C_24  and  C_26
   14  A    between atoms: C_29  and  C_32
   15  A    between atoms: C_38  and  N_59
   16  A    between atoms: C_52  and  C_58
                            x       y       z     vdW  Elec       q    Type
                         _______ _______ _______ _____ _____    ______ ____

>  <TORSDO>
F 16

$$$$
=
 OpenBabel11072408533D

 60 64  0  0  1  0  0  0  0  0999 V2000
  194.1230  175.3250  145.1400 C   0  0  2  0  0  0  0  0  0  0  0  0
  194.9060  176.2700  145.7650 C   0  0  0  0  0  2  0  0  0  0  0  0
  197.0540  176.8560  143.2500 O   0  0  0  0  0  0  0  0  0  0  0  0
  195.2480  175.9160  144.3530 N   0  0  0  0  0  0  0  0  0  0  0  0
  196.0620  176.0810  143.1920 C   0  0  0  0  0  0  0  0  0  0  0  0
  195.7550  175.3730  141.9280 C   0  0  0  0  0  0  0  0  0  0  0  0
  194.7110  175.7280  141.1900 C   0  0  0  0  0  2  0  0  0  0  0  0
  197.9380  174.6300  141.3990 O   0  0  0  0  0  1  0  0  0  0  0  0
  196.6000  174.2320  141.4420 C   0  0  2  0  0  3  0  0  0  0  0  0
  196.1350  173.7030  140.0770 C   0  0  1  0  0  3  0  0  0  0  0  0
  197.9400  172.5910  134.7060 O   0  0  0  0  0  0  0  0  0  0  0  0
  196.1200  173.9630  135.4280 C   0  0  0  0  0  2  0  0  0  0  0  0
  195.9610  171.4520  135.0970 N   0  0  0  0  0  2  0  0  0  0  0  0
  196.3070  175.3100  137.1720 C   0  0  0  0  0  2  0  0  0  0  0  0
  194.7720  170.9980  137.0610 O   0  0  0  0  0  0  0  0  0  0  0  0
  197.0320  174.7720  136.1080 O   0  0  0  0  0  0  0  0  0  0  0  0
  197.2140  173.8940  139.0080 C   0  0  0  0  0  2  0  0  0  0  0  0
  194.6420  171.3780  135.7210 C   0  0  2  0  0  3  0  0  0  0  0  0
  193.4820  171.2780  139.7310 C   0  0  0  0  0  2  0  0  0  0  0  0
  194.6590  172.1870  137.7880 C   0  0  0  0  0  2  0  0  0  0  0  0
  197.1570  175.2950  138.4250 C   0  0  0  0  0  2  0  0  0  0  0  0
  196.7400  172.6430  135.0860 C   0  0  0  0  0  0  0  0  0  0  0  0
  194.5600  171.8980  139.2510 C   0  0  0  0  0  0  0  0  0  0  0  0
  195.6830  172.2360  140.1880 C   0  0  1  0  0  3  0  0  0  0  0  0
  193.7430  170.3840  134.9850 C   0  0  0  0  0  3  0  0  0  0  0  0
  192.5760  169.9240  135.8460 C   0  0  0  0  0  1  0  0  0  0  0  0
  194.5430  169.1860  134.5130 C   0  0  0  0  0  1  0  0  0  0  0  0
  197.3930  171.0030  141.5180 C   0  0  0  0  0  1  0  0  0  0  0  0
  196.8200  171.2180  140.1320 C   0  0  0  0  0  2  0  0  0  0  0  0
  192.3780  175.7340  143.6120 O   0  0  0  0  0  0  0  0  0  0  0  0
  192.7490  175.8210  144.7740 C   0  0  0  0  0  0  0  0  0  0  0  0
  191.8340  176.3960  145.8370 C   0  0  0  0  0  2  0  0  0  0  0  0
  190.3610  175.9760  145.7440 C   0  0  1  0  0  3  0  0  0  0  0  0
  189.8690  175.4970  147.1020 C   0  0  0  0  0  1  0  0  0  0  0  0
  189.4700  177.0920  145.1650 C   0  0  1  0  0  3  0  0  0  0  0  0
  190.2440  178.1150  144.6150 O   0  0  0  0  0  1  0  0  0  0  0  0
  188.3950  176.6520  144.1540 C   0  0  2  0  0  3  0  0  0  0  0  0
  189.8610  174.7010  141.2480 C   0  0  0  0  0  3  0  0  0  0  0  0
  189.8170  173.3900  141.7310 C   0  0  0  0  0  0  0  0  0  0  0  0
  189.3220  173.1340  143.0140 C   0  0  0  0  0  3  0  0  0  0  0  0
  190.2590  172.3420  140.9360 O   0  0  0  0  0  1  0  0  0  0  0  0
  188.9290  175.5080  143.3400 C   0  0  0  0  0  0  0  0  0  0  0  0
  188.8740  174.1890  143.8140 C   0  0  0  0  0  3  0  0  0  0  0  0
  189.4120  175.7570  142.0480 C   0  0  0  0  0  3  0  0  0  0  0  0
  186.8010  178.5120  143.7860 C   0  0  2  0  0  3  0  0  0  0  0  0
  186.3180  177.3040  142.6010 S   0  0  0  0  0  0  0  0  0  0  0  0
  186.3290  177.6100  141.1310 O   0  0  0  0  0  0  0  0  0  0  0  0
  185.9540  175.8900  142.9690 O   0  0  0  0  0  0  0  0  0  0  0  0
  187.9160  177.7520  143.2930 N   0  0  0  0  0  0  0  0  0  0  0  0
  186.3660  178.2430  145.2150 C   0  0  0  0  0  0  0  0  0  0  0  0
  186.7720  179.0270  146.3070 C   0  0  0  0  0  3  0  0  0  0  0  0
  186.3490  178.7120  147.6010 C   0  0  0  0  0  3  0  0  0  0  0  0
  185.5610  177.1250  145.4460 C   0  0  0  0  0  3  0  0  0  0  0  0
  185.1400  176.8070  146.7390 C   0  0  0  0  0  3  0  0  0  0  0  0
  185.5300  177.6030  147.8170 C   0  0  0  0  0  3  0  0  0  0  0  0
  194.3770  173.9020  145.6350 C   0  0  0  0  0  2  0  0  0  0  0  0
  194.2670  172.8610  144.5620 C   0  0  0  0  0  0  0  0  0  0  0  0
  195.2560  172.4990  143.9460 O   0  0  0  0  0  0  0  0  0  0  0  0
  192.9530  172.2090  144.2820 C   0  0  0  0  0  2  0  0  0  0  0  0
  192.7750  172.0530  142.9090 O   0  0  0  0  0  1  0  0  0  0  0  0
  1 56  1  1  0  0  0
  1  2  1  0  0  0  0
  4  1  1  0  0  0  0
  4  2  1  0  0  0  0
  5  3  2  0  0  0  0
  5  4  1  0  0  0  0
  6  5  1  0  0  0  0
  7  6  2  0  0  0  0
  9  8  1  6  0  0  0
  9  6  1  0  0  0  0
 10 24  1  0  0  0  0
 10  9  1  1  0  0  0
 11 22  2  0  0  0  0
 12 16  1  0  0  0  0
 13 18  1  0  0  0  0
 14 21  1  0  0  0  0
 15 20  1  0  0  0  0
 16 14  1  0  0  0  0
 17 10  1  0  0  0  0
 18 25  1  6  0  0  0
 18 15  1  0  0  0  0
 20 23  1  0  0  0  0
 21 17  1  0  0  0  0
 22 13  1  0  0  0  0
 22 12  1  0  0  0  0
 23 19  2  0  0  0  0
 23 24  1  0  0  0  0
 24 29  1  6  0  0  0
 25 26  1  0  0  0  0
 27 25  1  0  0  0  0
 29 28  1  0  0  0  0
 30 31  2  0  0  0  0
 31  1  1  0  0  0  0
 31 32  1  0  0  0  0
 33 32  1  0  0  0  0
 33 34  1  1  0  0  0
 35 36  1  6  0  0  0
 35 33  1  0  0  0  0
 37 35  1  1  0  0  0
 38 39  2  0  0  0  0
 38 44  1  0  0  0  0
 39 40  1  0  0  0  0
 40 43  2  0  0  0  0
 41 39  1  0  0  0  0
 42 43  1  0  0  0  0
 42 37  1  0  0  0  0
 44 42  2  0  0  0  0
 45 50  1  1  0  0  0
 46 48  2  0  0  0  0
 46 49  1  0  0  0  0
 46 45  1  0  0  0  0
 47 46  2  0  0  0  0
 49 45  1  0  0  0  0
 49 37  1  0  0  0  0
 50 53  2  0  0  0  0
 50 51  1  0  0  0  0
 51 52  2  0  0  0  0
 52 55  1  0  0  0  0
 53 54  1  0  0  0  0
 54 55  2  0  0  0  0
 57 56  1  0  0  0  0
 58 57  2  0  0  0  0
 59 57  1  0  0  0  0
 60 59  1  0  0  0  0
M  END
>  <MODEL>
9

>  <REMARK>
 VINA RESULT:      -6.6      3.325     10.034
  Name = 
  16 active torsions:
  status: ('A' for Active; 'I' for Inactive)
    1  A    between atoms: C_1  and  C_31
    2  A    between atoms: C_1  and  C_38
    3  A    between atoms: C_2  and  C_21
    4  A    between atoms: C_3  and  C_48
    5  A    between atoms: C_7  and  C_24
    6  A    between atoms: C_8  and  C_45
    7  A    between atoms: C_8  and  C_48
    8  A    between atoms: C_15  and  C_26
    9  A    between atoms: C_15  and  C_43
   10  A    between atoms: C_17  and  C_31
   11  A    between atoms: C_17  and  C_43
   12  A    between atoms: C_18  and  C_38
   13  A    between atoms: C_24  and  C_26
   14  A    between atoms: C_29  and  C_32
   15  A    between atoms: C_38  and  N_59
   16  A    between atoms: C_52  and  C_58
                            x       y       z     vdW  Elec       q    Type
                         _______ _______ _______ _____ _____    ______ ____

>  <TORSDO>
F 16

$$$$
