=
 OpenBabel11062421133D

 33 34  0  0  1  0  0  0  0  0999 V2000
  187.7720  173.4340  142.2230 C   0  0  0  0  0  2  0  0  0  0  0  0
  188.9390  172.4890  142.3800 C   0  0  0  0  0  0  0  0  0  0  0  0
  189.7230  172.2620  141.3660 N   0  0  0  0  0  0  0  0  0  0  0  0
  189.5250  172.9190  140.0710 C   0  0  0  0  0  2  0  0  0  0  0  0
  188.1260  174.5470  141.2700 C   0  0  0  0  0  0  0  0  0  0  0  0
  188.9720  174.3030  140.2610 C   0  0  0  0  0  3  0  0  0  0  0  0
  187.9100  176.8320  140.7050 O   0  0  0  0  0  0  0  0  0  0  0  0
  186.5800  176.1130  142.4910 N   0  0  0  0  0  2  0  0  0  0  0  0
  186.2670  178.4110  142.1490 O   0  0  0  0  0  0  0  0  0  0  0  0
  185.9360  177.3620  142.7620 C   0  0  0  0  0  0  0  0  0  0  0  0
  187.5550  175.8900  141.4630 C   0  0  0  0  0  0  0  0  0  0  0  0
  184.8230  177.4090  143.7510 C   0  0  0  0  0  2  0  0  0  0  0  0
  186.4120  178.4100  147.6070 C   0  0  0  0  0  0  0  0  0  0  0  0
  186.4360  177.0840  147.1640 C   0  0  0  0  0  3  0  0  0  0  0  0
  185.9070  176.7560  145.9120 C   0  0  0  0  0  3  0  0  0  0  0  0
  185.3500  177.7520  145.1030 C   0  0  0  0  0  0  0  0  0  0  0  0
  185.3310  179.0810  145.5470 C   0  0  0  0  0  3  0  0  0  0  0  0
  185.8590  179.4090  146.7990 C   0  0  0  0  0  3  0  0  0  0  0  0
  186.9240  178.7280  148.8200 F   0  0  0  0  0  0  0  0  0  0  0  0
  189.1230  171.7430  143.5900 N   0  0  0  0  0  0  0  0  0  0  0  0
  189.6620  172.1830  144.6640 N   0  0  0  0  0  0  0  0  0  0  0  0
  189.7000  174.5100  145.2910 C   0  0  0  0  0  3  0  0  0  0  0  0
  190.3460  173.4400  144.8210 C   0  0  0  0  0  0  0  0  0  0  0  0
  192.6300  172.5390  144.6310 C   0  0  0  0  0  1  0  0  0  0  0  0
  191.6750  173.5650  144.4070 O   0  0  0  0  0  0  0  0  0  0  0  0
  190.3470  175.8530  145.4320 C   0  0  2  0  0  3  0  0  0  0  0  0
  192.0690  176.2350  147.0370 C   0  0  0  0  0  1  0  0  0  0  0  0
  190.6320  176.1310  146.8500 N   0  0  0  0  0  0  0  0  0  0  0  0
  190.0310  177.3870  147.2880 C   0  0  0  0  0  1  0  0  0  0  0  0
  189.5020  176.9320  144.7350 C   0  0  0  0  0  2  0  0  0  0  0  0
  189.7260  178.3900  142.8950 O   0  0  0  0  0  0  0  0  0  0  0  0
  191.3520  176.6950  142.9500 C   0  0  0  0  0  1  0  0  0  0  0  0
  190.1560  177.4070  143.4780 C   0  0  0  0  0  0  0  0  0  0  0  0
  1  2  1  0  0  0  0
  2 20  1  0  0  0  0
  3  2  2  0  0  0  0
  4  6  1  0  0  0  0
  4  3  1  0  0  0  0
  5 11  1  0  0  0  0
  5  1  1  0  0  0  0
  6  5  2  0  0  0  0
  7 11  2  0  0  0  0
  8 10  1  0  0  0  0
  9 10  2  0  0  0  0
 10 12  1  0  0  0  0
 11  8  1  0  0  0  0
 12 16  1  0  0  0  0
 13 19  1  0  0  0  0
 14 13  1  0  0  0  0
 15 14  2  0  0  0  0
 16 17  2  0  0  0  0
 16 15  1  0  0  0  0
 17 18  1  0  0  0  0
 18 13  2  0  0  0  0
 20 21  2  0  0  0  0
 21 23  1  0  0  0  0
 22 26  1  0  0  0  0
 23 22  2  0  0  0  0
 25 24  1  0  0  0  0
 25 23  1  0  0  0  0
 26 30  1  1  0  0  0
 26 28  1  0  0  0  0
 28 27  1  0  0  0  0
 28 29  1  0  0  0  0
 31 33  2  0  0  0  0
 32 33  1  0  0  0  0
 33 30  1  0  0  0  0
M  END
>  <MODEL>
1

>  <REMARK>
 VINA RESULT:      -6.6      0.000      0.000
  Name = 
  10 active torsions:
  status: ('A' for Active; 'I' for Inactive)
    1  A    between atoms: C_6  and  C_8
    2  A    between atoms: C_6  and  C_13
    3  A    between atoms: C_6  and  N_17
    4  A    between atoms: N_7  and  C_19
    5  A    between atoms: C_8  and  C_18
    6  A    between atoms: C_11  and  C_21
    7  A    between atoms: C_20  and  C_21
    8  A    between atoms: C_23  and  C_28
    9  A    between atoms: C_25  and  N_26
   10  A    between atoms: C_25  and  O_29
                            x       y       z     vdW  Elec       q    Type
                         _______ _______ _______ _____ _____    ______ ____

>  <TORSDO>
F 10

$$$$
=
 OpenBabel11062421133D

 33 34  0  0  1  0  0  0  0  0999 V2000
  192.8150  176.7900  144.9790 C   0  0  0  0  0  2  0  0  0  0  0  0
  193.3040  175.6050  145.7750 C   0  0  0  0  0  0  0  0  0  0  0  0
  192.6830  175.2620  146.8670 N   0  0  0  0  0  0  0  0  0  0  0  0
  191.4960  175.9800  147.3400 C   0  0  0  0  0  2  0  0  0  0  0  0
  191.3130  176.8930  145.0640 C   0  0  0  0  0  0  0  0  0  0  0  0
  190.6900  176.4900  146.1790 C   0  0  0  0  0  3  0  0  0  0  0  0
  191.1490  177.9940  142.9790 O   0  0  0  0  0  0  0  0  0  0  0  0
  189.1230  177.2390  143.8740 N   0  0  0  0  0  2  0  0  0  0  0  0
  188.7260  178.3580  141.8530 O   0  0  0  0  0  0  0  0  0  0  0  0
  188.2720  177.6780  142.8110 C   0  0  0  0  0  0  0  0  0  0  0  0
  190.5460  177.4150  143.9220 C   0  0  0  0  0  0  0  0  0  0  0  0
  186.8360  177.2810  142.8150 C   0  0  0  0  0  2  0  0  0  0  0  0
  185.1090  178.2860  146.6090 C   0  0  0  0  0  0  0  0  0  0  0  0
  185.3230  176.9460  146.2720 C   0  0  0  0  0  3  0  0  0  0  0  0
  185.8760  176.6180  145.0300 C   0  0  0  0  0  3  0  0  0  0  0  0
  186.2100  177.6290  144.1220 C   0  0  0  0  0  0  0  0  0  0  0  0
  185.9980  178.9700  144.4650 C   0  0  0  0  0  3  0  0  0  0  0  0
  185.4460  179.2980  145.7060 C   0  0  0  0  0  3  0  0  0  0  0  0
  184.5740  178.6030  147.8130 F   0  0  0  0  0  0  0  0  0  0  0  0
  194.5160  174.9280  145.4160 N   0  0  0  0  0  0  0  0  0  0  0  0
  194.6160  173.9760  144.5660 N   0  0  0  0  0  0  0  0  0  0  0  0
  192.8950  173.8110  142.8860 C   0  0  0  0  0  3  0  0  0  0  0  0
  193.5250  173.2780  143.9360 C   0  0  0  0  0  0  0  0  0  0  0  0
  193.9560  171.1280  145.0550 C   0  0  0  0  0  1  0  0  0  0  0  0
  193.0700  172.0710  144.4720 O   0  0  0  0  0  0  0  0  0  0  0  0
  191.7260  173.1530  142.2200 C   0  0  2  0  0  3  0  0  0  0  0  0
  192.3800  171.8310  140.3460 C   0  0  0  0  0  1  0  0  0  0  0  0
  191.9160  173.1440  140.7590 N   0  0  0  0  0  0  0  0  0  0  0  0
  190.6710  173.4230  140.0480 C   0  0  0  0  0  1  0  0  0  0  0  0
  190.4110  173.8010  142.6810 C   0  0  0  0  0  2  0  0  0  0  0  0
  189.0010  171.9990  143.2510 O   0  0  0  0  0  0  0  0  0  0  0  0
  189.8210  173.1720  145.1140 C   0  0  0  0  0  1  0  0  0  0  0  0
  189.6860  172.9270  143.6520 C   0  0  0  0  0  0  0  0  0  0  0  0
  1  5  1  0  0  0  0
  1  2  1  0  0  0  0
  2  3  2  0  0  0  0
  3  4  1  0  0  0  0
  5  6  2  0  0  0  0
  6  4  1  0  0  0  0
  7 11  2  0  0  0  0
  8 11  1  0  0  0  0
  9 10  2  0  0  0  0
 10 12  1  0  0  0  0
 10  8  1  0  0  0  0
 11  5  1  0  0  0  0
 12 16  1  0  0  0  0
 13 19  1  0  0  0  0
 14 13  1  0  0  0  0
 15 14  2  0  0  0  0
 16 17  2  0  0  0  0
 16 15  1  0  0  0  0
 17 18  1  0  0  0  0
 18 13  2  0  0  0  0
 20  2  1  0  0  0  0
 21 20  2  0  0  0  0
 22 23  2  0  0  0  0
 23 25  1  0  0  0  0
 23 21  1  0  0  0  0
 25 24  1  0  0  0  0
 26 30  1  6  0  0  0
 26 22  1  0  0  0  0
 27 28  1  0  0  0  0
 28 26  1  0  0  0  0
 29 28  1  0  0  0  0
 30 33  1  0  0  0  0
 31 33  2  0  0  0  0
 33 32  1  0  0  0  0
M  END
>  <MODEL>
2

>  <REMARK>
 VINA RESULT:      -6.1      2.131      4.770
  Name = 
  10 active torsions:
  status: ('A' for Active; 'I' for Inactive)
    1  A    between atoms: C_6  and  C_8
    2  A    between atoms: C_6  and  C_13
    3  A    between atoms: C_6  and  N_17
    4  A    between atoms: N_7  and  C_19
    5  A    between atoms: C_8  and  C_18
    6  A    between atoms: C_11  and  C_21
    7  A    between atoms: C_20  and  C_21
    8  A    between atoms: C_23  and  C_28
    9  A    between atoms: C_25  and  N_26
   10  A    between atoms: C_25  and  O_29
                            x       y       z     vdW  Elec       q    Type
                         _______ _______ _______ _____ _____    ______ ____

>  <TORSDO>
F 10

$$$$
=
 OpenBabel11062421133D

 33 34  0  0  1  0  0  0  0  0999 V2000
  188.2190  173.1070  142.0850 C   0  0  0  0  0  2  0  0  0  0  0  0
  189.3280  172.2260  142.6100 C   0  0  0  0  0  0  0  0  0  0  0  0
  190.2720  171.8320  141.8040 N   0  0  0  0  0  0  0  0  0  0  0  0
  190.3100  172.2400  140.3970 C   0  0  0  0  0  2  0  0  0  0  0  0
  188.7490  174.0350  141.0210 C   0  0  0  0  0  0  0  0  0  0  0  0
  189.7520  173.6260  140.2340 C   0  0  0  0  0  3  0  0  0  0  0  0
  187.4740  175.6460  139.8520 O   0  0  0  0  0  0  0  0  0  0  0  0
  188.3860  176.3720  141.8810 N   0  0  0  0  0  2  0  0  0  0  0  0
  187.2300  178.1370  140.8580 O   0  0  0  0  0  0  0  0  0  0  0  0
  187.8620  177.7030  141.8580 C   0  0  0  0  0  0  0  0  0  0  0  0
  188.1730  175.3800  140.8660 C   0  0  0  0  0  0  0  0  0  0  0  0
  188.0250  178.5720  143.0570 C   0  0  0  0  0  2  0  0  0  0  0  0
  184.8140  177.8060  145.7950 C   0  0  0  0  0  0  0  0  0  0  0  0
  184.6390  178.7210  144.7510 C   0  0  0  0  0  3  0  0  0  0  0  0
  185.6910  178.9790  143.8660 C   0  0  0  0  0  3  0  0  0  0  0  0
  186.9180  178.3270  144.0250 C   0  0  0  0  0  0  0  0  0  0  0  0
  187.0880  177.4080  145.0680 C   0  0  0  0  0  3  0  0  0  0  0  0
  186.0380  177.1500  145.9530 C   0  0  0  0  0  3  0  0  0  0  0  0
  183.7960  177.5550  146.6520 F   0  0  0  0  0  0  0  0  0  0  0  0
  189.2890  171.7150  143.9480 N   0  0  0  0  0  0  0  0  0  0  0  0
  189.8850  172.2250  144.9600 N   0  0  0  0  0  0  0  0  0  0  0  0
  190.5710  174.4720  145.5000 C   0  0  0  0  0  3  0  0  0  0  0  0
  190.8480  173.2950  144.9310 C   0  0  0  0  0  0  0  0  0  0  0  0
  193.0220  172.1780  144.6360 C   0  0  0  0  0  1  0  0  0  0  0  0
  192.0500  173.1320  144.2370 O   0  0  0  0  0  0  0  0  0  0  0  0
  191.5140  175.6340  145.4620 C   0  0  2  0  0  3  0  0  0  0  0  0
  193.4880  176.4110  146.5530 C   0  0  0  0  0  1  0  0  0  0  0  0
  192.1980  175.7740  146.7590 N   0  0  0  0  0  0  0  0  0  0  0  0
  191.4340  176.6000  147.6900 C   0  0  0  0  0  1  0  0  0  0  0  0
  190.7830  176.9030  144.9940 C   0  0  0  0  0  2  0  0  0  0  0  0
  191.3950  178.6650  143.5530 O   0  0  0  0  0  0  0  0  0  0  0  0
  192.0530  176.5480  142.7750 C   0  0  0  0  0  1  0  0  0  0  0  0
  191.4020  177.4610  143.7540 C   0  0  0  0  0  0  0  0  0  0  0  0
  1  2  1  0  0  0  0
  2 20  1  0  0  0  0
  3  2  2  0  0  0  0
  4  3  1  0  0  0  0
  5  1  1  0  0  0  0
  6  4  1  0  0  0  0
  6  5  2  0  0  0  0
  7 11  2  0  0  0  0
  9 10  2  0  0  0  0
 10  8  1  0  0  0  0
 10 12  1  0  0  0  0
 11  5  1  0  0  0  0
 11  8  1  0  0  0  0
 12 16  1  0  0  0  0
 13 18  1  0  0  0  0
 13 19  1  0  0  0  0
 14 13  2  0  0  0  0
 15 16  2  0  0  0  0
 15 14  1  0  0  0  0
 16 17  1  0  0  0  0
 17 18  2  0  0  0  0
 20 21  2  0  0  0  0
 23 21  1  0  0  0  0
 23 22  2  0  0  0  0
 25 24  1  0  0  0  0
 25 23  1  0  0  0  0
 26 30  1  1  0  0  0
 26 22  1  0  0  0  0
 26 28  1  0  0  0  0
 27 28  1  0  0  0  0
 28 29  1  0  0  0  0
 31 33  2  0  0  0  0
 32 33  1  0  0  0  0
 33 30  1  0  0  0  0
M  END
>  <MODEL>
3

>  <REMARK>
 VINA RESULT:      -6.1      1.405      1.807
  Name = 
  10 active torsions:
  status: ('A' for Active; 'I' for Inactive)
    1  A    between atoms: C_6  and  C_8
    2  A    between atoms: C_6  and  C_13
    3  A    between atoms: C_6  and  N_17
    4  A    between atoms: N_7  and  C_19
    5  A    between atoms: C_8  and  C_18
    6  A    between atoms: C_11  and  C_21
    7  A    between atoms: C_20  and  C_21
    8  A    between atoms: C_23  and  C_28
    9  A    between atoms: C_25  and  N_26
   10  A    between atoms: C_25  and  O_29
                            x       y       z     vdW  Elec       q    Type
                         _______ _______ _______ _____ _____    ______ ____

>  <TORSDO>
F 10

$$$$
=
 OpenBabel11062421133D

 33 34  0  0  1  0  0  0  0  0999 V2000
  195.2980  176.7160  144.5110 C   0  0  0  0  0  2  0  0  0  0  0  0
  195.7810  175.8580  143.3670 C   0  0  0  0  0  0  0  0  0  0  0  0
  196.4100  174.7460  143.6190 N   0  0  0  0  0  0  0  0  0  0  0  0
  196.6440  174.2810  144.9890 C   0  0  0  0  0  2  0  0  0  0  0  0
  194.8800  175.8510  145.6730 C   0  0  0  0  0  0  0  0  0  0  0  0
  195.5090  174.6890  145.8850 C   0  0  0  0  0  3  0  0  0  0  0  0
  193.9250  177.2970  147.2810 O   0  0  0  0  0  0  0  0  0  0  0  0
  192.5390  175.5590  146.5490 N   0  0  0  0  0  2  0  0  0  0  0  0
  191.4280  176.8210  148.1840 O   0  0  0  0  0  0  0  0  0  0  0  0
  191.3900  175.8900  147.3360 C   0  0  0  0  0  0  0  0  0  0  0  0
  193.7790  176.2810  146.5510 C   0  0  0  0  0  0  0  0  0  0  0  0
  190.1150  175.1530  147.1110 C   0  0  0  0  0  2  0  0  0  0  0  0
  187.2830  177.7510  145.2070 C   0  0  0  0  0  0  0  0  0  0  0  0
  186.8850  176.9530  146.2840 C   0  0  0  0  0  3  0  0  0  0  0  0
  187.8050  176.0970  146.8980 C   0  0  0  0  0  3  0  0  0  0  0  0
  189.1240  176.0350  146.4320 C   0  0  0  0  0  0  0  0  0  0  0  0
  189.5210  176.8400  145.3570 C   0  0  0  0  0  3  0  0  0  0  0  0
  188.6010  177.6950  144.7440 C   0  0  0  0  0  3  0  0  0  0  0  0
  186.3910  178.5800  144.6140 F   0  0  0  0  0  0  0  0  0  0  0  0
  195.6690  176.3090  142.0110 N   0  0  0  0  0  0  0  0  0  0  0  0
  194.7880  175.9250  141.1670 N   0  0  0  0  0  0  0  0  0  0  0  0
  192.6280  175.0810  141.8260 C   0  0  0  0  0  3  0  0  0  0  0  0
  193.8510  174.8460  141.3440 C   0  0  0  0  0  0  0  0  0  0  0  0
  194.4930  173.0700  139.7630 C   0  0  0  0  0  1  0  0  0  0  0  0
  194.2470  173.5310  141.0830 O   0  0  0  0  0  0  0  0  0  0  0  0
  191.6290  173.9930  142.0740 C   0  0  2  0  0  3  0  0  0  0  0  0
  190.6610  172.4710  140.5150 C   0  0  0  0  0  1  0  0  0  0  0  0
  190.7240  173.8650  140.9200 N   0  0  0  0  0  0  0  0  0  0  0  0
  189.3680  174.3000  141.2420 C   0  0  0  0  0  1  0  0  0  0  0  0
  190.9130  174.2180  143.4160 C   0  0  0  0  0  2  0  0  0  0  0  0
  192.1240  172.6510  144.6970 O   0  0  0  0  0  0  0  0  0  0  0  0
  189.8030  172.2900  144.7250 C   0  0  0  0  0  1  0  0  0  0  0  0
  191.0290  173.0200  144.3010 C   0  0  0  0  0  0  0  0  0  0  0  0
  1  5  1  0  0  0  0
  2  3  2  0  0  0  0
  2  1  1  0  0  0  0
  3  4  1  0  0  0  0
  4  6  1  0  0  0  0
  5  6  2  0  0  0  0
  5 11  1  0  0  0  0
  8 11  1  0  0  0  0
  8 10  1  0  0  0  0
 10  9  2  0  0  0  0
 11  7  2  0  0  0  0
 12 10  1  0  0  0  0
 13 14  1  0  0  0  0
 14 15  2  0  0  0  0
 16 15  1  0  0  0  0
 16 12  1  0  0  0  0
 17 16  2  0  0  0  0
 18 13  2  0  0  0  0
 18 17  1  0  0  0  0
 19 13  1  0  0  0  0
 20  2  1  0  0  0  0
 21 23  1  0  0  0  0
 21 20  2  0  0  0  0
 23 22  2  0  0  0  0
 24 25  1  0  0  0  0
 25 23  1  0  0  0  0
 26 22  1  6  0  0  0
 26 30  1  0  0  0  0
 27 28  1  0  0  0  0
 28 29  1  0  0  0  0
 28 26  1  0  0  0  0
 30 33  1  0  0  0  0
 33 31  2  0  0  0  0
 33 32  1  0  0  0  0
M  END
>  <MODEL>
4

>  <REMARK>
 VINA RESULT:      -6.0      3.435      6.334
  Name = 
  10 active torsions:
  status: ('A' for Active; 'I' for Inactive)
    1  A    between atoms: C_6  and  C_8
    2  A    between atoms: C_6  and  C_13
    3  A    between atoms: C_6  and  N_17
    4  A    between atoms: N_7  and  C_19
    5  A    between atoms: C_8  and  C_18
    6  A    between atoms: C_11  and  C_21
    7  A    between atoms: C_20  and  C_21
    8  A    between atoms: C_23  and  C_28
    9  A    between atoms: C_25  and  N_26
   10  A    between atoms: C_25  and  O_29
                            x       y       z     vdW  Elec       q    Type
                         _______ _______ _______ _____ _____    ______ ____

>  <TORSDO>
F 10

$$$$
=
 OpenBabel11062421133D

 33 34  0  0  1  0  0  0  0  0999 V2000
  190.2970  172.4780  142.6840 C   0  0  0  0  0  2  0  0  0  0  0  0
  191.7980  172.4440  142.8440 C   0  0  0  0  0  0  0  0  0  0  0  0
  192.5590  172.8190  141.8570 N   0  0  0  0  0  0  0  0  0  0  0  0
  192.0020  173.3030  140.5900 C   0  0  0  0  0  2  0  0  0  0  0  0
  189.8910  173.6360  141.8070 C   0  0  0  0  0  0  0  0  0  0  0  0
  190.7110  174.0350  140.8270 C   0  0  0  0  0  3  0  0  0  0  0  0
  187.5320  173.6860  141.9380 O   0  0  0  0  0  0  0  0  0  0  0  0
  188.6050  175.7090  142.4230 N   0  0  0  0  0  2  0  0  0  0  0  0
  186.2810  175.9990  142.5400 O   0  0  0  0  0  0  0  0  0  0  0  0
  187.4330  176.4810  142.7040 C   0  0  0  0  0  0  0  0  0  0  0  0
  188.6130  174.3250  142.0450 C   0  0  0  0  0  0  0  0  0  0  0  0
  187.5810  177.8610  143.2450 C   0  0  0  0  0  2  0  0  0  0  0  0
  185.1870  178.4110  146.7610 C   0  0  0  0  0  0  0  0  0  0  0  0
  186.2380  177.4880  146.7680 C   0  0  0  0  0  3  0  0  0  0  0  0
  187.0110  177.3010  145.6180 C   0  0  0  0  0  3  0  0  0  0  0  0
  186.7320  178.0320  144.4580 C   0  0  0  0  0  0  0  0  0  0  0  0
  185.6820  178.9590  144.4550 C   0  0  0  0  0  3  0  0  0  0  0  0
  184.9090  179.1460  145.6040 C   0  0  0  0  0  3  0  0  0  0  0  0
  184.4380  178.5930  147.8750 F   0  0  0  0  0  0  0  0  0  0  0  0
  192.3990  171.8880  144.0210 N   0  0  0  0  0  0  0  0  0  0  0  0
  192.7500  172.5450  145.0620 N   0  0  0  0  0  0  0  0  0  0  0  0
  191.7470  174.6290  145.7410 C   0  0  0  0  0  3  0  0  0  0  0  0
  192.7790  173.9780  145.1960 C   0  0  0  0  0  0  0  0  0  0  0  0
  195.1890  174.4740  145.1180 C   0  0  0  0  0  1  0  0  0  0  0  0
  193.8580  174.7030  144.6830 O   0  0  0  0  0  0  0  0  0  0  0  0
  191.7020  176.1210  145.8640 C   0  0  2  0  0  3  0  0  0  0  0  0
  190.2880  177.3340  147.3520 C   0  0  0  0  0  1  0  0  0  0  0  0
  191.4790  176.5060  147.2680 N   0  0  0  0  0  0  0  0  0  0  0  0
  191.2780  175.3420  148.1250 C   0  0  0  0  0  1  0  0  0  0  0  0
  190.6810  176.7110  144.8770 C   0  0  0  0  0  2  0  0  0  0  0  0
  191.2670  178.7350  143.8210 O   0  0  0  0  0  0  0  0  0  0  0  0
  192.1550  176.8350  142.7620 C   0  0  0  0  0  1  0  0  0  0  0  0
  191.3540  177.5170  143.8150 C   0  0  0  0  0  0  0  0  0  0  0  0
  1  2  1  0  0  0  0
  2 20  1  0  0  0  0
  3  2  2  0  0  0  0
  4  6  1  0  0  0  0
  4  3  1  0  0  0  0
  5 11  1  0  0  0  0
  5  1  1  0  0  0  0
  6  5  2  0  0  0  0
  7 11  2  0  0  0  0
  8 10  1  0  0  0  0
  9 10  2  0  0  0  0
 10 12  1  0  0  0  0
 11  8  1  0  0  0  0
 12 16  1  0  0  0  0
 13 14  1  0  0  0  0
 13 19  1  0  0  0  0
 15 14  2  0  0  0  0
 16 15  1  0  0  0  0
 17 16  2  0  0  0  0
 17 18  1  0  0  0  0
 18 13  2  0  0  0  0
 20 21  2  0  0  0  0
 21 23  1  0  0  0  0
 22 26  1  0  0  0  0
 23 22  2  0  0  0  0
 25 24  1  0  0  0  0
 25 23  1  0  0  0  0
 26 30  1  6  0  0  0
 26 28  1  0  0  0  0
 28 27  1  0  0  0  0
 28 29  1  0  0  0  0
 32 33  1  0  0  0  0
 33 31  2  0  0  0  0
 33 30  1  0  0  0  0
M  END
>  <MODEL>
5

>  <REMARK>
 VINA RESULT:      -6.0      1.917      2.217
  Name = 
  10 active torsions:
  status: ('A' for Active; 'I' for Inactive)
    1  A    between atoms: C_6  and  C_8
    2  A    between atoms: C_6  and  C_13
    3  A    between atoms: C_6  and  N_17
    4  A    between atoms: N_7  and  C_19
    5  A    between atoms: C_8  and  C_18
    6  A    between atoms: C_11  and  C_21
    7  A    between atoms: C_20  and  C_21
    8  A    between atoms: C_23  and  C_28
    9  A    between atoms: C_25  and  N_26
   10  A    between atoms: C_25  and  O_29
                            x       y       z     vdW  Elec       q    Type
                         _______ _______ _______ _____ _____    ______ ____

>  <TORSDO>
F 10

$$$$
=
 OpenBabel11062421133D

 33 34  0  0  1  0  0  0  0  0999 V2000
  188.2740  173.0310  142.1170 C   0  0  0  0  0  2  0  0  0  0  0  0
  189.3860  172.0690  142.4570 C   0  0  0  0  0  0  0  0  0  0  0  0
  190.1640  171.6250  141.5130 N   0  0  0  0  0  0  0  0  0  0  0  0
  190.0110  172.0520  140.1190 C   0  0  0  0  0  2  0  0  0  0  0  0
  188.6940  173.9380  140.9890 C   0  0  0  0  0  0  0  0  0  0  0  0
  189.5330  173.4750  140.0530 C   0  0  0  0  0  3  0  0  0  0  0  0
  187.5240  175.7020  139.9370 O   0  0  0  0  0  0  0  0  0  0  0  0
  188.4550  176.2200  142.0210 N   0  0  0  0  0  2  0  0  0  0  0  0
  187.4090  178.1200  141.1280 O   0  0  0  0  0  0  0  0  0  0  0  0
  188.0060  177.5770  142.0960 C   0  0  0  0  0  0  0  0  0  0  0  0
  188.1970  175.3220  140.9330 C   0  0  0  0  0  0  0  0  0  0  0  0
  188.2060  178.3430  143.3580 C   0  0  0  0  0  2  0  0  0  0  0  0
  184.7780  178.0430  145.9180 C   0  0  0  0  0  0  0  0  0  0  0  0
  185.8570  177.1700  146.0900 C   0  0  0  0  0  3  0  0  0  0  0  0
  186.9700  177.2600  145.2470 C   0  0  0  0  0  3  0  0  0  0  0  0
  187.0030  178.2200  144.2300 C   0  0  0  0  0  0  0  0  0  0  0  0
  185.9230  179.0970  144.0640 C   0  0  0  0  0  3  0  0  0  0  0  0
  184.8110  179.0060  144.9050 C   0  0  0  0  0  3  0  0  0  0  0  0
  183.7010  177.9550  146.7350 F   0  0  0  0  0  0  0  0  0  0  0  0
  189.5200  171.5400  143.7830 N   0  0  0  0  0  0  0  0  0  0  0  0
  189.8590  172.2060  144.8220 N   0  0  0  0  0  0  0  0  0  0  0  0
  191.5940  173.8430  144.4730 C   0  0  0  0  0  3  0  0  0  0  0  0
  190.3420  173.5630  144.8440 C   0  0  0  0  0  0  0  0  0  0  0  0
  189.3110  174.7800  146.7200 C   0  0  0  0  0  1  0  0  0  0  0  0
  189.5230  174.5850  145.3300 O   0  0  0  0  0  0  0  0  0  0  0  0
  192.1650  175.2270  144.5190 C   0  0  2  0  0  3  0  0  0  0  0  0
  191.8470  177.1680  143.1700 C   0  0  0  0  0  1  0  0  0  0  0  0
  192.2680  175.7780  143.1560 N   0  0  0  0  0  0  0  0  0  0  0  0
  193.6380  175.7280  142.6530 C   0  0  0  0  0  1  0  0  0  0  0  0
  193.4860  175.2370  145.3050 C   0  0  0  0  0  2  0  0  0  0  0  0
  192.7190  176.3740  147.2230 O   0  0  0  0  0  0  0  0  0  0  0  0
  194.5450  177.4220  146.1810 C   0  0  0  0  0  1  0  0  0  0  0  0
  193.5180  176.3510  146.3000 C   0  0  0  0  0  0  0  0  0  0  0  0
  1  2  1  0  0  0  0
  2 20  1  0  0  0  0
  3  2  2  0  0  0  0
  4  3  1  0  0  0  0
  5  1  1  0  0  0  0
  6  4  1  0  0  0  0
  6  5  2  0  0  0  0
  7 11  2  0  0  0  0
  8 10  1  0  0  0  0
  9 10  2  0  0  0  0
 10 12  1  0  0  0  0
 11  5  1  0  0  0  0
 11  8  1  0  0  0  0
 12 16  1  0  0  0  0
 13 14  1  0  0  0  0
 13 19  1  0  0  0  0
 15 14  2  0  0  0  0
 16 15  1  0  0  0  0
 17 16  2  0  0  0  0
 17 18  1  0  0  0  0
 18 13  2  0  0  0  0
 20 21  2  0  0  0  0
 21 23  1  0  0  0  0
 22 23  2  0  0  0  0
 23 25  1  0  0  0  0
 25 24  1  0  0  0  0
 26 22  1  6  0  0  0
 26 30  1  0  0  0  0
 28 27  1  0  0  0  0
 28 26  1  0  0  0  0
 29 28  1  0  0  0  0
 30 33  1  0  0  0  0
 32 33  1  0  0  0  0
 33 31  2  0  0  0  0
M  END
>  <MODEL>
6

>  <REMARK>
 VINA RESULT:      -6.0      1.892      2.831
  Name = 
  10 active torsions:
  status: ('A' for Active; 'I' for Inactive)
    1  A    between atoms: C_6  and  C_8
    2  A    between atoms: C_6  and  C_13
    3  A    between atoms: C_6  and  N_17
    4  A    between atoms: N_7  and  C_19
    5  A    between atoms: C_8  and  C_18
    6  A    between atoms: C_11  and  C_21
    7  A    between atoms: C_20  and  C_21
    8  A    between atoms: C_23  and  C_28
    9  A    between atoms: C_25  and  N_26
   10  A    between atoms: C_25  and  O_29
                            x       y       z     vdW  Elec       q    Type
                         _______ _______ _______ _____ _____    ______ ____

>  <TORSDO>
F 10

$$$$
=
 OpenBabel11062421133D

 33 34  0  0  1  0  0  0  0  0999 V2000
  190.5520  172.5920  142.8010 C   0  0  0  0  0  2  0  0  0  0  0  0
  191.1490  172.9380  141.4580 C   0  0  0  0  0  0  0  0  0  0  0  0
  190.4290  173.5710  140.5780 N   0  0  0  0  0  0  0  0  0  0  0  0
  189.0520  173.9870  140.8580 C   0  0  0  0  0  2  0  0  0  0  0  0
  189.5880  173.6660  143.2360 C   0  0  0  0  0  0  0  0  0  0  0  0
  188.8920  174.3380  142.3110 C   0  0  0  0  0  3  0  0  0  0  0  0
  189.6870  173.0960  145.5280 O   0  0  0  0  0  0  0  0  0  0  0  0
  189.0210  175.2920  145.0710 N   0  0  0  0  0  2  0  0  0  0  0  0
  188.9810  174.9200  147.3860 O   0  0  0  0  0  0  0  0  0  0  0  0
  188.8570  175.7250  146.4260 C   0  0  0  0  0  0  0  0  0  0  0  0
  189.4330  173.9790  144.6660 C   0  0  0  0  0  0  0  0  0  0  0  0
  188.5850  177.1630  146.7040 C   0  0  0  0  0  2  0  0  0  0  0  0
  184.6810  178.2970  145.3380 C   0  0  0  0  0  0  0  0  0  0  0  0
  184.8210  177.5520  146.5130 C   0  0  0  0  0  3  0  0  0  0  0  0
  186.0930  177.1720  146.9520 C   0  0  0  0  0  3  0  0  0  0  0  0
  187.2260  177.5340  146.2150 C   0  0  0  0  0  0  0  0  0  0  0  0
  187.0830  178.2840  145.0410 C   0  0  0  0  0  3  0  0  0  0  0  0
  185.8120  178.6630  144.6020 C   0  0  0  0  0  3  0  0  0  0  0  0
  183.4480  178.6660  144.9130 F   0  0  0  0  0  0  0  0  0  0  0  0
  192.4540  172.4710  141.0920 N   0  0  0  0  0  0  0  0  0  0  0  0
  193.5580  173.0720  141.3350 N   0  0  0  0  0  0  0  0  0  0  0  0
  193.6000  174.6350  143.1690 C   0  0  0  0  0  3  0  0  0  0  0  0
  193.7050  174.4050  141.8580 C   0  0  0  0  0  0  0  0  0  0  0  0
  195.0890  175.6660  140.2580 C   0  0  0  0  0  1  0  0  0  0  0  0
  193.8830  175.4800  140.9830 O   0  0  0  0  0  0  0  0  0  0  0  0
  193.6980  176.0050  143.7640 C   0  0  2  0  0  3  0  0  0  0  0  0
  196.0420  176.4280  143.8880 C   0  0  0  0  0  1  0  0  0  0  0  0
  194.8630  176.0850  144.6630 N   0  0  0  0  0  0  0  0  0  0  0  0
  194.6870  177.1080  145.6900 C   0  0  0  0  0  1  0  0  0  0  0  0
  192.3660  176.4020  144.4220 C   0  0  0  0  0  2  0  0  0  0  0  0
  191.1220  176.7780  142.4550 O   0  0  0  0  0  0  0  0  0  0  0  0
  191.1910  178.6380  143.8880 C   0  0  0  0  0  1  0  0  0  0  0  0
  191.5360  177.2410  143.5050 C   0  0  0  0  0  0  0  0  0  0  0  0
  1  5  1  0  0  0  0
  2  1  1  0  0  0  0
  3  4  1  0  0  0  0
  3  2  2  0  0  0  0
  4  6  1  0  0  0  0
  5 11  1  0  0  0  0
  6  5  2  0  0  0  0
  8 10  1  0  0  0  0
 10 12  1  0  0  0  0
 10  9  2  0  0  0  0
 11  8  1  0  0  0  0
 11  7  2  0  0  0  0
 13 14  1  0  0  0  0
 14 15  2  0  0  0  0
 16 12  1  0  0  0  0
 16 15  1  0  0  0  0
 17 16  2  0  0  0  0
 18 17  1  0  0  0  0
 18 13  2  0  0  0  0
 19 13  1  0  0  0  0
 20 21  2  0  0  0  0
 20  2  1  0  0  0  0
 21 23  1  0  0  0  0
 23 22  2  0  0  0  0
 24 25  1  0  0  0  0
 25 23  1  0  0  0  0
 26 22  1  1  0  0  0
 26 30  1  0  0  0  0
 26 28  1  0  0  0  0
 27 28  1  0  0  0  0
 28 29  1  0  0  0  0
 31 33  2  0  0  0  0
 33 32  1  0  0  0  0
 33 30  1  0  0  0  0
M  END
>  <MODEL>
7

>  <REMARK>
 VINA RESULT:      -5.9      2.731      3.884
  Name = 
  10 active torsions:
  status: ('A' for Active; 'I' for Inactive)
    1  A    between atoms: C_6  and  C_8
    2  A    between atoms: C_6  and  C_13
    3  A    between atoms: C_6  and  N_17
    4  A    between atoms: N_7  and  C_19
    5  A    between atoms: C_8  and  C_18
    6  A    between atoms: C_11  and  C_21
    7  A    between atoms: C_20  and  C_21
    8  A    between atoms: C_23  and  C_28
    9  A    between atoms: C_25  and  N_26
   10  A    between atoms: C_25  and  O_29
                            x       y       z     vdW  Elec       q    Type
                         _______ _______ _______ _____ _____    ______ ____

>  <TORSDO>
F 10

$$$$
=
 OpenBabel11062421133D

 33 34  0  0  1  0  0  0  0  0999 V2000
  189.7620  172.8150  143.1880 C   0  0  0  0  0  2  0  0  0  0  0  0
  190.8090  171.7900  142.8240 C   0  0  0  0  0  0  0  0  0  0  0  0
  190.9110  171.3850  141.5910 N   0  0  0  0  0  0  0  0  0  0  0  0
  190.0530  171.9160  140.5280 C   0  0  0  0  0  2  0  0  0  0  0  0
  189.5610  173.7840  142.0500 C   0  0  0  0  0  0  0  0  0  0  0  0
  189.7180  173.3580  140.7900 C   0  0  0  0  0  3  0  0  0  0  0  0
  190.1260  176.0530  142.3990 O   0  0  0  0  0  0  0  0  0  0  0  0
  187.8390  175.5640  142.4950 N   0  0  0  0  0  2  0  0  0  0  0  0
  188.1800  177.8410  142.9370 O   0  0  0  0  0  0  0  0  0  0  0  0
  187.3730  176.8940  142.7450 C   0  0  0  0  0  0  0  0  0  0  0  0
  189.2130  175.1860  142.3300 C   0  0  0  0  0  0  0  0  0  0  0  0
  185.9090  177.1680  142.7300 C   0  0  0  0  0  2  0  0  0  0  0  0
  184.5040  178.2000  146.6490 C   0  0  0  0  0  0  0  0  0  0  0  0
  184.0630  178.9230  145.5350 C   0  0  0  0  0  3  0  0  0  0  0  0
  184.5310  178.5940  144.2590 C   0  0  0  0  0  3  0  0  0  0  0  0
  185.4420  177.5450  144.0950 C   0  0  0  0  0  0  0  0  0  0  0  0
  185.8770  176.8190  145.2110 C   0  0  0  0  0  3  0  0  0  0  0  0
  185.4110  177.1480  146.4860 C   0  0  0  0  0  3  0  0  0  0  0  0
  184.0510  178.5190  147.8850 F   0  0  0  0  0  0  0  0  0  0  0  0
  191.6070  171.1640  143.8360 N   0  0  0  0  0  0  0  0  0  0  0  0
  192.4320  171.7600  144.6120 N   0  0  0  0  0  0  0  0  0  0  0  0
  192.6040  173.9940  145.5020 C   0  0  0  0  0  3  0  0  0  0  0  0
  192.8560  173.1320  144.5120 C   0  0  0  0  0  0  0  0  0  0  0  0
  194.6460  172.9870  142.8280 C   0  0  0  0  0  1  0  0  0  0  0  0
  193.4670  173.5880  143.3420 O   0  0  0  0  0  0  0  0  0  0  0  0
  192.9800  175.4410  145.4340 C   0  0  2  0  0  3  0  0  0  0  0  0
  195.3210  175.2520  145.8480 C   0  0  0  0  0  1  0  0  0  0  0  0
  194.0610  175.7290  146.3920 N   0  0  0  0  0  0  0  0  0  0  0  0
  194.1950  177.1610  146.6450 C   0  0  0  0  0  1  0  0  0  0  0  0
  191.7350  176.3280  145.6030 C   0  0  0  0  0  2  0  0  0  0  0  0
  191.0450  175.7310  147.7770 O   0  0  0  0  0  0  0  0  0  0  0  0
  189.4780  175.1830  146.1150 C   0  0  0  0  0  1  0  0  0  0  0  0
  190.7770  175.7390  146.5860 C   0  0  0  0  0  0  0  0  0  0  0  0
  2  1  1  0  0  0  0
  2 20  1  0  0  0  0
  3  2  2  0  0  0  0
  4  6  1  0  0  0  0
  4  3  1  0  0  0  0
  5 11  1  0  0  0  0
  5  1  1  0  0  0  0
  6  5  2  0  0  0  0
  8 10  1  0  0  0  0
 10  9  2  0  0  0  0
 11  7  2  0  0  0  0
 11  8  1  0  0  0  0
 12 10  1  0  0  0  0
 12 16  1  0  0  0  0
 13 19  1  0  0  0  0
 14 13  2  0  0  0  0
 15 14  1  0  0  0  0
 16 15  2  0  0  0  0
 16 17  1  0  0  0  0
 17 18  2  0  0  0  0
 18 13  1  0  0  0  0
 20 21  2  0  0  0  0
 23 21  1  0  0  0  0
 23 22  2  0  0  0  0
 24 25  1  0  0  0  0
 25 23  1  0  0  0  0
 26 22  1  1  0  0  0
 26 30  1  0  0  0  0
 26 28  1  0  0  0  0
 27 28  1  0  0  0  0
 28 29  1  0  0  0  0
 30 33  1  0  0  0  0
 32 33  1  0  0  0  0
 33 31  2  0  0  0  0
M  END
>  <MODEL>
8

>  <REMARK>
 VINA RESULT:      -5.8      1.979      2.730
  Name = 
  10 active torsions:
  status: ('A' for Active; 'I' for Inactive)
    1  A    between atoms: C_6  and  C_8
    2  A    between atoms: C_6  and  C_13
    3  A    between atoms: C_6  and  N_17
    4  A    between atoms: N_7  and  C_19
    5  A    between atoms: C_8  and  C_18
    6  A    between atoms: C_11  and  C_21
    7  A    between atoms: C_20  and  C_21
    8  A    between atoms: C_23  and  C_28
    9  A    between atoms: C_25  and  N_26
   10  A    between atoms: C_25  and  O_29
                            x       y       z     vdW  Elec       q    Type
                         _______ _______ _______ _____ _____    ______ ____

>  <TORSDO>
F 10

$$$$
=
 OpenBabel11062421133D

 33 34  0  0  1  0  0  0  0  0999 V2000
  192.3660  176.8850  144.5830 C   0  0  0  0  0  2  0  0  0  0  0  0
  193.7320  176.4230  144.1370 C   0  0  0  0  0  0  0  0  0  0  0  0
  194.6700  176.2400  145.0210 N   0  0  0  0  0  0  0  0  0  0  0  0
  194.4340  176.4430  146.4530 C   0  0  0  0  0  2  0  0  0  0  0  0
  192.0350  176.3060  145.9340 C   0  0  0  0  0  0  0  0  0  0  0  0
  193.0210  176.0800  146.8120 C   0  0  0  0  0  3  0  0  0  0  0  0
  190.2900  174.7700  146.3670 O   0  0  0  0  0  0  0  0  0  0  0  0
  189.6960  177.0290  146.5180 N   0  0  0  0  0  2  0  0  0  0  0  0
  187.8130  175.6890  146.9100 O   0  0  0  0  0  0  0  0  0  0  0  0
  188.3240  176.8400  146.8770 C   0  0  0  0  0  0  0  0  0  0  0  0
  190.6400  175.9770  146.2720 C   0  0  0  0  0  0  0  0  0  0  0  0
  187.5010  178.0200  147.2650 C   0  0  0  0  0  2  0  0  0  0  0  0
  184.3410  178.6850  144.4430 C   0  0  0  0  0  0  0  0  0  0  0  0
  184.0540  178.6190  145.8100 C   0  0  0  0  0  3  0  0  0  0  0  0
  185.0830  178.3900  146.7290 C   0  0  0  0  0  3  0  0  0  0  0  0
  186.3990  178.2240  146.2830 C   0  0  0  0  0  0  0  0  0  0  0  0
  186.6830  178.2960  144.9130 C   0  0  0  0  0  3  0  0  0  0  0  0
  185.6550  178.5240  143.9950 C   0  0  0  0  0  3  0  0  0  0  0  0
  183.3440  178.9070  143.5530 F   0  0  0  0  0  0  0  0  0  0  0  0
  194.0490  176.3040  142.7440 N   0  0  0  0  0  0  0  0  0  0  0  0
  193.4460  175.5520  141.9020 N   0  0  0  0  0  0  0  0  0  0  0  0
  191.2810  174.5420  141.5760 C   0  0  0  0  0  3  0  0  0  0  0  0
  192.4580  174.5510  142.2090 C   0  0  0  0  0  0  0  0  0  0  0  0
  193.5900  172.5390  143.0630 C   0  0  0  0  0  1  0  0  0  0  0  0
  192.6970  173.6280  143.2310 O   0  0  0  0  0  0  0  0  0  0  0  0
  190.1990  173.5550  141.8860 C   0  0  2  0  0  3  0  0  0  0  0  0
  190.2040  171.1900  142.1920 C   0  0  0  0  0  1  0  0  0  0  0  0
  190.5000  172.2590  141.2540 N   0  0  0  0  0  0  0  0  0  0  0  0
  189.6960  172.0400  140.0550 C   0  0  0  0  0  1  0  0  0  0  0  0
  188.8230  174.1330  141.5170 C   0  0  0  0  0  2  0  0  0  0  0  0
  188.5720  175.2860  143.5580 O   0  0  0  0  0  0  0  0  0  0  0  0
  188.1160  176.6110  141.6730 C   0  0  0  0  0  1  0  0  0  0  0  0
  188.5000  175.3370  142.3410 C   0  0  0  0  0  0  0  0  0  0  0  0
  1  5  1  0  0  0  0
  2  1  1  0  0  0  0
  2  3  2  0  0  0  0
  3  4  1  0  0  0  0
  4  6  1  0  0  0  0
  5 11  1  0  0  0  0
  5  6  2  0  0  0  0
  8 10  1  0  0  0  0
 10  9  2  0  0  0  0
 10 12  1  0  0  0  0
 11  7  2  0  0  0  0
 11  8  1  0  0  0  0
 13 14  1  0  0  0  0
 14 15  2  0  0  0  0
 16 15  1  0  0  0  0
 16 12  1  0  0  0  0
 17 16  2  0  0  0  0
 18 13  2  0  0  0  0
 18 17  1  0  0  0  0
 19 13  1  0  0  0  0
 20  2  1  0  0  0  0
 21 23  1  0  0  0  0
 21 20  2  0  0  0  0
 22 26  1  0  0  0  0
 22 23  2  0  0  0  0
 23 25  1  0  0  0  0
 24 25  1  0  0  0  0
 26 30  1  6  0  0  0
 28 26  1  0  0  0  0
 28 27  1  0  0  0  0
 29 28  1  0  0  0  0
 30 33  1  0  0  0  0
 32 33  1  0  0  0  0
 33 31  2  0  0  0  0
M  END
>  <MODEL>
9

>  <REMARK>
 VINA RESULT:      -5.8      2.616      5.323
  Name = 
  10 active torsions:
  status: ('A' for Active; 'I' for Inactive)
    1  A    between atoms: C_6  and  C_8
    2  A    between atoms: C_6  and  C_13
    3  A    between atoms: C_6  and  N_17
    4  A    between atoms: N_7  and  C_19
    5  A    between atoms: C_8  and  C_18
    6  A    between atoms: C_11  and  C_21
    7  A    between atoms: C_20  and  C_21
    8  A    between atoms: C_23  and  C_28
    9  A    between atoms: C_25  and  N_26
   10  A    between atoms: C_25  and  O_29
                            x       y       z     vdW  Elec       q    Type
                         _______ _______ _______ _____ _____    ______ ____

>  <TORSDO>
F 10

$$$$
