=
 OpenBabel11062419553D

 28 31  0  0  1  0  0  0  0  0999 V2000
  184.0330  178.6590  146.1990 N   0  0  0  0  0  1  0  0  0  0  0  0
  186.1310  177.4430  145.6030 C   0  0  0  0  0  0  0  0  0  0  0  0
  185.8060  177.4050  143.4240 N   0  0  0  0  0  0  0  0  0  0  0  0
  185.9370  177.1080  142.0090 C   0  0  0  0  0  1  0  0  0  0  0  0
  188.4060  175.7120  145.6510 C   0  0  0  0  0  0  0  0  0  0  0  0
  184.7740  178.0590  143.9430 N   0  0  0  0  0  0  0  0  0  0  0  0
  186.7290  177.0590  146.8740 C   0  0  0  0  0  0  0  0  0  0  0  0
  186.2760  177.4720  147.9730 O   0  0  0  0  0  0  0  0  0  0  0  0
  184.9620  178.0960  145.2800 C   0  0  0  0  0  0  0  0  0  0  0  0
  186.6410  177.0190  144.4120 C   0  0  0  0  0  0  0  0  0  0  0  0
  187.9410  176.2580  144.2960 C   0  0  1  0  0  3  0  0  0  0  0  0
  187.8640  176.1220  146.8210 C   0  0  0  0  0  3  0  0  0  0  0  0
  188.9340  177.5320  142.2260 C   0  0  0  0  0  2  0  0  0  0  0  0
  191.2960  177.8050  144.3100 C   0  0  0  0  0  2  0  0  0  0  0  0
  189.9870  176.5470  142.7010 C   0  0  2  0  0  0  0  0  0  0  0  0
  189.0320  177.1630  143.6990 C   0  0  2  0  0  0  0  0  0  0  0  0
  189.8300  178.1150  144.5720 C   0  0  0  0  0  2  0  0  0  0  0  0
  191.3720  177.0920  142.9680 C   0  0  0  0  0  2  0  0  0  0  0  0
  189.7820  175.1030  142.2720 C   0  0  0  0  0  1  0  0  0  0  0  0
  189.4540  174.7820  145.6470 O   0  0  0  0  0  0  0  0  0  0  0  0
  190.6170  174.9100  146.4580 C   0  0  0  0  0  2  0  0  0  0  0  0
  191.8450  174.4890  145.6690 C   0  0  0  0  0  2  0  0  0  0  0  0
  193.0960  175.1140  146.2660 C   0  0  0  0  0  2  0  0  0  0  0  0
  194.3060  174.3110  144.2200 C   0  0  0  0  0  1  0  0  0  0  0  0
  194.1000  175.3350  145.2320 N   0  0  0  0  0  0  0  0  0  0  0  0
  194.6730  177.4480  146.0530 O   0  0  0  0  0  1  0  0  0  0  0  0
  194.8430  176.5590  145.1760 C   0  0  0  0  0  0  0  0  0  0  0  0
  195.7610  176.7770  144.1550 O   0  0  0  0  0  0  0  0  0  0  0  0
  2  7  1  0  0  0  0
  3  6  1  0  0  0  0
  3 10  1  0  0  0  0
  4  3  1  0  0  0  0
  5 12  2  0  0  0  0
  6  9  2  0  0  0  0
  7  8  2  0  0  0  0
  9  2  1  0  0  0  0
  9  1  1  0  0  0  0
 10  2  2  0  0  0  0
 11 10  1  1  0  0  0
 11  5  1  0  0  0  0
 12  7  1  0  0  0  0
 13 15  1  0  0  0  0
 14 17  1  0  0  0  0
 15 19  1  6  0  0  0
 15 18  1  0  0  0  0
 15 16  1  0  0  0  0
 16 13  1  6  0  0  0
 16 11  1  0  0  0  0
 16 17  1  0  0  0  0
 18 14  1  0  0  0  0
 20  5  1  0  0  0  0
 20 21  1  0  0  0  0
 22 23  1  0  0  0  0
 22 21  1  0  0  0  0
 24 25  1  0  0  0  0
 25 23  1  0  0  0  0
 27 25  1  0  0  0  0
 27 26  1  0  0  0  0
 28 27  2  0  0  0  0
M  END
>  <MODEL>
1

>  <REMARK>
 VINA RESULT:      -7.1      0.000      0.000
  Name = 
  6 active torsions:
  status: ('A' for Active; 'I' for Inactive)
    1  A    between atoms: C_1  and  O_7
    2  A    between atoms: C_1  and  C_27
    3  A    between atoms: O_7  and  C_11
    4  A    between atoms: C_14  and  N_16
    5  A    between atoms: C_14  and  C_27
    6  A    between atoms: C_15  and  C_24
                            x       y       z     vdW  Elec       q    Type
                         _______ _______ _______ _____ _____    ______ ____

>  <TORSDO>
F 6

$$$$
=
 OpenBabel11062419553D

 28 31  0  0  1  0  0  0  0  0999 V2000
  184.4440  178.1950  141.5540 N   0  0  0  0  0  1  0  0  0  0  0  0
  186.5510  177.9030  142.8620 C   0  0  0  0  0  0  0  0  0  0  0  0
  185.6550  178.1280  144.8620 N   0  0  0  0  0  0  0  0  0  0  0  0
  185.4900  178.2860  146.2970 C   0  0  0  0  0  1  0  0  0  0  0  0
  189.2860  177.9170  143.6970 C   0  0  0  0  0  0  0  0  0  0  0  0
  184.6570  178.2270  143.9940 N   0  0  0  0  0  0  0  0  0  0  0  0
  187.6170  177.8500  141.8710 C   0  0  0  0  0  0  0  0  0  0  0  0
  187.3740  177.7930  140.6370 O   0  0  0  0  0  0  0  0  0  0  0  0
  185.1900  178.0850  142.7620 C   0  0  0  0  0  0  0  0  0  0  0  0
  186.8160  177.9340  144.2000 C   0  0  0  0  0  0  0  0  0  0  0  0
  188.2030  177.7600  144.7700 C   0  0  1  0  0  3  0  0  0  0  0  0
  188.9990  177.9160  142.3740 C   0  0  0  0  0  3  0  0  0  0  0  0
  187.6730  176.1740  146.7950 C   0  0  0  0  0  2  0  0  0  0  0  0
  189.7980  174.4560  145.2070 C   0  0  0  0  0  2  0  0  0  0  0  0
  189.1820  176.2800  146.6840 C   0  0  2  0  0  0  0  0  0  0  0  0
  188.3300  176.3800  145.4380 C   0  0  2  0  0  0  0  0  0  0  0  0
  188.5660  175.1260  144.6160 C   0  0  0  0  0  2  0  0  0  0  0  0
  189.9620  174.9840  146.6230 C   0  0  0  0  0  2  0  0  0  0  0  0
  189.8020  177.5410  147.2630 C   0  0  0  0  0  1  0  0  0  0  0  0
  190.6140  178.0290  144.1300 O   0  0  0  0  0  0  0  0  0  0  0  0
  191.6880  177.2860  143.5630 C   0  0  0  0  0  2  0  0  0  0  0  0
  192.6100  176.7910  144.6630 C   0  0  0  0  0  2  0  0  0  0  0  0
  193.3030  175.5070  144.2340 C   0  0  0  0  0  2  0  0  0  0  0  0
  195.3250  175.2430  145.6950 C   0  0  0  0  0  1  0  0  0  0  0  0
  194.7450  175.6200  144.4150 N   0  0  0  0  0  0  0  0  0  0  0  0
  195.0950  176.3820  142.2320 O   0  0  0  0  0  0  0  0  0  0  0  0
  195.5920  176.0480  143.3410 C   0  0  0  0  0  0  0  0  0  0  0  0
  196.9700  176.1020  143.5130 O   0  0  0  0  0  1  0  0  0  0  0  0
  1  9  1  0  0  0  0
  2 10  2  0  0  0  0
  3  4  1  0  0  0  0
  5 20  1  0  0  0  0
  6  3  1  0  0  0  0
  7 12  1  0  0  0  0
  7  2  1  0  0  0  0
  8  7  2  0  0  0  0
  9  2  1  0  0  0  0
  9  6  2  0  0  0  0
 10 11  1  0  0  0  0
 10  3  1  0  0  0  0
 11  5  1  6  0  0  0
 11 16  1  0  0  0  0
 12  5  2  0  0  0  0
 14 18  1  0  0  0  0
 15 13  1  0  0  0  0
 15 19  1  1  0  0  0
 16 17  1  6  0  0  0
 16 15  1  0  0  0  0
 16 13  1  0  0  0  0
 17 14  1  0  0  0  0
 18 15  1  0  0  0  0
 21 20  1  0  0  0  0
 21 22  1  0  0  0  0
 23 25  1  0  0  0  0
 23 22  1  0  0  0  0
 25 24  1  0  0  0  0
 26 27  2  0  0  0  0
 27 28  1  0  0  0  0
 27 25  1  0  0  0  0
M  END
>  <MODEL>
2

>  <REMARK>
 VINA RESULT:      -7.1      1.970      3.617
  Name = 
  6 active torsions:
  status: ('A' for Active; 'I' for Inactive)
    1  A    between atoms: C_1  and  O_7
    2  A    between atoms: C_1  and  C_27
    3  A    between atoms: O_7  and  C_11
    4  A    between atoms: C_14  and  N_16
    5  A    between atoms: C_14  and  C_27
    6  A    between atoms: C_15  and  C_24
                            x       y       z     vdW  Elec       q    Type
                         _______ _______ _______ _____ _____    ______ ____

>  <TORSDO>
F 6

$$$$
=
 OpenBabel11062419553D

 28 31  0  0  1  0  0  0  0  0999 V2000
  184.0900  178.2470  142.0020 N   0  0  0  0  0  1  0  0  0  0  0  0
  186.3290  177.9280  143.0600 C   0  0  0  0  0  0  0  0  0  0  0  0
  185.6630  178.1120  145.1520 N   0  0  0  0  0  0  0  0  0  0  0  0
  185.6600  178.2400  146.5980 C   0  0  0  0  0  1  0  0  0  0  0  0
  189.1400  177.9240  143.5840 C   0  0  0  0  0  0  0  0  0  0  0  0
  184.5740  178.2290  144.4030 N   0  0  0  0  0  0  0  0  0  0  0  0
  187.2780  177.8950  141.9550 C   0  0  0  0  0  0  0  0  0  0  0  0
  186.8980  177.8640  140.7550 O   0  0  0  0  0  0  0  0  0  0  0  0
  184.9660  178.1120  143.1160 C   0  0  0  0  0  0  0  0  0  0  0  0
  186.7420  177.9310  144.3600 C   0  0  0  0  0  0  0  0  0  0  0  0
  188.1830  177.7450  144.7680 C   0  0  1  0  0  3  0  0  0  0  0  0
  188.7070  177.9500  142.3010 C   0  0  0  0  0  3  0  0  0  0  0  0
  187.8120  176.0950  146.7770 C   0  0  0  0  0  2  0  0  0  0  0  0
  189.8740  174.4690  145.0160 C   0  0  0  0  0  2  0  0  0  0  0  0
  189.3100  176.2380  146.5780 C   0  0  2  0  0  0  0  0  0  0  0  0
  188.3810  176.3510  145.3890 C   0  0  2  0  0  0  0  0  0  0  0  0
  188.5940  175.1240  144.5190 C   0  0  0  0  0  2  0  0  0  0  0  0
  190.1120  174.9640  146.4350 C   0  0  0  0  0  2  0  0  0  0  0  0
  189.9360  177.4980  147.1530 C   0  0  0  0  0  1  0  0  0  0  0  0
  190.5080  178.0260  143.8680 O   0  0  0  0  0  0  0  0  0  0  0  0
  191.5060  177.2580  143.2030 C   0  0  0  0  0  2  0  0  0  0  0  0
  192.5120  176.7330  144.2150 C   0  0  0  0  0  2  0  0  0  0  0  0
  193.6190  175.9680  143.5090 C   0  0  0  0  0  2  0  0  0  0  0  0
  195.3240  175.5580  145.3040 C   0  0  0  0  0  1  0  0  0  0  0  0
  194.2750  175.0500  144.4330 N   0  0  0  0  0  0  0  0  0  0  0  0
  192.9640  173.2320  143.7680 O   0  0  0  0  0  0  0  0  0  0  0  0
  193.8680  173.6790  144.5230 C   0  0  0  0  0  0  0  0  0  0  0  0
  194.4670  172.8290  145.4450 O   0  0  0  0  0  1  0  0  0  0  0  0
  1  9  1  0  0  0  0
  2  9  1  0  0  0  0
  2 10  2  0  0  0  0
  3  4  1  0  0  0  0
  5 20  1  0  0  0  0
  6  3  1  0  0  0  0
  7 12  1  0  0  0  0
  7  2  1  0  0  0  0
  8  7  2  0  0  0  0
  9  6  2  0  0  0  0
 10 11  1  0  0  0  0
 10  3  1  0  0  0  0
 11  5  1  6  0  0  0
 11 16  1  0  0  0  0
 12  5  2  0  0  0  0
 14 18  1  0  0  0  0
 15 13  1  0  0  0  0
 15 19  1  1  0  0  0
 16 17  1  6  0  0  0
 16 15  1  0  0  0  0
 16 13  1  0  0  0  0
 17 14  1  0  0  0  0
 18 15  1  0  0  0  0
 21 20  1  0  0  0  0
 21 22  1  0  0  0  0
 23 22  1  0  0  0  0
 23 25  1  0  0  0  0
 25 27  1  0  0  0  0
 25 24  1  0  0  0  0
 26 27  2  0  0  0  0
 27 28  1  0  0  0  0
M  END
>  <MODEL>
3

>  <REMARK>
 VINA RESULT:      -6.7      2.193      3.747
  Name = 
  6 active torsions:
  status: ('A' for Active; 'I' for Inactive)
    1  A    between atoms: C_1  and  O_7
    2  A    between atoms: C_1  and  C_27
    3  A    between atoms: O_7  and  C_11
    4  A    between atoms: C_14  and  N_16
    5  A    between atoms: C_14  and  C_27
    6  A    between atoms: C_15  and  C_24
                            x       y       z     vdW  Elec       q    Type
                         _______ _______ _______ _____ _____    ______ ____

>  <TORSDO>
F 6

$$$$
=
 OpenBabel11062419553D

 28 31  0  0  1  0  0  0  0  0999 V2000
  183.9450  178.6390  146.0800 N   0  0  0  0  0  1  0  0  0  0  0  0
  186.1150  177.5050  145.5930 C   0  0  0  0  0  0  0  0  0  0  0  0
  185.8540  177.3570  143.4110 N   0  0  0  0  0  0  0  0  0  0  0  0
  186.0390  177.0060  142.0140 C   0  0  0  0  0  1  0  0  0  0  0  0
  188.4700  175.8940  145.7770 C   0  0  0  0  0  0  0  0  0  0  0  0
  184.7770  177.9800  143.8730 N   0  0  0  0  0  0  0  0  0  0  0  0
  186.6960  177.2070  146.8950 C   0  0  0  0  0  0  0  0  0  0  0  0
  186.1920  177.6450  147.9630 O   0  0  0  0  0  0  0  0  0  0  0  0
  184.9260  178.0840  145.2110 C   0  0  0  0  0  0  0  0  0  0  0  0
  186.6790  177.0560  144.4360 C   0  0  0  0  0  0  0  0  0  0  0  0
  188.0170  176.3570  144.3870 C   0  0  1  0  0  3  0  0  0  0  0  0
  187.8760  176.3270  146.9130 C   0  0  0  0  0  3  0  0  0  0  0  0
  188.9050  177.7310  142.3330 C   0  0  0  0  0  2  0  0  0  0  0  0
  191.3750  177.8970  144.3000 C   0  0  0  0  0  2  0  0  0  0  0  0
  189.9770  176.7220  142.7020 C   0  0  2  0  0  0  0  0  0  0  0  0
  189.0790  177.2890  143.7790 C   0  0  2  0  0  0  0  0  0  0  0  0
  189.9260  178.1960  144.6550 C   0  0  0  0  0  2  0  0  0  0  0  0
  191.3770  177.2520  142.9230 C   0  0  0  0  0  2  0  0  0  0  0  0
  189.7440  175.3020  142.2140 C   0  0  0  0  0  1  0  0  0  0  0  0
  189.5630  175.0190  145.8410 O   0  0  0  0  0  0  0  0  0  0  0  0
  190.4650  174.9730  146.9420 C   0  0  0  0  0  2  0  0  0  0  0  0
  191.8790  174.7360  146.4390 C   0  0  0  0  0  2  0  0  0  0  0  0
  191.8590  174.3500  144.9690 C   0  0  0  0  0  2  0  0  0  0  0  0
  193.8430  172.8200  145.0940 C   0  0  0  0  0  1  0  0  0  0  0  0
  192.4380  173.0250  144.7810 N   0  0  0  0  0  0  0  0  0  0  0  0
  190.4150  172.0960  144.0630 O   0  0  0  0  0  0  0  0  0  0  0  0
  191.6320  171.9240  144.3410 C   0  0  0  0  0  0  0  0  0  0  0  0
  192.1850  170.6560  144.2150 O   0  0  0  0  0  1  0  0  0  0  0  0
  2  7  1  0  0  0  0
  3  6  1  0  0  0  0
  3 10  1  0  0  0  0
  4  3  1  0  0  0  0
  5 20  1  0  0  0  0
  5 12  2  0  0  0  0
  6  9  2  0  0  0  0
  7 12  1  0  0  0  0
  7  8  2  0  0  0  0
  9  2  1  0  0  0  0
  9  1  1  0  0  0  0
 10  2  2  0  0  0  0
 11 10  1  1  0  0  0
 11  5  1  0  0  0  0
 13 15  1  0  0  0  0
 14 17  1  0  0  0  0
 15 19  1  6  0  0  0
 15 18  1  0  0  0  0
 15 16  1  0  0  0  0
 16 13  1  6  0  0  0
 16 11  1  0  0  0  0
 16 17  1  0  0  0  0
 18 14  1  0  0  0  0
 20 21  1  0  0  0  0
 22 21  1  0  0  0  0
 23 22  1  0  0  0  0
 25 23  1  0  0  0  0
 25 24  1  0  0  0  0
 26 27  2  0  0  0  0
 27 25  1  0  0  0  0
 28 27  1  0  0  0  0
M  END
>  <MODEL>
4

>  <REMARK>
 VINA RESULT:      -6.6      1.933      2.317
  Name = 
  6 active torsions:
  status: ('A' for Active; 'I' for Inactive)
    1  A    between atoms: C_1  and  O_7
    2  A    between atoms: C_1  and  C_27
    3  A    between atoms: O_7  and  C_11
    4  A    between atoms: C_14  and  N_16
    5  A    between atoms: C_14  and  C_27
    6  A    between atoms: C_15  and  C_24
                            x       y       z     vdW  Elec       q    Type
                         _______ _______ _______ _____ _____    ______ ____

>  <TORSDO>
F 6

$$$$
=
 OpenBabel11062419553D

 28 31  0  0  1  0  0  0  0  0999 V2000
  190.1470  171.3300  139.9010 N   0  0  0  0  0  1  0  0  0  0  0  0
  189.3470  173.2730  141.2480 C   0  0  0  0  0  0  0  0  0  0  0  0
  189.7860  172.4220  143.2320 N   0  0  0  0  0  0  0  0  0  0  0  0
  189.8460  172.2140  144.6680 C   0  0  0  0  0  1  0  0  0  0  0  0
  187.9160  175.5750  142.1610 C   0  0  0  0  0  0  0  0  0  0  0  0
  190.1800  171.5190  142.3430 N   0  0  0  0  0  0  0  0  0  0  0  0
  188.7430  174.1870  140.2870 C   0  0  0  0  0  0  0  0  0  0  0  0
  188.8340  173.9990  139.0460 O   0  0  0  0  0  0  0  0  0  0  0  0
  189.9230  172.0300  141.1200 C   0  0  0  0  0  0  0  0  0  0  0  0
  189.2730  173.4950  142.5920 C   0  0  0  0  0  0  0  0  0  0  0  0
  188.7110  174.7620  143.1900 C   0  0  1  0  0  3  0  0  0  0  0  0
  187.9770  175.3190  140.8330 C   0  0  0  0  0  3  0  0  0  0  0  0
  190.4470  175.2190  145.1060 C   0  0  0  0  0  2  0  0  0  0  0  0
  190.6770  177.8820  143.4170 C   0  0  0  0  0  2  0  0  0  0  0  0
  189.5480  176.4380  145.0070 C   0  0  2  0  0  0  0  0  0  0  0  0
  189.8460  175.6240  143.7670 C   0  0  2  0  0  0  0  0  0  0  0  0
  190.7330  176.4650  142.8660 C   0  0  0  0  0  2  0  0  0  0  0  0
  190.2230  177.7840  144.8660 C   0  0  0  0  0  2  0  0  0  0  0  0
  188.1860  176.3100  145.6690 C   0  0  0  0  0  1  0  0  0  0  0  0
  187.1360  176.6360  142.6390 O   0  0  0  0  0  0  0  0  0  0  0  0
  186.9940  177.8760  141.9530 C   0  0  0  0  0  2  0  0  0  0  0  0
  185.6060  178.4440  142.1960 C   0  0  0  0  0  2  0  0  0  0  0  0
  184.9900  177.8190  143.4380 C   0  0  0  0  0  2  0  0  0  0  0  0
  185.3690  180.1250  144.3520 C   0  0  0  0  0  1  0  0  0  0  0  0
  185.1380  178.7080  144.5840 N   0  0  0  0  0  0  0  0  0  0  0  0
  184.8190  176.9830  146.1310 O   0  0  0  0  0  0  0  0  0  0  0  0
  185.0130  178.2110  145.9230 C   0  0  0  0  0  0  0  0  0  0  0  0
  185.1060  179.0780  147.0050 O   0  0  0  0  0  1  0  0  0  0  0  0
  1  9  1  0  0  0  0
  2 10  2  0  0  0  0
  3  4  1  0  0  0  0
  5 20  1  0  0  0  0
  6  3  1  0  0  0  0
  7 12  1  0  0  0  0
  7  2  1  0  0  0  0
  8  7  2  0  0  0  0
  9  2  1  0  0  0  0
  9  6  2  0  0  0  0
 10 11  1  0  0  0  0
 10  3  1  0  0  0  0
 11  5  1  6  0  0  0
 11 16  1  0  0  0  0
 12  5  2  0  0  0  0
 14 18  1  0  0  0  0
 15 13  1  0  0  0  0
 15 19  1  1  0  0  0
 16 17  1  6  0  0  0
 16 15  1  0  0  0  0
 16 13  1  0  0  0  0
 17 14  1  0  0  0  0
 18 15  1  0  0  0  0
 21 22  1  0  0  0  0
 21 20  1  0  0  0  0
 22 23  1  0  0  0  0
 23 25  1  0  0  0  0
 24 25  1  0  0  0  0
 25 27  1  0  0  0  0
 27 26  2  0  0  0  0
 27 28  1  0  0  0  0
M  END
>  <MODEL>
5

>  <REMARK>
 VINA RESULT:      -6.4      3.199      7.167
  Name = 
  6 active torsions:
  status: ('A' for Active; 'I' for Inactive)
    1  A    between atoms: C_1  and  O_7
    2  A    between atoms: C_1  and  C_27
    3  A    between atoms: O_7  and  C_11
    4  A    between atoms: C_14  and  N_16
    5  A    between atoms: C_14  and  C_27
    6  A    between atoms: C_15  and  C_24
                            x       y       z     vdW  Elec       q    Type
                         _______ _______ _______ _____ _____    ______ ____

>  <TORSDO>
F 6

$$$$
=
 OpenBabel11062419553D

 28 31  0  0  1  0  0  0  0  0999 V2000
  185.5370  178.7270  145.6690 N   0  0  0  0  0  1  0  0  0  0  0  0
  187.5160  177.2540  145.2880 C   0  0  0  0  0  0  0  0  0  0  0  0
  187.9220  177.8850  143.2170 N   0  0  0  0  0  0  0  0  0  0  0  0
  188.4670  177.9590  141.8720 C   0  0  0  0  0  1  0  0  0  0  0  0
  189.3760  175.0840  145.3670 C   0  0  0  0  0  0  0  0  0  0  0  0
  186.8830  178.6010  143.6260 N   0  0  0  0  0  0  0  0  0  0  0  0
  187.6030  176.4100  146.4720 C   0  0  0  0  0  0  0  0  0  0  0  0
  186.8780  176.6060  147.4820 O   0  0  0  0  0  0  0  0  0  0  0  0
  186.6250  178.2290  144.8990 C   0  0  0  0  0  0  0  0  0  0  0  0
  188.3230  177.0580  144.2060 C   0  0  0  0  0  0  0  0  0  0  0  0
  189.4650  176.0700  144.1970 C   0  0  1  0  0  3  0  0  0  0  0  0
  188.5440  175.2800  146.4170 C   0  0  0  0  0  3  0  0  0  0  0  0
  191.2080  177.6640  143.0480 C   0  0  0  0  0  2  0  0  0  0  0  0
  192.8650  176.6250  145.5330 C   0  0  0  0  0  2  0  0  0  0  0  0
  191.9080  176.3450  143.3210 C   0  0  2  0  0  0  0  0  0  0  0  0
  190.8100  176.8150  144.2480 C   0  0  2  0  0  0  0  0  0  0  0  0
  191.4530  177.1910  145.5710 C   0  0  0  0  0  2  0  0  0  0  0  0
  193.2210  176.4030  144.0710 C   0  0  0  0  0  2  0  0  0  0  0  0
  191.6180  175.2270  142.3340 C   0  0  0  0  0  1  0  0  0  0  0  0
  190.2220  173.9670  145.3360 O   0  0  0  0  0  0  0  0  0  0  0  0
  189.7650  172.6450  145.0730 C   0  0  0  0  0  2  0  0  0  0  0  0
  190.2410  172.1980  143.7010 C   0  0  0  0  0  2  0  0  0  0  0  0
  189.0520  171.9410  142.7880 C   0  0  0  0  0  2  0  0  0  0  0  0
  190.1370  172.2230  140.5440 C   0  0  0  0  0  1  0  0  0  0  0  0
  189.1910  172.6900  141.5450 N   0  0  0  0  0  0  0  0  0  0  0  0
  187.5610  174.2540  142.1500 O   0  0  0  0  0  1  0  0  0  0  0  0
  188.3790  173.8420  141.2840 C   0  0  0  0  0  0  0  0  0  0  0  0
  188.4860  174.5150  140.0730 O   0  0  0  0  0  0  0  0  0  0  0  0
  2  7  1  0  0  0  0
  3  6  1  0  0  0  0
  3 10  1  0  0  0  0
  4  3  1  0  0  0  0
  5 12  2  0  0  0  0
  6  9  2  0  0  0  0
  7  8  2  0  0  0  0
  9  2  1  0  0  0  0
  9  1  1  0  0  0  0
 10  2  2  0  0  0  0
 11 10  1  1  0  0  0
 11 16  1  0  0  0  0
 11  5  1  0  0  0  0
 12  7  1  0  0  0  0
 13 15  1  0  0  0  0
 14 17  1  0  0  0  0
 15 19  1  6  0  0  0
 15 18  1  0  0  0  0
 15 16  1  0  0  0  0
 16 13  1  6  0  0  0
 16 17  1  0  0  0  0
 18 14  1  0  0  0  0
 20  5  1  0  0  0  0
 21 20  1  0  0  0  0
 22 21  1  0  0  0  0
 23 22  1  0  0  0  0
 24 25  1  0  0  0  0
 25 23  1  0  0  0  0
 27 25  1  0  0  0  0
 27 26  1  0  0  0  0
 28 27  2  0  0  0  0
M  END
>  <MODEL>
6

>  <REMARK>
 VINA RESULT:      -6.2      2.519      3.878
  Name = 
  6 active torsions:
  status: ('A' for Active; 'I' for Inactive)
    1  A    between atoms: C_1  and  O_7
    2  A    between atoms: C_1  and  C_27
    3  A    between atoms: O_7  and  C_11
    4  A    between atoms: C_14  and  N_16
    5  A    between atoms: C_14  and  C_27
    6  A    between atoms: C_15  and  C_24
                            x       y       z     vdW  Elec       q    Type
                         _______ _______ _______ _____ _____    ______ ____

>  <TORSDO>
F 6

$$$$
=
 OpenBabel11062419553D

 28 31  0  0  1  0  0  0  0  0999 V2000
  194.4460  176.9590  146.8130 N   0  0  0  0  0  1  0  0  0  0  0  0
  192.3310  176.3200  145.6510 C   0  0  0  0  0  0  0  0  0  0  0  0
  193.1780  176.1670  143.6230 N   0  0  0  0  0  0  0  0  0  0  0  0
  193.3090  176.0340  142.1830 C   0  0  0  0  0  1  0  0  0  0  0  0
  189.5830  176.0500  144.9080 C   0  0  0  0  0  0  0  0  0  0  0  0
  194.1870  176.4830  144.4250 N   0  0  0  0  0  0  0  0  0  0  0  0
  191.2870  176.4270  146.6620 C   0  0  0  0  0  0  0  0  0  0  0  0
  191.5560  176.6340  147.8740 O   0  0  0  0  0  0  0  0  0  0  0  0
  193.6840  176.5740  145.6750 C   0  0  0  0  0  0  0  0  0  0  0  0
  192.0400  176.0650  144.3430 C   0  0  0  0  0  0  0  0  0  0  0  0
  190.6520  175.7210  143.8590 C   0  0  1  0  0  3  0  0  0  0  0  0
  189.8950  176.3310  146.1950 C   0  0  0  0  0  3  0  0  0  0  0  0
  191.1000  173.7980  142.1280 C   0  0  0  0  0  2  0  0  0  0  0  0
  189.3160  172.3000  144.2660 C   0  0  0  0  0  2  0  0  0  0  0  0
  189.6070  173.8250  142.4010 C   0  0  2  0  0  0  0  0  0  0  0  0
  190.5750  174.2300  143.4900 C   0  0  2  0  0  0  0  0  0  0  0  0
  190.5400  173.1540  144.5620 C   0  0  0  0  0  2  0  0  0  0  0  0
  188.9550  172.5210  142.8040 C   0  0  0  0  0  2  0  0  0  0  0  0
  188.8210  174.9000  141.6700 C   0  0  0  0  0  1  0  0  0  0  0  0
  188.2440  176.0160  144.4970 O   0  0  0  0  0  0  0  0  0  0  0  0
  187.1900  176.6550  145.2110 C   0  0  0  0  0  2  0  0  0  0  0  0
  186.8730  177.9960  144.5700 C   0  0  0  0  0  2  0  0  0  0  0  0
  187.0070  177.9030  143.0590 C   0  0  0  0  0  2  0  0  0  0  0  0
  184.6090  178.6210  143.2230 C   0  0  0  0  0  1  0  0  0  0  0  0
  185.7210  178.1440  142.4160 N   0  0  0  0  0  0  0  0  0  0  0  0
  186.5150  177.5430  140.3000 O   0  0  0  0  0  0  0  0  0  0  0  0
  185.5570  177.9620  141.0040 C   0  0  0  0  0  0  0  0  0  0  0  0
  184.3390  178.2430  140.3970 O   0  0  0  0  0  1  0  0  0  0  0  0
  2  9  1  0  0  0  0
  2  7  1  0  0  0  0
  3 10  1  0  0  0  0
  3  6  1  0  0  0  0
  4  3  1  0  0  0  0
  5 12  2  0  0  0  0
  6  9  2  0  0  0  0
  7  8  2  0  0  0  0
  9  1  1  0  0  0  0
 10  2  2  0  0  0  0
 11 10  1  1  0  0  0
 11  5  1  0  0  0  0
 12  7  1  0  0  0  0
 13 15  1  0  0  0  0
 14 17  1  0  0  0  0
 15 19  1  6  0  0  0
 15 18  1  0  0  0  0
 15 16  1  0  0  0  0
 16 13  1  6  0  0  0
 16 11  1  0  0  0  0
 16 17  1  0  0  0  0
 18 14  1  0  0  0  0
 20  5  1  0  0  0  0
 20 21  1  0  0  0  0
 22 21  1  0  0  0  0
 23 22  1  0  0  0  0
 25 23  1  0  0  0  0
 25 24  1  0  0  0  0
 26 27  2  0  0  0  0
 27 25  1  0  0  0  0
 28 27  1  0  0  0  0
M  END
>  <MODEL>
7

>  <REMARK>
 VINA RESULT:      -6.1      2.703      6.859
  Name = 
  6 active torsions:
  status: ('A' for Active; 'I' for Inactive)
    1  A    between atoms: C_1  and  O_7
    2  A    between atoms: C_1  and  C_27
    3  A    between atoms: O_7  and  C_11
    4  A    between atoms: C_14  and  N_16
    5  A    between atoms: C_14  and  C_27
    6  A    between atoms: C_15  and  C_24
                            x       y       z     vdW  Elec       q    Type
                         _______ _______ _______ _____ _____    ______ ____

>  <TORSDO>
F 6

$$$$
=
 OpenBabel11062419553D

 28 31  0  0  1  0  0  0  0  0999 V2000
  190.4420  170.4130  142.0160 N   0  0  0  0  0  1  0  0  0  0  0  0
  190.7500  172.6120  143.1580 C   0  0  0  0  0  0  0  0  0  0  0  0
  189.1640  173.6960  142.0780 N   0  0  0  0  0  0  0  0  0  0  0  0
  188.3060  174.7520  141.5720 C   0  0  0  0  0  1  0  0  0  0  0  0
  191.8750  174.8740  144.4960 C   0  0  0  0  0  0  0  0  0  0  0  0
  189.1440  172.4510  141.6190 N   0  0  0  0  0  0  0  0  0  0  0  0
  191.9340  172.4530  143.9910 C   0  0  0  0  0  0  0  0  0  0  0  0
  192.4890  171.3340  144.1490 O   0  0  0  0  0  0  0  0  0  0  0  0
  190.1070  171.7720  142.2760 C   0  0  0  0  0  0  0  0  0  0  0  0
  190.1330  173.8190  143.0110 C   0  0  0  0  0  0  0  0  0  0  0  0
  190.5160  175.0440  143.8070 C   0  0  1  0  0  3  0  0  0  0  0  0
  192.4880  173.6710  144.6030 C   0  0  0  0  0  3  0  0  0  0  0  0
  188.1740  176.0700  144.4040 C   0  0  0  0  0  2  0  0  0  0  0  0
  189.3530  175.5090  147.2830 C   0  0  0  0  0  2  0  0  0  0  0  0
  189.2150  176.8000  145.2330 C   0  0  2  0  0  0  0  0  0  0  0  0
  189.4370  175.3520  144.8580 C   0  0  2  0  0  0  0  0  0  0  0  0
  189.3110  174.5230  146.1250 C   0  0  0  0  0  2  0  0  0  0  0  0
  188.9800  176.8740  146.7260 C   0  0  0  0  0  2  0  0  0  0  0  0
  189.9980  177.8820  144.5090 C   0  0  0  0  0  1  0  0  0  0  0  0
  192.4630  176.0170  145.0550 O   0  0  0  0  0  0  0  0  0  0  0  0
  192.8500  176.1090  146.4230 C   0  0  0  0  0  2  0  0  0  0  0  0
  194.3570  176.2750  146.5220 C   0  0  0  0  0  2  0  0  0  0  0  0
  194.9340  176.6720  145.1730 C   0  0  0  0  0  2  0  0  0  0  0  0
  196.0820  174.4660  145.5000 C   0  0  0  0  0  1  0  0  0  0  0  0
  195.8830  175.6680  144.7070 N   0  0  0  0  0  0  0  0  0  0  0  0
  196.4150  176.8750  142.7750 O   0  0  0  0  0  0  0  0  0  0  0  0
  196.5790  175.8320  143.4640 C   0  0  0  0  0  0  0  0  0  0  0  0
  197.4420  174.8440  143.0080 O   0  0  0  0  0  1  0  0  0  0  0  0
  1  9  1  0  0  0  0
  2  7  1  0  0  0  0
  3 10  1  0  0  0  0
  4  3  1  0  0  0  0
  5 12  2  0  0  0  0
  5 20  1  0  0  0  0
  6  3  1  0  0  0  0
  6  9  2  0  0  0  0
  7  8  2  0  0  0  0
  7 12  1  0  0  0  0
  9  2  1  0  0  0  0
 10  2  2  0  0  0  0
 11 10  1  1  0  0  0
 11  5  1  0  0  0  0
 11 16  1  0  0  0  0
 13 15  1  0  0  0  0
 15 19  1  6  0  0  0
 15 18  1  0  0  0  0
 16 13  1  6  0  0  0
 16 15  1  0  0  0  0
 16 17  1  0  0  0  0
 17 14  1  0  0  0  0
 18 14  1  0  0  0  0
 20 21  1  0  0  0  0
 21 22  1  0  0  0  0
 23 22  1  0  0  0  0
 25 23  1  0  0  0  0
 25 24  1  0  0  0  0
 26 27  2  0  0  0  0
 27 25  1  0  0  0  0
 28 27  1  0  0  0  0
M  END
>  <MODEL>
8

>  <REMARK>
 VINA RESULT:      -6.0      3.197      5.107
  Name = 
  6 active torsions:
  status: ('A' for Active; 'I' for Inactive)
    1  A    between atoms: C_1  and  O_7
    2  A    between atoms: C_1  and  C_27
    3  A    between atoms: O_7  and  C_11
    4  A    between atoms: C_14  and  N_16
    5  A    between atoms: C_14  and  C_27
    6  A    between atoms: C_15  and  C_24
                            x       y       z     vdW  Elec       q    Type
                         _______ _______ _______ _____ _____    ______ ____

>  <TORSDO>
F 6

$$$$
=
 OpenBabel11062419553D

 28 31  0  0  1  0  0  0  0  0999 V2000
  196.9040  176.3680  142.3950 N   0  0  0  0  0  1  0  0  0  0  0  0
  194.5150  175.8740  142.9250 C   0  0  0  0  0  0  0  0  0  0  0  0
  194.7520  175.7240  145.1100 N   0  0  0  0  0  0  0  0  0  0  0  0
  194.4950  175.4770  146.5170 C   0  0  0  0  0  1  0  0  0  0  0  0
  191.8110  174.9510  142.7990 C   0  0  0  0  0  0  0  0  0  0  0  0
  195.9500  176.0210  144.6250 N   0  0  0  0  0  0  0  0  0  0  0  0
  193.8600  175.7060  141.6340 C   0  0  0  0  0  0  0  0  0  0  0  0
  194.4510  175.9600  140.5520 O   0  0  0  0  0  0  0  0  0  0  0  0
  195.8200  176.1220  143.2850 C   0  0  0  0  0  0  0  0  0  0  0  0
  193.8640  175.6270  144.0970 C   0  0  0  0  0  0  0  0  0  0  0  0
  192.3880  175.3160  144.1720 C   0  0  1  0  0  3  0  0  0  0  0  0
  192.4870  175.1750  141.6470 C   0  0  0  0  0  3  0  0  0  0  0  0
  191.6940  176.7550  146.2550 C   0  0  0  0  0  2  0  0  0  0  0  0
  189.7930  177.9410  144.0260 C   0  0  0  0  0  2  0  0  0  0  0  0
  190.4200  176.2270  145.6230 C   0  0  2  0  0  0  0  0  0  0  0  0
  191.6230  176.5160  144.7540 C   0  0  2  0  0  0  0  0  0  0  0  0
  191.2940  177.7300  143.9020 C   0  0  0  0  0  2  0  0  0  0  0  0
  189.3410  177.2360  145.2960 C   0  0  0  0  0  2  0  0  0  0  0  0
  190.0690  174.7840  145.9490 C   0  0  0  0  0  1  0  0  0  0  0  0
  190.5230  174.4010  142.7650 O   0  0  0  0  0  0  0  0  0  0  0  0
  189.5670  174.7060  141.7550 C   0  0  0  0  0  2  0  0  0  0  0  0
  188.2540  175.1220  142.3960 C   0  0  0  0  0  2  0  0  0  0  0  0
  187.4830  176.0460  141.4680 C   0  0  0  0  0  2  0  0  0  0  0  0
  186.2000  176.4200  143.5920 C   0  0  0  0  0  1  0  0  0  0  0  0
  186.4710  176.7880  142.2110 N   0  0  0  0  0  0  0  0  0  0  0  0
  186.0070  178.2130  140.4160 O   0  0  0  0  0  0  0  0  0  0  0  0
  185.7810  177.8940  141.6140 C   0  0  0  0  0  0  0  0  0  0  0  0
  184.8560  178.6230  142.3510 O   0  0  0  0  0  1  0  0  0  0  0  0
  1  9  1  0  0  0  0
  2  9  1  0  0  0  0
  2 10  2  0  0  0  0
  3  4  1  0  0  0  0
  6  3  1  0  0  0  0
  7 12  1  0  0  0  0
  7  2  1  0  0  0  0
  8  7  2  0  0  0  0
  9  6  2  0  0  0  0
 10 11  1  0  0  0  0
 10  3  1  0  0  0  0
 11  5  1  6  0  0  0
 11 16  1  0  0  0  0
 12  5  2  0  0  0  0
 14 18  1  0  0  0  0
 15 19  1  1  0  0  0
 15 13  1  0  0  0  0
 16 17  1  6  0  0  0
 16 15  1  0  0  0  0
 16 13  1  0  0  0  0
 17 14  1  0  0  0  0
 18 15  1  0  0  0  0
 20  5  1  0  0  0  0
 21 22  1  0  0  0  0
 21 20  1  0  0  0  0
 23 25  1  0  0  0  0
 23 22  1  0  0  0  0
 25 24  1  0  0  0  0
 26 27  2  0  0  0  0
 27 25  1  0  0  0  0
 27 28  1  0  0  0  0
M  END
>  <MODEL>
9

>  <REMARK>
 VINA RESULT:      -6.0      2.615      7.799
  Name = 
  6 active torsions:
  status: ('A' for Active; 'I' for Inactive)
    1  A    between atoms: C_1  and  O_7
    2  A    between atoms: C_1  and  C_27
    3  A    between atoms: O_7  and  C_11
    4  A    between atoms: C_14  and  N_16
    5  A    between atoms: C_14  and  C_27
    6  A    between atoms: C_15  and  C_24
                            x       y       z     vdW  Elec       q    Type
                         _______ _______ _______ _____ _____    ______ ____

>  <TORSDO>
F 6

$$$$
