=
 OpenBabel11072408423D

 36 39  0  0  1  0  0  0  0  0999 V2000
  187.7490  177.5680  145.4050 C   0  0  0  0  0  3  0  0  0  0  0  0
  188.8930  176.8970  145.5920 C   0  0  0  0  0  0  0  0  0  0  0  0
  185.7710  177.1760  146.7960 C   0  0  0  0  0  0  0  0  0  0  0  0
  184.4950  178.3300  144.5590 C   0  0  0  0  0  0  0  0  0  0  0  0
  184.1500  178.7120  145.9330 C   0  0  0  0  0  3  0  0  0  0  0  0
  183.7510  178.8370  143.4910 C   0  0  0  0  0  3  0  0  0  0  0  0
  184.0350  178.4370  142.1810 C   0  0  0  0  0  0  0  0  0  0  0  0
  184.7430  178.1640  146.9500 N   0  0  0  0  0  0  0  0  0  0  0  0
  185.8210  177.0210  143.0070 C   0  0  0  0  0  3  0  0  0  0  0  0
  185.0710  177.5260  141.9410 C   0  0  0  0  0  3  0  0  0  0  0  0
  186.1750  176.5400  147.8030 O   0  0  0  0  0  0  0  0  0  0  0  0
  186.3990  176.9150  145.4510 C   0  0  1  0  0  3  0  0  0  0  0  0
  185.5430  177.4220  144.3210 C   0  0  0  0  0  0  0  0  0  0  0  0
  183.2620  179.0040  141.0390 C   0  0  0  0  0  2  0  0  0  0  0  0
  182.9220  177.1120  139.6420 O   0  0  0  0  0  0  0  0  0  0  0  0
  178.7670  178.5880  141.6240 C   0  0  0  0  0  1  0  0  0  0  0  0
  180.2460  178.6990  141.5820 C   0  0  0  0  0  0  0  0  0  0  0  0
  180.9810  177.8980  140.6500 N   0  0  0  0  0  2  0  0  0  0  0  0
  182.3960  177.9520  140.4200 C   0  0  0  0  0  0  0  0  0  0  0  0
  180.8320  179.4780  142.3800 O   0  0  0  0  0  0  0  0  0  0  0  0
  190.3740  178.2160  144.2910 O   0  0  0  0  0  1  0  0  0  0  0  0
  190.1880  177.6430  145.5500 C   0  0  0  0  0  2  0  0  0  0  0  0
  188.9130  175.4130  145.8270 C   0  0  0  0  0  2  0  0  0  0  0  0
  188.9100  174.9850  143.5130 O   0  0  0  0  0  0  0  0  0  0  0  0
  189.3800  174.6950  144.6020 C   0  0  0  0  0  0  0  0  0  0  0  0
  190.4250  173.6280  144.7260 C   0  0  1  0  0  3  0  0  0  0  0  0
  189.7990  172.2400  144.8120 C   0  0  0  0  0  1  0  0  0  0  0  0
  193.6250  176.6490  144.7900 N   0  0  0  0  0  2  0  0  0  0  0  0
  191.4660  173.7710  143.6950 N   0  0  0  0  0  0  0  0  0  0  0  0
  193.0540  175.3190  144.7730 C   0  0  2  0  0  3  0  0  0  0  0  0
  192.5010  172.7080  143.7070 C   0  0  0  0  0  2  0  0  0  0  0  0
  194.1710  174.3670  144.5100 C   0  0  1  0  0  3  0  0  0  0  0  0
  194.8150  176.5560  145.6380 C   0  0  0  0  0  2  0  0  0  0  0  0
  195.4370  174.8350  145.6940 S   0  0  0  0  0  0  0  0  0  0  0  0
  193.6450  172.9590  144.7070 C   0  0  0  0  0  2  0  0  0  0  0  0
  192.0110  175.1390  143.6810 C   0  0  0  0  0  2  0  0  0  0  0  0
  1  2  2  0  0  0  0
  2 23  1  0  0  0  0
  3  8  1  0  0  0  0
  3 11  2  0  0  0  0
  4  5  1  0  0  0  0
  5  8  2  0  0  0  0
  6  4  2  0  0  0  0
  7  6  1  0  0  0  0
  9 13  2  0  0  0  0
 10  7  2  0  0  0  0
 10  9  1  0  0  0  0
 12  1  1  1  0  0  0
 12  3  1  0  0  0  0
 13  4  1  0  0  0  0
 13 12  1  0  0  0  0
 14  7  1  0  0  0  0
 15 19  2  0  0  0  0
 17 16  1  0  0  0  0
 17 20  2  0  0  0  0
 18 17  1  0  0  0  0
 19 18  1  0  0  0  0
 19 14  1  0  0  0  0
 21 22  1  0  0  0  0
 22  2  1  0  0  0  0
 24 25  2  0  0  0  0
 25 26  1  0  0  0  0
 25 23  1  0  0  0  0
 26 27  1  6  0  0  0
 28 33  1  0  0  0  0
 29 31  1  0  0  0  0
 29 26  1  0  0  0  0
 30 36  1  6  0  0  0
 30 28  1  0  0  0  0
 31 35  1  0  0  0  0
 32 35  1  1  0  0  0
 32 30  1  0  0  0  0
 32 34  1  0  0  0  0
 33 34  1  0  0  0  0
 36 29  1  0  0  0  0
M  END
>  <MODEL>
1

>  <REMARK>
 VINA RESULT:      -7.8      0.000      0.000
  Name = 
  8 active torsions:
  status: ('A' for Active; 'I' for Inactive)
    1  A    between atoms: N_8  and  C_12
    2  A    between atoms: C_9  and  C_15
    3  A    between atoms: C_9  and  C_28
    4  A    between atoms: C_12  and  C_36
    5  A    between atoms: C_16  and  C_32
    6  A    between atoms: C_18  and  C_25
    7  A    between atoms: C_25  and  C_31
    8  A    between atoms: C_31  and  C_36
                            x       y       z     vdW  Elec       q    Type
                         _______ _______ _______ _____ _____    ______ ____

>  <TORSDO>
F 8

$$$$
=
 OpenBabel11072408423D

 36 39  0  0  1  0  0  0  0  0999 V2000
  191.0070  176.3550  146.1340 C   0  0  0  0  0  3  0  0  0  0  0  0
  192.2160  175.8100  146.3170 C   0  0  0  0  0  0  0  0  0  0  0  0
  188.9460  175.2790  146.9040 C   0  0  0  0  0  0  0  0  0  0  0  0
  187.8360  176.9500  144.9180 C   0  0  0  0  0  0  0  0  0  0  0  0
  187.2220  176.8030  146.2430 C   0  0  0  0  0  3  0  0  0  0  0  0
  187.1840  177.6890  143.9290 C   0  0  0  0  0  3  0  0  0  0  0  0
  187.7320  177.7900  142.6470 C   0  0  0  0  0  0  0  0  0  0  0  0
  187.7430  176.0240  147.1410 N   0  0  0  0  0  0  0  0  0  0  0  0
  189.6000  176.4100  143.3440 C   0  0  0  0  0  3  0  0  0  0  0  0
  188.9410  177.1470  142.3550 C   0  0  0  0  0  3  0  0  0  0  0  0
  189.3000  174.3980  147.7280 O   0  0  0  0  0  0  0  0  0  0  0  0
  189.8080  175.5640  145.7020 C   0  0  1  0  0  3  0  0  0  0  0  0
  189.0560  176.3100  144.6320 C   0  0  0  0  0  0  0  0  0  0  0  0
  187.0510  178.6060  141.6010 C   0  0  0  0  0  2  0  0  0  0  0  0
  186.9910  177.0460  139.8100 O   0  0  0  0  0  0  0  0  0  0  0  0
  182.5300  178.1840  141.2860 C   0  0  0  0  0  1  0  0  0  0  0  0
  183.9910  178.2670  141.5300 C   0  0  0  0  0  0  0  0  0  0  0  0
  184.8910  177.6550  140.5980 N   0  0  0  0  0  2  0  0  0  0  0  0
  186.3230  177.7220  140.6380 C   0  0  0  0  0  0  0  0  0  0  0  0
  184.4150  178.8540  142.5600 O   0  0  0  0  0  0  0  0  0  0  0  0
  194.0410  177.1800  145.6710 O   0  0  0  0  0  1  0  0  0  0  0  0
  193.3440  176.6790  146.7730 C   0  0  0  0  0  2  0  0  0  0  0  0
  192.4760  174.3520  146.0640 C   0  0  0  0  0  2  0  0  0  0  0  0
  194.4520  173.8320  144.8980 O   0  0  0  0  0  0  0  0  0  0  0  0
  193.2820  174.1720  144.8190 C   0  0  0  0  0  0  0  0  0  0  0  0
  192.6420  174.4090  143.4850 C   0  0  1  0  0  3  0  0  0  0  0  0
  193.3500  175.5190  142.7150 C   0  0  0  0  0  1  0  0  0  0  0  0
  188.7810  172.4270  142.7490 N   0  0  0  0  0  2  0  0  0  0  0  0
  192.4720  173.1530  142.7370 N   0  0  0  0  0  0  0  0  0  0  0  0
  190.0300  173.0740  142.4030 C   0  0  2  0  0  3  0  0  0  0  0  0
  192.6640  173.2710  141.2700 C   0  0  0  0  0  2  0  0  0  0  0  0
  190.2290  172.8850  140.9380 C   0  0  1  0  0  3  0  0  0  0  0  0
  187.8150  172.8750  141.7450 C   0  0  0  0  0  2  0  0  0  0  0  0
  188.6700  173.3970  140.2120 S   0  0  0  0  0  0  0  0  0  0  0  0
  191.4080  173.7370  140.5110 C   0  0  0  0  0  2  0  0  0  0  0  0
  191.2250  172.4710  143.1260 C   0  0  0  0  0  2  0  0  0  0  0  0
  1  2  2  0  0  0  0
  2 22  1  0  0  0  0
  3  8  1  0  0  0  0
  3 11  2  0  0  0  0
  4  5  1  0  0  0  0
  5  8  2  0  0  0  0
  6  4  2  0  0  0  0
  7  6  1  0  0  0  0
  9 13  2  0  0  0  0
 10  7  2  0  0  0  0
 10  9  1  0  0  0  0
 12  1  1  1  0  0  0
 12  3  1  0  0  0  0
 13  4  1  0  0  0  0
 13 12  1  0  0  0  0
 14  7  1  0  0  0  0
 15 19  2  0  0  0  0
 16 17  1  0  0  0  0
 17 20  2  0  0  0  0
 18 19  1  0  0  0  0
 18 17  1  0  0  0  0
 19 14  1  0  0  0  0
 21 22  1  0  0  0  0
 23  2  1  0  0  0  0
 25 24  2  0  0  0  0
 25 23  1  0  0  0  0
 26 27  1  6  0  0  0
 26 25  1  0  0  0  0
 29 36  1  0  0  0  0
 29 26  1  0  0  0  0
 30 28  1  0  0  0  0
 30 36  1  1  0  0  0
 31 29  1  0  0  0  0
 32 35  1  6  0  0  0
 32 30  1  0  0  0  0
 33 28  1  0  0  0  0
 34 32  1  0  0  0  0
 34 33  1  0  0  0  0
 35 31  1  0  0  0  0
M  END
>  <MODEL>
2

>  <REMARK>
 VINA RESULT:      -7.7      2.985      4.412
  Name = 
  8 active torsions:
  status: ('A' for Active; 'I' for Inactive)
    1  A    between atoms: N_8  and  C_12
    2  A    between atoms: C_9  and  C_15
    3  A    between atoms: C_9  and  C_28
    4  A    between atoms: C_12  and  C_36
    5  A    between atoms: C_16  and  C_32
    6  A    between atoms: C_18  and  C_25
    7  A    between atoms: C_25  and  C_31
    8  A    between atoms: C_31  and  C_36
                            x       y       z     vdW  Elec       q    Type
                         _______ _______ _______ _____ _____    ______ ____

>  <TORSDO>
F 8

$$$$
=
 OpenBabel11072408423D

 36 39  0  0  1  0  0  0  0  0999 V2000
  190.0990  174.7830  144.5150 C   0  0  0  0  0  3  0  0  0  0  0  0
  189.6820  174.3790  143.3090 C   0  0  0  0  0  0  0  0  0  0  0  0
  190.3010  176.6540  146.0830 C   0  0  0  0  0  0  0  0  0  0  0  0
  193.0350  175.9910  145.8590 C   0  0  0  0  0  0  0  0  0  0  0  0
  192.4080  176.2800  147.1550 C   0  0  0  0  0  3  0  0  0  0  0  0
  194.4150  175.7900  145.7860 C   0  0  0  0  0  3  0  0  0  0  0  0
  195.0310  175.5700  144.5500 C   0  0  0  0  0  0  0  0  0  0  0  0
  191.1500  176.5900  147.2360 N   0  0  0  0  0  0  0  0  0  0  0  0
  192.8760  175.7440  143.4520 C   0  0  0  0  0  3  0  0  0  0  0  0
  194.2600  175.5490  143.3820 C   0  0  0  0  0  3  0  0  0  0  0  0
  189.1470  177.1430  146.1890 O   0  0  0  0  0  0  0  0  0  0  0  0
  190.7570  176.1090  144.7540 C   0  0  1  0  0  3  0  0  0  0  0  0
  192.2540  175.9620  144.6890 C   0  0  0  0  0  0  0  0  0  0  0  0
  196.5000  175.3230  144.4770 C   0  0  0  0  0  2  0  0  0  0  0  0
  196.9060  174.2690  142.3870 O   0  0  0  0  0  0  0  0  0  0  0  0
  196.8950  171.0490  145.9930 C   0  0  0  0  0  1  0  0  0  0  0  0
  196.8870  172.4760  145.5850 C   0  0  0  0  0  0  0  0  0  0  0  0
  196.8870  172.8040  144.1910 N   0  0  0  0  0  2  0  0  0  0  0  0
  196.7880  174.1220  143.6320 C   0  0  0  0  0  0  0  0  0  0  0  0
  196.9020  173.3730  146.4680 O   0  0  0  0  0  0  0  0  0  0  0  0
  189.5060  172.1660  144.1410 O   0  0  0  0  0  1  0  0  0  0  0  0
  189.0150  173.0470  143.1770 C   0  0  0  0  0  2  0  0  0  0  0  0
  189.8780  175.2210  142.0790 C   0  0  0  0  0  2  0  0  0  0  0  0
  187.9580  175.2490  140.7210 O   0  0  0  0  0  0  0  0  0  0  0  0
  188.5750  175.7930  141.6230 C   0  0  0  0  0  0  0  0  0  0  0  0
  188.0400  177.0280  142.2810 C   0  0  1  0  0  3  0  0  0  0  0  0
  188.6990  178.2870  141.7270 C   0  0  0  0  0  1  0  0  0  0  0  0
  185.5000  176.4770  145.8330 N   0  0  0  0  0  2  0  0  0  0  0  0
  186.5680  177.0490  142.2720 N   0  0  0  0  0  0  0  0  0  0  0  0
  186.0370  177.1650  144.6770 C   0  0  2  0  0  3  0  0  0  0  0  0
  185.9660  178.3910  142.0790 C   0  0  0  0  0  2  0  0  0  0  0  0
  185.1730  178.3550  144.4360 C   0  0  1  0  0  3  0  0  0  0  0  0
  185.2690  177.5160  146.8380 C   0  0  0  0  0  2  0  0  0  0  0  0
  185.0630  179.1520  146.0410 S   0  0  0  0  0  0  0  0  0  0  0  0
  185.8370  179.2110  143.3770 C   0  0  0  0  0  2  0  0  0  0  0  0
  186.0220  176.3060  143.4220 C   0  0  0  0  0  2  0  0  0  0  0  0
  2  1  2  0  0  0  0
  3 11  2  0  0  0  0
  3  8  1  0  0  0  0
  4  5  1  0  0  0  0
  5  8  2  0  0  0  0
  6  4  1  0  0  0  0
  7  6  2  0  0  0  0
  9 13  1  0  0  0  0
 10  9  2  0  0  0  0
 10  7  1  0  0  0  0
 12  1  1  1  0  0  0
 12  3  1  0  0  0  0
 13 12  1  0  0  0  0
 13  4  2  0  0  0  0
 14  7  1  0  0  0  0
 15 19  2  0  0  0  0
 17 16  1  0  0  0  0
 17 20  2  0  0  0  0
 18 17  1  0  0  0  0
 19 18  1  0  0  0  0
 19 14  1  0  0  0  0
 22  2  1  0  0  0  0
 22 21  1  0  0  0  0
 23  2  1  0  0  0  0
 24 25  2  0  0  0  0
 25 23  1  0  0  0  0
 25 26  1  0  0  0  0
 26 27  1  6  0  0  0
 28 33  1  0  0  0  0
 29 26  1  0  0  0  0
 29 36  1  0  0  0  0
 30 36  1  6  0  0  0
 30 28  1  0  0  0  0
 31 29  1  0  0  0  0
 31 35  1  0  0  0  0
 32 35  1  6  0  0  0
 32 30  1  0  0  0  0
 32 34  1  0  0  0  0
 34 33  1  0  0  0  0
M  END
>  <MODEL>
3

>  <REMARK>
 VINA RESULT:      -7.5      3.679      9.966
  Name = 
  8 active torsions:
  status: ('A' for Active; 'I' for Inactive)
    1  A    between atoms: N_8  and  C_12
    2  A    between atoms: C_9  and  C_15
    3  A    between atoms: C_9  and  C_28
    4  A    between atoms: C_12  and  C_36
    5  A    between atoms: C_16  and  C_32
    6  A    between atoms: C_18  and  C_25
    7  A    between atoms: C_25  and  C_31
    8  A    between atoms: C_31  and  C_36
                            x       y       z     vdW  Elec       q    Type
                         _______ _______ _______ _____ _____    ______ ____

>  <TORSDO>
F 8

$$$$
=
 OpenBabel11072408423D

 36 39  0  0  1  0  0  0  0  0999 V2000
  191.0910  174.9300  144.4750 C   0  0  0  0  0  3  0  0  0  0  0  0
  192.0890  175.4870  145.1730 C   0  0  0  0  0  0  0  0  0  0  0  0
  190.6970  174.2370  142.1590 C   0  0  0  0  0  0  0  0  0  0  0  0
  188.1800  175.3990  142.6880 C   0  0  0  0  0  0  0  0  0  0  0  0
  188.3120  174.1120  141.9950 C   0  0  0  0  0  3  0  0  0  0  0  0
  186.9220  175.9920  142.8160 C   0  0  0  0  0  3  0  0  0  0  0  0
  186.7920  177.2440  143.4250 C   0  0  0  0  0  0  0  0  0  0  0  0
  189.4800  173.5970  141.7550 N   0  0  0  0  0  0  0  0  0  0  0  0
  189.1880  177.3110  143.7870 C   0  0  0  0  0  3  0  0  0  0  0  0
  187.9270  177.9050  143.9090 C   0  0  0  0  0  3  0  0  0  0  0  0
  191.7980  173.7990  141.7360 O   0  0  0  0  0  0  0  0  0  0  0  0
  190.6790  175.4030  143.1130 C   0  0  1  0  0  3  0  0  0  0  0  0
  189.3230  176.0550  143.1810 C   0  0  0  0  0  0  0  0  0  0  0  0
  185.4440  177.8620  143.5900 C   0  0  0  0  0  2  0  0  0  0  0  0
  185.5560  180.2170  143.8810 O   0  0  0  0  0  0  0  0  0  0  0  0
  185.7470  177.9220  148.1320 C   0  0  0  0  0  1  0  0  0  0  0  0
  185.5130  177.8360  146.6690 C   0  0  0  0  0  0  0  0  0  0  0  0
  185.6350  179.0190  145.8710 N   0  0  0  0  0  2  0  0  0  0  0  0
  185.5320  179.0890  144.4420 C   0  0  0  0  0  0  0  0  0  0  0  0
  185.1910  176.7310  146.1570 O   0  0  0  0  0  0  0  0  0  0  0  0
  191.4940  175.3220  147.4630 O   0  0  0  0  0  1  0  0  0  0  0  0
  192.4400  174.9270  146.5140 C   0  0  0  0  0  2  0  0  0  0  0  0
  192.8570  176.6690  144.6520 C   0  0  0  0  0  2  0  0  0  0  0  0
  194.9130  177.2220  145.6540 O   0  0  0  0  0  0  0  0  0  0  0  0
  194.3220  176.4830  144.8820 C   0  0  0  0  0  0  0  0  0  0  0  0
  195.0490  175.3890  144.1610 C   0  0  1  0  0  3  0  0  0  0  0  0
  194.8960  175.5160  142.6500 C   0  0  0  0  0  1  0  0  0  0  0  0
  196.7330  171.8220  146.1150 N   0  0  0  0  0  2  0  0  0  0  0  0
  196.4390  175.2650  144.6310 N   0  0  0  0  0  0  0  0  0  0  0  0
  196.6140  172.8520  145.1040 C   0  0  2  0  0  3  0  0  0  0  0  0
  197.4490  175.1230  143.5530 C   0  0  0  0  0  2  0  0  0  0  0  0
  197.8300  172.7650  144.2470 C   0  0  1  0  0  3  0  0  0  0  0  0
  197.1210  170.6070  145.3960 C   0  0  0  0  0  2  0  0  0  0  0  0
  197.9410  171.0270  143.8130 S   0  0  0  0  0  0  0  0  0  0  0  0
  197.6300  173.6780  143.0530 C   0  0  0  0  0  2  0  0  0  0  0  0
  196.5490  174.2520  145.6940 C   0  0  0  0  0  2  0  0  0  0  0  0
  1  2  2  0  0  0  0
  2 22  1  0  0  0  0
  3 12  1  0  0  0  0
  4  6  2  0  0  0  0
  4 13  1  0  0  0  0
  5  4  1  0  0  0  0
  6  7  1  0  0  0  0
  7 14  1  0  0  0  0
  7 10  2  0  0  0  0
  8  5  2  0  0  0  0
  8  3  1  0  0  0  0
  9 10  1  0  0  0  0
 11  3  2  0  0  0  0
 12 13  1  0  0  0  0
 12  1  1  1  0  0  0
 13  9  2  0  0  0  0
 14 19  1  0  0  0  0
 15 19  2  0  0  0  0
 17 16  1  0  0  0  0
 18 17  1  0  0  0  0
 19 18  1  0  0  0  0
 20 17  2  0  0  0  0
 22 21  1  0  0  0  0
 23 25  1  0  0  0  0
 23  2  1  0  0  0  0
 25 24  2  0  0  0  0
 26 27  1  6  0  0  0
 26 29  1  0  0  0  0
 26 25  1  0  0  0  0
 29 36  1  0  0  0  0
 30 36  1  1  0  0  0
 30 28  1  0  0  0  0
 31 29  1  0  0  0  0
 32 35  1  6  0  0  0
 32 30  1  0  0  0  0
 33 28  1  0  0  0  0
 34 32  1  0  0  0  0
 34 33  1  0  0  0  0
 35 31  1  0  0  0  0
M  END
>  <MODEL>
4

>  <REMARK>
 VINA RESULT:      -7.4      3.237      5.648
  Name = 
  8 active torsions:
  status: ('A' for Active; 'I' for Inactive)
    1  A    between atoms: N_8  and  C_12
    2  A    between atoms: C_9  and  C_15
    3  A    between atoms: C_9  and  C_28
    4  A    between atoms: C_12  and  C_36
    5  A    between atoms: C_16  and  C_32
    6  A    between atoms: C_18  and  C_25
    7  A    between atoms: C_25  and  C_31
    8  A    between atoms: C_31  and  C_36
                            x       y       z     vdW  Elec       q    Type
                         _______ _______ _______ _____ _____    ______ ____

>  <TORSDO>
F 8

$$$$
=
 OpenBabel11072408423D

 36 39  0  0  1  0  0  0  0  0999 V2000
  192.5860  175.0150  146.0980 C   0  0  0  0  0  3  0  0  0  0  0  0
  191.3090  175.3690  145.9060 C   0  0  0  0  0  0  0  0  0  0  0  0
  194.7900  175.6130  145.2130 C   0  0  0  0  0  0  0  0  0  0  0  0
  195.1070  172.8090  145.2820 C   0  0  0  0  0  0  0  0  0  0  0  0
  196.1560  173.7220  145.7500 C   0  0  0  0  0  3  0  0  0  0  0  0
  195.3580  171.4370  145.2210 C   0  0  0  0  0  3  0  0  0  0  0  0
  194.3850  170.5630  144.7240 C   0  0  0  0  0  0  0  0  0  0  0  0
  195.9950  175.0090  145.7040 N   0  0  0  0  0  0  0  0  0  0  0  0
  192.8970  172.4410  144.3530 C   0  0  0  0  0  3  0  0  0  0  0  0
  193.1540  171.0680  144.2880 C   0  0  0  0  0  3  0  0  0  0  0  0
  194.7580  176.8530  145.0090 O   0  0  0  0  0  0  0  0  0  0  0  0
  193.5530  174.7870  144.9740 C   0  0  1  0  0  3  0  0  0  0  0  0
  193.8680  173.3200  144.8540 C   0  0  0  0  0  0  0  0  0  0  0  0
  194.6420  169.0940  144.6890 C   0  0  0  0  0  2  0  0  0  0  0  0
  192.9910  168.1660  146.1230 O   0  0  0  0  0  0  0  0  0  0  0  0
  197.3380  168.1690  148.2380 C   0  0  0  0  0  1  0  0  0  0  0  0
  196.5450  168.3740  147.0010 C   0  0  0  0  0  0  0  0  0  0  0  0
  195.1230  168.2080  147.0470 N   0  0  0  0  0  2  0  0  0  0  0  0
  194.2070  168.4570  145.9710 C   0  0  0  0  0  0  0  0  0  0  0  0
  197.1350  168.6690  145.9280 O   0  0  0  0  0  0  0  0  0  0  0  0
  189.3490  174.7120  147.0680 O   0  0  0  0  0  1  0  0  0  0  0  0
  190.4300  175.5960  147.0930 C   0  0  0  0  0  2  0  0  0  0  0  0
  190.7300  175.5310  144.5280 C   0  0  0  0  0  2  0  0  0  0  0  0
  191.5050  177.7390  144.2920 O   0  0  0  0  0  0  0  0  0  0  0  0
  190.5550  176.9780  144.2010 C   0  0  0  0  0  0  0  0  0  0  0  0
  189.2120  177.4770  143.7600 C   0  0  1  0  0  3  0  0  0  0  0  0
  189.2410  177.9590  142.3140 C   0  0  0  0  0  1  0  0  0  0  0  0
  185.6500  178.3330  146.2010 N   0  0  0  0  0  2  0  0  0  0  0  0
  188.1490  176.5060  144.0640 N   0  0  0  0  0  0  0  0  0  0  0  0
  186.3870  177.9440  145.0170 C   0  0  2  0  0  3  0  0  0  0  0  0
  187.2600  176.1800  142.9220 C   0  0  0  0  0  2  0  0  0  0  0  0
  185.4000  177.3870  144.0500 C   0  0  1  0  0  3  0  0  0  0  0  0
  184.4920  179.0850  145.7150 C   0  0  0  0  0  2  0  0  0  0  0  0
  184.0980  178.6210  143.9880 S   0  0  0  0  0  0  0  0  0  0  0  0
  186.1050  177.1800  142.7240 C   0  0  0  0  0  2  0  0  0  0  0  0
  187.4320  176.8750  145.2970 C   0  0  0  0  0  2  0  0  0  0  0  0
  2  1  2  0  0  0  0
  2 22  1  0  0  0  0
  3  8  1  0  0  0  0
  4  5  1  0  0  0  0
  6  4  1  0  0  0  0
  7  6  2  0  0  0  0
  8  5  2  0  0  0  0
  9 13  1  0  0  0  0
 10  9  2  0  0  0  0
 10  7  1  0  0  0  0
 11  3  2  0  0  0  0
 12  3  1  0  0  0  0
 12  1  1  1  0  0  0
 13 12  1  0  0  0  0
 13  4  2  0  0  0  0
 14  7  1  0  0  0  0
 14 19  1  0  0  0  0
 17 18  1  0  0  0  0
 17 16  1  0  0  0  0
 19 15  2  0  0  0  0
 19 18  1  0  0  0  0
 20 17  2  0  0  0  0
 21 22  1  0  0  0  0
 23  2  1  0  0  0  0
 25 24  2  0  0  0  0
 25 23  1  0  0  0  0
 26 27  1  6  0  0  0
 26 29  1  0  0  0  0
 26 25  1  0  0  0  0
 29 36  1  0  0  0  0
 30 36  1  1  0  0  0
 30 28  1  0  0  0  0
 31 29  1  0  0  0  0
 32 35  1  6  0  0  0
 32 30  1  0  0  0  0
 33 28  1  0  0  0  0
 34 32  1  0  0  0  0
 34 33  1  0  0  0  0
 35 31  1  0  0  0  0
M  END
>  <MODEL>
5

>  <REMARK>
 VINA RESULT:      -7.2      4.213     11.114
  Name = 
  8 active torsions:
  status: ('A' for Active; 'I' for Inactive)
    1  A    between atoms: N_8  and  C_12
    2  A    between atoms: C_9  and  C_15
    3  A    between atoms: C_9  and  C_28
    4  A    between atoms: C_12  and  C_36
    5  A    between atoms: C_16  and  C_32
    6  A    between atoms: C_18  and  C_25
    7  A    between atoms: C_25  and  C_31
    8  A    between atoms: C_31  and  C_36
                            x       y       z     vdW  Elec       q    Type
                         _______ _______ _______ _____ _____    ______ ____

>  <TORSDO>
F 8

$$$$
=
 OpenBabel11072408423D

 36 39  0  0  1  0  0  0  0  0999 V2000
  190.8930  176.4640  145.3830 C   0  0  0  0  0  3  0  0  0  0  0  0
  192.0990  176.0460  144.9780 C   0  0  0  0  0  0  0  0  0  0  0  0
  189.2150  175.0140  146.4230 C   0  0  0  0  0  0  0  0  0  0  0  0
  187.4890  177.0110  145.4240 C   0  0  0  0  0  0  0  0  0  0  0  0
  187.3440  176.4640  146.7780 C   0  0  0  0  0  3  0  0  0  0  0  0
  186.5370  177.9070  144.9320 C   0  0  0  0  0  3  0  0  0  0  0  0
  186.6350  178.3910  143.6230 C   0  0  0  0  0  0  0  0  0  0  0  0
  188.1440  175.5400  147.2170 N   0  0  0  0  0  0  0  0  0  0  0  0
  188.6510  177.0850  143.2970 C   0  0  0  0  0  3  0  0  0  0  0  0
  187.6930  177.9770  142.8050 C   0  0  0  0  0  3  0  0  0  0  0  0
  189.8340  173.9930  146.8170 O   0  0  0  0  0  0  0  0  0  0  0  0
  189.6320  175.6880  145.1420 C   0  0  1  0  0  3  0  0  0  0  0  0
  188.5590  176.6000  144.6080 C   0  0  0  0  0  0  0  0  0  0  0  0
  185.6360  179.3730  143.1100 C   0  0  0  0  0  2  0  0  0  0  0  0
  183.8160  178.9880  144.5880 O   0  0  0  0  0  0  0  0  0  0  0  0
  182.7550  177.5410  140.0990 C   0  0  0  0  0  1  0  0  0  0  0  0
  183.6910  178.2650  140.9960 C   0  0  0  0  0  0  0  0  0  0  0  0
  183.4040  178.3300  142.3970 N   0  0  0  0  0  2  0  0  0  0  0  0
  184.2450  178.9070  143.4060 C   0  0  0  0  0  0  0  0  0  0  0  0
  184.7070  178.8250  140.5080 O   0  0  0  0  0  0  0  0  0  0  0  0
  194.4570  176.1000  145.2260 O   0  0  0  0  0  1  0  0  0  0  0  0
  193.3000  176.8800  145.2880 C   0  0  0  0  0  2  0  0  0  0  0  0
  192.2780  174.7680  144.2070 C   0  0  0  0  0  2  0  0  0  0  0  0
  192.1400  176.1800  142.3300 O   0  0  0  0  0  0  0  0  0  0  0  0
  192.2200  175.0310  142.7370 C   0  0  0  0  0  0  0  0  0  0  0  0
  192.2630  173.8800  141.7790 C   0  0  1  0  0  3  0  0  0  0  0  0
  193.6000  173.1510  141.8410 C   0  0  0  0  0  1  0  0  0  0  0  0
  188.4590  174.4390  139.6350 N   0  0  0  0  0  2  0  0  0  0  0  0
  191.0820  173.0130  141.9240 N   0  0  0  0  0  0  0  0  0  0  0  0
  189.6650  173.7500  140.0450 C   0  0  2  0  0  3  0  0  0  0  0  0
  191.2120  171.6750  141.2960 C   0  0  0  0  0  2  0  0  0  0  0  0
  189.5420  172.3400  139.5760 C   0  0  1  0  0  3  0  0  0  0  0  0
  188.2550  174.0770  138.2320 C   0  0  0  0  0  2  0  0  0  0  0  0
  189.0820  172.4880  137.8470 S   0  0  0  0  0  0  0  0  0  0  0  0
  190.8770  171.6550  139.7930 C   0  0  0  0  0  2  0  0  0  0  0  0
  189.8500  173.7330  141.5540 C   0  0  0  0  0  2  0  0  0  0  0  0
  2 22  1  0  0  0  0
  2  1  2  0  0  0  0
  3 11  2  0  0  0  0
  3  8  1  0  0  0  0
  4  5  1  0  0  0  0
  5  8  2  0  0  0  0
  6  4  1  0  0  0  0
  7  6  2  0  0  0  0
  9 13  1  0  0  0  0
 10  9  2  0  0  0  0
 10  7  1  0  0  0  0
 12  1  1  1  0  0  0
 12  3  1  0  0  0  0
 13 12  1  0  0  0  0
 13  4  2  0  0  0  0
 14 19  1  0  0  0  0
 14  7  1  0  0  0  0
 16 17  1  0  0  0  0
 17 18  1  0  0  0  0
 18 19  1  0  0  0  0
 19 15  2  0  0  0  0
 20 17  2  0  0  0  0
 21 22  1  0  0  0  0
 23  2  1  0  0  0  0
 24 25  2  0  0  0  0
 25 23  1  0  0  0  0
 26 27  1  1  0  0  0
 26 29  1  0  0  0  0
 26 25  1  0  0  0  0
 28 30  1  0  0  0  0
 30 36  1  1  0  0  0
 31 29  1  0  0  0  0
 32 35  1  6  0  0  0
 32 30  1  0  0  0  0
 33 28  1  0  0  0  0
 34 33  1  0  0  0  0
 34 32  1  0  0  0  0
 35 31  1  0  0  0  0
 36 29  1  0  0  0  0
M  END
>  <MODEL>
6

>  <REMARK>
 VINA RESULT:      -7.1      3.311      4.702
  Name = 
  8 active torsions:
  status: ('A' for Active; 'I' for Inactive)
    1  A    between atoms: N_8  and  C_12
    2  A    between atoms: C_9  and  C_15
    3  A    between atoms: C_9  and  C_28
    4  A    between atoms: C_12  and  C_36
    5  A    between atoms: C_16  and  C_32
    6  A    between atoms: C_18  and  C_25
    7  A    between atoms: C_25  and  C_31
    8  A    between atoms: C_31  and  C_36
                            x       y       z     vdW  Elec       q    Type
                         _______ _______ _______ _____ _____    ______ ____

>  <TORSDO>
F 8

$$$$
=
 OpenBabel11072408423D

 36 39  0  0  1  0  0  0  0  0999 V2000
  189.9050  175.7750  143.7480 C   0  0  0  0  0  3  0  0  0  0  0  0
  189.6270  176.5420  144.8100 C   0  0  0  0  0  0  0  0  0  0  0  0
  188.4790  174.3730  142.3350 C   0  0  0  0  0  0  0  0  0  0  0  0
  190.8270  172.8080  142.2540 C   0  0  0  0  0  0  0  0  0  0  0  0
  190.0350  173.0840  141.0500 C   0  0  0  0  0  3  0  0  0  0  0  0
  191.9100  171.9290  142.1850 C   0  0  0  0  0  3  0  0  0  0  0  0
  192.6370  171.6150  143.3380 C   0  0  0  0  0  0  0  0  0  0  0  0
  188.9530  173.8000  141.1090 N   0  0  0  0  0  0  0  0  0  0  0  0
  191.1990  173.0730  144.6360 C   0  0  0  0  0  3  0  0  0  0  0  0
  192.2790  172.1880  144.5640 C   0  0  0  0  0  3  0  0  0  0  0  0
  187.3330  174.8900  142.3750 O   0  0  0  0  0  0  0  0  0  0  0  0
  189.3480  174.3950  143.5660 C   0  0  1  0  0  3  0  0  0  0  0  0
  190.4690  173.3930  143.4830 C   0  0  0  0  0  0  0  0  0  0  0  0
  193.8130  170.7010  143.2580 C   0  0  0  0  0  2  0  0  0  0  0  0
  195.4850  172.3880  143.1880 O   0  0  0  0  0  0  0  0  0  0  0  0
  196.2150  169.3590  146.8840 C   0  0  0  0  0  1  0  0  0  0  0  0
  195.3150  169.8170  145.7960 C   0  0  0  0  0  0  0  0  0  0  0  0
  195.7430  170.8800  144.9370 N   0  0  0  0  0  2  0  0  0  0  0  0
  195.0380  171.3760  143.7910 C   0  0  0  0  0  0  0  0  0  0  0  0
  194.1840  169.2800  145.6600 O   0  0  0  0  0  0  0  0  0  0  0  0
  190.9920  178.1730  143.7590 O   0  0  0  0  0  1  0  0  0  0  0  0
  190.2130  177.9160  144.8890 C   0  0  0  0  0  2  0  0  0  0  0  0
  188.7550  176.0560  145.9330 C   0  0  0  0  0  2  0  0  0  0  0  0
  187.8710  177.8060  147.2340 O   0  0  0  0  0  0  0  0  0  0  0  0
  187.7150  177.0760  146.2680 C   0  0  0  0  0  0  0  0  0  0  0  0
  186.4920  177.1920  145.4090 C   0  0  1  0  0  3  0  0  0  0  0  0
  185.2430  176.7270  146.1490 C   0  0  0  0  0  1  0  0  0  0  0  0
  186.4460  177.9840  141.0790 N   0  0  0  0  0  2  0  0  0  0  0  0
  186.3860  178.5290  144.8000 N   0  0  0  0  0  0  0  0  0  0  0  0
  185.9400  177.9880  142.4360 C   0  0  2  0  0  3  0  0  0  0  0  0
  185.0450  179.1540  144.9060 C   0  0  0  0  0  2  0  0  0  0  0  0
  184.7400  178.8720  142.4530 C   0  0  1  0  0  3  0  0  0  0  0  0
  185.2770  177.7660  140.2250 C   0  0  0  0  0  2  0  0  0  0  0  0
  183.7440  178.2900  141.0780 S   0  0  0  0  0  0  0  0  0  0  0  0
  184.0640  178.7200  143.8010 C   0  0  0  0  0  2  0  0  0  0  0  0
  186.9460  178.5350  143.4380 C   0  0  0  0  0  2  0  0  0  0  0  0
  1  2  2  0  0  0  0
  2 22  1  0  0  0  0
  2 23  1  0  0  0  0
  3 11  2  0  0  0  0
  3 12  1  0  0  0  0
  4 13  1  0  0  0  0
  5  8  2  0  0  0  0
  5  4  1  0  0  0  0
  6  4  2  0  0  0  0
  6  7  1  0  0  0  0
  7 10  2  0  0  0  0
  8  3  1  0  0  0  0
 10  9  1  0  0  0  0
 12  1  1  6  0  0  0
 13 12  1  0  0  0  0
 13  9  2  0  0  0  0
 14  7  1  0  0  0  0
 14 19  1  0  0  0  0
 15 19  2  0  0  0  0
 17 16  1  0  0  0  0
 18 17  1  0  0  0  0
 19 18  1  0  0  0  0
 20 17  2  0  0  0  0
 21 22  1  0  0  0  0
 23 25  1  0  0  0  0
 25 24  2  0  0  0  0
 26 27  1  1  0  0  0
 26 25  1  0  0  0  0
 28 30  1  0  0  0  0
 29 31  1  0  0  0  0
 29 26  1  0  0  0  0
 30 32  1  0  0  0  0
 30 36  1  1  0  0  0
 32 35  1  1  0  0  0
 33 34  1  0  0  0  0
 33 28  1  0  0  0  0
 34 32  1  0  0  0  0
 35 31  1  0  0  0  0
 36 29  1  0  0  0  0
M  END
>  <MODEL>
7

>  <REMARK>
 VINA RESULT:      -7.1      3.703     10.021
  Name = 
  8 active torsions:
  status: ('A' for Active; 'I' for Inactive)
    1  A    between atoms: N_8  and  C_12
    2  A    between atoms: C_9  and  C_15
    3  A    between atoms: C_9  and  C_28
    4  A    between atoms: C_12  and  C_36
    5  A    between atoms: C_16  and  C_32
    6  A    between atoms: C_18  and  C_25
    7  A    between atoms: C_25  and  C_31
    8  A    between atoms: C_31  and  C_36
                            x       y       z     vdW  Elec       q    Type
                         _______ _______ _______ _____ _____    ______ ____

>  <TORSDO>
F 8

$$$$
=
 OpenBabel11072408423D

 36 39  0  0  1  0  0  0  0  0999 V2000
  191.0240  174.9050  144.7880 C   0  0  0  0  0  3  0  0  0  0  0  0
  191.8750  175.6790  145.4730 C   0  0  0  0  0  0  0  0  0  0  0  0
  190.7690  173.5610  142.7560 C   0  0  0  0  0  0  0  0  0  0  0  0
  188.5050  175.2190  142.4550 C   0  0  0  0  0  0  0  0  0  0  0  0
  188.4460  173.7720  142.2160 C   0  0  0  0  0  3  0  0  0  0  0  0
  187.3910  176.0140  142.1730 C   0  0  0  0  0  3  0  0  0  0  0  0
  187.4540  177.4010  142.3440 C   0  0  0  0  0  0  0  0  0  0  0  0
  189.5010  173.0270  142.3530 N   0  0  0  0  0  0  0  0  0  0  0  0
  189.7520  177.1990  143.0890 C   0  0  0  0  0  3  0  0  0  0  0  0
  188.6370  177.9930  142.8010 C   0  0  0  0  0  3  0  0  0  0  0  0
  191.7960  172.8390  142.6870 O   0  0  0  0  0  0  0  0  0  0  0  0
  190.8820  174.9640  143.2950 C   0  0  1  0  0  3  0  0  0  0  0  0
  189.6930  175.8090  142.9230 C   0  0  0  0  0  0  0  0  0  0  0  0
  186.2540  178.2450  142.0740 C   0  0  0  0  0  2  0  0  0  0  0  0
  186.5050  177.6550  139.7860 O   0  0  0  0  0  0  0  0  0  0  0  0
  181.8640  178.4380  140.8890 C   0  0  0  0  0  1  0  0  0  0  0  0
  183.2560  178.2650  141.3720 C   0  0  0  0  0  0  0  0  0  0  0  0
  184.3040  178.0480  140.4200 N   0  0  0  0  0  2  0  0  0  0  0  0
  185.7050  177.9530  140.7120 C   0  0  0  0  0  0  0  0  0  0  0  0
  183.4900  178.2910  142.6090 O   0  0  0  0  0  0  0  0  0  0  0  0
  191.7560  176.7630  147.5790 O   0  0  0  0  0  1  0  0  0  0  0  0
  191.9610  175.5290  146.9580 C   0  0  0  0  0  2  0  0  0  0  0  0
  192.7390  176.7040  144.7930 C   0  0  0  0  0  2  0  0  0  0  0  0
  194.8070  177.1470  145.8220 O   0  0  0  0  0  0  0  0  0  0  0  0
  194.1840  176.4290  145.0560 C   0  0  0  0  0  0  0  0  0  0  0  0
  194.8510  175.2720  144.3770 C   0  0  1  0  0  3  0  0  0  0  0  0
  194.5660  175.2620  142.8790 C   0  0  0  0  0  1  0  0  0  0  0  0
  196.7920  171.7350  146.1360 N   0  0  0  0  0  2  0  0  0  0  0  0
  196.2760  175.1860  144.7330 N   0  0  0  0  0  0  0  0  0  0  0  0
  196.5620  172.7730  145.1540 C   0  0  2  0  0  3  0  0  0  0  0  0
  197.2010  175.0900  143.5770 C   0  0  0  0  0  2  0  0  0  0  0  0
  197.7090  172.7360  144.2020 C   0  0  1  0  0  3  0  0  0  0  0  0
  197.1590  170.5420  145.3710 C   0  0  0  0  0  2  0  0  0  0  0  0
  197.8380  171.0080  143.7350 S   0  0  0  0  0  0  0  0  0  0  0  0
  197.3870  173.6570  143.0430 C   0  0  0  0  0  2  0  0  0  0  0  0
  196.5020  174.1630  145.7690 C   0  0  0  0  0  2  0  0  0  0  0  0
  1  2  2  0  0  0  0
  2 22  1  0  0  0  0
  3 12  1  0  0  0  0
  4 13  1  0  0  0  0
  5  8  2  0  0  0  0
  5  4  1  0  0  0  0
  6  7  1  0  0  0  0
  6  4  2  0  0  0  0
  7 10  2  0  0  0  0
  8  3  1  0  0  0  0
 10  9  1  0  0  0  0
 11  3  2  0  0  0  0
 12  1  1  1  0  0  0
 13  9  2  0  0  0  0
 13 12  1  0  0  0  0
 14  7  1  0  0  0  0
 15 19  2  0  0  0  0
 16 17  1  0  0  0  0
 17 20  2  0  0  0  0
 18 19  1  0  0  0  0
 18 17  1  0  0  0  0
 19 14  1  0  0  0  0
 22 21  1  0  0  0  0
 23 25  1  0  0  0  0
 23  2  1  0  0  0  0
 25 24  2  0  0  0  0
 26 27  1  6  0  0  0
 26 29  1  0  0  0  0
 26 25  1  0  0  0  0
 29 36  1  0  0  0  0
 30 36  1  1  0  0  0
 30 28  1  0  0  0  0
 31 29  1  0  0  0  0
 32 35  1  6  0  0  0
 32 30  1  0  0  0  0
 33 28  1  0  0  0  0
 34 32  1  0  0  0  0
 34 33  1  0  0  0  0
 35 31  1  0  0  0  0
M  END
>  <MODEL>
8

>  <REMARK>
 VINA RESULT:      -7.1      2.993      5.012
  Name = 
  8 active torsions:
  status: ('A' for Active; 'I' for Inactive)
    1  A    between atoms: N_8  and  C_12
    2  A    between atoms: C_9  and  C_15
    3  A    between atoms: C_9  and  C_28
    4  A    between atoms: C_12  and  C_36
    5  A    between atoms: C_16  and  C_32
    6  A    between atoms: C_18  and  C_25
    7  A    between atoms: C_25  and  C_31
    8  A    between atoms: C_31  and  C_36
                            x       y       z     vdW  Elec       q    Type
                         _______ _______ _______ _____ _____    ______ ____

>  <TORSDO>
F 8

$$$$
=
 OpenBabel11072408423D

 36 39  0  0  1  0  0  0  0  0999 V2000
  193.6810  176.2900  144.2880 C   0  0  0  0  0  3  0  0  0  0  0  0
  194.8280  175.8010  143.8010 C   0  0  0  0  0  0  0  0  0  0  0  0
  192.6960  175.2400  146.2700 C   0  0  0  0  0  0  0  0  0  0  0  0
  190.4250  176.6500  145.3630 C   0  0  0  0  0  0  0  0  0  0  0  0
  190.8130  176.6290  146.7780 C   0  0  0  0  0  3  0  0  0  0  0  0
  189.2270  177.2580  144.9820 C   0  0  0  0  0  3  0  0  0  0  0  0
  188.8190  177.2350  143.6440 C   0  0  0  0  0  0  0  0  0  0  0  0
  191.8570  175.9680  147.1770 N   0  0  0  0  0  0  0  0  0  0  0  0
  190.8210  175.9980  143.0610 C   0  0  0  0  0  3  0  0  0  0  0  0
  189.6180  176.6030  142.6840 C   0  0  0  0  0  3  0  0  0  0  0  0
  193.5740  174.4650  146.7250 O   0  0  0  0  0  0  0  0  0  0  0  0
  192.5620  175.4190  144.7800 C   0  0  1  0  0  3  0  0  0  0  0  0
  191.2350  176.0210  144.4000 C   0  0  0  0  0  0  0  0  0  0  0  0
  187.5560  177.9120  143.2320 C   0  0  0  0  0  2  0  0  0  0  0  0
  186.3170  175.9410  142.7590 O   0  0  0  0  0  0  0  0  0  0  0  0
  184.0620  178.6710  146.0500 C   0  0  0  0  0  1  0  0  0  0  0  0
  185.2900  178.4230  145.2540 C   0  0  0  0  0  0  0  0  0  0  0  0
  185.3180  177.3230  144.3380 N   0  0  0  0  0  2  0  0  0  0  0  0
  186.3850  177.0020  143.4340 C   0  0  0  0  0  0  0  0  0  0  0  0
  186.2920  179.1690  145.4130 O   0  0  0  0  0  0  0  0  0  0  0  0
  197.1530  176.1680  143.5090 O   0  0  0  0  0  1  0  0  0  0  0  0
  195.8940  176.7520  143.3570 C   0  0  0  0  0  2  0  0  0  0  0  0
  195.0710  174.3240  143.6730 C   0  0  0  0  0  2  0  0  0  0  0  0
  196.0060  173.4210  141.7120 O   0  0  0  0  0  0  0  0  0  0  0  0
  195.0170  173.9060  142.2390 C   0  0  0  0  0  0  0  0  0  0  0  0
  193.7470  174.0870  141.4650 C   0  0  1  0  0  3  0  0  0  0  0  0
  193.9370  175.0450  140.2940 C   0  0  0  0  0  1  0  0  0  0  0  0
  190.8200  171.9160  143.9340 N   0  0  0  0  0  2  0  0  0  0  0  0
  193.1440  172.7920  141.1090 N   0  0  0  0  0  0  0  0  0  0  0  0
  191.3220  172.5970  142.7590 C   0  0  2  0  0  3  0  0  0  0  0  0
  192.1420  172.8530  140.0160 C   0  0  0  0  0  2  0  0  0  0  0  0
  190.3440  172.3520  141.6610 C   0  0  1  0  0  3  0  0  0  0  0  0
  189.4050  172.2780  144.0250 C   0  0  0  0  0  2  0  0  0  0  0  0
  188.7550  172.7660  142.3840 S   0  0  0  0  0  0  0  0  0  0  0  0
  190.7250  173.2310  140.4870 C   0  0  0  0  0  2  0  0  0  0  0  0
  192.6790  172.0770  142.3100 C   0  0  0  0  0  2  0  0  0  0  0  0
  2  1  2  0  0  0  0
  3 11  2  0  0  0  0
  3  8  1  0  0  0  0
  4  5  1  0  0  0  0
  5  8  2  0  0  0  0
  6  4  1  0  0  0  0
  7  6  2  0  0  0  0
  9 13  1  0  0  0  0
 10  9  2  0  0  0  0
 10  7  1  0  0  0  0
 12  1  1  1  0  0  0
 12  3  1  0  0  0  0
 13 12  1  0  0  0  0
 13  4  2  0  0  0  0
 14 19  1  0  0  0  0
 14  7  1  0  0  0  0
 15 19  2  0  0  0  0
 17 20  2  0  0  0  0
 17 16  1  0  0  0  0
 18 17  1  0  0  0  0
 19 18  1  0  0  0  0
 22 21  1  0  0  0  0
 22  2  1  0  0  0  0
 23  2  1  0  0  0  0
 24 25  2  0  0  0  0
 25 23  1  0  0  0  0
 26 27  1  6  0  0  0
 26 25  1  0  0  0  0
 28 33  1  0  0  0  0
 29 26  1  0  0  0  0
 29 36  1  0  0  0  0
 30 36  1  6  0  0  0
 30 28  1  0  0  0  0
 31 35  1  0  0  0  0
 31 29  1  0  0  0  0
 32 35  1  6  0  0  0
 32 34  1  0  0  0  0
 32 30  1  0  0  0  0
 34 33  1  0  0  0  0
M  END
>  <MODEL>
9

>  <REMARK>
 VINA RESULT:      -7.1      3.350      5.981
  Name = 
  8 active torsions:
  status: ('A' for Active; 'I' for Inactive)
    1  A    between atoms: N_8  and  C_12
    2  A    between atoms: C_9  and  C_15
    3  A    between atoms: C_9  and  C_28
    4  A    between atoms: C_12  and  C_36
    5  A    between atoms: C_16  and  C_32
    6  A    between atoms: C_18  and  C_25
    7  A    between atoms: C_25  and  C_31
    8  A    between atoms: C_31  and  C_36
                            x       y       z     vdW  Elec       q    Type
                         _______ _______ _______ _____ _____    ______ ____

>  <TORSDO>
F 8

$$$$
