=
 OpenBabel11062421483D

 48 54  0  0  1  0  0  0  0  0999 V2000
  189.2760  173.6160  141.8750 C   0  0  2  0  0  3  0  0  0  0  0  0
  189.2310  172.4620  139.7350 C   0  0  0  0  0  0  0  0  0  0  0  0
  191.5030  172.0660  142.7230 S   0  0  0  0  0  0  0  0  0  0  0  0
  192.0080  172.6210  141.0600 C   0  0  1  0  0  3  0  0  0  0  0  0
  189.0490  172.4380  141.1170 O   0  0  0  0  0  0  0  0  0  0  0  0
  193.4810  170.1730  139.7490 O   0  0  0  0  0  1  0  0  0  0  0  0
  192.6710  171.0910  139.0840 C   0  0  2  0  0  3  0  0  0  0  0  0
  193.5130  172.8430  141.0470 C   0  0  0  0  0  2  0  0  0  0  0  0
  193.5210  172.2530  138.5580 C   0  0  0  0  0  2  0  0  0  0  0  0
  191.5490  171.5750  140.0180 C   0  0  2  0  0  3  0  0  0  0  0  0
  190.2680  173.3850  143.0280 C   0  0  1  0  0  3  0  0  0  0  0  0
  190.3960  172.0830  139.2030 C   0  0  0  0  0  3  0  0  0  0  0  0
  193.9790  173.2400  139.6480 C   0  0  0  0  0  2  0  0  0  0  0  0
  188.1470  172.9710  138.8350 C   0  0  0  0  0  3  0  0  0  0  0  0
  188.7160  173.3990  137.4960 C   0  0  0  0  0  2  0  0  0  0  0  0
  188.3810  174.4400  138.5360 C   0  0  0  0  0  2  0  0  0  0  0  0
  190.5490  175.8100  142.8490 O   0  0  0  0  0  1  0  0  0  0  0  0
  190.9570  174.6630  143.5400 C   0  0  1  0  0  3  0  0  0  0  0  0
  191.4770  175.8280  147.1450 C   0  0  0  0  0  3  0  0  0  0  0  0
  189.4200  174.5630  147.0230 C   0  0  0  0  0  3  0  0  0  0  0  0
  190.7770  174.8600  145.0240 C   0  0  0  0  0  0  0  0  0  0  0  0
  189.6360  174.3490  145.6590 C   0  0  0  0  0  3  0  0  0  0  0  0
  191.7030  175.6210  145.7750 C   0  0  0  0  0  0  0  0  0  0  0  0
  190.3430  175.3010  147.7670 C   0  0  0  0  0  3  0  0  0  0  0  0
  193.1410  176.3340  145.0410 S   0  0  0  0  0  0  0  0  0  0  0  0
  192.7220  177.4810  144.1570 O   0  0  0  0  0  0  0  0  0  0  0  0
  194.0400  176.8710  146.1210 O   0  0  0  0  0  0  0  0  0  0  0  0
  194.1740  175.6150  142.8790 O   0  0  0  0  0  1  0  0  0  0  0  0
  193.9550  175.1060  144.1130 N   0  0  0  0  0  0  0  0  0  0  0  0
  195.9080  173.6280  144.0200 C   0  0  0  0  0  0  0  0  0  0  0  0
  196.4310  173.0810  143.0650 O   0  0  0  0  0  0  0  0  0  0  0  0
  195.2670  174.8420  144.6980 C   0  0  2  0  0  3  0  0  0  0  0  0
  195.3530  173.6120  145.4460 C   0  0  1  0  0  3  0  0  0  0  0  0
  194.0930  172.7530  145.4640 C   0  0  0  0  0  2  0  0  0  0  0  0
  194.4570  171.3170  145.4890 C   0  0  0  0  0  0  0  0  0  0  0  0
  195.6440  170.9150  146.0860 O   0  0  0  0  0  1  0  0  0  0  0  0
  193.7000  170.4690  144.9550 O   0  0  0  0  0  0  0  0  0  0  0  0
  187.9610  174.2000  142.3760 C   0  0  0  0  0  2  0  0  0  0  0  0
  187.7140  175.5990  141.8290 C   0  0  0  0  0  2  0  0  0  0  0  0
  185.1280  177.7610  144.4460 C   0  0  0  0  0  0  0  0  0  0  0  0
  186.8260  176.3650  142.7470 C   0  0  0  0  0  0  0  0  0  0  0  0
  184.3260  178.4150  145.4080 N   0  0  0  0  0  0  0  0  0  0  0  0
  184.8870  177.8030  143.0700 C   0  0  0  0  0  3  0  0  0  0  0  0
  184.7850  178.1960  146.7740 C   0  0  0  0  0  3  0  0  0  0  0  0
  186.2800  177.1150  146.7410 S   0  0  0  0  0  0  0  0  0  0  0  0
  186.1810  177.0570  144.9660 C   0  0  0  0  0  0  0  0  0  0  0  0
  185.7470  177.0940  142.2180 C   0  0  0  0  0  3  0  0  0  0  0  0
  187.0460  176.3450  144.1350 C   0  0  0  0  0  3  0  0  0  0  0  0
  1 38  1  1  0  0  0
  1 11  1  0  0  0  0
  2  5  1  0  0  0  0
  3 11  1  0  0  0  0
  4  8  1  1  0  0  0
  4  3  1  0  0  0  0
  5  1  1  0  0  0  0
  7  6  1  1  0  0  0
  7 10  1  0  0  0  0
  9  7  1  0  0  0  0
  9 13  1  0  0  0  0
 10 12  1  6  0  0  0
 10  4  1  0  0  0  0
 11 18  1  6  0  0  0
 12  2  2  0  0  0  0
 13  8  1  0  0  0  0
 14  2  1  0  0  0  0
 15 16  1  0  0  0  0
 15 14  1  0  0  0  0
 16 14  1  0  0  0  0
 18 17  1  6  0  0  0
 18 21  1  0  0  0  0
 19 24  1  0  0  0  0
 20 24  2  0  0  0  0
 21 22  2  0  0  0  0
 21 23  1  0  0  0  0
 22 20  1  0  0  0  0
 23 19  2  0  0  0  0
 25 23  1  0  0  0  0
 25 27  2  0  0  0  0
 26 25  2  0  0  0  0
 28 29  1  0  0  0  0
 29 25  1  0  0  0  0
 30 32  1  0  0  0  0
 30 33  1  0  0  0  0
 31 30  2  0  0  0  0
 32 29  1  6  0  0  0
 32 33  1  0  0  0  0
 33 34  1  6  0  0  0
 34 35  1  0  0  0  0
 35 36  1  0  0  0  0
 37 35  2  0  0  0  0
 39 38  1  0  0  0  0
 39 41  1  0  0  0  0
 40 46  1  0  0  0  0
 40 42  1  0  0  0  0
 41 48  1  0  0  0  0
 42 44  2  0  0  0  0
 43 40  2  0  0  0  0
 45 44  1  0  0  0  0
 46 45  1  0  0  0  0
 47 41  2  0  0  0  0
 47 43  1  0  0  0  0
 48 46  2  0  0  0  0
M  END
>  <MODEL>
1

>  <REMARK>
 VINA RESULT:      -7.7      0.000      0.000
  Name = 
  11 active torsions:
  status: ('A' for Active; 'I' for Inactive)
    1  A    between atoms: C_3  and  C_6
    2  A    between atoms: C_4  and  C_12
    3  A    between atoms: C_5  and  C_10
    4  A    between atoms: S_8  and  N_37
    5  A    between atoms: S_8  and  C_43
    6  A    between atoms: C_10  and  C_33
    7  A    between atoms: C_12  and  C_42
    8  A    between atoms: C_18  and  C_33
    9  A    between atoms: C_29  and  C_35
   10  A    between atoms: C_30  and  N_37
   11  A    between atoms: C_35  and  C_41
                            x       y       z     vdW  Elec       q    Type
                         _______ _______ _______ _____ _____    ______ ____

>  <TORSDO>
F 11

$$$$
=
 OpenBabel11062421483D

 48 54  0  0  1  0  0  0  0  0999 V2000
  190.0400  175.8550  142.8810 C   0  0  2  0  0  3  0  0  0  0  0  0
  188.0260  175.4490  141.5790 C   0  0  0  0  0  0  0  0  0  0  0  0
  191.0270  173.2630  142.2590 S   0  0  0  0  0  0  0  0  0  0  0  0
  190.5150  173.9010  140.6280 C   0  0  1  0  0  3  0  0  0  0  0  0
  188.8110  175.1690  142.6970 O   0  0  0  0  0  0  0  0  0  0  0  0
  189.2150  171.4660  139.1240 O   0  0  0  0  0  1  0  0  0  0  0  0
  188.8080  172.7950  139.0320 C   0  0  2  0  0  3  0  0  0  0  0  0
  191.4590  173.3600  139.5650 C   0  0  0  0  0  2  0  0  0  0  0  0
  189.5400  173.4880  137.8780 C   0  0  0  0  0  2  0  0  0  0  0  0
  189.0410  173.5100  140.3740 C   0  0  2  0  0  3  0  0  0  0  0  0
  191.2210  174.8900  143.0790 C   0  0  1  0  0  3  0  0  0  0  0  0
  188.1330  174.7000  140.4780 C   0  0  0  0  0  3  0  0  0  0  0  0
  191.0150  173.8190  138.1780 C   0  0  0  0  0  2  0  0  0  0  0  0
  187.1010  176.6280  141.5750 C   0  0  0  0  0  3  0  0  0  0  0  0
  186.9380  177.1780  140.1720 C   0  0  0  0  0  2  0  0  0  0  0  0
  187.8600  177.8690  141.1460 C   0  0  0  0  0  2  0  0  0  0  0  0
  192.5210  176.8430  142.3810 O   0  0  0  0  0  1  0  0  0  0  0  0
  192.5990  175.4980  142.7580 C   0  0  1  0  0  3  0  0  0  0  0  0
  195.8620  175.1660  144.7250 C   0  0  0  0  0  3  0  0  0  0  0  0
  194.0130  175.2160  146.2830 C   0  0  0  0  0  3  0  0  0  0  0  0
  193.5810  175.3310  143.8890 C   0  0  0  0  0  0  0  0  0  0  0  0
  193.1180  175.3170  145.2130 C   0  0  0  0  0  3  0  0  0  0  0  0
  194.9730  175.2680  143.6440 C   0  0  0  0  0  0  0  0  0  0  0  0
  195.3850  175.1380  146.0380 C   0  0  0  0  0  3  0  0  0  0  0  0
  195.6360  175.3240  142.0090 S   0  0  0  0  0  0  0  0  0  0  0  0
  195.4230  176.7030  141.4410 O   0  0  0  0  0  0  0  0  0  0  0  0
  197.1160  175.0550  142.0610 O   0  0  0  0  0  0  0  0  0  0  0  0
  194.5080  174.7090  139.8620 O   0  0  0  0  0  1  0  0  0  0  0  0
  194.8240  174.1250  141.0410 N   0  0  0  0  0  0  0  0  0  0  0  0
  194.9940  171.8770  140.0810 C   0  0  0  0  0  0  0  0  0  0  0  0
  194.3900  171.3770  139.1480 O   0  0  0  0  0  0  0  0  0  0  0  0
  195.7490  173.0370  140.7360 C   0  0  2  0  0  3  0  0  0  0  0  0
  195.5380  171.8380  141.5110 C   0  0  1  0  0  3  0  0  0  0  0  0
  194.3590  171.8680  142.4780 C   0  0  0  0  0  2  0  0  0  0  0  0
  194.8430  171.7410  143.8720 C   0  0  0  0  0  0  0  0  0  0  0  0
  196.1830  171.4740  144.1180 O   0  0  0  0  0  0  0  0  0  0  0  0
  194.0370  171.8590  144.8280 O   0  0  0  0  0  1  0  0  0  0  0  0
  189.9350  176.8560  144.0250 C   0  0  0  0  0  2  0  0  0  0  0  0
  189.4890  176.1930  145.3220 C   0  0  0  0  0  2  0  0  0  0  0  0
  185.6080  177.5620  146.4500 C   0  0  0  0  0  0  0  0  0  0  0  0
  188.1280  176.6620  145.7010 C   0  0  0  0  0  0  0  0  0  0  0  0
  184.3310  178.0980  146.7280 N   0  0  0  0  0  0  0  0  0  0  0  0
  186.2970  176.6990  147.3060 C   0  0  0  0  0  3  0  0  0  0  0  0
  183.8460  178.9850  145.6790 C   0  0  0  0  0  3  0  0  0  0  0  0
  185.1130  179.0850  144.3410 S   0  0  0  0  0  0  0  0  0  0  0  0
  186.1450  177.9620  145.2560 C   0  0  0  0  0  0  0  0  0  0  0  0
  187.5690  176.2500  146.9230 C   0  0  0  0  0  3  0  0  0  0  0  0
  187.4100  177.5270  144.8580 C   0  0  0  0  0  3  0  0  0  0  0  0
  1 11  1  0  0  0  0
  1 38  1  1  0  0  0
  2  5  1  0  0  0  0
  3 11  1  0  0  0  0
  4  8  1  6  0  0  0
  4  3  1  0  0  0  0
  5  1  1  0  0  0  0
  7  6  1  1  0  0  0
  7 10  1  0  0  0  0
  9 13  1  0  0  0  0
  9  7  1  0  0  0  0
 10 12  1  6  0  0  0
 10  4  1  0  0  0  0
 11 18  1  6  0  0  0
 12  2  2  0  0  0  0
 13  8  1  0  0  0  0
 14  2  1  0  0  0  0
 15 16  1  0  0  0  0
 15 14  1  0  0  0  0
 16 14  1  0  0  0  0
 18 17  1  1  0  0  0
 18 21  1  0  0  0  0
 19 24  1  0  0  0  0
 21 22  2  0  0  0  0
 22 20  1  0  0  0  0
 23 21  1  0  0  0  0
 23 19  2  0  0  0  0
 24 20  2  0  0  0  0
 25 27  2  0  0  0  0
 25 23  1  0  0  0  0
 26 25  2  0  0  0  0
 28 29  1  0  0  0  0
 29 25  1  0  0  0  0
 30 32  1  0  0  0  0
 30 33  1  0  0  0  0
 31 30  2  0  0  0  0
 32 29  1  1  0  0  0
 32 33  1  0  0  0  0
 33 34  1  1  0  0  0
 34 35  1  0  0  0  0
 35 36  2  0  0  0  0
 35 37  1  0  0  0  0
 38 39  1  0  0  0  0
 39 41  1  0  0  0  0
 40 42  1  0  0  0  0
 40 43  1  0  0  0  0
 41 47  1  0  0  0  0
 44 42  2  0  0  0  0
 45 46  1  0  0  0  0
 45 44  1  0  0  0  0
 46 40  2  0  0  0  0
 47 43  2  0  0  0  0
 48 46  1  0  0  0  0
 48 41  2  0  0  0  0
M  END
>  <MODEL>
2

>  <REMARK>
 VINA RESULT:      -7.6      1.975      3.585
  Name = 
  11 active torsions:
  status: ('A' for Active; 'I' for Inactive)
    1  A    between atoms: C_3  and  C_6
    2  A    between atoms: C_4  and  C_12
    3  A    between atoms: C_5  and  C_10
    4  A    between atoms: S_8  and  N_37
    5  A    between atoms: S_8  and  C_43
    6  A    between atoms: C_10  and  C_33
    7  A    between atoms: C_12  and  C_42
    8  A    between atoms: C_18  and  C_33
    9  A    between atoms: C_29  and  C_35
   10  A    between atoms: C_30  and  N_37
   11  A    between atoms: C_35  and  C_41
                            x       y       z     vdW  Elec       q    Type
                         _______ _______ _______ _____ _____    ______ ____

>  <TORSDO>
F 11

$$$$
=
 OpenBabel11062421483D

 48 54  0  0  1  0  0  0  0  0999 V2000
  190.3610  175.4240  144.2350 C   0  0  2  0  0  3  0  0  0  0  0  0
  191.6990  176.4220  146.0050 C   0  0  0  0  0  0  0  0  0  0  0  0
  192.5470  175.5780  142.4250 S   0  0  0  0  0  0  0  0  0  0  0  0
  193.3040  174.8340  143.9080 C   0  0  1  0  0  3  0  0  0  0  0  0
  191.0440  176.5430  144.7800 O   0  0  0  0  0  0  0  0  0  0  0  0
  196.1520  176.1400  144.1640 O   0  0  0  0  0  1  0  0  0  0  0  0
  195.3200  175.7810  145.2220 C   0  0  2  0  0  3  0  0  0  0  0  0
  194.3860  173.8550  143.4750 C   0  0  0  0  0  2  0  0  0  0  0  0
  195.6230  174.3440  145.6600 C   0  0  0  0  0  2  0  0  0  0  0  0
  193.8480  175.9610  144.8160 C   0  0  2  0  0  3  0  0  0  0  0  0
  190.8170  175.1050  142.8020 C   0  0  1  0  0  3  0  0  0  0  0  0
  193.0020  176.1300  146.0440 C   0  0  0  0  0  3  0  0  0  0  0  0
  195.0890  173.2670  144.6960 C   0  0  0  0  0  2  0  0  0  0  0  0
  190.9390  176.5540  147.2890 C   0  0  0  0  0  3  0  0  0  0  0  0
  191.5080  175.6300  148.3470 C   0  0  0  0  0  2  0  0  0  0  0  0
  190.2500  175.2420  147.6110 C   0  0  0  0  0  2  0  0  0  0  0  0
  189.8830  172.9060  143.3340 O   0  0  0  0  0  1  0  0  0  0  0  0
  190.5420  173.6570  142.3550 C   0  0  1  0  0  3  0  0  0  0  0  0
  189.1430  172.4110  139.0210 C   0  0  0  0  0  3  0  0  0  0  0  0
  188.1460  174.5530  139.5340 C   0  0  0  0  0  3  0  0  0  0  0  0
  189.7870  173.5880  141.0520 C   0  0  0  0  0  0  0  0  0  0  0  0
  188.8970  174.6180  140.7110 C   0  0  0  0  0  3  0  0  0  0  0  0
  189.9010  172.4650  140.2010 C   0  0  0  0  0  0  0  0  0  0  0  0
  188.2710  173.4500  138.6870 C   0  0  0  0  0  3  0  0  0  0  0  0
  190.9660  171.1090  140.5810 S   0  0  0  0  0  0  0  0  0  0  0  0
  190.4230  170.3830  141.7850 O   0  0  0  0  0  0  0  0  0  0  0  0
  190.9910  170.1530  139.4200 O   0  0  0  0  0  0  0  0  0  0  0  0
  193.0110  171.1200  142.0230 O   0  0  0  0  0  1  0  0  0  0  0  0
  192.5600  171.7320  140.9040 N   0  0  0  0  0  0  0  0  0  0  0  0
  194.8010  172.0740  139.9720 C   0  0  0  0  0  0  0  0  0  0  0  0
  195.8630  172.2660  140.5380 O   0  0  0  0  0  0  0  0  0  0  0  0
  193.4620  171.3460  139.8210 C   0  0  2  0  0  3  0  0  0  0  0  0
  193.7690  172.4060  138.8910 C   0  0  1  0  0  3  0  0  0  0  0  0
  193.1600  173.7680  139.2080 C   0  0  0  0  0  2  0  0  0  0  0  0
  194.0660  174.8480  138.7530 C   0  0  0  0  0  0  0  0  0  0  0  0
  194.8060  175.5660  139.6820 O   0  0  0  0  0  1  0  0  0  0  0  0
  194.1490  175.1220  137.5300 O   0  0  0  0  0  0  0  0  0  0  0  0
  188.8520  175.6200  144.3130 C   0  0  0  0  0  2  0  0  0  0  0  0
  188.4780  177.0800  144.5290 C   0  0  0  0  0  2  0  0  0  0  0  0
  184.6930  177.9690  142.7710 C   0  0  0  0  0  0  0  0  0  0  0  0
  187.1570  177.3730  143.9080 C   0  0  0  0  0  0  0  0  0  0  0  0
  183.5010  178.2780  142.0790 N   0  0  0  0  0  0  0  0  0  0  0  0
  184.7940  177.9050  144.1630 C   0  0  0  0  0  3  0  0  0  0  0  0
  183.6720  178.2970  140.6320 C   0  0  0  0  0  3  0  0  0  0  0  0
  185.4280  177.9020  140.2280 S   0  0  0  0  0  0  0  0  0  0  0  0
  185.7750  177.7370  141.9650 C   0  0  0  0  0  0  0  0  0  0  0  0
  186.0410  177.6060  144.7310 C   0  0  0  0  0  3  0  0  0  0  0  0
  187.0240  177.4390  142.5100 C   0  0  0  0  0  3  0  0  0  0  0  0
  1 38  1  6  0  0  0
  1  5  1  0  0  0  0
  2 12  2  0  0  0  0
  2 14  1  0  0  0  0
  3 11  1  0  0  0  0
  3  4  1  0  0  0  0
  4  8  1  6  0  0  0
  4 10  1  0  0  0  0
  5  2  1  0  0  0  0
  7  6  1  6  0  0  0
  7  9  1  0  0  0  0
  8 13  1  0  0  0  0
 10  7  1  0  0  0  0
 10 12  1  1  0  0  0
 11 18  1  1  0  0  0
 11  1  1  0  0  0  0
 13  9  1  0  0  0  0
 14 16  1  0  0  0  0
 14 15  1  0  0  0  0
 16 15  1  0  0  0  0
 18 17  1  1  0  0  0
 19 23  1  0  0  0  0
 20 22  2  0  0  0  0
 21 18  1  0  0  0  0
 22 21  1  0  0  0  0
 23 25  1  0  0  0  0
 23 21  2  0  0  0  0
 24 19  2  0  0  0  0
 24 20  1  0  0  0  0
 25 29  1  0  0  0  0
 25 26  2  0  0  0  0
 27 25  2  0  0  0  0
 29 28  1  0  0  0  0
 30 31  2  0  0  0  0
 32 30  1  0  0  0  0
 32 29  1  1  0  0  0
 33 34  1  1  0  0  0
 33 32  1  0  0  0  0
 33 30  1  0  0  0  0
 35 34  1  0  0  0  0
 35 36  1  0  0  0  0
 37 35  2  0  0  0  0
 38 39  1  0  0  0  0
 40 43  1  0  0  0  0
 41 39  1  0  0  0  0
 41 47  1  0  0  0  0
 42 40  1  0  0  0  0
 43 47  2  0  0  0  0
 44 42  2  0  0  0  0
 45 44  1  0  0  0  0
 45 46  1  0  0  0  0
 46 48  1  0  0  0  0
 46 40  2  0  0  0  0
 48 41  2  0  0  0  0
M  END
>  <MODEL>
3

>  <REMARK>
 VINA RESULT:      -7.5      2.174      6.235
  Name = 
  11 active torsions:
  status: ('A' for Active; 'I' for Inactive)
    1  A    between atoms: C_3  and  C_6
    2  A    between atoms: C_4  and  C_12
    3  A    between atoms: C_5  and  C_10
    4  A    between atoms: S_8  and  N_37
    5  A    between atoms: S_8  and  C_43
    6  A    between atoms: C_10  and  C_33
    7  A    between atoms: C_12  and  C_42
    8  A    between atoms: C_18  and  C_33
    9  A    between atoms: C_29  and  C_35
   10  A    between atoms: C_30  and  N_37
   11  A    between atoms: C_35  and  C_41
                            x       y       z     vdW  Elec       q    Type
                         _______ _______ _______ _____ _____    ______ ____

>  <TORSDO>
F 11

$$$$
=
 OpenBabel11062421483D

 48 54  0  0  1  0  0  0  0  0999 V2000
  190.3020  175.2170  143.2300 C   0  0  2  0  0  3  0  0  0  0  0  0
  191.0510  176.8150  144.9030 C   0  0  0  0  0  0  0  0  0  0  0  0
  192.8600  175.2370  141.9900 S   0  0  0  0  0  0  0  0  0  0  0  0
  193.2690  175.0120  143.7540 C   0  0  1  0  0  3  0  0  0  0  0  0
  190.7260  176.5260  143.5780 O   0  0  0  0  0  0  0  0  0  0  0  0
  195.8360  176.7510  144.2690 O   0  0  0  0  0  1  0  0  0  0  0  0
  194.7920  176.5490  145.1690 C   0  0  2  0  0  3  0  0  0  0  0  0
  194.5030  174.1290  143.8680 C   0  0  0  0  0  2  0  0  0  0  0  0
  195.0890  175.3300  146.0490 C   0  0  0  0  0  2  0  0  0  0  0  0
  193.4640  176.3990  144.4080 C   0  0  2  0  0  3  0  0  0  0  0  0
  191.1370  174.6200  142.0840 C   0  0  1  0  0  3  0  0  0  0  0  0
  192.3190  176.7420  145.3150 C   0  0  0  0  0  3  0  0  0  0  0  0
  194.9140  173.9780  145.3310 C   0  0  0  0  0  2  0  0  0  0  0  0
  189.9770  177.1500  145.8930 C   0  0  0  0  0  3  0  0  0  0  0  0
  190.4530  176.8920  147.3090 C   0  0  0  0  0  2  0  0  0  0  0  0
  189.5510  175.8930  146.6260 C   0  0  0  0  0  2  0  0  0  0  0  0
  190.4780  172.5010  143.1170 O   0  0  0  0  0  1  0  0  0  0  0  0
  191.1080  173.0820  142.0110 C   0  0  1  0  0  3  0  0  0  0  0  0
  190.4990  171.1070  138.7940 C   0  0  0  0  0  3  0  0  0  0  0  0
  188.5930  172.5370  139.2040 C   0  0  0  0  0  3  0  0  0  0  0  0
  190.4860  172.5770  140.7340 C   0  0  0  0  0  0  0  0  0  0  0  0
  189.2130  173.0290  140.3560 C   0  0  0  0  0  3  0  0  0  0  0  0
  191.1310  171.5930  139.9480 C   0  0  0  0  0  0  0  0  0  0  0  0
  189.2370  171.5780  138.4210 C   0  0  0  0  0  3  0  0  0  0  0  0
  192.7140  170.9420  140.3800 S   0  0  0  0  0  0  0  0  0  0  0  0
  192.6710  170.4570  141.8060 O   0  0  0  0  0  0  0  0  0  0  0  0
  193.0330  169.7720  139.4890 O   0  0  0  0  0  0  0  0  0  0  0  0
  194.8620  171.9890  141.1200 O   0  0  0  0  0  1  0  0  0  0  0  0
  193.9010  172.2030  140.1930 N   0  0  0  0  0  0  0  0  0  0  0  0
  195.4280  173.2990  138.6210 C   0  0  0  0  0  0  0  0  0  0  0  0
  196.4190  173.9750  138.8360 O   0  0  0  0  0  0  0  0  0  0  0  0
  194.5410  172.0790  138.8860 C   0  0  2  0  0  3  0  0  0  0  0  0
  194.0980  173.0440  137.9090 C   0  0  1  0  0  3  0  0  0  0  0  0
  193.0830  174.0710  138.3980 C   0  0  0  0  0  2  0  0  0  0  0  0
  192.2980  174.5930  137.2560 C   0  0  0  0  0  0  0  0  0  0  0  0
  192.6990  175.7570  136.6150 O   0  0  0  0  0  0  0  0  0  0  0  0
  191.2610  173.9900  136.8820 O   0  0  0  0  0  1  0  0  0  0  0  0
  188.8130  175.1970  142.9070 C   0  0  0  0  0  2  0  0  0  0  0  0
  188.3810  176.4390  142.1400 C   0  0  0  0  0  2  0  0  0  0  0  0
  185.4350  178.6160  144.3300 C   0  0  0  0  0  0  0  0  0  0  0  0
  187.3660  177.2010  142.9180 C   0  0  0  0  0  0  0  0  0  0  0  0
  184.4470  179.2340  145.1280 N   0  0  0  0  0  0  0  0  0  0  0  0
  185.8920  179.1310  143.1140 C   0  0  0  0  0  3  0  0  0  0  0  0
  184.1400  178.4810  146.3370 C   0  0  0  0  0  3  0  0  0  0  0  0
  185.1800  176.9570  146.3780 S   0  0  0  0  0  0  0  0  0  0  0  0
  185.9240  177.4420  144.8360 C   0  0  0  0  0  0  0  0  0  0  0  0
  186.8650  178.4110  142.4050 C   0  0  0  0  0  3  0  0  0  0  0  0
  186.8910  176.7110  144.1460 C   0  0  0  0  0  3  0  0  0  0  0  0
  1 38  1  6  0  0  0
  1  5  1  0  0  0  0
  2 12  2  0  0  0  0
  2 14  1  0  0  0  0
  3 11  1  0  0  0  0
  3  4  1  0  0  0  0
  4  8  1  6  0  0  0
  4 10  1  0  0  0  0
  5  2  1  0  0  0  0
  7  6  1  6  0  0  0
  7  9  1  0  0  0  0
  8 13  1  0  0  0  0
 10  7  1  0  0  0  0
 10 12  1  1  0  0  0
 11 18  1  1  0  0  0
 11  1  1  0  0  0  0
 13  9  1  0  0  0  0
 14 16  1  0  0  0  0
 14 15  1  0  0  0  0
 16 15  1  0  0  0  0
 18 17  1  1  0  0  0
 19 23  1  0  0  0  0
 20 22  2  0  0  0  0
 21 18  1  0  0  0  0
 22 21  1  0  0  0  0
 23 25  1  0  0  0  0
 23 21  2  0  0  0  0
 24 19  2  0  0  0  0
 24 20  1  0  0  0  0
 25 26  2  0  0  0  0
 27 25  2  0  0  0  0
 29 25  1  0  0  0  0
 29 28  1  0  0  0  0
 30 31  2  0  0  0  0
 30 32  1  0  0  0  0
 32 29  1  1  0  0  0
 33 34  1  1  0  0  0
 33 30  1  0  0  0  0
 33 32  1  0  0  0  0
 35 34  1  0  0  0  0
 36 35  2  0  0  0  0
 37 35  1  0  0  0  0
 39 38  1  0  0  0  0
 39 41  1  0  0  0  0
 40 46  1  0  0  0  0
 40 42  1  0  0  0  0
 41 48  1  0  0  0  0
 42 44  2  0  0  0  0
 43 40  2  0  0  0  0
 44 45  1  0  0  0  0
 46 45  1  0  0  0  0
 47 41  2  0  0  0  0
 47 43  1  0  0  0  0
 48 46  2  0  0  0  0
M  END
>  <MODEL>
4

>  <REMARK>
 VINA RESULT:      -7.5      2.185      6.209
  Name = 
  11 active torsions:
  status: ('A' for Active; 'I' for Inactive)
    1  A    between atoms: C_3  and  C_6
    2  A    between atoms: C_4  and  C_12
    3  A    between atoms: C_5  and  C_10
    4  A    between atoms: S_8  and  N_37
    5  A    between atoms: S_8  and  C_43
    6  A    between atoms: C_10  and  C_33
    7  A    between atoms: C_12  and  C_42
    8  A    between atoms: C_18  and  C_33
    9  A    between atoms: C_29  and  C_35
   10  A    between atoms: C_30  and  N_37
   11  A    between atoms: C_35  and  C_41
                            x       y       z     vdW  Elec       q    Type
                         _______ _______ _______ _____ _____    ______ ____

>  <TORSDO>
F 11

$$$$
=
 OpenBabel11062421483D

 48 54  0  0  1  0  0  0  0  0999 V2000
  191.2200  172.0720  142.8340 C   0  0  2  0  0  3  0  0  0  0  0  0
  192.1210  170.7160  141.0280 C   0  0  0  0  0  0  0  0  0  0  0  0
  191.1370  174.3580  141.1450 S   0  0  0  0  0  0  0  0  0  0  0  0
  190.3530  173.0690  140.1190 C   0  0  1  0  0  3  0  0  0  0  0  0
  192.2800  171.7520  141.9470 O   0  0  0  0  0  0  0  0  0  0  0  0
  191.3930  173.5550  137.1920 O   0  0  0  0  0  1  0  0  0  0  0  0
  191.1330  172.3150  137.7720 C   0  0  2  0  0  3  0  0  0  0  0  0
  189.2700  173.7090  139.2620 C   0  0  0  0  0  2  0  0  0  0  0  0
  189.6830  171.9040  137.4960 C   0  0  0  0  0  2  0  0  0  0  0  0
  191.4410  172.3640  139.2770 C   0  0  2  0  0  3  0  0  0  0  0  0
  190.8330  173.5590  142.7670 C   0  0  1  0  0  3  0  0  0  0  0  0
  191.7110  170.9770  139.7840 C   0  0  0  0  0  3  0  0  0  0  0  0
  188.6420  172.6680  138.3380 C   0  0  0  0  0  2  0  0  0  0  0  0
  192.3470  169.2930  141.4400 C   0  0  0  0  0  3  0  0  0  0  0  0
  191.8170  168.3380  140.3890 C   0  0  0  0  0  2  0  0  0  0  0  0
  191.0120  168.6020  141.6380 C   0  0  0  0  0  2  0  0  0  0  0  0
  188.6510  172.7140  143.4830 O   0  0  0  0  0  1  0  0  0  0  0  0
  189.4090  173.8690  143.2650 C   0  0  1  0  0  3  0  0  0  0  0  0
  188.9600  176.8500  145.6170 C   0  0  0  0  0  3  0  0  0  0  0  0
  189.6820  174.9390  146.9090 C   0  0  0  0  0  3  0  0  0  0  0  0
  189.4040  174.7340  144.4990 C   0  0  0  0  0  0  0  0  0  0  0  0
  189.7290  174.1710  145.7420 C   0  0  0  0  0  3  0  0  0  0  0  0
  189.0030  176.0890  144.4390 C   0  0  0  0  0  0  0  0  0  0  0  0
  189.3000  176.2800  146.8460 C   0  0  0  0  0  3  0  0  0  0  0  0
  188.5380  176.8590  142.9200 S   0  0  0  0  0  0  0  0  0  0  0  0
  189.7120  177.6390  142.3870 O   0  0  0  0  0  0  0  0  0  0  0  0
  188.1740  175.8000  141.9140 O   0  0  0  0  0  0  0  0  0  0  0  0
  186.9080  178.5550  142.0680 O   0  0  0  0  0  1  0  0  0  0  0  0
  187.1840  177.9120  143.2250 N   0  0  0  0  0  0  0  0  0  0  0  0
  184.7570  177.9940  143.5530 C   0  0  0  0  0  0  0  0  0  0  0  0
  183.9130  178.6620  142.9840 O   0  0  0  0  0  0  0  0  0  0  0  0
  186.0080  177.1100  143.5530 C   0  0  2  0  0  3  0  0  0  0  0  0
  185.4000  177.4300  144.8220 C   0  0  1  0  0  3  0  0  0  0  0  0
  186.0360  178.5810  145.5940 C   0  0  0  0  0  2  0  0  0  0  0  0
  185.6380  178.5170  147.0200 C   0  0  0  0  0  0  0  0  0  0  0  0
  186.5930  178.6890  148.0120 O   0  0  0  0  0  1  0  0  0  0  0  0
  184.4420  178.2900  147.3270 O   0  0  0  0  0  0  0  0  0  0  0  0
  191.5560  171.6440  144.2570 C   0  0  0  0  0  2  0  0  0  0  0  0
  193.0590  171.5520  144.4830 C   0  0  0  0  0  2  0  0  0  0  0  0
  194.8020  175.4430  144.6620 C   0  0  0  0  0  0  0  0  0  0  0  0
  193.6600  172.9130  144.5290 C   0  0  0  0  0  0  0  0  0  0  0  0
  195.4650  176.6900  144.6370 N   0  0  0  0  0  0  0  0  0  0  0  0
  193.8300  175.0920  145.6030 C   0  0  0  0  0  3  0  0  0  0  0  0
  196.4460  176.7910  143.5650 C   0  0  0  0  0  3  0  0  0  0  0  0
  196.4620  175.2120  142.6120 S   0  0  0  0  0  0  0  0  0  0  0  0
  195.1910  174.5720  143.6800 C   0  0  0  0  0  0  0  0  0  0  0  0
  193.2590  173.8140  145.5320 C   0  0  0  0  0  3  0  0  0  0  0  0
  194.6360  173.2950  143.5930 C   0  0  0  0  0  3  0  0  0  0  0  0
  1 38  1  1  0  0  0
  2 14  1  0  0  0  0
  2  5  1  0  0  0  0
  3 11  1  0  0  0  0
  4  8  1  6  0  0  0
  4  3  1  0  0  0  0
  5  1  1  0  0  0  0
  7  6  1  1  0  0  0
  7 10  1  0  0  0  0
  9  7  1  0  0  0  0
  9 13  1  0  0  0  0
 10 12  1  1  0  0  0
 10  4  1  0  0  0  0
 11  1  1  0  0  0  0
 11 18  1  6  0  0  0
 12  2  2  0  0  0  0
 13  8  1  0  0  0  0
 14 16  1  0  0  0  0
 15 14  1  0  0  0  0
 15 16  1  0  0  0  0
 18 17  1  1  0  0  0
 18 21  1  0  0  0  0
 19 24  1  0  0  0  0
 21 22  2  0  0  0  0
 22 20  1  0  0  0  0
 23 21  1  0  0  0  0
 23 19  2  0  0  0  0
 24 20  2  0  0  0  0
 25 29  1  0  0  0  0
 25 23  1  0  0  0  0
 26 25  2  0  0  0  0
 27 25  2  0  0  0  0
 28 29  1  0  0  0  0
 30 32  1  0  0  0  0
 30 33  1  0  0  0  0
 31 30  2  0  0  0  0
 32 29  1  1  0  0  0
 32 33  1  0  0  0  0
 33 34  1  1  0  0  0
 34 35  1  0  0  0  0
 35 37  2  0  0  0  0
 35 36  1  0  0  0  0
 38 39  1  0  0  0  0
 39 41  1  0  0  0  0
 40 43  1  0  0  0  0
 41 47  1  0  0  0  0
 42 40  1  0  0  0  0
 44 42  2  0  0  0  0
 45 44  1  0  0  0  0
 45 46  1  0  0  0  0
 46 40  2  0  0  0  0
 47 43  2  0  0  0  0
 48 46  1  0  0  0  0
 48 41  2  0  0  0  0
M  END
>  <MODEL>
5

>  <REMARK>
 VINA RESULT:      -7.1      2.861      7.299
  Name = 
  11 active torsions:
  status: ('A' for Active; 'I' for Inactive)
    1  A    between atoms: C_3  and  C_6
    2  A    between atoms: C_4  and  C_12
    3  A    between atoms: C_5  and  C_10
    4  A    between atoms: S_8  and  N_37
    5  A    between atoms: S_8  and  C_43
    6  A    between atoms: C_10  and  C_33
    7  A    between atoms: C_12  and  C_42
    8  A    between atoms: C_18  and  C_33
    9  A    between atoms: C_29  and  C_35
   10  A    between atoms: C_30  and  N_37
   11  A    between atoms: C_35  and  C_41
                            x       y       z     vdW  Elec       q    Type
                         _______ _______ _______ _____ _____    ______ ____

>  <TORSDO>
F 11

$$$$
=
 OpenBabel11062421483D

 48 54  0  0  1  0  0  0  0  0999 V2000
  190.3800  174.2560  142.5430 C   0  0  2  0  0  3  0  0  0  0  0  0
  189.1560  172.5170  141.3630 C   0  0  0  0  0  0  0  0  0  0  0  0
  192.0190  172.3130  143.8130 S   0  0  0  0  0  0  0  0  0  0  0  0
  192.0690  171.8000  142.0630 C   0  0  1  0  0  3  0  0  0  0  0  0
  189.4810  173.1580  142.5580 O   0  0  0  0  0  0  0  0  0  0  0  0
  191.9650  168.6580  142.0860 O   0  0  0  0  0  1  0  0  0  0  0  0
  191.3730  169.4890  141.1370 C   0  0  2  0  0  3  0  0  0  0  0  0
  193.4400  171.2140  141.7570 C   0  0  0  0  0  2  0  0  0  0  0  0
  192.3460  169.7350  139.9790 C   0  0  0  0  0  2  0  0  0  0  0  0
  190.9200  170.8010  141.7970 C   0  0  2  0  0  3  0  0  0  0  0  0
  191.5540  174.0600  143.5160 C   0  0  1  0  0  3  0  0  0  0  0  0
  189.8280  171.4280  140.9800 C   0  0  0  0  0  3  0  0  0  0  0  0
  193.4910  170.7090  140.3170 C   0  0  0  0  0  2  0  0  0  0  0  0
  188.0940  173.0750  140.4650 C   0  0  0  0  0  3  0  0  0  0  0  0
  188.3380  172.6670  139.0260 C   0  0  0  0  0  2  0  0  0  0  0  0
  188.7160  174.0530  139.4880 C   0  0  0  0  0  2  0  0  0  0  0  0
  192.5830  175.7980  142.1330 O   0  0  0  0  0  1  0  0  0  0  0  0
  192.8000  174.9030  143.1870 C   0  0  1  0  0  3  0  0  0  0  0  0
  195.1170  176.8290  145.5420 C   0  0  0  0  0  3  0  0  0  0  0  0
  192.9310  176.6640  146.5610 C   0  0  0  0  0  3  0  0  0  0  0  0
  193.3340  175.6390  144.3900 C   0  0  0  0  0  0  0  0  0  0  0  0
  192.4740  175.9380  145.4580 C   0  0  0  0  0  3  0  0  0  0  0  0
  194.6690  176.1020  144.4280 C   0  0  0  0  0  0  0  0  0  0  0  0
  194.2540  177.1070  146.6050 C   0  0  0  0  0  3  0  0  0  0  0  0
  195.7990  175.8040  143.1060 S   0  0  0  0  0  0  0  0  0  0  0  0
  195.3540  176.5840  141.8960 O   0  0  0  0  0  0  0  0  0  0  0  0
  197.1700  176.2830  143.5020 O   0  0  0  0  0  0  0  0  0  0  0  0
  195.6170  173.9490  141.4360 O   0  0  0  0  0  1  0  0  0  0  0  0
  195.8160  174.0960  142.7660 N   0  0  0  0  0  0  0  0  0  0  0  0
  197.0930  172.0250  143.0570 C   0  0  0  0  0  0  0  0  0  0  0  0
  196.9830  170.9510  142.4910 O   0  0  0  0  0  0  0  0  0  0  0  0
  197.1420  173.5550  143.0550 C   0  0  2  0  0  3  0  0  0  0  0  0
  197.2470  172.8720  144.3220 C   0  0  1  0  0  3  0  0  0  0  0  0
  195.9590  172.7690  145.1320 C   0  0  0  0  0  2  0  0  0  0  0  0
  195.8620  171.4320  145.7630 C   0  0  0  0  0  0  0  0  0  0  0  0
  194.7300  170.6540  145.5630 O   0  0  0  0  0  0  0  0  0  0  0  0
  196.7960  171.0130  146.4910 O   0  0  0  0  0  1  0  0  0  0  0  0
  189.6430  175.5630  142.8090 C   0  0  0  0  0  2  0  0  0  0  0  0
  189.0860  175.6240  144.2250 C   0  0  0  0  0  2  0  0  0  0  0  0
  185.3980  177.7700  144.2780 C   0  0  0  0  0  0  0  0  0  0  0  0
  187.8080  176.3880  144.2470 C   0  0  0  0  0  0  0  0  0  0  0  0
  184.1890  178.4880  144.4220 N   0  0  0  0  0  0  0  0  0  0  0  0
  185.7920  177.1310  143.1000 C   0  0  0  0  0  3  0  0  0  0  0  0
  184.0110  179.0400  145.7580 C   0  0  0  0  0  3  0  0  0  0  0  0
  185.4670  178.5840  146.7970 S   0  0  0  0  0  0  0  0  0  0  0  0
  186.1750  177.7340  145.4040 C   0  0  0  0  0  0  0  0  0  0  0  0
  187.0090  176.4340  143.0910 C   0  0  0  0  0  3  0  0  0  0  0  0
  187.3880  177.0440  145.4160 C   0  0  0  0  0  3  0  0  0  0  0  0
  1  5  1  0  0  0  0
  1 38  1  1  0  0  0
  1 11  1  0  0  0  0
  2  5  1  0  0  0  0
  4  8  1  1  0  0  0
  4  3  1  0  0  0  0
  7 10  1  0  0  0  0
  7  6  1  1  0  0  0
  9 13  1  0  0  0  0
  9  7  1  0  0  0  0
 10 12  1  6  0  0  0
 10  4  1  0  0  0  0
 11 18  1  6  0  0  0
 11  3  1  0  0  0  0
 12  2  2  0  0  0  0
 13  8  1  0  0  0  0
 14  2  1  0  0  0  0
 15 16  1  0  0  0  0
 15 14  1  0  0  0  0
 16 14  1  0  0  0  0
 18 17  1  6  0  0  0
 18 21  1  0  0  0  0
 19 24  1  0  0  0  0
 20 24  2  0  0  0  0
 21 23  1  0  0  0  0
 21 22  2  0  0  0  0
 22 20  1  0  0  0  0
 23 19  2  0  0  0  0
 25 27  2  0  0  0  0
 25 23  1  0  0  0  0
 26 25  2  0  0  0  0
 28 29  1  0  0  0  0
 29 25  1  0  0  0  0
 30 33  1  0  0  0  0
 31 30  2  0  0  0  0
 32 29  1  1  0  0  0
 32 30  1  0  0  0  0
 32 33  1  0  0  0  0
 33 34  1  1  0  0  0
 34 35  1  0  0  0  0
 35 37  1  0  0  0  0
 36 35  2  0  0  0  0
 38 39  1  0  0  0  0
 39 41  1  0  0  0  0
 40 42  1  0  0  0  0
 40 46  1  0  0  0  0
 41 48  1  0  0  0  0
 42 44  2  0  0  0  0
 43 40  2  0  0  0  0
 44 45  1  0  0  0  0
 46 48  2  0  0  0  0
 46 45  1  0  0  0  0
 47 43  1  0  0  0  0
 47 41  2  0  0  0  0
M  END
>  <MODEL>
6

>  <REMARK>
 VINA RESULT:      -7.0      1.856      2.428
  Name = 
  11 active torsions:
  status: ('A' for Active; 'I' for Inactive)
    1  A    between atoms: C_3  and  C_6
    2  A    between atoms: C_4  and  C_12
    3  A    between atoms: C_5  and  C_10
    4  A    between atoms: S_8  and  N_37
    5  A    between atoms: S_8  and  C_43
    6  A    between atoms: C_10  and  C_33
    7  A    between atoms: C_12  and  C_42
    8  A    between atoms: C_18  and  C_33
    9  A    between atoms: C_29  and  C_35
   10  A    between atoms: C_30  and  N_37
   11  A    between atoms: C_35  and  C_41
                            x       y       z     vdW  Elec       q    Type
                         _______ _______ _______ _____ _____    ______ ____

>  <TORSDO>
F 11

$$$$
=
 OpenBabel11062421483D

 48 54  0  0  1  0  0  0  0  0999 V2000
  190.8910  175.0690  143.9850 C   0  0  2  0  0  3  0  0  0  0  0  0
  192.0920  175.6040  146.0320 C   0  0  0  0  0  0  0  0  0  0  0  0
  193.2850  175.2710  142.4660 S   0  0  0  0  0  0  0  0  0  0  0  0
  193.7830  174.2120  143.8640 C   0  0  1  0  0  3  0  0  0  0  0  0
  191.6050  175.9980  144.7860 O   0  0  0  0  0  0  0  0  0  0  0  0
  196.6890  175.1260  144.6390 O   0  0  0  0  0  1  0  0  0  0  0  0
  195.7050  174.6940  145.5260 C   0  0  2  0  0  3  0  0  0  0  0  0
  194.8130  173.2020  143.3790 C   0  0  0  0  0  2  0  0  0  0  0  0
  195.8160  173.1800  145.7320 C   0  0  0  0  0  2  0  0  0  0  0  0
  194.3160  175.1050  145.0090 C   0  0  2  0  0  3  0  0  0  0  0  0
  191.4850  174.9410  142.5730 C   0  0  1  0  0  3  0  0  0  0  0  0
  193.3470  175.1640  146.1530 C   0  0  0  0  0  3  0  0  0  0  0  0
  195.3040  172.3450  144.5430 C   0  0  0  0  0  2  0  0  0  0  0  0
  191.1980  175.6080  147.2340 C   0  0  0  0  0  3  0  0  0  0  0  0
  190.3280  176.8490  147.2520 C   0  0  0  0  0  2  0  0  0  0  0  0
  191.5540  176.7790  148.1290 C   0  0  0  0  0  2  0  0  0  0  0  0
  190.5830  172.6700  142.7110 O   0  0  0  0  0  1  0  0  0  0  0  0
  191.1320  173.6280  141.8510 C   0  0  1  0  0  3  0  0  0  0  0  0
  189.7080  173.6000  138.3020 C   0  0  0  0  0  3  0  0  0  0  0  0
  188.0660  174.5620  139.7940 C   0  0  0  0  0  3  0  0  0  0  0  0
  190.2220  173.8450  140.6680 C   0  0  0  0  0  0  0  0  0  0  0  0
  188.9480  174.3980  140.8660 C   0  0  0  0  0  3  0  0  0  0  0  0
  190.6010  173.4300  139.3710 C   0  0  0  0  0  0  0  0  0  0  0  0
  188.4470  174.1650  138.5110 C   0  0  0  0  0  3  0  0  0  0  0  0
  192.1690  172.6860  139.0490 S   0  0  0  0  0  0  0  0  0  0  0  0
  192.4700  172.7970  137.5760 O   0  0  0  0  0  0  0  0  0  0  0  0
  193.2380  173.4240  139.8080 O   0  0  0  0  0  0  0  0  0  0  0  0
  192.7050  170.9310  140.7490 O   0  0  0  0  0  1  0  0  0  0  0  0
  192.1020  171.0170  139.5410 N   0  0  0  0  0  0  0  0  0  0  0  0
  190.6290  169.1260  140.0490 C   0  0  0  0  0  0  0  0  0  0  0  0
  190.8080  168.1680  140.7810 O   0  0  0  0  0  0  0  0  0  0  0  0
  190.7090  170.6230  139.7370 C   0  0  2  0  0  3  0  0  0  0  0  0
  190.1880  169.7430  138.7190 C   0  0  1  0  0  3  0  0  0  0  0  0
  191.1740  169.3160  137.6380 C   0  0  0  0  0  2  0  0  0  0  0  0
  190.8090  169.9370  136.3440 C   0  0  0  0  0  0  0  0  0  0  0  0
  189.7260  170.8020  136.2730 O   0  0  0  0  0  1  0  0  0  0  0  0
  191.4700  169.6670  135.3100 O   0  0  0  0  0  0  0  0  0  0  0  0
  189.4080  175.4190  143.9410 C   0  0  0  0  0  2  0  0  0  0  0  0
  189.1790  176.9250  143.9360 C   0  0  0  0  0  2  0  0  0  0  0  0
  185.1480  177.8550  142.8890 C   0  0  0  0  0  0  0  0  0  0  0  0
  187.7710  177.2330  143.5620 C   0  0  0  0  0  0  0  0  0  0  0  0
  183.8550  178.1830  142.4250 N   0  0  0  0  0  0  0  0  0  0  0  0
  185.4840  177.7250  144.2390 C   0  0  0  0  0  3  0  0  0  0  0  0
  183.7780  178.2740  140.9730 C   0  0  0  0  0  3  0  0  0  0  0  0
  185.4420  177.9190  140.2580 S   0  0  0  0  0  0  0  0  0  0  0  0
  186.0780  177.6740  141.9010 C   0  0  0  0  0  0  0  0  0  0  0  0
  186.8100  177.4130  144.5720 C   0  0  0  0  0  3  0  0  0  0  0  0
  187.4030  177.3650  142.2120 C   0  0  0  0  0  3  0  0  0  0  0  0
  1 38  1  6  0  0  0
  1  5  1  0  0  0  0
  2 12  2  0  0  0  0
  2 14  1  0  0  0  0
  3 11  1  0  0  0  0
  3  4  1  0  0  0  0
  4  8  1  6  0  0  0
  4 10  1  0  0  0  0
  5  2  1  0  0  0  0
  7  6  1  6  0  0  0
  7  9  1  0  0  0  0
  8 13  1  0  0  0  0
 10  7  1  0  0  0  0
 10 12  1  1  0  0  0
 11 18  1  1  0  0  0
 11  1  1  0  0  0  0
 13  9  1  0  0  0  0
 14 15  1  0  0  0  0
 14 16  1  0  0  0  0
 15 16  1  0  0  0  0
 18 17  1  1  0  0  0
 19 24  2  0  0  0  0
 19 23  1  0  0  0  0
 20 22  2  0  0  0  0
 21 22  1  0  0  0  0
 21 18  1  0  0  0  0
 23 21  2  0  0  0  0
 24 20  1  0  0  0  0
 25 23  1  0  0  0  0
 25 29  1  0  0  0  0
 25 27  2  0  0  0  0
 26 25  2  0  0  0  0
 29 28  1  0  0  0  0
 30 31  2  0  0  0  0
 32 29  1  6  0  0  0
 32 30  1  0  0  0  0
 33 34  1  6  0  0  0
 33 32  1  0  0  0  0
 33 30  1  0  0  0  0
 35 34  1  0  0  0  0
 36 35  1  0  0  0  0
 37 35  2  0  0  0  0
 39 38  1  0  0  0  0
 40 43  1  0  0  0  0
 41 39  1  0  0  0  0
 41 47  1  0  0  0  0
 42 40  1  0  0  0  0
 43 47  2  0  0  0  0
 44 42  2  0  0  0  0
 45 44  1  0  0  0  0
 45 46  1  0  0  0  0
 46 48  1  0  0  0  0
 46 40  2  0  0  0  0
 48 41  2  0  0  0  0
M  END
>  <MODEL>
7

>  <REMARK>
 VINA RESULT:      -7.0      2.512      6.690
  Name = 
  11 active torsions:
  status: ('A' for Active; 'I' for Inactive)
    1  A    between atoms: C_3  and  C_6
    2  A    between atoms: C_4  and  C_12
    3  A    between atoms: C_5  and  C_10
    4  A    between atoms: S_8  and  N_37
    5  A    between atoms: S_8  and  C_43
    6  A    between atoms: C_10  and  C_33
    7  A    between atoms: C_12  and  C_42
    8  A    between atoms: C_18  and  C_33
    9  A    between atoms: C_29  and  C_35
   10  A    between atoms: C_30  and  N_37
   11  A    between atoms: C_35  and  C_41
                            x       y       z     vdW  Elec       q    Type
                         _______ _______ _______ _____ _____    ______ ____

>  <TORSDO>
F 11

$$$$
=
 OpenBabel11062421483D

 48 54  0  0  1  0  0  0  0  0999 V2000
  188.8290  175.9620  142.9590 C   0  0  2  0  0  3  0  0  0  0  0  0
  189.3150  177.4050  144.8560 C   0  0  0  0  0  0  0  0  0  0  0  0
  191.6010  175.6830  142.3950 S   0  0  0  0  0  0  0  0  0  0  0  0
  191.5210  175.3590  144.1880 C   0  0  1  0  0  3  0  0  0  0  0  0
  189.3040  177.1950  143.4780 O   0  0  0  0  0  0  0  0  0  0  0  0
  194.0620  176.7360  145.4240 O   0  0  0  0  0  1  0  0  0  0  0  0
  192.8080  176.6470  146.0240 C   0  0  2  0  0  3  0  0  0  0  0  0
  192.5710  174.3210  144.5530 C   0  0  0  0  0  2  0  0  0  0  0  0
  192.7260  175.3770  146.8780 C   0  0  0  0  0  2  0  0  0  0  0  0
  191.7080  176.6910  144.9510 C   0  0  2  0  0  3  0  0  0  0  0  0
  189.8500  175.2920  142.0230 C   0  0  1  0  0  3  0  0  0  0  0  0
  190.4200  177.1560  145.5640 C   0  0  0  0  0  3  0  0  0  0  0  0
  192.5780  174.0790  146.0600 C   0  0  0  0  0  2  0  0  0  0  0  0
  188.0740  177.8500  145.5670 C   0  0  0  0  0  3  0  0  0  0  0  0
  188.1460  177.5030  147.0410 C   0  0  0  0  0  2  0  0  0  0  0  0
  187.3340  176.6400  146.1060 C   0  0  0  0  0  2  0  0  0  0  0  0
  188.6220  173.2700  142.6500 O   0  0  0  0  0  1  0  0  0  0  0  0
  189.6580  173.7740  141.8550 C   0  0  1  0  0  3  0  0  0  0  0  0
  189.7340  171.8020  138.5800 C   0  0  0  0  0  3  0  0  0  0  0  0
  188.3950  173.7910  138.2630 C   0  0  0  0  0  3  0  0  0  0  0  0
  189.4500  173.3740  140.4170 C   0  0  0  0  0  0  0  0  0  0  0  0
  188.6450  174.1670  139.5860 C   0  0  0  0  0  3  0  0  0  0  0  0
  189.9910  172.1700  139.9100 C   0  0  0  0  0  0  0  0  0  0  0  0
  188.9420  172.6090  137.7580 C   0  0  0  0  0  3  0  0  0  0  0  0
  190.9780  171.0960  140.9040 S   0  0  0  0  0  0  0  0  0  0  0  0
  190.1900  170.7010  142.1270 O   0  0  0  0  0  0  0  0  0  0  0  0
  191.3030  169.8510  140.1250 O   0  0  0  0  0  0  0  0  0  0  0  0
  192.7420  171.5630  142.6160 O   0  0  0  0  0  1  0  0  0  0  0  0
  192.4330  171.9420  141.3540 N   0  0  0  0  0  0  0  0  0  0  0  0
  194.7890  172.3270  140.8030 C   0  0  0  0  0  0  0  0  0  0  0  0
  195.7190  172.6450  141.5230 O   0  0  0  0  0  0  0  0  0  0  0  0
  193.5340  171.5040  140.5010 C   0  0  2  0  0  3  0  0  0  0  0  0
  193.9600  172.4780  139.5250 C   0  0  1  0  0  3  0  0  0  0  0  0
  193.2430  173.8230  139.5710 C   0  0  0  0  0  2  0  0  0  0  0  0
  194.1940  174.9160  139.2610 C   0  0  0  0  0  0  0  0  0  0  0  0
  194.6910  175.0560  137.9730 O   0  0  0  0  0  0  0  0  0  0  0  0
  194.5630  175.7010  140.1690 O   0  0  0  0  0  1  0  0  0  0  0  0
  187.4790  176.1450  142.2780 C   0  0  0  0  0  2  0  0  0  0  0  0
  187.2210  177.5990  141.9070 C   0  0  0  0  0  2  0  0  0  0  0  0
  183.2240  178.7350  142.8770 C   0  0  0  0  0  0  0  0  0  0  0  0
  185.8210  177.9780  142.2430 C   0  0  0  0  0  0  0  0  0  0  0  0
  181.8750  179.1060  143.0740 N   0  0  0  0  0  0  0  0  0  0  0  0
  184.2090  178.8190  143.8640 C   0  0  0  0  0  3  0  0  0  0  0  0
  181.0590  178.9390  141.8780 C   0  0  0  0  0  3  0  0  0  0  0  0
  182.1170  178.2900  140.5130 S   0  0  0  0  0  0  0  0  0  0  0  0
  183.5110  178.2840  141.6170 C   0  0  0  0  0  0  0  0  0  0  0  0
  185.5180  178.4370  143.5370 C   0  0  0  0  0  3  0  0  0  0  0  0
  184.8080  177.9000  141.2720 C   0  0  0  0  0  3  0  0  0  0  0  0
  1 38  1  6  0  0  0
  1  5  1  0  0  0  0
  2 12  2  0  0  0  0
  2 14  1  0  0  0  0
  3  4  1  0  0  0  0
  4  8  1  1  0  0  0
  4 10  1  0  0  0  0
  5  2  1  0  0  0  0
  7  6  1  6  0  0  0
  7  9  1  0  0  0  0
  8 13  1  0  0  0  0
 10 12  1  1  0  0  0
 10  7  1  0  0  0  0
 11 18  1  1  0  0  0
 11  3  1  0  0  0  0
 11  1  1  0  0  0  0
 13  9  1  0  0  0  0
 14 16  1  0  0  0  0
 14 15  1  0  0  0  0
 16 15  1  0  0  0  0
 18 17  1  1  0  0  0
 19 23  1  0  0  0  0
 20 22  2  0  0  0  0
 21 18  1  0  0  0  0
 22 21  1  0  0  0  0
 23 21  2  0  0  0  0
 23 25  1  0  0  0  0
 24 20  1  0  0  0  0
 24 19  2  0  0  0  0
 25 29  1  0  0  0  0
 25 26  2  0  0  0  0
 27 25  2  0  0  0  0
 29 28  1  0  0  0  0
 30 31  2  0  0  0  0
 32 30  1  0  0  0  0
 32 29  1  1  0  0  0
 33 34  1  1  0  0  0
 33 32  1  0  0  0  0
 33 30  1  0  0  0  0
 35 34  1  0  0  0  0
 35 37  1  0  0  0  0
 36 35  2  0  0  0  0
 39 41  1  0  0  0  0
 39 38  1  0  0  0  0
 40 42  1  0  0  0  0
 40 43  1  0  0  0  0
 41 47  1  0  0  0  0
 44 42  2  0  0  0  0
 45 46  1  0  0  0  0
 45 44  1  0  0  0  0
 46 40  2  0  0  0  0
 47 43  2  0  0  0  0
 48 46  1  0  0  0  0
 48 41  2  0  0  0  0
M  END
>  <MODEL>
8

>  <REMARK>
 VINA RESULT:      -7.0      2.356      6.284
  Name = 
  11 active torsions:
  status: ('A' for Active; 'I' for Inactive)
    1  A    between atoms: C_3  and  C_6
    2  A    between atoms: C_4  and  C_12
    3  A    between atoms: C_5  and  C_10
    4  A    between atoms: S_8  and  N_37
    5  A    between atoms: S_8  and  C_43
    6  A    between atoms: C_10  and  C_33
    7  A    between atoms: C_12  and  C_42
    8  A    between atoms: C_18  and  C_33
    9  A    between atoms: C_29  and  C_35
   10  A    between atoms: C_30  and  N_37
   11  A    between atoms: C_35  and  C_41
                            x       y       z     vdW  Elec       q    Type
                         _______ _______ _______ _____ _____    ______ ____

>  <TORSDO>
F 11

$$$$
=
 OpenBabel11062421483D

 48 54  0  0  1  0  0  0  0  0999 V2000
  190.2390  175.2830  143.4120 C   0  0  2  0  0  3  0  0  0  0  0  0
  190.8370  176.4100  145.4830 C   0  0  0  0  0  0  0  0  0  0  0  0
  192.7180  176.0230  142.2330 S   0  0  0  0  0  0  0  0  0  0  0  0
  193.2260  175.3510  143.8500 C   0  0  1  0  0  3  0  0  0  0  0  0
  190.4990  176.4790  144.1320 O   0  0  0  0  0  0  0  0  0  0  0  0
  195.5570  177.2040  144.8560 O   0  0  0  0  0  1  0  0  0  0  0  0
  194.5890  176.6030  145.6560 C   0  0  2  0  0  3  0  0  0  0  0  0
  194.5710  174.6550  143.6980 C   0  0  0  0  0  2  0  0  0  0  0  0
  195.0830  175.2350  146.1360 C   0  0  0  0  0  2  0  0  0  0  0  0
  193.2620  176.4990  144.8850 C   0  0  2  0  0  3  0  0  0  0  0  0
  191.0980  175.1710  142.1410 C   0  0  1  0  0  3  0  0  0  0  0  0
  192.1200  176.3980  145.8540 C   0  0  0  0  0  3  0  0  0  0  0  0
  195.0590  174.1420  145.0500 C   0  0  0  0  0  2  0  0  0  0  0  0
  189.7710  176.2870  146.5280 C   0  0  0  0  0  3  0  0  0  0  0  0
  190.3080  175.5920  147.7640 C   0  0  0  0  0  2  0  0  0  0  0  0
  189.4670  174.8220  146.7760 C   0  0  0  0  0  2  0  0  0  0  0  0
  190.7810  172.7710  142.5050 O   0  0  0  0  0  1  0  0  0  0  0  0
  191.2710  173.7340  141.6160 C   0  0  1  0  0  3  0  0  0  0  0  0
  190.7970  172.7810  137.9430 C   0  0  0  0  0  3  0  0  0  0  0  0
  188.6970  173.6060  138.8120 C   0  0  0  0  0  3  0  0  0  0  0  0
  190.6600  173.5390  140.2520 C   0  0  0  0  0  0  0  0  0  0  0  0
  189.3010  173.8270  140.0540 C   0  0  0  0  0  3  0  0  0  0  0  0
  191.4140  172.9980  139.1850 C   0  0  0  0  0  0  0  0  0  0  0  0
  189.4460  173.0860  137.7560 C   0  0  0  0  0  3  0  0  0  0  0  0
  193.1160  172.5690  139.3670 S   0  0  0  0  0  0  0  0  0  0  0  0
  193.7200  172.3720  138.0010 O   0  0  0  0  0  0  0  0  0  0  0  0
  193.8440  173.6950  140.0510 O   0  0  0  0  0  0  0  0  0  0  0  0
  192.6110  170.1290  139.5940 O   0  0  0  0  0  1  0  0  0  0  0  0
  193.2210  171.1050  140.3050 N   0  0  0  0  0  0  0  0  0  0  0  0
  194.7280  169.4360  141.2780 C   0  0  0  0  0  0  0  0  0  0  0  0
  194.5710  168.2380  141.4360 O   0  0  0  0  0  0  0  0  0  0  0  0
  194.6220  170.7140  140.4420 C   0  0  2  0  0  3  0  0  0  0  0  0
  195.1440  170.8190  141.7820 C   0  0  1  0  0  3  0  0  0  0  0  0
  194.1520  171.2620  142.8520 C   0  0  0  0  0  2  0  0  0  0  0  0
  194.4240  170.5510  144.1230 C   0  0  0  0  0  0  0  0  0  0  0  0
  193.4430  169.7490  144.6900 O   0  0  0  0  0  0  0  0  0  0  0  0
  195.5350  170.6880  144.6920 O   0  0  0  0  0  1  0  0  0  0  0  0
  188.7540  175.1510  143.0990 C   0  0  0  0  0  2  0  0  0  0  0  0
  188.2350  176.3330  142.2910 C   0  0  0  0  0  2  0  0  0  0  0  0
  185.0950  178.3170  144.3910 C   0  0  0  0  0  0  0  0  0  0  0  0
  187.1520  177.0330  143.0350 C   0  0  0  0  0  0  0  0  0  0  0  0
  184.0740  178.8910  145.1810 N   0  0  0  0  0  0  0  0  0  0  0  0
  185.2950  178.6090  143.0400 C   0  0  0  0  0  3  0  0  0  0  0  0
  184.0740  178.4020  146.5530 C   0  0  0  0  0  3  0  0  0  0  0  0
  185.4400  177.1790  146.7570 S   0  0  0  0  0  0  0  0  0  0  0  0
  185.8930  177.4230  145.0540 C   0  0  0  0  0  0  0  0  0  0  0  0
  186.3340  177.9570  142.3600 C   0  0  0  0  0  3  0  0  0  0  0  0
  186.9300  176.7630  144.3960 C   0  0  0  0  0  3  0  0  0  0  0  0
  1 38  1  6  0  0  0
  1  5  1  0  0  0  0
  2 12  2  0  0  0  0
  2 14  1  0  0  0  0
  3  4  1  0  0  0  0
  4  8  1  6  0  0  0
  4 10  1  0  0  0  0
  5  2  1  0  0  0  0
  7  6  1  6  0  0  0
  7  9  1  0  0  0  0
  8 13  1  0  0  0  0
 10  7  1  0  0  0  0
 10 12  1  1  0  0  0
 11 18  1  1  0  0  0
 11  3  1  0  0  0  0
 11  1  1  0  0  0  0
 13  9  1  0  0  0  0
 14 16  1  0  0  0  0
 14 15  1  0  0  0  0
 16 15  1  0  0  0  0
 18 17  1  1  0  0  0
 19 23  1  0  0  0  0
 20 22  2  0  0  0  0
 21 18  1  0  0  0  0
 22 21  1  0  0  0  0
 23 25  1  0  0  0  0
 23 21  2  0  0  0  0
 24 19  2  0  0  0  0
 24 20  1  0  0  0  0
 25 27  2  0  0  0  0
 25 29  1  0  0  0  0
 26 25  2  0  0  0  0
 28 29  1  0  0  0  0
 30 31  2  0  0  0  0
 30 33  1  0  0  0  0
 32 29  1  1  0  0  0
 32 30  1  0  0  0  0
 32 33  1  0  0  0  0
 33 34  1  1  0  0  0
 34 35  1  0  0  0  0
 35 36  2  0  0  0  0
 35 37  1  0  0  0  0
 39 41  1  0  0  0  0
 39 38  1  0  0  0  0
 40 46  1  0  0  0  0
 40 42  1  0  0  0  0
 41 48  1  0  0  0  0
 42 44  2  0  0  0  0
 43 40  2  0  0  0  0
 44 45  1  0  0  0  0
 46 45  1  0  0  0  0
 47 41  2  0  0  0  0
 47 43  1  0  0  0  0
 48 46  2  0  0  0  0
M  END
>  <MODEL>
9

>  <REMARK>
 VINA RESULT:      -6.9      1.916      5.646
  Name = 
  11 active torsions:
  status: ('A' for Active; 'I' for Inactive)
    1  A    between atoms: C_3  and  C_6
    2  A    between atoms: C_4  and  C_12
    3  A    between atoms: C_5  and  C_10
    4  A    between atoms: S_8  and  N_37
    5  A    between atoms: S_8  and  C_43
    6  A    between atoms: C_10  and  C_33
    7  A    between atoms: C_12  and  C_42
    8  A    between atoms: C_18  and  C_33
    9  A    between atoms: C_29  and  C_35
   10  A    between atoms: C_30  and  N_37
   11  A    between atoms: C_35  and  C_41
                            x       y       z     vdW  Elec       q    Type
                         _______ _______ _______ _____ _____    ______ ____

>  <TORSDO>
F 11

$$$$
