=
 OpenBabel11062421293D

 66 74  0  0  1  0  0  0  0  0999 V2000
  193.2960  173.0320  136.3470 C   0  0  0  0  0  2  0  0  0  0  0  0
  192.1080  173.6720  137.0570 C   0  0  0  0  0  2  0  0  0  0  0  0
  192.6990  170.7890  137.3970 C   0  0  0  0  0  2  0  0  0  0  0  0
  190.9860  172.6730  137.3420 C   0  0  1  0  0  3  0  0  0  0  0  0
  191.5100  171.4380  138.1040 C   0  0  1  0  0  3  0  0  0  0  0  0
  193.8060  171.7970  137.0870 C   0  0  2  0  0  3  0  0  0  0  0  0
  194.8090  172.0670  138.2220 C   0  0  1  0  0  3  0  0  0  0  0  0
  194.0900  174.8160  140.2680 C   0  0  0  0  0  2  0  0  0  0  0  0
  196.6390  170.6800  137.5350 O   0  0  0  0  0  1  0  0  0  0  0  0
  196.1870  170.6170  139.8780 C   0  0  0  0  0  2  0  0  0  0  0  0
  194.1920  172.6780  139.5030 C   0  0  1  0  0  3  0  0  0  0  0  0
  195.1850  172.7990  140.6600 C   0  0  2  0  0  3  0  0  0  0  0  0
  195.3790  174.2840  140.8430 C   0  0  1  0  0  3  0  0  0  0  0  0
  193.6750  173.9630  139.2310 O   0  0  0  0  0  0  0  0  0  0  0  0
  196.4760  171.9750  140.5040 C   0  0  1  0  0  3  0  0  0  0  0  0
  195.6080  170.7720  138.4700 C   0  0  1  0  0  3  0  0  0  0  0  0
  196.5760  174.8520  140.1120 C   0  0  0  0  0  0  0  0  0  0  0  0
  196.4730  175.0080  138.7820 C   0  0  0  0  0  3  0  0  0  0  0  0
  197.5390  175.6310  137.9330 C   0  0  0  0  0  2  0  0  0  0  0  0
  197.1270  176.5090  135.6980 N   0  0  0  0  0  2  0  0  0  0  0  0
  197.3180  175.2760  136.4760 C   0  0  2  0  0  3  0  0  0  0  0  0
  195.9730  175.6840  136.0850 C   0  0  0  0  0  2  0  0  0  0  0  0
  197.7680  175.3710  140.8720 C   0  0  0  0  0  2  0  0  0  0  0  0
  197.1030  176.7560  142.3670 O   0  0  0  0  0  1  0  0  0  0  0  0
  197.4510  175.4950  142.2260 O   0  0  0  0  0  0  0  0  0  0  0  0
  197.2330  171.8940  141.6940 O   0  0  0  0  0  0  0  0  0  0  0  0
  196.9110  170.7080  142.3780 C   0  0  0  0  0  2  0  0  0  0  0  0
  196.4340  171.7030  144.5670 C   0  0  0  0  0  3  0  0  0  0  0  0
  195.9910  171.0110  143.5100 C   0  0  0  0  0  0  0  0  0  0  0  0
  194.5900  170.4630  143.4950 C   0  0  0  0  0  2  0  0  0  0  0  0
  194.2130  171.8190  145.5730 C   0  0  0  0  0  3  0  0  0  0  0  0
  193.6160  171.3690  144.2670 C   0  0  1  0  0  3  0  0  0  0  0  0
  193.3080  172.4810  143.4980 F   0  0  0  0  0  0  0  0  0  0  0  0
  195.5300  172.0140  145.6900 C   0  0  0  0  0  3  0  0  0  0  0  0
  188.7740  173.8350  137.5870 N   0  0  0  0  0  0  0  0  0  0  0  0
  189.9310  173.3930  138.1270 C   0  0  0  0  0  0  0  0  0  0  0  0
  188.8260  174.1350  139.7610 C   0  0  0  0  0  0  0  0  0  0  0  0
  188.0650  174.3090  138.6280 C   0  0  0  0  0  2  0  0  0  0  0  0
  189.9940  173.5400  139.4650 N   0  0  0  0  0  0  0  0  0  0  0  0
  188.3450  174.3760  141.1530 C   0  0  0  0  0  2  0  0  0  0  0  0
  189.6500  176.1720  142.0880 N   0  0  0  0  0  0  0  0  0  0  0  0
  188.5350  175.8090  141.5280 C   0  0  0  0  0  0  0  0  0  0  0  0
  187.0560  177.6560  142.0740 N   0  0  0  0  0  0  0  0  0  0  0  0
  187.4310  176.7390  141.2440 C   0  0  0  0  0  3  0  0  0  0  0  0
  185.9360  178.5280  141.7570 C   0  0  0  0  0  2  0  0  0  0  0  0
  184.7050  177.2700  143.3940 O   0  0  0  0  0  1  0  0  0  0  0  0
  184.9380  178.5610  142.9090 C   0  0  1  0  0  3  0  0  0  0  0  0
  185.4070  179.4910  144.0290 C   0  0  0  0  0  2  0  0  0  0  0  0
  184.6250  179.3060  145.3330 C   0  0  0  0  0  2  0  0  0  0  0  0
  185.5560  178.9950  146.4990 C   0  0  0  0  0  2  0  0  0  0  0  0
  186.5700  178.1290  146.0820 O   0  0  0  0  0  1  0  0  0  0  0  0
  189.9570  177.4720  142.4180 O   0  0  0  0  0  0  0  0  0  0  0  0
  191.5300  176.3990  145.6440 C   0  0  1  0  0  0  0  0  0  0  0  0
  190.9700  174.9990  145.2680 C   0  0  0  0  0  2  0  0  0  0  0  0
  190.8370  177.7380  143.4990 C   0  0  2  0  0  3  0  0  0  0  0  0
  192.2340  175.0620  145.9710 C   0  0  1  0  0  3  0  0  0  0  0  0
  192.6780  176.7820  144.7380 C   0  0  1  0  0  3  0  0  0  0  0  0
  193.3390  175.4350  144.9910 C   0  0  1  0  0  3  0  0  0  0  0  0
  192.1130  176.9330  143.3390 C   0  0  0  0  0  2  0  0  0  0  0  0
  190.0440  177.2770  145.0860 S   0  0  0  0  0  0  0  0  0  0  0  0
  194.6970  176.0460  146.8770 O   0  0  0  0  0  1  0  0  0  0  0  0
  195.8270  175.2910  145.0330 O   0  0  0  0  0  0  0  0  0  0  0  0
  194.6480  175.6060  145.6960 C   0  0  0  0  0  0  0  0  0  0  0  0
  190.2540  169.9030  139.4230 O   0  0  0  0  0  1  0  0  0  0  0  0
  190.4370  170.4130  138.2890 C   0  0  0  0  0  0  0  0  0  0  0  0
  189.6660  169.9960  137.2110 O   0  0  0  0  0  0  0  0  0  0  0  0
  1  2  1  0  0  0  0
  2  4  1  0  0  0  0
  3  5  1  0  0  0  0
  4  5  1  0  0  0  0
  4 36  1  1  0  0  0
  5 65  1  6  0  0  0
  6  1  1  1  0  0  0
  6  3  1  0  0  0  0
  7  6  1  6  0  0  0
  7 16  1  0  0  0  0
  7 11  1  0  0  0  0
  8 13  1  0  0  0  0
  9 16  1  0  0  0  0
 10 15  1  0  0  0  0
 11 14  1  6  0  0  0
 11 12  1  0  0  0  0
 12 13  1  0  0  0  0
 14  8  1  0  0  0  0
 15 12  1  0  0  0  0
 15 26  1  0  0  0  0
 16 10  1  0  0  0  0
 17 13  1  0  0  0  0
 17 23  1  0  0  0  0
 18 17  2  0  0  0  0
 19 18  1  0  0  0  0
 20 22  1  0  0  0  0
 20 21  1  0  0  0  0
 21 19  1  0  0  0  0
 22 21  1  0  0  0  0
 23 25  1  0  0  0  0
 25 24  1  0  0  0  0
 26 27  1  0  0  0  0
 27 29  1  0  0  0  0
 28 34  1  0  0  0  0
 29 28  2  0  0  0  0
 30 29  1  0  0  0  0
 30 32  1  0  0  0  0
 31 34  2  0  0  0  0
 32 31  1  0  0  0  0
 33 32  1  0  0  0  0
 35 36  2  0  0  0  0
 35 38  1  0  0  0  0
 36 39  1  0  0  0  0
 37 40  1  0  0  0  0
 38 37  1  0  0  0  0
 39 37  2  0  0  0  0
 40 42  1  0  0  0  0
 41 52  1  0  0  0  0
 42 41  2  0  0  0  0
 44 42  1  0  0  0  0
 44 43  2  0  0  0  0
 45 43  1  0  0  0  0
 45 47  1  0  0  0  0
 47 46  1  0  0  0  0
 47 48  1  0  0  0  0
 48 49  1  0  0  0  0
 49 50  1  0  0  0  0
 51 50  1  0  0  0  0
 52 55  1  0  0  0  0
 53 56  1  0  0  0  0
 54 53  1  0  0  0  0
 54 56  1  0  0  0  0
 55 60  1  0  0  0  0
 57 58  1  0  0  0  0
 57 53  1  0  0  0  0
 58 63  1  0  0  0  0
 58 56  1  0  0  0  0
 59 55  1  0  0  0  0
 59 57  1  0  0  0  0
 60 53  1  0  0  0  0
 62 63  2  0  0  0  0
 63 61  1  0  0  0  0
 65 64  1  0  0  0  0
 66 65  2  0  0  0  0
M  END
>  <MODEL>
1

>  <REMARK>
 VINA RESULT:      -6.3      0.000      0.000
  Name = 
  22 active torsions:
  status: ('A' for Active; 'I' for Inactive)
    1  A    between atoms: C_5  and  C_66
    2  A    between atoms: O_8  and  N_25
    3  A    between atoms: O_8  and  C_38
    4  A    between atoms: C_9  and  C_43
    5  A    between atoms: C_9  and  C_57
    6  A    between atoms: C_11  and  C_50
    7  A    between atoms: N_12  and  C_22
    8  A    between atoms: C_13  and  C_47
    9  A    between atoms: C_17  and  C_21
   10  A    between atoms: C_17  and  O_34
   11  A    between atoms: C_18  and  C_19
   12  A    between atoms: C_18  and  C_46
   13  A    between atoms: C_20  and  C_62
   14  A    between atoms: C_22  and  C_60
   15  A    between atoms: C_27  and  C_55
   16  A    between atoms: O_34  and  C_48
   17  A    between atoms: C_35  and  C_51
   18  A    between atoms: C_39  and  C_55
   19  A    between atoms: C_46  and  C_58
   20  A    between atoms: C_47  and  C_52
   21  A    between atoms: C_52  and  C_60
   22  A    between atoms: C_57  and  O_65
                            x       y       z     vdW  Elec       q    Type
                         _______ _______ _______ _____ _____    ______ ____

>  <TORSDO>
F 22

$$$$
=
 OpenBabel11062421293D

 66 74  0  0  1  0  0  0  0  0999 V2000
  192.7330  176.4130  146.3080 C   0  0  0  0  0  2  0  0  0  0  0  0
  193.8190  176.6530  145.2660 C   0  0  0  0  0  2  0  0  0  0  0  0
  192.9970  173.8990  145.9860 C   0  0  0  0  0  2  0  0  0  0  0  0
  194.8100  175.4920  145.1720 C   0  0  1  0  0  3  0  0  0  0  0  0
  194.0860  174.1490  144.9440 C   0  0  1  0  0  3  0  0  0  0  0  0
  192.0270  175.0740  146.0990 C   0  0  2  0  0  3  0  0  0  0  0  0
  190.8620  175.0870  145.0920 C   0  0  1  0  0  3  0  0  0  0  0  0
  190.6430  177.9240  143.0520 C   0  0  0  0  0  2  0  0  0  0  0  0
  189.5210  173.2920  145.9440 O   0  0  0  0  0  1  0  0  0  0  0  0
  189.6990  173.3390  143.5640 C   0  0  0  0  0  2  0  0  0  0  0  0
  191.1580  175.8290  143.7660 C   0  0  1  0  0  3  0  0  0  0  0  0
  190.0380  175.6980  142.7330 C   0  0  2  0  0  3  0  0  0  0  0  0
  189.4660  177.0890  142.6120 C   0  0  1  0  0  3  0  0  0  0  0  0
  191.3720  177.2020  144.0130 O   0  0  0  0  0  0  0  0  0  0  0  0
  189.0160  174.5820  143.0110 C   0  0  1  0  0  3  0  0  0  0  0  0
  190.3820  173.6340  144.9010 C   0  0  1  0  0  3  0  0  0  0  0  0
  188.2590  177.3450  143.4890 C   0  0  0  0  0  0  0  0  0  0  0  0
  188.4780  177.5690  144.7950 C   0  0  0  0  0  3  0  0  0  0  0  0
  187.3970  177.9170  145.7720 C   0  0  0  0  0  2  0  0  0  0  0  0
  185.3760  176.6640  146.3050 N   0  0  0  0  0  2  0  0  0  0  0  0
  186.8430  176.6560  146.4060 C   0  0  2  0  0  3  0  0  0  0  0  0
  186.0390  177.0200  147.5680 C   0  0  0  0  0  2  0  0  0  0  0  0
  186.8890  177.5060  142.8860 C   0  0  0  0  0  2  0  0  0  0  0  0
  185.7960  177.9070  141.0860 O   0  0  0  0  0  1  0  0  0  0  0  0
  186.9930  178.0600  141.6090 O   0  0  0  0  0  0  0  0  0  0  0  0
  188.1690  174.3140  141.9130 O   0  0  0  0  0  0  0  0  0  0  0  0
  188.7100  174.8890  140.7490 C   0  0  0  0  0  2  0  0  0  0  0  0
  188.5670  174.0520  138.4490 C   0  0  0  0  0  3  0  0  0  0  0  0
  188.9280  173.8340  139.7190 C   0  0  0  0  0  0  0  0  0  0  0  0
  189.4770  172.4950  140.1330 C   0  0  0  0  0  2  0  0  0  0  0  0
  189.5460  171.9510  137.6830 C   0  0  0  0  0  3  0  0  0  0  0  0
  190.2720  171.8300  138.9970 C   0  0  1  0  0  3  0  0  0  0  0  0
  191.5160  172.4310  138.8880 F   0  0  0  0  0  0  0  0  0  0  0  0
  188.7840  173.0170  137.4200 C   0  0  0  0  0  3  0  0  0  0  0  0
  196.4060  176.9790  143.9280 N   0  0  0  0  0  0  0  0  0  0  0  0
  195.7590  175.7990  144.0520 C   0  0  0  0  0  0  0  0  0  0  0  0
  197.0520  175.5310  142.4100 C   0  0  0  0  0  0  0  0  0  0  0  0
  197.2340  176.8100  142.8810 C   0  0  0  0  0  2  0  0  0  0  0  0
  196.1430  174.8750  143.1500 N   0  0  0  0  0  0  0  0  0  0  0  0
  197.8920  174.8830  141.3610 C   0  0  0  0  0  2  0  0  0  0  0  0
  196.1830  174.7140  139.6710 N   0  0  0  0  0  0  0  0  0  0  0  0
  197.0380  174.0910  140.4260 C   0  0  0  0  0  0  0  0  0  0  0  0
  197.7230  171.9900  139.4180 N   0  0  0  0  0  0  0  0  0  0  0  0
  197.2120  172.6300  140.4190 C   0  0  0  0  0  3  0  0  0  0  0  0
  197.8410  170.5410  139.4500 C   0  0  0  0  0  2  0  0  0  0  0  0
  197.9130  168.9290  137.6670 O   0  0  0  0  0  1  0  0  0  0  0  0
  197.1210  169.9180  138.2590 C   0  0  1  0  0  3  0  0  0  0  0  0
  195.7550  169.3590  138.6600 C   0  0  0  0  0  2  0  0  0  0  0  0
  194.6540  170.4240  138.6930 C   0  0  0  0  0  2  0  0  0  0  0  0
  193.8310  170.3310  139.9720 C   0  0  0  0  0  2  0  0  0  0  0  0
  194.6780  170.2570  141.0800 O   0  0  0  0  0  1  0  0  0  0  0  0
  195.3920  174.0930  138.7320 O   0  0  0  0  0  0  0  0  0  0  0  0
  193.5310  174.1780  135.4820 C   0  0  1  0  0  0  0  0  0  0  0  0
  192.9500  172.8190  135.9610 C   0  0  0  0  0  2  0  0  0  0  0  0
  194.9530  174.8130  137.5910 C   0  0  2  0  0  3  0  0  0  0  0  0
  192.0940  173.6900  135.1850 C   0  0  1  0  0  3  0  0  0  0  0  0
  192.9730  175.3210  136.3010 C   0  0  1  0  0  3  0  0  0  0  0  0
  191.5600  174.8010  136.0810 C   0  0  1  0  0  3  0  0  0  0  0  0
  193.4770  175.1420  137.7200 C   0  0  0  0  0  2  0  0  0  0  0  0
  195.2050  173.8110  136.0770 S   0  0  0  0  0  0  0  0  0  0  0  0
  191.2530  176.8590  134.8790 O   0  0  0  0  0  0  0  0  0  0  0  0
  189.4100  175.5080  135.0370 O   0  0  0  0  0  1  0  0  0  0  0  0
  190.7470  175.7820  135.2950 C   0  0  0  0  0  0  0  0  0  0  0  0
  194.8950  172.0570  144.1420 O   0  0  0  0  0  0  0  0  0  0  0  0
  195.0440  173.0010  144.9580 C   0  0  0  0  0  0  0  0  0  0  0  0
  196.0760  172.9540  145.8880 O   0  0  0  0  0  1  0  0  0  0  0  0
  2  1  1  0  0  0  0
  4 36  1  6  0  0  0
  4  2  1  0  0  0  0
  5 65  1  1  0  0  0
  5  4  1  0  0  0  0
  5  3  1  0  0  0  0
  6  3  1  6  0  0  0
  6  1  1  0  0  0  0
  7  6  1  1  0  0  0
  8 14  1  0  0  0  0
 10 16  1  0  0  0  0
 11 14  1  1  0  0  0
 11  7  1  0  0  0  0
 12 15  1  0  0  0  0
 12 11  1  0  0  0  0
 13 12  1  0  0  0  0
 13  8  1  0  0  0  0
 13 17  1  0  0  0  0
 15 10  1  0  0  0  0
 16  7  1  0  0  0  0
 16  9  1  0  0  0  0
 17 18  2  0  0  0  0
 18 19  1  0  0  0  0
 19 21  1  0  0  0  0
 20 21  1  0  0  0  0
 20 22  1  0  0  0  0
 21 22  1  0  0  0  0
 23 17  1  0  0  0  0
 24 25  1  0  0  0  0
 25 23  1  0  0  0  0
 26 15  1  0  0  0  0
 27 26  1  0  0  0  0
 28 29  2  0  0  0  0
 29 30  1  0  0  0  0
 29 27  1  0  0  0  0
 31 32  1  0  0  0  0
 32 30  1  0  0  0  0
 33 32  1  0  0  0  0
 34 31  2  0  0  0  0
 34 28  1  0  0  0  0
 35 36  2  0  0  0  0
 37 38  1  0  0  0  0
 37 39  2  0  0  0  0
 38 35  1  0  0  0  0
 39 36  1  0  0  0  0
 40 37  1  0  0  0  0
 41 42  2  0  0  0  0
 42 40  1  0  0  0  0
 43 45  1  0  0  0  0
 43 44  2  0  0  0  0
 44 42  1  0  0  0  0
 46 47  1  0  0  0  0
 47 48  1  0  0  0  0
 47 45  1  0  0  0  0
 48 49  1  0  0  0  0
 49 50  1  0  0  0  0
 50 51  1  0  0  0  0
 52 41  1  0  0  0  0
 53 54  1  0  0  0  0
 53 60  1  0  0  0  0
 53 57  1  0  0  0  0
 55 59  1  0  0  0  0
 55 52  1  0  0  0  0
 56 53  1  0  0  0  0
 56 54  1  0  0  0  0
 56 58  1  0  0  0  0
 57 59  1  0  0  0  0
 58 57  1  0  0  0  0
 60 55  1  0  0  0  0
 61 63  2  0  0  0  0
 62 63  1  0  0  0  0
 63 58  1  0  0  0  0
 64 65  2  0  0  0  0
 65 66  1  0  0  0  0
M  END
>  <MODEL>
2

>  <REMARK>
 VINA RESULT:      -5.9      3.122     10.342
  Name = 
  22 active torsions:
  status: ('A' for Active; 'I' for Inactive)
    1  A    between atoms: C_5  and  C_66
    2  A    between atoms: O_8  and  N_25
    3  A    between atoms: O_8  and  C_38
    4  A    between atoms: C_9  and  C_43
    5  A    between atoms: C_9  and  C_57
    6  A    between atoms: C_11  and  C_50
    7  A    between atoms: N_12  and  C_22
    8  A    between atoms: C_13  and  C_47
    9  A    between atoms: C_17  and  C_21
   10  A    between atoms: C_17  and  O_34
   11  A    between atoms: C_18  and  C_19
   12  A    between atoms: C_18  and  C_46
   13  A    between atoms: C_20  and  C_62
   14  A    between atoms: C_22  and  C_60
   15  A    between atoms: C_27  and  C_55
   16  A    between atoms: O_34  and  C_48
   17  A    between atoms: C_35  and  C_51
   18  A    between atoms: C_39  and  C_55
   19  A    between atoms: C_46  and  C_58
   20  A    between atoms: C_47  and  C_52
   21  A    between atoms: C_52  and  C_60
   22  A    between atoms: C_57  and  O_65
                            x       y       z     vdW  Elec       q    Type
                         _______ _______ _______ _____ _____    ______ ____

>  <TORSDO>
F 22

$$$$
=
 OpenBabel11062421293D

 66 74  0  0  1  0  0  0  0  0999 V2000
  196.3880  175.7310  140.7270 C   0  0  0  0  0  2  0  0  0  0  0  0
  195.2570  175.7200  139.7040 C   0  0  0  0  0  2  0  0  0  0  0  0
  196.8760  173.2870  140.1950 C   0  0  0  0  0  2  0  0  0  0  0  0
  195.4790  174.6920  138.5940 C   0  0  1  0  0  3  0  0  0  0  0  0
  195.7420  173.2850  139.1720 C   0  0  1  0  0  3  0  0  0  0  0  0
  196.6660  174.3370  141.2860 C   0  0  2  0  0  3  0  0  0  0  0  0
  195.7850  173.9090  142.4740 C   0  0  1  0  0  3  0  0  0  0  0  0
  197.4770  172.4920  145.1920 C   0  0  0  0  0  2  0  0  0  0  0  0
  193.6120  173.9930  141.4660 O   0  0  0  0  0  1  0  0  0  0  0  0
  193.6970  174.8640  143.6860 C   0  0  0  0  0  2  0  0  0  0  0  0
  196.4610  174.0290  143.8610 C   0  0  1  0  0  3  0  0  0  0  0  0
  195.5160  173.7360  145.0270 C   0  0  2  0  0  3  0  0  0  0  0  0
  196.0320  172.4500  145.6240 C   0  0  1  0  0  3  0  0  0  0  0  0
  197.5550  173.1420  143.9480 O   0  0  0  0  0  0  0  0  0  0  0  0
  194.0180  173.7500  144.6750 C   0  0  1  0  0  3  0  0  0  0  0  0
  194.4430  174.6600  142.3660 C   0  0  1  0  0  3  0  0  0  0  0  0
  195.3460  171.2040  145.1070 C   0  0  0  0  0  0  0  0  0  0  0  0
  195.2730  171.0420  143.7760 C   0  0  0  0  0  3  0  0  0  0  0  0
  194.6990  169.8250  143.1160 C   0  0  0  0  0  2  0  0  0  0  0  0
  192.4390  168.9620  143.4000 N   0  0  0  0  0  2  0  0  0  0  0  0
  193.2330  170.0470  142.8030 C   0  0  2  0  0  3  0  0  0  0  0  0
  192.7540  168.9530  141.9630 C   0  0  0  0  0  2  0  0  0  0  0  0
  194.9130  170.1150  146.0540 C   0  0  0  0  0  2  0  0  0  0  0  0
  196.7460  169.0210  146.2490 O   0  0  0  0  0  1  0  0  0  0  0  0
  195.9510  169.8120  146.9370 O   0  0  0  0  0  0  0  0  0  0  0  0
  193.1770  173.7500  145.8110 O   0  0  0  0  0  0  0  0  0  0  0  0
  193.0390  175.0630  146.2950 C   0  0  0  0  0  2  0  0  0  0  0  0
  190.6730  174.5270  146.6530 C   0  0  0  0  0  3  0  0  0  0  0  0
  191.5980  175.4400  146.3310 C   0  0  0  0  0  0  0  0  0  0  0  0
  191.1830  176.8280  145.9220 C   0  0  0  0  0  2  0  0  0  0  0  0
  188.8710  176.1730  146.6490 C   0  0  0  0  0  3  0  0  0  0  0  0
  189.8990  177.2730  146.6410 C   0  0  1  0  0  3  0  0  0  0  0  0
  190.1980  177.6280  147.9470 F   0  0  0  0  0  0  0  0  0  0  0  0
  189.2450  174.8910  146.6980 C   0  0  0  0  0  3  0  0  0  0  0  0
  194.3160  174.8120  136.3730 N   0  0  0  0  0  0  0  0  0  0  0  0
  194.2620  174.7040  137.7190 C   0  0  0  0  0  0  0  0  0  0  0  0
  192.2660  174.4770  137.0830 C   0  0  0  0  0  0  0  0  0  0  0  0
  193.0430  174.6660  135.9630 C   0  0  0  0  0  2  0  0  0  0  0  0
  193.0220  174.4770  138.1930 N   0  0  0  0  0  0  0  0  0  0  0  0
  190.8190  174.1120  137.0630 C   0  0  0  0  0  2  0  0  0  0  0  0
  190.0530  173.8770  139.3350 N   0  0  0  0  0  0  0  0  0  0  0  0
  190.4750  173.2850  138.2570 C   0  0  0  0  0  0  0  0  0  0  0  0
  189.6810  171.0370  137.7960 N   0  0  0  0  0  0  0  0  0  0  0  0
  190.6420  171.8270  138.1470 C   0  0  0  0  0  3  0  0  0  0  0  0
  189.8930  169.5980  137.7360 C   0  0  0  0  0  2  0  0  0  0  0  0
  191.8670  168.3700  138.3450 O   0  0  0  0  0  1  0  0  0  0  0  0
  191.3500  169.2830  137.4210 C   0  0  1  0  0  3  0  0  0  0  0  0
  191.5150  168.7670  135.9900 C   0  0  0  0  0  2  0  0  0  0  0  0
  191.7240  169.8860  134.9660 C   0  0  0  0  0  2  0  0  0  0  0  0
  193.1780  169.9620  134.5160 C   0  0  0  0  0  2  0  0  0  0  0  0
  193.9210  168.9510  135.1310 O   0  0  0  0  0  1  0  0  0  0  0  0
  189.6500  173.2120  140.4700 O   0  0  0  0  0  0  0  0  0  0  0  0
  188.7600  175.8120  143.0150 C   0  0  1  0  0  0  0  0  0  0  0  0
  190.0970  176.4700  142.5790 C   0  0  0  0  0  2  0  0  0  0  0  0
  188.6910  173.8030  141.3320 C   0  0  2  0  0  3  0  0  0  0  0  0
  189.0020  177.3380  142.9550 C   0  0  1  0  0  3  0  0  0  0  0  0
  187.7170  175.9340  141.9270 C   0  0  1  0  0  3  0  0  0  0  0  0
  188.0070  177.4230  141.8040 C   0  0  1  0  0  3  0  0  0  0  0  0
  188.2060  175.1170  140.7460 C   0  0  0  0  0  2  0  0  0  0  0  0
  189.4340  174.1280  142.9750 S   0  0  0  0  0  0  0  0  0  0  0  0
  185.9070  178.4980  141.3460 O   0  0  0  0  0  0  0  0  0  0  0  0
  186.6980  178.7160  143.4850 O   0  0  0  0  0  1  0  0  0  0  0  0
  186.8080  178.2340  142.1870 C   0  0  0  0  0  0  0  0  0  0  0  0
  197.2440  172.2070  137.6700 O   0  0  0  0  0  1  0  0  0  0  0  0
  196.0640  172.3010  138.0930 C   0  0  0  0  0  0  0  0  0  0  0  0
  195.0650  171.5160  137.5320 O   0  0  0  0  0  0  0  0  0  0  0  0
  1  6  1  0  0  0  0
  2  1  1  0  0  0  0
  4 36  1  6  0  0  0
  4  5  1  0  0  0  0
  4  2  1  0  0  0  0
  5 65  1  6  0  0  0
  5  3  1  0  0  0  0
  6  3  1  6  0  0  0
  7  6  1  6  0  0  0
  7 11  1  0  0  0  0
  8 13  1  0  0  0  0
  9 16  1  0  0  0  0
 10 15  1  0  0  0  0
 11 14  1  6  0  0  0
 11 12  1  0  0  0  0
 12 13  1  0  0  0  0
 14  8  1  0  0  0  0
 15 12  1  0  0  0  0
 15 26  1  0  0  0  0
 16  7  1  0  0  0  0
 16 10  1  0  0  0  0
 17 13  1  0  0  0  0
 17 23  1  0  0  0  0
 18 17  2  0  0  0  0
 19 18  1  0  0  0  0
 21 19  1  0  0  0  0
 21 20  1  0  0  0  0
 22 21  1  0  0  0  0
 22 20  1  0  0  0  0
 23 25  1  0  0  0  0
 24 25  1  0  0  0  0
 26 27  1  0  0  0  0
 27 29  1  0  0  0  0
 28 34  1  0  0  0  0
 29 28  2  0  0  0  0
 30 29  1  0  0  0  0
 30 32  1  0  0  0  0
 31 34  2  0  0  0  0
 32 31  1  0  0  0  0
 32 33  1  0  0  0  0
 35 36  2  0  0  0  0
 36 39  1  0  0  0  0
 37 39  2  0  0  0  0
 38 35  1  0  0  0  0
 38 37  1  0  0  0  0
 40 37  1  0  0  0  0
 40 42  1  0  0  0  0
 41 52  1  0  0  0  0
 42 41  2  0  0  0  0
 43 44  2  0  0  0  0
 44 42  1  0  0  0  0
 45 43  1  0  0  0  0
 47 45  1  0  0  0  0
 47 46  1  0  0  0  0
 48 47  1  0  0  0  0
 49 48  1  0  0  0  0
 50 49  1  0  0  0  0
 50 51  1  0  0  0  0
 52 55  1  0  0  0  0
 54 56  1  0  0  0  0
 54 53  1  0  0  0  0
 55 60  1  0  0  0  0
 56 53  1  0  0  0  0
 57 53  1  0  0  0  0
 58 57  1  0  0  0  0
 58 63  1  0  0  0  0
 58 56  1  0  0  0  0
 59 55  1  0  0  0  0
 59 57  1  0  0  0  0
 60 53  1  0  0  0  0
 61 63  2  0  0  0  0
 63 62  1  0  0  0  0
 64 65  1  0  0  0  0
 66 65  2  0  0  0  0
M  END
>  <MODEL>
3

>  <REMARK>
 VINA RESULT:      -5.8      2.492      7.709
  Name = 
  22 active torsions:
  status: ('A' for Active; 'I' for Inactive)
    1  A    between atoms: C_5  and  C_66
    2  A    between atoms: O_8  and  N_25
    3  A    between atoms: O_8  and  C_38
    4  A    between atoms: C_9  and  C_43
    5  A    between atoms: C_9  and  C_57
    6  A    between atoms: C_11  and  C_50
    7  A    between atoms: N_12  and  C_22
    8  A    between atoms: C_13  and  C_47
    9  A    between atoms: C_17  and  C_21
   10  A    between atoms: C_17  and  O_34
   11  A    between atoms: C_18  and  C_19
   12  A    between atoms: C_18  and  C_46
   13  A    between atoms: C_20  and  C_62
   14  A    between atoms: C_22  and  C_60
   15  A    between atoms: C_27  and  C_55
   16  A    between atoms: O_34  and  C_48
   17  A    between atoms: C_35  and  C_51
   18  A    between atoms: C_39  and  C_55
   19  A    between atoms: C_46  and  C_58
   20  A    between atoms: C_47  and  C_52
   21  A    between atoms: C_52  and  C_60
   22  A    between atoms: C_57  and  O_65
                            x       y       z     vdW  Elec       q    Type
                         _______ _______ _______ _____ _____    ______ ____

>  <TORSDO>
F 22

$$$$
=
 OpenBabel11062421293D

 66 74  0  0  1  0  0  0  0  0999 V2000
  189.7900  173.9530  146.1290 C   0  0  0  0  0  2  0  0  0  0  0  0
  188.8810  174.9370  145.4020 C   0  0  0  0  0  2  0  0  0  0  0  0
  190.6560  175.8520  147.5910 C   0  0  0  0  0  2  0  0  0  0  0  0
  188.4940  176.1330  146.2730 C   0  0  1  0  0  3  0  0  0  0  0  0
  189.7410  176.8310  146.8580 C   0  0  1  0  0  3  0  0  0  0  0  0
  191.0150  174.6430  146.7280 C   0  0  2  0  0  3  0  0  0  0  0  0
  192.2090  174.8250  145.7730 C   0  0  1  0  0  3  0  0  0  0  0  0
  192.5090  172.4320  143.2350 C   0  0  0  0  0  2  0  0  0  0  0  0
  193.5110  176.4250  146.9950 O   0  0  0  0  0  1  0  0  0  0  0  0
  193.4040  176.8350  144.6460 C   0  0  0  0  0  2  0  0  0  0  0  0
  191.9580  174.3510  144.3210 C   0  0  1  0  0  3  0  0  0  0  0  0
  193.1080  174.6780  143.3670 C   0  0  2  0  0  3  0  0  0  0  0  0
  193.6930  173.3370  143.0000 C   0  0  1  0  0  3  0  0  0  0  0  0
  191.7470  172.9560  144.2940 O   0  0  0  0  0  0  0  0  0  0  0  0
  194.1130  175.7220  143.8850 C   0  0  1  0  0  3  0  0  0  0  0  0
  192.6840  176.2880  145.8790 C   0  0  1  0  0  3  0  0  0  0  0  0
  194.8750  172.9190  143.8480 C   0  0  0  0  0  0  0  0  0  0  0  0
  194.6190  172.2200  144.9660 C   0  0  0  0  0  3  0  0  0  0  0  0
  195.6850  171.6670  145.8620 C   0  0  0  0  0  2  0  0  0  0  0  0
  195.3600  169.4440  146.8050 N   0  0  0  0  0  2  0  0  0  0  0  0
  195.8430  170.1780  145.6260 C   0  0  2  0  0  3  0  0  0  0  0  0
  196.8010  169.6410  146.5870 C   0  0  0  0  0  2  0  0  0  0  0  0
  196.2850  173.1390  143.3660 C   0  0  0  0  0  2  0  0  0  0  0  0
  197.2950  172.5860  141.5580 O   0  0  0  0  0  1  0  0  0  0  0  0
  196.7010  172.0470  142.6020 O   0  0  0  0  0  0  0  0  0  0  0  0
  194.9910  176.1960  142.8850 O   0  0  0  0  0  0  0  0  0  0  0  0
  194.3020  176.2990  141.6630 C   0  0  0  0  0  2  0  0  0  0  0  0
  196.5010  175.9450  140.6400 C   0  0  0  0  0  3  0  0  0  0  0  0
  195.1710  175.8230  140.5510 C   0  0  0  0  0  0  0  0  0  0  0  0
  194.5410  175.2830  139.2950 C   0  0  0  0  0  2  0  0  0  0  0  0
  196.8740  174.7110  138.5670 C   0  0  0  0  0  3  0  0  0  0  0  0
  195.4430  174.2450  138.6060 C   0  0  1  0  0  3  0  0  0  0  0  0
  195.3720  173.0420  139.2910 F   0  0  0  0  0  0  0  0  0  0  0  0
  197.3710  175.4700  139.5480 C   0  0  0  0  0  3  0  0  0  0  0  0
  188.2360  178.1010  144.7350 N   0  0  0  0  0  0  0  0  0  0  0  0
  187.6930  177.0710  145.4210 C   0  0  0  0  0  0  0  0  0  0  0  0
  186.0970  177.8710  144.3010 C   0  0  0  0  0  0  0  0  0  0  0  0
  187.2200  178.6130  144.0170 C   0  0  0  0  0  2  0  0  0  0  0  0
  186.3830  176.8830  145.1660 N   0  0  0  0  0  0  0  0  0  0  0  0
  184.7900  178.0020  143.5930 C   0  0  0  0  0  2  0  0  0  0  0  0
  186.0750  177.2220  141.7100 N   0  0  0  0  0  0  0  0  0  0  0  0
  184.9620  177.7440  142.1320 C   0  0  0  0  0  0  0  0  0  0  0  0
  182.6290  178.2210  141.6550 N   0  0  0  0  0  0  0  0  0  0  0  0
  183.8480  178.1060  141.2410 C   0  0  0  0  0  3  0  0  0  0  0  0
  181.5600  178.5500  140.7240 C   0  0  0  0  0  2  0  0  0  0  0  0
  179.6890  180.0580  140.7470 O   0  0  0  0  0  1  0  0  0  0  0  0
  180.3310  179.0500  141.4730 C   0  0  1  0  0  3  0  0  0  0  0  0
  179.3670  177.9070  141.7950 C   0  0  0  0  0  2  0  0  0  0  0  0
  178.2690  178.3050  142.7850 C   0  0  0  0  0  2  0  0  0  0  0  0
  178.8540  178.9720  144.0240 C   0  0  0  0  0  2  0  0  0  0  0  0
  178.2130  178.4990  145.1700 O   0  0  0  0  0  1  0  0  0  0  0  0
  186.3180  176.8850  140.3980 O   0  0  0  0  0  0  0  0  0  0  0  0
  188.9630  174.2710  140.8450 C   0  0  1  0  0  0  0  0  0  0  0  0
  187.8660  173.5250  141.6530 C   0  0  0  0  0  2  0  0  0  0  0  0
  187.5750  176.3400  140.0300 C   0  0  2  0  0  3  0  0  0  0  0  0
  188.7980  172.7340  140.8790 C   0  0  1  0  0  3  0  0  0  0  0  0
  188.6380  174.2730  139.3680 C   0  0  1  0  0  3  0  0  0  0  0  0
  188.3940  172.7720  139.4100 C   0  0  1  0  0  3  0  0  0  0  0  0
  187.3740  175.0930  139.1900 C   0  0  0  0  0  2  0  0  0  0  0  0
  188.5320  175.8960  141.5280 S   0  0  0  0  0  0  0  0  0  0  0  0
  189.3590  170.7890  138.4550 O   0  0  0  0  0  1  0  0  0  0  0  0
  190.3720  172.7650  137.8930 O   0  0  0  0  0  0  0  0  0  0  0  0
  189.3900  172.0450  138.5600 C   0  0  0  0  0  0  0  0  0  0  0  0
  190.2580  178.5470  148.4280 O   0  0  0  0  0  1  0  0  0  0  0  0
  189.3620  177.9340  147.7940 C   0  0  0  0  0  0  0  0  0  0  0  0
  188.0260  178.2640  147.9930 O   0  0  0  0  0  0  0  0  0  0  0  0
  2  1  1  0  0  0  0
  2  4  1  0  0  0  0
  4 36  1  6  0  0  0
  4  5  1  0  0  0  0
  5  3  1  0  0  0  0
  5 65  1  1  0  0  0
  6  1  1  6  0  0  0
  6  3  1  0  0  0  0
  7 16  1  0  0  0  0
  7  6  1  1  0  0  0
  8 14  1  0  0  0  0
 10 16  1  0  0  0  0
 11 14  1  1  0  0  0
 11  7  1  0  0  0  0
 12 15  1  0  0  0  0
 12 11  1  0  0  0  0
 13  8  1  0  0  0  0
 13 12  1  0  0  0  0
 13 17  1  0  0  0  0
 15 10  1  0  0  0  0
 16  9  1  0  0  0  0
 17 18  2  0  0  0  0
 18 19  1  0  0  0  0
 21 19  1  0  0  0  0
 21 22  1  0  0  0  0
 21 20  1  0  0  0  0
 22 20  1  0  0  0  0
 23 17  1  0  0  0  0
 24 25  1  0  0  0  0
 25 23  1  0  0  0  0
 26 15  1  0  0  0  0
 27 26  1  0  0  0  0
 29 28  2  0  0  0  0
 29 27  1  0  0  0  0
 30 29  1  0  0  0  0
 31 32  1  0  0  0  0
 31 34  2  0  0  0  0
 32 33  1  0  0  0  0
 32 30  1  0  0  0  0
 34 28  1  0  0  0  0
 35 36  2  0  0  0  0
 37 39  2  0  0  0  0
 38 37  1  0  0  0  0
 38 35  1  0  0  0  0
 39 36  1  0  0  0  0
 40 37  1  0  0  0  0
 41 42  2  0  0  0  0
 42 40  1  0  0  0  0
 44 43  2  0  0  0  0
 44 42  1  0  0  0  0
 45 47  1  0  0  0  0
 45 43  1  0  0  0  0
 46 47  1  0  0  0  0
 47 48  1  0  0  0  0
 48 49  1  0  0  0  0
 49 50  1  0  0  0  0
 50 51  1  0  0  0  0
 52 41  1  0  0  0  0
 53 56  1  0  0  0  0
 53 60  1  0  0  0  0
 53 54  1  0  0  0  0
 55 52  1  0  0  0  0
 55 60  1  0  0  0  0
 56 54  1  0  0  0  0
 57 58  1  0  0  0  0
 57 53  1  0  0  0  0
 58 56  1  0  0  0  0
 59 57  1  0  0  0  0
 59 55  1  0  0  0  0
 61 63  1  0  0  0  0
 62 63  2  0  0  0  0
 63 58  1  0  0  0  0
 65 66  2  0  0  0  0
 65 64  1  0  0  0  0
M  END
>  <MODEL>
4

>  <REMARK>
 VINA RESULT:      -5.7      3.072      7.710
  Name = 
  22 active torsions:
  status: ('A' for Active; 'I' for Inactive)
    1  A    between atoms: C_5  and  C_66
    2  A    between atoms: O_8  and  N_25
    3  A    between atoms: O_8  and  C_38
    4  A    between atoms: C_9  and  C_43
    5  A    between atoms: C_9  and  C_57
    6  A    between atoms: C_11  and  C_50
    7  A    between atoms: N_12  and  C_22
    8  A    between atoms: C_13  and  C_47
    9  A    between atoms: C_17  and  C_21
   10  A    between atoms: C_17  and  O_34
   11  A    between atoms: C_18  and  C_19
   12  A    between atoms: C_18  and  C_46
   13  A    between atoms: C_20  and  C_62
   14  A    between atoms: C_22  and  C_60
   15  A    between atoms: C_27  and  C_55
   16  A    between atoms: O_34  and  C_48
   17  A    between atoms: C_35  and  C_51
   18  A    between atoms: C_39  and  C_55
   19  A    between atoms: C_46  and  C_58
   20  A    between atoms: C_47  and  C_52
   21  A    between atoms: C_52  and  C_60
   22  A    between atoms: C_57  and  O_65
                            x       y       z     vdW  Elec       q    Type
                         _______ _______ _______ _____ _____    ______ ____

>  <TORSDO>
F 22

$$$$
=
 OpenBabel11062421293D

 66 74  0  0  1  0  0  0  0  0999 V2000
  196.6750  175.6790  140.0650 C   0  0  0  0  0  2  0  0  0  0  0  0
  195.3690  175.3610  139.3450 C   0  0  0  0  0  2  0  0  0  0  0  0
  197.1940  173.1870  140.1980 C   0  0  0  0  0  2  0  0  0  0  0  0
  195.4310  174.0440  138.5710 C   0  0  1  0  0  3  0  0  0  0  0  0
  195.8840  172.8780  139.4750 C   0  0  1  0  0  3  0  0  0  0  0  0
  197.1390  174.5200  140.9450 C   0  0  2  0  0  3  0  0  0  0  0  0
  196.5330  174.4750  142.3600 C   0  0  1  0  0  3  0  0  0  0  0  0
  197.6750  171.8880  144.4240 C   0  0  0  0  0  2  0  0  0  0  0  0
  194.6810  175.9730  142.0960 O   0  0  0  0  0  1  0  0  0  0  0  0
  195.8590  176.2250  144.1560 C   0  0  0  0  0  2  0  0  0  0  0  0
  197.4830  173.9350  143.4570 C   0  0  1  0  0  3  0  0  0  0  0  0
  196.9050  174.0390  144.8680 C   0  0  2  0  0  3  0  0  0  0  0  0
  196.6770  172.6100  145.2950 C   0  0  1  0  0  3  0  0  0  0  0  0
  197.7950  172.5810  143.2080 O   0  0  0  0  0  0  0  0  0  0  0  0
  195.6920  174.9760  145.0120 C   0  0  1  0  0  3  0  0  0  0  0  0
  195.9470  175.8660  142.6710 C   0  0  1  0  0  3  0  0  0  0  0  0
  195.2720  172.1020  145.0480 C   0  0  0  0  0  0  0  0  0  0  0  0
  194.7320  172.3340  143.8410 C   0  0  0  0  0  3  0  0  0  0  0  0
  193.3870  171.8240  143.4200 C   0  0  0  0  0  2  0  0  0  0  0  0
  193.4240  169.5520  142.5420 N   0  0  0  0  0  2  0  0  0  0  0  0
  193.5210  170.9730  142.1730 C   0  0  2  0  0  3  0  0  0  0  0  0
  194.7330  170.1660  142.2740 C   0  0  0  0  0  2  0  0  0  0  0  0
  194.5800  171.2300  146.0630 C   0  0  0  0  0  2  0  0  0  0  0  0
  195.6940  169.5990  146.8940 O   0  0  0  0  0  1  0  0  0  0  0  0
  194.9340  169.8950  145.8620 O   0  0  0  0  0  0  0  0  0  0  0  0
  195.3610  175.2580  146.3570 O   0  0  0  0  0  0  0  0  0  0  0  0
  194.4660  176.3420  146.4040 C   0  0  0  0  0  2  0  0  0  0  0  0
  192.6870  174.7820  145.7610 C   0  0  0  0  0  3  0  0  0  0  0  0
  193.0670  175.8380  146.4900 C   0  0  0  0  0  0  0  0  0  0  0  0
  192.0640  176.5750  147.3370 C   0  0  0  0  0  2  0  0  0  0  0  0
  190.4840  174.6980  146.8080 C   0  0  0  0  0  3  0  0  0  0  0  0
  190.9760  175.6340  147.8800 C   0  0  1  0  0  3  0  0  0  0  0  0
  191.4870  174.8930  148.9340 F   0  0  0  0  0  0  0  0  0  0  0  0
  191.3060  174.2710  145.8450 C   0  0  0  0  0  3  0  0  0  0  0  0
  193.8510  173.0460  136.8940 N   0  0  0  0  0  0  0  0  0  0  0  0
  194.0680  173.7930  137.9990 C   0  0  0  0  0  0  0  0  0  0  0  0
  191.9700  173.6790  137.8310 C   0  0  0  0  0  0  0  0  0  0  0  0
  192.5120  172.9700  136.7840 C   0  0  0  0  0  2  0  0  0  0  0  0
  192.9360  174.1840  138.6160 N   0  0  0  0  0  0  0  0  0  0  0  0
  190.5180  173.7100  138.1750 C   0  0  0  0  0  2  0  0  0  0  0  0
  189.6980  173.9980  140.4220 N   0  0  0  0  0  0  0  0  0  0  0  0
  190.3040  173.2250  139.5710 C   0  0  0  0  0  0  0  0  0  0  0  0
  190.3150  170.8030  139.3970 N   0  0  0  0  0  0  0  0  0  0  0  0
  190.8050  171.8840  139.9100 C   0  0  0  0  0  3  0  0  0  0  0  0
  190.8260  169.4990  139.7930 C   0  0  0  0  0  2  0  0  0  0  0  0
  192.7970  168.1660  139.4560 O   0  0  0  0  0  1  0  0  0  0  0  0
  191.8970  169.0250  138.8180 C   0  0  1  0  0  3  0  0  0  0  0  0
  191.2790  168.3560  137.5880 C   0  0  0  0  0  2  0  0  0  0  0  0
  190.7510  169.3590  136.5590 C   0  0  0  0  0  2  0  0  0  0  0  0
  191.6930  169.4800  135.3680 C   0  0  0  0  0  2  0  0  0  0  0  0
  191.2610  170.5000  134.5170 O   0  0  0  0  0  1  0  0  0  0  0  0
  189.3930  173.6310  141.7130 O   0  0  0  0  0  0  0  0  0  0  0  0
  188.9460  177.0430  143.1920 C   0  0  1  0  0  0  0  0  0  0  0  0
  187.8840  177.2170  142.0720 C   0  0  0  0  0  2  0  0  0  0  0  0
  189.6150  174.5430  142.7770 C   0  0  2  0  0  3  0  0  0  0  0  0
  187.6420  177.8610  143.3450 C   0  0  1  0  0  3  0  0  0  0  0  0
  188.4620  176.0750  144.2480 C   0  0  1  0  0  3  0  0  0  0  0  0
  187.1430  176.8270  144.3470 C   0  0  1  0  0  3  0  0  0  0  0  0
  188.3440  174.7150  143.5870 C   0  0  0  0  0  2  0  0  0  0  0  0
  190.1190  176.1760  142.1150 S   0  0  0  0  0  0  0  0  0  0  0  0
  187.5490  176.9380  146.7120 O   0  0  0  0  0  1  0  0  0  0  0  0
  186.1530  178.5420  145.8600 O   0  0  0  0  0  0  0  0  0  0  0  0
  186.9730  177.4320  145.7050 C   0  0  0  0  0  0  0  0  0  0  0  0
  196.9460  171.5320  137.8210 O   0  0  0  0  0  0  0  0  0  0  0  0
  196.0470  171.6120  138.6960 C   0  0  0  0  0  0  0  0  0  0  0  0
  195.1920  170.5370  138.9080 O   0  0  0  0  0  1  0  0  0  0  0  0
  2  1  1  0  0  0  0
  3  6  1  0  0  0  0
  4 36  1  1  0  0  0
  4  2  1  0  0  0  0
  4  5  1  0  0  0  0
  5 65  1  6  0  0  0
  5  3  1  0  0  0  0
  6  1  1  6  0  0  0
  7  6  1  6  0  0  0
  7 16  1  0  0  0  0
  7 11  1  0  0  0  0
  8 13  1  0  0  0  0
  9 16  1  0  0  0  0
 10 15  1  0  0  0  0
 11 14  1  6  0  0  0
 11 12  1  0  0  0  0
 12 15  1  0  0  0  0
 12 13  1  0  0  0  0
 14  8  1  0  0  0  0
 15 26  1  0  0  0  0
 16 10  1  0  0  0  0
 17 13  1  0  0  0  0
 17 23  1  0  0  0  0
 18 17  2  0  0  0  0
 19 18  1  0  0  0  0
 21 22  1  0  0  0  0
 21 20  1  0  0  0  0
 21 19  1  0  0  0  0
 22 20  1  0  0  0  0
 25 23  1  0  0  0  0
 25 24  1  0  0  0  0
 26 27  1  0  0  0  0
 27 29  1  0  0  0  0
 28 34  1  0  0  0  0
 28 29  2  0  0  0  0
 29 30  1  0  0  0  0
 30 32  1  0  0  0  0
 31 32  1  0  0  0  0
 32 33  1  0  0  0  0
 34 31  2  0  0  0  0
 35 36  2  0  0  0  0
 36 39  1  0  0  0  0
 37 40  1  0  0  0  0
 37 39  2  0  0  0  0
 38 35  1  0  0  0  0
 38 37  1  0  0  0  0
 40 42  1  0  0  0  0
 41 52  1  0  0  0  0
 42 44  1  0  0  0  0
 42 41  2  0  0  0  0
 43 45  1  0  0  0  0
 43 44  2  0  0  0  0
 47 46  1  0  0  0  0
 47 45  1  0  0  0  0
 48 47  1  0  0  0  0
 49 48  1  0  0  0  0
 50 49  1  0  0  0  0
 51 50  1  0  0  0  0
 52 55  1  0  0  0  0
 53 56  1  0  0  0  0
 53 57  1  0  0  0  0
 54 53  1  0  0  0  0
 54 56  1  0  0  0  0
 55 59  1  0  0  0  0
 56 58  1  0  0  0  0
 57 58  1  0  0  0  0
 58 63  1  0  0  0  0
 59 57  1  0  0  0  0
 60 55  1  0  0  0  0
 60 53  1  0  0  0  0
 63 62  2  0  0  0  0
 63 61  1  0  0  0  0
 64 65  2  0  0  0  0
 65 66  1  0  0  0  0
M  END
>  <MODEL>
5

>  <REMARK>
 VINA RESULT:      -5.5      2.423      7.252
  Name = 
  22 active torsions:
  status: ('A' for Active; 'I' for Inactive)
    1  A    between atoms: C_5  and  C_66
    2  A    between atoms: O_8  and  N_25
    3  A    between atoms: O_8  and  C_38
    4  A    between atoms: C_9  and  C_43
    5  A    between atoms: C_9  and  C_57
    6  A    between atoms: C_11  and  C_50
    7  A    between atoms: N_12  and  C_22
    8  A    between atoms: C_13  and  C_47
    9  A    between atoms: C_17  and  C_21
   10  A    between atoms: C_17  and  O_34
   11  A    between atoms: C_18  and  C_19
   12  A    between atoms: C_18  and  C_46
   13  A    between atoms: C_20  and  C_62
   14  A    between atoms: C_22  and  C_60
   15  A    between atoms: C_27  and  C_55
   16  A    between atoms: O_34  and  C_48
   17  A    between atoms: C_35  and  C_51
   18  A    between atoms: C_39  and  C_55
   19  A    between atoms: C_46  and  C_58
   20  A    between atoms: C_47  and  C_52
   21  A    between atoms: C_52  and  C_60
   22  A    between atoms: C_57  and  O_65
                            x       y       z     vdW  Elec       q    Type
                         _______ _______ _______ _____ _____    ______ ____

>  <TORSDO>
F 22

$$$$
=
 OpenBabel11062421293D

 66 74  0  0  1  0  0  0  0  0999 V2000
  189.6850  173.6080  143.4360 C   0  0  0  0  0  2  0  0  0  0  0  0
  188.7200  174.3140  142.4910 C   0  0  0  0  0  2  0  0  0  0  0  0
  191.0580  175.7470  143.6110 C   0  0  0  0  0  2  0  0  0  0  0  0
  188.6740  175.8250  142.7190 C   0  0  1  0  0  3  0  0  0  0  0  0
  190.0850  176.4470  142.6640 C   0  0  1  0  0  3  0  0  0  0  0  0
  191.0790  174.2330  143.4010 C   0  0  2  0  0  3  0  0  0  0  0  0
  192.0110  173.7190  142.2890 C   0  0  1  0  0  3  0  0  0  0  0  0
  190.6710  171.2500  140.1990 C   0  0  0  0  0  2  0  0  0  0  0  0
  194.1140  174.5930  143.0360 O   0  0  0  0  0  1  0  0  0  0  0  0
  193.7570  174.7740  140.6830 C   0  0  0  0  0  2  0  0  0  0  0  0
  191.2930  173.2890  140.9860 C   0  0  1  0  0  3  0  0  0  0  0  0
  192.2540  172.9220  139.8550 C   0  0  2  0  0  3  0  0  0  0  0  0
  192.0690  171.4370  139.6620 C   0  0  1  0  0  3  0  0  0  0  0  0
  190.4600  172.1770  141.2340 O   0  0  0  0  0  0  0  0  0  0  0  0
  193.7070  173.3890  140.0510 C   0  0  1  0  0  3  0  0  0  0  0  0
  193.1200  174.7680  142.0740 C   0  0  1  0  0  3  0  0  0  0  0  0
  193.0620  170.5810  140.4190 C   0  0  0  0  0  0  0  0  0  0  0  0
  192.9440  170.5300  141.7560 C   0  0  0  0  0  3  0  0  0  0  0  0
  193.7980  169.6660  142.6330 C   0  0  0  0  0  2  0  0  0  0  0  0
  194.0250  168.6960  144.8560 N   0  0  0  0  0  2  0  0  0  0  0  0
  193.1800  169.5540  144.0120 C   0  0  2  0  0  3  0  0  0  0  0  0
  192.7930  168.1670  144.2510 C   0  0  0  0  0  2  0  0  0  0  0  0
  194.0330  169.6970  139.6830 C   0  0  0  0  0  2  0  0  0  0  0  0
  192.8410  168.4100  138.4510 O   0  0  0  0  0  1  0  0  0  0  0  0
  193.5160  168.4040  139.5800 O   0  0  0  0  0  0  0  0  0  0  0  0
  194.4930  173.2780  138.8820 O   0  0  0  0  0  0  0  0  0  0  0  0
  194.8080  174.5620  138.4030 C   0  0  0  0  0  2  0  0  0  0  0  0
  195.2300  173.4650  136.2510 C   0  0  0  0  0  3  0  0  0  0  0  0
  195.5280  174.4540  137.1030 C   0  0  0  0  0  0  0  0  0  0  0  0
  196.6470  175.4110  136.7920 C   0  0  0  0  0  2  0  0  0  0  0  0
  196.6990  174.3530  134.5170 C   0  0  0  0  0  3  0  0  0  0  0  0
  196.7900  175.6480  135.2790 C   0  0  1  0  0  3  0  0  0  0  0  0
  195.7890  176.5040  134.8470 F   0  0  0  0  0  0  0  0  0  0  0  0
  195.9310  173.3530  134.9590 C   0  0  0  0  0  3  0  0  0  0  0  0
  187.8120  176.0440  140.3710 N   0  0  0  0  0  0  0  0  0  0  0  0
  187.7770  176.4120  141.6710 C   0  0  0  0  0  0  0  0  0  0  0  0
  186.1770  177.4510  140.7750 C   0  0  0  0  0  0  0  0  0  0  0  0
  186.7910  176.7050  139.7960 C   0  0  0  0  0  2  0  0  0  0  0  0
  186.7730  177.2610  141.9640 N   0  0  0  0  0  0  0  0  0  0  0  0
  184.9010  178.2040  140.5960 C   0  0  0  0  0  2  0  0  0  0  0  0
  185.1210  179.1570  142.7980 N   0  0  0  0  0  0  0  0  0  0  0  0
  184.3400  178.5990  141.9220 C   0  0  0  0  0  0  0  0  0  0  0  0
  182.0010  178.5090  141.2730 N   0  0  0  0  0  0  0  0  0  0  0  0
  182.9150  178.3240  142.1680 C   0  0  0  0  0  3  0  0  0  0  0  0
  180.6030  178.2520  141.5800 C   0  0  0  0  0  2  0  0  0  0  0  0
  178.7460  177.9300  140.0880 O   0  0  0  0  0  1  0  0  0  0  0  0
  179.6990  178.8600  140.5140 C   0  0  1  0  0  3  0  0  0  0  0  0
  179.0300  180.1420  141.0120 C   0  0  0  0  0  2  0  0  0  0  0  0
  179.5240  181.4000  140.2900 C   0  0  0  0  0  2  0  0  0  0  0  0
  178.4040  182.0580  139.4940 C   0  0  0  0  0  2  0  0  0  0  0  0
  178.6240  183.4340  139.4080 O   0  0  0  0  0  1  0  0  0  0  0  0
  184.6990  179.6170  144.0240 O   0  0  0  0  0  0  0  0  0  0  0  0
  185.9250  177.5310  146.8830 C   0  0  1  0  0  0  0  0  0  0  0  0
  185.2250  176.3670  146.1290 C   0  0  0  0  0  2  0  0  0  0  0  0
  185.5360  179.4680  145.1600 C   0  0  2  0  0  3  0  0  0  0  0  0
  186.4400  176.0730  146.8580 C   0  0  1  0  0  3  0  0  0  0  0  0
  187.1660  177.9820  146.1470 C   0  0  1  0  0  3  0  0  0  0  0  0
  187.6420  176.5400  146.0450 C   0  0  1  0  0  3  0  0  0  0  0  0
  186.7130  178.5710  144.8250 C   0  0  0  0  0  2  0  0  0  0  0  0
  184.5950  178.7150  146.5420 S   0  0  0  0  0  0  0  0  0  0  0  0
  189.7570  177.2750  146.9170 O   0  0  0  0  0  0  0  0  0  0  0  0
  189.1810  175.1080  147.3840 O   0  0  0  0  0  1  0  0  0  0  0  0
  188.9150  176.3420  146.8070 C   0  0  0  0  0  0  0  0  0  0  0  0
  190.5560  178.3110  144.0710 O   0  0  0  0  0  1  0  0  0  0  0  0
  190.0540  177.9060  142.9920 C   0  0  0  0  0  0  0  0  0  0  0  0
  189.4450  178.8110  142.1310 O   0  0  0  0  0  0  0  0  0  0  0  0
  2  4  1  0  0  0  0
  2  1  1  0  0  0  0
  4 36  1  6  0  0  0
  5  4  1  0  0  0  0
  5 65  1  1  0  0  0
  5  3  1  0  0  0  0
  6  1  1  6  0  0  0
  6  3  1  0  0  0  0
  7  6  1  1  0  0  0
  8 14  1  0  0  0  0
 10 16  1  0  0  0  0
 11 14  1  1  0  0  0
 11  7  1  0  0  0  0
 12 15  1  0  0  0  0
 12 11  1  0  0  0  0
 13 12  1  0  0  0  0
 13  8  1  0  0  0  0
 13 17  1  0  0  0  0
 15 10  1  0  0  0  0
 16  7  1  0  0  0  0
 16  9  1  0  0  0  0
 17 18  2  0  0  0  0
 18 19  1  0  0  0  0
 19 21  1  0  0  0  0
 21 22  1  0  0  0  0
 21 20  1  0  0  0  0
 22 20  1  0  0  0  0
 23 17  1  0  0  0  0
 24 25  1  0  0  0  0
 25 23  1  0  0  0  0
 26 15  1  0  0  0  0
 27 26  1  0  0  0  0
 28 29  2  0  0  0  0
 29 27  1  0  0  0  0
 30 29  1  0  0  0  0
 31 34  2  0  0  0  0
 31 32  1  0  0  0  0
 32 30  1  0  0  0  0
 33 32  1  0  0  0  0
 34 28  1  0  0  0  0
 35 36  2  0  0  0  0
 36 39  1  0  0  0  0
 37 39  2  0  0  0  0
 38 35  1  0  0  0  0
 38 37  1  0  0  0  0
 40 37  1  0  0  0  0
 40 42  1  0  0  0  0
 41 52  1  0  0  0  0
 42 44  1  0  0  0  0
 42 41  2  0  0  0  0
 43 45  1  0  0  0  0
 43 44  2  0  0  0  0
 46 47  1  0  0  0  0
 47 48  1  0  0  0  0
 47 45  1  0  0  0  0
 49 48  1  0  0  0  0
 50 49  1  0  0  0  0
 51 50  1  0  0  0  0
 52 55  1  0  0  0  0
 54 56  1  0  0  0  0
 54 53  1  0  0  0  0
 55 60  1  0  0  0  0
 56 53  1  0  0  0  0
 57 53  1  0  0  0  0
 58 57  1  0  0  0  0
 58 63  1  0  0  0  0
 58 56  1  0  0  0  0
 59 55  1  0  0  0  0
 59 57  1  0  0  0  0
 60 53  1  0  0  0  0
 63 61  2  0  0  0  0
 63 62  1  0  0  0  0
 65 64  1  0  0  0  0
 66 65  2  0  0  0  0
M  END
>  <MODEL>
6

>  <REMARK>
 VINA RESULT:      -5.1      3.554      7.182
  Name = 
  22 active torsions:
  status: ('A' for Active; 'I' for Inactive)
    1  A    between atoms: C_5  and  C_66
    2  A    between atoms: O_8  and  N_25
    3  A    between atoms: O_8  and  C_38
    4  A    between atoms: C_9  and  C_43
    5  A    between atoms: C_9  and  C_57
    6  A    between atoms: C_11  and  C_50
    7  A    between atoms: N_12  and  C_22
    8  A    between atoms: C_13  and  C_47
    9  A    between atoms: C_17  and  C_21
   10  A    between atoms: C_17  and  O_34
   11  A    between atoms: C_18  and  C_19
   12  A    between atoms: C_18  and  C_46
   13  A    between atoms: C_20  and  C_62
   14  A    between atoms: C_22  and  C_60
   15  A    between atoms: C_27  and  C_55
   16  A    between atoms: O_34  and  C_48
   17  A    between atoms: C_35  and  C_51
   18  A    between atoms: C_39  and  C_55
   19  A    between atoms: C_46  and  C_58
   20  A    between atoms: C_47  and  C_52
   21  A    between atoms: C_52  and  C_60
   22  A    between atoms: C_57  and  O_65
                            x       y       z     vdW  Elec       q    Type
                         _______ _______ _______ _____ _____    ______ ____

>  <TORSDO>
F 22

$$$$
=
 OpenBabel11062421293D

 66 74  0  0  1  0  0  0  0  0999 V2000
  189.7160  172.5000  136.8890 C   0  0  0  0  0  2  0  0  0  0  0  0
  188.9760  173.8060  137.1530 C   0  0  0  0  0  2  0  0  0  0  0  0
  189.8120  172.0620  139.3980 C   0  0  0  0  0  2  0  0  0  0  0  0
  188.1790  173.7770  138.4580 C   0  0  1  0  0  3  0  0  0  0  0  0
  189.0690  173.3720  139.6530 C   0  0  1  0  0  3  0  0  0  0  0  0
  190.5820  172.0840  138.0770 C   0  0  2  0  0  3  0  0  0  0  0  0
  191.9880  172.7080  138.1270 C   0  0  1  0  0  3  0  0  0  0  0  0
  192.4980  175.4800  136.0490 C   0  0  0  0  0  2  0  0  0  0  0  0
  193.1990  170.9820  139.2670 O   0  0  0  0  0  1  0  0  0  0  0  0
  193.7480  173.1960  139.9720 C   0  0  0  0  0  2  0  0  0  0  0  0
  192.0280  174.2380  137.8930 C   0  0  1  0  0  3  0  0  0  0  0  0
  193.4160  174.8480  138.0930 C   0  0  2  0  0  3  0  0  0  0  0  0
  193.8390  175.2950  136.7150 C   0  0  1  0  0  3  0  0  0  0  0  0
  191.5980  174.5430  136.5840 O   0  0  0  0  0  0  0  0  0  0  0  0
  194.4240  173.9550  138.8380 C   0  0  1  0  0  3  0  0  0  0  0  0
  192.6630  172.2590  139.4380 C   0  0  1  0  0  3  0  0  0  0  0  0
  194.6850  174.2890  135.9650 C   0  0  0  0  0  0  0  0  0  0  0  0
  194.0800  173.1740  135.5260 C   0  0  0  0  0  3  0  0  0  0  0  0
  194.7630  172.1260  134.7010 C   0  0  0  0  0  2  0  0  0  0  0  0
  196.1510  170.1580  135.0650 N   0  0  0  0  0  2  0  0  0  0  0  0
  194.9370  170.8570  135.5120 C   0  0  2  0  0  3  0  0  0  0  0  0
  194.8230  169.7050  134.6240 C   0  0  0  0  0  2  0  0  0  0  0  0
  196.1070  174.6090  135.5870 C   0  0  0  0  0  2  0  0  0  0  0  0
  197.3270  176.3710  135.6140 O   0  0  0  0  0  1  0  0  0  0  0  0
  196.6050  175.6170  136.4140 O   0  0  0  0  0  0  0  0  0  0  0  0
  195.5890  174.6450  139.2420 O   0  0  0  0  0  0  0  0  0  0  0  0
  195.2460  175.6540  140.1590 C   0  0  0  0  0  2  0  0  0  0  0  0
  196.9440  174.5450  141.5360 C   0  0  0  0  0  3  0  0  0  0  0  0
  195.9190  175.4030  141.4640 C   0  0  0  0  0  0  0  0  0  0  0  0
  195.3860  176.0540  142.7120 C   0  0  0  0  0  2  0  0  0  0  0  0
  197.3840  175.0780  143.8760 C   0  0  0  0  0  3  0  0  0  0  0  0
  196.4950  176.2870  143.7510 C   0  0  1  0  0  3  0  0  0  0  0  0
  197.2610  177.3800  143.3740 F   0  0  0  0  0  0  0  0  0  0  0  0
  197.6220  174.2940  142.8210 C   0  0  0  0  0  3  0  0  0  0  0  0
  186.8550  175.7750  137.7140 N   0  0  0  0  0  0  0  0  0  0  0  0
  187.5870  175.1390  138.6550 C   0  0  0  0  0  0  0  0  0  0  0  0
  186.9060  176.8960  139.6010 C   0  0  0  0  0  0  0  0  0  0  0  0
  186.4180  176.8970  138.3150 C   0  0  0  0  0  2  0  0  0  0  0  0
  187.6250  175.7860  139.8370 N   0  0  0  0  0  0  0  0  0  0  0  0
  186.5220  177.8770  140.6570 C   0  0  0  0  0  2  0  0  0  0  0  0
  188.6180  177.9890  141.8400 N   0  0  0  0  0  0  0  0  0  0  0  0
  187.3570  177.6790  141.8800 C   0  0  0  0  0  0  0  0  0  0  0  0
  185.7350  177.7400  143.6860 N   0  0  0  0  0  0  0  0  0  0  0  0
  186.6960  177.1290  143.0740 C   0  0  0  0  0  3  0  0  0  0  0  0
  185.1390  177.1670  144.8830 C   0  0  0  0  0  2  0  0  0  0  0  0
  183.7360  178.6700  146.1290 O   0  0  0  0  0  1  0  0  0  0  0  0
  185.0500  178.2110  145.9910 C   0  0  1  0  0  3  0  0  0  0  0  0
  185.5830  177.6670  147.3170 C   0  0  0  0  0  2  0  0  0  0  0  0
  186.9660  178.2130  147.6810 C   0  0  0  0  0  2  0  0  0  0  0  0
  188.0610  177.5380  146.8640 C   0  0  0  0  0  2  0  0  0  0  0  0
  187.8750  176.1530  146.8690 O   0  0  0  0  0  1  0  0  0  0  0  0
  189.4650  177.9060  142.9210 O   0  0  0  0  0  0  0  0  0  0  0  0
  192.3590  176.1510  144.5270 C   0  0  1  0  0  0  0  0  0  0  0  0
  191.4530  176.1470  145.7890 C   0  0  0  0  0  2  0  0  0  0  0  0
  190.7000  177.2180  142.8000 C   0  0  2  0  0  3  0  0  0  0  0  0
  192.3310  175.0170  145.5780 C   0  0  1  0  0  3  0  0  0  0  0  0
  191.8320  175.1950  143.4810 C   0  0  1  0  0  3  0  0  0  0  0  0
  191.7250  174.0950  144.5270 C   0  0  1  0  0  3  0  0  0  0  0  0
  190.4910  175.7320  143.0190 C   0  0  0  0  0  2  0  0  0  0  0  0
  191.8920  177.8370  144.0480 S   0  0  0  0  0  0  0  0  0  0  0  0
  193.7890  173.1750  143.7100 O   0  0  0  0  0  0  0  0  0  0  0  0
  192.2390  171.6580  144.4470 O   0  0  0  0  0  1  0  0  0  0  0  0
  192.6500  172.9620  144.2080 C   0  0  0  0  0  0  0  0  0  0  0  0
  188.5470  173.9590  141.9020 O   0  0  0  0  0  1  0  0  0  0  0  0
  188.2690  173.2390  140.9100 C   0  0  0  0  0  0  0  0  0  0  0  0
  187.2460  172.3030  141.0000 O   0  0  0  0  0  0  0  0  0  0  0  0
  1  2  1  0  0  0  0
  2  4  1  0  0  0  0
  3  5  1  0  0  0  0
  4 36  1  1  0  0  0
  4  5  1  0  0  0  0
  5 65  1  1  0  0  0
  6  1  1  6  0  0  0
  6  3  1  0  0  0  0
  7  6  1  1  0  0  0
  7 16  1  0  0  0  0
  8 14  1  0  0  0  0
  8 13  1  0  0  0  0
  9 16  1  0  0  0  0
 11 14  1  6  0  0  0
 11 12  1  0  0  0  0
 11  7  1  0  0  0  0
 12 15  1  0  0  0  0
 13 12  1  0  0  0  0
 15 26  1  0  0  0  0
 15 10  1  0  0  0  0
 16 10  1  0  0  0  0
 17 13  1  0  0  0  0
 18 17  2  0  0  0  0
 19 21  1  0  0  0  0
 19 18  1  0  0  0  0
 20 21  1  0  0  0  0
 22 20  1  0  0  0  0
 22 21  1  0  0  0  0
 23 17  1  0  0  0  0
 23 25  1  0  0  0  0
 24 25  1  0  0  0  0
 26 27  1  0  0  0  0
 27 29  1  0  0  0  0
 28 34  1  0  0  0  0
 29 28  2  0  0  0  0
 29 30  1  0  0  0  0
 30 32  1  0  0  0  0
 32 31  1  0  0  0  0
 33 32  1  0  0  0  0
 34 31  2  0  0  0  0
 35 38  1  0  0  0  0
 35 36  2  0  0  0  0
 36 39  1  0  0  0  0
 37 39  2  0  0  0  0
 37 40  1  0  0  0  0
 38 37  1  0  0  0  0
 40 42  1  0  0  0  0
 41 42  2  0  0  0  0
 41 52  1  0  0  0  0
 42 44  1  0  0  0  0
 43 45  1  0  0  0  0
 44 43  2  0  0  0  0
 45 47  1  0  0  0  0
 47 46  1  0  0  0  0
 47 48  1  0  0  0  0
 48 49  1  0  0  0  0
 50 51  1  0  0  0  0
 50 49  1  0  0  0  0
 53 56  1  0  0  0  0
 53 54  1  0  0  0  0
 55 52  1  0  0  0  0
 55 59  1  0  0  0  0
 55 60  1  0  0  0  0
 56 54  1  0  0  0  0
 57 53  1  0  0  0  0
 57 58  1  0  0  0  0
 58 56  1  0  0  0  0
 59 57  1  0  0  0  0
 60 53  1  0  0  0  0
 61 63  2  0  0  0  0
 63 62  1  0  0  0  0
 63 58  1  0  0  0  0
 65 66  2  0  0  0  0
 65 64  1  0  0  0  0
M  END
>  <MODEL>
7

>  <REMARK>
 VINA RESULT:      -5.1      2.576      3.969
  Name = 
  22 active torsions:
  status: ('A' for Active; 'I' for Inactive)
    1  A    between atoms: C_5  and  C_66
    2  A    between atoms: O_8  and  N_25
    3  A    between atoms: O_8  and  C_38
    4  A    between atoms: C_9  and  C_43
    5  A    between atoms: C_9  and  C_57
    6  A    between atoms: C_11  and  C_50
    7  A    between atoms: N_12  and  C_22
    8  A    between atoms: C_13  and  C_47
    9  A    between atoms: C_17  and  C_21
   10  A    between atoms: C_17  and  O_34
   11  A    between atoms: C_18  and  C_19
   12  A    between atoms: C_18  and  C_46
   13  A    between atoms: C_20  and  C_62
   14  A    between atoms: C_22  and  C_60
   15  A    between atoms: C_27  and  C_55
   16  A    between atoms: O_34  and  C_48
   17  A    between atoms: C_35  and  C_51
   18  A    between atoms: C_39  and  C_55
   19  A    between atoms: C_46  and  C_58
   20  A    between atoms: C_47  and  C_52
   21  A    between atoms: C_52  and  C_60
   22  A    between atoms: C_57  and  O_65
                            x       y       z     vdW  Elec       q    Type
                         _______ _______ _______ _____ _____    ______ ____

>  <TORSDO>
F 22

$$$$
=
 OpenBabel11062421293D

 66 74  0  0  1  0  0  0  0  0999 V2000
  194.3860  176.7580  145.0300 C   0  0  0  0  0  2  0  0  0  0  0  0
  194.7360  175.9190  143.8060 C   0  0  0  0  0  2  0  0  0  0  0  0
  194.3480  174.6440  146.4530 C   0  0  0  0  0  2  0  0  0  0  0  0
  195.4770  174.6310  144.1690 C   0  0  1  0  0  3  0  0  0  0  0  0
  194.7010  173.8120  145.2210 C   0  0  1  0  0  3  0  0  0  0  0  0
  193.6350  175.9450  146.0840 C   0  0  2  0  0  3  0  0  0  0  0  0
  192.1120  175.8470  145.8880 C   0  0  1  0  0  3  0  0  0  0  0  0
  190.9950  173.1580  143.9440 C   0  0  0  0  0  2  0  0  0  0  0  0
  191.4290  178.0200  146.6380 O   0  0  0  0  0  1  0  0  0  0  0  0
  190.0130  176.2420  147.3650 C   0  0  0  0  0  2  0  0  0  0  0  0
  191.5640  174.4050  145.7560 C   0  0  1  0  0  3  0  0  0  0  0  0
  190.0380  174.3350  145.7100 C   0  0  2  0  0  3  0  0  0  0  0  0
  189.7190  173.8750  144.3090 C   0  0  1  0  0  3  0  0  0  0  0  0
  192.0690  173.7980  144.5870 O   0  0  0  0  0  0  0  0  0  0  0  0
  189.3090  175.6090  146.1720 C   0  0  1  0  0  3  0  0  0  0  0  0
  191.4350  176.6730  147.0000 C   0  0  1  0  0  3  0  0  0  0  0  0
  189.4270  174.9970  143.3350 C   0  0  0  0  0  0  0  0  0  0  0  0
  188.5900  174.7340  142.3190 C   0  0  0  0  0  3  0  0  0  0  0  0
  188.1420  175.7610  141.3240 C   0  0  0  0  0  2  0  0  0  0  0  0
  186.2280  177.2400  141.0350 N   0  0  0  0  0  2  0  0  0  0  0  0
  187.2410  176.7770  141.9960 C   0  0  2  0  0  3  0  0  0  0  0  0
  187.4040  178.0690  141.3370 C   0  0  0  0  0  2  0  0  0  0  0  0
  189.9280  176.3930  143.5970 C   0  0  0  0  0  2  0  0  0  0  0  0
  191.2620  177.9520  142.9770 O   0  0  0  0  0  1  0  0  0  0  0  0
  190.8090  176.7800  142.5860 O   0  0  0  0  0  0  0  0  0  0  0  0
  187.9240  175.4180  146.3760 O   0  0  0  0  0  0  0  0  0  0  0  0
  187.4490  176.3620  147.3040 C   0  0  0  0  0  2  0  0  0  0  0  0
  185.5360  177.8800  147.5210 C   0  0  0  0  0  3  0  0  0  0  0  0
  186.2640  177.0700  146.7430 C   0  0  0  0  0  0  0  0  0  0  0  0
  185.8420  176.8020  145.3230 C   0  0  0  0  0  2  0  0  0  0  0  0
  184.1480  178.6230  145.6560 C   0  0  0  0  0  3  0  0  0  0  0  0
  185.1400  178.0190  144.6980 C   0  0  1  0  0  3  0  0  0  0  0  0
  186.0840  178.9740  144.3560 F   0  0  0  0  0  0  0  0  0  0  0  0
  184.3650  178.5900  146.9740 C   0  0  0  0  0  3  0  0  0  0  0  0
  196.3140  174.3410  141.8200 N   0  0  0  0  0  0  0  0  0  0  0  0
  195.6710  173.8510  142.9040 C   0  0  0  0  0  0  0  0  0  0  0  0
  195.7650  172.2310  141.5590 C   0  0  0  0  0  0  0  0  0  0  0  0
  196.3770  173.3080  140.9600 C   0  0  0  0  0  2  0  0  0  0  0  0
  195.3350  172.5510  142.7910 N   0  0  0  0  0  0  0  0  0  0  0  0
  195.7620  170.8420  141.0130 C   0  0  0  0  0  2  0  0  0  0  0  0
  194.2870  170.5950  139.1240 N   0  0  0  0  0  0  0  0  0  0  0  0
  195.4870  170.8620  139.5450 C   0  0  0  0  0  0  0  0  0  0  0  0
  196.5850  172.1760  137.8230 N   0  0  0  0  0  0  0  0  0  0  0  0
  196.6090  171.1800  138.6470 C   0  0  0  0  0  3  0  0  0  0  0  0
  197.7080  172.4250  136.9320 C   0  0  0  0  0  2  0  0  0  0  0  0
  197.7740  172.2440  134.5360 O   0  0  0  0  0  1  0  0  0  0  0  0
  197.2220  172.9710  135.5950 C   0  0  1  0  0  3  0  0  0  0  0  0
  195.6940  172.9810  135.5170 C   0  0  0  0  0  2  0  0  0  0  0  0
  195.1250  174.3080  135.0080 C   0  0  0  0  0  2  0  0  0  0  0  0
  196.2340  175.2540  134.5660 C   0  0  0  0  0  2  0  0  0  0  0  0
  196.3080  176.3440  135.4360 O   0  0  0  0  0  1  0  0  0  0  0  0
  193.9070  170.6440  137.8030 O   0  0  0  0  0  0  0  0  0  0  0  0
  190.3910  171.4270  138.8300 C   0  0  1  0  0  0  0  0  0  0  0  0
  191.0590  171.9940  140.1120 C   0  0  0  0  0  2  0  0  0  0  0  0
  192.5350  170.7810  137.4670 C   0  0  2  0  0  3  0  0  0  0  0  0
  189.8700  172.6520  139.6160 C   0  0  1  0  0  3  0  0  0  0  0  0
  190.6730  172.3120  137.6370 C   0  0  1  0  0  3  0  0  0  0  0  0
  190.2390  173.5360  138.4300 C   0  0  1  0  0  3  0  0  0  0  0  0
  192.1660  172.2500  137.3770 C   0  0  0  0  0  2  0  0  0  0  0  0
  191.4910  169.9870  138.7470 S   0  0  0  0  0  0  0  0  0  0  0  0
  189.0300  174.5840  136.6370 O   0  0  0  0  0  0  0  0  0  0  0  0
  187.8690  174.2900  138.5900 O   0  0  0  0  0  1  0  0  0  0  0  0
  189.0200  174.1600  137.8250 C   0  0  0  0  0  0  0  0  0  0  0  0
  194.8610  171.5500  145.9540 O   0  0  0  0  0  1  0  0  0  0  0  0
  195.4730  172.6070  145.6560 C   0  0  0  0  0  0  0  0  0  0  0  0
  196.8580  172.6570  145.7630 O   0  0  0  0  0  0  0  0  0  0  0  0
  2  4  1  0  0  0  0
  2  1  1  0  0  0  0
  4 36  1  6  0  0  0
  4  5  1  0  0  0  0
  5 65  1  1  0  0  0
  5  3  1  0  0  0  0
  6  1  1  6  0  0  0
  6  3  1  0  0  0  0
  7  6  1  1  0  0  0
  7 16  1  0  0  0  0
  8 13  1  0  0  0  0
  8 14  1  0  0  0  0
  9 16  1  0  0  0  0
 11 14  1  6  0  0  0
 11  7  1  0  0  0  0
 12 11  1  0  0  0  0
 12 15  1  0  0  0  0
 13 12  1  0  0  0  0
 15 26  1  0  0  0  0
 15 10  1  0  0  0  0
 16 10  1  0  0  0  0
 17 23  1  0  0  0  0
 17 13  1  0  0  0  0
 18 17  2  0  0  0  0
 19 21  1  0  0  0  0
 19 18  1  0  0  0  0
 20 22  1  0  0  0  0
 20 21  1  0  0  0  0
 22 21  1  0  0  0  0
 25 24  1  0  0  0  0
 25 23  1  0  0  0  0
 26 27  1  0  0  0  0
 29 27  1  0  0  0  0
 29 28  2  0  0  0  0
 30 29  1  0  0  0  0
 31 34  2  0  0  0  0
 32 30  1  0  0  0  0
 32 31  1  0  0  0  0
 33 32  1  0  0  0  0
 34 28  1  0  0  0  0
 35 36  2  0  0  0  0
 37 39  2  0  0  0  0
 38 37  1  0  0  0  0
 38 35  1  0  0  0  0
 39 36  1  0  0  0  0
 40 37  1  0  0  0  0
 41 42  2  0  0  0  0
 42 40  1  0  0  0  0
 43 44  2  0  0  0  0
 44 42  1  0  0  0  0
 45 43  1  0  0  0  0
 46 47  1  0  0  0  0
 47 45  1  0  0  0  0
 48 47  1  0  0  0  0
 49 48  1  0  0  0  0
 50 49  1  0  0  0  0
 50 51  1  0  0  0  0
 52 41  1  0  0  0  0
 53 56  1  0  0  0  0
 53 54  1  0  0  0  0
 55 52  1  0  0  0  0
 55 60  1  0  0  0  0
 56 54  1  0  0  0  0
 57 58  1  0  0  0  0
 57 53  1  0  0  0  0
 58 56  1  0  0  0  0
 59 55  1  0  0  0  0
 59 57  1  0  0  0  0
 60 53  1  0  0  0  0
 61 63  2  0  0  0  0
 63 58  1  0  0  0  0
 63 62  1  0  0  0  0
 65 66  2  0  0  0  0
 65 64  1  0  0  0  0
M  END
>  <MODEL>
8

>  <REMARK>
 VINA RESULT:      -4.9      3.060     10.254
  Name = 
  22 active torsions:
  status: ('A' for Active; 'I' for Inactive)
    1  A    between atoms: C_5  and  C_66
    2  A    between atoms: O_8  and  N_25
    3  A    between atoms: O_8  and  C_38
    4  A    between atoms: C_9  and  C_43
    5  A    between atoms: C_9  and  C_57
    6  A    between atoms: C_11  and  C_50
    7  A    between atoms: N_12  and  C_22
    8  A    between atoms: C_13  and  C_47
    9  A    between atoms: C_17  and  C_21
   10  A    between atoms: C_17  and  O_34
   11  A    between atoms: C_18  and  C_19
   12  A    between atoms: C_18  and  C_46
   13  A    between atoms: C_20  and  C_62
   14  A    between atoms: C_22  and  C_60
   15  A    between atoms: C_27  and  C_55
   16  A    between atoms: O_34  and  C_48
   17  A    between atoms: C_35  and  C_51
   18  A    between atoms: C_39  and  C_55
   19  A    between atoms: C_46  and  C_58
   20  A    between atoms: C_47  and  C_52
   21  A    between atoms: C_52  and  C_60
   22  A    between atoms: C_57  and  O_65
                            x       y       z     vdW  Elec       q    Type
                         _______ _______ _______ _____ _____    ______ ____

>  <TORSDO>
F 22

$$$$
=
 OpenBabel11062421293D

 66 74  0  0  1  0  0  0  0  0999 V2000
  189.3960  172.1500  142.2590 C   0  0  0  0  0  2  0  0  0  0  0  0
  190.8230  172.3120  141.7470 C   0  0  0  0  0  2  0  0  0  0  0  0
  188.5180  173.1710  140.0960 C   0  0  0  0  0  2  0  0  0  0  0  0
  190.9050  172.2910  140.2200 C   0  0  1  0  0  3  0  0  0  0  0  0
  189.9510  173.3270  139.5900 C   0  0  1  0  0  3  0  0  0  0  0  0
  188.4430  173.1610  141.6220 C   0  0  2  0  0  3  0  0  0  0  0  0
  188.3830  174.5400  142.3040 C   0  0  1  0  0  3  0  0  0  0  0  0
  191.4350  176.2310  142.5900 C   0  0  0  0  0  2  0  0  0  0  0  0
  186.1970  174.4550  143.2830 O   0  0  0  0  0  1  0  0  0  0  0  0
  186.7470  176.5560  142.2920 C   0  0  0  0  0  2  0  0  0  0  0  0
  189.4170  175.5680  141.7830 C   0  0  1  0  0  3  0  0  0  0  0  0
  189.2370  176.9660  142.3740 C   0  0  2  0  0  3  0  0  0  0  0  0
  190.4540  177.1750  143.2410 C   0  0  1  0  0  3  0  0  0  0  0  0
  190.7270  175.1320  142.0760 O   0  0  0  0  0  0  0  0  0  0  0  0
  187.8830  177.2170  143.0610 C   0  0  1  0  0  3  0  0  0  0  0  0
  186.9250  175.0370  142.2450 C   0  0  1  0  0  3  0  0  0  0  0  0
  190.2490  176.8260  144.6990 C   0  0  0  0  0  0  0  0  0  0  0  0
  190.4310  177.8030  145.6020 C   0  0  0  0  0  3  0  0  0  0  0  0
  190.1870  177.6350  147.0710 C   0  0  0  0  0  2  0  0  0  0  0  0
  191.1510  176.3290  148.8880 N   0  0  0  0  0  2  0  0  0  0  0  0
  191.4700  177.2270  147.7680 C   0  0  2  0  0  3  0  0  0  0  0  0
  191.4570  177.7460  149.1310 C   0  0  0  0  0  2  0  0  0  0  0  0
  189.7020  175.4810  145.0990 C   0  0  0  0  0  2  0  0  0  0  0  0
  190.3960  174.0970  146.5810 O   0  0  0  0  0  1  0  0  0  0  0  0
  190.7500  174.6190  145.4270 O   0  0  0  0  0  0  0  0  0  0  0  0
  187.6460  178.5810  143.3470 O   0  0  0  0  0  0  0  0  0  0  0  0
  186.2610  178.8170  143.4020 C   0  0  0  0  0  2  0  0  0  0  0  0
  184.4780  178.7830  145.0850 C   0  0  0  0  0  3  0  0  0  0  0  0
  185.7870  178.7220  144.8120 C   0  0  0  0  0  0  0  0  0  0  0  0
  186.7930  178.6420  145.9290 C   0  0  0  0  0  2  0  0  0  0  0  0
  184.8280  178.3010  147.4520 C   0  0  0  0  0  3  0  0  0  0  0  0
  186.2380  177.8750  147.1410 C   0  0  1  0  0  3  0  0  0  0  0  0
  186.2570  176.5150  146.8770 F   0  0  0  0  0  0  0  0  0  0  0  0
  183.9990  178.6820  146.4760 C   0  0  0  0  0  3  0  0  0  0  0  0
  192.8060  173.7940  139.5670 N   0  0  0  0  0  0  0  0  0  0  0  0
  192.3300  172.5600  139.8420 C   0  0  0  0  0  0  0  0  0  0  0  0
  194.4020  172.2870  139.5680 C   0  0  0  0  0  0  0  0  0  0  0  0
  194.1300  173.6240  139.3930 C   0  0  0  0  0  2  0  0  0  0  0  0
  193.2840  171.6080  139.8720 N   0  0  0  0  0  0  0  0  0  0  0  0
  195.7720  171.6980  139.6240 C   0  0  0  0  0  2  0  0  0  0  0  0
  197.0230  172.8330  137.9050 N   0  0  0  0  0  0  0  0  0  0  0  0
  196.7860  172.6990  139.1760 C   0  0  0  0  0  0  0  0  0  0  0  0
  196.8420  174.1140  141.1490 N   0  0  0  0  0  0  0  0  0  0  0  0
  197.4740  173.4830  140.2150 C   0  0  0  0  0  3  0  0  0  0  0  0
  197.5710  174.9020  142.1320 C   0  0  0  0  0  2  0  0  0  0  0  0
  196.0730  176.5230  141.1790 O   0  0  0  0  0  1  0  0  0  0  0  0
  197.0710  176.3420  142.1420 C   0  0  1  0  0  3  0  0  0  0  0  0
  196.5750  176.7530  143.5290 C   0  0  0  0  0  2  0  0  0  0  0  0
  196.0010  175.5830  144.3350 C   0  0  0  0  0  2  0  0  0  0  0  0
  194.5100  175.4110  144.0780 C   0  0  0  0  0  2  0  0  0  0  0  0
  194.0130  174.3490  144.8370 O   0  0  0  0  0  1  0  0  0  0  0  0
  197.8880  173.7640  137.3780 O   0  0  0  0  0  0  0  0  0  0  0  0
  195.3340  174.7430  134.8190 C   0  0  1  0  0  0  0  0  0  0  0  0
  194.4690  173.6430  135.4920 C   0  0  0  0  0  2  0  0  0  0  0  0
  197.4300  174.6760  136.3930 C   0  0  2  0  0  3  0  0  0  0  0  0
  193.7980  174.8160  134.9740 C   0  0  1  0  0  3  0  0  0  0  0  0
  195.4830  175.9440  135.7260 C   0  0  1  0  0  3  0  0  0  0  0  0
  193.9780  175.9720  135.9490 C   0  0  1  0  0  3  0  0  0  0  0  0
  196.2730  175.4920  136.9400 C   0  0  0  0  0  2  0  0  0  0  0  0
  196.8610  173.7670  134.9070 S   0  0  0  0  0  0  0  0  0  0  0  0
  192.1440  177.3190  135.1770 O   0  0  0  0  0  1  0  0  0  0  0  0
  194.2060  178.3150  135.1300 O   0  0  0  0  0  0  0  0  0  0  0  0
  193.3810  177.2330  135.4050 C   0  0  0  0  0  0  0  0  0  0  0  0
  190.0970  174.2770  137.4100 O   0  0  0  0  0  0  0  0  0  0  0  0
  189.9510  173.2350  138.0970 C   0  0  0  0  0  0  0  0  0  0  0  0
  189.7570  172.0120  137.4660 O   0  0  0  0  0  1  0  0  0  0  0  0
  2  1  1  0  0  0  0
  4 36  1  1  0  0  0
  4  2  1  0  0  0  0
  5 65  1  6  0  0  0
  5  3  1  0  0  0  0
  5  4  1  0  0  0  0
  6  3  1  6  0  0  0
  6  1  1  0  0  0  0
  7  6  1  6  0  0  0
  8 13  1  0  0  0  0
 10 15  1  0  0  0  0
 11 14  1  1  0  0  0
 11  7  1  0  0  0  0
 11 12  1  0  0  0  0
 12 15  1  0  0  0  0
 12 13  1  0  0  0  0
 13 17  1  0  0  0  0
 14  8  1  0  0  0  0
 15 26  1  0  0  0  0
 16 10  1  0  0  0  0
 16  7  1  0  0  0  0
 16  9  1  0  0  0  0
 17 23  1  0  0  0  0
 17 18  2  0  0  0  0
 18 19  1  0  0  0  0
 19 21  1  0  0  0  0
 20 22  1  0  0  0  0
 21 20  1  0  0  0  0
 21 22  1  0  0  0  0
 23 25  1  0  0  0  0
 25 24  1  0  0  0  0
 26 27  1  0  0  0  0
 27 29  1  0  0  0  0
 28 34  1  0  0  0  0
 29 28  2  0  0  0  0
 29 30  1  0  0  0  0
 30 32  1  0  0  0  0
 32 31  1  0  0  0  0
 33 32  1  0  0  0  0
 34 31  2  0  0  0  0
 35 36  2  0  0  0  0
 36 39  1  0  0  0  0
 37 40  1  0  0  0  0
 37 39  2  0  0  0  0
 38 35  1  0  0  0  0
 38 37  1  0  0  0  0
 41 42  2  0  0  0  0
 42 40  1  0  0  0  0
 42 44  1  0  0  0  0
 43 45  1  0  0  0  0
 44 43  2  0  0  0  0
 45 47  1  0  0  0  0
 46 47  1  0  0  0  0
 47 48  1  0  0  0  0
 48 49  1  0  0  0  0
 50 49  1  0  0  0  0
 50 51  1  0  0  0  0
 52 41  1  0  0  0  0
 53 60  1  0  0  0  0
 53 56  1  0  0  0  0
 53 54  1  0  0  0  0
 53 57  1  0  0  0  0
 55 59  1  0  0  0  0
 55 52  1  0  0  0  0
 56 54  1  0  0  0  0
 56 58  1  0  0  0  0
 57 58  1  0  0  0  0
 57 59  1  0  0  0  0
 60 55  1  0  0  0  0
 61 63  1  0  0  0  0
 62 63  2  0  0  0  0
 63 58  1  0  0  0  0
 64 65  2  0  0  0  0
 66 65  1  0  0  0  0
M  END
>  <MODEL>
9

>  <REMARK>
 VINA RESULT:      -4.8      3.209      9.619
  Name = 
  22 active torsions:
  status: ('A' for Active; 'I' for Inactive)
    1  A    between atoms: C_5  and  C_66
    2  A    between atoms: O_8  and  N_25
    3  A    between atoms: O_8  and  C_38
    4  A    between atoms: C_9  and  C_43
    5  A    between atoms: C_9  and  C_57
    6  A    between atoms: C_11  and  C_50
    7  A    between atoms: N_12  and  C_22
    8  A    between atoms: C_13  and  C_47
    9  A    between atoms: C_17  and  C_21
   10  A    between atoms: C_17  and  O_34
   11  A    between atoms: C_18  and  C_19
   12  A    between atoms: C_18  and  C_46
   13  A    between atoms: C_20  and  C_62
   14  A    between atoms: C_22  and  C_60
   15  A    between atoms: C_27  and  C_55
   16  A    between atoms: O_34  and  C_48
   17  A    between atoms: C_35  and  C_51
   18  A    between atoms: C_39  and  C_55
   19  A    between atoms: C_46  and  C_58
   20  A    between atoms: C_47  and  C_52
   21  A    between atoms: C_52  and  C_60
   22  A    between atoms: C_57  and  O_65
                            x       y       z     vdW  Elec       q    Type
                         _______ _______ _______ _____ _____    ______ ____

>  <TORSDO>
F 22

$$$$
