=
 OpenBabel11062420043D

 42 50  0  0  1  0  0  0  0  0999 V2000
  190.4180  173.5470  142.5250 C   0  0  2  0  0  0  0  0  0  0  0  0
  190.9280  177.6560  144.7210 O   0  0  0  0  0  0  0  0  0  0  0  0
  189.7000  172.8270  143.6660 C   0  0  0  0  0  1  0  0  0  0  0  0
  192.3880  175.2360  146.9250 C   0  0  0  0  0  3  0  0  0  0  0  0
  193.3720  172.3740  144.9980 C   0  0  0  0  0  0  0  0  0  0  0  0
  189.9000  175.0050  142.4840 C   0  0  2  0  0  3  0  0  0  0  0  0
  190.9590  173.2130  140.1530 O   0  0  0  0  0  0  0  0  0  0  0  0
  192.4260  174.3640  143.9510 C   0  0  0  0  0  0  0  0  0  0  0  0
  188.6300  172.9850  140.7400 C   0  0  2  0  0  3  0  0  0  0  0  0
  189.5060  172.0380  138.6230 C   0  0  0  0  0  0  0  0  0  0  0  0
  190.9020  172.2000  139.1740 C   0  0  0  0  0  2  0  0  0  0  0  0
  188.4480  172.3420  139.3900 C   0  0  0  0  0  3  0  0  0  0  0  0
  193.9000  171.8310  146.0050 O   0  0  0  0  0  0  0  0  0  0  0  0
  191.3800  175.9900  146.4440 C   0  0  0  0  0  0  0  0  0  0  0  0
  192.2250  175.8630  143.9830 C   0  0  2  0  0  3  0  0  0  0  0  0
  188.2820  174.4650  140.6280 C   0  0  0  0  0  2  0  0  0  0  0  0
  191.1630  176.2940  144.9610 C   0  0  2  0  0  3  0  0  0  0  0  0
  192.4960  172.0900  142.8020 C   0  0  0  0  0  3  0  0  0  0  0  0
  190.0950  172.8150  141.1960 C   0  0  2  0  0  3  0  0  0  0  0  0
  188.4630  175.1450  141.9750 C   0  0  0  0  0  2  0  0  0  0  0  0
  189.3170  171.4430  137.4180 F   0  0  0  0  0  0  0  0  0  0  0  0
  191.1450  177.8510  143.3380 C   0  0  0  0  0  2  0  0  0  0  0  0
  191.9540  173.5060  142.7820 C   0  0  1  0  0  3  0  0  0  0  0  0
  193.5390  174.6760  146.1380 C   0  0  0  0  0  2  0  0  0  0  0  0
  190.8630  175.9480  141.7680 C   0  0  0  0  0  2  0  0  0  0  0  0
  193.1140  171.5960  143.8290 N   0  0  0  0  0  0  0  0  0  0  0  0
  191.8370  176.6340  142.7380 C   0  0  2  0  0  3  0  0  0  0  0  0
  193.0620  173.8130  145.0010 C   0  0  0  0  0  0  0  0  0  0  0  0
  189.1870  174.1660  147.2600 O   0  0  0  0  0  0  0  0  0  0  0  0
  187.8280  176.0800  146.9380 C   0  0  1  0  0  3  0  0  0  0  0  0
  188.1830  177.5570  147.0030 C   0  0  2  0  0  3  0  0  0  0  0  0
  189.9080  178.4080  148.4310 O   0  0  0  0  0  1  0  0  0  0  0  0
  187.9270  176.8930  145.6590 C   0  0  2  0  0  3  0  0  0  0  0  0
  190.2700  176.2770  147.4250 C   0  0  2  0  0  3  0  0  0  0  0  0
  189.1080  175.3820  147.2000 C   0  0  0  0  0  0  0  0  0  0  0  0
  189.6920  177.6780  147.2630 C   0  0  1  0  0  3  0  0  0  0  0  0
  186.6340  178.2910  144.0530 C   0  0  0  0  0  2  0  0  0  0  0  0
  184.6550  179.3840  144.8700 O   0  0  0  0  0  0  0  0  0  0  0  0
  184.3840  178.3340  145.7660 C   0  0  0  0  0  2  0  0  0  0  0  0
  185.2310  178.8020  143.7250 C   0  0  0  0  0  2  0  0  0  0  0  0
  186.5380  177.2420  145.1620 C   0  0  0  0  0  3  0  0  0  0  0  0
  185.6930  177.7720  146.3200 C   0  0  0  0  0  2  0  0  0  0  0  0
  1 23  1  0  0  0  0
  1  3  1  1  0  0  0
  5 28  1  0  0  0  0
  5 13  2  0  0  0  0
  6 25  1  6  0  0  0
  6  1  1  0  0  0  0
  8 28  2  0  0  0  0
  9 12  1  6  0  0  0
  9 19  1  0  0  0  0
 10 11  1  0  0  0  0
 10 12  2  0  0  0  0
 11  7  1  0  0  0  0
 14  4  2  0  0  0  0
 14 34  1  0  0  0  0
 15  8  1  6  0  0  0
 15 17  1  0  0  0  0
 16  9  1  0  0  0  0
 16 20  1  0  0  0  0
 17  2  1  1  0  0  0
 17 14  1  0  0  0  0
 18 26  2  0  0  0  0
 19  7  1  6  0  0  0
 19  1  1  0  0  0  0
 20  6  1  0  0  0  0
 21 10  1  0  0  0  0
 22  2  1  0  0  0  0
 23 18  1  1  0  0  0
 23  8  1  0  0  0  0
 24  4  1  0  0  0  0
 26  5  1  0  0  0  0
 27 25  1  6  0  0  0
 27 22  1  0  0  0  0
 27 15  1  0  0  0  0
 28 24  1  0  0  0  0
 30 31  1  0  0  0  0
 30 35  1  6  0  0  0
 31 36  1  0  0  0  0
 33 30  1  0  0  0  0
 33 31  1  0  0  0  0
 35 29  2  0  0  0  0
 35 34  1  0  0  0  0
 36 34  1  0  0  0  0
 36 32  1  0  0  0  0
 37 41  1  0  0  0  0
 38 39  1  0  0  0  0
 39 42  1  0  0  0  0
 40 37  1  0  0  0  0
 40 38  1  0  0  0  0
 41 33  1  0  0  0  0
 41 42  1  0  0  0  0
M  END
>  <MODEL>
1

>  <REMARK>
 VINA RESULT:     -10.0      0.000      0.000
  Name = 
  2 active torsions:
  status: ('A' for Active; 'I' for Inactive)
    1  A    between atoms: C_17  and  C_29
    2  A    between atoms: C_28  and  C_34
                            x       y       z     vdW  Elec       q    Type
                         _______ _______ _______ _____ _____    ______ ____

>  <TORSDO>
F 2

$$$$
=
 OpenBabel11062420043D

 42 50  0  0  1  0  0  0  0  0999 V2000
  193.8780  173.9950  142.0340 C   0  0  2  0  0  0  0  0  0  0  0  0
  193.3120  176.0850  146.1910 O   0  0  0  0  0  0  0  0  0  0  0  0
  192.7550  174.7370  141.3110 C   0  0  0  0  0  1  0  0  0  0  0  0
  190.0900  174.7420  145.3790 C   0  0  0  0  0  3  0  0  0  0  0  0
  190.5250  172.0230  143.0800 C   0  0  0  0  0  0  0  0  0  0  0  0
  194.5780  175.0000  142.9800 C   0  0  2  0  0  3  0  0  0  0  0  0
  195.7570  172.4980  141.5260 O   0  0  0  0  0  0  0  0  0  0  0  0
  192.4280  173.2110  144.0390 C   0  0  0  0  0  0  0  0  0  0  0  0
  195.6930  174.5610  140.2780 C   0  0  2  0  0  3  0  0  0  0  0  0
  197.0360  172.6360  139.4830 C   0  0  0  0  0  0  0  0  0  0  0  0
  196.2730  171.7560  140.4430 C   0  0  0  0  0  2  0  0  0  0  0  0
  196.7090  173.9310  139.3630 C   0  0  0  0  0  3  0  0  0  0  0  0
  189.2960  171.7530  143.1080 O   0  0  0  0  0  0  0  0  0  0  0  0
  191.0400  175.6980  145.3950 C   0  0  0  0  0  0  0  0  0  0  0  0
  193.0030  173.9990  145.1950 C   0  0  2  0  0  3  0  0  0  0  0  0
  196.4250  175.4070  141.3140 C   0  0  0  0  0  2  0  0  0  0  0  0
  192.5350  175.4310  145.2240 C   0  0  2  0  0  3  0  0  0  0  0  0
  192.5990  171.7880  141.9310 C   0  0  0  0  0  3  0  0  0  0  0  0
  194.8750  173.4530  140.9770 C   0  0  2  0  0  3  0  0  0  0  0  0
  195.4260  176.0520  142.2600 C   0  0  0  0  0  2  0  0  0  0  0  0
  197.9410  172.0860  138.6340 F   0  0  0  0  0  0  0  0  0  0  0  0
  194.5760  175.4520  146.1700 C   0  0  0  0  0  2  0  0  0  0  0  0
  193.2710  172.8040  142.8340 C   0  0  1  0  0  3  0  0  0  0  0  0
  190.3180  173.2580  145.3290 C   0  0  0  0  0  2  0  0  0  0  0  0
  195.3450  174.3080  144.1040 C   0  0  0  0  0  2  0  0  0  0  0  0
  191.3470  171.4710  142.0510 N   0  0  0  0  0  0  0  0  0  0  0  0
  194.4990  174.1540  145.3780 C   0  0  2  0  0  3  0  0  0  0  0  0
  191.1310  172.8650  144.1240 C   0  0  0  0  0  0  0  0  0  0  0  0
  189.9640  177.4020  147.5730 O   0  0  0  0  0  0  0  0  0  0  0  0
  188.2620  177.8860  145.9970 C   0  0  1  0  0  3  0  0  0  0  0  0
  188.2890  177.8390  144.4770 C   0  0  2  0  0  3  0  0  0  0  0  0
  190.2750  178.2680  143.2090 O   0  0  0  0  0  1  0  0  0  0  0  0
  187.5480  176.7670  145.2610 C   0  0  2  0  0  3  0  0  0  0  0  0
  190.5260  177.1130  145.2800 C   0  0  2  0  0  3  0  0  0  0  0  0
  189.6160  177.4480  146.4040 C   0  0  0  0  0  0  0  0  0  0  0  0
  189.6680  177.3250  144.0380 C   0  0  1  0  0  3  0  0  0  0  0  0
  185.7610  178.2080  144.2920 C   0  0  0  0  0  2  0  0  0  0  0  0
  184.0520  179.0140  145.7770 O   0  0  0  0  0  0  0  0  0  0  0  0
  184.1170  177.8510  146.5650 C   0  0  0  0  0  2  0  0  0  0  0  0
  184.2980  178.6190  144.4490 C   0  0  0  0  0  2  0  0  0  0  0  0
  186.0570  177.0380  145.2310 C   0  0  0  0  0  3  0  0  0  0  0  0
  185.5610  177.3540  146.6420 C   0  0  0  0  0  2  0  0  0  0  0  0
  1  3  1  6  0  0  0
  1 23  1  0  0  0  0
  1  6  1  0  0  0  0
  4 14  2  0  0  0  0
  5 13  2  0  0  0  0
  5 28  1  0  0  0  0
  6 20  1  6  0  0  0
  6 25  1  0  0  0  0
  8 28  2  0  0  0  0
  9 12  1  6  0  0  0
  9 19  1  0  0  0  0
  9 16  1  0  0  0  0
 10 11  1  0  0  0  0
 11  7  1  0  0  0  0
 12 10  2  0  0  0  0
 15  8  1  6  0  0  0
 15 17  1  0  0  0  0
 15 27  1  0  0  0  0
 16 20  1  0  0  0  0
 17 14  1  1  0  0  0
 17  2  1  0  0  0  0
 18 26  2  0  0  0  0
 19  7  1  1  0  0  0
 19  1  1  0  0  0  0
 21 10  1  0  0  0  0
 22  2  1  0  0  0  0
 23 18  1  6  0  0  0
 23  8  1  0  0  0  0
 24  4  1  0  0  0  0
 26  5  1  0  0  0  0
 27 25  1  6  0  0  0
 27 22  1  0  0  0  0
 28 24  1  0  0  0  0
 30 35  1  1  0  0  0
 31 33  1  0  0  0  0
 31 30  1  0  0  0  0
 32 36  1  0  0  0  0
 33 30  1  0  0  0  0
 34 14  1  0  0  0  0
 34 35  1  0  0  0  0
 35 29  2  0  0  0  0
 36 31  1  0  0  0  0
 36 34  1  0  0  0  0
 37 40  1  0  0  0  0
 37 41  1  0  0  0  0
 38 39  1  0  0  0  0
 39 42  1  0  0  0  0
 40 38  1  0  0  0  0
 41 33  1  0  0  0  0
 41 42  1  0  0  0  0
M  END
>  <MODEL>
2

>  <REMARK>
 VINA RESULT:      -9.6      2.865      4.240
  Name = 
  2 active torsions:
  status: ('A' for Active; 'I' for Inactive)
    1  A    between atoms: C_17  and  C_29
    2  A    between atoms: C_28  and  C_34
                            x       y       z     vdW  Elec       q    Type
                         _______ _______ _______ _____ _____    ______ ____

>  <TORSDO>
F 2

$$$$
=
 OpenBabel11062420043D

 42 50  0  0  1  0  0  0  0  0999 V2000
  192.0040  172.7730  143.1780 C   0  0  2  0  0  0  0  0  0  0  0  0
  190.3810  177.0450  144.2160 O   0  0  0  0  0  0  0  0  0  0  0  0
  191.8230  172.1730  144.5710 C   0  0  0  0  0  1  0  0  0  0  0  0
  192.9900  176.4380  146.5970 C   0  0  0  0  0  3  0  0  0  0  0  0
  195.2420  173.9990  145.2340 C   0  0  0  0  0  0  0  0  0  0  0  0
  190.7970  173.7000  142.9000 C   0  0  2  0  0  3  0  0  0  0  0  0
  192.5320  172.0540  140.8900 O   0  0  0  0  0  0  0  0  0  0  0  0
  193.3470  174.8520  143.9570 C   0  0  0  0  0  0  0  0  0  0  0  0
  190.6980  170.9020  141.9540 C   0  0  2  0  0  3  0  0  0  0  0  0
  191.8440  169.9220  139.9870 C   0  0  0  0  0  0  0  0  0  0  0  0
  192.9710  170.9030  140.2030 C   0  0  0  0  0  2  0  0  0  0  0  0
  190.8200  169.8830  140.8520 C   0  0  0  0  0  3  0  0  0  0  0  0
  196.0210  174.1130  146.2180 O   0  0  0  0  0  0  0  0  0  0  0  0
  191.7160  176.4170  146.1580 C   0  0  0  0  0  0  0  0  0  0  0  0
  192.3910  175.9910  143.6780 C   0  0  2  0  0  3  0  0  0  0  0  0
  189.6210  171.9110  141.5710 C   0  0  0  0  0  2  0  0  0  0  0  0
  191.3050  176.1160  144.7160 C   0  0  2  0  0  3  0  0  0  0  0  0
  194.5470  172.6800  143.3770 C   0  0  0  0  0  3  0  0  0  0  0  0
  192.0540  171.6180  142.1440 C   0  0  2  0  0  3  0  0  0  0  0  0
  189.4790  172.9600  142.6610 C   0  0  0  0  0  2  0  0  0  0  0  0
  191.9420  168.9810  139.0130 F   0  0  0  0  0  0  0  0  0  0  0  0
  190.4000  176.8970  142.8100 C   0  0  0  0  0  2  0  0  0  0  0  0
  193.3430  173.5680  143.1340 C   0  0  1  0  0  3  0  0  0  0  0  0
  194.2270  176.3070  145.7530 C   0  0  0  0  0  2  0  0  0  0  0  0
  191.0890  174.7300  141.8110 C   0  0  0  0  0  2  0  0  0  0  0  0
  195.3780  172.8860  144.3510 N   0  0  0  0  0  0  0  0  0  0  0  0
  191.6000  176.0600  142.3880 C   0  0  2  0  0  3  0  0  0  0  0  0
  194.2240  175.0260  144.9630 C   0  0  0  0  0  0  0  0  0  0  0  0
  189.8410  174.2130  146.8150 O   0  0  0  0  0  0  0  0  0  0  0  0
  188.2350  175.9530  146.8880 C   0  0  1  0  0  3  0  0  0  0  0  0
  188.4090  177.4390  147.1630 C   0  0  2  0  0  3  0  0  0  0  0  0
  190.1300  178.2930  148.5930 O   0  0  0  0  0  1  0  0  0  0  0  0
  188.1250  176.9530  145.7500 C   0  0  2  0  0  3  0  0  0  0  0  0
  190.6660  176.4030  147.2420 C   0  0  2  0  0  3  0  0  0  0  0  0
  189.6080  175.4030  146.9530 C   0  0  0  0  0  0  0  0  0  0  0  0
  189.9080  177.7210  147.3410 C   0  0  1  0  0  3  0  0  0  0  0  0
  186.5320  178.4240  144.5220 C   0  0  0  0  0  2  0  0  0  0  0  0
  184.4960  179.0410  145.6410 O   0  0  0  0  0  0  0  0  0  0  0  0
  184.4400  177.8130  146.3250 C   0  0  0  0  0  2  0  0  0  0  0  0
  185.0520  178.7760  144.3760 C   0  0  0  0  0  2  0  0  0  0  0  0
  186.6660  177.1820  145.4050 C   0  0  0  0  0  3  0  0  0  0  0  0
  185.8520  177.3540  146.6870 C   0  0  0  0  0  2  0  0  0  0  0  0
  1  3  1  1  0  0  0
  5 13  2  0  0  0  0
  6 25  1  6  0  0  0
  6  1  1  0  0  0  0
  8 28  2  0  0  0  0
  9 12  1  6  0  0  0
  9 19  1  0  0  0  0
 10 11  1  0  0  0  0
 10 12  2  0  0  0  0
 11  7  1  0  0  0  0
 14  4  2  0  0  0  0
 14 34  1  0  0  0  0
 15  8  1  1  0  0  0
 15 17  1  0  0  0  0
 16  9  1  0  0  0  0
 16 20  1  0  0  0  0
 17  2  1  6  0  0  0
 17 14  1  0  0  0  0
 18 26  2  0  0  0  0
 19  7  1  6  0  0  0
 19  1  1  0  0  0  0
 20  6  1  0  0  0  0
 21 10  1  0  0  0  0
 22  2  1  0  0  0  0
 23  1  1  0  0  0  0
 23 18  1  1  0  0  0
 23  8  1  0  0  0  0
 24  4  1  0  0  0  0
 26  5  1  0  0  0  0
 27 25  1  1  0  0  0
 27 22  1  0  0  0  0
 27 15  1  0  0  0  0
 28  5  1  0  0  0  0
 28 24  1  0  0  0  0
 29 35  2  0  0  0  0
 30 35  1  6  0  0  0
 30 31  1  0  0  0  0
 31 36  1  0  0  0  0
 33 30  1  0  0  0  0
 33 31  1  0  0  0  0
 34 36  1  0  0  0  0
 35 34  1  0  0  0  0
 36 32  1  0  0  0  0
 37 41  1  0  0  0  0
 38 39  1  0  0  0  0
 39 42  1  0  0  0  0
 40 37  1  0  0  0  0
 40 38  1  0  0  0  0
 41 33  1  0  0  0  0
 41 42  1  0  0  0  0
M  END
>  <MODEL>
3

>  <REMARK>
 VINA RESULT:      -9.2      1.544      1.856
  Name = 
  2 active torsions:
  status: ('A' for Active; 'I' for Inactive)
    1  A    between atoms: C_17  and  C_29
    2  A    between atoms: C_28  and  C_34
                            x       y       z     vdW  Elec       q    Type
                         _______ _______ _______ _____ _____    ______ ____

>  <TORSDO>
F 2

$$$$
=
 OpenBabel11062420043D

 42 50  0  0  1  0  0  0  0  0999 V2000
  193.0130  174.6480  143.1340 C   0  0  2  0  0  0  0  0  0  0  0  0
  188.4760  175.3180  144.0970 O   0  0  0  0  0  0  0  0  0  0  0  0
  193.0990  175.6540  141.9880 C   0  0  0  0  0  1  0  0  0  0  0  0
  188.5770  174.5210  140.6050 C   0  0  0  0  0  3  0  0  0  0  0  0
  191.5740  172.6650  139.9370 C   0  0  0  0  0  0  0  0  0  0  0  0
  192.0910  175.2470  144.2230 C   0  0  2  0  0  3  0  0  0  0  0  0
  194.4960  173.2750  144.5300 O   0  0  0  0  0  0  0  0  0  0  0  0
  190.9670  173.3550  142.1970 C   0  0  0  0  0  0  0  0  0  0  0  0
  195.0120  175.6310  144.4520 C   0  0  2  0  0  3  0  0  0  0  0  0
  196.7080  173.9820  145.1920 C   0  0  0  0  0  0  0  0  0  0  0  0
  195.8510  172.8910  144.5970 C   0  0  0  0  0  2  0  0  0  0  0  0
  196.3420  175.2640  145.0570 C   0  0  0  0  0  3  0  0  0  0  0  0
  191.2380  172.4810  138.7370 O   0  0  0  0  0  0  0  0  0  0  0  0
  188.5890  175.3570  141.6610 C   0  0  0  0  0  0  0  0  0  0  0  0
  189.8770  173.6890  143.1910 C   0  0  2  0  0  3  0  0  0  0  0  0
  194.0640  176.0480  145.5700 C   0  0  0  0  0  2  0  0  0  0  0  0
  189.2930  175.0630  142.9860 C   0  0  2  0  0  3  0  0  0  0  0  0
  193.3360  172.6790  141.5400 C   0  0  0  0  0  3  0  0  0  0  0  0
  194.4400  174.4120  143.6960 C   0  0  2  0  0  3  0  0  0  0  0  0
  192.7080  176.4170  144.9930 C   0  0  0  0  0  2  0  0  0  0  0  0
  197.9200  173.6770  145.7230 F   0  0  0  0  0  0  0  0  0  0  0  0
  189.0760  174.6450  145.1860 C   0  0  0  0  0  2  0  0  0  0  0  0
  192.4400  173.3040  142.5920 C   0  0  1  0  0  3  0  0  0  0  0  0
  189.1210  173.1210  140.5680 C   0  0  0  0  0  2  0  0  0  0  0  0
  191.5150  174.1810  145.1520 C   0  0  0  0  0  2  0  0  0  0  0  0
  192.9230  172.4230  140.3380 N   0  0  0  0  0  0  0  0  0  0  0  0
  190.1400  173.6790  144.6830 C   0  0  2  0  0  3  0  0  0  0  0  0
  190.5800  173.0850  140.9370 C   0  0  0  0  0  0  0  0  0  0  0  0
  189.9000  177.8890  142.4840 O   0  0  0  0  0  0  0  0  0  0  0  0
  187.6990  178.5260  143.0880 C   0  0  1  0  0  3  0  0  0  0  0  0
  186.3580  178.0410  142.5610 C   0  0  2  0  0  3  0  0  0  0  0  0
  186.0530  177.2830  140.3100 O   0  0  0  0  0  1  0  0  0  0  0  0
  186.8360  177.6120  143.9400 C   0  0  2  0  0  3  0  0  0  0  0  0
  188.1250  176.7630  141.3700 C   0  0  2  0  0  3  0  0  0  0  0  0
  188.6990  177.7310  142.3380 C   0  0  0  0  0  0  0  0  0  0  0  0
  186.6190  176.9290  141.5340 C   0  0  1  0  0  3  0  0  0  0  0  0
  186.6730  178.0430  146.3890 C   0  0  0  0  0  2  0  0  0  0  0  0
  184.4750  178.2280  147.3440 O   0  0  0  0  0  0  0  0  0  0  0  0
  183.9560  178.7950  146.1660 C   0  0  0  0  0  2  0  0  0  0  0  0
  185.8000  178.6870  147.4650 C   0  0  0  0  0  2  0  0  0  0  0  0
  186.1300  178.4220  145.0100 C   0  0  0  0  0  3  0  0  0  0  0  0
  184.6250  178.1630  144.9450 C   0  0  0  0  0  2  0  0  0  0  0  0
  1  3  1  6  0  0  0
  1 19  1  0  0  0  0
  1  6  1  0  0  0  0
  2 22  1  0  0  0  0
  4 14  2  0  0  0  0
  5 26  1  0  0  0  0
  5 28  1  0  0  0  0
  6 20  1  1  0  0  0
  6 25  1  0  0  0  0
  7 11  1  0  0  0  0
  8 23  1  0  0  0  0
  9 12  1  1  0  0  0
  9 16  1  0  0  0  0
 10 21  1  0  0  0  0
 11 10  1  0  0  0  0
 12 10  2  0  0  0  0
 13  5  2  0  0  0  0
 15  8  1  6  0  0  0
 15 27  1  0  0  0  0
 17 14  1  6  0  0  0
 17 15  1  0  0  0  0
 17  2  1  0  0  0  0
 19  9  1  0  0  0  0
 19  7  1  1  0  0  0
 20 16  1  0  0  0  0
 23 18  1  6  0  0  0
 23  1  1  0  0  0  0
 24  4  1  0  0  0  0
 24 28  1  0  0  0  0
 26 18  2  0  0  0  0
 27 25  1  6  0  0  0
 27 22  1  0  0  0  0
 28  8  2  0  0  0  0
 30 35  1  6  0  0  0
 30 33  1  0  0  0  0
 31 30  1  0  0  0  0
 31 33  1  0  0  0  0
 32 36  1  0  0  0  0
 33 41  1  0  0  0  0
 34 36  1  0  0  0  0
 34 14  1  0  0  0  0
 34 35  1  0  0  0  0
 35 29  2  0  0  0  0
 36 31  1  0  0  0  0
 37 40  1  0  0  0  0
 38 40  1  0  0  0  0
 39 38  1  0  0  0  0
 41 37  1  0  0  0  0
 42 41  1  0  0  0  0
 42 39  1  0  0  0  0
M  END
>  <MODEL>
4

>  <REMARK>
 VINA RESULT:      -9.1      2.753      5.607
  Name = 
  2 active torsions:
  status: ('A' for Active; 'I' for Inactive)
    1  A    between atoms: C_17  and  C_29
    2  A    between atoms: C_28  and  C_34
                            x       y       z     vdW  Elec       q    Type
                         _______ _______ _______ _____ _____    ______ ____

>  <TORSDO>
F 2

$$$$
=
 OpenBabel11062420043D

 42 50  0  0  1  0  0  0  0  0999 V2000
  193.1990  172.9890  141.1670 C   0  0  2  0  0  0  0  0  0  0  0  0
  193.5470  173.4300  145.8200 O   0  0  0  0  0  0  0  0  0  0  0  0
  192.5080  174.3280  140.9160 C   0  0  0  0  0  1  0  0  0  0  0  0
  190.0670  173.8940  145.0990 C   0  0  0  0  0  3  0  0  0  0  0  0
  189.3170  172.2900  141.9790 C   0  0  0  0  0  0  0  0  0  0  0  0
  194.2540  173.2010  142.2790 C   0  0  2  0  0  3  0  0  0  0  0  0
  194.2610  171.1690  139.9050 O   0  0  0  0  0  0  0  0  0  0  0  0
  191.5360  172.1710  142.9830 C   0  0  0  0  0  0  0  0  0  0  0  0
  195.0970  173.3870  139.4530 C   0  0  2  0  0  3  0  0  0  0  0  0
  195.4940  171.5290  137.8600 C   0  0  0  0  0  0  0  0  0  0  0  0
  194.4200  170.7420  138.5710 C   0  0  0  0  0  2  0  0  0  0  0  0
  195.7540  172.7900  138.2360 C   0  0  0  0  0  3  0  0  0  0  0  0
  188.0890  172.5460  142.0990 O   0  0  0  0  0  0  0  0  0  0  0  0
  191.3340  174.3100  145.2930 C   0  0  0  0  0  0  0  0  0  0  0  0
  192.3830  172.1720  144.2370 C   0  0  2  0  0  3  0  0  0  0  0  0
  196.1110  173.4190  140.5900 C   0  0  0  0  0  2  0  0  0  0  0  0
  192.5730  173.5500  144.8180 C   0  0  2  0  0  3  0  0  0  0  0  0
  191.1000  171.6890  140.5190 C   0  0  0  0  0  3  0  0  0  0  0  0
  193.8780  172.5270  139.8510 C   0  0  2  0  0  3  0  0  0  0  0  0
  195.4760  174.0100  141.8380 C   0  0  0  0  0  2  0  0  0  0  0  0
  196.0850  171.0200  136.7490 F   0  0  0  0  0  0  0  0  0  0  0  0
  194.4180  172.4010  145.3960 C   0  0  0  0  0  2  0  0  0  0  0  0
  192.1340  171.9370  141.5990 C   0  0  1  0  0  3  0  0  0  0  0  0
  189.6380  172.5770  144.5160 C   0  0  0  0  0  2  0  0  0  0  0  0
  194.6420  171.8980  142.9740 C   0  0  0  0  0  2  0  0  0  0  0  0
  189.8320  171.8800  140.7120 N   0  0  0  0  0  0  0  0  0  0  0  0
  193.8000  171.6360  144.2330 C   0  0  2  0  0  3  0  0  0  0  0  0
  190.2150  172.3680  143.1420 C   0  0  0  0  0  0  0  0  0  0  0  0
  190.8580  175.3970  148.0130 O   0  0  0  0  0  0  0  0  0  0  0  0
  189.6850  177.0920  146.8440 C   0  0  1  0  0  3  0  0  0  0  0  0
  189.8440  177.5890  145.4160 C   0  0  2  0  0  3  0  0  0  0  0  0
  191.9440  177.5550  144.2640 O   0  0  0  0  0  1  0  0  0  0  0  0
  188.6470  176.7330  145.7970 C   0  0  2  0  0  3  0  0  0  0  0  0
  191.4760  175.7440  145.7420 C   0  0  2  0  0  3  0  0  0  0  0  0
  190.6820  176.0040  146.9690 C   0  0  0  0  0  0  0  0  0  0  0  0
  190.9170  176.7330  144.7260 C   0  0  1  0  0  3  0  0  0  0  0  0
  186.2760  176.7790  146.5610 C   0  0  0  0  0  2  0  0  0  0  0  0
  184.6810  177.9310  145.1800 O   0  0  0  0  0  0  0  0  0  0  0  0
  185.6430  178.8690  144.7640 C   0  0  0  0  0  2  0  0  0  0  0  0
  184.9870  177.5990  146.5130 C   0  0  0  0  0  2  0  0  0  0  0  0
  187.4180  177.6050  145.9690 C   0  0  0  0  0  3  0  0  0  0  0  0
  187.0040  178.1890  144.6190 C   0  0  0  0  0  2  0  0  0  0  0  0
  1  3  1  6  0  0  0
  1 23  1  0  0  0  0
  1  6  1  0  0  0  0
  4 14  2  0  0  0  0
  5 13  2  0  0  0  0
  5 28  1  0  0  0  0
  6 20  1  6  0  0  0
  6 25  1  0  0  0  0
  8 28  2  0  0  0  0
  9 12  1  6  0  0  0
  9 19  1  0  0  0  0
  9 16  1  0  0  0  0
 10 12  2  0  0  0  0
 10 11  1  0  0  0  0
 11  7  1  0  0  0  0
 14 34  1  0  0  0  0
 15  8  1  6  0  0  0
 15 17  1  0  0  0  0
 16 20  1  0  0  0  0
 17 14  1  1  0  0  0
 17  2  1  0  0  0  0
 18 26  2  0  0  0  0
 19  7  1  1  0  0  0
 19  1  1  0  0  0  0
 21 10  1  0  0  0  0
 22  2  1  0  0  0  0
 23 18  1  6  0  0  0
 23  8  1  0  0  0  0
 24  4  1  0  0  0  0
 26  5  1  0  0  0  0
 27 25  1  6  0  0  0
 27 15  1  0  0  0  0
 27 22  1  0  0  0  0
 28 24  1  0  0  0  0
 30 35  1  6  0  0  0
 31 33  1  0  0  0  0
 31 30  1  0  0  0  0
 32 36  1  0  0  0  0
 33 41  1  0  0  0  0
 33 30  1  0  0  0  0
 34 35  1  0  0  0  0
 35 29  2  0  0  0  0
 36 31  1  0  0  0  0
 36 34  1  0  0  0  0
 38 40  1  0  0  0  0
 39 38  1  0  0  0  0
 40 37  1  0  0  0  0
 41 37  1  0  0  0  0
 42 39  1  0  0  0  0
 42 41  1  0  0  0  0
M  END
>  <MODEL>
5

>  <REMARK>
 VINA RESULT:      -9.0      2.568      4.350
  Name = 
  2 active torsions:
  status: ('A' for Active; 'I' for Inactive)
    1  A    between atoms: C_17  and  C_29
    2  A    between atoms: C_28  and  C_34
                            x       y       z     vdW  Elec       q    Type
                         _______ _______ _______ _____ _____    ______ ____

>  <TORSDO>
F 2

$$$$
=
 OpenBabel11062420043D

 42 50  0  0  1  0  0  0  0  0999 V2000
  189.1330  176.3460  143.8320 C   0  0  2  0  0  0  0  0  0  0  0  0
  191.8870  172.5720  144.2060 O   0  0  0  0  0  0  0  0  0  0  0  0
  190.2570  177.3660  143.6580 C   0  0  0  0  0  1  0  0  0  0  0  0
  193.0720  174.8410  146.7160 C   0  0  0  0  0  3  0  0  0  0  0  0
  190.4130  177.0900  147.5780 C   0  0  0  0  0  0  0  0  0  0  0  0
  189.5310  175.0670  143.0580 C   0  0  2  0  0  3  0  0  0  0  0  0
  186.6870  176.2150  143.6590 O   0  0  0  0  0  0  0  0  0  0  0  0
  190.0890  175.2670  145.9900 C   0  0  0  0  0  0  0  0  0  0  0  0
  187.8310  177.0790  141.7180 C   0  0  2  0  0  3  0  0  0  0  0  0
  185.4100  177.4890  142.0540 C   0  0  0  0  0  0  0  0  0  0  0  0
  185.5780  177.0700  143.4940 C   0  0  0  0  0  2  0  0  0  0  0  0
  186.4820  177.5580  141.2510 C   0  0  0  0  0  3  0  0  0  0  0  0
  191.1050  177.6200  148.4870 O   0  0  0  0  0  0  0  0  0  0  0  0
  193.0470  174.2960  145.4830 C   0  0  0  0  0  0  0  0  0  0  0  0
  190.4760  173.8800  145.5260 C   0  0  2  0  0  3  0  0  0  0  0  0
  188.1200  175.7270  141.0770 C   0  0  0  0  0  2  0  0  0  0  0  0
  191.7740  173.8560  144.7600 C   0  0  2  0  0  3  0  0  0  0  0  0
  188.5300  177.2790  146.1310 C   0  0  0  0  0  3  0  0  0  0  0  0
  187.8250  176.9480  143.2570 C   0  0  2  0  0  3  0  0  0  0  0  0
  189.4740  175.2120  141.5360 C   0  0  0  0  0  2  0  0  0  0  0  0
  184.2080  177.9440  141.6160 F   0  0  0  0  0  0  0  0  0  0  0  0
  190.5660  172.1450  143.9390 C   0  0  0  0  0  2  0  0  0  0  0  0
  188.9450  176.0470  145.3490 C   0  0  1  0  0  3  0  0  0  0  0  0
  191.9030  174.9930  147.6480 C   0  0  0  0  0  2  0  0  0  0  0  0
  188.7830  173.8300  143.5510 C   0  0  0  0  0  2  0  0  0  0  0  0
  189.2280  177.7420  147.1220 N   0  0  0  0  0  0  0  0  0  0  0  0
  189.5680  173.0650  144.6290 C   0  0  2  0  0  3  0  0  0  0  0  0
  190.7900  175.7840  147.0150 C   0  0  0  0  0  0  0  0  0  0  0  0
  194.2470  176.7790  144.3880 O   0  0  0  0  0  0  0  0  0  0  0  0
  194.5480  175.4630  142.4410 C   0  0  1  0  0  3  0  0  0  0  0  0
  194.6760  173.9550  142.2860 C   0  0  2  0  0  3  0  0  0  0  0  0
  195.6350  172.5600  143.9810 O   0  0  0  0  0  1  0  0  0  0  0  0
  193.3960  174.6600  141.8640 C   0  0  2  0  0  3  0  0  0  0  0  0
  194.3330  174.4230  144.7020 C   0  0  2  0  0  3  0  0  0  0  0  0
  194.3500  175.6680  143.8940 C   0  0  0  0  0  0  0  0  0  0  0  0
  194.5030  173.3140  143.6710 C   0  0  1  0  0  3  0  0  0  0  0  0
  192.5460  173.6830  139.7350 C   0  0  0  0  0  2  0  0  0  0  0  0
  194.0690  173.5580  137.8800 O   0  0  0  0  0  0  0  0  0  0  0  0
  194.7300  174.7350  138.2780 C   0  0  0  0  0  2  0  0  0  0  0  0
  192.7130  173.7200  138.2160 C   0  0  0  0  0  2  0  0  0  0  0  0
  193.3610  174.8180  140.3570 C   0  0  0  0  0  3  0  0  0  0  0  0
  194.7860  174.8100  139.8030 C   0  0  0  0  0  2  0  0  0  0  0  0
  1  3  1  6  0  0  0
  1 23  1  0  0  0  0
  4 24  1  0  0  0  0
  5 13  2  0  0  0  0
  6 20  1  6  0  0  0
  6 25  1  0  0  0  0
  6  1  1  0  0  0  0
  8 28  2  0  0  0  0
  9 16  1  6  0  0  0
  9 19  1  0  0  0  0
 10 11  1  0  0  0  0
 11  7  1  0  0  0  0
 12  9  1  0  0  0  0
 12 10  2  0  0  0  0
 14  4  2  0  0  0  0
 15  8  1  6  0  0  0
 16 20  1  0  0  0  0
 17  2  1  1  0  0  0
 17 14  1  0  0  0  0
 17 15  1  0  0  0  0
 18 26  2  0  0  0  0
 19  7  1  6  0  0  0
 19  1  1  0  0  0  0
 21 10  1  0  0  0  0
 22  2  1  0  0  0  0
 22 27  1  0  0  0  0
 23  8  1  0  0  0  0
 23 18  1  1  0  0  0
 26  5  1  0  0  0  0
 27 25  1  6  0  0  0
 27 15  1  0  0  0  0
 28  5  1  0  0  0  0
 28 24  1  0  0  0  0
 30 35  1  1  0  0  0
 31 30  1  0  0  0  0
 31 36  1  0  0  0  0
 33 31  1  0  0  0  0
 33 30  1  0  0  0  0
 34 14  1  0  0  0  0
 35 29  2  0  0  0  0
 35 34  1  0  0  0  0
 36 32  1  0  0  0  0
 36 34  1  0  0  0  0
 37 41  1  0  0  0  0
 38 40  1  0  0  0  0
 38 39  1  0  0  0  0
 39 42  1  0  0  0  0
 40 37  1  0  0  0  0
 41 33  1  0  0  0  0
 42 41  1  0  0  0  0
M  END
>  <MODEL>
6

>  <REMARK>
 VINA RESULT:      -8.8      2.899      6.769
  Name = 
  2 active torsions:
  status: ('A' for Active; 'I' for Inactive)
    1  A    between atoms: C_17  and  C_29
    2  A    between atoms: C_28  and  C_34
                            x       y       z     vdW  Elec       q    Type
                         _______ _______ _______ _____ _____    ______ ____

>  <TORSDO>
F 2

$$$$
=
 OpenBabel11062420043D

 42 50  0  0  1  0  0  0  0  0999 V2000
  193.0180  173.0140  140.3600 C   0  0  2  0  0  0  0  0  0  0  0  0
  191.3530  172.3600  144.6920 O   0  0  0  0  0  0  0  0  0  0  0  0
  192.9700  174.5410  140.3830 C   0  0  0  0  0  1  0  0  0  0  0  0
  188.9100  174.4100  143.0570 C   0  0  0  0  0  3  0  0  0  0  0  0
  189.1860  173.9190  139.5130 C   0  0  0  0  0  0  0  0  0  0  0  0
  193.4670  172.5330  141.7610 C   0  0  2  0  0  3  0  0  0  0  0  0
  193.9070  171.1940  138.9720 O   0  0  0  0  0  0  0  0  0  0  0  0
  190.5540  172.6620  141.0940 C   0  0  0  0  0  0  0  0  0  0  0  0
  195.5020  172.8750  139.6450 C   0  0  2  0  0  3  0  0  0  0  0  0
  195.9710  171.3720  137.7310 C   0  0  0  0  0  0  0  0  0  0  0  0
  194.5070  171.0050  137.7100 C   0  0  0  0  0  2  0  0  0  0  0  0
  196.4130  172.2990  138.5930 C   0  0  0  0  0  3  0  0  0  0  0  0
  188.1840  174.6510  139.2960 O   0  0  0  0  0  0  0  0  0  0  0  0
  190.0130  174.1920  143.8000 C   0  0  0  0  0  0  0  0  0  0  0  0
  190.6990  172.0580  142.4740 C   0  0  2  0  0  3  0  0  0  0  0  0
  195.8490  172.2470  140.9900 C   0  0  0  0  0  2  0  0  0  0  0  0
  191.0270  173.0790  143.5330 C   0  0  2  0  0  3  0  0  0  0  0  0
  191.1470  172.8990  138.6270 C   0  0  0  0  0  3  0  0  0  0  0  0
  194.0340  172.5660  139.2770 C   0  0  2  0  0  3  0  0  0  0  0  0
  194.9410  172.8030  142.0740 C   0  0  0  0  0  2  0  0  0  0  0  0
  196.8060  170.8820  136.7800 F   0  0  0  0  0  0  0  0  0  0  0  0
  191.9520  171.1580  144.2500 C   0  0  0  0  0  2  0  0  0  0  0  0
  191.6040  172.4640  140.0060 C   0  0  1  0  0  3  0  0  0  0  0  0
  188.4030  173.5460  141.9370 C   0  0  0  0  0  2  0  0  0  0  0  0
  193.0720  171.0840  142.0350 C   0  0  0  0  0  2  0  0  0  0  0  0
  190.0590  173.5780  138.4370 N   0  0  0  0  0  0  0  0  0  0  0  0
  191.7200  170.9740  142.7570 C   0  0  2  0  0  3  0  0  0  0  0  0
  189.4390  173.3760  140.8580 C   0  0  0  0  0  0  0  0  0  0  0  0
  189.4240  174.3470  146.7040 O   0  0  0  0  0  0  0  0  0  0  0  0
  188.7630  176.5630  146.1840 C   0  0  1  0  0  3  0  0  0  0  0  0
  189.1950  177.4740  145.0450 C   0  0  2  0  0  3  0  0  0  0  0  0
  191.3740  177.3610  144.0570 O   0  0  0  0  0  1  0  0  0  0  0  0
  187.8140  176.8370  145.0320 C   0  0  2  0  0  3  0  0  0  0  0  0
  190.3770  175.3080  144.7480 C   0  0  2  0  0  3  0  0  0  0  0  0
  189.5030  175.3020  145.9480 C   0  0  0  0  0  0  0  0  0  0  0  0
  190.1550  176.6880  144.1400 C   0  0  1  0  0  3  0  0  0  0  0  0
  185.5900  177.1350  146.1150 C   0  0  0  0  0  2  0  0  0  0  0  0
  184.0430  178.6590  145.0840 O   0  0  0  0  0  0  0  0  0  0  0  0
  185.0850  179.4900  144.6330 C   0  0  0  0  0  2  0  0  0  0  0  0
  184.4510  178.1330  146.3240 C   0  0  0  0  0  2  0  0  0  0  0  0
  186.7690  177.8510  145.4550 C   0  0  0  0  0  3  0  0  0  0  0  0
  186.2930  178.6420  144.2370 C   0  0  0  0  0  2  0  0  0  0  0  0
  1  3  1  1  0  0  0
  1  6  1  0  0  0  0
  4 14  2  0  0  0  0
  5 28  1  0  0  0  0
  6 25  1  6  0  0  0
  6 20  1  0  0  0  0
  9 12  1  6  0  0  0
  9 16  1  0  0  0  0
 10 12  2  0  0  0  0
 11 10  1  0  0  0  0
 11  7  1  0  0  0  0
 13  5  2  0  0  0  0
 14 34  1  0  0  0  0
 15  8  1  6  0  0  0
 15 27  1  0  0  0  0
 15 17  1  0  0  0  0
 16 20  1  0  0  0  0
 17 14  1  1  0  0  0
 17  2  1  0  0  0  0
 19  7  1  1  0  0  0
 19  9  1  0  0  0  0
 19  1  1  0  0  0  0
 21 10  1  0  0  0  0
 22  2  1  0  0  0  0
 23 18  1  6  0  0  0
 23  1  1  0  0  0  0
 23  8  1  0  0  0  0
 24  4  1  0  0  0  0
 26 18  2  0  0  0  0
 26  5  1  0  0  0  0
 27 25  1  6  0  0  0
 27 22  1  0  0  0  0
 28  8  2  0  0  0  0
 28 24  1  0  0  0  0
 30 35  1  6  0  0  0
 31 30  1  0  0  0  0
 32 36  1  0  0  0  0
 33 31  1  0  0  0  0
 33 41  1  0  0  0  0
 33 30  1  0  0  0  0
 34 35  1  0  0  0  0
 35 29  2  0  0  0  0
 36 34  1  0  0  0  0
 36 31  1  0  0  0  0
 37 40  1  0  0  0  0
 38 40  1  0  0  0  0
 39 38  1  0  0  0  0
 41 37  1  0  0  0  0
 42 39  1  0  0  0  0
 42 41  1  0  0  0  0
M  END
>  <MODEL>
7

>  <REMARK>
 VINA RESULT:      -8.7      2.724      4.895
  Name = 
  2 active torsions:
  status: ('A' for Active; 'I' for Inactive)
    1  A    between atoms: C_17  and  C_29
    2  A    between atoms: C_28  and  C_34
                            x       y       z     vdW  Elec       q    Type
                         _______ _______ _______ _____ _____    ______ ____

>  <TORSDO>
F 2

$$$$
=
 OpenBabel11062420043D

 42 50  0  0  1  0  0  0  0  0999 V2000
  190.2000  175.9170  144.4050 C   0  0  2  0  0  0  0  0  0  0  0  0
  191.3900  171.7820  142.5470 O   0  0  0  0  0  0  0  0  0  0  0  0
  191.1790  176.7620  143.5920 C   0  0  0  0  0  1  0  0  0  0  0  0
  194.4630  173.1790  143.7520 C   0  0  0  0  0  3  0  0  0  0  0  0
  193.7110  175.5440  146.3430 C   0  0  0  0  0  0  0  0  0  0  0  0
  189.6440  174.8110  143.4760 C   0  0  2  0  0  3  0  0  0  0  0  0
  188.2910  176.2110  145.9210 O   0  0  0  0  0  0  0  0  0  0  0  0
  191.9670  174.2220  145.2650 C   0  0  0  0  0  0  0  0  0  0  0  0
  188.1170  177.3220  143.7860 C   0  0  2  0  0  3  0  0  0  0  0  0
  186.6970  178.0120  145.6970 C   0  0  0  0  0  0  0  0  0  0  0  0
  187.6200  177.2420  146.6110 C   0  0  0  0  0  2  0  0  0  0  0  0
  186.9770  178.1020  144.3890 C   0  0  0  0  0  3  0  0  0  0  0  0
  194.9340  175.7300  146.5810 O   0  0  0  0  0  0  0  0  0  0  0  0
  193.5120  172.9530  142.8250 C   0  0  0  0  0  0  0  0  0  0  0  0
  191.5720  172.9420  144.5630 C   0  0  2  0  0  3  0  0  0  0  0  0
  187.5460  176.1330  143.0230 C   0  0  0  0  0  2  0  0  0  0  0  0
  192.0130  172.9000  143.1230 C   0  0  2  0  0  3  0  0  0  0  0  0
  191.4840  176.3600  146.5670 C   0  0  0  0  0  3  0  0  0  0  0  0
  189.0560  176.8330  144.9110 C   0  0  2  0  0  3  0  0  0  0  0  0
  188.6730  175.3200  142.4080 C   0  0  0  0  0  2  0  0  0  0  0  0
  185.6770  178.7380  146.2210 F   0  0  0  0  0  0  0  0  0  0  0  0
  190.1510  171.6410  143.2120 C   0  0  0  0  0  2  0  0  0  0  0  0
  190.9490  175.3000  145.6240 C   0  0  1  0  0  3  0  0  0  0  0  0
  194.2560  173.2850  145.2370 C   0  0  0  0  0  2  0  0  0  0  0  0
  189.0800  173.6240  144.2530 C   0  0  0  0  0  2  0  0  0  0  0  0
  192.7450  176.4610  146.8560 N   0  0  0  0  0  0  0  0  0  0  0  0
  190.1220  172.5140  144.4590 C   0  0  2  0  0  3  0  0  0  0  0  0
  193.2670  174.3660  145.5810 C   0  0  0  0  0  0  0  0  0  0  0  0
  193.4610  175.3640  141.0960 O   0  0  0  0  0  0  0  0  0  0  0  0
  192.5820  173.8670  139.4830 C   0  0  1  0  0  3  0  0  0  0  0  0
  192.7380  172.3590  139.3550 C   0  0  2  0  0  3  0  0  0  0  0  0
  194.7000  171.1990  140.0910 O   0  0  0  0  0  1  0  0  0  0  0  0
  191.4200  172.9520  139.8290 C   0  0  2  0  0  3  0  0  0  0  0  0
  193.9760  173.0600  141.3930 C   0  0  2  0  0  3  0  0  0  0  0  0
  193.3410  174.2130  140.7070 C   0  0  0  0  0  0  0  0  0  0  0  0
  193.5610  171.8590  140.5510 C   0  0  1  0  0  3  0  0  0  0  0  0
  191.0520  173.5230  137.4320 C   0  0  0  0  0  2  0  0  0  0  0  0
  188.9980  174.6290  136.8520 O   0  0  0  0  0  0  0  0  0  0  0  0
  188.2910  173.9590  137.8680 C   0  0  0  0  0  2  0  0  0  0  0  0
  189.9690  173.7310  136.3730 C   0  0  0  0  0  2  0  0  0  0  0  0
  190.4120  172.9500  138.6970 C   0  0  0  0  0  3  0  0  0  0  0  0
  189.1890  173.7760  139.0920 C   0  0  0  0  0  2  0  0  0  0  0  0
  1  3  1  6  0  0  0
  1 19  1  0  0  0  0
  1 23  1  0  0  0  0
  2 22  1  0  0  0  0
  4 24  1  0  0  0  0
  5 13  2  0  0  0  0
  5 26  1  0  0  0  0
  6 20  1  1  0  0  0
  6 25  1  0  0  0  0
  6  1  1  0  0  0  0
  7 11  1  0  0  0  0
  8 28  2  0  0  0  0
  8 23  1  0  0  0  0
  9 16  1  1  0  0  0
  9 12  1  0  0  0  0
  9 19  1  0  0  0  0
 10 21  1  0  0  0  0
 10 11  1  0  0  0  0
 12 10  2  0  0  0  0
 14 17  1  0  0  0  0
 14  4  2  0  0  0  0
 15  8  1  6  0  0  0
 17  2  1  1  0  0  0
 17 15  1  0  0  0  0
 18 26  2  0  0  0  0
 19  7  1  1  0  0  0
 20 16  1  0  0  0  0
 23 18  1  6  0  0  0
 24 28  1  0  0  0  0
 25 27  1  0  0  0  0
 27 22  1  6  0  0  0
 27 15  1  0  0  0  0
 28  5  1  0  0  0  0
 30 33  1  0  0  0  0
 30 35  1  1  0  0  0
 31 30  1  0  0  0  0
 31 33  1  0  0  0  0
 31 36  1  0  0  0  0
 32 36  1  0  0  0  0
 34 14  1  0  0  0  0
 35 29  2  0  0  0  0
 35 34  1  0  0  0  0
 36 34  1  0  0  0  0
 37 41  1  0  0  0  0
 38 39  1  0  0  0  0
 39 42  1  0  0  0  0
 40 38  1  0  0  0  0
 40 37  1  0  0  0  0
 41 42  1  0  0  0  0
 41 33  1  0  0  0  0
M  END
>  <MODEL>
8

>  <REMARK>
 VINA RESULT:      -8.6      2.834      6.989
  Name = 
  2 active torsions:
  status: ('A' for Active; 'I' for Inactive)
    1  A    between atoms: C_17  and  C_29
    2  A    between atoms: C_28  and  C_34
                            x       y       z     vdW  Elec       q    Type
                         _______ _______ _______ _____ _____    ______ ____

>  <TORSDO>
F 2

$$$$
=
 OpenBabel11062420043D

 42 50  0  0  1  0  0  0  0  0999 V2000
  191.2350  174.0050  141.9680 C   0  0  2  0  0  0  0  0  0  0  0  0
  193.9720  172.2180  145.3270 O   0  0  0  0  0  0  0  0  0  0  0  0
  191.9090  175.3740  141.9040 C   0  0  0  0  0  1  0  0  0  0  0  0
  192.6760  175.2630  146.7050 C   0  0  0  0  0  3  0  0  0  0  0  0
  189.6140  176.0730  145.0200 C   0  0  0  0  0  0  0  0  0  0  0  0
  192.3410  172.9430  142.1800 C   0  0  2  0  0  3  0  0  0  0  0  0
  189.5880  172.6730  140.7250 O   0  0  0  0  0  0  0  0  0  0  0  0
  190.8440  174.0230  144.5340 C   0  0  0  0  0  0  0  0  0  0  0  0
  191.4330  173.5340  139.4310 C   0  0  2  0  0  3  0  0  0  0  0  0
  189.3450  172.7850  138.3250 C   0  0  0  0  0  0  0  0  0  0  0  0
  188.6630  172.8250  139.6720 C   0  0  0  0  0  2  0  0  0  0  0  0
  190.6190  173.1850  138.2120 C   0  0  0  0  0  3  0  0  0  0  0  0
  189.4110  177.0560  145.7810 O   0  0  0  0  0  0  0  0  0  0  0  0
  193.5760  174.5200  146.0310 C   0  0  0  0  0  0  0  0  0  0  0  0
  191.7730  172.9330  145.0210 C   0  0  2  0  0  3  0  0  0  0  0  0
  192.3930  172.3870  139.7230 C   0  0  0  0  0  2  0  0  0  0  0  0
  193.2130  173.3730  145.0860 C   0  0  2  0  0  3  0  0  0  0  0  0
  189.1030  175.0060  142.9520 C   0  0  0  0  0  3  0  0  0  0  0  0
  190.4880  173.7560  140.6320 C   0  0  2  0  0  3  0  0  0  0  0  0
  193.2250  172.7050  140.9540 C   0  0  0  0  0  2  0  0  0  0  0  0
  188.6270  172.4940  137.2110 F   0  0  0  0  0  0  0  0  0  0  0  0
  193.2830  171.1590  144.6930 C   0  0  0  0  0  2  0  0  0  0  0  0
  190.2140  173.9920  143.1450 C   0  0  1  0  0  3  0  0  0  0  0  0
  191.1930  175.0310  146.7650 C   0  0  0  0  0  2  0  0  0  0  0  0
  191.7960  171.6410  142.7630 C   0  0  0  0  0  2  0  0  0  0  0  0
  188.8700  175.9530  143.8080 N   0  0  0  0  0  0  0  0  0  0  0  0
  191.8830  171.6070  144.2970 C   0  0  2  0  0  3  0  0  0  0  0  0
  190.5780  175.0250  145.3910 C   0  0  0  0  0  0  0  0  0  0  0  0
  194.4090  177.2560  145.2430 O   0  0  0  0  0  0  0  0  0  0  0  0
  196.0870  176.1110  144.0240 C   0  0  1  0  0  3  0  0  0  0  0  0
  196.7030  174.7400  144.2530 C   0  0  2  0  0  3  0  0  0  0  0  0
  196.9300  173.7740  146.4330 O   0  0  0  0  0  1  0  0  0  0  0  0
  195.7250  174.9550  143.1080 C   0  0  2  0  0  3  0  0  0  0  0  0
  194.9780  175.0770  146.0090 C   0  0  2  0  0  3  0  0  0  0  0  0
  195.0780  176.2460  145.0990 C   0  0  0  0  0  0  0  0  0  0  0  0
  195.9930  174.0880  145.4480 C   0  0  1  0  0  3  0  0  0  0  0  0
  195.5060  175.4510  140.6760 C   0  0  0  0  0  2  0  0  0  0  0  0
  196.6860  174.0290  139.1380 O   0  0  0  0  0  0  0  0  0  0  0  0
  197.7350  173.8250  140.0530 C   0  0  0  0  0  2  0  0  0  0  0  0
  196.2280  175.3450  139.3330 C   0  0  0  0  0  2  0  0  0  0  0  0
  196.4770  175.0810  141.7980 C   0  0  0  0  0  3  0  0  0  0  0  0
  197.1790  173.7620  141.4760 C   0  0  0  0  0  2  0  0  0  0  0  0
  1  3  1  6  0  0  0
  1  6  1  0  0  0  0
  1 23  1  0  0  0  0
  4 24  1  0  0  0  0
  5 28  1  0  0  0  0
  5 13  2  0  0  0  0
  6 20  1  6  0  0  0
  6 25  1  0  0  0  0
  8 28  2  0  0  0  0
  9 12  1  6  0  0  0
  9 16  1  0  0  0  0
  9 19  1  0  0  0  0
 10 11  1  0  0  0  0
 11  7  1  0  0  0  0
 12 10  2  0  0  0  0
 14  4  2  0  0  0  0
 15  8  1  6  0  0  0
 15 17  1  0  0  0  0
 16 20  1  0  0  0  0
 17  2  1  1  0  0  0
 17 14  1  0  0  0  0
 18 26  2  0  0  0  0
 19  7  1  1  0  0  0
 19  1  1  0  0  0  0
 21 10  1  0  0  0  0
 22  2  1  0  0  0  0
 23 18  1  6  0  0  0
 23  8  1  0  0  0  0
 26  5  1  0  0  0  0
 27 25  1  6  0  0  0
 27 22  1  0  0  0  0
 27 15  1  0  0  0  0
 28 24  1  0  0  0  0
 30 31  1  0  0  0  0
 30 35  1  1  0  0  0
 31 36  1  0  0  0  0
 33 30  1  0  0  0  0
 33 31  1  0  0  0  0
 34 14  1  0  0  0  0
 35 29  2  0  0  0  0
 35 34  1  0  0  0  0
 36 34  1  0  0  0  0
 36 32  1  0  0  0  0
 37 41  1  0  0  0  0
 38 40  1  0  0  0  0
 38 39  1  0  0  0  0
 39 42  1  0  0  0  0
 40 37  1  0  0  0  0
 41 33  1  0  0  0  0
 42 41  1  0  0  0  0
M  END
>  <MODEL>
9

>  <REMARK>
 VINA RESULT:      -8.6      2.811      6.682
  Name = 
  2 active torsions:
  status: ('A' for Active; 'I' for Inactive)
    1  A    between atoms: C_17  and  C_29
    2  A    between atoms: C_28  and  C_34
                            x       y       z     vdW  Elec       q    Type
                         _______ _______ _______ _____ _____    ______ ____

>  <TORSDO>
F 2

$$$$
