=
 OpenBabel11062421123D

 33 35  0  0  1  0  0  0  0  0999 V2000
  191.0920  175.8330  146.2970 C   0  0  0  0  0  2  0  0  0  0  0  0
  190.1110  174.6940  146.5270 C   0  0  0  0  0  2  0  0  0  0  0  0
  188.7920  175.2310  147.0470 C   0  0  0  0  0  2  0  0  0  0  0  0
  188.7930  176.7430  146.9710 C   0  0  0  0  0  2  0  0  0  0  0  0
  186.3340  176.8530  146.8000 C   0  0  0  0  0  1  0  0  0  0  0  0
  187.6360  177.2230  146.1140 C   0  0  2  0  0  3  0  0  0  0  0  0
  187.6960  176.6000  144.8620 O   0  0  0  0  0  0  0  0  0  0  0  0
  188.7890  177.2470  141.8220 N   0  0  0  0  0  2  0  0  0  0  0  0
  185.7300  176.3200  143.2080 O   0  0  0  0  0  1  0  0  0  0  0  0
  187.4060  176.8840  141.5850 C   0  0  0  0  0  2  0  0  0  0  0  0
  188.9190  177.6620  143.1630 C   0  0  0  0  0  0  0  0  0  0  0  0
  186.6070  177.3410  142.8200 C   0  0  2  0  0  0  0  0  0  0  0  0
  190.0200  178.0250  143.6520 O   0  0  0  0  0  0  0  0  0  0  0  0
  187.6510  177.6360  143.9210 C   0  0  1  0  0  3  0  0  0  0  0  0
  185.5940  179.4810  143.7280 C   0  0  0  0  0  1  0  0  0  0  0  0
  184.4690  178.3150  141.8580 C   0  0  0  0  0  1  0  0  0  0  0  0
  185.8170  178.6220  142.4940 C   0  0  0  0  0  3  0  0  0  0  0  0
  192.5330  175.3970  146.5410 C   0  0  0  0  0  2  0  0  0  0  0  0
  192.8280  175.8630  144.0370 C   0  0  0  0  0  2  0  0  0  0  0  0
  193.9440  174.8700  144.3430 C   0  0  1  0  0  3  0  0  0  0  0  0
  193.4650  175.8470  145.4110 C   0  0  2  0  0  0  0  0  0  0  0  0
  194.2780  177.1630  146.9360 O   0  0  0  0  0  1  0  0  0  0  0  0
  194.3380  176.9210  145.6410 O   0  0  0  0  0  0  0  0  0  0  0  0
  193.3630  173.4720  144.5120 C   0  0  0  0  0  2  0  0  0  0  0  0
  193.0390  172.8670  143.1790 C   0  0  0  0  0  0  0  0  0  0  0  0
  193.9240  172.7810  142.3420 O   0  0  0  0  0  0  0  0  0  0  0  0
  190.8480  172.1270  144.0820 C   0  0  0  0  0  2  0  0  0  0  0  0
  190.7110  173.5820  141.7950 S   0  0  0  0  0  0  0  0  0  0  0  0
  189.3970  172.1440  143.6730 C   0  0  0  0  0  2  0  0  0  0  0  0
  189.2100  173.3640  142.7980 C   0  0  2  0  0  3  0  0  0  0  0  0
  191.6510  172.4000  142.8270 C   0  0  1  0  0  3  0  0  0  0  0  0
  188.3270  173.5800  140.5920 O   0  0  0  0  0  1  0  0  0  0  0  0
  188.0060  173.1890  141.8910 C   0  0  0  0  0  2  0  0  0  0  0  0
  1  2  1  0  0  0  0
  1 18  1  0  0  0  0
  2  3  1  0  0  0  0
  4  3  1  0  0  0  0
  6  5  1  1  0  0  0
  6  4  1  0  0  0  0
  7  6  1  0  0  0  0
  8 11  1  0  0  0  0
 10  8  1  0  0  0  0
 10 12  1  0  0  0  0
 11 13  2  0  0  0  0
 11 14  1  0  0  0  0
 12  9  1  1  0  0  0
 12 14  1  0  0  0  0
 14  7  1  1  0  0  0
 16 17  1  0  0  0  0
 17 12  1  0  0  0  0
 17 15  1  0  0  0  0
 19 20  1  0  0  0  0
 19 21  1  0  0  0  0
 20 24  1  1  0  0  0
 20 21  1  0  0  0  0
 21 23  1  0  0  0  0
 21 18  1  1  0  0  0
 23 22  1  0  0  0  0
 25 24  1  0  0  0  0
 26 25  2  0  0  0  0
 28 30  1  0  0  0  0
 28 31  1  0  0  0  0
 29 27  1  0  0  0  0
 30 33  1  6  0  0  0
 30 29  1  0  0  0  0
 31 25  1  1  0  0  0
 31 27  1  0  0  0  0
 32 33  1  0  0  0  0
M  END
>  <MODEL>
1

>  <REMARK>
 VINA RESULT:      -5.9      0.000      0.000
  Name = 
  14 active torsions:
  status: ('A' for Active; 'I' for Inactive)
    1  A    between atoms: C_4  and  C_9
    2  A    between atoms: C_4  and  C_25
    3  A    between atoms: C_9  and  O_23
    4  A    between atoms: C_10  and  C_25
    5  A    between atoms: C_10  and  C_28
    6  A    between atoms: C_12  and  C_13
    7  A    between atoms: C_12  and  C_30
    8  A    between atoms: C_13  and  C_27
    9  A    between atoms: C_16  and  C_28
   10  A    between atoms: C_16  and  C_31
   11  A    between atoms: C_17  and  C_22
   12  A    between atoms: O_18  and  C_31
   13  A    between atoms: O_23  and  C_33
   14  A    between atoms: C_24  and  C_26
                            x       y       z     vdW  Elec       q    Type
                         _______ _______ _______ _____ _____    ______ ____

>  <TORSDO>
F 14

$$$$
=
 OpenBabel11062421123D

 33 35  0  0  1  0  0  0  0  0999 V2000
  192.3240  176.0230  146.4940 C   0  0  0  0  0  2  0  0  0  0  0  0
  191.0040  175.9410  147.2440 C   0  0  0  0  0  2  0  0  0  0  0  0
  190.0120  175.0900  146.4740 C   0  0  0  0  0  2  0  0  0  0  0  0
  188.6150  175.3340  147.0050 C   0  0  0  0  0  2  0  0  0  0  0  0
  186.5760  176.7110  146.8190 C   0  0  0  0  0  1  0  0  0  0  0  0
  187.9770  176.5030  146.2760 C   0  0  2  0  0  3  0  0  0  0  0  0
  187.9080  176.2150  144.9080 O   0  0  0  0  0  0  0  0  0  0  0  0
  189.0900  177.7200  142.2260 N   0  0  0  0  0  2  0  0  0  0  0  0
  186.0650  176.2270  143.0960 O   0  0  0  0  0  1  0  0  0  0  0  0
  187.7610  177.3260  141.8020 C   0  0  0  0  0  2  0  0  0  0  0  0
  189.1120  177.7770  143.6340 C   0  0  0  0  0  0  0  0  0  0  0  0
  186.8610  177.3790  143.0490 C   0  0  2  0  0  0  0  0  0  0  0  0
  190.1460  178.0840  144.2810 O   0  0  0  0  0  0  0  0  0  0  0  0
  187.8150  177.4550  144.2640 C   0  0  1  0  0  3  0  0  0  0  0  0
  185.8130  179.2680  144.3800 C   0  0  0  0  0  1  0  0  0  0  0  0
  184.5910  178.3380  142.4400 C   0  0  0  0  0  1  0  0  0  0  0  0
  185.9710  178.6350  143.0060 C   0  0  0  0  0  3  0  0  0  0  0  0
  192.9880  174.6560  146.3640 C   0  0  0  0  0  2  0  0  0  0  0  0
  192.7090  174.9190  143.8280 C   0  0  0  0  0  2  0  0  0  0  0  0
  192.9870  173.4290  143.9980 C   0  0  1  0  0  3  0  0  0  0  0  0
  193.5840  174.4420  144.9680 C   0  0  2  0  0  0  0  0  0  0  0  0
  195.4450  174.9550  145.9660 O   0  0  0  0  0  1  0  0  0  0  0  0
  194.9520  174.6880  144.7720 O   0  0  0  0  0  0  0  0  0  0  0  0
  191.7520  172.7310  144.5520 C   0  0  0  0  0  2  0  0  0  0  0  0
  191.2420  171.7060  143.5850 C   0  0  0  0  0  0  0  0  0  0  0  0
  191.8860  170.6830  143.4180 O   0  0  0  0  0  0  0  0  0  0  0  0
  189.3710  173.2660  143.1000 C   0  0  0  0  0  2  0  0  0  0  0  0
  190.2290  171.8110  140.9750 S   0  0  0  0  0  0  0  0  0  0  0  0
  188.4450  173.5930  141.9570 C   0  0  0  0  0  2  0  0  0  0  0  0
  189.2040  173.2850  140.6840 C   0  0  2  0  0  3  0  0  0  0  0  0
  189.9830  171.9170  142.7840 C   0  0  1  0  0  3  0  0  0  0  0  0
  188.1280  174.1640  138.7440 O   0  0  0  0  0  1  0  0  0  0  0  0
  188.2410  173.0250  139.5400 C   0  0  0  0  0  2  0  0  0  0  0  0
  1  2  1  0  0  0  0
  3  4  1  0  0  0  0
  3  2  1  0  0  0  0
  6  5  1  1  0  0  0
  6  4  1  0  0  0  0
  7  6  1  0  0  0  0
  8 11  1  0  0  0  0
 10  8  1  0  0  0  0
 10 12  1  0  0  0  0
 11 14  1  0  0  0  0
 11 13  2  0  0  0  0
 12  9  1  1  0  0  0
 12 14  1  0  0  0  0
 14  7  1  6  0  0  0
 16 17  1  0  0  0  0
 17 12  1  0  0  0  0
 17 15  1  0  0  0  0
 18  1  1  0  0  0  0
 19 20  1  0  0  0  0
 19 21  1  0  0  0  0
 20 24  1  1  0  0  0
 20 21  1  0  0  0  0
 21 18  1  1  0  0  0
 23 21  1  0  0  0  0
 23 22  1  0  0  0  0
 25 24  1  0  0  0  0
 26 25  2  0  0  0  0
 28 31  1  0  0  0  0
 29 27  1  0  0  0  0
 30 33  1  6  0  0  0
 30 28  1  0  0  0  0
 30 29  1  0  0  0  0
 31 27  1  0  0  0  0
 31 25  1  1  0  0  0
 32 33  1  0  0  0  0
M  END
>  <MODEL>
2

>  <REMARK>
 VINA RESULT:      -5.9      1.225      1.573
  Name = 
  14 active torsions:
  status: ('A' for Active; 'I' for Inactive)
    1  A    between atoms: C_4  and  C_9
    2  A    between atoms: C_4  and  C_25
    3  A    between atoms: C_9  and  O_23
    4  A    between atoms: C_10  and  C_25
    5  A    between atoms: C_10  and  C_28
    6  A    between atoms: C_12  and  C_13
    7  A    between atoms: C_12  and  C_30
    8  A    between atoms: C_13  and  C_27
    9  A    between atoms: C_16  and  C_28
   10  A    between atoms: C_16  and  C_31
   11  A    between atoms: C_17  and  C_22
   12  A    between atoms: O_18  and  C_31
   13  A    between atoms: O_23  and  C_33
   14  A    between atoms: C_24  and  C_26
                            x       y       z     vdW  Elec       q    Type
                         _______ _______ _______ _____ _____    ______ ____

>  <TORSDO>
F 14

$$$$
=
 OpenBabel11062421123D

 33 35  0  0  1  0  0  0  0  0999 V2000
  186.0840  177.5960  146.4900 C   0  0  0  0  0  2  0  0  0  0  0  0
  187.2450  176.7100  146.9140 C   0  0  0  0  0  2  0  0  0  0  0  0
  188.5520  177.2600  146.3780 C   0  0  0  0  0  2  0  0  0  0  0  0
  189.2230  176.2180  145.5080 C   0  0  0  0  0  2  0  0  0  0  0  0
  190.2370  177.9980  144.1350 C   0  0  0  0  0  1  0  0  0  0  0  0
  190.5300  176.7600  144.9600 C   0  0  2  0  0  3  0  0  0  0  0  0
  191.1300  175.7910  144.1470 O   0  0  0  0  0  0  0  0  0  0  0  0
  192.5670  172.8250  144.1550 N   0  0  0  0  0  2  0  0  0  0  0  0
  193.6750  176.1120  143.8280 O   0  0  0  0  0  1  0  0  0  0  0  0
  193.6880  173.7140  143.9210 C   0  0  0  0  0  2  0  0  0  0  0  0
  191.5330  173.5620  144.7670 C   0  0  0  0  0  0  0  0  0  0  0  0
  193.3800  175.0270  144.6640 C   0  0  2  0  0  0  0  0  0  0  0  0
  190.4290  173.0450  145.0770 O   0  0  0  0  0  0  0  0  0  0  0  0
  191.8740  174.9790  145.0130 C   0  0  1  0  0  3  0  0  0  0  0  0
  194.0500  176.4550  146.6500 C   0  0  0  0  0  1  0  0  0  0  0  0
  195.6920  174.8670  145.6980 C   0  0  0  0  0  1  0  0  0  0  0  0
  194.2130  175.1110  145.9560 C   0  0  0  0  0  3  0  0  0  0  0  0
  185.4040  177.0740  145.2280 C   0  0  0  0  0  2  0  0  0  0  0  0
  184.8770  177.6410  142.7840 C   0  0  0  0  0  2  0  0  0  0  0  0
  186.3820  177.3960  142.7700 C   0  0  1  0  0  3  0  0  0  0  0  0
  185.7020  177.9590  144.0130 C   0  0  2  0  0  0  0  0  0  0  0  0
  184.7140  179.8780  144.2680 O   0  0  0  0  0  1  0  0  0  0  0  0
  185.9130  179.3320  144.2120 O   0  0  0  0  0  0  0  0  0  0  0  0
  186.6650  175.9030  142.8710 C   0  0  0  0  0  2  0  0  0  0  0  0
  187.7760  175.5090  141.9450 C   0  0  0  0  0  0  0  0  0  0  0  0
  187.9050  176.1130  140.8930 O   0  0  0  0  0  0  0  0  0  0  0  0
  187.9690  173.0470  142.2050 C   0  0  0  0  0  2  0  0  0  0  0  0
  190.1450  174.2590  141.1260 S   0  0  0  0  0  0  0  0  0  0  0  0
  189.0160  171.9760  142.0410 C   0  0  0  0  0  2  0  0  0  0  0  0
  189.9600  172.4580  140.9600 C   0  0  2  0  0  3  0  0  0  0  0  0
  188.7090  174.3680  142.2540 C   0  0  1  0  0  3  0  0  0  0  0  0
  192.3180  172.6370  140.6350 O   0  0  0  0  0  1  0  0  0  0  0  0
  191.3150  171.7870  141.0990 C   0  0  0  0  0  2  0  0  0  0  0  0
  1  2  1  0  0  0  0
  3  2  1  0  0  0  0
  4  3  1  0  0  0  0
  6  5  1  6  0  0  0
  6  4  1  0  0  0  0
  7  6  1  0  0  0  0
  8 11  1  0  0  0  0
 10  8  1  0  0  0  0
 10 12  1  0  0  0  0
 11 14  1  0  0  0  0
 11 13  2  0  0  0  0
 12  9  1  6  0  0  0
 12 14  1  0  0  0  0
 12 17  1  0  0  0  0
 14  7  1  6  0  0  0
 16 17  1  0  0  0  0
 17 15  1  0  0  0  0
 18  1  1  0  0  0  0
 19 21  1  0  0  0  0
 20 19  1  0  0  0  0
 20 24  1  1  0  0  0
 20 21  1  0  0  0  0
 21 23  1  0  0  0  0
 21 18  1  1  0  0  0
 23 22  1  0  0  0  0
 25 24  1  0  0  0  0
 26 25  2  0  0  0  0
 27 31  1  0  0  0  0
 28 31  1  0  0  0  0
 29 27  1  0  0  0  0
 30 33  1  1  0  0  0
 30 28  1  0  0  0  0
 30 29  1  0  0  0  0
 31 25  1  6  0  0  0
 32 33  1  0  0  0  0
M  END
>  <MODEL>
3

>  <REMARK>
 VINA RESULT:      -5.6      2.188      6.437
  Name = 
  14 active torsions:
  status: ('A' for Active; 'I' for Inactive)
    1  A    between atoms: C_4  and  C_9
    2  A    between atoms: C_4  and  C_25
    3  A    between atoms: C_9  and  O_23
    4  A    between atoms: C_10  and  C_25
    5  A    between atoms: C_10  and  C_28
    6  A    between atoms: C_12  and  C_13
    7  A    between atoms: C_12  and  C_30
    8  A    between atoms: C_13  and  C_27
    9  A    between atoms: C_16  and  C_28
   10  A    between atoms: C_16  and  C_31
   11  A    between atoms: C_17  and  C_22
   12  A    between atoms: O_18  and  C_31
   13  A    between atoms: O_23  and  C_33
   14  A    between atoms: C_24  and  C_26
                            x       y       z     vdW  Elec       q    Type
                         _______ _______ _______ _____ _____    ______ ____

>  <TORSDO>
F 14

$$$$
=
 OpenBabel11062421123D

 33 35  0  0  1  0  0  0  0  0999 V2000
  187.4210  176.9450  146.5450 C   0  0  0  0  0  2  0  0  0  0  0  0
  188.4960  175.8770  146.4130 C   0  0  0  0  0  2  0  0  0  0  0  0
  189.8660  176.5180  146.3110 C   0  0  0  0  0  2  0  0  0  0  0  0
  189.8940  177.4760  145.1390 C   0  0  0  0  0  2  0  0  0  0  0  0
  191.0940  177.6670  142.9920 C   0  0  0  0  0  1  0  0  0  0  0  0
  191.2630  177.4590  144.4840 C   0  0  2  0  0  3  0  0  0  0  0  0
  191.8720  176.2200  144.7150 O   0  0  0  0  0  0  0  0  0  0  0  0
  194.6480  175.0760  146.0750 N   0  0  0  0  0  2  0  0  0  0  0  0
  193.0580  174.6950  142.9980 O   0  0  0  0  0  1  0  0  0  0  0  0
  194.6470  174.4300  144.7770 C   0  0  0  0  0  2  0  0  0  0  0  0
  193.8370  176.2270  146.0010 C   0  0  0  0  0  0  0  0  0  0  0  0
  193.9680  175.4020  143.7950 C   0  0  2  0  0  0  0  0  0  0  0  0
  193.6450  176.9810  146.9900 O   0  0  0  0  0  0  0  0  0  0  0  0
  193.2510  176.4600  144.6650 C   0  0  1  0  0  3  0  0  0  0  0  0
  194.5390  176.2730  141.4820 C   0  0  0  0  0  1  0  0  0  0  0  0
  196.3350  175.3060  142.8830 C   0  0  0  0  0  1  0  0  0  0  0  0
  195.0270  176.0840  142.9100 C   0  0  0  0  0  3  0  0  0  0  0  0
  186.2350  176.6720  145.6260 C   0  0  0  0  0  2  0  0  0  0  0  0
  184.9950  177.4830  143.5320 C   0  0  0  0  0  2  0  0  0  0  0  0
  186.4470  177.4060  143.0720 C   0  0  1  0  0  3  0  0  0  0  0  0
  186.1120  177.7300  144.5240 C   0  0  2  0  0  0  0  0  0  0  0  0
  185.0590  179.5770  144.9750 O   0  0  0  0  0  1  0  0  0  0  0  0
  186.2760  179.0820  144.8640 O   0  0  0  0  0  0  0  0  0  0  0  0
  186.8490  175.9520  142.8660 C   0  0  0  0  0  2  0  0  0  0  0  0
  187.8430  175.8300  141.7500 C   0  0  0  0  0  0  0  0  0  0  0  0
  187.6940  176.5180  140.7520 O   0  0  0  0  0  0  0  0  0  0  0  0
  189.1380  174.2840  143.1970 C   0  0  0  0  0  2  0  0  0  0  0  0
  188.8430  173.4670  140.6260 S   0  0  0  0  0  0  0  0  0  0  0  0
  189.9460  173.0190  143.0560 C   0  0  0  0  0  2  0  0  0  0  0  0
  189.3580  172.2600  141.8850 C   0  0  2  0  0  3  0  0  0  0  0  0
  188.9920  174.8580  141.8030 C   0  0  1  0  0  3  0  0  0  0  0  0
  190.6480  170.2770  142.1970 O   0  0  0  0  0  1  0  0  0  0  0  0
  190.3850  171.3100  141.2980 C   0  0  0  0  0  2  0  0  0  0  0  0
  2  1  1  0  0  0  0
  3  2  1  0  0  0  0
  4  3  1  0  0  0  0
  6  5  1  6  0  0  0
  6  7  1  0  0  0  0
  6  4  1  0  0  0  0
 10  8  1  0  0  0  0
 11  8  1  0  0  0  0
 11 13  2  0  0  0  0
 12  9  1  6  0  0  0
 12 14  1  0  0  0  0
 12 10  1  0  0  0  0
 14  7  1  1  0  0  0
 14 11  1  0  0  0  0
 15 17  1  0  0  0  0
 16 17  1  0  0  0  0
 17 12  1  0  0  0  0
 18  1  1  0  0  0  0
 19 21  1  0  0  0  0
 20 24  1  1  0  0  0
 20 19  1  0  0  0  0
 20 21  1  0  0  0  0
 21 23  1  0  0  0  0
 21 18  1  1  0  0  0
 23 22  1  0  0  0  0
 25 24  1  0  0  0  0
 26 25  2  0  0  0  0
 28 31  1  0  0  0  0
 28 30  1  0  0  0  0
 29 27  1  0  0  0  0
 30 33  1  6  0  0  0
 30 29  1  0  0  0  0
 31 25  1  1  0  0  0
 31 27  1  0  0  0  0
 33 32  1  0  0  0  0
M  END
>  <MODEL>
4

>  <REMARK>
 VINA RESULT:      -5.6      2.394      6.438
  Name = 
  14 active torsions:
  status: ('A' for Active; 'I' for Inactive)
    1  A    between atoms: C_4  and  C_9
    2  A    between atoms: C_4  and  C_25
    3  A    between atoms: C_9  and  O_23
    4  A    between atoms: C_10  and  C_25
    5  A    between atoms: C_10  and  C_28
    6  A    between atoms: C_12  and  C_13
    7  A    between atoms: C_12  and  C_30
    8  A    between atoms: C_13  and  C_27
    9  A    between atoms: C_16  and  C_28
   10  A    between atoms: C_16  and  C_31
   11  A    between atoms: C_17  and  C_22
   12  A    between atoms: O_18  and  C_31
   13  A    between atoms: O_23  and  C_33
   14  A    between atoms: C_24  and  C_26
                            x       y       z     vdW  Elec       q    Type
                         _______ _______ _______ _____ _____    ______ ____

>  <TORSDO>
F 14

$$$$
=
 OpenBabel11062421123D

 33 35  0  0  1  0  0  0  0  0999 V2000
  186.0340  177.3910  146.5460 C   0  0  0  0  0  2  0  0  0  0  0  0
  186.9700  176.3960  147.2140 C   0  0  0  0  0  2  0  0  0  0  0  0
  188.1940  176.1610  146.3500 C   0  0  0  0  0  2  0  0  0  0  0  0
  189.0480  175.0720  146.9640 C   0  0  0  0  0  2  0  0  0  0  0  0
  189.6050  173.0120  145.7260 C   0  0  0  0  0  1  0  0  0  0  0  0
  189.9640  174.4730  145.9120 C   0  0  2  0  0  3  0  0  0  0  0  0
  191.2920  174.5750  146.3410 O   0  0  0  0  0  0  0  0  0  0  0  0
  193.8890  176.5730  146.7000 N   0  0  0  0  0  2  0  0  0  0  0  0
  192.8270  174.3030  144.2800 O   0  0  0  0  0  1  0  0  0  0  0  0
  194.1810  175.9040  145.4470 C   0  0  0  0  0  2  0  0  0  0  0  0
  192.5000  176.5000  146.9320 C   0  0  0  0  0  0  0  0  0  0  0  0
  192.8280  175.6150  144.7700 C   0  0  2  0  0  0  0  0  0  0  0  0
  191.9620  176.9910  147.9580 O   0  0  0  0  0  0  0  0  0  0  0  0
  191.7510  175.8090  145.8620 C   0  0  1  0  0  3  0  0  0  0  0  0
  191.1610  177.1300  143.6050 C   0  0  0  0  0  1  0  0  0  0  0  0
  192.9040  175.9990  142.2620 C   0  0  0  0  0  1  0  0  0  0  0  0
  192.5900  176.6100  143.6190 C   0  0  0  0  0  3  0  0  0  0  0  0
  185.5940  176.9150  145.1650 C   0  0  0  0  0  2  0  0  0  0  0  0
  184.8590  177.8300  142.8840 C   0  0  0  0  0  2  0  0  0  0  0  0
  186.3770  177.7590  142.7610 C   0  0  1  0  0  3  0  0  0  0  0  0
  185.7230  178.0220  144.1130 C   0  0  2  0  0  0  0  0  0  0  0  0
  184.5730  179.8220  144.5160 O   0  0  0  0  0  1  0  0  0  0  0  0
  185.8070  179.3560  144.5420 O   0  0  0  0  0  0  0  0  0  0  0  0
  186.8160  176.3110  142.5850 C   0  0  0  0  0  2  0  0  0  0  0  0
  187.5630  176.1350  141.2980 C   0  0  0  0  0  0  0  0  0  0  0  0
  187.1810  176.7410  140.3090 O   0  0  0  0  0  0  0  0  0  0  0  0
  188.9310  174.4170  142.4550 C   0  0  0  0  0  2  0  0  0  0  0  0
  188.6170  174.0240  139.7880 S   0  0  0  0  0  0  0  0  0  0  0  0
  189.7750  173.2200  142.0970 C   0  0  0  0  0  2  0  0  0  0  0  0
  189.1910  172.6450  140.8240 C   0  0  2  0  0  3  0  0  0  0  0  0
  188.7430  175.2070  141.1770 C   0  0  1  0  0  3  0  0  0  0  0  0
  190.5330  172.4550  138.8600 O   0  0  0  0  0  1  0  0  0  0  0  0
  190.2360  171.8390  140.0760 C   0  0  0  0  0  2  0  0  0  0  0  0
  1  2  1  0  0  0  0
  3  4  1  0  0  0  0
  3  2  1  0  0  0  0
  6  5  1  1  0  0  0
  6  7  1  0  0  0  0
  6  4  1  0  0  0  0
  8 11  1  0  0  0  0
 10  8  1  0  0  0  0
 11 13  2  0  0  0  0
 12  9  1  6  0  0  0
 12 10  1  0  0  0  0
 12 14  1  0  0  0  0
 14  7  1  1  0  0  0
 14 11  1  0  0  0  0
 15 17  1  0  0  0  0
 16 17  1  0  0  0  0
 17 12  1  0  0  0  0
 18  1  1  0  0  0  0
 19 21  1  0  0  0  0
 20 24  1  1  0  0  0
 20 19  1  0  0  0  0
 20 21  1  0  0  0  0
 21 23  1  0  0  0  0
 21 18  1  1  0  0  0
 22 23  1  0  0  0  0
 25 24  1  0  0  0  0
 26 25  2  0  0  0  0
 28 30  1  0  0  0  0
 28 31  1  0  0  0  0
 29 27  1  0  0  0  0
 30 33  1  6  0  0  0
 30 29  1  0  0  0  0
 31 25  1  1  0  0  0
 31 27  1  0  0  0  0
 32 33  1  0  0  0  0
M  END
>  <MODEL>
5

>  <REMARK>
 VINA RESULT:      -5.6      2.399      6.108
  Name = 
  14 active torsions:
  status: ('A' for Active; 'I' for Inactive)
    1  A    between atoms: C_4  and  C_9
    2  A    between atoms: C_4  and  C_25
    3  A    between atoms: C_9  and  O_23
    4  A    between atoms: C_10  and  C_25
    5  A    between atoms: C_10  and  C_28
    6  A    between atoms: C_12  and  C_13
    7  A    between atoms: C_12  and  C_30
    8  A    between atoms: C_13  and  C_27
    9  A    between atoms: C_16  and  C_28
   10  A    between atoms: C_16  and  C_31
   11  A    between atoms: C_17  and  C_22
   12  A    between atoms: O_18  and  C_31
   13  A    between atoms: O_23  and  C_33
   14  A    between atoms: C_24  and  C_26
                            x       y       z     vdW  Elec       q    Type
                         _______ _______ _______ _____ _____    ______ ____

>  <TORSDO>
F 14

$$$$
=
 OpenBabel11062421123D

 33 35  0  0  1  0  0  0  0  0999 V2000
  187.8070  175.9220  146.9340 C   0  0  0  0  0  2  0  0  0  0  0  0
  189.1810  175.3260  147.1980 C   0  0  0  0  0  2  0  0  0  0  0  0
  190.2660  176.2650  146.7070 C   0  0  0  0  0  2  0  0  0  0  0  0
  191.5070  176.0970  147.5590 C   0  0  0  0  0  2  0  0  0  0  0  0
  193.7640  176.7390  146.7980 C   0  0  0  0  0  1  0  0  0  0  0  0
  192.6820  175.6810  146.6930 C   0  0  2  0  0  3  0  0  0  0  0  0
  192.2620  175.5750  145.3620 O   0  0  0  0  0  0  0  0  0  0  0  0
  193.0270  173.2650  143.1400 N   0  0  0  0  0  2  0  0  0  0  0  0
  192.4450  176.6980  143.0420 O   0  0  0  0  0  1  0  0  0  0  0  0
  192.9030  174.4550  142.3220 C   0  0  0  0  0  2  0  0  0  0  0  0
  193.2860  173.6600  144.4680 C   0  0  0  0  0  0  0  0  0  0  0  0
  193.3540  175.6430  143.1910 C   0  0  2  0  0  0  0  0  0  0  0  0
  193.4300  172.8300  145.4030 O   0  0  0  0  0  0  0  0  0  0  0  0
  193.3790  175.1240  144.6480 C   0  0  1  0  0  3  0  0  0  0  0  0
  195.3350  175.2300  141.6630 C   0  0  0  0  0  1  0  0  0  0  0  0
  195.7350  176.0930  143.9470 C   0  0  0  0  0  1  0  0  0  0  0  0
  194.7650  176.0970  142.7750 C   0  0  0  0  0  3  0  0  0  0  0  0
  187.8620  177.4420  146.8170 C   0  0  0  0  0  2  0  0  0  0  0  0
  186.1800  177.0180  144.9280 C   0  0  0  0  0  2  0  0  0  0  0  0
  186.9060  178.2790  144.4740 C   0  0  1  0  0  3  0  0  0  0  0  0
  186.7160  177.9890  145.9590 C   0  0  2  0  0  0  0  0  0  0  0  0
  186.0870  178.8860  147.8350 O   0  0  0  0  0  1  0  0  0  0  0  0
  185.7220  178.7660  146.5730 O   0  0  0  0  0  0  0  0  0  0  0  0
  188.2990  177.9240  143.9720 C   0  0  0  0  0  2  0  0  0  0  0  0
  188.2320  177.3170  142.6030 C   0  0  0  0  0  0  0  0  0  0  0  0
  187.5360  177.8540  141.7560 O   0  0  0  0  0  0  0  0  0  0  0  0
  189.0610  175.1400  143.4620 C   0  0  0  0  0  2  0  0  0  0  0  0
  188.1920  175.1010  140.8910 S   0  0  0  0  0  0  0  0  0  0  0  0
  189.3470  173.7560  142.9360 C   0  0  0  0  0  2  0  0  0  0  0  0
  188.3940  173.5280  141.7820 C   0  0  2  0  0  3  0  0  0  0  0  0
  188.9620  176.0470  142.2530 C   0  0  1  0  0  3  0  0  0  0  0  0
  190.3360  172.4780  140.8750 O   0  0  0  0  0  1  0  0  0  0  0  0
  188.9420  172.4710  140.8410 C   0  0  0  0  0  2  0  0  0  0  0  0
  1  2  1  0  0  0  0
  3  2  1  0  0  0  0
  3  4  1  0  0  0  0
  6  5  1  6  0  0  0
  6  4  1  0  0  0  0
  7  6  1  0  0  0  0
  8 11  1  0  0  0  0
 10  8  1  0  0  0  0
 10 12  1  0  0  0  0
 11 14  1  0  0  0  0
 11 13  2  0  0  0  0
 12  9  1  6  0  0  0
 12 14  1  0  0  0  0
 14  7  1  1  0  0  0
 15 17  1  0  0  0  0
 17 12  1  0  0  0  0
 17 16  1  0  0  0  0
 18  1  1  0  0  0  0
 19 21  1  0  0  0  0
 20 24  1  1  0  0  0
 20 19  1  0  0  0  0
 20 21  1  0  0  0  0
 21 23  1  0  0  0  0
 21 18  1  1  0  0  0
 23 22  1  0  0  0  0
 25 24  1  0  0  0  0
 26 25  2  0  0  0  0
 28 30  1  0  0  0  0
 28 31  1  0  0  0  0
 29 27  1  0  0  0  0
 30 33  1  6  0  0  0
 30 29  1  0  0  0  0
 31 25  1  1  0  0  0
 31 27  1  0  0  0  0
 33 32  1  0  0  0  0
M  END
>  <MODEL>
6

>  <REMARK>
 VINA RESULT:      -5.5      2.198      6.274
  Name = 
  14 active torsions:
  status: ('A' for Active; 'I' for Inactive)
    1  A    between atoms: C_4  and  C_9
    2  A    between atoms: C_4  and  C_25
    3  A    between atoms: C_9  and  O_23
    4  A    between atoms: C_10  and  C_25
    5  A    between atoms: C_10  and  C_28
    6  A    between atoms: C_12  and  C_13
    7  A    between atoms: C_12  and  C_30
    8  A    between atoms: C_13  and  C_27
    9  A    between atoms: C_16  and  C_28
   10  A    between atoms: C_16  and  C_31
   11  A    between atoms: C_17  and  C_22
   12  A    between atoms: O_18  and  C_31
   13  A    between atoms: O_23  and  C_33
   14  A    between atoms: C_24  and  C_26
                            x       y       z     vdW  Elec       q    Type
                         _______ _______ _______ _____ _____    ______ ____

>  <TORSDO>
F 14

$$$$
=
 OpenBabel11062421123D

 33 35  0  0  1  0  0  0  0  0999 V2000
  186.9550  177.0780  141.5400 C   0  0  0  0  0  2  0  0  0  0  0  0
  187.8090  175.8690  141.1900 C   0  0  0  0  0  2  0  0  0  0  0  0
  188.3500  175.2230  142.4510 C   0  0  0  0  0  2  0  0  0  0  0  0
  189.7640  174.7400  142.2080 C   0  0  0  0  0  2  0  0  0  0  0  0
  190.6740  176.7810  143.2530 C   0  0  0  0  0  1  0  0  0  0  0  0
  190.6870  175.2650  143.2930 C   0  0  2  0  0  3  0  0  0  0  0  0
  191.9880  174.8050  143.0580 O   0  0  0  0  0  0  0  0  0  0  0  0
  193.4160  172.1840  144.4540 N   0  0  0  0  0  2  0  0  0  0  0  0
  194.5180  175.2770  143.2910 O   0  0  0  0  0  1  0  0  0  0  0  0
  194.5440  173.0610  144.2130 C   0  0  0  0  0  2  0  0  0  0  0  0
  192.2430  172.9640  144.4940 C   0  0  0  0  0  0  0  0  0  0  0  0
  194.0250  174.5040  144.3500 C   0  0  2  0  0  0  0  0  0  0  0  0
  191.1040  172.4620  144.6780 O   0  0  0  0  0  0  0  0  0  0  0  0
  192.4820  174.4110  144.3080 C   0  0  1  0  0  3  0  0  0  0  0  0
  194.5790  176.6170  145.6390 C   0  0  0  0  0  1  0  0  0  0  0  0
  195.8100  174.5340  146.1540 C   0  0  0  0  0  1  0  0  0  0  0  0
  194.4740  175.1010  145.6960 C   0  0  0  0  0  3  0  0  0  0  0  0
  185.9250  176.7510  142.6170 C   0  0  0  0  0  2  0  0  0  0  0  0
  186.2640  179.2370  143.1470 C   0  0  0  0  0  2  0  0  0  0  0  0
  186.0430  178.6130  144.5200 C   0  0  1  0  0  3  0  0  0  0  0  0
  185.3780  178.0180  143.2840 C   0  0  2  0  0  0  0  0  0  0  0  0
  183.7360  178.2870  141.8860 O   0  0  0  0  0  1  0  0  0  0  0  0
  184.0070  178.3000  143.1770 O   0  0  0  0  0  0  0  0  0  0  0  0
  187.2890  177.8510  144.9500 C   0  0  0  0  0  2  0  0  0  0  0  0
  187.0160  177.0350  146.1780 C   0  0  0  0  0  0  0  0  0  0  0  0
  185.8570  176.7990  146.4810 O   0  0  0  0  0  0  0  0  0  0  0  0
  188.6140  175.1810  146.5940 C   0  0  0  0  0  2  0  0  0  0  0  0
  189.5590  177.6590  147.1730 S   0  0  0  0  0  0  0  0  0  0  0  0
  189.9790  174.9860  147.2020 C   0  0  0  0  0  2  0  0  0  0  0  0
  190.7330  176.2820  146.9950 C   0  0  2  0  0  3  0  0  0  0  0  0
  188.1220  176.5320  147.0680 C   0  0  1  0  0  3  0  0  0  0  0  0
  191.5320  177.4240  148.9320 O   0  0  0  0  0  1  0  0  0  0  0  0
  191.8460  176.4190  148.0180 C   0  0  0  0  0  2  0  0  0  0  0  0
  1 18  1  0  0  0  0
  2  1  1  0  0  0  0
  2  3  1  0  0  0  0
  4  3  1  0  0  0  0
  4  6  1  0  0  0  0
  6  5  1  6  0  0  0
  7  6  1  0  0  0  0
  8 11  1  0  0  0  0
 10 12  1  0  0  0  0
 10  8  1  0  0  0  0
 11 13  2  0  0  0  0
 12  9  1  6  0  0  0
 12 17  1  0  0  0  0
 14  7  1  6  0  0  0
 14 12  1  0  0  0  0
 14 11  1  0  0  0  0
 15 17  1  0  0  0  0
 17 16  1  0  0  0  0
 19 21  1  0  0  0  0
 19 20  1  0  0  0  0
 20 24  1  6  0  0  0
 21 18  1  6  0  0  0
 21 20  1  0  0  0  0
 22 23  1  0  0  0  0
 23 21  1  0  0  0  0
 24 25  1  0  0  0  0
 25 26  2  0  0  0  0
 27 31  1  0  0  0  0
 27 29  1  0  0  0  0
 30 28  1  0  0  0  0
 30 29  1  0  0  0  0
 30 33  1  1  0  0  0
 31 25  1  6  0  0  0
 31 28  1  0  0  0  0
 33 32  1  0  0  0  0
M  END
>  <MODEL>
7

>  <REMARK>
 VINA RESULT:      -5.4      2.612      7.756
  Name = 
  14 active torsions:
  status: ('A' for Active; 'I' for Inactive)
    1  A    between atoms: C_4  and  C_9
    2  A    between atoms: C_4  and  C_25
    3  A    between atoms: C_9  and  O_23
    4  A    between atoms: C_10  and  C_25
    5  A    between atoms: C_10  and  C_28
    6  A    between atoms: C_12  and  C_13
    7  A    between atoms: C_12  and  C_30
    8  A    between atoms: C_13  and  C_27
    9  A    between atoms: C_16  and  C_28
   10  A    between atoms: C_16  and  C_31
   11  A    between atoms: C_17  and  C_22
   12  A    between atoms: O_18  and  C_31
   13  A    between atoms: O_23  and  C_33
   14  A    between atoms: C_24  and  C_26
                            x       y       z     vdW  Elec       q    Type
                         _______ _______ _______ _____ _____    ______ ____

>  <TORSDO>
F 14

$$$$
=
 OpenBabel11062421123D

 33 35  0  0  1  0  0  0  0  0999 V2000
  193.2580  175.9590  146.5480 C   0  0  0  0  0  2  0  0  0  0  0  0
  192.0260  175.1040  146.2970 C   0  0  0  0  0  2  0  0  0  0  0  0
  191.0200  175.2850  147.4170 C   0  0  0  0  0  2  0  0  0  0  0  0
  189.6160  175.1700  146.8630 C   0  0  0  0  0  2  0  0  0  0  0  0
  189.0290  177.5650  146.9120 C   0  0  0  0  0  1  0  0  0  0  0  0
  189.2930  176.3790  146.0050 C   0  0  2  0  0  3  0  0  0  0  0  0
  188.1520  176.1140  145.2400 O   0  0  0  0  0  0  0  0  0  0  0  0
  186.6950  177.4620  142.6100 N   0  0  0  0  0  2  0  0  0  0  0  0
  185.6410  176.4280  145.7660 O   0  0  0  0  0  1  0  0  0  0  0  0
  185.5830  177.2790  143.5220 C   0  0  0  0  0  2  0  0  0  0  0  0
  187.8870  177.4960  143.3600 C   0  0  0  0  0  0  0  0  0  0  0  0
  186.1410  177.4490  144.9470 C   0  0  2  0  0  0  0  0  0  0  0  0
  189.0170  177.6350  142.8250 O   0  0  0  0  0  0  0  0  0  0  0  0
  187.6800  177.3630  144.8180 C   0  0  1  0  0  3  0  0  0  0  0  0
  185.1330  178.7140  146.9000 C   0  0  0  0  0  1  0  0  0  0  0  0
  184.7600  179.5500  144.6010 C   0  0  0  0  0  1  0  0  0  0  0  0
  185.7410  178.8240  145.5100 C   0  0  0  0  0  3  0  0  0  0  0  0
  193.9490  176.3540  145.2470 C   0  0  0  0  0  2  0  0  0  0  0  0
  195.9120  175.6740  143.7430 C   0  0  0  0  0  2  0  0  0  0  0  0
  194.7670  174.8010  143.2420 C   0  0  1  0  0  3  0  0  0  0  0  0
  194.8320  175.2250  144.7050 C   0  0  2  0  0  0  0  0  0  0  0  0
  196.4530  174.5430  145.9810 O   0  0  0  0  0  1  0  0  0  0  0  0
  195.2420  174.2070  145.5800 O   0  0  0  0  0  0  0  0  0  0  0  0
  193.7950  175.6400  142.4220 C   0  0  0  0  0  2  0  0  0  0  0  0
  193.0660  174.7890  141.4270 C   0  0  0  0  0  0  0  0  0  0  0  0
  193.4560  174.7710  140.2710 O   0  0  0  0  0  0  0  0  0  0  0  0
  191.0560  174.6940  142.8820 C   0  0  0  0  0  2  0  0  0  0  0  0
  190.7210  173.6550  140.3970 S   0  0  0  0  0  0  0  0  0  0  0  0
  189.6670  174.1100  142.8480 C   0  0  0  0  0  2  0  0  0  0  0  0
  189.2540  174.0640  141.3920 C   0  0  2  0  0  3  0  0  0  0  0  0
  191.8460  173.9880  141.8000 C   0  0  1  0  0  3  0  0  0  0  0  0
  188.0890  172.6940  139.8240 O   0  0  0  0  0  1  0  0  0  0  0  0
  188.1780  173.0150  141.1780 C   0  0  0  0  0  2  0  0  0  0  0  0
  2  1  1  0  0  0  0
  2  3  1  0  0  0  0
  4  3  1  0  0  0  0
  6  4  1  0  0  0  0
  6  5  1  1  0  0  0
  7  6  1  0  0  0  0
  8 11  1  0  0  0  0
  8 10  1  0  0  0  0
 10 12  1  0  0  0  0
 11 14  1  0  0  0  0
 12 17  1  0  0  0  0
 12  9  1  1  0  0  0
 13 11  2  0  0  0  0
 14 12  1  0  0  0  0
 14  7  1  6  0  0  0
 16 17  1  0  0  0  0
 17 15  1  0  0  0  0
 18  1  1  0  0  0  0
 19 21  1  0  0  0  0
 20 24  1  6  0  0  0
 20 19  1  0  0  0  0
 20 21  1  0  0  0  0
 21 18  1  1  0  0  0
 21 23  1  0  0  0  0
 23 22  1  0  0  0  0
 25 24  1  0  0  0  0
 26 25  2  0  0  0  0
 28 30  1  0  0  0  0
 28 31  1  0  0  0  0
 29 27  1  0  0  0  0
 30 33  1  1  0  0  0
 30 29  1  0  0  0  0
 31 25  1  6  0  0  0
 31 27  1  0  0  0  0
 32 33  1  0  0  0  0
M  END
>  <MODEL>
8

>  <REMARK>
 VINA RESULT:      -5.4      1.758      2.284
  Name = 
  14 active torsions:
  status: ('A' for Active; 'I' for Inactive)
    1  A    between atoms: C_4  and  C_9
    2  A    between atoms: C_4  and  C_25
    3  A    between atoms: C_9  and  O_23
    4  A    between atoms: C_10  and  C_25
    5  A    between atoms: C_10  and  C_28
    6  A    between atoms: C_12  and  C_13
    7  A    between atoms: C_12  and  C_30
    8  A    between atoms: C_13  and  C_27
    9  A    between atoms: C_16  and  C_28
   10  A    between atoms: C_16  and  C_31
   11  A    between atoms: C_17  and  C_22
   12  A    between atoms: O_18  and  C_31
   13  A    between atoms: O_23  and  C_33
   14  A    between atoms: C_24  and  C_26
                            x       y       z     vdW  Elec       q    Type
                         _______ _______ _______ _____ _____    ______ ____

>  <TORSDO>
F 14

$$$$
=
 OpenBabel11062421123D

 33 35  0  0  1  0  0  0  0  0999 V2000
  188.0590  175.4520  141.7930 C   0  0  0  0  0  2  0  0  0  0  0  0
  188.0510  173.9440  141.9960 C   0  0  0  0  0  2  0  0  0  0  0  0
  189.1360  173.5380  142.9740 C   0  0  0  0  0  2  0  0  0  0  0  0
  190.3980  174.3240  142.6890 C   0  0  0  0  0  2  0  0  0  0  0  0
  191.0830  172.5560  144.2670 C   0  0  0  0  0  1  0  0  0  0  0  0
  191.5870  173.6620  143.3610 C   0  0  2  0  0  3  0  0  0  0  0  0
  192.2770  174.6110  144.1240 O   0  0  0  0  0  0  0  0  0  0  0  0
  195.0490  176.3920  144.0940 N   0  0  0  0  0  2  0  0  0  0  0  0
  193.7100  173.9300  146.1640 O   0  0  0  0  0  1  0  0  0  0  0  0
  195.1950  175.6090  145.3050 C   0  0  0  0  0  2  0  0  0  0  0  0
  194.1430  175.7310  143.2410 C   0  0  0  0  0  0  0  0  0  0  0  0
  194.4960  174.2600  145.0520 C   0  0  2  0  0  0  0  0  0  0  0  0
  193.8160  176.1920  142.1170 O   0  0  0  0  0  0  0  0  0  0  0  0
  193.6280  174.4580  143.7880 C   0  0  1  0  0  3  0  0  0  0  0  0
  194.9580  171.7680  144.9660 C   0  0  0  0  0  1  0  0  0  0  0  0
  196.7500  173.3010  145.7160 C   0  0  0  0  0  1  0  0  0  0  0  0
  195.5440  173.1620  144.7990 C   0  0  0  0  0  3  0  0  0  0  0  0
  186.7400  176.0880  142.2160 C   0  0  0  0  0  2  0  0  0  0  0  0
  188.0790  177.7950  143.5830 C   0  0  0  0  0  2  0  0  0  0  0  0
  186.6480  178.0020  144.0690 C   0  0  1  0  0  3  0  0  0  0  0  0
  186.9220  177.5500  142.6380 C   0  0  2  0  0  0  0  0  0  0  0  0
  186.0790  178.0040  140.6880 O   0  0  0  0  0  1  0  0  0  0  0  0
  186.7550  178.5580  141.6760 O   0  0  0  0  0  0  0  0  0  0  0  0
  186.2420  176.8570  144.9860 C   0  0  0  0  0  2  0  0  0  0  0  0
  186.6510  177.1390  146.4010 C   0  0  0  0  0  0  0  0  0  0  0  0
  185.9930  177.9310  147.0560 O   0  0  0  0  0  0  0  0  0  0  0  0
  188.3070  175.2980  146.2240 C   0  0  0  0  0  2  0  0  0  0  0  0
  189.2950  177.6390  147.1770 S   0  0  0  0  0  0  0  0  0  0  0  0
  189.7420  175.0330  146.6040 C   0  0  0  0  0  2  0  0  0  0  0  0
  190.4500  176.3700  146.5750 C   0  0  2  0  0  3  0  0  0  0  0  0
  187.8680  176.5060  147.0240 C   0  0  1  0  0  3  0  0  0  0  0  0
  191.5990  175.2760  148.3570 O   0  0  0  0  0  1  0  0  0  0  0  0
  191.6850  176.3370  147.4570 C   0  0  0  0  0  2  0  0  0  0  0  0
  1  2  1  0  0  0  0
  1 18  1  0  0  0  0
  2  3  1  0  0  0  0
  4  3  1  0  0  0  0
  4  6  1  0  0  0  0
  6  7  1  0  0  0  0
  6  5  1  1  0  0  0
  8 10  1  0  0  0  0
 11 14  1  0  0  0  0
 11  8  1  0  0  0  0
 12 10  1  0  0  0  0
 12  9  1  1  0  0  0
 13 11  2  0  0  0  0
 14  7  1  1  0  0  0
 14 12  1  0  0  0  0
 17 15  1  0  0  0  0
 17 12  1  0  0  0  0
 17 16  1  0  0  0  0
 19 20  1  0  0  0  0
 20 24  1  1  0  0  0
 21 18  1  6  0  0  0
 21 19  1  0  0  0  0
 21 20  1  0  0  0  0
 22 23  1  0  0  0  0
 23 21  1  0  0  0  0
 24 25  1  0  0  0  0
 25 26  2  0  0  0  0
 27 29  1  0  0  0  0
 27 31  1  0  0  0  0
 30 29  1  0  0  0  0
 30 28  1  0  0  0  0
 30 33  1  1  0  0  0
 31 25  1  6  0  0  0
 31 28  1  0  0  0  0
 33 32  1  0  0  0  0
M  END
>  <MODEL>
9

>  <REMARK>
 VINA RESULT:      -5.2      2.572      7.711
  Name = 
  14 active torsions:
  status: ('A' for Active; 'I' for Inactive)
    1  A    between atoms: C_4  and  C_9
    2  A    between atoms: C_4  and  C_25
    3  A    between atoms: C_9  and  O_23
    4  A    between atoms: C_10  and  C_25
    5  A    between atoms: C_10  and  C_28
    6  A    between atoms: C_12  and  C_13
    7  A    between atoms: C_12  and  C_30
    8  A    between atoms: C_13  and  C_27
    9  A    between atoms: C_16  and  C_28
   10  A    between atoms: C_16  and  C_31
   11  A    between atoms: C_17  and  C_22
   12  A    between atoms: O_18  and  C_31
   13  A    between atoms: O_23  and  C_33
   14  A    between atoms: C_24  and  C_26
                            x       y       z     vdW  Elec       q    Type
                         _______ _______ _______ _____ _____    ______ ____

>  <TORSDO>
F 14

$$$$
