=
 OpenBabel11062420473D

 45 50  0  0  1  0  0  0  0  0999 V2000
  189.3360  173.4930  141.9250 C   0  0  1  0  0  3  0  0  0  0  0  0
  191.6270  172.4550  140.5830 C   0  0  2  0  0  3  0  0  0  0  0  0
  189.3150  176.2450  143.1410 C   0  0  1  0  0  0  0  0  0  0  0  0
  192.5560  173.3470  142.6980 C   0  0  0  0  0  1  0  0  0  0  0  0
  190.3210  172.4360  139.7740 C   0  0  1  0  0  3  0  0  0  0  0  0
  190.6310  175.5040  142.8260 C   0  0  0  0  0  2  0  0  0  0  0  0
  188.0410  174.2390  142.2240 C   0  0  0  0  0  2  0  0  0  0  0  0
  189.1030  172.5960  140.6990 C   0  0  0  0  0  2  0  0  0  0  0  0
  188.2190  175.1920  143.4050 C   0  0  0  0  0  2  0  0  0  0  0  0
  190.4980  174.4740  141.6950 C   0  0  1  0  0  3  0  0  0  0  0  0
  191.8240  173.7290  141.4180 C   0  0  2  0  0  3  0  0  0  0  0  0
  192.7390  172.2250  139.7670 O   0  0  0  0  0  1  0  0  0  0  0  0
  190.9050  177.0670  145.0020 C   0  0  0  0  0  2  0  0  0  0  0  0
  189.4300  176.2520  146.7260 C   0  0  0  0  0  2  0  0  0  0  0  0
  189.4910  177.1150  144.4210 C   0  0  2  0  0  3  0  0  0  0  0  0
  188.5600  176.6940  145.5610 C   0  0  0  0  0  2  0  0  0  0  0  0
  190.8220  176.0990  146.1610 C   0  0  2  0  0  3  0  0  0  0  0  0
  191.9040  176.3310  147.2100 C   0  0  0  0  0  2  0  0  0  0  0  0
  193.1350  176.7150  146.6200 O   0  0  0  0  0  0  0  0  0  0  0  0
  197.4180  173.0570  144.2710 C   0  0  0  0  0  1  0  0  0  0  0  0
  195.0400  175.8150  143.0860 C   0  0  0  0  0  0  0  0  0  0  0  0
  196.1600  173.8910  144.2470 C   0  0  2  0  0  3  0  0  0  0  0  0
  194.8280  175.5530  145.5170 C   0  0  0  0  0  0  0  0  0  0  0  0
  196.2160  174.8770  143.0780 C   0  0  0  0  0  2  0  0  0  0  0  0
  194.6170  176.3830  141.8950 O   0  0  0  0  0  1  0  0  0  0  0  0
  196.0100  174.6350  145.5670 C   0  0  0  0  0  2  0  0  0  0  0  0
  194.4190  176.1410  144.2220 C   0  0  0  0  0  3  0  0  0  0  0  0
  194.2050  175.8500  146.6120 N   0  0  0  0  0  0  0  0  0  0  0  0
  188.9030  177.1180  141.9280 C   0  0  2  0  0  3  0  0  0  0  0  0
  189.3080  178.4520  142.0400 O   0  0  0  0  0  1  0  0  0  0  0  0
  187.4360  176.9680  141.4970 C   0  0  0  0  0  2  0  0  0  0  0  0
  185.1730  177.9030  141.3730 C   0  0  0  0  0  2  0  0  0  0  0  0
  185.2920  177.2830  142.7550 C   0  0  1  0  0  3  0  0  0  0  0  0
  186.4860  177.9830  142.1200 C   0  0  1  0  0  3  0  0  0  0  0  0
  184.5210  178.1850  143.7250 C   0  0  0  0  0  2  0  0  0  0  0  0
  185.0490  178.1440  145.1310 C   0  0  0  0  0  0  0  0  0  0  0  0
  186.1420  179.2330  147.0070 C   0  0  0  0  0  3  0  0  0  0  0  0
  185.6630  179.2780  145.6930 C   0  0  0  0  0  0  0  0  0  0  0  0
  185.8000  180.4190  144.9720 F   0  0  0  0  0  0  0  0  0  0  0  0
  184.9240  176.9740  145.8880 C   0  0  0  0  0  3  0  0  0  0  0  0
  185.4030  176.9320  147.2000 C   0  0  0  0  0  3  0  0  0  0  0  0
  186.0110  178.0630  147.7610 C   0  0  0  0  0  3  0  0  0  0  0  0
  190.2910  173.5000  138.6760 C   0  0  0  0  0  2  0  0  0  0  0  0
  188.8640  173.7950  138.2350 C   0  0  0  0  0  2  0  0  0  0  0  0
  188.8180  173.9330  136.8490 O   0  0  0  0  0  1  0  0  0  0  0  0
  1  8  1  6  0  0  0
  1  7  1  0  0  0  0
  2 12  1  6  0  0  0
  2 11  1  0  0  0  0
  3 29  1  6  0  0  0
  3  9  1  0  0  0  0
  3 15  1  0  0  0  0
  5 43  1  6  0  0  0
  5  2  1  0  0  0  0
  5  8  1  0  0  0  0
  6  3  1  0  0  0  0
  7  9  1  0  0  0  0
 10  1  1  0  0  0  0
 10  6  1  1  0  0  0
 11 10  1  0  0  0  0
 11  4  1  1  0  0  0
 13 17  1  0  0  0  0
 15 13  1  1  0  0  0
 15 16  1  0  0  0  0
 16 14  1  0  0  0  0
 17 14  1  0  0  0  0
 17 18  1  1  0  0  0
 19 18  1  0  0  0  0
 21 27  2  0  0  0  0
 22 20  1  1  0  0  0
 22 26  1  0  0  0  0
 23 26  1  0  0  0  0
 23 28  2  0  0  0  0
 24 21  1  0  0  0  0
 24 22  1  0  0  0  0
 25 21  1  0  0  0  0
 27 23  1  0  0  0  0
 28 19  1  0  0  0  0
 29 30  1  1  0  0  0
 31 29  1  0  0  0  0
 32 34  1  0  0  0  0
 32 33  1  0  0  0  0
 33 35  1  1  0  0  0
 34 31  1  6  0  0  0
 34 33  1  0  0  0  0
 35 36  1  0  0  0  0
 36 38  2  0  0  0  0
 36 40  1  0  0  0  0
 37 42  2  0  0  0  0
 38 37  1  0  0  0  0
 39 38  1  0  0  0  0
 40 41  2  0  0  0  0
 41 42  1  0  0  0  0
 44 43  1  0  0  0  0
 45 44  1  0  0  0  0
M  END
>  <MODEL>
1

>  <REMARK>
 VINA RESULT:      -8.2      0.000      0.000
  Name = 
  11 active torsions:
  status: ('A' for Active; 'I' for Inactive)
    1  A    between atoms: C_3  and  C_8
    2  A    between atoms: C_3  and  C_23
    3  A    between atoms: C_4  and  C_7
    4  A    between atoms: C_6  and  C_8
    5  A    between atoms: C_6  and  C_28
    6  A    between atoms: C_7  and  C_25
    7  A    between atoms: O_10  and  C_31
    8  A    between atoms: O_10  and  N_43
    9  A    between atoms: C_15  and  C_26
   10  A    between atoms: C_16  and  C_26
   11  A    between atoms: C_29  and  C_31
                            x       y       z     vdW  Elec       q    Type
                         _______ _______ _______ _____ _____    ______ ____

>  <TORSDO>
F 11

$$$$
=
 OpenBabel11062420473D

 45 50  0  0  1  0  0  0  0  0999 V2000
  186.9600  176.1040  146.0250 C   0  0  1  0  0  3  0  0  0  0  0  0
  185.0260  177.7270  144.7010 C   0  0  2  0  0  3  0  0  0  0  0  0
  189.7800  175.8380  145.0090 C   0  0  1  0  0  0  0  0  0  0  0  0
  186.0140  176.3950  142.8610 C   0  0  0  0  0  1  0  0  0  0  0  0
  185.2340  178.0300  146.1920 C   0  0  1  0  0  3  0  0  0  0  0  0
  188.6280  176.3170  144.1000 C   0  0  0  0  0  2  0  0  0  0  0  0
  188.1050  175.6460  146.9190 C   0  0  0  0  0  2  0  0  0  0  0  0
  185.9410  176.8580  146.8940 C   0  0  0  0  0  2  0  0  0  0  0  0
  189.1840  174.9320  146.1050 C   0  0  0  0  0  2  0  0  0  0  0  0
  187.4760  176.9790  144.8690 C   0  0  1  0  0  3  0  0  0  0  0  0
  186.3260  177.4260  143.9390 C   0  0  2  0  0  3  0  0  0  0  0  0
  184.3090  178.7460  144.0660 O   0  0  0  0  0  1  0  0  0  0  0  0
  190.4250  174.8840  142.6980 C   0  0  0  0  0  2  0  0  0  0  0  0
  190.5250  172.6390  143.5700 C   0  0  0  0  0  2  0  0  0  0  0  0
  190.8010  175.0090  144.1750 C   0  0  2  0  0  3  0  0  0  0  0  0
  190.9610  173.5740  144.6850 C   0  0  0  0  0  2  0  0  0  0  0  0
  189.8110  173.5080  142.5630 C   0  0  2  0  0  3  0  0  0  0  0  0
  189.9020  172.9520  141.1460 C   0  0  0  0  0  2  0  0  0  0  0  0
  191.1870  173.1560  140.5820 O   0  0  0  0  0  0  0  0  0  0  0  0
  196.9310  171.7170  142.0570 C   0  0  0  0  0  1  0  0  0  0  0  0
  194.7340  174.8440  141.8050 C   0  0  0  0  0  0  0  0  0  0  0  0
  195.8300  172.6020  141.5250 C   0  0  2  0  0  3  0  0  0  0  0  0
  193.3700  172.8580  141.3410 C   0  0  0  0  0  0  0  0  0  0  0  0
  195.8880  173.9680  142.2120 C   0  0  0  0  0  2  0  0  0  0  0  0
  194.8740  176.2210  141.8620 O   0  0  0  0  0  1  0  0  0  0  0  0
  194.4790  171.9410  141.7610 C   0  0  0  0  0  2  0  0  0  0  0  0
  193.5650  174.3220  141.4260 C   0  0  0  0  0  3  0  0  0  0  0  0
  192.2450  172.3550  140.9460 N   0  0  0  0  0  0  0  0  0  0  0  0
  190.4650  177.0600  145.6730 C   0  0  2  0  0  3  0  0  0  0  0  0
  190.7360  178.1000  144.7780 O   0  0  0  0  0  1  0  0  0  0  0  0
  191.6600  176.7140  146.5740 C   0  0  0  0  0  2  0  0  0  0  0  0
  194.0670  177.1140  146.8210 C   0  0  0  0  0  2  0  0  0  0  0  0
  193.9200  175.6340  146.5150 C   0  0  1  0  0  3  0  0  0  0  0  0
  193.0010  176.6510  145.8530 C   0  0  1  0  0  3  0  0  0  0  0  0
  195.1020  175.2350  145.6250 C   0  0  0  0  0  2  0  0  0  0  0  0
  195.3710  173.7570  145.6100 C   0  0  0  0  0  0  0  0  0  0  0  0
  196.9230  171.8930  145.7360 C   0  0  0  0  0  3  0  0  0  0  0  0
  196.6850  173.2720  145.7400 C   0  0  0  0  0  0  0  0  0  0  0  0
  197.7290  174.1280  145.8670 F   0  0  0  0  0  0  0  0  0  0  0  0
  194.3080  172.8580  145.4730 C   0  0  0  0  0  3  0  0  0  0  0  0
  194.5490  171.4810  145.4680 C   0  0  0  0  0  3  0  0  0  0  0  0
  195.8570  170.9970  145.6010 C   0  0  0  0  0  3  0  0  0  0  0  0
  186.0070  179.3280  146.4290 C   0  0  0  0  0  2  0  0  0  0  0  0
  186.5620  179.3860  147.8450 C   0  0  0  0  0  2  0  0  0  0  0  0
  186.3010  180.6370  148.4020 O   0  0  0  0  0  1  0  0  0  0  0  0
  1  8  1  1  0  0  0
  1  7  1  0  0  0  0
  2 12  1  6  0  0  0
  2  5  1  0  0  0  0
  3 29  1  1  0  0  0
  3  9  1  0  0  0  0
  5 43  1  6  0  0  0
  5  8  1  0  0  0  0
  6  3  1  0  0  0  0
  9  7  1  0  0  0  0
 10  6  1  6  0  0  0
 10  1  1  0  0  0  0
 11  4  1  6  0  0  0
 11  2  1  0  0  0  0
 11 10  1  0  0  0  0
 14 16  1  0  0  0  0
 15 13  1  6  0  0  0
 15 16  1  0  0  0  0
 15  3  1  0  0  0  0
 17 18  1  6  0  0  0
 17 13  1  0  0  0  0
 17 14  1  0  0  0  0
 19 28  1  0  0  0  0
 19 18  1  0  0  0  0
 21 25  1  0  0  0  0
 21 24  1  0  0  0  0
 22 26  1  0  0  0  0
 22 20  1  1  0  0  0
 22 24  1  0  0  0  0
 23 27  1  0  0  0  0
 23 26  1  0  0  0  0
 27 21  2  0  0  0  0
 28 23  2  0  0  0  0
 29 30  1  6  0  0  0
 29 31  1  0  0  0  0
 33 35  1  6  0  0  0
 33 32  1  0  0  0  0
 34 33  1  0  0  0  0
 34 31  1  1  0  0  0
 34 32  1  0  0  0  0
 36 35  1  0  0  0  0
 36 38  1  0  0  0  0
 37 38  2  0  0  0  0
 38 39  1  0  0  0  0
 40 36  2  0  0  0  0
 41 40  1  0  0  0  0
 41 42  2  0  0  0  0
 42 37  1  0  0  0  0
 43 44  1  0  0  0  0
 44 45  1  0  0  0  0
M  END
>  <MODEL>
2

>  <REMARK>
 VINA RESULT:      -8.2      3.119      7.873
  Name = 
  11 active torsions:
  status: ('A' for Active; 'I' for Inactive)
    1  A    between atoms: C_3  and  C_8
    2  A    between atoms: C_3  and  C_23
    3  A    between atoms: C_4  and  C_7
    4  A    between atoms: C_6  and  C_8
    5  A    between atoms: C_6  and  C_28
    6  A    between atoms: C_7  and  C_25
    7  A    between atoms: O_10  and  C_31
    8  A    between atoms: O_10  and  N_43
    9  A    between atoms: C_15  and  C_26
   10  A    between atoms: C_16  and  C_26
   11  A    between atoms: C_29  and  C_31
                            x       y       z     vdW  Elec       q    Type
                         _______ _______ _______ _____ _____    ______ ____

>  <TORSDO>
F 11

$$$$
=
 OpenBabel11062420473D

 45 50  0  0  1  0  0  0  0  0999 V2000
  187.0810  178.4990  143.2930 C   0  0  1  0  0  3  0  0  0  0  0  0
  184.8970  178.7810  145.1020 C   0  0  2  0  0  3  0  0  0  0  0  0
  188.5590  175.8970  142.9730 C   0  0  1  0  0  0  0  0  0  0  0  0
  186.6390  177.6760  146.4730 C   0  0  0  0  0  1  0  0  0  0  0  0
  184.6070  179.1830  143.6480 C   0  0  1  0  0  3  0  0  0  0  0  0
  187.7080  176.2030  144.2240 C   0  0  0  0  0  2  0  0  0  0  0  0
  187.9110  178.1830  142.0540 C   0  0  0  0  0  2  0  0  0  0  0  0
  185.9160  179.4090  142.8730 C   0  0  0  0  0  2  0  0  0  0  0  0
  189.0600  177.2350  142.3920 C   0  0  0  0  0  2  0  0  0  0  0  0
  186.5790  177.2100  143.9650 C   0  0  1  0  0  3  0  0  0  0  0  0
  185.7590  177.5170  145.2390 C   0  0  2  0  0  3  0  0  0  0  0  0
  183.7180  178.6530  145.8430 O   0  0  0  0  0  1  0  0  0  0  0  0
  190.0320  174.9680  144.8790 C   0  0  0  0  0  2  0  0  0  0  0  0
  192.0210  175.9230  143.9080 C   0  0  0  0  0  2  0  0  0  0  0  0
  189.7910  175.0310  143.3700 C   0  0  2  0  0  3  0  0  0  0  0  0
  191.1000  175.5410  142.7620 C   0  0  0  0  0  2  0  0  0  0  0  0
  191.1490  175.9530  145.1400 C   0  0  2  0  0  3  0  0  0  0  0  0
  191.9310  175.6450  146.4130 C   0  0  0  0  0  2  0  0  0  0  0  0
  193.3200  175.8750  146.2460 O   0  0  0  0  0  0  0  0  0  0  0  0
  197.9410  172.2730  144.5370 C   0  0  0  0  0  1  0  0  0  0  0  0
  196.5610  175.7500  143.7150 C   0  0  0  0  0  0  0  0  0  0  0  0
  196.8930  173.3440  144.3520 C   0  0  2  0  0  3  0  0  0  0  0  0
  195.2460  174.7680  145.5390 C   0  0  0  0  0  0  0  0  0  0  0  0
  197.5440  174.6130  143.7990 C   0  0  0  0  0  2  0  0  0  0  0  0
  196.7680  176.7590  142.7880 O   0  0  0  0  0  1  0  0  0  0  0  0
  196.2090  173.6290  145.6820 C   0  0  0  0  0  2  0  0  0  0  0  0
  195.5130  175.8250  144.5390 C   0  0  0  0  0  3  0  0  0  0  0  0
  194.2140  174.8310  146.3180 N   0  0  0  0  0  0  0  0  0  0  0  0
  187.6890  175.1740  141.9130 C   0  0  2  0  0  3  0  0  0  0  0  0
  187.0540  174.0280  142.4020 O   0  0  0  0  0  1  0  0  0  0  0  0
  188.3810  174.9490  140.5600 C   0  0  0  0  0  2  0  0  0  0  0  0
  189.6230  173.5100  139.0100 C   0  0  0  0  0  2  0  0  0  0  0  0
  190.4740  173.6020  140.2650 C   0  0  1  0  0  3  0  0  0  0  0  0
  188.9550  173.5510  140.3670 C   0  0  1  0  0  3  0  0  0  0  0  0
  191.1290  172.2330  140.4710 C   0  0  0  0  0  2  0  0  0  0  0  0
  191.8370  172.0970  141.7890 C   0  0  0  0  0  0  0  0  0  0  0  0
  191.7840  171.6520  144.1760 C   0  0  0  0  0  3  0  0  0  0  0  0
  191.1140  171.7870  142.9550 C   0  0  0  0  0  0  0  0  0  0  0  0
  189.7690  171.6200  142.9110 F   0  0  0  0  0  0  0  0  0  0  0  0
  193.2230  172.2730  141.8560 C   0  0  0  0  0  3  0  0  0  0  0  0
  193.8900  172.1380  143.0770 C   0  0  0  0  0  3  0  0  0  0  0  0
  193.1710  171.8250  144.2380 C   0  0  0  0  0  3  0  0  0  0  0  0
  183.7330  178.1630  142.9160 C   0  0  0  0  0  2  0  0  0  0  0  0
  184.0040  178.1810  141.4190 C   0  0  0  0  0  2  0  0  0  0  0  0
  182.8840  178.6610  140.7420 O   0  0  0  0  0  1  0  0  0  0  0  0
  1  7  1  6  0  0  0
  1 10  1  0  0  0  0
  2 11  1  0  0  0  0
  2 12  1  1  0  0  0
  3 29  1  6  0  0  0
  3 15  1  0  0  0  0
  3  6  1  0  0  0  0
  5 43  1  6  0  0  0
  5  2  1  0  0  0  0
  7  9  1  0  0  0  0
  8  1  1  0  0  0  0
  8  5  1  0  0  0  0
  9  3  1  0  0  0  0
 10  6  1  1  0  0  0
 10 11  1  0  0  0  0
 11  4  1  1  0  0  0
 13 17  1  0  0  0  0
 14 17  1  0  0  0  0
 15 16  1  6  0  0  0
 15 13  1  0  0  0  0
 16 14  1  0  0  0  0
 17 18  1  1  0  0  0
 19 28  1  0  0  0  0
 19 18  1  0  0  0  0
 21 24  1  0  0  0  0
 21 27  2  0  0  0  0
 22 20  1  1  0  0  0
 22 26  1  0  0  0  0
 23 26  1  0  0  0  0
 23 28  2  0  0  0  0
 24 22  1  0  0  0  0
 25 21  1  0  0  0  0
 27 23  1  0  0  0  0
 29 30  1  1  0  0  0
 31 29  1  0  0  0  0
 32 33  1  0  0  0  0
 32 34  1  0  0  0  0
 33 34  1  0  0  0  0
 33 35  1  1  0  0  0
 34 31  1  6  0  0  0
 35 36  1  0  0  0  0
 36 40  2  0  0  0  0
 36 38  1  0  0  0  0
 37 42  1  0  0  0  0
 38 37  2  0  0  0  0
 39 38  1  0  0  0  0
 40 41  1  0  0  0  0
 41 42  2  0  0  0  0
 44 43  1  0  0  0  0
 45 44  1  0  0  0  0
M  END
>  <MODEL>
3

>  <REMARK>
 VINA RESULT:      -8.0      2.530      6.439
  Name = 
  11 active torsions:
  status: ('A' for Active; 'I' for Inactive)
    1  A    between atoms: C_3  and  C_8
    2  A    between atoms: C_3  and  C_23
    3  A    between atoms: C_4  and  C_7
    4  A    between atoms: C_6  and  C_8
    5  A    between atoms: C_6  and  C_28
    6  A    between atoms: C_7  and  C_25
    7  A    between atoms: O_10  and  C_31
    8  A    between atoms: O_10  and  N_43
    9  A    between atoms: C_15  and  C_26
   10  A    between atoms: C_16  and  C_26
   11  A    between atoms: C_29  and  C_31
                            x       y       z     vdW  Elec       q    Type
                         _______ _______ _______ _____ _____    ______ ____

>  <TORSDO>
F 11

$$$$
=
 OpenBabel11062420473D

 45 50  0  0  1  0  0  0  0  0999 V2000
  190.9680  171.1320  143.1380 C   0  0  1  0  0  3  0  0  0  0  0  0
  193.6610  170.2430  142.8530 C   0  0  2  0  0  3  0  0  0  0  0  0
  190.2920  174.0080  143.7070 C   0  0  1  0  0  0  0  0  0  0  0  0
  193.7170  171.5860  144.9340 C   0  0  0  0  0  1  0  0  0  0  0  0
  192.7260  169.9040  141.6830 C   0  0  1  0  0  3  0  0  0  0  0  0
  191.6930  173.4280  143.9940 C   0  0  0  0  0  2  0  0  0  0  0  0
  189.5910  171.7160  142.8430 C   0  0  0  0  0  2  0  0  0  0  0  0
  191.2530  170.0280  142.1080 C   0  0  0  0  0  2  0  0  0  0  0  0
  189.2660  172.8600  143.8020 C   0  0  0  0  0  2  0  0  0  0  0  0
  192.0500  172.2250  143.1100 C   0  0  1  0  0  3  0  0  0  0  0  0
  193.4460  171.6490  143.4350 C   0  0  2  0  0  3  0  0  0  0  0  0
  195.0030  170.0540  142.5080 O   0  0  0  0  0  1  0  0  0  0  0  0
  191.1160  175.9820  145.1530 C   0  0  0  0  0  2  0  0  0  0  0  0
  190.4100  174.8890  147.1810 C   0  0  0  0  0  2  0  0  0  0  0  0
  189.9370  175.0860  144.7740 C   0  0  2  0  0  3  0  0  0  0  0  0
  189.4360  174.4810  146.0890 C   0  0  0  0  0  2  0  0  0  0  0  0
  191.6240  175.4310  146.4660 C   0  0  2  0  0  3  0  0  0  0  0  0
  192.3750  176.4660  147.2970 C   0  0  0  0  0  2  0  0  0  0  0  0
  193.6020  176.8370  146.6910 O   0  0  0  0  0  0  0  0  0  0  0  0
  197.4330  172.9720  143.9280 C   0  0  0  0  0  1  0  0  0  0  0  0
  195.0560  175.8220  142.9790 C   0  0  0  0  0  0  0  0  0  0  0  0
  196.2170  173.8600  144.0330 C   0  0  2  0  0  3  0  0  0  0  0  0
  195.1090  175.5920  145.4210 C   0  0  0  0  0  0  0  0  0  0  0  0
  196.1830  174.8320  142.8520 C   0  0  0  0  0  2  0  0  0  0  0  0
  194.5260  176.3960  141.8350 O   0  0  0  0  0  1  0  0  0  0  0  0
  196.2490  174.6220  145.3520 C   0  0  0  0  0  2  0  0  0  0  0  0
  194.5810  176.1850  144.1720 C   0  0  0  0  0  3  0  0  0  0  0  0
  194.6270  175.9260  146.5750 N   0  0  0  0  0  0  0  0  0  0  0  0
  190.2560  174.6080  142.2770 C   0  0  2  0  0  3  0  0  0  0  0  0
  191.2400  175.5760  142.0570 O   0  0  0  0  0  1  0  0  0  0  0  0
  188.8620  175.0430  141.7980 C   0  0  0  0  0  2  0  0  0  0  0  0
  187.4600  176.9060  141.0400 C   0  0  0  0  0  2  0  0  0  0  0  0
  187.1210  176.7000  142.5060 C   0  0  1  0  0  3  0  0  0  0  0  0
  188.5510  176.5180  142.0140 C   0  0  1  0  0  3  0  0  0  0  0  0
  186.8730  178.0850  143.1130 C   0  0  0  0  0  2  0  0  0  0  0  0
  186.4950  178.0450  144.5660 C   0  0  0  0  0  0  0  0  0  0  0  0
  185.5220  179.1040  146.5230 C   0  0  0  0  0  3  0  0  0  0  0  0
  185.8810  179.1560  145.1720 C   0  0  0  0  0  0  0  0  0  0  0  0
  185.6350  180.2840  144.4600 F   0  0  0  0  0  0  0  0  0  0  0  0
  186.7460  176.8930  145.3200 C   0  0  0  0  0  3  0  0  0  0  0  0
  186.3880  176.8440  146.6700 C   0  0  0  0  0  3  0  0  0  0  0  0
  185.7730  177.9500  147.2720 C   0  0  0  0  0  3  0  0  0  0  0  0
  192.9900  170.7650  140.4470 C   0  0  0  0  0  2  0  0  0  0  0  0
  191.7410  170.8880  139.5850 C   0  0  0  0  0  2  0  0  0  0  0  0
  191.5510  172.2190  139.2170 O   0  0  0  0  0  1  0  0  0  0  0  0
  1  8  1  6  0  0  0
  2 12  1  6  0  0  0
  2 11  1  0  0  0  0
  3 29  1  6  0  0  0
  3  9  1  0  0  0  0
  3  6  1  0  0  0  0
  3 15  1  0  0  0  0
  5 43  1  6  0  0  0
  5  8  1  0  0  0  0
  5  2  1  0  0  0  0
  7  1  1  0  0  0  0
  7  9  1  0  0  0  0
 10  1  1  0  0  0  0
 10 11  1  0  0  0  0
 10  6  1  1  0  0  0
 11  4  1  1  0  0  0
 13 17  1  0  0  0  0
 15 13  1  1  0  0  0
 15 16  1  0  0  0  0
 16 14  1  0  0  0  0
 17 14  1  0  0  0  0
 17 18  1  1  0  0  0
 19 18  1  0  0  0  0
 21 27  2  0  0  0  0
 22 20  1  6  0  0  0
 22 26  1  0  0  0  0
 23 28  2  0  0  0  0
 24 21  1  0  0  0  0
 24 22  1  0  0  0  0
 25 21  1  0  0  0  0
 26 23  1  0  0  0  0
 27 23  1  0  0  0  0
 28 19  1  0  0  0  0
 29 30  1  1  0  0  0
 31 29  1  0  0  0  0
 32 34  1  0  0  0  0
 32 33  1  0  0  0  0
 33 35  1  1  0  0  0
 34 31  1  6  0  0  0
 34 33  1  0  0  0  0
 35 36  1  0  0  0  0
 36 38  2  0  0  0  0
 36 40  1  0  0  0  0
 37 42  2  0  0  0  0
 38 37  1  0  0  0  0
 39 38  1  0  0  0  0
 40 41  2  0  0  0  0
 41 42  1  0  0  0  0
 44 43  1  0  0  0  0
 45 44  1  0  0  0  0
M  END
>  <MODEL>
4

>  <REMARK>
 VINA RESULT:      -8.0      1.706      2.385
  Name = 
  11 active torsions:
  status: ('A' for Active; 'I' for Inactive)
    1  A    between atoms: C_3  and  C_8
    2  A    between atoms: C_3  and  C_23
    3  A    between atoms: C_4  and  C_7
    4  A    between atoms: C_6  and  C_8
    5  A    between atoms: C_6  and  C_28
    6  A    between atoms: C_7  and  C_25
    7  A    between atoms: O_10  and  C_31
    8  A    between atoms: O_10  and  N_43
    9  A    between atoms: C_15  and  C_26
   10  A    between atoms: C_16  and  C_26
   11  A    between atoms: C_29  and  C_31
                            x       y       z     vdW  Elec       q    Type
                         _______ _______ _______ _____ _____    ______ ____

>  <TORSDO>
F 11

$$$$
=
 OpenBabel11062420473D

 45 50  0  0  1  0  0  0  0  0999 V2000
  186.8490  176.3270  146.4130 C   0  0  1  0  0  3  0  0  0  0  0  0
  184.8350  178.2290  145.7400 C   0  0  2  0  0  3  0  0  0  0  0  0
  189.4030  176.0890  144.8410 C   0  0  1  0  0  0  0  0  0  0  0  0
  185.3600  177.1570  143.5700 C   0  0  0  0  0  1  0  0  0  0  0  0
  185.3380  178.2830  147.1910 C   0  0  1  0  0  3  0  0  0  0  0  0
  188.1440  176.7600  144.2530 C   0  0  0  0  0  2  0  0  0  0  0  0
  188.1010  175.6800  146.9920 C   0  0  0  0  0  2  0  0  0  0  0  0
  186.0700  176.9830  147.5640 C   0  0  0  0  0  2  0  0  0  0  0  0
  188.9520  175.0520  145.8890 C   0  0  0  0  0  2  0  0  0  0  0  0
  187.2080  177.3470  145.3190 C   0  0  1  0  0  3  0  0  0  0  0  0
  185.9450  177.9900  144.7050 C   0  0  2  0  0  3  0  0  0  0  0  0
  184.0940  179.3690  145.4120 O   0  0  0  0  0  1  0  0  0  0  0  0
  189.4590  175.3500  142.3680 C   0  0  0  0  0  2  0  0  0  0  0  0
  189.7600  173.0400  142.9870 C   0  0  0  0  0  2  0  0  0  0  0  0
  190.1860  175.3530  143.7130 C   0  0  2  0  0  3  0  0  0  0  0  0
  190.4600  173.8820  144.0400 C   0  0  0  0  0  2  0  0  0  0  0  0
  188.8250  173.9810  142.2660 C   0  0  2  0  0  3  0  0  0  0  0  0
  188.5630  173.5510  140.8260 C   0  0  0  0  0  2  0  0  0  0  0  0
  189.6080  173.9580  139.9580 O   0  0  0  0  0  0  0  0  0  0  0  0
  190.1020  171.1860  134.5430 C   0  0  0  0  0  1  0  0  0  0  0  0
  190.2430  170.2660  138.2590 C   0  0  0  0  0  0  0  0  0  0  0  0
  190.3760  171.3850  136.0140 C   0  0  2  0  0  3  0  0  0  0  0  0
  189.6770  172.6420  138.0350 C   0  0  0  0  0  0  0  0  0  0  0  0
  190.1050  170.0830  136.7710 C   0  0  0  0  0  2  0  0  0  0  0  0
  190.5720  169.1760  139.0480 O   0  0  0  0  0  1  0  0  0  0  0  0
  189.5000  172.5090  136.5530 C   0  0  0  0  0  2  0  0  0  0  0  0
  190.0210  171.4480  138.8370 C   0  0  0  0  0  3  0  0  0  0  0  0
  189.4890  173.7930  138.5970 N   0  0  0  0  0  0  0  0  0  0  0  0
  190.2920  177.1570  145.5290 C   0  0  2  0  0  3  0  0  0  0  0  0
  190.7660  178.1360  144.6500 O   0  0  0  0  0  1  0  0  0  0  0  0
  191.3870  176.5880  146.4450 C   0  0  0  0  0  2  0  0  0  0  0  0
  193.7930  176.4390  146.8920 C   0  0  0  0  0  2  0  0  0  0  0  0
  193.4210  175.1470  146.1840 C   0  0  1  0  0  3  0  0  0  0  0  0
  192.7570  176.4600  145.7900 C   0  0  1  0  0  3  0  0  0  0  0  0
  194.5930  174.7770  145.2690 C   0  0  0  0  0  2  0  0  0  0  0  0
  195.0560  173.3570  145.4310 C   0  0  0  0  0  0  0  0  0  0  0  0
  196.8330  171.7490  145.8280 C   0  0  0  0  0  3  0  0  0  0  0  0
  196.4140  173.0740  145.6680 C   0  0  0  0  0  0  0  0  0  0  0  0
  197.3260  174.0750  145.7380 F   0  0  0  0  0  0  0  0  0  0  0  0
  194.1310  172.3100  145.3550 C   0  0  0  0  0  3  0  0  0  0  0  0
  194.5530  170.9870  145.5150 C   0  0  0  0  0  3  0  0  0  0  0  0
  195.9040  170.7060  145.7530 C   0  0  0  0  0  3  0  0  0  0  0  0
  186.2400  179.4890  147.4590 C   0  0  0  0  0  2  0  0  0  0  0  0
  187.0640  179.2890  148.7220 C   0  0  0  0  0  2  0  0  0  0  0  0
  188.4160  179.2030  148.3940 O   0  0  0  0  0  1  0  0  0  0  0  0
  1  7  1  1  0  0  0
  1  8  1  0  0  0  0
  2 12  1  6  0  0  0
  2  5  1  0  0  0  0
  3 29  1  1  0  0  0
  3  9  1  0  0  0  0
  5 43  1  6  0  0  0
  5  8  1  0  0  0  0
  6  3  1  0  0  0  0
  9  7  1  0  0  0  0
 10  6  1  6  0  0  0
 10  1  1  0  0  0  0
 11  4  1  6  0  0  0
 11 10  1  0  0  0  0
 11  2  1  0  0  0  0
 14 16  1  0  0  0  0
 15 13  1  6  0  0  0
 15 16  1  0  0  0  0
 15  3  1  0  0  0  0
 17 18  1  6  0  0  0
 17 13  1  0  0  0  0
 17 14  1  0  0  0  0
 19 18  1  0  0  0  0
 21 27  2  0  0  0  0
 21 25  1  0  0  0  0
 22 20  1  6  0  0  0
 22 26  1  0  0  0  0
 22 24  1  0  0  0  0
 23 28  2  0  0  0  0
 23 27  1  0  0  0  0
 24 21  1  0  0  0  0
 26 23  1  0  0  0  0
 28 19  1  0  0  0  0
 29 30  1  6  0  0  0
 29 31  1  0  0  0  0
 33 35  1  6  0  0  0
 33 32  1  0  0  0  0
 34 33  1  0  0  0  0
 34 31  1  1  0  0  0
 34 32  1  0  0  0  0
 35 36  1  0  0  0  0
 36 38  1  0  0  0  0
 38 39  1  0  0  0  0
 38 37  2  0  0  0  0
 40 36  2  0  0  0  0
 40 41  1  0  0  0  0
 41 42  2  0  0  0  0
 42 37  1  0  0  0  0
 43 44  1  0  0  0  0
 45 44  1  0  0  0  0
M  END
>  <MODEL>
5

>  <REMARK>
 VINA RESULT:      -7.6      3.380      9.013
  Name = 
  11 active torsions:
  status: ('A' for Active; 'I' for Inactive)
    1  A    between atoms: C_3  and  C_8
    2  A    between atoms: C_3  and  C_23
    3  A    between atoms: C_4  and  C_7
    4  A    between atoms: C_6  and  C_8
    5  A    between atoms: C_6  and  C_28
    6  A    between atoms: C_7  and  C_25
    7  A    between atoms: O_10  and  C_31
    8  A    between atoms: O_10  and  N_43
    9  A    between atoms: C_15  and  C_26
   10  A    between atoms: C_16  and  C_26
   11  A    between atoms: C_29  and  C_31
                            x       y       z     vdW  Elec       q    Type
                         _______ _______ _______ _____ _____    ______ ____

>  <TORSDO>
F 11

$$$$
=
 OpenBabel11062420473D

 45 50  0  0  1  0  0  0  0  0999 V2000
  191.0980  172.3590  142.0970 C   0  0  1  0  0  3  0  0  0  0  0  0
  192.9160  173.0270  140.0060 C   0  0  2  0  0  3  0  0  0  0  0  0
  189.4370  174.4460  143.4910 C   0  0  1  0  0  0  0  0  0  0  0  0
  193.4530  174.6700  141.7790 C   0  0  0  0  0  1  0  0  0  0  0  0
  191.8780  171.9480  139.6610 C   0  0  1  0  0  3  0  0  0  0  0  0
  190.7150  174.8110  142.7060 C   0  0  0  0  0  2  0  0  0  0  0  0
  189.8270  172.0080  142.8610 C   0  0  0  0  0  2  0  0  0  0  0  0
  191.2550  171.3620  140.9380 C   0  0  0  0  0  2  0  0  0  0  0  0
  189.5820  172.9970  144.0000 C   0  0  0  0  0  2  0  0  0  0  0  0
  191.0570  173.8110  141.5930 C   0  0  1  0  0  3  0  0  0  0  0  0
  192.3540  174.1880  140.8410 C   0  0  2  0  0  3  0  0  0  0  0  0
  193.5530  173.5100  138.8590 O   0  0  0  0  0  1  0  0  0  0  0  0
  190.4550  176.3540  144.9010 C   0  0  0  0  0  2  0  0  0  0  0  0
  190.3300  175.0340  146.9140 C   0  0  0  0  0  2  0  0  0  0  0  0
  189.2800  175.3930  144.7170 C   0  0  2  0  0  3  0  0  0  0  0  0
  189.1510  174.6370  146.0420 C   0  0  0  0  0  2  0  0  0  0  0  0
  191.2990  175.7390  145.9950 C   0  0  2  0  0  3  0  0  0  0  0  0
  192.1590  176.7620  146.7300 C   0  0  0  0  0  2  0  0  0  0  0  0
  193.5100  176.3420  146.8260 O   0  0  0  0  0  0  0  0  0  0  0  0
  197.9150  175.3230  142.7260 C   0  0  0  0  0  1  0  0  0  0  0  0
  195.4590  173.3000  144.8580 C   0  0  0  0  0  0  0  0  0  0  0  0
  197.0490  175.0030  143.9200 C   0  0  2  0  0  3  0  0  0  0  0  0
  195.0260  175.6930  145.1780 C   0  0  0  0  0  0  0  0  0  0  0  0
  196.4290  173.6140  143.7510 C   0  0  0  0  0  2  0  0  0  0  0  0
  195.2190  171.9780  145.1950 O   0  0  0  0  0  1  0  0  0  0  0  0
  195.9620  176.0590  144.0660 C   0  0  0  0  0  2  0  0  0  0  0  0
  194.7970  174.2670  145.4970 C   0  0  0  0  0  3  0  0  0  0  0  0
  194.4030  176.6290  145.8190 N   0  0  0  0  0  0  0  0  0  0  0  0
  188.2040  174.5370  142.5550 C   0  0  2  0  0  3  0  0  0  0  0  0
  187.7000  173.2890  142.1770 O   0  0  0  0  0  1  0  0  0  0  0  0
  188.3660  175.5060  141.3730 C   0  0  0  0  0  2  0  0  0  0  0  0
  186.9000  177.2970  140.5620 C   0  0  0  0  0  2  0  0  0  0  0  0
  186.3940  176.9400  141.9490 C   0  0  1  0  0  3  0  0  0  0  0  0
  187.8860  176.9260  141.6470 C   0  0  1  0  0  3  0  0  0  0  0  0
  185.9350  178.2430  142.6130 C   0  0  0  0  0  2  0  0  0  0  0  0
  185.8320  178.1510  144.1080 C   0  0  0  0  0  0  0  0  0  0  0  0
  185.5120  179.2100  146.2710 C   0  0  0  0  0  3  0  0  0  0  0  0
  185.6170  179.3080  144.8790 C   0  0  0  0  0  0  0  0  0  0  0  0
  185.5140  180.5240  144.2870 F   0  0  0  0  0  0  0  0  0  0  0  0
  185.9430  176.9070  144.7390 C   0  0  0  0  0  3  0  0  0  0  0  0
  185.8380  176.8120  146.1290 C   0  0  0  0  0  3  0  0  0  0  0  0
  185.6210  177.9640  146.8960 C   0  0  0  0  0  3  0  0  0  0  0  0
  190.7800  172.4610  138.7280 C   0  0  0  0  0  2  0  0  0  0  0  0
  189.5240  171.6100  138.8380 C   0  0  0  0  0  2  0  0  0  0  0  0
  188.4100  172.4320  139.0020 O   0  0  0  0  0  1  0  0  0  0  0  0
  1  8  1  6  0  0  0
  1  7  1  0  0  0  0
  2 12  1  6  0  0  0
  2 11  1  0  0  0  0
  3 29  1  6  0  0  0
  3  9  1  0  0  0  0
  3 15  1  0  0  0  0
  5 43  1  6  0  0  0
  5  2  1  0  0  0  0
  5  8  1  0  0  0  0
  6  3  1  0  0  0  0
  7  9  1  0  0  0  0
 10  1  1  0  0  0  0
 10  6  1  1  0  0  0
 11 10  1  0  0  0  0
 11  4  1  1  0  0  0
 13 17  1  0  0  0  0
 15 13  1  1  0  0  0
 15 16  1  0  0  0  0
 16 14  1  0  0  0  0
 17 18  1  1  0  0  0
 17 14  1  0  0  0  0
 18 19  1  0  0  0  0
 21 25  1  0  0  0  0
 21 27  2  0  0  0  0
 22 20  1  6  0  0  0
 22 26  1  0  0  0  0
 23 27  1  0  0  0  0
 23 28  2  0  0  0  0
 24 22  1  0  0  0  0
 24 21  1  0  0  0  0
 26 23  1  0  0  0  0
 28 19  1  0  0  0  0
 29 30  1  6  0  0  0
 31 29  1  0  0  0  0
 32 34  1  0  0  0  0
 32 33  1  0  0  0  0
 33 35  1  1  0  0  0
 34 31  1  6  0  0  0
 34 33  1  0  0  0  0
 35 36  1  0  0  0  0
 36 40  2  0  0  0  0
 36 38  1  0  0  0  0
 37 42  1  0  0  0  0
 38 37  2  0  0  0  0
 39 38  1  0  0  0  0
 40 41  1  0  0  0  0
 41 42  2  0  0  0  0
 43 44  1  0  0  0  0
 44 45  1  0  0  0  0
M  END
>  <MODEL>
6

>  <REMARK>
 VINA RESULT:      -7.5      1.693      2.073
  Name = 
  11 active torsions:
  status: ('A' for Active; 'I' for Inactive)
    1  A    between atoms: C_3  and  C_8
    2  A    between atoms: C_3  and  C_23
    3  A    between atoms: C_4  and  C_7
    4  A    between atoms: C_6  and  C_8
    5  A    between atoms: C_6  and  C_28
    6  A    between atoms: C_7  and  C_25
    7  A    between atoms: O_10  and  C_31
    8  A    between atoms: O_10  and  N_43
    9  A    between atoms: C_15  and  C_26
   10  A    between atoms: C_16  and  C_26
   11  A    between atoms: C_29  and  C_31
                            x       y       z     vdW  Elec       q    Type
                         _______ _______ _______ _____ _____    ______ ____

>  <TORSDO>
F 11

$$$$
=
 OpenBabel11062420473D

 45 50  0  0  1  0  0  0  0  0999 V2000
  194.4190  174.8930  142.7510 C   0  0  1  0  0  3  0  0  0  0  0  0
  196.6450  173.3660  143.6680 C   0  0  2  0  0  3  0  0  0  0  0  0
  191.6400  173.7450  142.6380 C   0  0  1  0  0  0  0  0  0  0  0  0
  195.5350  171.8500  142.0550 C   0  0  0  0  0  1  0  0  0  0  0  0
  196.4250  174.7080  144.3820 C   0  0  1  0  0  3  0  0  0  0  0  0
  192.8920  172.8450  142.6870 C   0  0  0  0  0  2  0  0  0  0  0  0
  193.1770  175.7750  142.7180 C   0  0  0  0  0  2  0  0  0  0  0  0
  195.5080  175.6240  143.5530 C   0  0  0  0  0  2  0  0  0  0  0  0
  192.0340  175.0830  141.9780 C   0  0  0  0  0  2  0  0  0  0  0  0
  194.1020  173.5140  143.3540 C   0  0  1  0  0  3  0  0  0  0  0  0
  195.3480  172.6000  143.3680 C   0  0  2  0  0  3  0  0  0  0  0  0
  197.5440  172.5550  144.3680 O   0  0  0  0  0  1  0  0  0  0  0  0
  190.0610  173.9310  140.6040 C   0  0  0  0  0  2  0  0  0  0  0  0
  188.1230  173.5150  141.9750 C   0  0  0  0  0  2  0  0  0  0  0  0
  190.5350  173.0680  141.7740 C   0  0  2  0  0  3  0  0  0  0  0  0
  189.2760  172.7280  142.5750 C   0  0  0  0  0  2  0  0  0  0  0  0
  188.7570  174.5410  141.0670 C   0  0  2  0  0  3  0  0  0  0  0  0
  187.8430  174.9420  139.9140 C   0  0  0  0  0  2  0  0  0  0  0  0
  187.4490  176.3010  140.0030 O   0  0  0  0  0  0  0  0  0  0  0  0
  185.6670  180.0040  144.5150 C   0  0  0  0  0  1  0  0  0  0  0  0
  184.1180  178.1740  141.5270 C   0  0  0  0  0  0  0  0  0  0  0  0
  185.6120  179.3970  143.1340 C   0  0  2  0  0  3  0  0  0  0  0  0
  186.4880  177.5650  141.7090 C   0  0  0  0  0  0  0  0  0  0  0  0
  184.1940  178.9000  142.8440 C   0  0  0  0  0  2  0  0  0  0  0  0
  182.9140  178.1320  140.8450 O   0  0  0  0  0  1  0  0  0  0  0  0
  186.6100  178.2510  143.0360 C   0  0  0  0  0  2  0  0  0  0  0  0
  185.1790  177.5400  141.0220 C   0  0  0  0  0  3  0  0  0  0  0  0
  187.5200  176.9720  141.2020 N   0  0  0  0  0  0  0  0  0  0  0  0
  191.1330  174.0170  144.0780 C   0  0  2  0  0  3  0  0  0  0  0  0
  190.7230  172.8610  144.7490 O   0  0  0  0  0  1  0  0  0  0  0  0
  190.1280  175.1720  144.1980 C   0  0  0  0  0  2  0  0  0  0  0  0
  190.8140  176.9120  145.7840 C   0  0  0  0  0  2  0  0  0  0  0  0
  189.3180  177.0890  145.5930 C   0  0  1  0  0  3  0  0  0  0  0  0
  189.9300  175.6960  145.6150 C   0  0  1  0  0  3  0  0  0  0  0  0
  188.7330  177.5020  146.9480 C   0  0  0  0  0  2  0  0  0  0  0  0
  187.2350  177.6010  146.9510 C   0  0  0  0  0  0  0  0  0  0  0  0
  185.1910  178.6590  147.7290 C   0  0  0  0  0  3  0  0  0  0  0  0
  186.5870  178.5680  147.7420 C   0  0  0  0  0  0  0  0  0  0  0  0
  187.3030  179.4140  148.5240 F   0  0  0  0  0  0  0  0  0  0  0  0
  186.4780  176.7330  146.1570 C   0  0  0  0  0  3  0  0  0  0  0  0
  185.0830  176.8250  146.1460 C   0  0  0  0  0  3  0  0  0  0  0  0
  184.4390  177.7900  146.9320 C   0  0  0  0  0  3  0  0  0  0  0  0
  195.8620  174.5410  145.7940 C   0  0  0  0  0  2  0  0  0  0  0  0
  194.8920  175.6630  146.1350 C   0  0  0  0  0  2  0  0  0  0  0  0
  193.6640  175.1240  146.5170 O   0  0  0  0  0  1  0  0  0  0  0  0
  1  7  1  1  0  0  0
  1 10  1  0  0  0  0
  1  8  1  0  0  0  0
  2 12  1  1  0  0  0
  2  5  1  0  0  0  0
  3  6  1  0  0  0  0
  3 29  1  1  0  0  0
  5 43  1  1  0  0  0
  8  5  1  0  0  0  0
  9  3  1  0  0  0  0
  9  7  1  0  0  0  0
 10  6  1  6  0  0  0
 10 11  1  0  0  0  0
 11  4  1  6  0  0  0
 11  2  1  0  0  0  0
 13 17  1  0  0  0  0
 14 16  1  0  0  0  0
 15 13  1  6  0  0  0
 15 16  1  0  0  0  0
 15  3  1  0  0  0  0
 17 18  1  6  0  0  0
 17 14  1  0  0  0  0
 18 19  1  0  0  0  0
 19 28  1  0  0  0  0
 21 24  1  0  0  0  0
 22 20  1  1  0  0  0
 23 26  1  0  0  0  0
 24 22  1  0  0  0  0
 25 21  1  0  0  0  0
 26 22  1  0  0  0  0
 27 21  2  0  0  0  0
 27 23  1  0  0  0  0
 28 23  2  0  0  0  0
 29 31  1  0  0  0  0
 29 30  1  6  0  0  0
 33 34  1  0  0  0  0
 33 32  1  0  0  0  0
 33 35  1  1  0  0  0
 34 31  1  6  0  0  0
 34 32  1  0  0  0  0
 35 36  1  0  0  0  0
 36 38  1  0  0  0  0
 37 38  2  0  0  0  0
 38 39  1  0  0  0  0
 40 36  2  0  0  0  0
 41 40  1  0  0  0  0
 41 42  2  0  0  0  0
 42 37  1  0  0  0  0
 43 44  1  0  0  0  0
 44 45  1  0  0  0  0
M  END
>  <MODEL>
7

>  <REMARK>
 VINA RESULT:      -7.4      2.443      7.178
  Name = 
  11 active torsions:
  status: ('A' for Active; 'I' for Inactive)
    1  A    between atoms: C_3  and  C_8
    2  A    between atoms: C_3  and  C_23
    3  A    between atoms: C_4  and  C_7
    4  A    between atoms: C_6  and  C_8
    5  A    between atoms: C_6  and  C_28
    6  A    between atoms: C_7  and  C_25
    7  A    between atoms: O_10  and  C_31
    8  A    between atoms: O_10  and  N_43
    9  A    between atoms: C_15  and  C_26
   10  A    between atoms: C_16  and  C_26
   11  A    between atoms: C_29  and  C_31
                            x       y       z     vdW  Elec       q    Type
                         _______ _______ _______ _____ _____    ______ ____

>  <TORSDO>
F 11

$$$$
=
 OpenBabel11062420473D

 45 50  0  0  1  0  0  0  0  0999 V2000
  192.2520  174.4270  145.2250 C   0  0  1  0  0  3  0  0  0  0  0  0
  193.8310  176.7790  145.5420 C   0  0  2  0  0  3  0  0  0  0  0  0
  191.2030  173.5640  142.5400 C   0  0  1  0  0  0  0  0  0  0  0  0
  191.9160  177.5540  144.1760 C   0  0  0  0  0  1  0  0  0  0  0  0
  194.4530  175.4860  146.0910 C   0  0  1  0  0  3  0  0  0  0  0  0
  191.6510  175.0160  142.8120 C   0  0  0  0  0  2  0  0  0  0  0  0
  191.8220  172.9920  144.9440 C   0  0  0  0  0  2  0  0  0  0  0  0
  193.3820  174.3970  146.2670 C   0  0  0  0  0  2  0  0  0  0  0  0
  190.7330  172.9470  143.8730 C   0  0  0  0  0  2  0  0  0  0  0  0
  192.6930  175.1350  143.9330 C   0  0  1  0  0  3  0  0  0  0  0  0
  193.1050  176.6000  144.2000 C   0  0  2  0  0  3  0  0  0  0  0  0
  194.7770  177.8060  145.4570 O   0  0  0  0  0  1  0  0  0  0  0  0
  189.6490  174.9460  141.0100 C   0  0  0  0  0  2  0  0  0  0  0  0
  187.6830  174.1030  142.1210 C   0  0  0  0  0  2  0  0  0  0  0  0
  190.0100  173.5570  141.5380 C   0  0  2  0  0  3  0  0  0  0  0  0
  188.7230  172.9960  142.1470 C   0  0  0  0  0  2  0  0  0  0  0  0
  188.4430  175.3720  141.8170 C   0  0  2  0  0  3  0  0  0  0  0  0
  187.5820  176.4080  141.1010 C   0  0  0  0  0  2  0  0  0  0  0  0
  187.6030  177.6590  141.7680 O   0  0  0  0  0  0  0  0  0  0  0  0
  184.3560  178.3020  146.8960 C   0  0  0  0  0  1  0  0  0  0  0  0
  187.9530  177.4870  145.8640 C   0  0  0  0  0  0  0  0  0  0  0  0
  185.4610  177.7460  146.0300 C   0  0  2  0  0  3  0  0  0  0  0  0
  186.6340  178.0030  143.8610 C   0  0  0  0  0  0  0  0  0  0  0  0
  186.8060  177.9130  146.7400 C   0  0  0  0  0  2  0  0  0  0  0  0
  189.1300  177.0520  146.4510 O   0  0  0  0  0  1  0  0  0  0  0  0
  185.4720  178.4640  144.6870 C   0  0  0  0  0  2  0  0  0  0  0  0
  187.8730  177.5550  144.5330 C   0  0  0  0  0  3  0  0  0  0  0  0
  186.5510  178.0410  142.5700 N   0  0  0  0  0  0  0  0  0  0  0  0
  192.3970  172.7420  141.9890 C   0  0  2  0  0  3  0  0  0  0  0  0
  193.0160  173.3340  140.8840 O   0  0  0  0  0  1  0  0  0  0  0  0
  192.1100  171.2460  141.7910 C   0  0  0  0  0  2  0  0  0  0  0  0
  191.3560  169.4190  140.3400 C   0  0  0  0  0  2  0  0  0  0  0  0
  190.4360  170.5910  140.0440 C   0  0  1  0  0  3  0  0  0  0  0  0
  191.9120  170.8260  140.3400 C   0  0  1  0  0  3  0  0  0  0  0  0
  190.1290  170.5600  138.5440 C   0  0  0  0  0  2  0  0  0  0  0  0
  189.9140  171.9220  137.9460 C   0  0  0  0  0  0  0  0  0  0  0  0
  188.5730  173.9330  137.7060 C   0  0  0  0  0  3  0  0  0  0  0  0
  188.7590  172.6610  138.2590 C   0  0  0  0  0  0  0  0  0  0  0  0
  187.8160  172.1520  139.0910 F   0  0  0  0  0  0  0  0  0  0  0  0
  190.8710  172.4610  137.0800 C   0  0  0  0  0  3  0  0  0  0  0  0
  190.6830  173.7310  136.5280 C   0  0  0  0  0  3  0  0  0  0  0  0
  189.5340  174.4690  136.8420 C   0  0  0  0  0  3  0  0  0  0  0  0
  195.5950  174.9630  145.2190 C   0  0  0  0  0  2  0  0  0  0  0  0
  195.8950  173.5030  145.5230 C   0  0  0  0  0  2  0  0  0  0  0  0
  196.9800  173.4140  146.3930 O   0  0  0  0  0  1  0  0  0  0  0  0
  1  7  1  6  0  0  0
  1  8  1  0  0  0  0
  2 12  1  6  0  0  0
  2  5  1  0  0  0  0
  3 29  1  6  0  0  0
  3  6  1  0  0  0  0
  3  9  1  0  0  0  0
  5 43  1  6  0  0  0
  5  8  1  0  0  0  0
  9  7  1  0  0  0  0
 10  6  1  6  0  0  0
 10 11  1  0  0  0  0
 10  1  1  0  0  0  0
 11  4  1  1  0  0  0
 11  2  1  0  0  0  0
 13 17  1  0  0  0  0
 14 16  1  0  0  0  0
 15 13  1  1  0  0  0
 15 16  1  0  0  0  0
 15  3  1  0  0  0  0
 17 18  1  6  0  0  0
 17 14  1  0  0  0  0
 18 19  1  0  0  0  0
 19 28  1  0  0  0  0
 21 25  1  0  0  0  0
 21 24  1  0  0  0  0
 22 24  1  0  0  0  0
 22 20  1  1  0  0  0
 23 27  1  0  0  0  0
 23 26  1  0  0  0  0
 26 22  1  0  0  0  0
 27 21  2  0  0  0  0
 28 23  2  0  0  0  0
 29 30  1  6  0  0  0
 31 29  1  0  0  0  0
 33 35  1  6  0  0  0
 33 34  1  0  0  0  0
 33 32  1  0  0  0  0
 34 32  1  0  0  0  0
 34 31  1  1  0  0  0
 36 38  1  0  0  0  0
 36 35  1  0  0  0  0
 37 38  2  0  0  0  0
 38 39  1  0  0  0  0
 40 36  2  0  0  0  0
 41 42  2  0  0  0  0
 41 40  1  0  0  0  0
 42 37  1  0  0  0  0
 43 44  1  0  0  0  0
 44 45  1  0  0  0  0
M  END
>  <MODEL>
8

>  <REMARK>
 VINA RESULT:      -7.3      2.749      8.437
  Name = 
  11 active torsions:
  status: ('A' for Active; 'I' for Inactive)
    1  A    between atoms: C_3  and  C_8
    2  A    between atoms: C_3  and  C_23
    3  A    between atoms: C_4  and  C_7
    4  A    between atoms: C_6  and  C_8
    5  A    between atoms: C_6  and  C_28
    6  A    between atoms: C_7  and  C_25
    7  A    between atoms: O_10  and  C_31
    8  A    between atoms: O_10  and  N_43
    9  A    between atoms: C_15  and  C_26
   10  A    between atoms: C_16  and  C_26
   11  A    between atoms: C_29  and  C_31
                            x       y       z     vdW  Elec       q    Type
                         _______ _______ _______ _____ _____    ______ ____

>  <TORSDO>
F 11

$$$$
=
 OpenBabel11062420473D

 45 50  0  0  1  0  0  0  0  0999 V2000
  191.8320  174.2830  141.7160 C   0  0  1  0  0  3  0  0  0  0  0  0
  189.3340  173.4270  140.6440 C   0  0  2  0  0  3  0  0  0  0  0  0
  192.5850  173.7920  144.5880 C   0  0  1  0  0  0  0  0  0  0  0  0
  188.6950  174.5630  142.7500 C   0  0  0  0  0  1  0  0  0  0  0  0
  190.5790  172.9460  139.8840 C   0  0  1  0  0  3  0  0  0  0  0  0
  191.1170  173.7560  144.1120 C   0  0  0  0  0  2  0  0  0  0  0  0
  193.2800  174.3020  142.1900 C   0  0  0  0  0  2  0  0  0  0  0  0
  191.8080  173.7900  140.2610 C   0  0  0  0  0  2  0  0  0  0  0  0
  193.3710  174.7340  143.6530 C   0  0  0  0  0  2  0  0  0  0  0  0
  190.9630  173.4000  142.6270 C   0  0  1  0  0  3  0  0  0  0  0  0
  189.4860  173.3960  142.1730 C   0  0  2  0  0  3  0  0  0  0  0  0
  188.1900  172.7240  140.2500 O   0  0  0  0  0  1  0  0  0  0  0  0
  191.3210  174.8870  146.5550 C   0  0  0  0  0  2  0  0  0  0  0  0
  192.8640  176.7370  146.6150 C   0  0  0  0  0  2  0  0  0  0  0  0
  192.6580  174.3530  146.0390 C   0  0  2  0  0  3  0  0  0  0  0  0
  193.6490  175.5100  146.1820 C   0  0  0  0  0  2  0  0  0  0  0  0
  191.4110  176.3890  146.4020 C   0  0  2  0  0  3  0  0  0  0  0  0
  190.4860  177.1420  147.3530 C   0  0  0  0  0  2  0  0  0  0  0  0
  189.1500  177.1620  146.8800 O   0  0  0  0  0  0  0  0  0  0  0  0
  185.7960  177.8260  141.8250 C   0  0  0  0  0  1  0  0  0  0  0  0
  185.2650  177.6420  145.6140 C   0  0  0  0  0  0  0  0  0  0  0  0
  186.0670  177.3970  143.2460 C   0  0  2  0  0  3  0  0  0  0  0  0
  187.6700  177.5860  145.1300 C   0  0  0  0  0  0  0  0  0  0  0  0
  184.9720  177.9380  144.1670 C   0  0  0  0  0  2  0  0  0  0  0  0
  184.2160  177.5470  146.5130 O   0  0  0  0  0  1  0  0  0  0  0  0
  187.4340  177.9060  143.6850 C   0  0  0  0  0  2  0  0  0  0  0  0
  186.5170  177.5040  146.0540 C   0  0  0  0  0  3  0  0  0  0  0  0
  188.8810  177.4250  145.5560 N   0  0  0  0  0  0  0  0  0  0  0  0
  193.1950  172.3690  144.5100 C   0  0  2  0  0  3  0  0  0  0  0  0
  192.2440  171.3680  144.2920 O   0  0  0  0  0  1  0  0  0  0  0  0
  194.1800  172.0300  145.6390 C   0  0  0  0  0  2  0  0  0  0  0  0
  196.4450  171.2590  145.1030 C   0  0  0  0  0  2  0  0  0  0  0  0
  196.0360  172.1740  143.9620 C   0  0  1  0  0  3  0  0  0  0  0  0
  195.6120  172.4880  145.3900 C   0  0  1  0  0  3  0  0  0  0  0  0
  197.2860  172.9470  143.5300 C   0  0  0  0  0  2  0  0  0  0  0  0
  196.9820  174.1890  142.7420 C   0  0  0  0  0  0  0  0  0  0  0  0
  196.4890  176.5660  142.6550 C   0  0  0  0  0  3  0  0  0  0  0  0
  196.7610  175.4130  143.3990 C   0  0  0  0  0  0  0  0  0  0  0  0
  196.8050  175.4890  144.7520 F   0  0  0  0  0  0  0  0  0  0  0  0
  196.9240  174.1310  141.3450 C   0  0  0  0  0  3  0  0  0  0  0  0
  196.6520  175.2840  140.6030 C   0  0  0  0  0  3  0  0  0  0  0  0
  196.4360  176.5030  141.2580 C   0  0  0  0  0  3  0  0  0  0  0  0
  190.8720  171.4620  140.1090 C   0  0  0  0  0  2  0  0  0  0  0  0
  192.3520  171.1600  139.9230 C   0  0  0  0  0  2  0  0  0  0  0  0
  192.8180  170.4060  140.9990 O   0  0  0  0  0  1  0  0  0  0  0  0
  1  8  1  6  0  0  0
  1  7  1  0  0  0  0
  1 10  1  0  0  0  0
  2 12  1  1  0  0  0
  2 11  1  0  0  0  0
  3 29  1  6  0  0  0
  3 15  1  0  0  0  0
  5 43  1  1  0  0  0
  5  8  1  0  0  0  0
  5  2  1  0  0  0  0
  6  3  1  0  0  0  0
  7  9  1  0  0  0  0
  9  3  1  0  0  0  0
 10  6  1  1  0  0  0
 11 10  1  0  0  0  0
 11  4  1  1  0  0  0
 15 16  1  6  0  0  0
 15 13  1  0  0  0  0
 16 14  1  0  0  0  0
 17 13  1  0  0  0  0
 17 14  1  0  0  0  0
 17 18  1  1  0  0  0
 19 18  1  0  0  0  0
 21 27  2  0  0  0  0
 21 25  1  0  0  0  0
 22 20  1  6  0  0  0
 22 26  1  0  0  0  0
 22 24  1  0  0  0  0
 23 28  2  0  0  0  0
 23 27  1  0  0  0  0
 24 21  1  0  0  0  0
 26 23  1  0  0  0  0
 28 19  1  0  0  0  0
 29 30  1  1  0  0  0
 29 31  1  0  0  0  0
 32 34  1  0  0  0  0
 33 35  1  1  0  0  0
 33 32  1  0  0  0  0
 33 34  1  0  0  0  0
 34 31  1  6  0  0  0
 36 38  1  0  0  0  0
 36 35  1  0  0  0  0
 37 38  2  0  0  0  0
 38 39  1  0  0  0  0
 40 36  2  0  0  0  0
 41 42  2  0  0  0  0
 41 40  1  0  0  0  0
 42 37  1  0  0  0  0
 44 43  1  0  0  0  0
 44 45  1  0  0  0  0
M  END
>  <MODEL>
9

>  <REMARK>
 VINA RESULT:      -7.3      2.883      8.337
  Name = 
  11 active torsions:
  status: ('A' for Active; 'I' for Inactive)
    1  A    between atoms: C_3  and  C_8
    2  A    between atoms: C_3  and  C_23
    3  A    between atoms: C_4  and  C_7
    4  A    between atoms: C_6  and  C_8
    5  A    between atoms: C_6  and  C_28
    6  A    between atoms: C_7  and  C_25
    7  A    between atoms: O_10  and  C_31
    8  A    between atoms: O_10  and  N_43
    9  A    between atoms: C_15  and  C_26
   10  A    between atoms: C_16  and  C_26
   11  A    between atoms: C_29  and  C_31
                            x       y       z     vdW  Elec       q    Type
                         _______ _______ _______ _____ _____    ______ ____

>  <TORSDO>
F 11

$$$$
