=
 OpenBabel11062421513D

 37 44  0  0  1  0  0  0  0  0999 V2000
  190.3400  174.9740  145.6030 C   0  0  1  0  0  3  0  0  0  0  0  0
  186.6490  177.4970  146.0340 C   0  0  0  0  0  2  0  0  0  0  0  0
  191.8220  174.6490  145.8600 C   0  0  1  0  0  3  0  0  0  0  0  0
  187.9070  176.6590  145.7880 C   0  0  0  0  0  2  0  0  0  0  0  0
  192.3650  173.4110  145.1240 C   0  0  2  0  0  3  0  0  0  0  0  0
  187.0170  177.5810  142.1740 C   0  0  0  0  0  2  0  0  0  0  0  0
  190.1270  172.8760  140.1000 N   0  0  0  0  0  0  0  0  0  0  0  0
  192.1200  172.0430  142.9660 C   0  0  0  0  0  0  0  0  0  0  0  0
  192.7330  175.7970  145.4890 C   0  0  1  0  0  3  0  0  0  0  0  0
  193.8480  173.7000  144.9230 C   0  0  0  0  0  2  0  0  0  0  0  0
  185.9900  177.6590  144.6710 C   0  0  1  0  0  0  0  0  0  0  0  0
  188.2750  176.8920  144.3230 C   0  0  2  0  0  3  0  0  0  0  0  0
  190.0190  174.9880  144.1350 C   0  0  0  0  0  0  0  0  0  0  0  0
  186.9860  177.2990  143.6580 C   0  0  2  0  0  0  0  0  0  0  0  0
  189.3730  174.6570  141.4250 C   0  0  0  0  0  0  0  0  0  0  0  0
  188.9580  175.7720  143.5550 C   0  0  0  0  0  0  0  0  0  0  0  0
  189.1760  174.0130  140.0780 C   0  0  0  0  0  2  0  0  0  0  0  0
  188.6450  175.6060  142.1510 C   0  0  0  0  0  0  0  0  0  0  0  0
  190.3770  173.9920  142.0140 C   0  0  0  0  0  0  0  0  0  0  0  0
  185.8930  176.4470  143.9610 O   0  0  0  0  0  0  0  0  0  0  0  0
  191.7240  173.1740  143.8170 N   0  0  0  0  0  0  0  0  0  0  0  0
  191.6760  171.9360  141.7300 N   0  0  0  0  0  0  0  0  0  0  0  0
  187.4870  176.3070  141.4670 C   0  0  0  0  0  2  0  0  0  0  0  0
  190.8040  172.9400  141.2000 C   0  0  0  0  0  0  0  0  0  0  0  0
  190.7180  174.0830  143.3250 C   0  0  0  0  0  0  0  0  0  0  0  0
  192.8280  176.7870  146.6320 C   0  0  0  0  0  1  0  0  0  0  0  0
  194.0860  175.1690  145.2390 C   0  0  0  0  0  2  0  0  0  0  0  0
  184.9150  178.7110  144.3650 C   0  0  0  0  0  0  0  0  0  0  0  0
  184.0420  178.9220  145.5890 C   0  0  0  0  0  1  0  0  0  0  0  0
  184.1150  178.2580  143.3160 O   0  0  0  0  0  1  0  0  0  0  0  0
  185.4910  179.9300  144.0010 O   0  0  0  0  0  1  0  0  0  0  0  0
  189.4560  173.9560  146.3140 C   0  0  0  0  0  2  0  0  0  0  0  0
  189.1780  174.3850  147.6120 O   0  0  0  0  0  1  0  0  0  0  0  0
  193.0190  170.9720  143.5090 C   0  0  2  0  0  3  0  0  0  0  0  0
  194.2330  170.7940  142.6160 C   0  0  0  0  0  1  0  0  0  0  0  0
  193.0850  168.9900  144.4930 C   0  0  0  0  0  1  0  0  0  0  0  0
  192.3250  169.7650  143.6150 O   0  0  0  0  0  0  0  0  0  0  0  0
  1  3  1  0  0  0  0
  1 32  1  1  0  0  0
  4  2  1  0  0  0  0
  5  3  1  0  0  0  0
  6 14  1  0  0  0  0
  7 24  2  0  0  0  0
  8 34  1  0  0  0  0
  8 21  1  0  0  0  0
  9  3  1  0  0  0  0
  9 26  1  0  0  0  0
 10  5  1  0  0  0  0
 10 27  1  0  0  0  0
 11  2  1  0  0  0  0
 12  4  1  0  0  0  0
 13  1  1  0  0  0  0
 14 20  1  0  0  0  0
 14 12  1  0  0  0  0
 14 11  1  0  0  0  0
 15 19  2  0  0  0  0
 15 18  1  0  0  0  0
 16 13  1  0  0  0  0
 16 12  1  0  0  0  0
 17  7  1  0  0  0  0
 17 15  1  0  0  0  0
 18 16  2  0  0  0  0
 19 25  1  0  0  0  0
 20 11  1  0  0  0  0
 21  5  1  0  0  0  0
 22  8  2  0  0  0  0
 23 18  1  0  0  0  0
 23  6  1  0  0  0  0
 24 22  1  0  0  0  0
 24 19  1  0  0  0  0
 25 21  1  0  0  0  0
 25 13  2  0  0  0  0
 27  9  1  0  0  0  0
 28 11  1  0  0  0  0
 28 29  1  0  0  0  0
 30 28  1  0  0  0  0
 31 28  1  0  0  0  0
 32 33  1  0  0  0  0
 34 37  1  0  0  0  0
 35 34  1  0  0  0  0
 37 36  1  0  0  0  0
M  END
>  <MODEL>
1

>  <REMARK>
 VINA RESULT:      -8.4      0.000      0.000
  Name = 
  4 active torsions:
  status: ('A' for Active; 'I' for Inactive)
    1  A    between atoms: C_1  and  C_8
    2  A    between atoms: C_3  and  C_17
    3  A    between atoms: C_14  and  C_25
    4  A    between atoms: O_24  and  C_25
                            x       y       z     vdW  Elec       q    Type
                         _______ _______ _______ _____ _____    ______ ____

>  <TORSDO>
F 4

$$$$
=
 OpenBabel11062421513D

 37 44  0  0  1  0  0  0  0  0999 V2000
  190.9390  176.8960  144.9100 C   0  0  1  0  0  3  0  0  0  0  0  0
  195.0070  175.0920  145.5230 C   0  0  0  0  0  2  0  0  0  0  0  0
  189.7020  177.6870  145.3690 C   0  0  1  0  0  3  0  0  0  0  0  0
  193.5840  175.6130  145.3040 C   0  0  0  0  0  2  0  0  0  0  0  0
  188.5470  177.7570  144.3530 C   0  0  2  0  0  3  0  0  0  0  0  0
  193.0180  171.8730  144.6700 C   0  0  0  0  0  2  0  0  0  0  0  0
  188.0640  173.0610  141.4810 N   0  0  0  0  0  0  0  0  0  0  0  0
  187.3930  176.4440  142.4730 C   0  0  0  0  0  0  0  0  0  0  0  0
  189.1100  177.1340  146.6460 C   0  0  1  0  0  3  0  0  0  0  0  0
  187.2900  177.8900  145.2040 C   0  0  0  0  0  2  0  0  0  0  0  0
  195.0110  173.6690  144.9820 C   0  0  1  0  0  0  0  0  0  0  0  0
  192.6950  174.3700  145.2540 C   0  0  2  0  0  3  0  0  0  0  0  0
  190.5670  175.5460  144.3630 C   0  0  0  0  0  0  0  0  0  0  0  0
  193.6140  173.2520  144.8360 C   0  0  2  0  0  0  0  0  0  0  0  0
  189.8200  173.1940  143.0290 C   0  0  0  0  0  0  0  0  0  0  0  0
  191.4430  174.4020  144.3910 C   0  0  0  0  0  0  0  0  0  0  0  0
  189.1990  172.2700  142.0150 C   0  0  0  0  0  2  0  0  0  0  0  0
  191.0400  173.1870  143.7150 C   0  0  0  0  0  0  0  0  0  0  0  0
  189.0310  174.2770  143.0800 C   0  0  0  0  0  0  0  0  0  0  0  0
  194.4180  173.5640  143.7090 O   0  0  0  0  0  0  0  0  0  0  0  0
  188.4420  176.5610  143.4960 N   0  0  0  0  0  0  0  0  0  0  0  0
  187.1910  175.3090  141.8350 N   0  0  0  0  0  0  0  0  0  0  0  0
  191.9270  171.9630  143.5980 C   0  0  0  0  0  2  0  0  0  0  0  0
  187.9960  174.1660  142.1480 C   0  0  0  0  0  0  0  0  0  0  0  0
  189.3470  175.4530  143.6790 C   0  0  0  0  0  0  0  0  0  0  0  0
  189.8300  177.7040  147.8510 C   0  0  0  0  0  1  0  0  0  0  0  0
  187.6670  177.5870  146.6470 C   0  0  0  0  0  2  0  0  0  0  0  0
  196.1010  172.6380  145.3080 C   0  0  0  0  0  0  0  0  0  0  0  0
  197.2140  173.3010  146.0990 C   0  0  0  0  0  1  0  0  0  0  0  0
  196.6310  172.1390  144.1170 O   0  0  0  0  0  1  0  0  0  0  0  0
  195.5840  171.5760  146.0520 O   0  0  0  0  0  1  0  0  0  0  0  0
  191.6970  177.6890  143.8500 C   0  0  0  0  0  2  0  0  0  0  0  0
  191.2850  179.0220  143.8650 O   0  0  0  0  0  1  0  0  0  0  0  0
  186.5530  177.6340  142.1190 C   0  0  2  0  0  3  0  0  0  0  0  0
  185.1150  177.4170  142.5550 C   0  0  0  0  0  1  0  0  0  0  0  0
  185.2860  178.1670  140.3830 C   0  0  0  0  0  1  0  0  0  0  0  0
  186.6030  177.8710  140.7440 O   0  0  0  0  0  0  0  0  0  0  0  0
  1 32  1  6  0  0  0
  1  3  1  0  0  0  0
  3  9  1  0  0  0  0
  4  2  1  0  0  0  0
  5 10  1  0  0  0  0
  5  3  1  0  0  0  0
  6 14  1  0  0  0  0
  7 17  1  0  0  0  0
  7 24  2  0  0  0  0
  8 21  1  0  0  0  0
  9 27  1  0  0  0  0
  9 26  1  0  0  0  0
 10 27  1  0  0  0  0
 11 28  1  0  0  0  0
 11  2  1  0  0  0  0
 12  4  1  0  0  0  0
 13 16  1  0  0  0  0
 13  1  1  0  0  0  0
 14 11  1  0  0  0  0
 14 12  1  0  0  0  0
 15 19  2  0  0  0  0
 15 18  1  0  0  0  0
 16 12  1  0  0  0  0
 17 15  1  0  0  0  0
 18 16  2  0  0  0  0
 19 25  1  0  0  0  0
 20 14  1  0  0  0  0
 20 11  1  0  0  0  0
 21 25  1  0  0  0  0
 21  5  1  0  0  0  0
 22 24  1  0  0  0  0
 22  8  2  0  0  0  0
 23 18  1  0  0  0  0
 23  6  1  0  0  0  0
 24 19  1  0  0  0  0
 25 13  2  0  0  0  0
 28 31  1  0  0  0  0
 28 29  1  0  0  0  0
 30 28  1  0  0  0  0
 32 33  1  0  0  0  0
 34  8  1  0  0  0  0
 34 35  1  0  0  0  0
 36 37  1  0  0  0  0
 37 34  1  0  0  0  0
M  END
>  <MODEL>
2

>  <REMARK>
 VINA RESULT:      -8.2      2.540      7.580
  Name = 
  4 active torsions:
  status: ('A' for Active; 'I' for Inactive)
    1  A    between atoms: C_1  and  C_8
    2  A    between atoms: C_3  and  C_17
    3  A    between atoms: C_14  and  C_25
    4  A    between atoms: O_24  and  C_25
                            x       y       z     vdW  Elec       q    Type
                         _______ _______ _______ _____ _____    ______ ____

>  <TORSDO>
F 4

$$$$
=
 OpenBabel11062421513D

 37 44  0  0  1  0  0  0  0  0999 V2000
  191.6200  175.2750  145.6360 C   0  0  1  0  0  3  0  0  0  0  0  0
  187.9430  177.8270  145.2620 C   0  0  0  0  0  2  0  0  0  0  0  0
  193.1180  175.0520  145.9110 C   0  0  1  0  0  3  0  0  0  0  0  0
  189.1890  176.9380  145.2900 C   0  0  0  0  0  2  0  0  0  0  0  0
  193.6240  173.6150  145.6900 C   0  0  2  0  0  3  0  0  0  0  0  0
  188.0700  176.3820  141.6650 C   0  0  0  0  0  2  0  0  0  0  0  0
  191.0830  171.1880  141.4240 N   0  0  0  0  0  0  0  0  0  0  0  0
  193.2560  171.5130  144.2620 C   0  0  0  0  0  0  0  0  0  0  0  0
  193.9950  175.9450  145.0640 C   0  0  1  0  0  3  0  0  0  0  0  0
  195.0890  173.7760  145.3030 C   0  0  0  0  0  2  0  0  0  0  0  0
  187.2000  177.4520  143.9870 C   0  0  1  0  0  0  0  0  0  0  0  0
  189.4650  176.5710  143.8320 C   0  0  2  0  0  3  0  0  0  0  0  0
  191.2080  174.7160  144.3030 C   0  0  0  0  0  0  0  0  0  0  0  0
  188.1340  176.7060  143.1390 C   0  0  2  0  0  0  0  0  0  0  0  0
  190.3980  173.3590  141.9850 C   0  0  0  0  0  0  0  0  0  0  0  0
  190.1080  175.2270  143.5260 C   0  0  0  0  0  0  0  0  0  0  0  0
  190.1230  172.2410  141.0140 C   0  0  0  0  0  2  0  0  0  0  0  0
  189.7090  174.5290  142.3220 C   0  0  0  0  0  0  0  0  0  0  0  0
  191.4430  172.9610  142.7270 C   0  0  0  0  0  0  0  0  0  0  0  0
  187.0680  176.0610  143.8180 O   0  0  0  0  0  0  0  0  0  0  0  0
  192.9050  172.8940  144.6220 N   0  0  0  0  0  0  0  0  0  0  0  0
  192.7380  170.9370  143.1970 N   0  0  0  0  0  0  0  0  0  0  0  0
  188.5050  174.9240  141.4880 C   0  0  0  0  0  2  0  0  0  0  0  0
  191.8260  171.6670  142.3680 C   0  0  0  0  0  0  0  0  0  0  0  0
  191.8630  173.5540  143.8740 C   0  0  0  0  0  0  0  0  0  0  0  0
  194.1530  177.3030  145.7180 C   0  0  0  0  0  1  0  0  0  0  0  0
  195.3350  175.2470  145.0000 C   0  0  0  0  0  2  0  0  0  0  0  0
  186.0990  178.3180  143.3580 C   0  0  0  0  0  0  0  0  0  0  0  0
  185.6380  179.3650  144.3550 C   0  0  0  0  0  1  0  0  0  0  0  0
  185.0140  177.5070  143.0230 O   0  0  0  0  0  1  0  0  0  0  0  0
  186.5580  178.9570  142.2040 O   0  0  0  0  0  1  0  0  0  0  0  0
  190.7890  174.6330  146.7420 C   0  0  0  0  0  2  0  0  0  0  0  0
  191.1960  175.1130  147.9880 O   0  0  0  0  0  1  0  0  0  0  0  0
  194.1950  170.7270  145.1270 C   0  0  2  0  0  3  0  0  0  0  0  0
  195.5070  170.4850  144.4040 C   0  0  0  0  0  1  0  0  0  0  0  0
  194.6110  168.5550  145.2460 C   0  0  0  0  0  1  0  0  0  0  0  0
  193.6170  169.5070  145.4850 O   0  0  0  0  0  0  0  0  0  0  0  0
  1  3  1  0  0  0  0
  1 32  1  1  0  0  0
  2  4  1  0  0  0  0
  5  3  1  0  0  0  0
  6 14  1  0  0  0  0
  7 24  2  0  0  0  0
  8 21  1  0  0  0  0
  8 34  1  0  0  0  0
  9 26  1  0  0  0  0
  9  3  1  0  0  0  0
 10  5  1  0  0  0  0
 11  2  1  0  0  0  0
 12  4  1  0  0  0  0
 13  1  1  0  0  0  0
 14 20  1  0  0  0  0
 14 12  1  0  0  0  0
 14 11  1  0  0  0  0
 15 18  2  0  0  0  0
 15 19  1  0  0  0  0
 16 12  1  0  0  0  0
 16 13  2  0  0  0  0
 17  7  1  0  0  0  0
 17 15  1  0  0  0  0
 18 16  1  0  0  0  0
 19 25  2  0  0  0  0
 20 11  1  0  0  0  0
 21  5  1  0  0  0  0
 22  8  2  0  0  0  0
 23  6  1  0  0  0  0
 23 18  1  0  0  0  0
 24 19  1  0  0  0  0
 24 22  1  0  0  0  0
 25 13  1  0  0  0  0
 25 21  1  0  0  0  0
 27  9  1  0  0  0  0
 27 10  1  0  0  0  0
 28 11  1  0  0  0  0
 28 29  1  0  0  0  0
 30 28  1  0  0  0  0
 31 28  1  0  0  0  0
 32 33  1  0  0  0  0
 34 37  1  0  0  0  0
 35 34  1  0  0  0  0
 36 37  1  0  0  0  0
M  END
>  <MODEL>
3

>  <REMARK>
 VINA RESULT:      -7.8      1.400      1.693
  Name = 
  4 active torsions:
  status: ('A' for Active; 'I' for Inactive)
    1  A    between atoms: C_1  and  C_8
    2  A    between atoms: C_3  and  C_17
    3  A    between atoms: C_14  and  C_25
    4  A    between atoms: O_24  and  C_25
                            x       y       z     vdW  Elec       q    Type
                         _______ _______ _______ _____ _____    ______ ____

>  <TORSDO>
F 4

$$$$
=
 OpenBabel11062421513D

 37 44  0  0  1  0  0  0  0  0999 V2000
  192.1370  175.7550  145.1920 C   0  0  1  0  0  3  0  0  0  0  0  0
  195.9090  173.3430  145.5440 C   0  0  0  0  0  2  0  0  0  0  0  0
  191.0480  176.6940  145.7410 C   0  0  1  0  0  3  0  0  0  0  0  0
  194.5730  174.0780  145.4110 C   0  0  0  0  0  2  0  0  0  0  0  0
  189.8810  176.9870  144.7800 C   0  0  2  0  0  3  0  0  0  0  0  0
  193.4330  170.5010  144.6280 C   0  0  0  0  0  2  0  0  0  0  0  0
  188.6010  172.5700  141.7160 N   0  0  0  0  0  0  0  0  0  0  0  0
  188.4780  175.9580  142.8930 C   0  0  0  0  0  0  0  0  0  0  0  0
  190.4270  176.1680  147.0150 C   0  0  1  0  0  3  0  0  0  0  0  0
  188.6890  177.2590  145.6900 C   0  0  0  0  0  2  0  0  0  0  0  0
  195.6820  171.9660  144.9370 C   0  0  1  0  0  0  0  0  0  0  0  0
  193.5070  172.9840  145.3420 C   0  0  2  0  0  3  0  0  0  0  0  0
  191.5480  174.5050  144.6000 C   0  0  0  0  0  0  0  0  0  0  0  0
  194.2340  171.7660  144.8320 C   0  0  2  0  0  0  0  0  0  0  0  0
  190.4110  172.3620  143.1910 C   0  0  0  0  0  0  0  0  0  0  0  0
  192.2440  173.2450  144.5360 C   0  0  0  0  0  0  0  0  0  0  0  0
  189.6240  171.5940  142.1620 C   0  0  0  0  0  2  0  0  0  0  0  0
  191.6400  172.1400  143.8220 C   0  0  0  0  0  0  0  0  0  0  0  0
  189.7940  173.5460  143.3260 C   0  0  0  0  0  0  0  0  0  0  0  0
  195.0350  172.0160  143.6880 O   0  0  0  0  0  0  0  0  0  0  0  0
  189.5680  175.8660  143.8740 N   0  0  0  0  0  0  0  0  0  0  0  0
  188.0860  174.9010  142.2120 N   0  0  0  0  0  0  0  0  0  0  0  0
  192.3300  170.8060  143.6100 C   0  0  0  0  0  2  0  0  0  0  0  0
  188.7220  173.6370  142.4360 C   0  0  0  0  0  0  0  0  0  0  0  0
  190.3040  174.6290  143.9660 C   0  0  0  0  0  0  0  0  0  0  0  0
  191.2670  176.5620  148.2130 C   0  0  0  0  0  1  0  0  0  0  0  0
  189.0680  176.8280  147.1000 C   0  0  0  0  0  2  0  0  0  0  0  0
  196.6170  170.7700  145.1670 C   0  0  0  0  0  0  0  0  0  0  0  0
  196.3990  170.2100  146.5610 C   0  0  0  0  0  1  0  0  0  0  0  0
  197.9410  171.1950  145.0550 O   0  0  0  0  0  1  0  0  0  0  0  0
  196.3860  169.7610  144.2300 O   0  0  0  0  0  1  0  0  0  0  0  0
  192.9650  176.4830  144.1390 C   0  0  0  0  0  2  0  0  0  0  0  0
  193.7900  177.4300  144.7480 O   0  0  0  0  0  1  0  0  0  0  0  0
  187.8120  177.2760  142.6320 C   0  0  2  0  0  3  0  0  0  0  0  0
  186.3330  177.1990  142.9670 C   0  0  0  0  0  1  0  0  0  0  0  0
  186.6820  177.7190  140.7790 C   0  0  0  0  0  1  0  0  0  0  0  0
  187.9780  177.6460  141.2950 O   0  0  0  0  0  0  0  0  0  0  0  0
  1 32  1  6  0  0  0
  1  3  1  0  0  0  0
  3  9  1  0  0  0  0
  4  2  1  0  0  0  0
  5 10  1  0  0  0  0
  5  3  1  0  0  0  0
  6 14  1  0  0  0  0
  7 17  1  0  0  0  0
  7 24  2  0  0  0  0
  8 21  1  0  0  0  0
  9 27  1  0  0  0  0
  9 26  1  0  0  0  0
 10 27  1  0  0  0  0
 11 28  1  0  0  0  0
 11  2  1  0  0  0  0
 12  4  1  0  0  0  0
 13  1  1  0  0  0  0
 14 11  1  0  0  0  0
 14 12  1  0  0  0  0
 15 19  2  0  0  0  0
 15 18  1  0  0  0  0
 16 13  1  0  0  0  0
 16 12  1  0  0  0  0
 17 15  1  0  0  0  0
 18 16  2  0  0  0  0
 19 25  1  0  0  0  0
 20 14  1  0  0  0  0
 20 11  1  0  0  0  0
 21 25  1  0  0  0  0
 21  5  1  0  0  0  0
 22 24  1  0  0  0  0
 22  8  2  0  0  0  0
 23 18  1  0  0  0  0
 23  6  1  0  0  0  0
 24 19  1  0  0  0  0
 25 13  2  0  0  0  0
 28 29  1  0  0  0  0
 30 28  1  0  0  0  0
 31 28  1  0  0  0  0
 32 33  1  0  0  0  0
 34  8  1  0  0  0  0
 34 35  1  0  0  0  0
 36 37  1  0  0  0  0
 37 34  1  0  0  0  0
M  END
>  <MODEL>
4

>  <REMARK>
 VINA RESULT:      -7.7      2.517      7.830
  Name = 
  4 active torsions:
  status: ('A' for Active; 'I' for Inactive)
    1  A    between atoms: C_1  and  C_8
    2  A    between atoms: C_3  and  C_17
    3  A    between atoms: C_14  and  C_25
    4  A    between atoms: O_24  and  C_25
                            x       y       z     vdW  Elec       q    Type
                         _______ _______ _______ _____ _____    ______ ____

>  <TORSDO>
F 4

$$$$
=
 OpenBabel11062421513D

 37 44  0  0  1  0  0  0  0  0999 V2000
  190.1370  174.7860  143.0850 C   0  0  1  0  0  3  0  0  0  0  0  0
  186.3230  177.0980  142.5490 C   0  0  0  0  0  2  0  0  0  0  0  0
  190.9970  173.5130  143.0000 C   0  0  1  0  0  3  0  0  0  0  0  0
  187.6130  176.3220  142.8320 C   0  0  0  0  0  2  0  0  0  0  0  0
  192.4170  173.6340  143.5850 C   0  0  2  0  0  3  0  0  0  0  0  0
  186.7800  177.5240  146.3770 C   0  0  0  0  0  2  0  0  0  0  0  0
  192.5170  176.8870  148.0510 N   0  0  0  0  0  0  0  0  0  0  0  0
  193.7820  174.8070  145.4140 C   0  0  0  0  0  0  0  0  0  0  0  0
  190.3510  172.3370  143.6960 C   0  0  1  0  0  3  0  0  0  0  0  0
  192.7640  172.2250  144.0520 C   0  0  0  0  0  2  0  0  0  0  0  0
  186.0500  177.9120  143.8060 C   0  0  1  0  0  0  0  0  0  0  0  0
  187.6940  176.2010  144.3540 C   0  0  2  0  0  3  0  0  0  0  0  0
  190.1440  175.3720  144.4700 C   0  0  0  0  0  0  0  0  0  0  0  0
  186.8760  177.3530  144.8790 C   0  0  2  0  0  0  0  0  0  0  0  0
  190.4590  176.6350  146.9540 C   0  0  0  0  0  0  0  0  0  0  0  0
  189.0640  176.1580  145.0110 C   0  0  0  0  0  0  0  0  0  0  0  0
  191.1030  177.3290  148.1260 C   0  0  0  0  0  2  0  0  0  0  0  0
  189.2310  176.7910  146.3030 C   0  0  0  0  0  0  0  0  0  0  0  0
  191.4070  175.8530  146.4160 C   0  0  0  0  0  0  0  0  0  0  0  0
  187.1870  178.5980  144.2740 O   0  0  0  0  0  0  0  0  0  0  0  0
  192.5090  174.5700  144.7210 N   0  0  0  0  0  0  0  0  0  0  0  0
  193.8280  175.5020  146.5330 N   0  0  0  0  0  0  0  0  0  0  0  0
  188.2000  177.7180  146.9170 C   0  0  0  0  0  2  0  0  0  0  0  0
  192.6180  176.0260  147.0920 C   0  0  0  0  0  0  0  0  0  0  0  0
  191.3280  175.2420  145.2070 C   0  0  0  0  0  0  0  0  0  0  0  0
  189.3720  171.6480  142.7670 C   0  0  0  0  0  1  0  0  0  0  0  0
  191.4870  171.3970  144.0330 C   0  0  0  0  0  2  0  0  0  0  0  0
  184.6930  178.5560  144.1240 C   0  0  0  0  0  0  0  0  0  0  0  0
  183.7420  178.3520  142.9580 C   0  0  0  0  0  1  0  0  0  0  0  0
  184.8710  179.9260  144.3240 O   0  0  0  0  0  1  0  0  0  0  0  0
  184.1290  178.0010  145.2750 O   0  0  0  0  0  1  0  0  0  0  0  0
  190.6420  175.8200  142.0860 C   0  0  0  0  0  2  0  0  0  0  0  0
  191.0680  176.9670  142.7570 O   0  0  0  0  0  1  0  0  0  0  0  0
  195.0620  174.2820  144.8350 C   0  0  2  0  0  3  0  0  0  0  0  0
  196.1140  174.1340  145.9190 C   0  0  0  0  0  1  0  0  0  0  0  0
  196.9180  175.1300  143.9740 C   0  0  0  0  0  1  0  0  0  0  0  0
  195.5280  175.1370  143.8340 O   0  0  0  0  0  0  0  0  0  0  0  0
  1 32  1  6  0  0  0
  1 13  1  0  0  0  0
  2  4  1  0  0  0  0
  2 11  1  0  0  0  0
  3  1  1  0  0  0  0
  3  5  1  0  0  0  0
  3  9  1  0  0  0  0
  4 12  1  0  0  0  0
  5 10  1  0  0  0  0
  5 21  1  0  0  0  0
  6 23  1  0  0  0  0
  7 17  1  0  0  0  0
  8 22  2  0  0  0  0
  9 27  1  0  0  0  0
 11 28  1  0  0  0  0
 11 20  1  0  0  0  0
 11 14  1  0  0  0  0
 12 14  1  0  0  0  0
 12 16  1  0  0  0  0
 13 16  2  0  0  0  0
 13 25  1  0  0  0  0
 14  6  1  0  0  0  0
 15 17  1  0  0  0  0
 16 18  1  0  0  0  0
 18 23  1  0  0  0  0
 18 15  2  0  0  0  0
 19 15  1  0  0  0  0
 19 24  1  0  0  0  0
 20 14  1  0  0  0  0
 21 25  1  0  0  0  0
 21  8  1  0  0  0  0
 22 24  1  0  0  0  0
 24  7  2  0  0  0  0
 25 19  2  0  0  0  0
 26  9  1  0  0  0  0
 27 10  1  0  0  0  0
 28 30  1  0  0  0  0
 28 31  1  0  0  0  0
 29 28  1  0  0  0  0
 32 33  1  0  0  0  0
 34  8  1  0  0  0  0
 34 35  1  0  0  0  0
 37 36  1  0  0  0  0
 37 34  1  0  0  0  0
M  END
>  <MODEL>
5

>  <REMARK>
 VINA RESULT:      -7.6      2.325      4.559
  Name = 
  4 active torsions:
  status: ('A' for Active; 'I' for Inactive)
    1  A    between atoms: C_1  and  C_8
    2  A    between atoms: C_3  and  C_17
    3  A    between atoms: C_14  and  C_25
    4  A    between atoms: O_24  and  C_25
                            x       y       z     vdW  Elec       q    Type
                         _______ _______ _______ _____ _____    ______ ____

>  <TORSDO>
F 4

$$$$
=
 OpenBabel11062421513D

 37 44  0  0  1  0  0  0  0  0999 V2000
  191.2590  175.2330  145.0700 C   0  0  1  0  0  3  0  0  0  0  0  0
  187.7880  177.5270  146.7640 C   0  0  0  0  0  2  0  0  0  0  0  0
  192.7580  174.9870  144.8280 C   0  0  1  0  0  3  0  0  0  0  0  0
  188.9380  176.7690  146.0940 C   0  0  0  0  0  2  0  0  0  0  0  0
  193.0930  173.8020  143.9040 C   0  0  2  0  0  3  0  0  0  0  0  0
  186.8950  177.7350  142.9950 C   0  0  0  0  0  2  0  0  0  0  0  0
  189.3910  173.2730  139.8360 N   0  0  0  0  0  0  0  0  0  0  0  0
  192.2330  172.4800  141.8780 C   0  0  0  0  0  0  0  0  0  0  0  0
  193.4480  176.1950  144.2350 C   0  0  1  0  0  3  0  0  0  0  0  0
  194.4190  174.1810  143.2530 C   0  0  0  0  0  2  0  0  0  0  0  0
  186.7210  177.6870  145.6900 C   0  0  1  0  0  0  0  0  0  0  0  0
  188.8070  177.0620  144.5990 C   0  0  2  0  0  3  0  0  0  0  0  0
  190.4840  175.2670  143.7830 C   0  0  0  0  0  0  0  0  0  0  0  0
  187.3550  177.4120  144.3980 C   0  0  2  0  0  0  0  0  0  0  0  0
  189.0190  174.9720  141.4080 C   0  0  0  0  0  0  0  0  0  0  0  0
  189.2580  176.0040  143.6050 C   0  0  0  0  0  0  0  0  0  0  0  0
  188.4310  174.3530  140.1670 C   0  0  0  0  0  2  0  0  0  0  0  0
  188.5190  175.8580  142.3690 C   0  0  0  0  0  0  0  0  0  0  0  0
  190.1890  174.3500  141.6170 C   0  0  0  0  0  0  0  0  0  0  0  0
  186.4570  176.4910  144.9960 O   0  0  0  0  0  0  0  0  0  0  0  0
  192.0790  173.5630  142.8590 N   0  0  0  0  0  0  0  0  0  0  0  0
  191.4220  172.3800  140.8450 N   0  0  0  0  0  0  0  0  0  0  0  0
  187.1720  176.5080  142.1200 C   0  0  0  0  0  2  0  0  0  0  0  0
  190.3810  173.3460  140.6640 C   0  0  0  0  0  0  0  0  0  0  0  0
  190.9280  174.4260  142.7540 C   0  0  0  0  0  0  0  0  0  0  0  0
  193.8590  177.1580  145.3310 C   0  0  0  0  0  1  0  0  0  0  0  0
  194.6770  175.6530  143.5400 C   0  0  0  0  0  2  0  0  0  0  0  0
  185.5570  178.6830  145.7890 C   0  0  0  0  0  0  0  0  0  0  0  0
  185.3560  179.0950  147.2370 C   0  0  0  0  0  1  0  0  0  0  0  0
  184.3900  178.0710  145.3300 O   0  0  0  0  0  1  0  0  0  0  0  0
  185.8020  179.8230  145.0210 O   0  0  0  0  0  1  0  0  0  0  0  0
  190.6970  174.1470  145.9810 C   0  0  0  0  0  2  0  0  0  0  0  0
  189.6990  173.4320  145.3150 O   0  0  0  0  0  1  0  0  0  0  0  0
  193.3070  171.4490  142.0600 C   0  0  2  0  0  3  0  0  0  0  0  0
  194.2080  171.4010  140.8400 C   0  0  0  0  0  1  0  0  0  0  0  0
  192.6260  170.0900  143.6710 C   0  0  0  0  0  1  0  0  0  0  0  0
  192.7390  170.1920  142.2820 O   0  0  0  0  0  0  0  0  0  0  0  0
  1 32  1  1  0  0  0
  3  1  1  0  0  0  0
  4  2  1  0  0  0  0
  5  3  1  0  0  0  0
  6 14  1  0  0  0  0
  7 17  1  0  0  0  0
  7 24  2  0  0  0  0
  8 34  1  0  0  0  0
  8 21  1  0  0  0  0
  9  3  1  0  0  0  0
  9 26  1  0  0  0  0
 10 27  1  0  0  0  0
 10  5  1  0  0  0  0
 11 28  1  0  0  0  0
 11  2  1  0  0  0  0
 12  4  1  0  0  0  0
 13  1  1  0  0  0  0
 14 12  1  0  0  0  0
 14 20  1  0  0  0  0
 14 11  1  0  0  0  0
 15 19  2  0  0  0  0
 15 18  1  0  0  0  0
 16 13  1  0  0  0  0
 16 12  1  0  0  0  0
 17 15  1  0  0  0  0
 18 16  2  0  0  0  0
 19 25  1  0  0  0  0
 20 11  1  0  0  0  0
 21  5  1  0  0  0  0
 22  8  2  0  0  0  0
 23 18  1  0  0  0  0
 23  6  1  0  0  0  0
 24 22  1  0  0  0  0
 24 19  1  0  0  0  0
 25 21  1  0  0  0  0
 25 13  2  0  0  0  0
 27  9  1  0  0  0  0
 28 29  1  0  0  0  0
 30 28  1  0  0  0  0
 31 28  1  0  0  0  0
 33 32  1  0  0  0  0
 34 37  1  0  0  0  0
 35 34  1  0  0  0  0
 37 36  1  0  0  0  0
M  END
>  <MODEL>
6

>  <REMARK>
 VINA RESULT:      -7.6      1.250      1.312
  Name = 
  4 active torsions:
  status: ('A' for Active; 'I' for Inactive)
    1  A    between atoms: C_1  and  C_8
    2  A    between atoms: C_3  and  C_17
    3  A    between atoms: C_14  and  C_25
    4  A    between atoms: O_24  and  C_25
                            x       y       z     vdW  Elec       q    Type
                         _______ _______ _______ _____ _____    ______ ____

>  <TORSDO>
F 4

$$$$
=
 OpenBabel11062421513D

 37 44  0  0  1  0  0  0  0  0999 V2000
  191.3650  173.6610  142.3180 C   0  0  1  0  0  3  0  0  0  0  0  0
  187.8080  176.0640  140.9960 C   0  0  0  0  0  2  0  0  0  0  0  0
  192.1440  172.3480  142.5080 C   0  0  1  0  0  3  0  0  0  0  0  0
  188.9990  175.2710  141.5420 C   0  0  0  0  0  2  0  0  0  0  0  0
  193.4840  172.4760  143.2550 C   0  0  2  0  0  3  0  0  0  0  0  0
  187.8120  176.9750  144.7660 C   0  0  0  0  0  2  0  0  0  0  0  0
  193.2420  176.2880  147.2480 N   0  0  0  0  0  0  0  0  0  0  0  0
  194.6860  173.8150  145.0860 C   0  0  0  0  0  0  0  0  0  0  0  0
  191.3400  171.3080  143.2560 C   0  0  1  0  0  3  0  0  0  0  0  0
  193.6780  171.1270  143.9380 C   0  0  0  0  0  2  0  0  0  0  0  0
  187.4350  177.0520  142.0930 C   0  0  1  0  0  0  0  0  0  0  0  0
  188.8810  175.3510  143.0640 C   0  0  2  0  0  3  0  0  0  0  0  0
  191.2380  174.4260  143.6060 C   0  0  0  0  0  0  0  0  0  0  0  0
  188.0820  176.6010  143.3270 C   0  0  2  0  0  0  0  0  0  0  0  0
  191.3240  175.9930  145.9310 C   0  0  0  0  0  0  0  0  0  0  0  0
  190.1540  175.3290  143.8970 C   0  0  0  0  0  0  0  0  0  0  0  0
  191.8620  176.8050  147.0800 C   0  0  0  0  0  2  0  0  0  0  0  0
  190.2000  176.1200  145.1080 C   0  0  0  0  0  0  0  0  0  0  0  0
  192.2780  175.1010  145.6260 C   0  0  0  0  0  0  0  0  0  0  0  0
  188.5470  177.7370  142.6160 O   0  0  0  0  0  0  0  0  0  0  0  0
  193.4960  173.5500  144.2660 N   0  0  0  0  0  0  0  0  0  0  0  0
  194.6370  174.6500  146.1030 N   0  0  0  0  0  0  0  0  0  0  0  0
  189.1630  177.1700  145.4590 C   0  0  0  0  0  2  0  0  0  0  0  0
  193.4040  175.3030  146.4270 C   0  0  0  0  0  0  0  0  0  0  0  0
  192.3110  174.3380  144.5030 C   0  0  0  0  0  0  0  0  0  0  0  0
  190.4410  170.5500  142.3010 C   0  0  0  0  0  1  0  0  0  0  0  0
  192.3620  170.3670  143.8560 C   0  0  0  0  0  2  0  0  0  0  0  0
  186.0940  177.7980  142.1450 C   0  0  0  0  0  0  0  0  0  0  0  0
  185.5220  177.9240  140.7440 C   0  0  0  0  0  1  0  0  0  0  0  0
  186.3010  179.0770  142.6630 O   0  0  0  0  0  1  0  0  0  0  0  0
  185.1740  177.1260  142.9530 O   0  0  0  0  0  1  0  0  0  0  0  0
  192.0580  174.5270  141.2710 C   0  0  0  0  0  2  0  0  0  0  0  0
  192.3030  173.7800  140.1180 O   0  0  0  0  0  1  0  0  0  0  0  0
  195.9910  173.1560  144.7510 C   0  0  2  0  0  3  0  0  0  0  0  0
  196.8100  172.9310  146.0090 C   0  0  0  0  0  1  0  0  0  0  0  0
  197.9410  174.1660  144.4710 C   0  0  0  0  0  1  0  0  0  0  0  0
  196.7120  173.9390  143.8470 O   0  0  0  0  0  0  0  0  0  0  0  0
  1 32  1  6  0  0  0
  1  3  1  0  0  0  0
  1 13  1  0  0  0  0
  2  4  1  0  0  0  0
  2 11  1  0  0  0  0
  3  5  1  0  0  0  0
  3  9  1  0  0  0  0
  4 12  1  0  0  0  0
  5 10  1  0  0  0  0
  5 21  1  0  0  0  0
  6 23  1  0  0  0  0
  8 22  2  0  0  0  0
  9 27  1  0  0  0  0
 11 28  1  0  0  0  0
 11 20  1  0  0  0  0
 11 14  1  0  0  0  0
 12 14  1  0  0  0  0
 12 16  1  0  0  0  0
 13 16  2  0  0  0  0
 13 25  1  0  0  0  0
 14  6  1  0  0  0  0
 15 17  1  0  0  0  0
 16 18  1  0  0  0  0
 17  7  1  0  0  0  0
 18 23  1  0  0  0  0
 18 15  2  0  0  0  0
 19 15  1  0  0  0  0
 19 24  1  0  0  0  0
 20 14  1  0  0  0  0
 21 25  1  0  0  0  0
 21  8  1  0  0  0  0
 22 24  1  0  0  0  0
 24  7  2  0  0  0  0
 25 19  2  0  0  0  0
 26  9  1  0  0  0  0
 27 10  1  0  0  0  0
 28 30  1  0  0  0  0
 28 31  1  0  0  0  0
 29 28  1  0  0  0  0
 33 32  1  0  0  0  0
 34  8  1  0  0  0  0
 34 35  1  0  0  0  0
 37 36  1  0  0  0  0
 37 34  1  0  0  0  0
M  END
>  <MODEL>
7

>  <REMARK>
 VINA RESULT:      -7.6      2.275      4.735
  Name = 
  4 active torsions:
  status: ('A' for Active; 'I' for Inactive)
    1  A    between atoms: C_1  and  C_8
    2  A    between atoms: C_3  and  C_17
    3  A    between atoms: C_14  and  C_25
    4  A    between atoms: O_24  and  C_25
                            x       y       z     vdW  Elec       q    Type
                         _______ _______ _______ _____ _____    ______ ____

>  <TORSDO>
F 4

$$$$
=
 OpenBabel11062421513D

 37 44  0  0  1  0  0  0  0  0999 V2000
  191.1450  176.8490  144.7270 C   0  0  1  0  0  3  0  0  0  0  0  0
  195.4150  176.0930  143.5570 C   0  0  0  0  0  2  0  0  0  0  0  0
  189.9990  176.9690  145.7470 C   0  0  1  0  0  3  0  0  0  0  0  0
  193.9340  176.2670  143.9040 C   0  0  0  0  0  2  0  0  0  0  0  0
  188.6040  177.2230  145.1470 C   0  0  2  0  0  3  0  0  0  0  0  0
  193.6950  173.3040  141.4820 C   0  0  0  0  0  2  0  0  0  0  0  0
  187.9290  174.5670  140.3480 N   0  0  0  0  0  0  0  0  0  0  0  0
  187.1410  176.7390  143.0930 C   0  0  0  0  0  0  0  0  0  0  0  0
  189.8700  175.7350  146.6110 C   0  0  1  0  0  3  0  0  0  0  0  0
  187.6340  176.5970  146.1430 C   0  0  0  0  0  2  0  0  0  0  0  0
  195.4470  175.1670  142.3490 C   0  0  1  0  0  0  0  0  0  0  0  0
  193.2350  175.0240  143.3550 C   0  0  2  0  0  3  0  0  0  0  0  0
  190.8090  175.8900  143.6200 C   0  0  0  0  0  0  0  0  0  0  0  0
  194.1320  174.5300  142.2500 C   0  0  2  0  0  0  0  0  0  0  0  0
  190.0210  174.3800  141.3920 C   0  0  0  0  0  0  0  0  0  0  0  0
  191.7960  175.1460  142.8780 C   0  0  0  0  0  0  0  0  0  0  0  0
  189.2610  173.9400  140.1680 C   0  0  0  0  0  2  0  0  0  0  0  0
  191.3760  174.3560  141.7400 C   0  0  0  0  0  0  0  0  0  0  0  0
  189.1470  175.0570  142.1510 C   0  0  0  0  0  0  0  0  0  0  0  0
  194.5360  175.5440  141.3450 O   0  0  0  0  0  0  0  0  0  0  0  0
  188.4130  176.6110  143.8180 N   0  0  0  0  0  0  0  0  0  0  0  0
  186.9130  176.0490  141.9950 N   0  0  0  0  0  0  0  0  0  0  0  0
  192.3420  173.6180  140.8350 C   0  0  0  0  0  2  0  0  0  0  0  0
  187.9130  175.1500  141.5020 C   0  0  0  0  0  0  0  0  0  0  0  0
  189.4680  175.8310  143.2190 C   0  0  0  0  0  0  0  0  0  0  0  0
  190.8240  175.8120  147.7860 C   0  0  0  0  0  1  0  0  0  0  0  0
  188.4410  175.7410  147.1080 C   0  0  0  0  0  2  0  0  0  0  0  0
  196.7080  174.4280  141.8770 C   0  0  0  0  0  0  0  0  0  0  0  0
  197.9410  175.2380  142.2330 C   0  0  0  0  0  1  0  0  0  0  0  0
  196.6560  174.2740  140.4910 O   0  0  0  0  0  1  0  0  0  0  0  0
  196.8040  173.1670  142.4680 O   0  0  0  0  0  1  0  0  0  0  0  0
  191.4620  178.2210  144.1420 C   0  0  0  0  0  2  0  0  0  0  0  0
  191.1790  178.2360  142.7750 O   0  0  0  0  0  1  0  0  0  0  0  0
  186.0900  177.6890  143.5840 C   0  0  2  0  0  3  0  0  0  0  0  0
  184.8260  177.5570  142.7530 C   0  0  0  0  0  1  0  0  0  0  0  0
  185.5670  179.7660  144.1470 C   0  0  0  0  0  1  0  0  0  0  0  0
  186.5600  179.0030  143.5280 O   0  0  0  0  0  0  0  0  0  0  0  0
  1 32  1  6  0  0  0
  1  3  1  0  0  0  0
  2  4  1  0  0  0  0
  3  9  1  0  0  0  0
  5  3  1  0  0  0  0
  5 10  1  0  0  0  0
  6 14  1  0  0  0  0
  7 24  2  0  0  0  0
  8 34  1  0  0  0  0
  8 21  1  0  0  0  0
  9 27  1  0  0  0  0
  9 26  1  0  0  0  0
 10 27  1  0  0  0  0
 11  2  1  0  0  0  0
 12  4  1  0  0  0  0
 13  1  1  0  0  0  0
 14 11  1  0  0  0  0
 14 12  1  0  0  0  0
 15 18  2  0  0  0  0
 15 19  1  0  0  0  0
 16 12  1  0  0  0  0
 16 13  2  0  0  0  0
 17  7  1  0  0  0  0
 17 15  1  0  0  0  0
 18 16  1  0  0  0  0
 19 25  2  0  0  0  0
 20 14  1  0  0  0  0
 20 11  1  0  0  0  0
 21  5  1  0  0  0  0
 22  8  2  0  0  0  0
 23  6  1  0  0  0  0
 23 18  1  0  0  0  0
 24 22  1  0  0  0  0
 24 19  1  0  0  0  0
 25 13  1  0  0  0  0
 25 21  1  0  0  0  0
 28 29  1  0  0  0  0
 28 11  1  0  0  0  0
 28 31  1  0  0  0  0
 30 28  1  0  0  0  0
 33 32  1  0  0  0  0
 35 34  1  0  0  0  0
 37 34  1  0  0  0  0
 37 36  1  0  0  0  0
M  END
>  <MODEL>
8

>  <REMARK>
 VINA RESULT:      -7.4      3.035      7.569
  Name = 
  4 active torsions:
  status: ('A' for Active; 'I' for Inactive)
    1  A    between atoms: C_1  and  C_8
    2  A    between atoms: C_3  and  C_17
    3  A    between atoms: C_14  and  C_25
    4  A    between atoms: O_24  and  C_25
                            x       y       z     vdW  Elec       q    Type
                         _______ _______ _______ _____ _____    ______ ____

>  <TORSDO>
F 4

$$$$
=
 OpenBabel11062421513D

 37 44  0  0  1  0  0  0  0  0999 V2000
  190.6270  172.8900  142.4700 C   0  0  1  0  0  3  0  0  0  0  0  0
  194.2250  171.2190  144.5750 C   0  0  0  0  0  2  0  0  0  0  0  0
  189.6190  172.9540  141.3090 C   0  0  1  0  0  3  0  0  0  0  0  0
  193.0490  171.8760  143.8470 C   0  0  0  0  0  2  0  0  0  0  0  0
  188.5810  174.0880  141.3950 C   0  0  2  0  0  3  0  0  0  0  0  0
  195.3850  174.8990  144.1810 C   0  0  0  0  0  2  0  0  0  0  0  0
  190.7460  178.6750  143.5880 N   0  0  0  0  0  0  0  0  0  0  0  0
  188.2430  176.4920  142.2300 C   0  0  0  0  0  0  0  0  0  0  0  0
  190.2990  173.1030  139.9670 C   0  0  1  0  0  3  0  0  0  0  0  0
  188.2350  174.4070  139.9450 C   0  0  0  0  0  2  0  0  0  0  0  0
  195.0920  172.3670  145.0740 C   0  0  1  0  0  0  0  0  0  0  0  0
  193.5570  173.2470  143.4010 C   0  0  2  0  0  3  0  0  0  0  0  0
  191.2550  174.2290  142.7370 C   0  0  0  0  0  0  0  0  0  0  0  0
  194.6810  173.5730  144.3500 C   0  0  2  0  0  0  0  0  0  0  0  0
  192.1410  176.7950  143.4420 C   0  0  0  0  0  0  0  0  0  0  0  0
  192.5670  174.3980  143.3090 C   0  0  0  0  0  0  0  0  0  0  0  0
  192.1250  178.2290  143.9050 C   0  0  0  0  0  2  0  0  0  0  0  0
  193.0210  175.7290  143.6530 C   0  0  0  0  0  0  0  0  0  0  0  0
  190.9510  176.5760  142.8640 C   0  0  0  0  0  0  0  0  0  0  0  0
  194.3510  173.3760  145.7160 O   0  0  0  0  0  0  0  0  0  0  0  0
  189.0880  175.3020  142.0630 N   0  0  0  0  0  0  0  0  0  0  0  0
  188.7490  177.6280  142.6630 N   0  0  0  0  0  0  0  0  0  0  0  0
  194.3390  176.0060  144.3500 C   0  0  0  0  0  2  0  0  0  0  0  0
  190.1460  177.7130  142.9670 C   0  0  0  0  0  0  0  0  0  0  0  0
  190.4520  175.3580  142.5300 C   0  0  0  0  0  0  0  0  0  0  0  0
  190.7160  171.7480  139.4330 C   0  0  0  0  0  1  0  0  0  0  0  0
  189.2590  173.7170  139.0560 C   0  0  0  0  0  2  0  0  0  0  0  0
  196.5460  172.1960  145.5370 C   0  0  0  0  0  0  0  0  0  0  0  0
  196.7340  170.8140  146.1380 C   0  0  0  0  0  1  0  0  0  0  0  0
  196.8320  173.1520  146.5120 O   0  0  0  0  0  1  0  0  0  0  0  0
  197.4370  172.3550  144.4740 O   0  0  0  0  0  1  0  0  0  0  0  0
  189.9330  172.3860  143.7300 C   0  0  0  0  0  2  0  0  0  0  0  0
  188.8760  171.5400  143.3900 O   0  0  0  0  0  1  0  0  0  0  0  0
  186.7750  176.4180  141.9330 C   0  0  2  0  0  3  0  0  0  0  0  0
  186.3570  177.5660  141.0330 C   0  0  0  0  0  1  0  0  0  0  0  0
  185.1760  177.5410  142.9760 C   0  0  0  0  0  1  0  0  0  0  0  0
  186.0390  176.4510  143.1200 O   0  0  0  0  0  0  0  0  0  0  0  0
  1 13  1  0  0  0  0
  1 32  1  1  0  0  0
  2 11  1  0  0  0  0
  3  5  1  0  0  0  0
  3  1  1  0  0  0  0
  4  2  1  0  0  0  0
  5 21  1  0  0  0  0
  6 23  1  0  0  0  0
  6 14  1  0  0  0  0
  7 17  1  0  0  0  0
  8 22  2  0  0  0  0
  9  3  1  0  0  0  0
 10  5  1  0  0  0  0
 11 28  1  0  0  0  0
 11 20  1  0  0  0  0
 12  4  1  0  0  0  0
 12 14  1  0  0  0  0
 13 16  1  0  0  0  0
 14 11  1  0  0  0  0
 14 20  1  0  0  0  0
 15 18  1  0  0  0  0
 15 17  1  0  0  0  0
 16 12  1  0  0  0  0
 16 18  2  0  0  0  0
 18 23  1  0  0  0  0
 19 24  1  0  0  0  0
 19 15  2  0  0  0  0
 21  8  1  0  0  0  0
 21 25  1  0  0  0  0
 22 24  1  0  0  0  0
 24  7  2  0  0  0  0
 25 13  2  0  0  0  0
 25 19  1  0  0  0  0
 26  9  1  0  0  0  0
 27 10  1  0  0  0  0
 27  9  1  0  0  0  0
 28 29  1  0  0  0  0
 28 30  1  0  0  0  0
 31 28  1  0  0  0  0
 33 32  1  0  0  0  0
 34  8  1  0  0  0  0
 34 37  1  0  0  0  0
 35 34  1  0  0  0  0
 36 37  1  0  0  0  0
M  END
>  <MODEL>
9

>  <REMARK>
 VINA RESULT:      -7.0      2.769      8.108
  Name = 
  4 active torsions:
  status: ('A' for Active; 'I' for Inactive)
    1  A    between atoms: C_1  and  C_8
    2  A    between atoms: C_3  and  C_17
    3  A    between atoms: C_14  and  C_25
    4  A    between atoms: O_24  and  C_25
                            x       y       z     vdW  Elec       q    Type
                         _______ _______ _______ _____ _____    ______ ____

>  <TORSDO>
F 4

$$$$
