=
 OpenBabel11072409123D

 39 45  0  0  1  0  0  0  0  0999 V2000
  190.5390  173.8510  144.6760 C   0  0  1  0  0  0  0  0  0  0  0  0
  191.5590  172.7250  144.6170 C   0  0  0  0  0  2  0  0  0  0  0  0
  189.9190  174.2930  143.3640 C   0  0  0  0  0  2  0  0  0  0  0  0
  189.5600  172.8580  143.0380 C   0  0  2  0  0  3  0  0  0  0  0  0
  190.0940  172.4150  144.3930 C   0  0  2  0  0  3  0  0  0  0  0  0
  189.8700  174.2510  145.9850 C   0  0  0  0  0  2  0  0  0  0  0  0
  191.6200  175.1580  147.2890 O   0  0  0  0  0  0  0  0  0  0  0  0
  190.6070  175.3770  146.6420 C   0  0  0  0  0  0  0  0  0  0  0  0
  190.1240  176.7790  146.4580 C   0  0  0  0  0  2  0  0  0  0  0  0
  189.1470  176.8260  145.4230 O   0  0  0  0  0  0  0  0  0  0  0  0
  185.2320  178.2580  145.9780 C   0  0  0  0  0  0  0  0  0  0  0  0
  185.7470  178.1110  144.6910 C   0  0  0  0  0  3  0  0  0  0  0  0
  183.8360  178.7370  146.1670 C   0  0  0  0  0  1  0  0  0  0  0  0
  187.0630  177.6770  144.4940 C   0  0  0  0  0  0  0  0  0  0  0  0
  187.3310  177.4970  146.9010 C   0  0  0  0  0  3  0  0  0  0  0  0
  186.0260  177.9570  147.0840 C   0  0  0  0  0  3  0  0  0  0  0  0
  187.8600  177.3430  145.6100 C   0  0  0  0  0  0  0  0  0  0  0  0
  187.1800  176.4660  142.2570 C   0  0  0  0  0  0  0  0  0  0  0  0
  187.5360  177.5260  143.1470 N   0  0  0  0  0  2  0  0  0  0  0  0
  186.6320  175.4170  142.6920 O   0  0  0  0  0  0  0  0  0  0  0  0
  187.0130  177.7370  140.2810 O   0  0  0  0  0  1  0  0  0  0  0  0
  187.5460  176.5650  140.8180 C   0  0  0  0  0  2  0  0  0  0  0  0
  190.3960  172.3770  141.9960 O   0  0  0  0  0  0  0  0  0  0  0  0
  191.9580  173.6120  140.5710 N   0  0  0  0  0  2  0  0  0  0  0  0
  190.6420  173.1190  140.8370 C   0  0  0  0  0  0  0  0  0  0  0  0
  189.7060  173.3780  140.0330 O   0  0  0  0  0  0  0  0  0  0  0  0
  193.0520  173.4190  141.5120 C   0  0  0  0  0  2  0  0  0  0  0  0
  195.7400  174.0430  145.2020 C   0  0  1  0  0  0  0  0  0  0  0  0
  193.7270  175.7360  143.9740 C   0  0  0  0  0  0  0  0  0  0  0  0
  194.2690  174.7680  143.2490 C   0  0  0  0  0  0  0  0  0  0  0  0
  195.4020  173.8890  143.7210 C   0  0  1  0  0  3  0  0  0  0  0  0
  192.7400  176.3900  143.1500 C   0  0  0  0  0  0  0  0  0  0  0  0
  194.2910  176.2260  145.2620 C   0  0  0  0  0  2  0  0  0  0  0  0
  196.5810  174.7220  144.1960 C   0  0  2  0  0  3  0  0  0  0  0  0
  193.6860  174.7620  141.8570 C   0  0  2  0  0  3  0  0  0  0  0  0
  192.6890  175.7800  141.9100 O   0  0  0  0  0  0  0  0  0  0  0  0
  194.9630  175.0860  146.0410 C   0  0  0  0  0  2  0  0  0  0  0  0
  197.1910  174.1440  145.4050 N   0  0  0  0  0  2  0  0  0  0  0  0
  192.0060  177.3540  143.5020 O   0  0  0  0  0  0  0  0  0  0  0  0
  1  6  1  1  0  0  0
  2  1  1  0  0  0  0
  3  1  1  0  0  0  0
  4 23  1  6  0  0  0
  4  3  1  0  0  0  0
  4  5  1  0  0  0  0
  5  2  1  6  0  0  0
  5  1  1  0  0  0  0
  6  8  1  0  0  0  0
  8  7  2  0  0  0  0
  9  8  1  0  0  0  0
 10 17  1  0  0  0  0
 10  9  1  0  0  0  0
 11 13  1  0  0  0  0
 11 16  1  0  0  0  0
 12 11  2  0  0  0  0
 14 12  1  0  0  0  0
 14 17  2  0  0  0  0
 15 16  2  0  0  0  0
 17 15  1  0  0  0  0
 18 20  2  0  0  0  0
 18 19  1  0  0  0  0
 19 14  1  0  0  0  0
 21 22  1  0  0  0  0
 22 18  1  0  0  0  0
 24 25  1  0  0  0  0
 24 27  1  0  0  0  0
 25 23  1  0  0  0  0
 26 25  2  0  0  0  0
 28 38  1  0  0  0  0
 28 37  1  1  0  0  0
 29 33  1  0  0  0  0
 30 29  2  0  0  0  0
 31 30  1  1  0  0  0
 31 34  1  0  0  0  0
 31 28  1  0  0  0  0
 32 39  2  0  0  0  0
 32 29  1  0  0  0  0
 33 37  1  0  0  0  0
 34 28  1  0  0  0  0
 34 38  1  6  0  0  0
 35 27  1  1  0  0  0
 35 36  1  0  0  0  0
 35 30  1  0  0  0  0
 36 32  1  0  0  0  0
M  END
>  <MODEL>
1

>  <REMARK>
 VINA RESULT:      -7.1      0.000      0.000
  Name = 
  11 active torsions:
  status: ('A' for Active; 'I' for Inactive)
    1  A    between atoms: C_1  and  C_5
    2  A    between atoms: C_5  and  C_26
    3  A    between atoms: C_6  and  C_37
    4  A    between atoms: C_14  and  N_22
    5  A    between atoms: O_17  and  C_19
    6  A    between atoms: O_17  and  C_34
    7  A    between atoms: N_18  and  C_24
    8  A    between atoms: C_21  and  C_24
    9  A    between atoms: C_26  and  C_33
   10  A    between atoms: C_32  and  O_39
   11  A    between atoms: C_33  and  O_39
                            x       y       z     vdW  Elec       q    Type
                         _______ _______ _______ _____ _____    ______ ____

>  <TORSDO>
F 11

$$$$
=
 OpenBabel11072409123D

 39 45  0  0  1  0  0  0  0  0999 V2000
  189.7000  173.3940  143.1050 C   0  0  1  0  0  0  0  0  0  0  0  0
  189.7750  172.7980  144.5010 C   0  0  0  0  0  2  0  0  0  0  0  0
  191.0100  173.6060  142.3700 C   0  0  0  0  0  2  0  0  0  0  0  0
  191.4080  172.1700  142.6440 C   0  0  2  0  0  3  0  0  0  0  0  0
  190.0570  171.9200  143.3000 C   0  0  2  0  0  3  0  0  0  0  0  0
  188.3970  173.4130  142.3170 C   0  0  0  0  0  2  0  0  0  0  0  0
  188.5080  174.4970  140.2190 O   0  0  0  0  0  0  0  0  0  0  0  0
  188.3270  174.6120  141.4220 C   0  0  0  0  0  0  0  0  0  0  0  0
  187.9840  175.9450  142.0040 C   0  0  0  0  0  2  0  0  0  0  0  0
  186.8140  175.8400  142.8080 O   0  0  0  0  0  0  0  0  0  0  0  0
  186.0620  178.1280  146.2540 C   0  0  0  0  0  0  0  0  0  0  0  0
  185.2340  178.2500  145.1400 C   0  0  0  0  0  3  0  0  0  0  0  0
  185.7740  178.9180  147.4820 C   0  0  0  0  0  1  0  0  0  0  0  0
  185.4990  177.5270  143.9720 C   0  0  0  0  0  0  0  0  0  0  0  0
  187.4180  176.5190  145.0680 C   0  0  0  0  0  3  0  0  0  0  0  0
  187.1580  177.2670  146.2170 C   0  0  0  0  0  3  0  0  0  0  0  0
  186.5900  176.6320  143.9390 C   0  0  0  0  0  0  0  0  0  0  0  0
  184.9520  178.2070  141.5800 C   0  0  0  0  0  0  0  0  0  0  0  0
  184.6030  177.6760  142.8590 N   0  0  0  0  0  2  0  0  0  0  0  0
  186.0230  178.8530  141.4200 O   0  0  0  0  0  0  0  0  0  0  0  0
  182.6900  178.0540  140.9420 O   0  0  0  0  0  1  0  0  0  0  0  0
  183.9950  178.0770  140.4480 C   0  0  0  0  0  2  0  0  0  0  0  0
  192.4430  172.1340  143.6160 O   0  0  0  0  0  0  0  0  0  0  0  0
  194.8150  172.2430  144.2140 N   0  0  0  0  0  2  0  0  0  0  0  0
  193.7830  171.9460  143.2680 C   0  0  0  0  0  0  0  0  0  0  0  0
  194.0940  171.5370  142.1160 O   0  0  0  0  0  0  0  0  0  0  0  0
  194.5130  172.8030  145.5230 C   0  0  0  0  0  2  0  0  0  0  0  0
  191.0600  175.7710  146.2320 C   0  0  1  0  0  0  0  0  0  0  0  0
  193.3160  175.8370  144.4060 C   0  0  0  0  0  0  0  0  0  0  0  0
  193.3840  175.0480  145.4690 C   0  0  0  0  0  0  0  0  0  0  0  0
  192.3370  174.9990  146.5560 C   0  0  1  0  0  3  0  0  0  0  0  0
  194.5330  175.6510  143.6540 C   0  0  0  0  0  0  0  0  0  0  0  0
  192.3140  176.9260  144.2410 C   0  0  0  0  0  2  0  0  0  0  0  0
  192.0670  176.3850  147.1200 C   0  0  2  0  0  3  0  0  0  0  0  0
  194.7030  174.3160  145.5000 C   0  0  2  0  0  3  0  0  0  0  0  0
  195.3320  174.7150  144.2840 O   0  0  0  0  0  0  0  0  0  0  0  0
  190.9770  176.5510  144.8980 C   0  0  0  0  0  2  0  0  0  0  0  0
  190.6310  176.5870  147.3750 N   0  0  0  0  0  2  0  0  0  0  0  0
  194.8250  176.2250  142.5690 O   0  0  0  0  0  0  0  0  0  0  0  0
  1  6  1  6  0  0  0
  1  5  1  0  0  0  0
  1  2  1  0  0  0  0
  3  4  1  0  0  0  0
  3  1  1  0  0  0  0
  4  5  1  0  0  0  0
  4 23  1  1  0  0  0
  5  2  1  1  0  0  0
  7  8  2  0  0  0  0
  8  9  1  0  0  0  0
  8  6  1  0  0  0  0
  9 10  1  0  0  0  0
 10 17  1  0  0  0  0
 11 13  1  0  0  0  0
 12 11  2  0  0  0  0
 14 12  1  0  0  0  0
 15 16  2  0  0  0  0
 16 11  1  0  0  0  0
 17 14  2  0  0  0  0
 17 15  1  0  0  0  0
 18 19  1  0  0  0  0
 19 14  1  0  0  0  0
 20 18  2  0  0  0  0
 22 21  1  0  0  0  0
 22 18  1  0  0  0  0
 24 27  1  0  0  0  0
 25 23  1  0  0  0  0
 25 24  1  0  0  0  0
 26 25  2  0  0  0  0
 28 37  1  6  0  0  0
 28 31  1  0  0  0  0
 28 34  1  0  0  0  0
 28 38  1  0  0  0  0
 29 30  2  0  0  0  0
 30 35  1  0  0  0  0
 31 30  1  6  0  0  0
 31 34  1  0  0  0  0
 32 36  1  0  0  0  0
 32 29  1  0  0  0  0
 33 29  1  0  0  0  0
 33 37  1  0  0  0  0
 34 38  1  1  0  0  0
 35 27  1  6  0  0  0
 36 35  1  0  0  0  0
 39 32  2  0  0  0  0
M  END
>  <MODEL>
2

>  <REMARK>
 VINA RESULT:      -7.0      2.180      3.736
  Name = 
  11 active torsions:
  status: ('A' for Active; 'I' for Inactive)
    1  A    between atoms: C_1  and  C_5
    2  A    between atoms: C_5  and  C_26
    3  A    between atoms: C_6  and  C_37
    4  A    between atoms: C_14  and  N_22
    5  A    between atoms: O_17  and  C_19
    6  A    between atoms: O_17  and  C_34
    7  A    between atoms: N_18  and  C_24
    8  A    between atoms: C_21  and  C_24
    9  A    between atoms: C_26  and  C_33
   10  A    between atoms: C_32  and  O_39
   11  A    between atoms: C_33  and  O_39
                            x       y       z     vdW  Elec       q    Type
                         _______ _______ _______ _____ _____    ______ ____

>  <TORSDO>
F 11

$$$$
=
 OpenBabel11072409123D

 39 45  0  0  1  0  0  0  0  0999 V2000
  190.3550  175.5350  146.4680 C   0  0  1  0  0  0  0  0  0  0  0  0
  189.6510  174.3410  145.8450 C   0  0  0  0  0  2  0  0  0  0  0  0
  189.6540  176.8780  146.3760 C   0  0  0  0  0  2  0  0  0  0  0  0
  188.3880  176.2680  146.9400 C   0  0  2  0  0  3  0  0  0  0  0  0
  189.1090  174.9390  147.1250 C   0  0  2  0  0  3  0  0  0  0  0  0
  191.4880  175.3570  147.4700 C   0  0  0  0  0  2  0  0  0  0  0  0
  193.2030  176.9160  147.0060 O   0  0  0  0  0  0  0  0  0  0  0  0
  192.8000  175.7700  146.8760 C   0  0  0  0  0  0  0  0  0  0  0  0
  193.6380  174.7570  146.1680 C   0  0  0  0  0  2  0  0  0  0  0  0
  194.9990  175.1740  146.1540 O   0  0  0  0  0  0  0  0  0  0  0  0
  197.1870  175.4020  142.5700 C   0  0  0  0  0  0  0  0  0  0  0  0
  197.3760  174.3270  143.4380 C   0  0  0  0  0  3  0  0  0  0  0  0
  197.9410  175.4620  141.2890 C   0  0  0  0  0  1  0  0  0  0  0  0
  196.6870  174.2620  144.6540 C   0  0  0  0  0  0  0  0  0  0  0  0
  195.5770  176.3500  144.1010 C   0  0  0  0  0  3  0  0  0  0  0  0
  196.2910  176.4170  142.9040 C   0  0  0  0  0  3  0  0  0  0  0  0
  195.7570  175.2720  144.9830 C   0  0  0  0  0  0  0  0  0  0  0  0
  196.2190  171.8750  145.4070 C   0  0  0  0  0  0  0  0  0  0  0  0
  196.9070  173.1240  145.5020 N   0  0  0  0  0  2  0  0  0  0  0  0
  195.1550  171.7750  144.7400 O   0  0  0  0  0  0  0  0  0  0  0  0
  197.7320  170.0700  145.4690 O   0  0  0  0  0  1  0  0  0  0  0  0
  196.7150  170.7070  146.1830 C   0  0  0  0  0  2  0  0  0  0  0  0
  187.4080  176.1590  145.9180 O   0  0  0  0  0  0  0  0  0  0  0  0
  186.8670  177.2550  143.7950 N   0  0  0  0  0  2  0  0  0  0  0  0
  186.9300  177.2750  145.2250 C   0  0  0  0  0  0  0  0  0  0  0  0
  186.5740  178.3110  145.8490 O   0  0  0  0  0  0  0  0  0  0  0  0
  187.3510  176.1190  143.0250 C   0  0  0  0  0  2  0  0  0  0  0  0
  190.9790  173.3550  142.3690 C   0  0  1  0  0  0  0  0  0  0  0  0
  190.7910  176.2170  142.8180 C   0  0  0  0  0  0  0  0  0  0  0  0
  189.7180  175.5720  142.3810 C   0  0  0  0  0  0  0  0  0  0  0  0
  189.7050  174.1110  141.9990 C   0  0  1  0  0  3  0  0  0  0  0  0
  190.4190  177.5990  142.9950 C   0  0  0  0  0  0  0  0  0  0  0  0
  192.1680  175.6510  142.7940 C   0  0  0  0  0  2  0  0  0  0  0  0
  190.7850  173.8020  140.9750 C   0  0  2  0  0  3  0  0  0  0  0  0
  188.5650  176.5280  142.1990 C   0  0  2  0  0  3  0  0  0  0  0  0
  189.0860  177.7690  142.6690 O   0  0  0  0  0  0  0  0  0  0  0  0
  192.1470  174.1320  143.0220 C   0  0  0  0  0  2  0  0  0  0  0  0
  191.4340  172.5110  141.2560 N   0  0  0  0  0  2  0  0  0  0  0  0
  191.1750  178.5190  143.4130 O   0  0  0  0  0  0  0  0  0  0  0  0
  1  5  1  0  0  0  0
  1  6  1  1  0  0  0
  2  1  1  0  0  0  0
  3  1  1  0  0  0  0
  3  4  1  0  0  0  0
  4 23  1  6  0  0  0
  4  5  1  0  0  0  0
  5  2  1  6  0  0  0
  8  7  2  0  0  0  0
  8  6  1  0  0  0  0
  9  8  1  0  0  0  0
 10  9  1  0  0  0  0
 11 16  2  0  0  0  0
 11 12  1  0  0  0  0
 12 14  2  0  0  0  0
 13 11  1  0  0  0  0
 14 17  1  0  0  0  0
 14 19  1  0  0  0  0
 15 17  2  0  0  0  0
 16 15  1  0  0  0  0
 17 10  1  0  0  0  0
 18 19  1  0  0  0  0
 18 22  1  0  0  0  0
 20 18  2  0  0  0  0
 21 22  1  0  0  0  0
 24 25  1  0  0  0  0
 25 26  2  0  0  0  0
 25 23  1  0  0  0  0
 27 24  1  0  0  0  0
 28 37  1  1  0  0  0
 29 32  1  0  0  0  0
 30 29  2  0  0  0  0
 31 28  1  0  0  0  0
 31 30  1  1  0  0  0
 32 39  2  0  0  0  0
 33 29  1  0  0  0  0
 33 37  1  0  0  0  0
 34 38  1  6  0  0  0
 34 31  1  0  0  0  0
 34 28  1  0  0  0  0
 35 30  1  0  0  0  0
 35 36  1  0  0  0  0
 35 27  1  1  0  0  0
 36 32  1  0  0  0  0
 38 28  1  0  0  0  0
M  END
>  <MODEL>
3

>  <REMARK>
 VINA RESULT:      -6.9      2.406      7.609
  Name = 
  11 active torsions:
  status: ('A' for Active; 'I' for Inactive)
    1  A    between atoms: C_1  and  C_5
    2  A    between atoms: C_5  and  C_26
    3  A    between atoms: C_6  and  C_37
    4  A    between atoms: C_14  and  N_22
    5  A    between atoms: O_17  and  C_19
    6  A    between atoms: O_17  and  C_34
    7  A    between atoms: N_18  and  C_24
    8  A    between atoms: C_21  and  C_24
    9  A    between atoms: C_26  and  C_33
   10  A    between atoms: C_32  and  O_39
   11  A    between atoms: C_33  and  O_39
                            x       y       z     vdW  Elec       q    Type
                         _______ _______ _______ _____ _____    ______ ____

>  <TORSDO>
F 11

$$$$
=
 OpenBabel11072409123D

 39 45  0  0  1  0  0  0  0  0999 V2000
  192.2740  176.8370  144.8710 C   0  0  1  0  0  0  0  0  0  0  0  0
  191.1860  177.5840  144.1190 C   0  0  0  0  0  2  0  0  0  0  0  0
  191.8920  176.2040  146.1950 C   0  0  0  0  0  2  0  0  0  0  0  0
  190.7100  175.5200  145.5390 C   0  0  2  0  0  3  0  0  0  0  0  0
  191.1390  176.0730  144.1870 C   0  0  2  0  0  3  0  0  0  0  0  0
  193.5580  176.3930  144.1810 C   0  0  0  0  0  2  0  0  0  0  0  0
  194.9210  177.6150  145.6760 O   0  0  0  0  0  0  0  0  0  0  0  0
  194.7390  176.5600  145.0860 C   0  0  0  0  0  0  0  0  0  0  0  0
  195.6670  175.4100  145.3050 C   0  0  0  0  0  2  0  0  0  0  0  0
  195.1300  174.2310  144.7140 O   0  0  0  0  0  0  0  0  0  0  0  0
  195.8260  170.3340  146.1320 C   0  0  0  0  0  0  0  0  0  0  0  0
  194.5370  170.7300  145.7780 C   0  0  0  0  0  3  0  0  0  0  0  0
  196.0720  168.9450  146.6050 C   0  0  0  0  0  1  0  0  0  0  0  0
  194.2850  172.0370  145.3470 C   0  0  0  0  0  0  0  0  0  0  0  0
  196.6490  172.5390  145.5880 C   0  0  0  0  0  3  0  0  0  0  0  0
  196.8820  171.2410  146.0430 C   0  0  0  0  0  3  0  0  0  0  0  0
  195.3550  172.9490  145.2260 C   0  0  0  0  0  0  0  0  0  0  0  0
  192.3380  172.1260  143.7080 C   0  0  0  0  0  0  0  0  0  0  0  0
  192.9420  172.3850  144.9770 N   0  0  0  0  0  2  0  0  0  0  0  0
  193.0430  171.8160  142.7100 O   0  0  0  0  0  0  0  0  0  0  0  0
  190.6260  173.0850  142.4050 O   0  0  0  0  0  1  0  0  0  0  0  0
  190.8710  172.3160  143.5440 C   0  0  0  0  0  2  0  0  0  0  0  0
  189.5010  176.1340  145.9630 O   0  0  0  0  0  0  0  0  0  0  0  0
  187.3580  176.0790  147.1450 N   0  0  0  0  0  2  0  0  0  0  0  0
  188.6720  175.5570  146.9290 C   0  0  0  0  0  0  0  0  0  0  0  0
  189.0830  174.5930  147.6300 O   0  0  0  0  0  0  0  0  0  0  0  0
  186.8710  177.2470  146.4270 C   0  0  0  0  0  2  0  0  0  0  0  0
  187.9290  176.5790  141.9930 C   0  0  1  0  0  0  0  0  0  0  0  0
  185.6030  177.7640  143.2630 C   0  0  0  0  0  0  0  0  0  0  0  0
  186.3770  176.9610  143.9800 C   0  0  0  0  0  0  0  0  0  0  0  0
  187.5480  176.1900  143.4190 C   0  0  1  0  0  3  0  0  0  0  0  0
  184.5580  178.2440  144.1340 C   0  0  0  0  0  0  0  0  0  0  0  0
  185.6510  177.8580  141.7780 C   0  0  0  0  0  2  0  0  0  0  0  0
  187.1320  175.3570  142.2180 C   0  0  2  0  0  3  0  0  0  0  0  0
  185.8410  176.8270  145.3840 C   0  0  2  0  0  3  0  0  0  0  0  0
  184.7290  177.7200  145.4020 O   0  0  0  0  0  0  0  0  0  0  0  0
  187.0800  177.6430  141.2560 C   0  0  0  0  0  2  0  0  0  0  0  0
  188.1600  175.3890  141.1640 N   0  0  0  0  0  2  0  0  0  0  0  0
  183.6380  179.0440  143.8100 O   0  0  0  0  0  0  0  0  0  0  0  0
  1  6  1  6  0  0  0
  1  3  1  0  0  0  0
  2  1  1  0  0  0  0
  4 23  1  1  0  0  0
  4  3  1  0  0  0  0
  5  2  1  1  0  0  0
  5  1  1  0  0  0  0
  5  4  1  0  0  0  0
  6  8  1  0  0  0  0
  8  9  1  0  0  0  0
  8  7  2  0  0  0  0
 10 17  1  0  0  0  0
 10  9  1  0  0  0  0
 11 13  1  0  0  0  0
 12 11  2  0  0  0  0
 14 12  1  0  0  0  0
 15 16  2  0  0  0  0
 16 11  1  0  0  0  0
 17 14  2  0  0  0  0
 17 15  1  0  0  0  0
 18 19  1  0  0  0  0
 19 14  1  0  0  0  0
 20 18  2  0  0  0  0
 21 22  1  0  0  0  0
 22 18  1  0  0  0  0
 23 25  1  0  0  0  0
 25 24  1  0  0  0  0
 25 26  2  0  0  0  0
 27 24  1  0  0  0  0
 28 37  1  6  0  0  0
 28 34  1  0  0  0  0
 28 31  1  0  0  0  0
 29 30  2  0  0  0  0
 29 32  1  0  0  0  0
 30 35  1  0  0  0  0
 31 30  1  6  0  0  0
 32 36  1  0  0  0  0
 33 29  1  0  0  0  0
 34 38  1  1  0  0  0
 34 31  1  0  0  0  0
 35 36  1  0  0  0  0
 35 27  1  1  0  0  0
 37 33  1  0  0  0  0
 38 28  1  0  0  0  0
 39 32  2  0  0  0  0
M  END
>  <MODEL>
4

>  <REMARK>
 VINA RESULT:      -6.9      2.541      8.309
  Name = 
  11 active torsions:
  status: ('A' for Active; 'I' for Inactive)
    1  A    between atoms: C_1  and  C_5
    2  A    between atoms: C_5  and  C_26
    3  A    between atoms: C_6  and  C_37
    4  A    between atoms: C_14  and  N_22
    5  A    between atoms: O_17  and  C_19
    6  A    between atoms: O_17  and  C_34
    7  A    between atoms: N_18  and  C_24
    8  A    between atoms: C_21  and  C_24
    9  A    between atoms: C_26  and  C_33
   10  A    between atoms: C_32  and  O_39
   11  A    between atoms: C_33  and  O_39
                            x       y       z     vdW  Elec       q    Type
                         _______ _______ _______ _____ _____    ______ ____

>  <TORSDO>
F 11

$$$$
=
 OpenBabel11072409123D

 39 45  0  0  1  0  0  0  0  0999 V2000
  193.0320  175.7860  146.0260 C   0  0  1  0  0  0  0  0  0  0  0  0
  193.2410  176.7670  144.8850 C   0  0  0  0  0  2  0  0  0  0  0  0
  194.0100  174.6310  146.1350 C   0  0  0  0  0  2  0  0  0  0  0  0
  195.1750  175.5970  146.0670 C   0  0  2  0  0  3  0  0  0  0  0  0
  194.2040  176.7690  146.0540 C   0  0  2  0  0  3  0  0  0  0  0  0
  192.1600  176.1340  147.2250 C   0  0  0  0  0  2  0  0  0  0  0  0
  190.0210  175.1350  147.3250 O   0  0  0  0  0  0  0  0  0  0  0  0
  190.7060  176.0410  146.8770 C   0  0  0  0  0  0  0  0  0  0  0  0
  190.0870  177.0950  146.0170 C   0  0  0  0  0  2  0  0  0  0  0  0
  188.8800  176.6060  145.4410 O   0  0  0  0  0  0  0  0  0  0  0  0
  185.0500  178.1560  146.2260 C   0  0  0  0  0  0  0  0  0  0  0  0
  185.6080  178.2790  144.9540 C   0  0  0  0  0  3  0  0  0  0  0  0
  183.6830  178.6790  146.4900 C   0  0  0  0  0  1  0  0  0  0  0  0
  186.8980  177.8070  144.6920 C   0  0  0  0  0  0  0  0  0  0  0  0
  187.0530  177.0430  146.9920 C   0  0  0  0  0  3  0  0  0  0  0  0
  185.7750  177.5430  147.2470 C   0  0  0  0  0  3  0  0  0  0  0  0
  187.6240  177.1590  145.7140 C   0  0  0  0  0  0  0  0  0  0  0  0
  187.0280  177.1540  142.2340 C   0  0  0  0  0  0  0  0  0  0  0  0
  187.4160  177.9440  143.3590 N   0  0  0  0  0  2  0  0  0  0  0  0
  186.3940  176.0760  142.3910 O   0  0  0  0  0  0  0  0  0  0  0  0
  186.3630  177.5310  140.0060 O   0  0  0  0  0  1  0  0  0  0  0  0
  187.4590  177.5620  140.8700 C   0  0  0  0  0  2  0  0  0  0  0  0
  195.8260  175.4800  144.8100 O   0  0  0  0  0  0  0  0  0  0  0  0
  196.3990  173.6800  143.2530 N   0  0  0  0  0  2  0  0  0  0  0  0
  196.6190  174.3760  144.4830 C   0  0  0  0  0  0  0  0  0  0  0  0
  197.5130  173.9740  145.2760 O   0  0  0  0  0  0  0  0  0  0  0  0
  195.3210  174.0480  142.3470 C   0  0  0  0  0  2  0  0  0  0  0  0
  190.7820  174.6440  142.8660 C   0  0  1  0  0  0  0  0  0  0  0  0
  192.5550  172.5070  143.7100 C   0  0  0  0  0  0  0  0  0  0  0  0
  192.9500  173.3090  142.7310 C   0  0  0  0  0  0  0  0  0  0  0  0
  192.0880  174.3860  142.1180 C   0  0  1  0  0  3  0  0  0  0  0  0
  193.6260  171.5720  143.9580 C   0  0  0  0  0  0  0  0  0  0  0  0
  191.1510  172.4160  144.1950 C   0  0  0  0  0  2  0  0  0  0  0  0
  190.7600  173.8200  141.6420 C   0  0  2  0  0  3  0  0  0  0  0  0
  194.3180  172.9060  142.2380 C   0  0  2  0  0  3  0  0  0  0  0  0
  194.6860  171.8410  143.1120 O   0  0  0  0  0  0  0  0  0  0  0  0
  190.4440  173.7760  144.1020 C   0  0  0  0  0  2  0  0  0  0  0  0
  189.6500  174.7420  141.9360 N   0  0  0  0  0  2  0  0  0  0  0  0
  193.6220  170.6610  144.8310 O   0  0  0  0  0  0  0  0  0  0  0  0
  1  5  1  0  0  0  0
  1  3  1  0  0  0  0
  1  6  1  1  0  0  0
  2  1  1  0  0  0  0
  4 23  1  6  0  0  0
  4  3  1  0  0  0  0
  5  2  1  6  0  0  0
  5  4  1  0  0  0  0
  8  6  1  0  0  0  0
  8  7  2  0  0  0  0
  9  8  1  0  0  0  0
 10 17  1  0  0  0  0
 10  9  1  0  0  0  0
 11 13  1  0  0  0  0
 11 16  1  0  0  0  0
 12 11  2  0  0  0  0
 14 12  1  0  0  0  0
 14 17  2  0  0  0  0
 15 16  2  0  0  0  0
 17 15  1  0  0  0  0
 18 20  2  0  0  0  0
 18 19  1  0  0  0  0
 19 14  1  0  0  0  0
 21 22  1  0  0  0  0
 22 18  1  0  0  0  0
 24 25  1  0  0  0  0
 25 23  1  0  0  0  0
 25 26  2  0  0  0  0
 27 24  1  0  0  0  0
 28 37  1  1  0  0  0
 29 32  1  0  0  0  0
 29 33  1  0  0  0  0
 30 29  2  0  0  0  0
 31 30  1  1  0  0  0
 31 28  1  0  0  0  0
 32 39  2  0  0  0  0
 34 38  1  6  0  0  0
 34 31  1  0  0  0  0
 34 28  1  0  0  0  0
 35 27  1  1  0  0  0
 35 30  1  0  0  0  0
 35 36  1  0  0  0  0
 36 32  1  0  0  0  0
 37 33  1  0  0  0  0
 38 28  1  0  0  0  0
M  END
>  <MODEL>
5

>  <REMARK>
 VINA RESULT:      -6.8      1.946      4.238
  Name = 
  11 active torsions:
  status: ('A' for Active; 'I' for Inactive)
    1  A    between atoms: C_1  and  C_5
    2  A    between atoms: C_5  and  C_26
    3  A    between atoms: C_6  and  C_37
    4  A    between atoms: C_14  and  N_22
    5  A    between atoms: O_17  and  C_19
    6  A    between atoms: O_17  and  C_34
    7  A    between atoms: N_18  and  C_24
    8  A    between atoms: C_21  and  C_24
    9  A    between atoms: C_26  and  C_33
   10  A    between atoms: C_32  and  O_39
   11  A    between atoms: C_33  and  O_39
                            x       y       z     vdW  Elec       q    Type
                         _______ _______ _______ _____ _____    ______ ____

>  <TORSDO>
F 11

$$$$
=
 OpenBabel11072409123D

 39 45  0  0  1  0  0  0  0  0999 V2000
  189.6860  173.8450  143.5070 C   0  0  1  0  0  0  0  0  0  0  0  0
  189.7450  173.3120  144.9290 C   0  0  0  0  0  2  0  0  0  0  0  0
  190.8550  173.5180  142.5960 C   0  0  0  0  0  2  0  0  0  0  0  0
  190.7280  172.0490  142.9420 C   0  0  2  0  0  3  0  0  0  0  0  0
  189.4960  172.3520  143.7840 C   0  0  2  0  0  3  0  0  0  0  0  0
  188.3800  174.3300  142.8920 C   0  0  0  0  0  2  0  0  0  0  0  0
  188.6190  174.8820  140.6060 O   0  0  0  0  0  0  0  0  0  0  0  0
  188.6380  175.2780  141.7620 C   0  0  0  0  0  0  0  0  0  0  0  0
  188.8690  176.7250  142.0540 C   0  0  0  0  0  2  0  0  0  0  0  0
  187.7720  177.2560  142.7900 O   0  0  0  0  0  0  0  0  0  0  0  0
  184.0100  178.0820  141.1030 C   0  0  0  0  0  0  0  0  0  0  0  0
  184.1430  177.9470  142.4840 C   0  0  0  0  0  3  0  0  0  0  0  0
  182.6820  178.4040  140.5130 C   0  0  0  0  0  1  0  0  0  0  0  0
  185.3800  177.6290  143.0540 C   0  0  0  0  0  0  0  0  0  0  0  0
  186.3670  177.6250  140.8350 C   0  0  0  0  0  3  0  0  0  0  0  0
  185.1210  177.9150  140.2770 C   0  0  0  0  0  3  0  0  0  0  0  0
  186.5140  177.4880  142.2250 C   0  0  0  0  0  0  0  0  0  0  0  0
  185.4590  178.6150  145.4000 C   0  0  0  0  0  0  0  0  0  0  0  0
  185.4640  177.5190  144.4830 N   0  0  0  0  0  2  0  0  0  0  0  0
  185.6660  179.7920  144.9990 O   0  0  0  0  0  0  0  0  0  0  0  0
  185.9390  179.3570  147.5840 O   0  0  0  0  0  1  0  0  0  0  0  0
  185.3030  178.3500  146.8560 C   0  0  0  0  0  2  0  0  0  0  0  0
  191.8100  171.6550  143.7740 O   0  0  0  0  0  0  0  0  0  0  0  0
  194.1400  172.3170  144.1340 N   0  0  0  0  0  2  0  0  0  0  0  0
  193.1360  171.6850  143.3340 C   0  0  0  0  0  0  0  0  0  0  0  0
  193.4530  171.1800  142.2230 O   0  0  0  0  0  0  0  0  0  0  0  0
  193.8110  172.9940  145.3800 C   0  0  0  0  0  2  0  0  0  0  0  0
  190.8690  176.2290  146.8330 C   0  0  1  0  0  0  0  0  0  0  0  0
  192.5790  176.0900  144.4920 C   0  0  0  0  0  0  0  0  0  0  0  0
  192.8630  175.3170  145.5310 C   0  0  0  0  0  0  0  0  0  0  0  0
  192.1290  175.3680  146.8500 C   0  0  1  0  0  3  0  0  0  0  0  0
  193.5460  175.7970  143.4620 C   0  0  0  0  0  0  0  0  0  0  0  0
  191.6460  177.2480  144.5470 C   0  0  0  0  0  2  0  0  0  0  0  0
  192.1100  176.7810  147.4120 C   0  0  2  0  0  3  0  0  0  0  0  0
  194.0920  174.4870  145.2520 C   0  0  2  0  0  3  0  0  0  0  0  0
  194.4140  174.8150  143.9020 O   0  0  0  0  0  0  0  0  0  0  0  0
  190.4990  176.9880  145.5360 C   0  0  0  0  0  2  0  0  0  0  0  0
  190.8040  177.0970  148.0160 N   0  0  0  0  0  2  0  0  0  0  0  0
  193.5880  176.3270  142.3180 O   0  0  0  0  0  0  0  0  0  0  0  0
  1  6  1  6  0  0  0
  1  5  1  0  0  0  0
  1  2  1  0  0  0  0
  3  4  1  0  0  0  0
  3  1  1  0  0  0  0
  4 23  1  1  0  0  0
  4  5  1  0  0  0  0
  5  2  1  1  0  0  0
  7  8  2  0  0  0  0
  8  9  1  0  0  0  0
  8  6  1  0  0  0  0
  9 10  1  0  0  0  0
 11 12  1  0  0  0  0
 12 14  2  0  0  0  0
 13 11  1  0  0  0  0
 14 19  1  0  0  0  0
 15 17  2  0  0  0  0
 16 15  1  0  0  0  0
 16 11  2  0  0  0  0
 17 10  1  0  0  0  0
 17 14  1  0  0  0  0
 18 22  1  0  0  0  0
 19 18  1  0  0  0  0
 20 18  2  0  0  0  0
 22 21  1  0  0  0  0
 24 27  1  0  0  0  0
 25 23  1  0  0  0  0
 25 24  1  0  0  0  0
 26 25  2  0  0  0  0
 28 37  1  6  0  0  0
 28 31  1  0  0  0  0
 28 34  1  0  0  0  0
 28 38  1  0  0  0  0
 29 33  1  0  0  0  0
 29 30  2  0  0  0  0
 31 30  1  6  0  0  0
 31 34  1  0  0  0  0
 32 36  1  0  0  0  0
 32 29  1  0  0  0  0
 33 37  1  0  0  0  0
 34 38  1  1  0  0  0
 35 27  1  6  0  0  0
 35 30  1  0  0  0  0
 36 35  1  0  0  0  0
 39 32  2  0  0  0  0
M  END
>  <MODEL>
6

>  <REMARK>
 VINA RESULT:      -6.8      2.487      4.369
  Name = 
  11 active torsions:
  status: ('A' for Active; 'I' for Inactive)
    1  A    between atoms: C_1  and  C_5
    2  A    between atoms: C_5  and  C_26
    3  A    between atoms: C_6  and  C_37
    4  A    between atoms: C_14  and  N_22
    5  A    between atoms: O_17  and  C_19
    6  A    between atoms: O_17  and  C_34
    7  A    between atoms: N_18  and  C_24
    8  A    between atoms: C_21  and  C_24
    9  A    between atoms: C_26  and  C_33
   10  A    between atoms: C_32  and  O_39
   11  A    between atoms: C_33  and  O_39
                            x       y       z     vdW  Elec       q    Type
                         _______ _______ _______ _____ _____    ______ ____

>  <TORSDO>
F 11

$$$$
=
 OpenBabel11072409123D

 39 45  0  0  1  0  0  0  0  0999 V2000
  188.1890  174.5090  141.5030 C   0  0  1  0  0  0  0  0  0  0  0  0
  188.4320  173.2750  140.6510 C   0  0  0  0  0  2  0  0  0  0  0  0
  188.6670  174.4630  142.9420 C   0  0  0  0  0  2  0  0  0  0  0  0
  190.0420  174.0230  142.4830 C   0  0  2  0  0  3  0  0  0  0  0  0
  189.6010  174.1580  141.0310 C   0  0  2  0  0  3  0  0  0  0  0  0
  187.8560  175.8560  140.8750 C   0  0  0  0  0  2  0  0  0  0  0  0
  186.1220  176.4990  142.3470 O   0  0  0  0  0  0  0  0  0  0  0  0
  187.2160  176.7700  141.8740 C   0  0  0  0  0  0  0  0  0  0  0  0
  187.9450  177.9920  142.3280 C   0  0  0  0  0  2  0  0  0  0  0  0
  187.7660  178.1760  143.7280 O   0  0  0  0  0  0  0  0  0  0  0  0
  190.2250  176.2620  146.5510 C   0  0  0  0  0  0  0  0  0  0  0  0
  188.8400  176.2540  146.7110 C   0  0  0  0  0  3  0  0  0  0  0  0
  191.0890  175.5580  147.5370 C   0  0  0  0  0  1  0  0  0  0  0  0
  188.0140  176.9250  145.8030 C   0  0  0  0  0  0  0  0  0  0  0  0
  189.9830  177.5780  144.5400 C   0  0  0  0  0  3  0  0  0  0  0  0
  190.7980  176.9290  145.4690 C   0  0  0  0  0  3  0  0  0  0  0  0
  188.5870  177.5760  144.6890 C   0  0  0  0  0  0  0  0  0  0  0  0
  185.8130  177.8590  146.6780 C   0  0  0  0  0  0  0  0  0  0  0  0
  186.5930  176.8690  146.0050 N   0  0  0  0  0  2  0  0  0  0  0  0
  186.3640  178.7330  147.4000 O   0  0  0  0  0  0  0  0  0  0  0  0
  183.8550  178.8790  145.8570 O   0  0  0  0  0  1  0  0  0  0  0  0
  184.3280  177.7970  146.6010 C   0  0  0  0  0  2  0  0  0  0  0  0
  190.2460  172.6570  142.8120 O   0  0  0  0  0  0  0  0  0  0  0  0
  191.9310  172.0330  144.4760 N   0  0  0  0  0  2  0  0  0  0  0  0
  190.5640  172.2440  144.1090 C   0  0  0  0  0  0  0  0  0  0  0  0
  189.6520  172.0330  144.9540 O   0  0  0  0  0  0  0  0  0  0  0  0
  193.0120  172.1740  143.5120 C   0  0  0  0  0  2  0  0  0  0  0  0
  194.4340  176.3070  144.9670 C   0  0  1  0  0  0  0  0  0  0  0  0
  195.8720  174.0790  143.7870 C   0  0  0  0  0  0  0  0  0  0  0  0
  194.6910  173.8480  144.3440 C   0  0  0  0  0  0  0  0  0  0  0  0
  193.8890  174.8870  145.0910 C   0  0  1  0  0  3  0  0  0  0  0  0
  196.3440  172.8280  143.2460 C   0  0  0  0  0  0  0  0  0  0  0  0
  196.6610  175.3240  143.9960 C   0  0  0  0  0  2  0  0  0  0  0  0
  194.7160  175.5310  146.1910 C   0  0  2  0  0  3  0  0  0  0  0  0
  194.3350  172.3850  144.2390 C   0  0  2  0  0  3  0  0  0  0  0  0
  195.4090  171.8360  143.4790 O   0  0  0  0  0  0  0  0  0  0  0  0
  195.7390  176.5410  144.1690 C   0  0  0  0  0  2  0  0  0  0  0  0
  194.4600  176.9790  146.2730 N   0  0  0  0  0  2  0  0  0  0  0  0
  197.4290  172.6550  142.6270 O   0  0  0  0  0  0  0  0  0  0  0  0
  1  6  1  6  0  0  0
  1  3  1  0  0  0  0
  2  1  1  0  0  0  0
  4 23  1  1  0  0  0
  4  3  1  0  0  0  0
  5  2  1  6  0  0  0
  5  1  1  0  0  0  0
  5  4  1  0  0  0  0
  6  8  1  0  0  0  0
  8  9  1  0  0  0  0
  8  7  2  0  0  0  0
  9 10  1  0  0  0  0
 10 17  1  0  0  0  0
 11 12  1  0  0  0  0
 11 13  1  0  0  0  0
 14 19  1  0  0  0  0
 14 12  2  0  0  0  0
 15 17  2  0  0  0  0
 15 16  1  0  0  0  0
 16 11  2  0  0  0  0
 17 14  1  0  0  0  0
 18 20  2  0  0  0  0
 19 18  1  0  0  0  0
 21 22  1  0  0  0  0
 22 18  1  0  0  0  0
 23 25  1  0  0  0  0
 25 24  1  0  0  0  0
 25 26  2  0  0  0  0
 27 24  1  0  0  0  0
 28 37  1  6  0  0  0
 28 31  1  0  0  0  0
 28 34  1  0  0  0  0
 28 38  1  0  0  0  0
 29 33  1  0  0  0  0
 29 30  2  0  0  0  0
 31 30  1  6  0  0  0
 31 34  1  0  0  0  0
 32 36  1  0  0  0  0
 32 29  1  0  0  0  0
 33 37  1  0  0  0  0
 34 38  1  1  0  0  0
 35 27  1  6  0  0  0
 35 30  1  0  0  0  0
 36 35  1  0  0  0  0
 39 32  2  0  0  0  0
M  END
>  <MODEL>
7

>  <REMARK>
 VINA RESULT:      -6.7      2.338      4.416
  Name = 
  11 active torsions:
  status: ('A' for Active; 'I' for Inactive)
    1  A    between atoms: C_1  and  C_5
    2  A    between atoms: C_5  and  C_26
    3  A    between atoms: C_6  and  C_37
    4  A    between atoms: C_14  and  N_22
    5  A    between atoms: O_17  and  C_19
    6  A    between atoms: O_17  and  C_34
    7  A    between atoms: N_18  and  C_24
    8  A    between atoms: C_21  and  C_24
    9  A    between atoms: C_26  and  C_33
   10  A    between atoms: C_32  and  O_39
   11  A    between atoms: C_33  and  O_39
                            x       y       z     vdW  Elec       q    Type
                         _______ _______ _______ _____ _____    ______ ____

>  <TORSDO>
F 11

$$$$
=
 OpenBabel11072409123D

 39 45  0  0  1  0  0  0  0  0999 V2000
  194.3030  175.8470  144.7130 C   0  0  1  0  0  0  0  0  0  0  0  0
  194.4390  174.7400  145.7440 C   0  0  0  0  0  2  0  0  0  0  0  0
  192.8970  176.2370  144.2960 C   0  0  0  0  0  2  0  0  0  0  0  0
  192.4980  176.3950  145.7490 C   0  0  2  0  0  3  0  0  0  0  0  0
  193.9290  176.0990  146.1760 C   0  0  2  0  0  3  0  0  0  0  0  0
  195.4560  176.7930  144.4040 C   0  0  0  0  0  2  0  0  0  0  0  0
  195.5170  176.4700  142.0630 O   0  0  0  0  0  0  0  0  0  0  0  0
  196.1290  176.4160  143.1190 C   0  0  0  0  0  0  0  0  0  0  0  0
  197.5700  176.0220  143.1310 C   0  0  0  0  0  2  0  0  0  0  0  0
  197.7000  174.6390  142.8170 O   0  0  0  0  0  0  0  0  0  0  0  0
  196.3590  171.4970  145.2690 C   0  0  0  0  0  0  0  0  0  0  0  0
  195.9500  171.5690  143.9380 C   0  0  0  0  0  3  0  0  0  0  0  0
  195.9050  170.3670  146.1240 C   0  0  0  0  0  1  0  0  0  0  0  0
  196.3530  172.6330  143.1240 C   0  0  0  0  0  0  0  0  0  0  0  0
  197.6230  173.5360  144.9870 C   0  0  0  0  0  3  0  0  0  0  0  0
  197.1910  172.4840  145.7950 C   0  0  0  0  0  3  0  0  0  0  0  0
  197.2200  173.6180  143.6440 C   0  0  0  0  0  0  0  0  0  0  0  0
  194.6980  173.2220  141.2810 C   0  0  0  0  0  0  0  0  0  0  0  0
  195.9170  172.6480  141.7560 N   0  0  0  0  0  2  0  0  0  0  0  0
  193.7690  173.5150  142.0810 O   0  0  0  0  0  0  0  0  0  0  0  0
  195.3240  174.3940  139.3360 O   0  0  0  0  0  1  0  0  0  0  0  0
  194.4880  173.3850  139.8170 C   0  0  0  0  0  2  0  0  0  0  0  0
  191.6380  175.3310  146.1310 O   0  0  0  0  0  0  0  0  0  0  0  0
  189.3480  175.5850  146.9610 N   0  0  0  0  0  2  0  0  0  0  0  0
  190.7510  175.4420  147.2060 C   0  0  0  0  0  0  0  0  0  0  0  0
  191.1790  175.4400  148.3920 O   0  0  0  0  0  0  0  0  0  0  0  0
  188.8140  175.6850  145.6110 C   0  0  0  0  0  2  0  0  0  0  0  0
  184.7970  177.9180  145.2820 C   0  0  1  0  0  0  0  0  0  0  0  0
  187.1970  178.0160  143.6520 C   0  0  0  0  0  0  0  0  0  0  0  0
  187.2890  177.5480  144.8890 C   0  0  0  0  0  0  0  0  0  0  0  0
  186.1510  177.5450  145.8810 C   0  0  1  0  0  3  0  0  0  0  0  0
  188.5070  177.9160  143.0560 C   0  0  0  0  0  0  0  0  0  0  0  0
  186.0310  178.7870  143.1390 C   0  0  0  0  0  2  0  0  0  0  0  0
  185.5560  178.9350  146.0370 C   0  0  2  0  0  3  0  0  0  0  0  0
  188.7120  177.1490  145.1970 C   0  0  2  0  0  3  0  0  0  0  0  0
  189.3910  177.3610  143.9620 O   0  0  0  0  0  0  0  0  0  0  0  0
  184.7230  178.3070  143.7860 C   0  0  0  0  0  2  0  0  0  0  0  0
  184.0870  178.8790  146.1370 N   0  0  0  0  0  2  0  0  0  0  0  0
  188.8080  178.2530  141.8780 O   0  0  0  0  0  0  0  0  0  0  0  0
  1  6  1  6  0  0  0
  1  2  1  0  0  0  0
  1  5  1  0  0  0  0
  3  1  1  0  0  0  0
  3  4  1  0  0  0  0
  4 23  1  1  0  0  0
  4  5  1  0  0  0  0
  5  2  1  1  0  0  0
  7  8  2  0  0  0  0
  8  9  1  0  0  0  0
  8  6  1  0  0  0  0
 10  9  1  0  0  0  0
 10 17  1  0  0  0  0
 11 16  1  0  0  0  0
 11 13  1  0  0  0  0
 12 11  2  0  0  0  0
 14 17  2  0  0  0  0
 14 12  1  0  0  0  0
 15 16  2  0  0  0  0
 17 15  1  0  0  0  0
 18 19  1  0  0  0  0
 18 20  2  0  0  0  0
 19 14  1  0  0  0  0
 21 22  1  0  0  0  0
 22 18  1  0  0  0  0
 23 25  1  0  0  0  0
 24 25  1  0  0  0  0
 25 26  2  0  0  0  0
 27 24  1  0  0  0  0
 28 37  1  6  0  0  0
 28 31  1  0  0  0  0
 28 34  1  0  0  0  0
 28 38  1  0  0  0  0
 29 30  2  0  0  0  0
 30 35  1  0  0  0  0
 31 30  1  6  0  0  0
 31 34  1  0  0  0  0
 32 29  1  0  0  0  0
 32 36  1  0  0  0  0
 33 29  1  0  0  0  0
 33 37  1  0  0  0  0
 34 38  1  1  0  0  0
 35 27  1  6  0  0  0
 36 35  1  0  0  0  0
 39 32  2  0  0  0  0
M  END
>  <MODEL>
8

>  <REMARK>
 VINA RESULT:      -6.7      2.525      8.763
  Name = 
  11 active torsions:
  status: ('A' for Active; 'I' for Inactive)
    1  A    between atoms: C_1  and  C_5
    2  A    between atoms: C_5  and  C_26
    3  A    between atoms: C_6  and  C_37
    4  A    between atoms: C_14  and  N_22
    5  A    between atoms: O_17  and  C_19
    6  A    between atoms: O_17  and  C_34
    7  A    between atoms: N_18  and  C_24
    8  A    between atoms: C_21  and  C_24
    9  A    between atoms: C_26  and  C_33
   10  A    between atoms: C_32  and  O_39
   11  A    between atoms: C_33  and  O_39
                            x       y       z     vdW  Elec       q    Type
                         _______ _______ _______ _____ _____    ______ ____

>  <TORSDO>
F 11

$$$$
=
 OpenBabel11072409123D

 39 45  0  0  1  0  0  0  0  0999 V2000
  189.6450  172.8640  141.8630 C   0  0  1  0  0  0  0  0  0  0  0  0
  189.9180  173.8310  143.0030 C   0  0  0  0  0  2  0  0  0  0  0  0
  188.3760  173.0790  141.0600 C   0  0  0  0  0  2  0  0  0  0  0  0
  188.7420  174.5340  140.8510 C   0  0  2  0  0  3  0  0  0  0  0  0
  190.0640  174.3070  141.5730 C   0  0  2  0  0  3  0  0  0  0  0  0
  190.7460  171.9820  141.2880 C   0  0  0  0  0  2  0  0  0  0  0  0
  190.4410  169.7520  142.0090 O   0  0  0  0  0  0  0  0  0  0  0  0
  191.0200  170.8130  142.1840 C   0  0  0  0  0  0  0  0  0  0  0  0
  192.0460  170.9380  143.2630 C   0  0  0  0  0  2  0  0  0  0  0  0
  193.0610  171.8550  142.8670 O   0  0  0  0  0  0  0  0  0  0  0  0
  193.9720  175.2850  145.1220 C   0  0  0  0  0  0  0  0  0  0  0  0
  193.9410  175.3510  143.7300 C   0  0  0  0  0  3  0  0  0  0  0  0
  194.2650  176.5080  145.9170 C   0  0  0  0  0  1  0  0  0  0  0  0
  193.6830  174.2070  142.9670 C   0  0  0  0  0  0  0  0  0  0  0  0
  193.4410  172.9300  145.0190 C   0  0  0  0  0  3  0  0  0  0  0  0
  193.7270  174.0730  145.7670 C   0  0  0  0  0  3  0  0  0  0  0  0
  193.4060  172.9850  143.6160 C   0  0  0  0  0  0  0  0  0  0  0  0
  194.7370  174.0740  140.6530 C   0  0  0  0  0  0  0  0  0  0  0  0
  193.6460  174.3360  141.5370 N   0  0  0  0  0  2  0  0  0  0  0  0
  195.9140  173.9770  141.0930 O   0  0  0  0  0  0  0  0  0  0  0  0
  194.5630  175.2930  138.6450 O   0  0  0  0  0  1  0  0  0  0  0  0
  194.4910  174.0090  139.1870 C   0  0  0  0  0  2  0  0  0  0  0  0
  187.8910  175.3630  141.6300 O   0  0  0  0  0  0  0  0  0  0  0  0
  188.3390  177.7580  141.8690 N   0  0  0  0  0  2  0  0  0  0  0  0
  187.6070  176.6830  141.2710 C   0  0  0  0  0  0  0  0  0  0  0  0
  186.6940  176.9390  140.4400 O   0  0  0  0  0  0  0  0  0  0  0  0
  189.3380  177.5220  142.9010 C   0  0  0  0  0  2  0  0  0  0  0  0
  190.4410  175.3070  146.7870 C   0  0  1  0  0  0  0  0  0  0  0  0
  187.9360  176.4430  145.8600 C   0  0  0  0  0  0  0  0  0  0  0  0
  189.0670  176.8680  145.3120 C   0  0  0  0  0  0  0  0  0  0  0  0
  190.4420  176.4480  145.7740 C   0  0  1  0  0  3  0  0  0  0  0  0
  186.8540  177.1280  145.1970 C   0  0  0  0  0  0  0  0  0  0  0  0
  187.8670  175.6650  147.1270 C   0  0  0  0  0  2  0  0  0  0  0  0
  190.6180  176.6930  147.2630 C   0  0  2  0  0  3  0  0  0  0  0  0
  188.7840  177.9170  144.2650 C   0  0  2  0  0  3  0  0  0  0  0  0
  187.3600  177.9680  144.2220 O   0  0  0  0  0  0  0  0  0  0  0  0
  189.0860  174.7420  147.2770 C   0  0  0  0  0  2  0  0  0  0  0  0
  191.3550  175.5900  147.9020 N   0  0  0  0  0  2  0  0  0  0  0  0
  185.6250  176.9730  145.4390 O   0  0  0  0  0  0  0  0  0  0  0  0
  1  6  1  6  0  0  0
  1  2  1  0  0  0  0
  3  1  1  0  0  0  0
  4  3  1  0  0  0  0
  4  5  1  0  0  0  0
  4 23  1  1  0  0  0
  5  1  1  0  0  0  0
  5  2  1  1  0  0  0
  6  8  1  0  0  0  0
  7  8  2  0  0  0  0
  8  9  1  0  0  0  0
 10  9  1  0  0  0  0
 10 17  1  0  0  0  0
 11 16  1  0  0  0  0
 11 13  1  0  0  0  0
 12 11  2  0  0  0  0
 14 17  2  0  0  0  0
 14 12  1  0  0  0  0
 15 16  2  0  0  0  0
 17 15  1  0  0  0  0
 18 20  2  0  0  0  0
 18 19  1  0  0  0  0
 19 14  1  0  0  0  0
 21 22  1  0  0  0  0
 22 18  1  0  0  0  0
 24 27  1  0  0  0  0
 25 23  1  0  0  0  0
 25 24  1  0  0  0  0
 26 25  2  0  0  0  0
 28 34  1  0  0  0  0
 28 37  1  1  0  0  0
 28 38  1  0  0  0  0
 29 33  1  0  0  0  0
 30 29  2  0  0  0  0
 31 30  1  1  0  0  0
 31 28  1  0  0  0  0
 31 34  1  0  0  0  0
 32 39  2  0  0  0  0
 32 29  1  0  0  0  0
 33 37  1  0  0  0  0
 34 38  1  6  0  0  0
 35 27  1  6  0  0  0
 35 30  1  0  0  0  0
 36 35  1  0  0  0  0
 36 32  1  0  0  0  0
M  END
>  <MODEL>
9

>  <REMARK>
 VINA RESULT:      -6.7      2.281      6.643
  Name = 
  11 active torsions:
  status: ('A' for Active; 'I' for Inactive)
    1  A    between atoms: C_1  and  C_5
    2  A    between atoms: C_5  and  C_26
    3  A    between atoms: C_6  and  C_37
    4  A    between atoms: C_14  and  N_22
    5  A    between atoms: O_17  and  C_19
    6  A    between atoms: O_17  and  C_34
    7  A    between atoms: N_18  and  C_24
    8  A    between atoms: C_21  and  C_24
    9  A    between atoms: C_26  and  C_33
   10  A    between atoms: C_32  and  O_39
   11  A    between atoms: C_33  and  O_39
                            x       y       z     vdW  Elec       q    Type
                         _______ _______ _______ _____ _____    ______ ____

>  <TORSDO>
F 11

$$$$
