=
 OpenBabel11062422353D

 59 64  0  0  1  0  0  0  0  0999 V2000
  190.8600  173.5790  141.0470 S   0  0  0  0  0  0  0  0  0  0  0  0
  191.3350  173.3700  139.2910 C   0  0  2  0  0  3  0  0  0  0  0  0
  190.0820  173.3120  138.4110 C   0  0  0  0  0  2  0  0  0  0  0  0
  188.8820  173.7370  139.2250 C   0  0  0  0  0  2  0  0  0  0  0  0
  189.1210  173.2730  140.6450 C   0  0  2  0  0  3  0  0  0  0  0  0
  194.4880  171.4290  137.2970 C   0  0  0  0  0  2  0  0  0  0  0  0
  194.6670  171.6520  138.6810 O   0  0  0  0  0  0  0  0  0  0  0  0
  192.3080  172.1780  139.0720 C   0  0  1  0  0  0  0  0  0  0  0  0
  193.0540  171.1560  136.9130 C   0  0  0  0  0  0  0  0  0  0  0  0
  192.0620  171.5730  137.7080 C   0  0  0  0  0  3  0  0  0  0  0  0
  193.7850  172.6720  139.1150 C   0  0  2  0  0  3  0  0  0  0  0  0
  193.7760  169.9880  143.6410 Cl  0  0  0  0  0  0  0  0  0  0  0  0
  192.7330  170.0390  142.2340 C   0  0  0  0  0  0  0  0  0  0  0  0
  192.0740  171.1040  140.1390 C   0  0  0  0  0  0  0  0  0  0  0  0
  192.8860  171.0570  141.2910 C   0  0  0  0  0  3  0  0  0  0  0  0
  191.7680  169.0480  142.0430 C   0  0  0  0  0  3  0  0  0  0  0  0
  190.9570  169.0740  140.9050 C   0  0  0  0  0  3  0  0  0  0  0  0
  191.1150  170.0880  139.9570 C   0  0  0  0  0  3  0  0  0  0  0  0
  193.0500  169.3900  135.3220 O   0  0  0  0  0  0  0  0  0  0  0  0
  192.1030  171.3800  134.5960 N   0  0  0  0  0  1  0  0  0  0  0  0
  192.7530  170.5860  135.5880 C   0  0  0  0  0  0  0  0  0  0  0  0
  194.1060  174.2790  138.2780 S   0  0  0  0  0  0  0  0  0  0  0  0
  196.3780  176.0360  142.4980 C   0  0  0  0  0  2  0  0  0  0  0  0
  195.8840  176.5390  141.1450 C   0  0  0  0  0  2  0  0  0  0  0  0
  194.8810  174.2430  140.8770 C   0  0  2  0  0  3  0  0  0  0  0  0
  195.4890  174.8990  143.0230 C   0  0  1  0  0  3  0  0  0  0  0  0
  194.2390  175.1610  139.8550 C   0  0  1  0  0  3  0  0  0  0  0  0
  194.4030  174.5980  142.1630 O   0  0  0  0  0  0  0  0  0  0  0  0
  195.7010  175.3540  140.2030 C   0  0  1  0  0  3  0  0  0  0  0  0
  197.6090  173.7990  142.8730 O   0  0  0  0  0  1  0  0  0  0  0  0
  196.3140  173.6670  143.3790 C   0  0  0  0  0  2  0  0  0  0  0  0
  188.1810  173.9250  141.6650 C   0  0  0  0  0  2  0  0  0  0  0  0
  187.1120  176.2550  141.3880 C   0  0  0  0  0  2  0  0  0  0  0  0
  189.3910  175.9570  142.3590 C   0  0  0  0  0  3  0  0  0  0  0  0
  188.2220  178.1450  142.6190 C   0  0  0  0  0  2  0  0  0  0  0  0
  188.3080  175.4180  141.7740 C   0  0  0  0  0  0  0  0  0  0  0  0
  187.3760  177.7630  141.4100 C   0  0  2  0  0  3  0  0  0  0  0  0
  189.5680  177.4440  142.5010 C   0  0  1  0  0  3  0  0  0  0  0  0
  186.1110  178.4740  141.4540 N   0  0  0  0  0  2  0  0  0  0  0  0
  185.3160  178.0180  140.3220 C   0  0  0  0  0  2  0  0  0  0  0  0
  183.8460  178.2620  140.6000 C   0  0  0  0  0  1  0  0  0  0  0  0
  190.3550  177.7210  143.6220 O   0  0  0  0  0  0  0  0  0  0  0  0
  191.0590  176.6190  143.8160 O   0  0  0  0  0  0  0  0  0  0  0  0
  191.5740  176.7480  145.1100 C   0  0  0  0  0  2  0  0  0  0  0  0
  191.5390  175.3770  145.7880 C   0  0  1  0  0  3  0  0  0  0  0  0
  190.5380  175.3180  146.9570 C   0  0  1  0  0  3  0  0  0  0  0  0
  191.2600  175.4140  148.2920 C   0  0  0  0  0  1  0  0  0  0  0  0
  189.4850  176.3810  146.8940 C   0  0  0  0  0  0  0  0  0  0  0  0
  189.7310  177.5560  147.2920 O   0  0  0  0  0  0  0  0  0  0  0  0
  188.1790  176.0350  146.4270 N   0  0  0  0  0  2  0  0  0  0  0  0
  187.1320  177.0250  146.2270 C   0  0  1  0  0  3  0  0  0  0  0  0
  186.3140  176.6590  145.0040 C   0  0  0  0  0  1  0  0  0  0  0  0
  186.2620  177.0670  147.3910 N   0  0  0  0  0  2  0  0  0  0  0  0
  185.8160  179.3640  147.2380 O   0  0  0  0  0  0  0  0  0  0  0  0
  185.6470  178.2720  147.8480 C   0  0  0  0  0  3  0  0  0  0  0  0
  192.4240  173.2300  144.7770 C   0  0  0  0  0  1  0  0  0  0  0  0
  191.2910  174.2540  144.7680 C   0  0  1  0  0  3  0  0  0  0  0  0
  190.0790  173.6140  145.0340 O   0  0  0  0  0  0  0  0  0  0  0  0
  190.2590  172.2990  144.5910 C   0  0  0  0  0  1  0  0  0  0  0  0
  2  3  1  6  0  0  0
  2  1  1  0  0  0  0
  3  4  1  0  0  0  0
  4  5  1  0  0  0  0
  5  1  1  0  0  0  0
  5 32  1  1  0  0  0
  6  7  1  0  0  0  0
  7 11  1  0  0  0  0
  8 11  1  0  0  0  0
  8  2  1  0  0  0  0
  8 14  1  1  0  0  0
  9  6  1  0  0  0  0
  9 10  2  0  0  0  0
 10  8  1  0  0  0  0
 11 22  1  6  0  0  0
 13 12  1  0  0  0  0
 14 15  1  0  0  0  0
 15 13  2  0  0  0  0
 16 13  1  0  0  0  0
 17 16  2  0  0  0  0
 18 14  2  0  0  0  0
 18 17  1  0  0  0  0
 19 21  2  0  0  0  0
 20 21  1  0  0  0  0
 21  9  1  0  0  0  0
 23 26  1  0  0  0  0
 24 23  1  0  0  0  0
 25 28  1  1  0  0  0
 26 31  1  6  0  0  0
 27 22  1  6  0  0  0
 27 29  1  0  0  0  0
 27 25  1  0  0  0  0
 28 26  1  0  0  0  0
 29 25  1  0  0  0  0
 29 24  1  1  0  0  0
 30 31  1  0  0  0  0
 32 36  1  0  0  0  0
 33 37  1  0  0  0  0
 33 36  1  0  0  0  0
 34 38  1  0  0  0  0
 36 34  2  0  0  0  0
 37 39  1  1  0  0  0
 37 35  1  0  0  0  0
 38 35  1  0  0  0  0
 38 42  1  1  0  0  0
 40 41  1  0  0  0  0
 40 39  1  0  0  0  0
 42 43  1  0  0  0  0
 43 44  1  0  0  0  0
 45 44  1  6  0  0  0
 45 46  1  0  0  0  0
 46 47  1  1  0  0  0
 48 46  1  0  0  0  0
 48 49  2  0  0  0  0
 50 48  1  0  0  0  0
 51 52  1  6  0  0  0
 51 50  1  0  0  0  0
 51 53  1  0  0  0  0
 53 55  1  0  0  0  0
 54 55  2  0  0  0  0
 57 56  1  1  0  0  0
 57 58  1  0  0  0  0
 57 45  1  0  0  0  0
 59 58  1  0  0  0  0
M  END
>  <MODEL>
1

>  <REMARK>
 VINA RESULT:      -6.4      0.000      0.000
  Name = 
  20 active torsions:
  status: ('A' for Active; 'I' for Inactive)
    1  A    between atoms: O_1  and  C_27
    2  A    between atoms: C_5  and  N_31
    3  A    between atoms: N_10  and  C_22
    4  A    between atoms: C_16  and  C_30
    5  A    between atoms: C_17  and  C_51
    6  A    between atoms: C_19  and  C_30
    7  A    between atoms: C_22  and  N_54
    8  A    between atoms: S_24  and  C_29
    9  A    between atoms: S_24  and  C_56
   10  A    between atoms: C_25  and  C_59
   11  A    between atoms: C_27  and  C_36
   12  A    between atoms: C_28  and  C_32
   13  A    between atoms: N_31  and  C_33
   14  A    between atoms: C_32  and  C_36
   15  A    between atoms: C_35  and  C_55
   16  A    between atoms: C_36  and  C_47
   17  A    between atoms: C_47  and  O_48
   18  A    between atoms: O_48  and  O_50
   19  A    between atoms: C_49  and  O_50
   20  A    between atoms: C_58  and  C_59
                            x       y       z     vdW  Elec       q    Type
                         _______ _______ _______ _____ _____    ______ ____

>  <TORSDO>
F 20

$$$$
=
 OpenBabel11062422353D

 59 64  0  0  1  0  0  0  0  0999 V2000
  191.5430  173.4320  141.1030 S   0  0  0  0  0  0  0  0  0  0  0  0
  191.8280  173.4820  139.2950 C   0  0  2  0  0  3  0  0  0  0  0  0
  190.4890  173.4700  138.5500 C   0  0  0  0  0  2  0  0  0  0  0  0
  189.3700  173.7160  139.5350 C   0  0  0  0  0  2  0  0  0  0  0  0
  189.7850  173.0850  140.8470 C   0  0  2  0  0  3  0  0  0  0  0  0
  194.7370  171.9530  136.6700 C   0  0  0  0  0  2  0  0  0  0  0  0
  195.1150  172.0620  138.0270 O   0  0  0  0  0  0  0  0  0  0  0  0
  192.8190  172.3860  138.8150 C   0  0  1  0  0  0  0  0  0  0  0  0
  193.2770  171.6170  136.4780 C   0  0  0  0  0  0  0  0  0  0  0  0
  192.3990  171.8910  137.4490 C   0  0  0  0  0  3  0  0  0  0  0  0
  194.2560  172.9740  138.6870 C   0  0  2  0  0  3  0  0  0  0  0  0
  195.2060  169.7820  142.7330 Cl  0  0  0  0  0  0  0  0  0  0  0  0
  193.8930  169.9510  141.5860 C   0  0  0  0  0  0  0  0  0  0  0  0
  192.8130  171.2050  139.7920 C   0  0  0  0  0  0  0  0  0  0  0  0
  193.8460  171.0610  140.7400 C   0  0  0  0  0  3  0  0  0  0  0  0
  192.9090  168.9640  141.4980 C   0  0  0  0  0  3  0  0  0  0  0  0
  191.8790  169.0860  140.5620 C   0  0  0  0  0  3  0  0  0  0  0  0
  191.8370  170.1920  139.7100 C   0  0  0  0  0  3  0  0  0  0  0  0
  191.9530  171.8150  134.5140 O   0  0  0  0  0  0  0  0  0  0  0  0
  193.3310  169.9490  134.5960 N   0  0  0  0  0  1  0  0  0  0  0  0
  192.8070  171.1510  135.1620 C   0  0  0  0  0  0  0  0  0  0  0  0
  194.3550  174.6690  137.9770 S   0  0  0  0  0  0  0  0  0  0  0  0
  196.2620  174.8930  142.7060 C   0  0  0  0  0  2  0  0  0  0  0  0
  196.6340  174.3670  141.3240 C   0  0  0  0  0  2  0  0  0  0  0  0
  194.5750  175.5780  140.5230 C   0  0  2  0  0  3  0  0  0  0  0  0
  195.4250  176.1770  142.6030 C   0  0  1  0  0  3  0  0  0  0  0  0
  195.4300  175.2500  139.3150 C   0  0  1  0  0  3  0  0  0  0  0  0
  195.2170  176.5990  141.2650 O   0  0  0  0  0  0  0  0  0  0  0  0
  195.3770  174.2680  140.4670 C   0  0  1  0  0  3  0  0  0  0  0  0
  194.0460  174.8000  143.9930 O   0  0  0  0  0  1  0  0  0  0  0  0
  194.1240  176.0570  143.3890 C   0  0  0  0  0  2  0  0  0  0  0  0
  188.9370  173.5440  142.0380 C   0  0  0  0  0  2  0  0  0  0  0  0
  187.1850  175.4370  142.0320 C   0  0  0  0  0  2  0  0  0  0  0  0
  189.6240  175.8980  142.2880 C   0  0  0  0  0  3  0  0  0  0  0  0
  187.9720  177.6870  142.8270 C   0  0  0  0  0  2  0  0  0  0  0  0
  188.6350  175.0160  142.0660 C   0  0  0  0  0  0  0  0  0  0  0  0
  186.9800  176.9500  141.9350 C   0  0  2  0  0  3  0  0  0  0  0  0
  189.3780  177.3820  142.3330 C   0  0  1  0  0  3  0  0  0  0  0  0
  185.6230  177.2800  142.3350 N   0  0  0  0  0  2  0  0  0  0  0  0
  185.2590  178.5170  141.6600 C   0  0  0  0  0  2  0  0  0  0  0  0
  184.2320  178.2280  140.5830 C   0  0  0  0  0  1  0  0  0  0  0  0
  190.3240  177.9920  143.1620 O   0  0  0  0  0  0  0  0  0  0  0  0
  190.7750  177.0140  143.9290 O   0  0  0  0  0  0  0  0  0  0  0  0
  191.1030  177.6340  145.1390 C   0  0  0  0  0  2  0  0  0  0  0  0
  190.4750  176.8370  146.2830 C   0  0  1  0  0  3  0  0  0  0  0  0
  189.3540  175.8940  145.8040 C   0  0  1  0  0  3  0  0  0  0  0  0
  189.8390  174.4530  145.7700 C   0  0  0  0  0  1  0  0  0  0  0  0
  188.1130  175.9720  146.6390 C   0  0  0  0  0  0  0  0  0  0  0  0
  187.9870  175.2570  147.6740 O   0  0  0  0  0  0  0  0  0  0  0  0
  187.0490  176.8300  146.2180 N   0  0  0  0  0  2  0  0  0  0  0  0
  185.8580  177.0520  147.0240 C   0  0  1  0  0  3  0  0  0  0  0  0
  186.1150  178.1770  148.0080 C   0  0  0  0  0  1  0  0  0  0  0  0
  184.7400  177.4090  146.1660 N   0  0  0  0  0  2  0  0  0  0  0  0
  185.7030  179.3990  145.3850 O   0  0  0  0  0  0  0  0  0  0  0  0
  184.7240  178.6030  145.3830 C   0  0  0  0  0  3  0  0  0  0  0  0
  192.9280  176.6980  146.8980 C   0  0  0  0  0  1  0  0  0  0  0  0
  191.5420  176.0870  147.0950 C   0  0  1  0  0  3  0  0  0  0  0  0
  191.2160  176.0970  148.4530 O   0  0  0  0  0  0  0  0  0  0  0  0
  191.6970  177.3200  148.9320 C   0  0  0  0  0  1  0  0  0  0  0  0
  2  3  1  6  0  0  0
  2  1  1  0  0  0  0
  3  4  1  0  0  0  0
  4  5  1  0  0  0  0
  5  1  1  0  0  0  0
  5 32  1  1  0  0  0
  6  7  1  0  0  0  0
  7 11  1  0  0  0  0
  8  2  1  0  0  0  0
  8 14  1  1  0  0  0
  9  6  1  0  0  0  0
  9 10  2  0  0  0  0
 10  8  1  0  0  0  0
 11 22  1  6  0  0  0
 11  8  1  0  0  0  0
 13 12  1  0  0  0  0
 14 15  1  0  0  0  0
 15 13  2  0  0  0  0
 16 13  1  0  0  0  0
 17 16  2  0  0  0  0
 18 14  2  0  0  0  0
 18 17  1  0  0  0  0
 19 21  2  0  0  0  0
 20 21  1  0  0  0  0
 21  9  1  0  0  0  0
 24 23  1  0  0  0  0
 25 28  1  1  0  0  0
 26 23  1  0  0  0  0
 26 31  1  6  0  0  0
 27 22  1  6  0  0  0
 27 29  1  0  0  0  0
 27 25  1  0  0  0  0
 28 26  1  0  0  0  0
 29 25  1  0  0  0  0
 29 24  1  1  0  0  0
 31 30  1  0  0  0  0
 32 36  1  0  0  0  0
 33 36  1  0  0  0  0
 34 38  1  0  0  0  0
 36 34  2  0  0  0  0
 37 33  1  0  0  0  0
 37 39  1  1  0  0  0
 37 35  1  0  0  0  0
 38 35  1  0  0  0  0
 38 42  1  1  0  0  0
 40 39  1  0  0  0  0
 41 40  1  0  0  0  0
 42 43  1  0  0  0  0
 43 44  1  0  0  0  0
 45 44  1  6  0  0  0
 45 57  1  0  0  0  0
 46 47  1  1  0  0  0
 46 45  1  0  0  0  0
 46 48  1  0  0  0  0
 48 49  2  0  0  0  0
 50 48  1  0  0  0  0
 50 51  1  0  0  0  0
 51 52  1  1  0  0  0
 53 51  1  0  0  0  0
 55 54  2  0  0  0  0
 55 53  1  0  0  0  0
 57 56  1  1  0  0  0
 57 58  1  0  0  0  0
 58 59  1  0  0  0  0
M  END
>  <MODEL>
2

>  <REMARK>
 VINA RESULT:      -6.0      1.434      1.969
  Name = 
  20 active torsions:
  status: ('A' for Active; 'I' for Inactive)
    1  A    between atoms: O_1  and  C_27
    2  A    between atoms: C_5  and  N_31
    3  A    between atoms: N_10  and  C_22
    4  A    between atoms: C_16  and  C_30
    5  A    between atoms: C_17  and  C_51
    6  A    between atoms: C_19  and  C_30
    7  A    between atoms: C_22  and  N_54
    8  A    between atoms: S_24  and  C_29
    9  A    between atoms: S_24  and  C_56
   10  A    between atoms: C_25  and  C_59
   11  A    between atoms: C_27  and  C_36
   12  A    between atoms: C_28  and  C_32
   13  A    between atoms: N_31  and  C_33
   14  A    between atoms: C_32  and  C_36
   15  A    between atoms: C_35  and  C_55
   16  A    between atoms: C_36  and  C_47
   17  A    between atoms: C_47  and  O_48
   18  A    between atoms: O_48  and  O_50
   19  A    between atoms: C_49  and  O_50
   20  A    between atoms: C_58  and  C_59
                            x       y       z     vdW  Elec       q    Type
                         _______ _______ _______ _____ _____    ______ ____

>  <TORSDO>
F 20

$$$$
=
 OpenBabel11062422353D

 59 64  0  0  1  0  0  0  0  0999 V2000
  191.3360  173.6820  143.4510 S   0  0  0  0  0  0  0  0  0  0  0  0
  191.1020  172.5650  142.0190 C   0  0  2  0  0  3  0  0  0  0  0  0
  190.0920  171.4660  142.3680 C   0  0  0  0  0  2  0  0  0  0  0  0
  189.4000  171.8200  143.6630 C   0  0  0  0  0  2  0  0  0  0  0  0
  190.4080  172.5540  144.5210 C   0  0  2  0  0  3  0  0  0  0  0  0
  193.5380  169.5410  140.4040 C   0  0  0  0  0  2  0  0  0  0  0  0
  193.3820  170.7050  139.6180 O   0  0  0  0  0  0  0  0  0  0  0  0
  192.4450  172.0250  141.4550 C   0  0  1  0  0  0  0  0  0  0  0  0
  193.5370  169.8150  141.8890 C   0  0  0  0  0  0  0  0  0  0  0  0
  192.9640  170.9280  142.3590 C   0  0  0  0  0  3  0  0  0  0  0  0
  192.2290  171.4120  140.0390 C   0  0  2  0  0  3  0  0  0  0  0  0
  197.2140  173.8150  142.8220 Cl  0  0  0  0  0  0  0  0  0  0  0  0
  195.6690  174.0330  142.0260 C   0  0  0  0  0  0  0  0  0  0  0  0
  193.4830  173.1500  141.3950 C   0  0  0  0  0  0  0  0  0  0  0  0
  194.7420  172.9890  142.0090 C   0  0  0  0  0  3  0  0  0  0  0  0
  195.3530  175.2580  141.4330 C   0  0  0  0  0  3  0  0  0  0  0  0
  194.1090  175.4380  140.8250 C   0  0  0  0  0  3  0  0  0  0  0  0
  193.1780  174.3970  140.8140 C   0  0  0  0  0  3  0  0  0  0  0  0
  195.1920  168.3380  142.7430 O   0  0  0  0  0  0  0  0  0  0  0  0
  193.1430  168.2650  143.8300 N   0  0  0  0  0  1  0  0  0  0  0  0
  194.0110  168.7750  142.8180 C   0  0  0  0  0  0  0  0  0  0  0  0
  190.6890  170.4270  139.8300 S   0  0  0  0  0  0  0  0  0  0  0  0
  190.2810  173.2140  135.5740 C   0  0  0  0  0  2  0  0  0  0  0  0
  189.6240  172.0140  136.2480 C   0  0  0  0  0  2  0  0  0  0  0  0
  191.0650  172.5870  138.2330 C   0  0  2  0  0  3  0  0  0  0  0  0
  190.7750  174.2300  136.6140 C   0  0  1  0  0  3  0  0  0  0  0  0
  189.9710  171.6470  138.6990 C   0  0  1  0  0  3  0  0  0  0  0  0
  190.4850  173.8470  137.9490 O   0  0  0  0  0  0  0  0  0  0  0  0
  190.5600  171.4620  137.3160 C   0  0  1  0  0  3  0  0  0  0  0  0
  192.4060  175.9430  136.2450 O   0  0  0  0  0  1  0  0  0  0  0  0
  192.2490  174.5650  136.4080 C   0  0  0  0  0  2  0  0  0  0  0  0
  189.7770  173.2900  145.7080 C   0  0  0  0  0  2  0  0  0  0  0  0
  191.6610  174.9260  146.3610 C   0  0  0  0  0  2  0  0  0  0  0  0
  189.4690  175.7250  145.4730 C   0  0  0  0  0  3  0  0  0  0  0  0
  191.4030  177.2970  145.5680 C   0  0  0  0  0  2  0  0  0  0  0  0
  190.2420  174.7070  145.8890 C   0  0  0  0  0  0  0  0  0  0  0  0
  192.0040  176.3920  146.6370 C   0  0  2  0  0  3  0  0  0  0  0  0
  189.8880  177.1620  145.6220 C   0  0  1  0  0  3  0  0  0  0  0  0
  193.4470  176.5540  146.6610 N   0  0  0  0  0  2  0  0  0  0  0  0
  193.9230  176.4140  145.2920 C   0  0  0  0  0  2  0  0  0  0  0  0
  194.9770  175.3260  145.2260 C   0  0  0  0  0  1  0  0  0  0  0  0
  189.2980  177.9320  144.6160 O   0  0  0  0  0  0  0  0  0  0  0  0
  189.5160  177.2510  143.5040 O   0  0  0  0  0  0  0  0  0  0  0  0
  188.7380  177.8940  142.5350 C   0  0  0  0  0  2  0  0  0  0  0  0
  187.2690  177.5530  142.7840 C   0  0  1  0  0  3  0  0  0  0  0  0
  186.3390  178.7690  142.6110 C   0  0  1  0  0  3  0  0  0  0  0  0
  185.1210  178.4040  141.7770 C   0  0  0  0  0  1  0  0  0  0  0  0
  185.8830  179.3590  143.9100 C   0  0  0  0  0  0  0  0  0  0  0  0
  185.4610  180.5500  143.9650 O   0  0  0  0  0  0  0  0  0  0  0  0
  185.9810  178.5720  145.1000 N   0  0  0  0  0  2  0  0  0  0  0  0
  185.4600  179.0220  146.3810 C   0  0  1  0  0  3  0  0  0  0  0  0
  184.0510  178.4920  146.5690 C   0  0  0  0  0  1  0  0  0  0  0  0
  186.3050  178.5340  147.4590 N   0  0  0  0  0  2  0  0  0  0  0  0
  186.3560  176.3170  146.6960 O   0  0  0  0  0  0  0  0  0  0  0  0
  186.7060  177.1670  147.5620 C   0  0  0  0  0  3  0  0  0  0  0  0
  187.6030  176.2870  140.6150 C   0  0  0  0  0  1  0  0  0  0  0  0
  186.8170  176.3630  141.9230 C   0  0  1  0  0  3  0  0  0  0  0  0
  186.9670  175.1680  142.6280 O   0  0  0  0  0  0  0  0  0  0  0  0
  187.8550  174.4040  141.8640 C   0  0  0  0  0  1  0  0  0  0  0  0
  1  5  1  0  0  0  0
  2  3  1  1  0  0  0
  2  1  1  0  0  0  0
  3  4  1  0  0  0  0
  4  5  1  0  0  0  0
  5 32  1  1  0  0  0
  6  9  1  0  0  0  0
  7 11  1  0  0  0  0
  7  6  1  0  0  0  0
  8 14  1  6  0  0  0
  8  2  1  0  0  0  0
  8 10  1  0  0  0  0
  9 10  2  0  0  0  0
  9 21  1  0  0  0  0
 11 22  1  1  0  0  0
 11  8  1  0  0  0  0
 13 12  1  0  0  0  0
 14 15  2  0  0  0  0
 15 13  1  0  0  0  0
 16 13  2  0  0  0  0
 17 16  1  0  0  0  0
 18 17  2  0  0  0  0
 18 14  1  0  0  0  0
 19 21  2  0  0  0  0
 21 20  1  0  0  0  0
 23 24  1  0  0  0  0
 23 26  1  0  0  0  0
 25 28  1  6  0  0  0
 25 27  1  0  0  0  0
 26 31  1  1  0  0  0
 26 28  1  0  0  0  0
 27 22  1  1  0  0  0
 29 24  1  6  0  0  0
 29 25  1  0  0  0  0
 29 27  1  0  0  0  0
 30 31  1  0  0  0  0
 32 36  1  0  0  0  0
 33 37  1  0  0  0  0
 34 38  1  0  0  0  0
 34 36  2  0  0  0  0
 35 38  1  0  0  0  0
 35 37  1  0  0  0  0
 36 33  1  0  0  0  0
 37 39  1  6  0  0  0
 38 42  1  6  0  0  0
 40 39  1  0  0  0  0
 41 40  1  0  0  0  0
 43 42  1  0  0  0  0
 44 43  1  0  0  0  0
 45 44  1  6  0  0  0
 46 47  1  6  0  0  0
 46 45  1  0  0  0  0
 46 48  1  0  0  0  0
 48 49  2  0  0  0  0
 48 50  1  0  0  0  0
 50 51  1  0  0  0  0
 51 52  1  1  0  0  0
 51 53  1  0  0  0  0
 53 55  1  0  0  0  0
 54 55  2  0  0  0  0
 57 56  1  6  0  0  0
 57 58  1  0  0  0  0
 57 45  1  0  0  0  0
 59 58  1  0  0  0  0
M  END
>  <MODEL>
3

>  <REMARK>
 VINA RESULT:      -5.7      2.683      5.894
  Name = 
  20 active torsions:
  status: ('A' for Active; 'I' for Inactive)
    1  A    between atoms: O_1  and  C_27
    2  A    between atoms: C_5  and  N_31
    3  A    between atoms: N_10  and  C_22
    4  A    between atoms: C_16  and  C_30
    5  A    between atoms: C_17  and  C_51
    6  A    between atoms: C_19  and  C_30
    7  A    between atoms: C_22  and  N_54
    8  A    between atoms: S_24  and  C_29
    9  A    between atoms: S_24  and  C_56
   10  A    between atoms: C_25  and  C_59
   11  A    between atoms: C_27  and  C_36
   12  A    between atoms: C_28  and  C_32
   13  A    between atoms: N_31  and  C_33
   14  A    between atoms: C_32  and  C_36
   15  A    between atoms: C_35  and  C_55
   16  A    between atoms: C_36  and  C_47
   17  A    between atoms: C_47  and  O_48
   18  A    between atoms: O_48  and  O_50
   19  A    between atoms: C_49  and  O_50
   20  A    between atoms: C_58  and  C_59
                            x       y       z     vdW  Elec       q    Type
                         _______ _______ _______ _____ _____    ______ ____

>  <TORSDO>
F 20

$$$$
=
 OpenBabel11062422353D

 59 64  0  0  1  0  0  0  0  0999 V2000
  192.4090  173.5710  143.2760 S   0  0  0  0  0  0  0  0  0  0  0  0
  193.4040  172.0520  143.0410 C   0  0  2  0  0  3  0  0  0  0  0  0
  192.5930  170.8220  143.4610 C   0  0  0  0  0  2  0  0  0  0  0  0
  191.1480  171.2200  143.6520 C   0  0  0  0  0  2  0  0  0  0  0  0
  191.1440  172.6400  144.1760 C   0  0  2  0  0  3  0  0  0  0  0  0
  197.1150  170.4440  144.1940 C   0  0  0  0  0  2  0  0  0  0  0  0
  197.1590  171.5890  143.3670 O   0  0  0  0  0  0  0  0  0  0  0  0
  194.8000  172.1410  143.7170 C   0  0  1  0  0  0  0  0  0  0  0  0
  195.9460  170.4390  145.1490 C   0  0  0  0  0  0  0  0  0  0  0  0
  194.8600  171.1700  144.8750 C   0  0  0  0  0  3  0  0  0  0  0  0
  195.9170  171.7450  142.7060 C   0  0  2  0  0  3  0  0  0  0  0  0
  196.9440  176.9060  142.9950 Cl  0  0  0  0  0  0  0  0  0  0  0  0
  196.0370  175.7690  143.9710 C   0  0  0  0  0  0  0  0  0  0  0  0
  195.0400  173.5580  144.2480 C   0  0  0  0  0  0  0  0  0  0  0  0
  195.7460  174.4980  143.4700 C   0  0  0  0  0  3  0  0  0  0  0  0
  195.6280  176.1220  145.2590 C   0  0  0  0  0  3  0  0  0  0  0  0
  194.9300  175.2030  146.0470 C   0  0  0  0  0  3  0  0  0  0  0  0
  194.6460  173.9290  145.5490 C   0  0  0  0  0  3  0  0  0  0  0  0
  194.8520  169.0670  146.7540 O   0  0  0  0  0  0  0  0  0  0  0  0
  197.1710  169.0480  146.8500 N   0  0  0  0  0  1  0  0  0  0  0  0
  195.9400  169.4980  146.2840 C   0  0  0  0  0  0  0  0  0  0  0  0
  195.5220  170.3210  141.6100 S   0  0  0  0  0  0  0  0  0  0  0  0
  196.1950  174.1380  138.2890 C   0  0  0  0  0  2  0  0  0  0  0  0
  196.9340  173.4380  139.4240 C   0  0  0  0  0  2  0  0  0  0  0  0
  195.0400  171.7780  139.3730 C   0  0  2  0  0  3  0  0  0  0  0  0
  195.3070  173.1520  137.5160 C   0  0  1  0  0  3  0  0  0  0  0  0
  196.1870  171.1610  140.1490 C   0  0  1  0  0  3  0  0  0  0  0  0
  195.3960  171.8220  138.0030 O   0  0  0  0  0  0  0  0  0  0  0  0
  195.9360  172.6510  140.2660 C   0  0  1  0  0  3  0  0  0  0  0  0
  193.5670  174.0150  136.1180 O   0  0  0  0  0  1  0  0  0  0  0  0
  193.8670  173.6490  137.4310 C   0  0  0  0  0  2  0  0  0  0  0  0
  189.7710  173.3170  144.0880 C   0  0  0  0  0  2  0  0  0  0  0  0
  190.3410  174.5280  146.2930 C   0  0  0  0  0  2  0  0  0  0  0  0
  188.9670  175.6090  144.5120 C   0  0  0  0  0  3  0  0  0  0  0  0
  189.9200  177.0050  146.3450 C   0  0  0  0  0  2  0  0  0  0  0  0
  189.6060  174.5200  144.9730 C   0  0  0  0  0  0  0  0  0  0  0  0
  190.0140  175.7330  147.1790 C   0  0  2  0  0  3  0  0  0  0  0  0
  188.7790  176.8430  145.3510 C   0  0  1  0  0  3  0  0  0  0  0  0
  191.0460  175.8840  148.1880 N   0  0  0  0  0  2  0  0  0  0  0  0
  191.5230  177.2580  148.1220 C   0  0  0  0  0  2  0  0  0  0  0  0
  191.5050  177.8720  149.5080 C   0  0  0  0  0  1  0  0  0  0  0  0
  188.6970  177.9670  144.5240 O   0  0  0  0  0  0  0  0  0  0  0  0
  189.1060  177.5420  143.3410 O   0  0  0  0  0  0  0  0  0  0  0  0
  188.4500  178.3660  142.4200 C   0  0  0  0  0  2  0  0  0  0  0  0
  187.1800  177.6560  141.9490 C   0  0  1  0  0  3  0  0  0  0  0  0
  185.9240  178.5390  142.0730 C   0  0  1  0  0  3  0  0  0  0  0  0
  184.6910  177.7970  141.5820 C   0  0  0  0  0  1  0  0  0  0  0  0
  185.6770  179.0300  143.4670 C   0  0  0  0  0  0  0  0  0  0  0  0
  185.7210  180.2650  143.7320 O   0  0  0  0  0  0  0  0  0  0  0  0
  185.4420  178.0750  144.5050 N   0  0  0  0  0  2  0  0  0  0  0  0
  185.0830  178.4660  145.8600 C   0  0  1  0  0  3  0  0  0  0  0  0
  183.6130  178.8370  145.9070 C   0  0  0  0  0  1  0  0  0  0  0  0
  185.3290  177.3620  146.7740 N   0  0  0  0  0  2  0  0  0  0  0  0
  186.8430  178.5410  148.1220 O   0  0  0  0  0  0  0  0  0  0  0  0
  186.2300  177.4650  147.8770 C   0  0  0  0  0  3  0  0  0  0  0  0
  187.7390  175.6210  140.5480 C   0  0  0  0  0  1  0  0  0  0  0  0
  187.3460  177.0970  140.5270 C   0  0  1  0  0  3  0  0  0  0  0  0
  186.1640  177.2560  139.8010 O   0  0  0  0  0  0  0  0  0  0  0  0
  186.4880  176.8770  138.4940 C   0  0  0  0  0  1  0  0  0  0  0  0
  1  5  1  0  0  0  0
  2  1  1  0  0  0  0
  2  3  1  1  0  0  0
  2  8  1  0  0  0  0
  3  4  1  0  0  0  0
  4  5  1  0  0  0  0
  5 32  1  6  0  0  0
  6  9  1  0  0  0  0
  7  6  1  0  0  0  0
  8 14  1  1  0  0  0
  8 10  1  0  0  0  0
  9 21  1  0  0  0  0
 10  9  2  0  0  0  0
 11 22  1  1  0  0  0
 11  7  1  0  0  0  0
 11  8  1  0  0  0  0
 12 13  1  0  0  0  0
 13 16  1  0  0  0  0
 14 18  2  0  0  0  0
 15 13  2  0  0  0  0
 15 14  1  0  0  0  0
 16 17  2  0  0  0  0
 18 17  1  0  0  0  0
 21 19  2  0  0  0  0
 21 20  1  0  0  0  0
 23 24  1  0  0  0  0
 25 28  1  6  0  0  0
 25 27  1  0  0  0  0
 25 29  1  0  0  0  0
 26 31  1  1  0  0  0
 26 28  1  0  0  0  0
 26 23  1  0  0  0  0
 27 29  1  0  0  0  0
 27 22  1  1  0  0  0
 29 24  1  6  0  0  0
 30 31  1  0  0  0  0
 32 36  1  0  0  0  0
 33 37  1  0  0  0  0
 34 36  2  0  0  0  0
 34 38  1  0  0  0  0
 35 37  1  0  0  0  0
 36 33  1  0  0  0  0
 37 39  1  1  0  0  0
 38 42  1  6  0  0  0
 38 35  1  0  0  0  0
 40 39  1  0  0  0  0
 40 41  1  0  0  0  0
 43 42  1  0  0  0  0
 44 43  1  0  0  0  0
 45 46  1  0  0  0  0
 45 44  1  6  0  0  0
 46 47  1  1  0  0  0
 46 48  1  0  0  0  0
 48 49  2  0  0  0  0
 48 50  1  0  0  0  0
 50 51  1  0  0  0  0
 51 52  1  6  0  0  0
 51 53  1  0  0  0  0
 53 55  1  0  0  0  0
 55 54  2  0  0  0  0
 57 56  1  1  0  0  0
 57 45  1  0  0  0  0
 58 57  1  0  0  0  0
 59 58  1  0  0  0  0
M  END
>  <MODEL>
4

>  <REMARK>
 VINA RESULT:      -5.6      3.144      6.442
  Name = 
  20 active torsions:
  status: ('A' for Active; 'I' for Inactive)
    1  A    between atoms: O_1  and  C_27
    2  A    between atoms: C_5  and  N_31
    3  A    between atoms: N_10  and  C_22
    4  A    between atoms: C_16  and  C_30
    5  A    between atoms: C_17  and  C_51
    6  A    between atoms: C_19  and  C_30
    7  A    between atoms: C_22  and  N_54
    8  A    between atoms: S_24  and  C_29
    9  A    between atoms: S_24  and  C_56
   10  A    between atoms: C_25  and  C_59
   11  A    between atoms: C_27  and  C_36
   12  A    between atoms: C_28  and  C_32
   13  A    between atoms: N_31  and  C_33
   14  A    between atoms: C_32  and  C_36
   15  A    between atoms: C_35  and  C_55
   16  A    between atoms: C_36  and  C_47
   17  A    between atoms: C_47  and  O_48
   18  A    between atoms: O_48  and  O_50
   19  A    between atoms: C_49  and  O_50
   20  A    between atoms: C_58  and  C_59
                            x       y       z     vdW  Elec       q    Type
                         _______ _______ _______ _____ _____    ______ ____

>  <TORSDO>
F 20

$$$$
=
 OpenBabel11062422353D

 59 64  0  0  1  0  0  0  0  0999 V2000
  192.4610  172.8150  139.3580 S   0  0  0  0  0  0  0  0  0  0  0  0
  193.3340  174.1850  138.5140 C   0  0  2  0  0  3  0  0  0  0  0  0
  192.5000  174.6920  137.3320 C   0  0  0  0  0  2  0  0  0  0  0  0
  191.1100  174.1070  137.4180 C   0  0  0  0  0  2  0  0  0  0  0  0
  191.2450  172.7250  138.0190 C   0  0  2  0  0  3  0  0  0  0  0  0
  197.4170  175.0820  138.0510 C   0  0  0  0  0  2  0  0  0  0  0  0
  197.1060  174.0160  138.9250 O   0  0  0  0  0  0  0  0  0  0  0  0
  194.7960  173.8200  138.1360 C   0  0  1  0  0  0  0  0  0  0  0  0
  196.4690  175.1960  136.8820 C   0  0  0  0  0  0  0  0  0  0  0  0
  195.2410  174.6720  136.9680 C   0  0  0  0  0  3  0  0  0  0  0  0
  195.7530  174.1140  139.3310 C   0  0  2  0  0  3  0  0  0  0  0  0
  193.8080  170.0700  134.5600 Cl  0  0  0  0  0  0  0  0  0  0  0  0
  194.4230  170.5700  136.1230 C   0  0  0  0  0  0  0  0  0  0  0  0
  194.8840  172.3440  137.7340 C   0  0  0  0  0  0  0  0  0  0  0  0
  194.4170  171.9220  136.4730 C   0  0  0  0  0  3  0  0  0  0  0  0
  194.8930  169.6160  137.0280 C   0  0  0  0  0  3  0  0  0  0  0  0
  195.3560  170.0140  138.2850 C   0  0  0  0  0  3  0  0  0  0  0  0
  195.3430  171.3660  138.6380 C   0  0  0  0  0  3  0  0  0  0  0  0
  197.9360  175.8460  135.1280 O   0  0  0  0  0  0  0  0  0  0  0  0
  195.9520  177.0440  135.2550 N   0  0  0  0  0  1  0  0  0  0  0  0
  196.8400  176.0300  135.7250 C   0  0  0  0  0  0  0  0  0  0  0  0
  195.4090  175.6670  140.2550 S   0  0  0  0  0  0  0  0  0  0  0  0
  197.1240  173.1380  144.3430 C   0  0  0  0  0  2  0  0  0  0  0  0
  197.3570  173.2130  142.8380 C   0  0  0  0  0  2  0  0  0  0  0  0
  195.8190  175.2080  142.8970 C   0  0  2  0  0  3  0  0  0  0  0  0
  196.7440  174.5120  144.9140 C   0  0  1  0  0  3  0  0  0  0  0  0
  196.5660  175.2270  141.5780 C   0  0  1  0  0  3  0  0  0  0  0  0
  196.7270  175.5370  143.9330 O   0  0  0  0  0  0  0  0  0  0  0  0
  196.1640  173.8940  142.1770 C   0  0  1  0  0  3  0  0  0  0  0  0
  195.0680  175.7250  146.1180 O   0  0  0  0  0  1  0  0  0  0  0  0
  195.4450  174.4430  145.7110 C   0  0  0  0  0  2  0  0  0  0  0  0
  189.9130  172.1380  138.5020 C   0  0  0  0  0  2  0  0  0  0  0  0
  190.1880  171.7790  141.0410 C   0  0  0  0  0  2  0  0  0  0  0  0
  188.7590  173.6020  140.1150 C   0  0  0  0  0  3  0  0  0  0  0  0
  189.4020  173.6490  142.5240 C   0  0  0  0  0  2  0  0  0  0  0  0
  189.5280  172.5210  139.9020 C   0  0  0  0  0  0  0  0  0  0  0  0
  189.6430  172.1470  142.4220 C   0  0  2  0  0  3  0  0  0  0  0  0
  188.3490  174.0360  141.4960 C   0  0  1  0  0  3  0  0  0  0  0  0
  190.5900  171.7330  143.4410 N   0  0  0  0  0  2  0  0  0  0  0  0
  191.7250  171.1270  142.7600 C   0  0  0  0  0  2  0  0  0  0  0  0
  193.0010  171.4430  143.5140 C   0  0  0  0  0  1  0  0  0  0  0  0
  188.1410  175.4170  141.5140 O   0  0  0  0  0  0  0  0  0  0  0  0
  188.7150  175.8270  142.6320 O   0  0  0  0  0  0  0  0  0  0  0  0
  188.3010  177.1550  142.7800 C   0  0  0  0  0  2  0  0  0  0  0  0
  187.2980  177.2290  143.9320 C   0  0  1  0  0  3  0  0  0  0  0  0
  187.9660  177.5530  145.2810 C   0  0  1  0  0  3  0  0  0  0  0  0
  187.3690  176.7080  146.3960 C   0  0  0  0  0  1  0  0  0  0  0  0
  189.4520  177.3670  145.2700 C   0  0  0  0  0  0  0  0  0  0  0  0
  190.2150  178.2910  144.8660 O   0  0  0  0  0  0  0  0  0  0  0  0
  189.9950  176.1070  145.6730 N   0  0  0  0  0  2  0  0  0  0  0  0
  191.4260  175.8760  145.7990 C   0  0  1  0  0  3  0  0  0  0  0  0
  191.7480  175.4610  147.2220 C   0  0  0  0  0  1  0  0  0  0  0  0
  191.8390  174.8230  144.8860 N   0  0  0  0  0  2  0  0  0  0  0  0
  192.6170  176.2810  143.2230 O   0  0  0  0  0  0  0  0  0  0  0  0
  192.4170  175.0960  143.6090 C   0  0  0  0  0  3  0  0  0  0  0  0
  186.2010  178.6690  142.1600 C   0  0  0  0  0  1  0  0  0  0  0  0
  186.1520  178.2020  143.6140 C   0  0  1  0  0  3  0  0  0  0  0  0
  184.9180  177.6010  143.8710 O   0  0  0  0  0  0  0  0  0  0  0  0
  184.4010  178.2910  144.9720 C   0  0  0  0  0  1  0  0  0  0  0  0
  2  3  1  6  0  0  0
  2  1  1  0  0  0  0
  3  4  1  0  0  0  0
  4  5  1  0  0  0  0
  5 32  1  1  0  0  0
  5  1  1  0  0  0  0
  6  7  1  0  0  0  0
  7 11  1  0  0  0  0
  8 14  1  6  0  0  0
  8  2  1  0  0  0  0
  8 11  1  0  0  0  0
  9 10  2  0  0  0  0
  9  6  1  0  0  0  0
 10  8  1  0  0  0  0
 11 22  1  6  0  0  0
 12 13  1  0  0  0  0
 13 15  2  0  0  0  0
 13 16  1  0  0  0  0
 14 18  2  0  0  0  0
 15 14  1  0  0  0  0
 16 17  2  0  0  0  0
 17 18  1  0  0  0  0
 19 21  2  0  0  0  0
 20 21  1  0  0  0  0
 21  9  1  0  0  0  0
 23 26  1  0  0  0  0
 24 23  1  0  0  0  0
 25 28  1  1  0  0  0
 26 31  1  6  0  0  0
 27 22  1  6  0  0  0
 27 29  1  0  0  0  0
 27 25  1  0  0  0  0
 28 26  1  0  0  0  0
 29 24  1  1  0  0  0
 29 25  1  0  0  0  0
 31 30  1  0  0  0  0
 32 36  1  0  0  0  0
 33 37  1  0  0  0  0
 34 38  1  0  0  0  0
 36 34  2  0  0  0  0
 36 33  1  0  0  0  0
 37 35  1  0  0  0  0
 37 39  1  1  0  0  0
 38 42  1  6  0  0  0
 38 35  1  0  0  0  0
 40 39  1  0  0  0  0
 40 41  1  0  0  0  0
 42 43  1  0  0  0  0
 43 44  1  0  0  0  0
 45 44  1  6  0  0  0
 45 46  1  0  0  0  0
 46 47  1  1  0  0  0
 48 46  1  0  0  0  0
 48 50  1  0  0  0  0
 49 48  2  0  0  0  0
 50 51  1  0  0  0  0
 51 52  1  1  0  0  0
 53 51  1  0  0  0  0
 54 55  2  0  0  0  0
 55 53  1  0  0  0  0
 57 56  1  6  0  0  0
 57 58  1  0  0  0  0
 57 45  1  0  0  0  0
 58 59  1  0  0  0  0
M  END
>  <MODEL>
5

>  <REMARK>
 VINA RESULT:      -5.5      2.802      5.336
  Name = 
  20 active torsions:
  status: ('A' for Active; 'I' for Inactive)
    1  A    between atoms: O_1  and  C_27
    2  A    between atoms: C_5  and  N_31
    3  A    between atoms: N_10  and  C_22
    4  A    between atoms: C_16  and  C_30
    5  A    between atoms: C_17  and  C_51
    6  A    between atoms: C_19  and  C_30
    7  A    between atoms: C_22  and  N_54
    8  A    between atoms: S_24  and  C_29
    9  A    between atoms: S_24  and  C_56
   10  A    between atoms: C_25  and  C_59
   11  A    between atoms: C_27  and  C_36
   12  A    between atoms: C_28  and  C_32
   13  A    between atoms: N_31  and  C_33
   14  A    between atoms: C_32  and  C_36
   15  A    between atoms: C_35  and  C_55
   16  A    between atoms: C_36  and  C_47
   17  A    between atoms: C_47  and  O_48
   18  A    between atoms: O_48  and  O_50
   19  A    between atoms: C_49  and  O_50
   20  A    between atoms: C_58  and  C_59
                            x       y       z     vdW  Elec       q    Type
                         _______ _______ _______ _____ _____    ______ ____

>  <TORSDO>
F 20

$$$$
=
 OpenBabel11062422353D

 59 64  0  0  1  0  0  0  0  0999 V2000
  192.3670  172.2930  141.5900 S   0  0  0  0  0  0  0  0  0  0  0  0
  192.7750  172.4970  139.8170 C   0  0  2  0  0  3  0  0  0  0  0  0
  191.5890  172.0600  138.9500 C   0  0  0  0  0  2  0  0  0  0  0  0
  190.3720  171.8810  139.8270 C   0  0  0  0  0  2  0  0  0  0  0  0
  190.8600  171.3810  141.1700 C   0  0  2  0  0  3  0  0  0  0  0  0
  196.3000  172.1950  137.5430 C   0  0  0  0  0  2  0  0  0  0  0  0
  196.4660  172.3070  138.9420 O   0  0  0  0  0  0  0  0  0  0  0  0
  194.1170  171.8170  139.4290 C   0  0  1  0  0  0  0  0  0  0  0  0
  195.0610  171.4300  137.1440 C   0  0  0  0  0  0  0  0  0  0  0  0
  194.0380  171.3290  137.9990 C   0  0  0  0  0  3  0  0  0  0  0  0
  195.2880  172.8410  139.5190 C   0  0  2  0  0  3  0  0  0  0  0  0
  196.6820  169.8280  143.5870 Cl  0  0  0  0  0  0  0  0  0  0  0  0
  195.5700  169.6460  142.2460 C   0  0  0  0  0  0  0  0  0  0  0  0
  194.3850  170.6190  140.3460 C   0  0  0  0  0  0  0  0  0  0  0  0
  195.2580  170.7480  141.4460 C   0  0  0  0  0  3  0  0  0  0  0  0
  195.0170  168.3960  141.9590 C   0  0  0  0  0  3  0  0  0  0  0  0
  194.1530  168.2480  140.8710 C   0  0  0  0  0  3  0  0  0  0  0  0
  193.8470  169.3470  140.0660 C   0  0  0  0  0  3  0  0  0  0  0  0
  195.5360  169.9170  135.3720 O   0  0  0  0  0  0  0  0  0  0  0  0
  194.0680  171.6350  134.8420 N   0  0  0  0  0  1  0  0  0  0  0  0
  194.9210  170.9480  135.7590 C   0  0  0  0  0  0  0  0  0  0  0  0
  194.9080  174.5310  138.8980 S   0  0  0  0  0  0  0  0  0  0  0  0
  197.7080  175.3670  143.0840 C   0  0  0  0  0  2  0  0  0  0  0  0
  197.8100  174.6610  141.7360 C   0  0  0  0  0  2  0  0  0  0  0  0
  195.6090  175.7670  141.2100 C   0  0  2  0  0  3  0  0  0  0  0  0
  196.8410  176.6300  142.9820 C   0  0  1  0  0  3  0  0  0  0  0  0
  196.2140  175.2780  139.9090 C   0  0  1  0  0  3  0  0  0  0  0  0
  196.3630  176.8740  141.6690 O   0  0  0  0  0  0  0  0  0  0  0  0
  196.4110  174.4570  141.1670 C   0  0  1  0  0  3  0  0  0  0  0  0
  195.6780  175.3840  144.6620 O   0  0  0  0  0  1  0  0  0  0  0  0
  195.7230  176.6230  144.0200 C   0  0  0  0  0  2  0  0  0  0  0  0
  189.8070  171.4860  142.2780 C   0  0  0  0  0  2  0  0  0  0  0  0
  190.0380  173.4810  143.8970 C   0  0  0  0  0  2  0  0  0  0  0  0
  188.6980  173.6350  141.7980 C   0  0  0  0  0  3  0  0  0  0  0  0
  189.3160  175.7210  143.0170 C   0  0  0  0  0  2  0  0  0  0  0  0
  189.4230  172.8910  142.6500 C   0  0  0  0  0  0  0  0  0  0  0  0
  189.4930  174.8630  144.2640 C   0  0  2  0  0  3  0  0  0  0  0  0
  188.2910  175.0480  142.1140 C   0  0  1  0  0  3  0  0  0  0  0  0
  190.4100  175.5150  145.1810 N   0  0  0  0  0  2  0  0  0  0  0  0
  191.6200  175.8320  144.4350 C   0  0  0  0  0  2  0  0  0  0  0  0
  192.1440  177.1890  144.8630 C   0  0  0  0  0  1  0  0  0  0  0  0
  188.1430  175.7730  140.9290 O   0  0  0  0  0  0  0  0  0  0  0  0
  187.7690  176.9790  141.3200 O   0  0  0  0  0  0  0  0  0  0  0  0
  186.4380  177.0920  140.9040 C   0  0  0  0  0  2  0  0  0  0  0  0
  185.5850  177.5070  142.1030 C   0  0  1  0  0  3  0  0  0  0  0  0
  186.4060  178.2060  143.2030 C   0  0  1  0  0  3  0  0  0  0  0  0
  185.8140  179.5660  143.5380 C   0  0  0  0  0  1  0  0  0  0  0  0
  186.5210  177.4010  144.4610 C   0  0  0  0  0  0  0  0  0  0  0  0
  185.8890  176.3140  144.5910 O   0  0  0  0  0  0  0  0  0  0  0  0
  187.3160  177.9070  145.5360 N   0  0  0  0  0  2  0  0  0  0  0  0
  187.5730  177.1420  146.7470 C   0  0  1  0  0  3  0  0  0  0  0  0
  188.7220  177.7730  147.5100 C   0  0  0  0  0  1  0  0  0  0  0  0
  186.3860  177.1310  147.5870 N   0  0  0  0  0  2  0  0  0  0  0  0
  185.9390  179.4200  147.3470 O   0  0  0  0  0  0  0  0  0  0  0  0
  185.6230  178.3080  147.8540 C   0  0  0  0  0  3  0  0  0  0  0  0
  184.1680  178.2910  140.1540 C   0  0  0  0  0  1  0  0  0  0  0  0
  184.3800  178.3560  141.6660 C   0  0  1  0  0  3  0  0  0  0  0  0
  183.2220  177.9270  142.3180 O   0  0  0  0  0  0  0  0  0  0  0  0
  182.1680  178.3340  141.4920 C   0  0  0  0  0  1  0  0  0  0  0  0
  2  3  1  6  0  0  0
  2  1  1  0  0  0  0
  3  4  1  0  0  0  0
  4  5  1  0  0  0  0
  5  1  1  0  0  0  0
  5 32  1  1  0  0  0
  6  7  1  0  0  0  0
  7 11  1  0  0  0  0
  8 11  1  0  0  0  0
  8  2  1  0  0  0  0
  8 14  1  1  0  0  0
  9  6  1  0  0  0  0
  9 10  2  0  0  0  0
 10  8  1  0  0  0  0
 11 22  1  6  0  0  0
 13 12  1  0  0  0  0
 14 15  1  0  0  0  0
 15 13  2  0  0  0  0
 16 13  1  0  0  0  0
 17 16  2  0  0  0  0
 18 14  2  0  0  0  0
 18 17  1  0  0  0  0
 19 21  2  0  0  0  0
 20 21  1  0  0  0  0
 21  9  1  0  0  0  0
 24 23  1  0  0  0  0
 25 28  1  1  0  0  0
 26 23  1  0  0  0  0
 26 31  1  1  0  0  0
 27 22  1  6  0  0  0
 27 29  1  0  0  0  0
 27 25  1  0  0  0  0
 28 26  1  0  0  0  0
 29 25  1  0  0  0  0
 29 24  1  1  0  0  0
 31 30  1  0  0  0  0
 32 36  1  0  0  0  0
 33 37  1  0  0  0  0
 34 38  1  0  0  0  0
 34 36  2  0  0  0  0
 35 37  1  0  0  0  0
 36 33  1  0  0  0  0
 37 39  1  1  0  0  0
 38 42  1  6  0  0  0
 38 35  1  0  0  0  0
 40 41  1  0  0  0  0
 40 39  1  0  0  0  0
 42 43  1  0  0  0  0
 44 43  1  0  0  0  0
 45 44  1  6  0  0  0
 45 46  1  0  0  0  0
 46 47  1  1  0  0  0
 46 48  1  0  0  0  0
 48 49  2  0  0  0  0
 48 50  1  0  0  0  0
 50 51  1  0  0  0  0
 51 52  1  1  0  0  0
 51 53  1  0  0  0  0
 53 55  1  0  0  0  0
 54 55  2  0  0  0  0
 57 56  1  6  0  0  0
 57 45  1  0  0  0  0
 57 58  1  0  0  0  0
 59 58  1  0  0  0  0
M  END
>  <MODEL>
6

>  <REMARK>
 VINA RESULT:      -5.3      2.111      4.352
  Name = 
  20 active torsions:
  status: ('A' for Active; 'I' for Inactive)
    1  A    between atoms: O_1  and  C_27
    2  A    between atoms: C_5  and  N_31
    3  A    between atoms: N_10  and  C_22
    4  A    between atoms: C_16  and  C_30
    5  A    between atoms: C_17  and  C_51
    6  A    between atoms: C_19  and  C_30
    7  A    between atoms: C_22  and  N_54
    8  A    between atoms: S_24  and  C_29
    9  A    between atoms: S_24  and  C_56
   10  A    between atoms: C_25  and  C_59
   11  A    between atoms: C_27  and  C_36
   12  A    between atoms: C_28  and  C_32
   13  A    between atoms: N_31  and  C_33
   14  A    between atoms: C_32  and  C_36
   15  A    between atoms: C_35  and  C_55
   16  A    between atoms: C_36  and  C_47
   17  A    between atoms: C_47  and  O_48
   18  A    between atoms: O_48  and  O_50
   19  A    between atoms: C_49  and  O_50
   20  A    between atoms: C_58  and  C_59
                            x       y       z     vdW  Elec       q    Type
                         _______ _______ _______ _____ _____    ______ ____

>  <TORSDO>
F 20

$$$$
=
 OpenBabel11062422353D

 59 64  0  0  1  0  0  0  0  0999 V2000
  192.5990  172.7410  140.0360 S   0  0  0  0  0  0  0  0  0  0  0  0
  193.1610  174.0030  138.8350 C   0  0  2  0  0  3  0  0  0  0  0  0
  192.1360  174.1470  137.7050 C   0  0  0  0  0  2  0  0  0  0  0  0
  190.8660  173.4260  138.0900 C   0  0  0  0  0  2  0  0  0  0  0  0
  191.2700  172.2270  138.9190 C   0  0  2  0  0  3  0  0  0  0  0  0
  197.0680  175.2460  137.8980 C   0  0  0  0  0  2  0  0  0  0  0  0
  196.9520  174.2260  138.8700 O   0  0  0  0  0  0  0  0  0  0  0  0
  194.6100  173.7510  138.3360 C   0  0  1  0  0  0  0  0  0  0  0  0
  196.0070  175.1780  136.8270 C   0  0  0  0  0  0  0  0  0  0  0  0
  194.8530  174.5480  137.0730 C   0  0  0  0  0  3  0  0  0  0  0  0
  195.6400  174.2260  139.4040 C   0  0  2  0  0  3  0  0  0  0  0  0
  193.8240  169.6940  135.0570 Cl  0  0  0  0  0  0  0  0  0  0  0  0
  194.4470  170.3500  136.5570 C   0  0  0  0  0  0  0  0  0  0  0  0
  194.8110  172.2630  138.0280 C   0  0  0  0  0  0  0  0  0  0  0  0
  194.3380  171.7180  136.8170 C   0  0  0  0  0  3  0  0  0  0  0  0
  195.0290  169.5030  137.5030 C   0  0  0  0  0  3  0  0  0  0  0  0
  195.4990  170.0240  138.7110 C   0  0  0  0  0  3  0  0  0  0  0  0
  195.3830  171.3910  138.9750 C   0  0  0  0  0  3  0  0  0  0  0  0
  195.1770  176.3490  134.9320 O   0  0  0  0  0  0  0  0  0  0  0  0
  197.4890  176.2740  135.1150 N   0  0  0  0  0  1  0  0  0  0  0  0
  196.1800  175.9500  135.5840 C   0  0  0  0  0  0  0  0  0  0  0  0
  195.2280  175.8080  140.2500 S   0  0  0  0  0  0  0  0  0  0  0  0
  193.9730  174.9080  145.1150 C   0  0  0  0  0  2  0  0  0  0  0  0
  193.8800  174.2430  143.7460 C   0  0  0  0  0  2  0  0  0  0  0  0
  195.3220  176.1450  142.9400 C   0  0  2  0  0  3  0  0  0  0  0  0
  195.2470  175.7580  145.2320 C   0  0  1  0  0  3  0  0  0  0  0  0
  195.3550  175.0510  141.8910 C   0  0  1  0  0  3  0  0  0  0  0  0
  196.0580  175.7090  144.0690 O   0  0  0  0  0  0  0  0  0  0  0  0
  194.0730  175.2950  142.6600 C   0  0  1  0  0  3  0  0  0  0  0  0
  194.1810  177.1720  146.8430 O   0  0  0  0  0  1  0  0  0  0  0  0
  194.9260  177.1860  145.6610 C   0  0  0  0  0  2  0  0  0  0  0  0
  190.1010  171.5930  139.6830 C   0  0  0  0  0  2  0  0  0  0  0  0
  190.9670  171.0790  142.0580 C   0  0  0  0  0  2  0  0  0  0  0  0
  189.4060  172.9730  141.6050 C   0  0  0  0  0  3  0  0  0  0  0  0
  190.6090  172.8680  143.7870 C   0  0  0  0  0  2  0  0  0  0  0  0
  190.0740  171.8970  141.1540 C   0  0  0  0  0  0  0  0  0  0  0  0
  190.7780  171.3720  143.5480 C   0  0  2  0  0  3  0  0  0  0  0  0
  189.3510  173.3290  143.0650 C   0  0  1  0  0  3  0  0  0  0  0  0
  191.9310  170.8860  144.2850 N   0  0  0  0  0  2  0  0  0  0  0  0
  193.0250  170.7390  143.3350 C   0  0  0  0  0  2  0  0  0  0  0  0
  193.5230  169.3080  143.3470 C   0  0  0  0  0  1  0  0  0  0  0  0
  189.1910  174.7090  143.2090 O   0  0  0  0  0  0  0  0  0  0  0  0
  189.3820  174.9360  144.4970 O   0  0  0  0  0  0  0  0  0  0  0  0
  189.3810  176.3300  144.6180 C   0  0  0  0  0  2  0  0  0  0  0  0
  188.7980  176.7010  145.9820 C   0  0  1  0  0  3  0  0  0  0  0  0
  187.2880  176.4110  146.0820 C   0  0  1  0  0  3  0  0  0  0  0  0
  186.7130  176.9780  147.3700 C   0  0  0  0  0  1  0  0  0  0  0  0
  186.5030  176.9420  144.9210 C   0  0  0  0  0  0  0  0  0  0  0  0
  185.9590  176.1530  144.0970 O   0  0  0  0  0  0  0  0  0  0  0  0
  186.4220  178.3560  144.7290 N   0  0  0  0  0  2  0  0  0  0  0  0
  185.5910  178.9590  143.6990 C   0  0  1  0  0  3  0  0  0  0  0  0
  185.2010  180.3630  144.1190 C   0  0  0  0  0  1  0  0  0  0  0  0
  186.3250  179.0200  142.4450 N   0  0  0  0  0  2  0  0  0  0  0  0
  184.9000  177.5520  141.2970 O   0  0  0  0  0  0  0  0  0  0  0  0
  185.9300  178.2820  141.2870 C   0  0  0  0  0  3  0  0  0  0  0  0
  189.3200  174.5340  147.1860 C   0  0  0  0  0  1  0  0  0  0  0  0
  189.5830  176.0370  147.1250 C   0  0  1  0  0  3  0  0  0  0  0  0
  190.9510  176.2660  146.9720 O   0  0  0  0  0  0  0  0  0  0  0  0
  191.5620  175.4910  147.9640 C   0  0  0  0  0  1  0  0  0  0  0  0
  2  3  1  6  0  0  0
  2  1  1  0  0  0  0
  3  4  1  0  0  0  0
  4  5  1  0  0  0  0
  5 32  1  1  0  0  0
  5  1  1  0  0  0  0
  6  7  1  0  0  0  0
  7 11  1  0  0  0  0
  8 14  1  6  0  0  0
  8  2  1  0  0  0  0
  8 11  1  0  0  0  0
  9 10  2  0  0  0  0
  9  6  1  0  0  0  0
 10  8  1  0  0  0  0
 11 22  1  6  0  0  0
 12 13  1  0  0  0  0
 13 15  2  0  0  0  0
 13 16  1  0  0  0  0
 14 18  2  0  0  0  0
 15 14  1  0  0  0  0
 16 17  2  0  0  0  0
 17 18  1  0  0  0  0
 19 21  2  0  0  0  0
 20 21  1  0  0  0  0
 21  9  1  0  0  0  0
 23 26  1  0  0  0  0
 24 23  1  0  0  0  0
 25 28  1  1  0  0  0
 26 31  1  6  0  0  0
 27 22  1  6  0  0  0
 27 29  1  0  0  0  0
 27 25  1  0  0  0  0
 28 26  1  0  0  0  0
 29 25  1  0  0  0  0
 29 24  1  1  0  0  0
 31 30  1  0  0  0  0
 32 36  1  0  0  0  0
 33 37  1  0  0  0  0
 34 38  1  0  0  0  0
 36 34  2  0  0  0  0
 36 33  1  0  0  0  0
 37 35  1  0  0  0  0
 37 39  1  1  0  0  0
 38 42  1  6  0  0  0
 38 35  1  0  0  0  0
 40 41  1  0  0  0  0
 40 39  1  0  0  0  0
 42 43  1  0  0  0  0
 43 44  1  0  0  0  0
 45 44  1  6  0  0  0
 45 46  1  0  0  0  0
 45 57  1  0  0  0  0
 46 47  1  1  0  0  0
 48 46  1  0  0  0  0
 49 48  2  0  0  0  0
 50 48  1  0  0  0  0
 51 52  1  1  0  0  0
 51 50  1  0  0  0  0
 53 51  1  0  0  0  0
 55 54  2  0  0  0  0
 55 53  1  0  0  0  0
 57 56  1  6  0  0  0
 58 57  1  0  0  0  0
 58 59  1  0  0  0  0
M  END
>  <MODEL>
7

>  <REMARK>
 VINA RESULT:      -5.1      2.921      5.097
  Name = 
  20 active torsions:
  status: ('A' for Active; 'I' for Inactive)
    1  A    between atoms: O_1  and  C_27
    2  A    between atoms: C_5  and  N_31
    3  A    between atoms: N_10  and  C_22
    4  A    between atoms: C_16  and  C_30
    5  A    between atoms: C_17  and  C_51
    6  A    between atoms: C_19  and  C_30
    7  A    between atoms: C_22  and  N_54
    8  A    between atoms: S_24  and  C_29
    9  A    between atoms: S_24  and  C_56
   10  A    between atoms: C_25  and  C_59
   11  A    between atoms: C_27  and  C_36
   12  A    between atoms: C_28  and  C_32
   13  A    between atoms: N_31  and  C_33
   14  A    between atoms: C_32  and  C_36
   15  A    between atoms: C_35  and  C_55
   16  A    between atoms: C_36  and  C_47
   17  A    between atoms: C_47  and  O_48
   18  A    between atoms: O_48  and  O_50
   19  A    between atoms: C_49  and  O_50
   20  A    between atoms: C_58  and  C_59
                            x       y       z     vdW  Elec       q    Type
                         _______ _______ _______ _____ _____    ______ ____

>  <TORSDO>
F 20

$$$$
=
 OpenBabel11062422353D

 59 64  0  0  1  0  0  0  0  0999 V2000
  189.4580  172.6450  143.5140 S   0  0  0  0  0  0  0  0  0  0  0  0
  188.8300  174.2490  142.8910 C   0  0  2  0  0  3  0  0  0  0  0  0
  189.0460  174.3470  141.3770 C   0  0  0  0  0  2  0  0  0  0  0  0
  189.4330  172.9890  140.8410 C   0  0  0  0  0  2  0  0  0  0  0  0
  190.2420  172.2990  141.9190 C   0  0  2  0  0  3  0  0  0  0  0  0
  190.8700  177.9160  143.1730 C   0  0  0  0  0  2  0  0  0  0  0  0
  189.5360  177.9040  143.6410 O   0  0  0  0  0  0  0  0  0  0  0  0
  189.3940  175.4600  143.6830 C   0  0  1  0  0  0  0  0  0  0  0  0
  191.5980  176.6130  143.4010 C   0  0  0  0  0  0  0  0  0  0  0  0
  190.9020  175.4820  143.5610 C   0  0  0  0  0  3  0  0  0  0  0  0
  188.8490  176.7950  143.0910 C   0  0  2  0  0  3  0  0  0  0  0  0
  186.2760  176.9670  147.6630 Cl  0  0  0  0  0  0  0  0  0  0  0  0
  187.6200  176.0300  147.0430 C   0  0  0  0  0  0  0  0  0  0  0  0
  189.0190  175.3430  145.1650 C   0  0  0  0  0  0  0  0  0  0  0  0
  187.9270  176.0690  145.6810 C   0  0  0  0  0  3  0  0  0  0  0  0
  188.4010  175.2660  147.9130 C   0  0  0  0  0  3  0  0  0  0  0  0
  189.4910  174.5430  147.4210 C   0  0  0  0  0  3  0  0  0  0  0  0
  189.8030  174.5880  146.0600 C   0  0  0  0  0  3  0  0  0  0  0  0
  193.8020  176.8060  144.2710 O   0  0  0  0  0  0  0  0  0  0  0  0
  193.6690  176.2400  142.0240 N   0  0  0  0  0  1  0  0  0  0  0  0
  193.0650  176.5700  143.2750 C   0  0  0  0  0  0  0  0  0  0  0  0
  188.7600  176.8660  141.2540 S   0  0  0  0  0  0  0  0  0  0  0  0
  183.9870  178.6620  141.4730 C   0  0  0  0  0  2  0  0  0  0  0  0
  184.9750  178.1010  140.4560 C   0  0  0  0  0  2  0  0  0  0  0  0
  186.4320  177.5860  142.4460 C   0  0  2  0  0  3  0  0  0  0  0  0
  184.1820  178.0120  142.8500 C   0  0  1  0  0  3  0  0  0  0  0  0
  186.9500  176.7910  141.2630 C   0  0  1  0  0  3  0  0  0  0  0  0
  185.2000  177.0240  142.8610 O   0  0  0  0  0  0  0  0  0  0  0  0
  186.3860  178.1770  141.0280 C   0  0  1  0  0  3  0  0  0  0  0  0
  183.7150  178.6660  145.1050 O   0  0  0  0  0  1  0  0  0  0  0  0
  184.3740  179.0630  143.9390 C   0  0  0  0  0  2  0  0  0  0  0  0
  190.4100  170.7940  141.6840 C   0  0  0  0  0  2  0  0  0  0  0  0
  191.0460  170.5410  139.1980 C   0  0  0  0  0  2  0  0  0  0  0  0
  192.7060  170.1850  141.0270 C   0  0  0  0  0  3  0  0  0  0  0  0
  193.5040  170.4550  138.6790 C   0  0  0  0  0  2  0  0  0  0  0  0
  191.4390  170.4290  140.6520 C   0  0  0  0  0  0  0  0  0  0  0  0
  192.1120  170.0300  138.2260 C   0  0  2  0  0  3  0  0  0  0  0  0
  193.7790  169.8230  140.0360 C   0  0  1  0  0  3  0  0  0  0  0  0
  191.8470  170.5570  136.8990 N   0  0  0  0  0  2  0  0  0  0  0  0
  190.7430  171.4980  137.0160 C   0  0  0  0  0  2  0  0  0  0  0  0
  189.7040  171.2020  135.9530 C   0  0  0  0  0  1  0  0  0  0  0  0
  195.0240  170.2350  140.5170 O   0  0  0  0  0  0  0  0  0  0  0  0
  194.8750  171.5250  140.7650 O   0  0  0  0  0  0  0  0  0  0  0  0
  196.1750  172.0420  140.7560 C   0  0  0  0  0  2  0  0  0  0  0  0
  196.1270  173.4940  141.2340 C   0  0  1  0  0  3  0  0  0  0  0  0
  196.8540  173.7020  142.5760 C   0  0  1  0  0  3  0  0  0  0  0  0
  197.0110  175.1830  142.8820 C   0  0  0  0  0  1  0  0  0  0  0  0
  196.1730  173.0340  143.7320 C   0  0  0  0  0  0  0  0  0  0  0  0
  196.8290  172.3180  144.5410 O   0  0  0  0  0  0  0  0  0  0  0  0
  194.7580  173.1750  143.8760 N   0  0  0  0  0  2  0  0  0  0  0  0
  194.0330  172.6570  145.0260 C   0  0  1  0  0  3  0  0  0  0  0  0
  193.3650  173.8020  145.7620 C   0  0  0  0  0  1  0  0  0  0  0  0
  193.0190  171.7110  144.5870 N   0  0  0  0  0  2  0  0  0  0  0  0
  194.4200  169.8340  144.7010 O   0  0  0  0  0  0  0  0  0  0  0  0
  193.2840  170.3160  144.4350 C   0  0  0  0  0  3  0  0  0  0  0  0
  197.3310  173.7060  139.0150 C   0  0  0  0  0  1  0  0  0  0  0  0
  196.6410  174.4570  140.1520 C   0  0  1  0  0  3  0  0  0  0  0  0
  195.5880  175.2170  139.6390 O   0  0  0  0  0  0  0  0  0  0  0  0
  195.4220  174.7670  138.3250 C   0  0  0  0  0  1  0  0  0  0  0  0
  2  3  1  6  0  0  0
  2  1  1  0  0  0  0
  2  8  1  0  0  0  0
  4  3  1  0  0  0  0
  4  5  1  0  0  0  0
  5 32  1  6  0  0  0
  5  1  1  0  0  0  0
  6  9  1  0  0  0  0
  6  7  1  0  0  0  0
  8 14  1  1  0  0  0
  9 10  2  0  0  0  0
 10  8  1  0  0  0  0
 11 22  1  6  0  0  0
 11  7  1  0  0  0  0
 11  8  1  0  0  0  0
 13 12  1  0  0  0  0
 13 16  1  0  0  0  0
 14 15  1  0  0  0  0
 14 18  2  0  0  0  0
 15 13  2  0  0  0  0
 17 16  2  0  0  0  0
 18 17  1  0  0  0  0
 20 21  1  0  0  0  0
 21  9  1  0  0  0  0
 21 19  2  0  0  0  0
 23 26  1  0  0  0  0
 24 23  1  0  0  0  0
 25 28  1  6  0  0  0
 26 28  1  0  0  0  0
 26 31  1  1  0  0  0
 27 22  1  1  0  0  0
 27 25  1  0  0  0  0
 29 24  1  6  0  0  0
 29 27  1  0  0  0  0
 29 25  1  0  0  0  0
 31 30  1  0  0  0  0
 33 36  1  0  0  0  0
 35 38  1  0  0  0  0
 36 34  2  0  0  0  0
 36 32  1  0  0  0  0
 37 39  1  6  0  0  0
 37 35  1  0  0  0  0
 37 33  1  0  0  0  0
 38 42  1  1  0  0  0
 38 34  1  0  0  0  0
 39 40  1  0  0  0  0
 41 40  1  0  0  0  0
 42 43  1  0  0  0  0
 44 43  1  0  0  0  0
 45 44  1  6  0  0  0
 45 46  1  0  0  0  0
 46 47  1  1  0  0  0
 46 48  1  0  0  0  0
 48 50  1  0  0  0  0
 48 49  2  0  0  0  0
 50 51  1  0  0  0  0
 51 52  1  6  0  0  0
 53 51  1  0  0  0  0
 55 53  1  0  0  0  0
 55 54  2  0  0  0  0
 57 56  1  6  0  0  0
 57 45  1  0  0  0  0
 58 57  1  0  0  0  0
 59 58  1  0  0  0  0
M  END
>  <MODEL>
8

>  <REMARK>
 VINA RESULT:      -4.9      3.168      8.791
  Name = 
  20 active torsions:
  status: ('A' for Active; 'I' for Inactive)
    1  A    between atoms: O_1  and  C_27
    2  A    between atoms: C_5  and  N_31
    3  A    between atoms: N_10  and  C_22
    4  A    between atoms: C_16  and  C_30
    5  A    between atoms: C_17  and  C_51
    6  A    between atoms: C_19  and  C_30
    7  A    between atoms: C_22  and  N_54
    8  A    between atoms: S_24  and  C_29
    9  A    between atoms: S_24  and  C_56
   10  A    between atoms: C_25  and  C_59
   11  A    between atoms: C_27  and  C_36
   12  A    between atoms: C_28  and  C_32
   13  A    between atoms: N_31  and  C_33
   14  A    between atoms: C_32  and  C_36
   15  A    between atoms: C_35  and  C_55
   16  A    between atoms: C_36  and  C_47
   17  A    between atoms: C_47  and  O_48
   18  A    between atoms: O_48  and  O_50
   19  A    between atoms: C_49  and  O_50
   20  A    between atoms: C_58  and  C_59
                            x       y       z     vdW  Elec       q    Type
                         _______ _______ _______ _____ _____    ______ ____

>  <TORSDO>
F 20

$$$$
=
 OpenBabel11062422353D

 59 64  0  0  1  0  0  0  0  0999 V2000
  189.4170  172.6760  139.2440 S   0  0  0  0  0  0  0  0  0  0  0  0
  191.0850  171.9250  139.3250 C   0  0  2  0  0  3  0  0  0  0  0  0
  191.8090  172.3890  140.5940 C   0  0  0  0  0  2  0  0  0  0  0  0
  190.8210  173.0730  141.5090 C   0  0  0  0  0  2  0  0  0  0  0  0
  189.8110  173.7750  140.6270 C   0  0  2  0  0  3  0  0  0  0  0  0
  193.2700  174.3030  136.6310 C   0  0  0  0  0  2  0  0  0  0  0  0
  193.9490  173.1890  137.1750 O   0  0  0  0  0  0  0  0  0  0  0  0
  191.9040  172.1440  138.0230 C   0  0  1  0  0  0  0  0  0  0  0  0
  191.7950  174.0620  136.4200 C   0  0  0  0  0  0  0  0  0  0  0  0
  191.1690  173.1120  137.1240 C   0  0  0  0  0  3  0  0  0  0  0  0
  193.2940  172.7640  138.3560 C   0  0  2  0  0  3  0  0  0  0  0  0
  194.9530  169.0160  135.0650 Cl  0  0  0  0  0  0  0  0  0  0  0  0
  193.4410  169.3450  135.8880 C   0  0  0  0  0  0  0  0  0  0  0  0
  192.0790  170.8150  137.2810 C   0  0  0  0  0  0  0  0  0  0  0  0
  193.2940  170.5180  136.6310 C   0  0  0  0  0  3  0  0  0  0  0  0
  192.3760  168.4480  135.7810 C   0  0  0  0  0  3  0  0  0  0  0  0
  191.1620  168.7260  136.4140 C   0  0  0  0  0  3  0  0  0  0  0  0
  191.0120  169.9040  137.1500 C   0  0  0  0  0  3  0  0  0  0  0  0
  189.8880  174.6560  135.1300 O   0  0  0  0  0  0  0  0  0  0  0  0
  191.5450  176.2770  135.2540 N   0  0  0  0  0  1  0  0  0  0  0  0
  191.0230  174.9860  135.5700 C   0  0  0  0  0  0  0  0  0  0  0  0
  193.2870  174.0640  139.6600 S   0  0  0  0  0  0  0  0  0  0  0  0
  197.9370  173.8580  141.7550 C   0  0  0  0  0  2  0  0  0  0  0  0
  197.0230  173.0230  140.8640 C   0  0  0  0  0  2  0  0  0  0  0  0
  195.5230  175.0470  140.8400 C   0  0  2  0  0  3  0  0  0  0  0  0
  197.7280  175.3590  141.5100 C   0  0  1  0  0  3  0  0  0  0  0  0
  195.0970  174.1310  139.7100 C   0  0  1  0  0  3  0  0  0  0  0  0
  196.7680  175.6310  140.5010 O   0  0  0  0  0  0  0  0  0  0  0  0
  195.5890  173.5210  141.0060 C   0  0  1  0  0  3  0  0  0  0  0  0
  197.4490  175.2020  143.8820 O   0  0  0  0  0  1  0  0  0  0  0  0
  197.4340  176.0990  142.8110 C   0  0  0  0  0  2  0  0  0  0  0  0
  188.5490  174.2150  141.3780 C   0  0  0  0  0  2  0  0  0  0  0  0
  187.0930  176.3430  141.3260 C   0  0  0  0  0  2  0  0  0  0  0  0
  189.4390  176.3720  142.1750 C   0  0  0  0  0  3  0  0  0  0  0  0
  187.9380  178.3050  142.6500 C   0  0  0  0  0  2  0  0  0  0  0  0
  188.4320  175.6970  141.5960 C   0  0  0  0  0  0  0  0  0  0  0  0
  187.1030  177.8680  141.4530 C   0  0  2  0  0  3  0  0  0  0  0  0
  189.3730  177.8540  142.4230 C   0  0  1  0  0  3  0  0  0  0  0  0
  185.7410  178.3490  141.6040 N   0  0  0  0  0  2  0  0  0  0  0  0
  185.0610  178.1370  140.3340 C   0  0  0  0  0  2  0  0  0  0  0  0
  183.5660  178.3050  140.5210 C   0  0  0  0  0  1  0  0  0  0  0  0
  190.1630  178.1830  143.5280 O   0  0  0  0  0  0  0  0  0  0  0  0
  190.5150  177.0180  144.0450 O   0  0  0  0  0  0  0  0  0  0  0  0
  190.0520  177.0600  145.3650 C   0  0  0  0  0  2  0  0  0  0  0  0
  189.1350  175.8590  145.5980 C   0  0  1  0  0  3  0  0  0  0  0  0
  189.8420  174.7050  146.3350 C   0  0  1  0  0  3  0  0  0  0  0  0
  189.5180  173.3690  145.6850 C   0  0  0  0  0  1  0  0  0  0  0  0
  191.3290  174.8670  146.4050 C   0  0  0  0  0  0  0  0  0  0  0  0
  191.8630  175.5240  147.3440 O   0  0  0  0  0  0  0  0  0  0  0  0
  192.1350  174.3110  145.3630 N   0  0  0  0  0  2  0  0  0  0  0  0
  193.5890  174.3230  145.4080 C   0  0  1  0  0  3  0  0  0  0  0  0
  194.1100  172.9000  145.3400 C   0  0  0  0  0  1  0  0  0  0  0  0
  194.1130  175.0810  144.2830 N   0  0  0  0  0  2  0  0  0  0  0  0
  193.8150  177.1790  145.2880 O   0  0  0  0  0  0  0  0  0  0  0  0
  194.1860  176.5070  144.2860 C   0  0  0  0  0  3  0  0  0  0  0  0
  188.0100  177.5860  147.0710 C   0  0  0  0  0  1  0  0  0  0  0  0
  187.8350  176.2760  146.3050 C   0  0  1  0  0  3  0  0  0  0  0  0
  186.8000  176.4110  145.3780 O   0  0  0  0  0  0  0  0  0  0  0  0
  185.9970  177.4410  145.8790 C   0  0  0  0  0  1  0  0  0  0  0  0
  1  2  1  0  0  0  0
  1  5  1  0  0  0  0
  2  3  1  1  0  0  0
  3  4  1  0  0  0  0
  5 32  1  1  0  0  0
  5  4  1  0  0  0  0
  6  7  1  0  0  0  0
  7 11  1  0  0  0  0
  8 14  1  6  0  0  0
  8 11  1  0  0  0  0
  8  2  1  0  0  0  0
  9  6  1  0  0  0  0
  9 10  2  0  0  0  0
 10  8  1  0  0  0  0
 11 22  1  1  0  0  0
 12 13  1  0  0  0  0
 13 15  1  0  0  0  0
 15 14  2  0  0  0  0
 16 13  2  0  0  0  0
 16 17  1  0  0  0  0
 17 18  2  0  0  0  0
 18 14  1  0  0  0  0
 19 21  2  0  0  0  0
 20 21  1  0  0  0  0
 21  9  1  0  0  0  0
 24 23  1  0  0  0  0
 25 28  1  6  0  0  0
 25 29  1  0  0  0  0
 26 23  1  0  0  0  0
 26 31  1  1  0  0  0
 27 22  1  1  0  0  0
 27 25  1  0  0  0  0
 27 29  1  0  0  0  0
 28 26  1  0  0  0  0
 29 24  1  6  0  0  0
 31 30  1  0  0  0  0
 32 36  1  0  0  0  0
 33 37  1  0  0  0  0
 33 36  1  0  0  0  0
 34 38  1  0  0  0  0
 36 34  2  0  0  0  0
 37 39  1  1  0  0  0
 37 35  1  0  0  0  0
 38 35  1  0  0  0  0
 38 42  1  1  0  0  0
 40 41  1  0  0  0  0
 40 39  1  0  0  0  0
 42 43  1  0  0  0  0
 43 44  1  0  0  0  0
 45 44  1  1  0  0  0
 45 57  1  0  0  0  0
 45 46  1  0  0  0  0
 46 47  1  6  0  0  0
 46 48  1  0  0  0  0
 48 49  2  0  0  0  0
 50 51  1  0  0  0  0
 50 48  1  0  0  0  0
 51 52  1  6  0  0  0
 53 55  1  0  0  0  0
 53 51  1  0  0  0  0
 55 54  2  0  0  0  0
 57 56  1  6  0  0  0
 58 59  1  0  0  0  0
 58 57  1  0  0  0  0
M  END
>  <MODEL>
9

>  <REMARK>
 VINA RESULT:      -4.8      2.482      4.046
  Name = 
  20 active torsions:
  status: ('A' for Active; 'I' for Inactive)
    1  A    between atoms: O_1  and  C_27
    2  A    between atoms: C_5  and  N_31
    3  A    between atoms: N_10  and  C_22
    4  A    between atoms: C_16  and  C_30
    5  A    between atoms: C_17  and  C_51
    6  A    between atoms: C_19  and  C_30
    7  A    between atoms: C_22  and  N_54
    8  A    between atoms: S_24  and  C_29
    9  A    between atoms: S_24  and  C_56
   10  A    between atoms: C_25  and  C_59
   11  A    between atoms: C_27  and  C_36
   12  A    between atoms: C_28  and  C_32
   13  A    between atoms: N_31  and  C_33
   14  A    between atoms: C_32  and  C_36
   15  A    between atoms: C_35  and  C_55
   16  A    between atoms: C_36  and  C_47
   17  A    between atoms: C_47  and  O_48
   18  A    between atoms: O_48  and  O_50
   19  A    between atoms: C_49  and  O_50
   20  A    between atoms: C_58  and  C_59
                            x       y       z     vdW  Elec       q    Type
                         _______ _______ _______ _____ _____    ______ ____

>  <TORSDO>
F 20

$$$$
