=
 OpenBabel11062420073D

 35 35  0  0  1  0  0  0  0  0999 V2000
  188.8300  176.8540  146.5640 N   0  0  0  0  0  2  0  0  0  0  0  0
  186.7470  176.7430  145.3060 C   0  0  0  0  0  0  0  0  0  0  0  0
  185.9650  176.7840  146.4980 N   0  0  0  0  0  1  0  0  0  0  0  0
  188.0770  176.8340  145.3430 C   0  0  0  0  0  3  0  0  0  0  0  0
  186.0640  176.6230  143.9860 C   0  0  0  0  0  2  0  0  0  0  0  0
  186.6960  177.5680  142.9690 C   0  0  1  0  0  3  0  0  0  0  0  0
  186.8370  176.9110  141.6720 N   0  0  0  0  0  2  0  0  0  0  0  0
  187.8730  175.4500  140.1960 O   0  0  0  0  0  0  0  0  0  0  0  0
  190.8010  174.3290  143.2770 C   0  0  0  0  0  1  0  0  0  0  0  0
  190.0720  174.0420  141.0090 N   0  0  0  0  0  2  0  0  0  0  0  0
  188.8180  175.5630  142.3370 N   0  0  0  0  0  2  0  0  0  0  0  0
  189.8840  174.6260  142.1470 C   0  0  0  0  0  0  0  0  0  0  0  0
  187.8490  175.9500  141.3520 C   0  0  0  0  0  0  0  0  0  0  0  0
  185.9020  178.8660  142.8440 C   0  0  0  0  0  2  0  0  0  0  0  0
  184.4560  178.6180  143.1000 C   0  0  0  0  0  0  0  0  0  0  0  0
  183.9540  178.9520  144.2070 O   0  0  0  0  0  0  0  0  0  0  0  0
  183.6840  177.9910  142.1220 O   0  0  0  0  0  0  0  0  0  0  0  0
  183.7540  178.3700  140.7560 C   0  0  0  0  0  1  0  0  0  0  0  0
  189.2100  174.6350  147.3150 C   0  0  0  0  0  2  0  0  0  0  0  0
  189.7230  175.8170  146.9890 C   0  0  0  0  0  0  0  0  0  0  0  0
  193.0940  174.6940  146.1670 C   0  0  0  0  0  3  0  0  0  0  0  0
  191.1570  176.1100  147.1960 C   0  0  0  0  0  3  0  0  0  0  0  0
  192.1230  175.3970  146.6800 C   0  0  0  0  0  0  0  0  0  0  0  0
  194.4770  175.2600  146.0610 C   0  0  2  0  0  3  0  0  0  0  0  0
  194.4410  177.0510  146.4500 S   0  0  0  0  0  1  0  0  0  0  0  0
  195.7700  172.6400  144.4400 C   0  0  2  0  0  3  0  0  0  0  0  0
  196.3290  173.9860  144.8070 C   0  0  2  0  0  3  0  0  0  0  0  0
  195.1870  173.1260  142.1890 O   0  0  0  0  0  1  0  0  0  0  0  0
  196.9650  173.9910  146.0540 O   0  0  0  0  0  1  0  0  0  0  0  0
  195.1350  174.9380  144.6910 C   0  0  1  0  0  0  0  0  0  0  0  0
  193.6160  172.1190  143.4800 O   0  0  0  0  0  1  0  0  0  0  0  0
  194.6630  173.0460  143.4800 C   0  0  0  0  0  0  0  0  0  0  0  0
  194.1720  174.3140  143.8580 O   0  0  0  0  0  0  0  0  0  0  0  0
  195.5990  176.2140  143.9990 C   0  0  0  0  0  1  0  0  0  0  0  0
  195.2210  171.9060  145.6670 C   0  0  0  0  0  1  0  0  0  0  0  0
  1 20  1  0  0  0  0
  2  4  2  0  0  0  0
  2  3  1  0  0  0  0
  4  1  1  0  0  0  0
  5  2  1  0  0  0  0
  6 14  1  6  0  0  0
  6  5  1  0  0  0  0
  7  6  1  0  0  0  0
  8 13  2  0  0  0  0
 10 12  2  0  0  0  0
 12 11  1  0  0  0  0
 12  9  1  0  0  0  0
 13  7  1  0  0  0  0
 13 11  1  0  0  0  0
 14 15  1  0  0  0  0
 15 16  2  0  0  0  0
 17 15  1  0  0  0  0
 18 17  1  0  0  0  0
 20 22  1  0  0  0  0
 20 19  2  0  0  0  0
 21 23  2  0  0  0  0
 23 22  2  0  0  0  0
 24 21  1  0  0  0  0
 24 25  1  6  0  0  0
 26 27  1  0  0  0  0
 26 35  1  1  0  0  0
 27 29  1  1  0  0  0
 28 32  1  0  0  0  0
 30 34  1  6  0  0  0
 30 27  1  0  0  0  0
 30 24  1  0  0  0  0
 32 31  1  0  0  0  0
 32 33  1  0  0  0  0
 32 26  1  0  0  0  0
 33 30  1  0  0  0  0
M  END
>  <MODEL>
1

>  <REMARK>
 VINA RESULT:      -6.9      0.000      0.000
  Name = 
  11 active torsions:
  status: ('A' for Active; 'I' for Inactive)
    1  A    between atoms: N_1  and  C_22
    2  A    between atoms: N_1  and  C_30
    3  A    between atoms: N_2  and  C_12
    4  A    between atoms: C_5  and  C_8
    5  A    between atoms: C_8  and  C_14
    6  A    between atoms: C_10  and  C_28
    7  A    between atoms: C_12  and  C_28
    8  A    between atoms: C_12  and  C_29
    9  A    between atoms: O_13  and  C_27
   10  A    between atoms: C_25  and  C_30
   11  A    between atoms: C_27  and  C_29
                            x       y       z     vdW  Elec       q    Type
                         _______ _______ _______ _____ _____    ______ ____

>  <TORSDO>
F 11

$$$$
=
 OpenBabel11062420073D

 35 35  0  0  1  0  0  0  0  0999 V2000
  189.4090  177.0480  146.0940 N   0  0  0  0  0  2  0  0  0  0  0  0
  189.8030  177.7450  143.7920 C   0  0  0  0  0  0  0  0  0  0  0  0
  191.1110  178.2210  144.1060 N   0  0  0  0  0  1  0  0  0  0  0  0
  189.0410  177.1490  144.7110 C   0  0  0  0  0  3  0  0  0  0  0  0
  189.2840  177.8920  142.4020 C   0  0  0  0  0  2  0  0  0  0  0  0
  187.8480  177.3870  142.3110 C   0  0  1  0  0  3  0  0  0  0  0  0
  186.9040  178.4980  142.3910 N   0  0  0  0  0  2  0  0  0  0  0  0
  185.1840  179.6820  143.4050 O   0  0  0  0  0  0  0  0  0  0  0  0
  185.0280  176.7530  146.6790 C   0  0  0  0  0  1  0  0  0  0  0  0
  184.0930  178.7510  145.7330 N   0  0  0  0  0  2  0  0  0  0  0  0
  185.8770  177.7450  144.5270 N   0  0  0  0  0  2  0  0  0  0  0  0
  184.9690  177.8060  145.6330 C   0  0  0  0  0  0  0  0  0  0  0  0
  185.9510  178.6840  143.4440 C   0  0  0  0  0  0  0  0  0  0  0  0
  187.6250  176.5650  141.0440 C   0  0  0  0  0  2  0  0  0  0  0  0
  188.0630  175.1580  141.2530 C   0  0  0  0  0  0  0  0  0  0  0  0
  187.9140  174.6210  142.3840 O   0  0  0  0  0  0  0  0  0  0  0  0
  188.6600  174.4620  140.2010 O   0  0  0  0  0  0  0  0  0  0  0  0
  189.8550  173.7170  140.3810 C   0  0  0  0  0  1  0  0  0  0  0  0
  188.9750  174.9790  147.1700 C   0  0  0  0  0  2  0  0  0  0  0  0
  189.8760  175.8510  146.7280 C   0  0  0  0  0  0  0  0  0  0  0  0
  193.1160  175.2630  145.1620 C   0  0  0  0  0  3  0  0  0  0  0  0
  191.3150  175.6700  147.0080 C   0  0  0  0  0  3  0  0  0  0  0  0
  192.2130  175.4650  146.0800 C   0  0  0  0  0  0  0  0  0  0  0  0
  194.5670  175.5010  145.4490 C   0  0  2  0  0  3  0  0  0  0  0  0
  194.8530  177.2890  145.7350 S   0  0  0  0  0  1  0  0  0  0  0  0
  195.7080  172.5120  144.4850 C   0  0  2  0  0  3  0  0  0  0  0  0
  196.4000  173.7870  144.8790 C   0  0  2  0  0  3  0  0  0  0  0  0
  195.8380  172.7800  142.1280 O   0  0  0  0  0  1  0  0  0  0  0  0
  196.6770  173.8550  146.2500 O   0  0  0  0  0  1  0  0  0  0  0  0
  195.4850  174.8960  144.3520 C   0  0  1  0  0  0  0  0  0  0  0  0
  193.8210  172.2250  143.0050 O   0  0  0  0  0  1  0  0  0  0  0  0
  194.9900  172.9600  143.2220 C   0  0  0  0  0  0  0  0  0  0  0  0
  194.6720  174.3310  143.3370 O   0  0  0  0  0  0  0  0  0  0  0  0
  196.3510  175.9740  143.7140 C   0  0  0  0  0  1  0  0  0  0  0  0
  194.7260  172.0490  145.5650 C   0  0  0  0  0  1  0  0  0  0  0  0
  1 20  1  0  0  0  0
  2  3  1  0  0  0  0
  2  4  2  0  0  0  0
  4  1  1  0  0  0  0
  5  2  1  0  0  0  0
  6 14  1  6  0  0  0
  6  7  1  0  0  0  0
  6  5  1  0  0  0  0
  7 13  1  0  0  0  0
  8 13  2  0  0  0  0
 11 12  1  0  0  0  0
 12 10  2  0  0  0  0
 12  9  1  0  0  0  0
 13 11  1  0  0  0  0
 14 15  1  0  0  0  0
 15 16  2  0  0  0  0
 17 18  1  0  0  0  0
 17 15  1  0  0  0  0
 20 22  1  0  0  0  0
 20 19  2  0  0  0  0
 21 24  1  0  0  0  0
 21 23  2  0  0  0  0
 23 22  2  0  0  0  0
 24 25  1  6  0  0  0
 26 27  1  0  0  0  0
 26 35  1  1  0  0  0
 27 29  1  1  0  0  0
 28 32  1  0  0  0  0
 30 34  1  6  0  0  0
 30 27  1  0  0  0  0
 30 24  1  0  0  0  0
 31 32  1  0  0  0  0
 32 33  1  0  0  0  0
 32 26  1  0  0  0  0
 33 30  1  0  0  0  0
M  END
>  <MODEL>
2

>  <REMARK>
 VINA RESULT:      -6.9      1.753      3.775
  Name = 
  11 active torsions:
  status: ('A' for Active; 'I' for Inactive)
    1  A    between atoms: N_1  and  C_22
    2  A    between atoms: N_1  and  C_30
    3  A    between atoms: N_2  and  C_12
    4  A    between atoms: C_5  and  C_8
    5  A    between atoms: C_8  and  C_14
    6  A    between atoms: C_10  and  C_28
    7  A    between atoms: C_12  and  C_28
    8  A    between atoms: C_12  and  C_29
    9  A    between atoms: O_13  and  C_27
   10  A    between atoms: C_25  and  C_30
   11  A    between atoms: C_27  and  C_29
                            x       y       z     vdW  Elec       q    Type
                         _______ _______ _______ _____ _____    ______ ____

>  <TORSDO>
F 11

$$$$
=
 OpenBabel11062420073D

 35 35  0  0  1  0  0  0  0  0999 V2000
  191.9260  175.4620  147.4630 N   0  0  0  0  0  2  0  0  0  0  0  0
  189.5880  176.0960  147.2020 C   0  0  0  0  0  0  0  0  0  0  0  0
  189.8930  177.4810  147.3560 N   0  0  0  0  0  1  0  0  0  0  0  0
  190.5470  175.1690  147.1960 C   0  0  0  0  0  3  0  0  0  0  0  0
  188.1690  175.6750  147.0160 C   0  0  0  0  0  2  0  0  0  0  0  0
  187.2970  176.8760  146.6650 C   0  0  1  0  0  3  0  0  0  0  0  0
  186.7610  176.7470  145.3120 N   0  0  0  0  0  2  0  0  0  0  0  0
  186.9190  176.9020  143.0020 O   0  0  0  0  0  0  0  0  0  0  0  0
  191.0670  178.3180  143.3280 C   0  0  0  0  0  1  0  0  0  0  0  0
  189.2390  177.7950  141.8640 N   0  0  0  0  0  2  0  0  0  0  0  0
  188.8430  177.5140  144.1900 N   0  0  0  0  0  2  0  0  0  0  0  0
  189.6760  177.8610  143.0780 C   0  0  0  0  0  0  0  0  0  0  0  0
  187.4870  177.0500  144.1160 C   0  0  0  0  0  0  0  0  0  0  0  0
  186.1760  177.0690  147.6840 C   0  0  0  0  0  2  0  0  0  0  0  0
  185.5600  178.4150  147.5300 C   0  0  0  0  0  0  0  0  0  0  0  0
  186.2160  179.4410  147.8540 O   0  0  0  0  0  0  0  0  0  0  0  0
  184.2510  178.5210  147.0580 O   0  0  0  0  0  0  0  0  0  0  0  0
  183.9680  178.7770  145.6900 C   0  0  0  0  0  1  0  0  0  0  0  0
  193.9140  176.2900  146.4680 C   0  0  0  0  0  2  0  0  0  0  0  0
  192.9860  175.3390  146.5070 C   0  0  0  0  0  0  0  0  0  0  0  0
  192.2680  174.6160  143.0050 C   0  0  0  0  0  3  0  0  0  0  0  0
  192.9560  174.2600  145.4980 C   0  0  0  0  0  3  0  0  0  0  0  0
  192.6080  174.4430  144.2520 C   0  0  0  0  0  0  0  0  0  0  0  0
  192.6480  173.6120  141.9600 C   0  0  2  0  0  3  0  0  0  0  0  0
  194.2180  174.1200  141.1600 S   0  0  0  0  0  1  0  0  0  0  0  0
  189.6890  172.0640  141.8570 C   0  0  2  0  0  3  0  0  0  0  0  0
  190.9350  171.9320  141.0270 C   0  0  2  0  0  3  0  0  0  0  0  0
  188.4590  173.4660  140.3840 O   0  0  0  0  0  1  0  0  0  0  0  0
  191.8270  170.9780  141.5320 O   0  0  0  0  0  1  0  0  0  0  0  0
  191.4940  173.3560  140.9510 C   0  0  1  0  0  0  0  0  0  0  0  0
  188.5640  174.0810  142.5660 O   0  0  0  0  0  1  0  0  0  0  0  0
  189.2740  173.4880  141.5180 C   0  0  0  0  0  0  0  0  0  0  0  0
  190.4300  174.2480  141.2400 O   0  0  0  0  0  0  0  0  0  0  0  0
  191.9540  173.6200  139.5230 C   0  0  0  0  0  1  0  0  0  0  0  0
  189.9860  171.8980  143.3500 C   0  0  0  0  0  1  0  0  0  0  0  0
  2  3  1  0  0  0  0
  4  2  2  0  0  0  0
  4  1  1  0  0  0  0
  5  2  1  0  0  0  0
  6  5  1  1  0  0  0
  6 14  1  0  0  0  0
  7  6  1  0  0  0  0
  8 13  2  0  0  0  0
 10 12  2  0  0  0  0
 12  9  1  0  0  0  0
 12 11  1  0  0  0  0
 13 11  1  0  0  0  0
 13  7  1  0  0  0  0
 15 14  1  0  0  0  0
 15 16  2  0  0  0  0
 17 15  1  0  0  0  0
 18 17  1  0  0  0  0
 19 20  2  0  0  0  0
 20  1  1  0  0  0  0
 21 23  2  0  0  0  0
 22 20  1  0  0  0  0
 23 22  2  0  0  0  0
 24 25  1  6  0  0  0
 24 21  1  0  0  0  0
 26 35  1  1  0  0  0
 27 29  1  1  0  0  0
 27 26  1  0  0  0  0
 28 32  1  0  0  0  0
 30 34  1  6  0  0  0
 30 27  1  0  0  0  0
 30 33  1  0  0  0  0
 30 24  1  0  0  0  0
 32 26  1  0  0  0  0
 32 31  1  0  0  0  0
 33 32  1  0  0  0  0
M  END
>  <MODEL>
3

>  <REMARK>
 VINA RESULT:      -6.8      3.009      4.744
  Name = 
  11 active torsions:
  status: ('A' for Active; 'I' for Inactive)
    1  A    between atoms: N_1  and  C_22
    2  A    between atoms: N_1  and  C_30
    3  A    between atoms: N_2  and  C_12
    4  A    between atoms: C_5  and  C_8
    5  A    between atoms: C_8  and  C_14
    6  A    between atoms: C_10  and  C_28
    7  A    between atoms: C_12  and  C_28
    8  A    between atoms: C_12  and  C_29
    9  A    between atoms: O_13  and  C_27
   10  A    between atoms: C_25  and  C_30
   11  A    between atoms: C_27  and  C_29
                            x       y       z     vdW  Elec       q    Type
                         _______ _______ _______ _____ _____    ______ ____

>  <TORSDO>
F 11

$$$$
=
 OpenBabel11062420073D

 35 35  0  0  1  0  0  0  0  0999 V2000
  189.1000  172.6840  142.5360 N   0  0  0  0  0  2  0  0  0  0  0  0
  188.3790  174.6190  141.2430 C   0  0  0  0  0  0  0  0  0  0  0  0
  189.0740  174.1680  140.0820 N   0  0  0  0  0  1  0  0  0  0  0  0
  188.3500  173.8940  142.3620 C   0  0  0  0  0  3  0  0  0  0  0  0
  187.6460  175.9170  141.1990 C   0  0  0  0  0  2  0  0  0  0  0  0
  187.3030  176.3860  142.6090 C   0  0  1  0  0  3  0  0  0  0  0  0
  188.2830  177.3600  143.0820 N   0  0  0  0  0  2  0  0  0  0  0  0
  189.8410  178.1520  144.6090 O   0  0  0  0  0  0  0  0  0  0  0  0
  189.1860  174.6430  147.1750 C   0  0  0  0  0  1  0  0  0  0  0  0
  190.3450  176.7250  146.8870 N   0  0  0  0  0  2  0  0  0  0  0  0
  188.8300  176.1110  145.1610 N   0  0  0  0  0  2  0  0  0  0  0  0
  189.4930  175.8780  146.4090 C   0  0  0  0  0  0  0  0  0  0  0  0
  189.0220  177.2450  144.3030 C   0  0  0  0  0  0  0  0  0  0  0  0
  185.8870  176.9520  142.6800 C   0  0  0  0  0  2  0  0  0  0  0  0
  185.8440  178.3210  142.0960 C   0  0  0  0  0  0  0  0  0  0  0  0
  185.6400  178.4640  140.8600 O   0  0  0  0  0  0  0  0  0  0  0  0
  186.0610  179.4250  142.9200 O   0  0  0  0  0  0  0  0  0  0  0  0
  185.4790  179.5220  144.2110 C   0  0  0  0  0  1  0  0  0  0  0  0
  189.7680  171.9500  144.6910 C   0  0  0  0  0  2  0  0  0  0  0  0
  190.1160  172.4890  143.5270 C   0  0  0  0  0  0  0  0  0  0  0  0
  193.4210  172.7920  145.0370 C   0  0  0  0  0  3  0  0  0  0  0  0
  191.4800  173.0120  143.3050 C   0  0  0  0  0  3  0  0  0  0  0  0
  192.4480  172.9010  144.1760 C   0  0  0  0  0  0  0  0  0  0  0  0
  194.8470  172.9570  144.6070 C   0  0  2  0  0  3  0  0  0  0  0  0
  195.8230  171.4990  145.1380 S   0  0  0  0  0  1  0  0  0  0  0  0
  195.0740  176.1220  143.5600 C   0  0  2  0  0  3  0  0  0  0  0  0
  196.1070  175.1040  143.9550 C   0  0  2  0  0  3  0  0  0  0  0  0
  194.9890  177.3190  145.6110 O   0  0  0  0  0  1  0  0  0  0  0  0
  196.5510  174.3320  142.8750 O   0  0  0  0  0  1  0  0  0  0  0  0
  195.4460  174.3090  145.0840 C   0  0  1  0  0  0  0  0  0  0  0  0
  193.0140  176.6860  144.6890 O   0  0  0  0  0  1  0  0  0  0  0  0
  194.3480  176.3150  144.8830 C   0  0  0  0  0  0  0  0  0  0  0  0
  194.4020  175.1090  145.6140 O   0  0  0  0  0  0  0  0  0  0  0  0
  196.4750  174.0880  146.1860 C   0  0  0  0  0  1  0  0  0  0  0  0
  194.1410  175.5830  142.4720 C   0  0  0  0  0  1  0  0  0  0  0  0
  1 20  1  0  0  0  0
  2  4  2  0  0  0  0
  3  2  1  0  0  0  0
  4  1  1  0  0  0  0
  5  2  1  0  0  0  0
  6  5  1  6  0  0  0
  6 14  1  0  0  0  0
  6  7  1  0  0  0  0
  7 13  1  0  0  0  0
 11 12  1  0  0  0  0
 12 10  2  0  0  0  0
 12  9  1  0  0  0  0
 13  8  2  0  0  0  0
 13 11  1  0  0  0  0
 15 14  1  0  0  0  0
 15 17  1  0  0  0  0
 16 15  2  0  0  0  0
 17 18  1  0  0  0  0
 20 19  2  0  0  0  0
 22 20  1  0  0  0  0
 22 23  2  0  0  0  0
 23 21  2  0  0  0  0
 24 21  1  0  0  0  0
 24 30  1  0  0  0  0
 24 25  1  1  0  0  0
 26 35  1  6  0  0  0
 26 27  1  0  0  0  0
 26 32  1  0  0  0  0
 27 29  1  6  0  0  0
 27 30  1  0  0  0  0
 30 33  1  0  0  0  0
 30 34  1  1  0  0  0
 31 32  1  0  0  0  0
 32 28  1  0  0  0  0
 32 33  1  0  0  0  0
M  END
>  <MODEL>
4

>  <REMARK>
 VINA RESULT:      -6.7      2.217      4.062
  Name = 
  11 active torsions:
  status: ('A' for Active; 'I' for Inactive)
    1  A    between atoms: N_1  and  C_22
    2  A    between atoms: N_1  and  C_30
    3  A    between atoms: N_2  and  C_12
    4  A    between atoms: C_5  and  C_8
    5  A    between atoms: C_8  and  C_14
    6  A    between atoms: C_10  and  C_28
    7  A    between atoms: C_12  and  C_28
    8  A    between atoms: C_12  and  C_29
    9  A    between atoms: O_13  and  C_27
   10  A    between atoms: C_25  and  C_30
   11  A    between atoms: C_27  and  C_29
                            x       y       z     vdW  Elec       q    Type
                         _______ _______ _______ _____ _____    ______ ____

>  <TORSDO>
F 11

$$$$
=
 OpenBabel11062420073D

 35 35  0  0  1  0  0  0  0  0999 V2000
  190.1890  171.8550  143.5000 N   0  0  0  0  0  2  0  0  0  0  0  0
  189.6750  173.9230  144.6810 C   0  0  0  0  0  0  0  0  0  0  0  0
  189.0620  174.4910  143.5260 N   0  0  0  0  0  1  0  0  0  0  0  0
  190.1460  172.6750  144.6760 C   0  0  0  0  0  3  0  0  0  0  0  0
  189.7700  174.7300  145.9320 C   0  0  0  0  0  2  0  0  0  0  0  0
  188.9990  176.0380  145.7840 C   0  0  1  0  0  3  0  0  0  0  0  0
  188.0140  176.1800  146.8530 N   0  0  0  0  0  2  0  0  0  0  0  0
  185.9640  176.8650  147.6990 O   0  0  0  0  0  0  0  0  0  0  0  0
  184.8190  178.4670  143.7690 C   0  0  0  0  0  1  0  0  0  0  0  0
  184.1930  178.1570  146.0650 N   0  0  0  0  0  2  0  0  0  0  0  0
  186.3290  177.3290  145.4310 N   0  0  0  0  0  2  0  0  0  0  0  0
  185.0850  177.9780  145.1460 C   0  0  0  0  0  0  0  0  0  0  0  0
  186.7310  176.7980  146.7020 C   0  0  0  0  0  0  0  0  0  0  0  0
  189.9400  177.2390  145.7410 C   0  0  0  0  0  2  0  0  0  0  0  0
  189.9960  177.8060  144.3650 C   0  0  0  0  0  0  0  0  0  0  0  0
  191.0760  178.2970  143.9370 O   0  0  0  0  0  0  0  0  0  0  0  0
  188.8440  177.8140  143.5780 O   0  0  0  0  0  0  0  0  0  0  0  0
  188.9000  177.9830  142.1700 C   0  0  0  0  0  1  0  0  0  0  0  0
  191.4390  170.2340  142.3010 C   0  0  0  0  0  2  0  0  0  0  0  0
  191.3900  171.4520  142.8310 C   0  0  0  0  0  0  0  0  0  0  0  0
  194.5200  172.0670  144.5980 C   0  0  0  0  0  3  0  0  0  0  0  0
  192.5850  172.3190  142.8630 C   0  0  0  0  0  3  0  0  0  0  0  0
  193.5500  172.1910  143.7350 C   0  0  0  0  0  0  0  0  0  0  0  0
  195.8620  172.6780  144.3350 C   0  0  2  0  0  3  0  0  0  0  0  0
  197.1740  171.4310  144.6320 S   0  0  0  0  0  1  0  0  0  0  0  0
  195.3990  175.9620  143.9350 C   0  0  2  0  0  3  0  0  0  0  0  0
  196.6110  175.1390  144.2690 C   0  0  2  0  0  3  0  0  0  0  0  0
  194.8470  176.6460  146.1420 O   0  0  0  0  0  1  0  0  0  0  0  0
  197.3230  174.7320  143.1330 O   0  0  0  0  0  1  0  0  0  0  0  0
  196.0690  173.9950  145.1310 C   0  0  1  0  0  0  0  0  0  0  0  0
  193.1740  175.8020  144.8610 O   0  0  0  0  0  1  0  0  0  0  0  0
  194.5360  175.7030  145.1600 C   0  0  0  0  0  0  0  0  0  0  0  0
  194.8200  174.4130  145.6550 O   0  0  0  0  0  0  0  0  0  0  0  0
  197.0210  173.7790  146.3000 C   0  0  0  0  0  1  0  0  0  0  0  0
  194.7240  175.4740  142.6500 C   0  0  0  0  0  1  0  0  0  0  0  0
  1  4  1  0  0  0  0
  2  5  1  0  0  0  0
  3  2  1  0  0  0  0
  4  2  2  0  0  0  0
  6 14  1  1  0  0  0
  6  5  1  0  0  0  0
  6  7  1  0  0  0  0
  9 12  1  0  0  0  0
 11 13  1  0  0  0  0
 12 11  1  0  0  0  0
 12 10  2  0  0  0  0
 13  7  1  0  0  0  0
 13  8  2  0  0  0  0
 15 14  1  0  0  0  0
 16 15  2  0  0  0  0
 17 15  1  0  0  0  0
 18 17  1  0  0  0  0
 19 20  2  0  0  0  0
 20 22  1  0  0  0  0
 20  1  1  0  0  0  0
 22 23  2  0  0  0  0
 23 21  2  0  0  0  0
 24 21  1  0  0  0  0
 24 25  1  1  0  0  0
 24 30  1  0  0  0  0
 26 35  1  6  0  0  0
 26 27  1  0  0  0  0
 26 32  1  0  0  0  0
 27 29  1  6  0  0  0
 27 30  1  0  0  0  0
 30 33  1  0  0  0  0
 30 34  1  1  0  0  0
 31 32  1  0  0  0  0
 32 33  1  0  0  0  0
 32 28  1  0  0  0  0
M  END
>  <MODEL>
5

>  <REMARK>
 VINA RESULT:      -6.6      2.585      5.197
  Name = 
  11 active torsions:
  status: ('A' for Active; 'I' for Inactive)
    1  A    between atoms: N_1  and  C_22
    2  A    between atoms: N_1  and  C_30
    3  A    between atoms: N_2  and  C_12
    4  A    between atoms: C_5  and  C_8
    5  A    between atoms: C_8  and  C_14
    6  A    between atoms: C_10  and  C_28
    7  A    between atoms: C_12  and  C_28
    8  A    between atoms: C_12  and  C_29
    9  A    between atoms: O_13  and  C_27
   10  A    between atoms: C_25  and  C_30
   11  A    between atoms: C_27  and  C_29
                            x       y       z     vdW  Elec       q    Type
                         _______ _______ _______ _____ _____    ______ ____

>  <TORSDO>
F 11

$$$$
=
 OpenBabel11062420073D

 35 35  0  0  1  0  0  0  0  0999 V2000
  188.5690  174.9820  141.3900 N   0  0  0  0  0  2  0  0  0  0  0  0
  186.8750  176.7050  141.7030 C   0  0  0  0  0  0  0  0  0  0  0  0
  187.2350  177.3530  140.4840 N   0  0  0  0  0  1  0  0  0  0  0  0
  187.4620  175.5710  142.0880 C   0  0  0  0  0  3  0  0  0  0  0  0
  185.8010  177.2920  142.5540 C   0  0  0  0  0  2  0  0  0  0  0  0
  186.3540  177.6800  143.9220 C   0  0  1  0  0  3  0  0  0  0  0  0
  187.7390  178.1310  143.8090 N   0  0  0  0  0  2  0  0  0  0  0  0
  189.9870  178.0670  144.3820 O   0  0  0  0  0  0  0  0  0  0  0  0
  189.2180  174.8280  147.2530 C   0  0  0  0  0  1  0  0  0  0  0  0
  190.8450  176.3070  146.2900 N   0  0  0  0  0  2  0  0  0  0  0  0
  188.6130  176.5380  145.5070 N   0  0  0  0  0  2  0  0  0  0  0  0
  189.6110  175.9220  146.3290 C   0  0  0  0  0  0  0  0  0  0  0  0
  188.8330  177.5960  144.5630 C   0  0  0  0  0  0  0  0  0  0  0  0
  185.4840  178.7380  144.5960 C   0  0  0  0  0  2  0  0  0  0  0  0
  184.7640  178.1540  145.7610 C   0  0  0  0  0  0  0  0  0  0  0  0
  183.6860  178.6770  146.1520 O   0  0  0  0  0  0  0  0  0  0  0  0
  185.3090  177.0530  146.4230 O   0  0  0  0  0  0  0  0  0  0  0  0
  185.9420  177.1780  147.6870 C   0  0  0  0  0  1  0  0  0  0  0  0
  189.4240  173.6120  143.1280 C   0  0  0  0  0  2  0  0  0  0  0  0
  189.6640  174.3070  142.0200 C   0  0  0  0  0  0  0  0  0  0  0  0
  192.8730  175.8440  142.8180 C   0  0  0  0  0  3  0  0  0  0  0  0
  191.0420  174.5040  141.5260 C   0  0  0  0  0  3  0  0  0  0  0  0
  191.9540  175.1770  142.1750 C   0  0  0  0  0  0  0  0  0  0  0  0
  194.3230  175.6630  142.4880 C   0  0  2  0  0  3  0  0  0  0  0  0
  194.5310  175.5480  140.6700 S   0  0  0  0  0  1  0  0  0  0  0  0
  195.3930  174.9390  145.5690 C   0  0  2  0  0  3  0  0  0  0  0  0
  196.0620  174.8980  144.2240 C   0  0  2  0  0  3  0  0  0  0  0  0
  194.8540  172.6310  145.7400 O   0  0  0  0  0  1  0  0  0  0  0  0
  196.6950  176.1030  143.8940 O   0  0  0  0  0  1  0  0  0  0  0  0
  194.9520  174.4710  143.2590 C   0  0  1  0  0  0  0  0  0  0  0  0
  193.2030  174.1240  146.1810 O   0  0  0  0  0  1  0  0  0  0  0  0
  194.3240  173.8730  145.3840 C   0  0  0  0  0  0  0  0  0  0  0  0
  193.9410  173.8390  144.0270 O   0  0  0  0  0  0  0  0  0  0  0  0
  195.5220  173.4400  142.2930 C   0  0  0  0  0  1  0  0  0  0  0  0
  194.7830  176.3150  145.8520 C   0  0  0  0  0  1  0  0  0  0  0  0
  1 20  1  0  0  0  0
  1  4  1  0  0  0  0
  2  4  2  0  0  0  0
  2  5  1  0  0  0  0
  3  2  1  0  0  0  0
  6  5  1  6  0  0  0
  6 14  1  0  0  0  0
  7  6  1  0  0  0  0
  7 13  1  0  0  0  0
  8 13  2  0  0  0  0
 10 12  2  0  0  0  0
 11 12  1  0  0  0  0
 12  9  1  0  0  0  0
 13 11  1  0  0  0  0
 14 15  1  0  0  0  0
 15 16  2  0  0  0  0
 15 17  1  0  0  0  0
 17 18  1  0  0  0  0
 20 19  2  0  0  0  0
 22 20  1  0  0  0  0
 22 23  2  0  0  0  0
 23 21  2  0  0  0  0
 24 25  1  6  0  0  0
 24 21  1  0  0  0  0
 24 30  1  0  0  0  0
 26 35  1  6  0  0  0
 27 29  1  6  0  0  0
 27 26  1  0  0  0  0
 30 34  1  6  0  0  0
 30 33  1  0  0  0  0
 30 27  1  0  0  0  0
 32 26  1  0  0  0  0
 32 28  1  0  0  0  0
 32 31  1  0  0  0  0
 33 32  1  0  0  0  0
M  END
>  <MODEL>
6

>  <REMARK>
 VINA RESULT:      -6.6      2.211      4.005
  Name = 
  11 active torsions:
  status: ('A' for Active; 'I' for Inactive)
    1  A    between atoms: N_1  and  C_22
    2  A    between atoms: N_1  and  C_30
    3  A    between atoms: N_2  and  C_12
    4  A    between atoms: C_5  and  C_8
    5  A    between atoms: C_8  and  C_14
    6  A    between atoms: C_10  and  C_28
    7  A    between atoms: C_12  and  C_28
    8  A    between atoms: C_12  and  C_29
    9  A    between atoms: O_13  and  C_27
   10  A    between atoms: C_25  and  C_30
   11  A    between atoms: C_27  and  C_29
                            x       y       z     vdW  Elec       q    Type
                         _______ _______ _______ _____ _____    ______ ____

>  <TORSDO>
F 11

$$$$
=
 OpenBabel11062420073D

 35 35  0  0  1  0  0  0  0  0999 V2000
  190.2400  176.9320  145.6740 N   0  0  0  0  0  2  0  0  0  0  0  0
  189.7040  177.6730  143.4160 C   0  0  0  0  0  0  0  0  0  0  0  0
  191.0660  177.9920  143.1410 N   0  0  0  0  0  1  0  0  0  0  0  0
  189.3370  177.1270  144.5760 C   0  0  0  0  0  3  0  0  0  0  0  0
  188.6680  177.9290  142.3740 C   0  0  0  0  0  2  0  0  0  0  0  0
  187.6170  176.8240  142.3810 C   0  0  1  0  0  3  0  0  0  0  0  0
  186.2710  177.3910  142.3780 N   0  0  0  0  0  2  0  0  0  0  0  0
  184.3380  178.1360  143.4250 O   0  0  0  0  0  0  0  0  0  0  0  0
  186.0400  177.1790  147.3640 C   0  0  0  0  0  1  0  0  0  0  0  0
  184.1420  178.0050  146.1490 N   0  0  0  0  0  2  0  0  0  0  0  0
  186.0190  177.3430  144.8520 N   0  0  0  0  0  2  0  0  0  0  0  0
  185.3450  177.5370  146.1000 C   0  0  0  0  0  0  0  0  0  0  0  0
  185.4910  177.6440  143.5520 C   0  0  0  0  0  0  0  0  0  0  0  0
  187.8110  175.8610  141.2120 C   0  0  0  0  0  2  0  0  0  0  0  0
  188.5180  174.6310  141.6640 C   0  0  0  0  0  0  0  0  0  0  0  0
  187.8490  173.6230  142.0170 O   0  0  0  0  0  0  0  0  0  0  0  0
  189.9120  174.6220  141.7190 O   0  0  0  0  0  0  0  0  0  0  0  0
  190.6460  173.4190  141.8900 C   0  0  0  0  0  1  0  0  0  0  0  0
  190.6520  175.2360  147.2810 C   0  0  0  0  0  2  0  0  0  0  0  0
  190.8230  175.6750  146.0380 C   0  0  0  0  0  0  0  0  0  0  0  0
  193.9920  173.8920  145.7680 C   0  0  0  0  0  3  0  0  0  0  0  0
  191.7100  174.9670  145.0930 C   0  0  0  0  0  3  0  0  0  0  0  0
  192.8530  174.4320  145.4350 C   0  0  0  0  0  0  0  0  0  0  0  0
  194.6320  172.8540  144.8970 C   0  0  2  0  0  3  0  0  0  0  0  0
  194.6210  171.2350  145.7570 S   0  0  0  0  0  1  0  0  0  0  0  0
  196.0130  174.6340  142.4290 C   0  0  2  0  0  3  0  0  0  0  0  0
  196.2060  173.2170  142.8930 C   0  0  2  0  0  3  0  0  0  0  0  0
  197.8930  175.5960  143.5190 O   0  0  0  0  0  1  0  0  0  0  0  0
  195.3490  172.3140  142.2520 O   0  0  0  0  0  1  0  0  0  0  0  0
  196.0430  173.2890  144.4140 C   0  0  1  0  0  0  0  0  0  0  0  0
  195.8960  176.6460  143.7610 O   0  0  0  0  0  1  0  0  0  0  0  0
  196.5170  175.3990  143.6440 C   0  0  0  0  0  0  0  0  0  0  0  0
  196.2640  174.6350  144.8030 O   0  0  0  0  0  0  0  0  0  0  0  0
  197.1240  172.4300  145.0570 C   0  0  0  0  0  1  0  0  0  0  0  0
  194.5410  174.9350  142.1370 C   0  0  0  0  0  1  0  0  0  0  0  0
  1 20  1  0  0  0  0
  2  4  2  0  0  0  0
  3  2  1  0  0  0  0
  4  1  1  0  0  0  0
  5  6  1  0  0  0  0
  5  2  1  0  0  0  0
  6 14  1  6  0  0  0
  7  6  1  0  0  0  0
  7 13  1  0  0  0  0
  8 13  2  0  0  0  0
 11 12  1  0  0  0  0
 12 10  2  0  0  0  0
 12  9  1  0  0  0  0
 13 11  1  0  0  0  0
 14 15  1  0  0  0  0
 15 17  1  0  0  0  0
 15 16  2  0  0  0  0
 17 18  1  0  0  0  0
 20 19  2  0  0  0  0
 22 23  2  0  0  0  0
 22 20  1  0  0  0  0
 23 21  2  0  0  0  0
 24 25  1  1  0  0  0
 24 21  1  0  0  0  0
 26 35  1  1  0  0  0
 26 27  1  0  0  0  0
 26 32  1  0  0  0  0
 27 29  1  6  0  0  0
 27 30  1  0  0  0  0
 28 32  1  0  0  0  0
 30 33  1  0  0  0  0
 30 24  1  0  0  0  0
 30 34  1  1  0  0  0
 32 31  1  0  0  0  0
 32 33  1  0  0  0  0
M  END
>  <MODEL>
7

>  <REMARK>
 VINA RESULT:      -6.6      2.076      4.506
  Name = 
  11 active torsions:
  status: ('A' for Active; 'I' for Inactive)
    1  A    between atoms: N_1  and  C_22
    2  A    between atoms: N_1  and  C_30
    3  A    between atoms: N_2  and  C_12
    4  A    between atoms: C_5  and  C_8
    5  A    between atoms: C_8  and  C_14
    6  A    between atoms: C_10  and  C_28
    7  A    between atoms: C_12  and  C_28
    8  A    between atoms: C_12  and  C_29
    9  A    between atoms: O_13  and  C_27
   10  A    between atoms: C_25  and  C_30
   11  A    between atoms: C_27  and  C_29
                            x       y       z     vdW  Elec       q    Type
                         _______ _______ _______ _____ _____    ______ ____

>  <TORSDO>
F 11

$$$$
=
 OpenBabel11062420073D

 35 35  0  0  1  0  0  0  0  0999 V2000
  192.9210  175.9750  147.2030 N   0  0  0  0  0  2  0  0  0  0  0  0
  194.3030  176.4410  145.2510 C   0  0  0  0  0  0  0  0  0  0  0  0
  194.6790  177.7200  145.7580 N   0  0  0  0  0  1  0  0  0  0  0  0
  193.5310  175.6130  145.9560 C   0  0  0  0  0  3  0  0  0  0  0  0
  194.8040  176.0060  143.9150 C   0  0  0  0  0  2  0  0  0  0  0  0
  194.3160  174.5970  143.5930 C   0  0  1  0  0  3  0  0  0  0  0  0
  193.4700  174.6040  142.4020 N   0  0  0  0  0  2  0  0  0  0  0  0
  191.4930  174.1690  141.2690 O   0  0  0  0  0  0  0  0  0  0  0  0
  189.6960  172.5200  144.9270 C   0  0  0  0  0  1  0  0  0  0  0  0
  189.4080  172.9920  142.5910 N   0  0  0  0  0  2  0  0  0  0  0  0
  191.5120  173.5700  143.5340 N   0  0  0  0  0  2  0  0  0  0  0  0
  190.1850  173.0390  143.6230 C   0  0  0  0  0  0  0  0  0  0  0  0
  192.1260  174.1130  142.3560 C   0  0  0  0  0  0  0  0  0  0  0  0
  195.4820  173.6250  143.4340 C   0  0  0  0  0  2  0  0  0  0  0  0
  195.4490  172.5930  144.5070 C   0  0  0  0  0  0  0  0  0  0  0  0
  194.9130  171.4750  144.2780 O   0  0  0  0  0  0  0  0  0  0  0  0
  195.9840  172.8890  145.7610 O   0  0  0  0  0  0  0  0  0  0  0  0
  197.1540  173.6790  145.9080 C   0  0  0  0  0  1  0  0  0  0  0  0
  191.2510  177.1390  148.4210 C   0  0  0  0  0  2  0  0  0  0  0  0
  191.5660  176.4170  147.3510 C   0  0  0  0  0  0  0  0  0  0  0  0
  189.0350  177.5510  144.9830 C   0  0  0  0  0  3  0  0  0  0  0  0
  190.5270  175.9520  146.4100 C   0  0  0  0  0  3  0  0  0  0  0  0
  189.7810  176.7560  145.7000 C   0  0  0  0  0  0  0  0  0  0  0  0
  188.3130  177.0410  143.7740 C   0  0  2  0  0  3  0  0  0  0  0  0
  189.4950  176.8540  142.3840 S   0  0  0  0  0  1  0  0  0  0  0  0
  185.1760  177.5090  144.8260 C   0  0  2  0  0  3  0  0  0  0  0  0
  185.7570  177.1410  143.4890 C   0  0  2  0  0  3  0  0  0  0  0  0
  184.8720  179.8310  144.4260 O   0  0  0  0  0  1  0  0  0  0  0  0
  185.8770  175.7580  143.3090 O   0  0  0  0  0  1  0  0  0  0  0  0
  187.0770  177.9140  143.4220 C   0  0  1  0  0  0  0  0  0  0  0  0
  185.9040  179.2300  146.3560 O   0  0  0  0  0  1  0  0  0  0  0  0
  185.7450  178.9080  145.0050 C   0  0  0  0  0  0  0  0  0  0  0  0
  186.9940  178.9820  144.3510 O   0  0  0  0  0  0  0  0  0  0  0  0
  187.2160  178.5140  142.0280 C   0  0  0  0  0  1  0  0  0  0  0  0
  185.6510  176.5560  145.9260 C   0  0  0  0  0  1  0  0  0  0  0  0
  1 20  1  0  0  0  0
  2  3  1  0  0  0  0
  2  4  2  0  0  0  0
  4  1  1  0  0  0  0
  5  2  1  0  0  0  0
  6 14  1  6  0  0  0
  6  5  1  0  0  0  0
  7  6  1  0  0  0  0
  8 13  2  0  0  0  0
 10 12  2  0  0  0  0
 11 12  1  0  0  0  0
 12  9  1  0  0  0  0
 13  7  1  0  0  0  0
 13 11  1  0  0  0  0
 14 15  1  0  0  0  0
 15 17  1  0  0  0  0
 16 15  2  0  0  0  0
 17 18  1  0  0  0  0
 20 19  2  0  0  0  0
 21 23  2  0  0  0  0
 22 20  1  0  0  0  0
 23 22  2  0  0  0  0
 24 25  1  6  0  0  0
 24 21  1  0  0  0  0
 26 32  1  0  0  0  0
 26 35  1  1  0  0  0
 27 29  1  1  0  0  0
 27 26  1  0  0  0  0
 28 32  1  0  0  0  0
 30 34  1  6  0  0  0
 30 27  1  0  0  0  0
 30 24  1  0  0  0  0
 30 33  1  0  0  0  0
 32 31  1  0  0  0  0
 33 32  1  0  0  0  0
M  END
>  <MODEL>
8

>  <REMARK>
 VINA RESULT:      -6.5      2.596      8.590
  Name = 
  11 active torsions:
  status: ('A' for Active; 'I' for Inactive)
    1  A    between atoms: N_1  and  C_22
    2  A    between atoms: N_1  and  C_30
    3  A    between atoms: N_2  and  C_12
    4  A    between atoms: C_5  and  C_8
    5  A    between atoms: C_8  and  C_14
    6  A    between atoms: C_10  and  C_28
    7  A    between atoms: C_12  and  C_28
    8  A    between atoms: C_12  and  C_29
    9  A    between atoms: O_13  and  C_27
   10  A    between atoms: C_25  and  C_30
   11  A    between atoms: C_27  and  C_29
                            x       y       z     vdW  Elec       q    Type
                         _______ _______ _______ _____ _____    ______ ____

>  <TORSDO>
F 11

$$$$
=
 OpenBabel11062420073D

 35 35  0  0  1  0  0  0  0  0999 V2000
  188.7590  174.9290  141.2660 N   0  0  0  0  0  2  0  0  0  0  0  0
  187.6000  177.0270  141.7070 C   0  0  0  0  0  0  0  0  0  0  0  0
  187.2650  177.1910  140.3300 N   0  0  0  0  0  1  0  0  0  0  0  0
  188.2460  175.9430  142.1410 C   0  0  0  0  0  3  0  0  0  0  0  0
  187.1980  178.0750  142.6880 C   0  0  0  0  0  2  0  0  0  0  0  0
  186.6740  177.4350  143.9700 C   0  0  1  0  0  3  0  0  0  0  0  0
  187.4330  177.9020  145.1270 N   0  0  0  0  0  2  0  0  0  0  0  0
  188.9810  177.6240  146.8340 O   0  0  0  0  0  0  0  0  0  0  0  0
  189.7570  173.4980  145.5300 C   0  0  0  0  0  1  0  0  0  0  0  0
  190.2530  175.2210  147.1260 N   0  0  0  0  0  2  0  0  0  0  0  0
  188.6630  175.7640  145.4450 N   0  0  0  0  0  2  0  0  0  0  0  0
  189.5810  174.8680  146.0790 C   0  0  0  0  0  0  0  0  0  0  0  0
  188.3870  177.1140  145.8470 C   0  0  0  0  0  0  0  0  0  0  0  0
  185.1800  177.6920  144.1520 C   0  0  0  0  0  2  0  0  0  0  0  0
  184.9560  178.9960  144.8350 C   0  0  0  0  0  0  0  0  0  0  0  0
  185.3680  180.0590  144.2980 O   0  0  0  0  0  0  0  0  0  0  0  0
  184.3200  179.0190  146.0770 O   0  0  0  0  0  0  0  0  0  0  0  0
  184.9660  178.5650  147.2570 C   0  0  0  0  0  1  0  0  0  0  0  0
  187.8320  172.8550  141.9500 C   0  0  0  0  0  2  0  0  0  0  0  0
  188.9160  173.5500  141.6190 C   0  0  0  0  0  0  0  0  0  0  0  0
  192.4130  174.3640  142.2590 C   0  0  0  0  0  3  0  0  0  0  0  0
  190.2670  172.9660  141.7510 C   0  0  0  0  0  3  0  0  0  0  0  0
  191.3380  173.6700  142.0030 C   0  0  0  0  0  0  0  0  0  0  0  0
  193.6480  173.6980  142.7840 C   0  0  2  0  0  3  0  0  0  0  0  0
  193.6890  171.9510  142.2300 S   0  0  0  0  0  1  0  0  0  0  0  0
  195.2140  175.6780  144.9730 C   0  0  2  0  0  3  0  0  0  0  0  0
  195.2190  174.1890  144.7620 C   0  0  2  0  0  3  0  0  0  0  0  0
  193.6530  175.7520  146.7620 O   0  0  0  0  0  1  0  0  0  0  0  0
  196.2170  173.7680  143.8750 O   0  0  0  0  0  1  0  0  0  0  0  0
  193.7890  173.8620  144.3220 C   0  0  1  0  0  0  0  0  0  0  0  0
  193.3230  177.1790  145.0280 O   0  0  0  0  0  1  0  0  0  0  0  0
  193.7650  175.9000  145.3780 C   0  0  0  0  0  0  0  0  0  0  0  0
  192.9580  174.9310  144.7450 O   0  0  0  0  0  0  0  0  0  0  0  0
  193.3370  172.6000  145.0460 C   0  0  0  0  0  1  0  0  0  0  0  0
  195.5670  176.4290  143.6860 C   0  0  0  0  0  1  0  0  0  0  0  0
  1 20  1  0  0  0  0
  1  4  1  0  0  0  0
  2  4  2  0  0  0  0
  2  5  1  0  0  0  0
  3  2  1  0  0  0  0
  6  5  1  6  0  0  0
  6 14  1  0  0  0  0
  6  7  1  0  0  0  0
  7 13  1  0  0  0  0
  9 12  1  0  0  0  0
 11 13  1  0  0  0  0
 11 12  1  0  0  0  0
 12 10  2  0  0  0  0
 13  8  2  0  0  0  0
 14 15  1  0  0  0  0
 15 17  1  0  0  0  0
 16 15  2  0  0  0  0
 17 18  1  0  0  0  0
 20 22  1  0  0  0  0
 20 19  2  0  0  0  0
 21 24  1  0  0  0  0
 22 23  2  0  0  0  0
 23 21  2  0  0  0  0
 24 25  1  1  0  0  0
 24 30  1  0  0  0  0
 26 35  1  6  0  0  0
 26 32  1  0  0  0  0
 27 29  1  6  0  0  0
 27 26  1  0  0  0  0
 30 33  1  0  0  0  0
 30 27  1  0  0  0  0
 30 34  1  1  0  0  0
 31 32  1  0  0  0  0
 32 28  1  0  0  0  0
 33 32  1  0  0  0  0
M  END
>  <MODEL>
9

>  <REMARK>
 VINA RESULT:      -6.5      2.371      4.392
  Name = 
  11 active torsions:
  status: ('A' for Active; 'I' for Inactive)
    1  A    between atoms: N_1  and  C_22
    2  A    between atoms: N_1  and  C_30
    3  A    between atoms: N_2  and  C_12
    4  A    between atoms: C_5  and  C_8
    5  A    between atoms: C_8  and  C_14
    6  A    between atoms: C_10  and  C_28
    7  A    between atoms: C_12  and  C_28
    8  A    between atoms: C_12  and  C_29
    9  A    between atoms: O_13  and  C_27
   10  A    between atoms: C_25  and  C_30
   11  A    between atoms: C_27  and  C_29
                            x       y       z     vdW  Elec       q    Type
                         _______ _______ _______ _____ _____    ______ ____

>  <TORSDO>
F 11

$$$$
