=
 OpenBabel11062422073D

 34 38  0  0  1  0  0  0  0  0999 V2000
  185.1230  179.0380  146.7530 N   0  0  0  0  0  0  0  0  0  0  0  0
  186.0090  178.8660  147.7700 C   0  0  0  0  0  3  0  0  0  0  0  0
  186.5140  176.8800  144.1270 C   0  0  0  0  0  3  0  0  0  0  0  0
  184.4900  177.9490  143.3080 C   0  0  0  0  0  0  0  0  0  0  0  0
  186.3720  177.5320  145.3590 C   0  0  0  0  0  0  0  0  0  0  0  0
  187.2960  177.3420  146.3990 C   0  0  0  0  0  0  0  0  0  0  0  0
  185.2750  178.3990  145.5630 C   0  0  0  0  0  0  0  0  0  0  0  0
  187.1070  178.0190  147.6110 C   0  0  0  0  0  3  0  0  0  0  0  0
  184.3430  178.6010  144.5410 C   0  0  0  0  0  3  0  0  0  0  0  0
  185.5780  177.0880  143.1100 C   0  0  0  0  0  3  0  0  0  0  0  0
  182.3980  178.1540  140.2280 N   0  0  0  0  0  0  0  0  0  0  0  0
  184.7760  178.6230  140.1580 C   0  0  0  0  0  1  0  0  0  0  0  0
  183.6850  177.7820  140.7950 C   0  0  1  0  0  3  0  0  0  0  0  0
  183.5020  178.1620  142.2330 C   0  0  0  0  0  0  0  0  0  0  0  0
  182.3330  178.6680  142.4450 N   0  0  0  0  0  0  0  0  0  0  0  0
  181.6850  178.6540  141.1830 C   0  0  0  0  0  0  0  0  0  0  0  0
  179.5200  178.1650  140.1020 C   0  0  0  0  0  1  0  0  0  0  0  0
  180.2750  180.4000  140.4250 O   0  0  0  0  0  1  0  0  0  0  0  0
  180.2820  179.1260  140.9930 C   0  0  2  0  0  3  0  0  0  0  0  0
  188.4200  176.4700  146.2160 N   0  0  0  0  0  2  0  0  0  0  0  0
  192.6850  176.9080  144.5120 C   0  0  0  0  0  2  0  0  0  0  0  0
  193.9730  176.4020  144.2430 O   0  0  0  0  0  0  0  0  0  0  0  0
  191.7790  175.8030  145.1030 C   0  0  2  0  0  0  0  0  0  0  0  0
  190.3130  176.0400  144.7560 C   0  0  1  0  0  3  0  0  0  0  0  0
  193.0120  176.2020  147.1640 O   0  0  0  0  0  1  0  0  0  0  0  0
  195.2360  174.8240  142.9890 C   0  0  0  0  0  1  0  0  0  0  0  0
  189.7490  176.9350  145.8460 C   0  0  2  0  0  3  0  0  0  0  0  0
  193.7210  176.3110  141.9540 O   0  0  0  0  0  1  0  0  0  0  0  0
  190.6970  176.8180  147.0330 C   0  0  0  0  0  2  0  0  0  0  0  0
  193.9110  175.5510  143.1100 C   0  0  2  0  0  0  0  0  0  0  0  0
  192.7970  174.4890  143.2070 C   0  0  0  0  0  2  0  0  0  0  0  0
  190.1430  176.6250  143.4970 O   0  0  0  0  0  1  0  0  0  0  0  0
  191.7750  175.8310  146.6270 C   0  0  1  0  0  3  0  0  0  0  0  0
  192.2170  174.4180  144.6190 C   0  0  0  0  0  2  0  0  0  0  0  0
  1  2  1  0  0  0  0
  3  5  1  0  0  0  0
  4  9  2  0  0  0  0
  5  7  1  0  0  0  0
  5  6  2  0  0  0  0
  6  8  1  0  0  0  0
  7  1  2  0  0  0  0
  8  2  2  0  0  0  0
  9  7  1  0  0  0  0
 10  4  1  0  0  0  0
 10  3  2  0  0  0  0
 11 13  1  0  0  0  0
 11 16  2  0  0  0  0
 13 12  1  6  0  0  0
 13 14  1  0  0  0  0
 14 15  2  0  0  0  0
 14  4  1  0  0  0  0
 16 15  1  0  0  0  0
 18 19  1  0  0  0  0
 19 17  1  6  0  0  0
 19 16  1  0  0  0  0
 20  6  1  0  0  0  0
 22 21  1  0  0  0  0
 23 21  1  6  0  0  0
 23 33  1  0  0  0  0
 24 32  1  6  0  0  0
 24 23  1  0  0  0  0
 24 27  1  0  0  0  0
 27 20  1  1  0  0  0
 27 29  1  0  0  0  0
 28 30  1  0  0  0  0
 30 26  1  6  0  0  0
 30 31  1  0  0  0  0
 30 22  1  0  0  0  0
 31 34  1  0  0  0  0
 33 29  1  0  0  0  0
 33 25  1  6  0  0  0
 34 23  1  0  0  0  0
M  END
>  <MODEL>
1

>  <REMARK>
 VINA RESULT:      -8.6      0.000      0.000
  Name = 
  4 active torsions:
  status: ('A' for Active; 'I' for Inactive)
    1  A    between atoms: C_13  and  C_24
    2  A    between atoms: N_14  and  C_16
    3  A    between atoms: N_14  and  C_22
    4  A    between atoms: C_26  and  C_28
                            x       y       z     vdW  Elec       q    Type
                         _______ _______ _______ _____ _____    ______ ____

>  <TORSDO>
F 4

$$$$
=
 OpenBabel11062422073D

 34 38  0  0  1  0  0  0  0  0999 V2000
  188.5500  175.3240  147.2420 N   0  0  0  0  0  0  0  0  0  0  0  0
  189.7360  174.8610  147.7210 C   0  0  0  0  0  3  0  0  0  0  0  0
  189.6120  177.4780  144.4630 C   0  0  0  0  0  3  0  0  0  0  0  0
  187.1870  177.5100  144.6300 C   0  0  0  0  0  0  0  0  0  0  0  0
  189.6860  176.6010  145.5530 C   0  0  0  0  0  0  0  0  0  0  0  0
  190.9190  176.1320  146.0340 C   0  0  0  0  0  0  0  0  0  0  0  0
  188.4940  176.1760  146.1830 C   0  0  0  0  0  0  0  0  0  0  0  0
  190.9360  175.2570  147.1280 C   0  0  0  0  0  3  0  0  0  0  0  0
  187.2570  176.6300  145.7190 C   0  0  0  0  0  3  0  0  0  0  0  0
  188.3700  177.9280  144.0060 C   0  0  0  0  0  3  0  0  0  0  0  0
  183.9480  179.1720  143.8260 N   0  0  0  0  0  0  0  0  0  0  0  0
  184.5920  178.7320  146.1230 C   0  0  0  0  0  1  0  0  0  0  0  0
  185.0810  179.1060  144.7350 C   0  0  1  0  0  3  0  0  0  0  0  0
  185.8780  177.9840  144.1410 C   0  0  0  0  0  0  0  0  0  0  0  0
  185.3010  177.4940  143.0950 N   0  0  0  0  0  0  0  0  0  0  0  0
  184.1080  178.2480  142.9380 C   0  0  0  0  0  0  0  0  0  0  0  0
  183.7980  178.4170  140.4960 C   0  0  0  0  0  1  0  0  0  0  0  0
  181.9920  178.7640  142.0090 O   0  0  0  0  0  1  0  0  0  0  0  0
  183.1560  178.0220  141.8120 C   0  0  2  0  0  3  0  0  0  0  0  0
  192.1420  176.5520  145.4150 N   0  0  0  0  0  2  0  0  0  0  0  0
  195.4330  174.5380  142.8840 C   0  0  0  0  0  2  0  0  0  0  0  0
  196.0430  174.2440  141.6480 O   0  0  0  0  0  0  0  0  0  0  0  0
  194.2680  175.5370  142.6910 C   0  0  2  0  0  0  0  0  0  0  0  0
  194.0610  176.3980  143.9330 C   0  0  1  0  0  3  0  0  0  0  0  0
  193.0370  173.6030  141.8710 O   0  0  0  0  0  1  0  0  0  0  0  0
  197.2330  175.1310  139.7900 C   0  0  0  0  0  1  0  0  0  0  0  0
  193.1120  175.6310  144.8380 C   0  0  2  0  0  3  0  0  0  0  0  0
  197.9410  175.5010  142.0130 O   0  0  0  0  0  1  0  0  0  0  0  0
  192.4050  174.6090  143.9550 C   0  0  0  0  0  2  0  0  0  0  0  0
  196.7970  175.3670  141.2220 C   0  0  2  0  0  0  0  0  0  0  0  0
  195.9970  176.6850  141.2600 C   0  0  0  0  0  2  0  0  0  0  0  0
  195.2570  176.6830  144.5980 O   0  0  0  0  0  1  0  0  0  0  0  0
  192.9290  174.8220  142.5470 C   0  0  1  0  0  3  0  0  0  0  0  0
  194.5070  176.4260  141.4680 C   0  0  0  0  0  2  0  0  0  0  0  0
  1  2  1  0  0  0  0
  3  5  1  0  0  0  0
  4  9  2  0  0  0  0
  5  6  2  0  0  0  0
  5  7  1  0  0  0  0
  6  8  1  0  0  0  0
  7  1  2  0  0  0  0
  8  2  2  0  0  0  0
  9  7  1  0  0  0  0
 10  3  2  0  0  0  0
 10  4  1  0  0  0  0
 11 13  1  0  0  0  0
 13 12  1  1  0  0  0
 14  4  1  0  0  0  0
 14 13  1  0  0  0  0
 15 14  2  0  0  0  0
 16 15  1  0  0  0  0
 16 11  2  0  0  0  0
 19 17  1  6  0  0  0
 19 18  1  0  0  0  0
 19 16  1  0  0  0  0
 20  6  1  0  0  0  0
 22 21  1  0  0  0  0
 23 34  1  6  0  0  0
 23 21  1  0  0  0  0
 23 24  1  0  0  0  0
 24 32  1  1  0  0  0
 24 27  1  0  0  0  0
 27 20  1  6  0  0  0
 29 27  1  0  0  0  0
 30 26  1  6  0  0  0
 30 31  1  0  0  0  0
 30 22  1  0  0  0  0
 30 28  1  0  0  0  0
 31 34  1  0  0  0  0
 33 25  1  1  0  0  0
 33 23  1  0  0  0  0
 33 29  1  0  0  0  0
M  END
>  <MODEL>
2

>  <REMARK>
 VINA RESULT:      -8.6      2.040      4.088
  Name = 
  4 active torsions:
  status: ('A' for Active; 'I' for Inactive)
    1  A    between atoms: C_13  and  C_24
    2  A    between atoms: N_14  and  C_16
    3  A    between atoms: N_14  and  C_22
    4  A    between atoms: C_26  and  C_28
                            x       y       z     vdW  Elec       q    Type
                         _______ _______ _______ _____ _____    ______ ____

>  <TORSDO>
F 4

$$$$
=
 OpenBabel11062422073D

 34 38  0  0  1  0  0  0  0  0999 V2000
  189.5580  175.7530  147.3160 N   0  0  0  0  0  0  0  0  0  0  0  0
  190.7690  175.3260  147.7630 C   0  0  0  0  0  3  0  0  0  0  0  0
  190.4420  177.5240  144.2220 C   0  0  0  0  0  3  0  0  0  0  0  0
  188.0360  177.6300  144.5560 C   0  0  0  0  0  0  0  0  0  0  0  0
  190.5840  176.7860  145.4050 C   0  0  0  0  0  0  0  0  0  0  0  0
  191.8430  176.3520  145.8520 C   0  0  0  0  0  0  0  0  0  0  0  0
  189.4360  176.4680  146.1670 C   0  0  0  0  0  0  0  0  0  0  0  0
  191.9280  175.6180  147.0420 C   0  0  0  0  0  3  0  0  0  0  0  0
  188.1750  176.8890  145.7390 C   0  0  0  0  0  3  0  0  0  0  0  0
  189.1760  177.9410  143.8020 C   0  0  0  0  0  3  0  0  0  0  0  0
  184.7510  179.2310  143.8170 N   0  0  0  0  0  0  0  0  0  0  0  0
  185.5140  178.9370  146.1010 C   0  0  0  0  0  1  0  0  0  0  0  0
  185.9300  179.2240  144.6690 C   0  0  1  0  0  3  0  0  0  0  0  0
  186.7020  178.0690  144.1060 C   0  0  0  0  0  0  0  0  0  0  0  0
  186.0740  177.5130  143.1240 N   0  0  0  0  0  0  0  0  0  0  0  0
  184.8720  178.2530  142.9820 C   0  0  0  0  0  0  0  0  0  0  0  0
  184.4010  178.3550  140.5610 C   0  0  0  0  0  1  0  0  0  0  0  0
  182.6770  178.6390  142.1800 O   0  0  0  0  0  1  0  0  0  0  0  0
  183.8650  177.9550  141.9220 C   0  0  2  0  0  3  0  0  0  0  0  0
  193.0230  176.6650  145.1000 N   0  0  0  0  0  2  0  0  0  0  0  0
  195.5350  173.1750  143.4260 C   0  0  0  0  0  2  0  0  0  0  0  0
  196.6890  172.3650  143.4240 O   0  0  0  0  0  0  0  0  0  0  0  0
  195.5650  174.1610  144.6180 C   0  0  2  0  0  0  0  0  0  0  0  0
  194.1570  174.5170  145.0820 C   0  0  1  0  0  3  0  0  0  0  0  0
  197.1590  175.4070  143.2630 O   0  0  0  0  0  1  0  0  0  0  0  0
  197.9410  170.7360  144.6190 C   0  0  0  0  0  1  0  0  0  0  0  0
  193.7140  175.7070  144.2480 C   0  0  2  0  0  3  0  0  0  0  0  0
  195.6400  170.4540  144.1700 O   0  0  0  0  0  1  0  0  0  0  0  0
  194.9830  176.3300  143.6780 C   0  0  0  0  0  2  0  0  0  0  0  0
  196.5970  171.4220  144.4790 C   0  0  2  0  0  0  0  0  0  0  0  0
  196.2500  172.0630  145.8380 C   0  0  0  0  0  2  0  0  0  0  0  0
  193.2570  173.4550  144.9440 O   0  0  0  0  0  1  0  0  0  0  0  0
  196.1430  175.5130  144.2180 C   0  0  1  0  0  3  0  0  0  0  0  0
  196.3730  173.5840  145.7840 C   0  0  0  0  0  2  0  0  0  0  0  0
  1  2  1  0  0  0  0
  3  5  1  0  0  0  0
  4  9  2  0  0  0  0
  5  6  2  0  0  0  0
  5  7  1  0  0  0  0
  6  8  1  0  0  0  0
  7  1  2  0  0  0  0
  8  2  2  0  0  0  0
  9  7  1  0  0  0  0
 10  3  2  0  0  0  0
 10  4  1  0  0  0  0
 11 13  1  0  0  0  0
 13 12  1  1  0  0  0
 14  4  1  0  0  0  0
 14 13  1  0  0  0  0
 15 14  2  0  0  0  0
 16 15  1  0  0  0  0
 16 11  2  0  0  0  0
 19 17  1  6  0  0  0
 19 18  1  0  0  0  0
 19 16  1  0  0  0  0
 20  6  1  0  0  0  0
 22 21  1  0  0  0  0
 22 30  1  0  0  0  0
 23 21  1  6  0  0  0
 23 24  1  0  0  0  0
 23 34  1  0  0  0  0
 24 32  1  6  0  0  0
 27 24  1  0  0  0  0
 27 20  1  1  0  0  0
 28 30  1  0  0  0  0
 29 33  1  0  0  0  0
 29 27  1  0  0  0  0
 30 26  1  1  0  0  0
 30 31  1  0  0  0  0
 33 25  1  6  0  0  0
 33 23  1  0  0  0  0
 34 31  1  0  0  0  0
M  END
>  <MODEL>
3

>  <REMARK>
 VINA RESULT:      -8.4      2.735      4.746
  Name = 
  4 active torsions:
  status: ('A' for Active; 'I' for Inactive)
    1  A    between atoms: C_13  and  C_24
    2  A    between atoms: N_14  and  C_16
    3  A    between atoms: N_14  and  C_22
    4  A    between atoms: C_26  and  C_28
                            x       y       z     vdW  Elec       q    Type
                         _______ _______ _______ _____ _____    ______ ____

>  <TORSDO>
F 4

$$$$
=
 OpenBabel11062422073D

 34 38  0  0  1  0  0  0  0  0999 V2000
  189.6520  175.7050  147.1900 N   0  0  0  0  0  0  0  0  0  0  0  0
  190.8800  175.3070  147.6200 C   0  0  0  0  0  3  0  0  0  0  0  0
  190.4710  177.7190  144.2300 C   0  0  0  0  0  3  0  0  0  0  0  0
  188.0600  177.6880  144.5460 C   0  0  0  0  0  0  0  0  0  0  0  0
  190.6400  176.9110  145.3630 C   0  0  0  0  0  0  0  0  0  0  0  0
  191.9150  176.5090  145.7920 C   0  0  0  0  0  0  0  0  0  0  0  0
  189.5040  176.4890  146.0900 C   0  0  0  0  0  0  0  0  0  0  0  0
  192.0280  175.7020  146.9310 C   0  0  0  0  0  3  0  0  0  0  0  0
  188.2260  176.8780  145.6790 C   0  0  0  0  0  3  0  0  0  0  0  0
  189.1890  178.1030  143.8260 C   0  0  0  0  0  3  0  0  0  0  0  0
  184.7210  179.1970  143.8590 N   0  0  0  0  0  0  0  0  0  0  0  0
  185.5090  178.8860  146.1320 C   0  0  0  0  0  1  0  0  0  0  0  0
  185.9050  179.2120  144.7030 C   0  0  1  0  0  3  0  0  0  0  0  0
  186.7090  178.0930  144.1140 C   0  0  0  0  0  0  0  0  0  0  0  0
  186.0930  177.5350  143.1260 N   0  0  0  0  0  0  0  0  0  0  0  0
  184.8660  178.2380  143.0050 C   0  0  0  0  0  0  0  0  0  0  0  0
  184.3820  178.3520  140.5880 C   0  0  0  0  0  1  0  0  0  0  0  0
  182.6600  178.5830  142.2160 O   0  0  0  0  0  1  0  0  0  0  0  0
  183.8610  177.9280  141.9470 C   0  0  2  0  0  3  0  0  0  0  0  0
  193.0840  176.9270  145.0730 N   0  0  0  0  0  2  0  0  0  0  0  0
  195.3310  173.2000  143.5390 C   0  0  0  0  0  2  0  0  0  0  0  0
  195.8750  171.9130  143.7280 O   0  0  0  0  0  0  0  0  0  0  0  0
  194.5500  173.6500  144.7970 C   0  0  2  0  0  0  0  0  0  0  0  0
  193.4180  174.6070  144.4380 C   0  0  1  0  0  3  0  0  0  0  0  0
  196.7530  174.0730  145.7430 O   0  0  0  0  0  1  0  0  0  0  0  0
  195.3900  169.6210  144.1330 C   0  0  0  0  0  1  0  0  0  0  0  0
  194.0150  176.0030  144.4400 C   0  0  2  0  0  3  0  0  0  0  0  0
  194.3690  170.8170  142.3700 O   0  0  0  0  0  1  0  0  0  0  0  0
  195.3040  175.9200  145.2480 C   0  0  0  0  0  2  0  0  0  0  0  0
  194.8300  170.9550  143.6810 C   0  0  2  0  0  0  0  0  0  0  0  0
  193.6430  171.3060  144.6010 C   0  0  0  0  0  2  0  0  0  0  0  0
  192.8390  174.3180  143.1980 O   0  0  0  0  0  1  0  0  0  0  0  0
  195.4180  174.4860  145.7310 C   0  0  1  0  0  3  0  0  0  0  0  0
  193.9970  172.4420  145.5590 C   0  0  0  0  0  2  0  0  0  0  0  0
  1  2  1  0  0  0  0
  3  5  1  0  0  0  0
  4  9  2  0  0  0  0
  5  6  2  0  0  0  0
  5  7  1  0  0  0  0
  6  8  1  0  0  0  0
  7  1  2  0  0  0  0
  8  2  2  0  0  0  0
  9  7  1  0  0  0  0
 10  3  2  0  0  0  0
 10  4  1  0  0  0  0
 11 13  1  0  0  0  0
 13 12  1  1  0  0  0
 14  4  1  0  0  0  0
 14 13  1  0  0  0  0
 15 14  2  0  0  0  0
 16 15  1  0  0  0  0
 16 11  2  0  0  0  0
 19 17  1  6  0  0  0
 19 18  1  0  0  0  0
 19 16  1  0  0  0  0
 20  6  1  0  0  0  0
 21 22  1  0  0  0  0
 23 21  1  6  0  0  0
 23 34  1  0  0  0  0
 23 33  1  0  0  0  0
 24 32  1  6  0  0  0
 24 27  1  0  0  0  0
 24 23  1  0  0  0  0
 27 20  1  1  0  0  0
 27 29  1  0  0  0  0
 28 30  1  0  0  0  0
 29 33  1  0  0  0  0
 30 22  1  0  0  0  0
 30 26  1  1  0  0  0
 30 31  1  0  0  0  0
 31 34  1  0  0  0  0
 33 25  1  6  0  0  0
M  END
>  <MODEL>
4

>  <REMARK>
 VINA RESULT:      -8.3      2.719      4.503
  Name = 
  4 active torsions:
  status: ('A' for Active; 'I' for Inactive)
    1  A    between atoms: C_13  and  C_24
    2  A    between atoms: N_14  and  C_16
    3  A    between atoms: N_14  and  C_22
    4  A    between atoms: C_26  and  C_28
                            x       y       z     vdW  Elec       q    Type
                         _______ _______ _______ _____ _____    ______ ____

>  <TORSDO>
F 4

$$$$
=
 OpenBabel11062422073D

 34 38  0  0  1  0  0  0  0  0999 V2000
  189.7800  173.2520  143.0360 N   0  0  0  0  0  0  0  0  0  0  0  0
  188.5640  173.3540  142.4360 C   0  0  0  0  0  3  0  0  0  0  0  0
  191.0800  176.6760  142.7660 C   0  0  0  0  0  3  0  0  0  0  0  0
  192.7160  175.2770  143.8960 C   0  0  0  0  0  0  0  0  0  0  0  0
  190.2150  175.5810  142.6390 C   0  0  0  0  0  0  0  0  0  0  0  0
  188.9620  175.7050  142.0170 C   0  0  0  0  0  0  0  0  0  0  0  0
  190.6090  174.3230  143.1500 C   0  0  0  0  0  0  0  0  0  0  0  0
  188.1370  174.5780  141.9170 C   0  0  0  0  0  3  0  0  0  0  0  0
  191.8510  174.1790  143.7730 C   0  0  0  0  0  3  0  0  0  0  0  0
  192.3220  176.5230  143.3900 C   0  0  0  0  0  3  0  0  0  0  0  0
  195.6910  174.9160  146.1130 N   0  0  0  0  0  0  0  0  0  0  0  0
  194.0310  176.6370  146.5170 C   0  0  0  0  0  1  0  0  0  0  0  0
  194.2710  175.2180  146.0330 C   0  0  1  0  0  3  0  0  0  0  0  0
  194.0250  175.1200  144.5580 C   0  0  0  0  0  0  0  0  0  0  0  0
  195.1060  174.8270  143.9150 N   0  0  0  0  0  0  0  0  0  0  0  0
  196.1130  174.7180  144.9080 C   0  0  0  0  0  0  0  0  0  0  0  0
  197.9110  174.9020  143.2280 C   0  0  0  0  0  1  0  0  0  0  0  0
  197.6750  172.9660  144.5940 O   0  0  0  0  0  1  0  0  0  0  0  0
  197.5230  174.3520  144.5870 C   0  0  2  0  0  3  0  0  0  0  0  0
  188.5410  176.9700  141.4870 N   0  0  0  0  0  2  0  0  0  0  0  0
  185.8640  179.0930  144.5880 C   0  0  0  0  0  2  0  0  0  0  0  0
  184.8120  179.0950  145.5260 O   0  0  0  0  0  0  0  0  0  0  0  0
  186.1260  177.6600  144.0670 C   0  0  2  0  0  0  0  0  0  0  0  0
  187.5850  177.4720  143.6620 C   0  0  1  0  0  3  0  0  0  0  0  0
  184.1330  178.0240  142.7170 O   0  0  0  0  0  1  0  0  0  0  0  0
  184.0670  178.2910  147.6360 C   0  0  0  0  0  1  0  0  0  0  0  0
  187.6900  177.9040  142.2100 C   0  0  2  0  0  3  0  0  0  0  0  0
  186.1470  179.3790  147.3830 O   0  0  0  0  0  1  0  0  0  0  0  0
  186.2750  177.8700  141.6460 C   0  0  0  0  0  2  0  0  0  0  0  0
  185.2660  178.5100  146.7360 C   0  0  2  0  0  0  0  0  0  0  0  0
  185.9580  177.1470  146.5300 C   0  0  0  0  0  2  0  0  0  0  0  0
  188.4660  178.2060  144.4630 O   0  0  0  0  0  1  0  0  0  0  0  0
  185.3760  177.3860  142.7690 C   0  0  1  0  0  3  0  0  0  0  0  0
  185.7320  176.6160  145.1160 C   0  0  0  0  0  2  0  0  0  0  0  0
  1  7  1  0  0  0  0
  2  1  2  0  0  0  0
  3 10  1  0  0  0  0
  4 14  1  0  0  0  0
  5  3  2  0  0  0  0
  5  7  1  0  0  0  0
  6  5  1  0  0  0  0
  7  9  2  0  0  0  0
  8  6  2  0  0  0  0
  8  2  1  0  0  0  0
  9  4  1  0  0  0  0
 10  4  2  0  0  0  0
 13 11  1  0  0  0  0
 13 12  1  6  0  0  0
 14 13  1  0  0  0  0
 15 14  2  0  0  0  0
 15 16  1  0  0  0  0
 16 11  2  0  0  0  0
 19 17  1  6  0  0  0
 19 18  1  0  0  0  0
 19 16  1  0  0  0  0
 20  6  1  0  0  0  0
 21 22  1  0  0  0  0
 22 30  1  0  0  0  0
 23 21  1  1  0  0  0
 23 34  1  0  0  0  0
 24 23  1  0  0  0  0
 24 32  1  1  0  0  0
 27 20  1  6  0  0  0
 27 24  1  0  0  0  0
 29 27  1  0  0  0  0
 29 33  1  0  0  0  0
 30 28  1  0  0  0  0
 30 26  1  1  0  0  0
 31 30  1  0  0  0  0
 33 25  1  1  0  0  0
 33 23  1  0  0  0  0
 34 31  1  0  0  0  0
M  END
>  <MODEL>
5

>  <REMARK>
 VINA RESULT:      -8.3      3.594     10.177
  Name = 
  4 active torsions:
  status: ('A' for Active; 'I' for Inactive)
    1  A    between atoms: C_13  and  C_24
    2  A    between atoms: N_14  and  C_16
    3  A    between atoms: N_14  and  C_22
    4  A    between atoms: C_26  and  C_28
                            x       y       z     vdW  Elec       q    Type
                         _______ _______ _______ _____ _____    ______ ____

>  <TORSDO>
F 4

$$$$
=
 OpenBabel11062422073D

 34 38  0  0  1  0  0  0  0  0999 V2000
  189.7410  177.7980  147.4180 N   0  0  0  0  0  0  0  0  0  0  0  0
  190.7900  177.2970  148.1250 C   0  0  0  0  0  3  0  0  0  0  0  0
  189.6430  175.5900  144.4850 C   0  0  0  0  0  3  0  0  0  0  0  0
  187.8700  177.2450  144.3110 C   0  0  0  0  0  0  0  0  0  0  0  0
  190.0520  176.1400  145.7070 C   0  0  0  0  0  0  0  0  0  0  0  0
  191.1360  175.6090  146.4240 C   0  0  0  0  0  0  0  0  0  0  0  0
  189.3570  177.2540  146.2330 C   0  0  0  0  0  0  0  0  0  0  0  0
  191.5030  176.1990  147.6410 C   0  0  0  0  0  3  0  0  0  0  0  0
  188.2750  177.7960  145.5360 C   0  0  0  0  0  3  0  0  0  0  0  0
  188.5600  176.1400  143.7940 C   0  0  0  0  0  3  0  0  0  0  0  0
  184.8650  179.0210  143.0020 N   0  0  0  0  0  0  0  0  0  0  0  0
  184.8400  177.9600  145.1830 C   0  0  0  0  0  1  0  0  0  0  0  0
  185.6790  178.7170  144.1690 C   0  0  1  0  0  3  0  0  0  0  0  0
  186.7250  177.8190  143.5800 C   0  0  0  0  0  0  0  0  0  0  0  0
  186.5360  177.6350  142.3170 N   0  0  0  0  0  0  0  0  0  0  0  0
  185.3740  178.3860  141.9990 C   0  0  0  0  0  0  0  0  0  0  0  0
  183.3370  178.1900  140.6190 C   0  0  0  0  0  1  0  0  0  0  0  0
  185.4760  177.5630  139.7800 O   0  0  0  0  0  1  0  0  0  0  0  0
  184.8270  178.4740  140.6140 C   0  0  2  0  0  3  0  0  0  0  0  0
  191.8590  174.4830  145.9100 N   0  0  0  0  0  2  0  0  0  0  0  0
  196.1980  174.8970  144.3940 C   0  0  0  0  0  2  0  0  0  0  0  0
  197.1760  174.7880  143.3850 O   0  0  0  0  0  0  0  0  0  0  0  0
  194.7920  174.5930  143.8240 C   0  0  2  0  0  0  0  0  0  0  0  0
  193.7070  175.3430  144.5880 C   0  0  1  0  0  3  0  0  0  0  0  0
  195.4950  172.2640  143.9300 O   0  0  0  0  0  1  0  0  0  0  0  0
  197.9410  175.6350  141.2990 C   0  0  0  0  0  1  0  0  0  0  0  0
  193.3070  174.4570  145.7550 C   0  0  2  0  0  3  0  0  0  0  0  0
  197.5160  177.0540  143.1380 O   0  0  0  0  0  1  0  0  0  0  0  0
  193.7730  173.0480  145.4060 C   0  0  0  0  0  2  0  0  0  0  0  0
  197.0620  175.8950  142.5050 C   0  0  2  0  0  0  0  0  0  0  0  0
  195.6230  176.1230  142.0000 C   0  0  0  0  0  2  0  0  0  0  0  0
  194.1320  176.5960  145.0410 O   0  0  0  0  0  1  0  0  0  0  0  0
  194.4040  173.1330  144.0280 C   0  0  1  0  0  3  0  0  0  0  0  0
  194.7210  174.9370  142.3330 C   0  0  0  0  0  2  0  0  0  0  0  0
  1  2  1  0  0  0  0
  3  5  1  0  0  0  0
  4  9  2  0  0  0  0
  5  7  1  0  0  0  0
  5  6  2  0  0  0  0
  6  8  1  0  0  0  0
  7  1  2  0  0  0  0
  8  2  2  0  0  0  0
  9  7  1  0  0  0  0
 10  4  1  0  0  0  0
 10  3  2  0  0  0  0
 11 13  1  0  0  0  0
 13 12  1  1  0  0  0
 14 13  1  0  0  0  0
 14  4  1  0  0  0  0
 15 14  2  0  0  0  0
 16 15  1  0  0  0  0
 16 11  2  0  0  0  0
 18 19  1  0  0  0  0
 19 17  1  1  0  0  0
 19 16  1  0  0  0  0
 20  6  1  0  0  0  0
 22 21  1  0  0  0  0
 23 34  1  6  0  0  0
 23 33  1  0  0  0  0
 23 21  1  0  0  0  0
 23 24  1  0  0  0  0
 24 32  1  1  0  0  0
 24 27  1  0  0  0  0
 27 20  1  6  0  0  0
 29 27  1  0  0  0  0
 30 26  1  6  0  0  0
 30 28  1  0  0  0  0
 30 22  1  0  0  0  0
 31 34  1  0  0  0  0
 31 30  1  0  0  0  0
 33 25  1  1  0  0  0
 33 29  1  0  0  0  0
M  END
>  <MODEL>
6

>  <REMARK>
 VINA RESULT:      -8.2      2.346      4.189
  Name = 
  4 active torsions:
  status: ('A' for Active; 'I' for Inactive)
    1  A    between atoms: C_13  and  C_24
    2  A    between atoms: N_14  and  C_16
    3  A    between atoms: N_14  and  C_22
    4  A    between atoms: C_26  and  C_28
                            x       y       z     vdW  Elec       q    Type
                         _______ _______ _______ _____ _____    ______ ____

>  <TORSDO>
F 4

$$$$
=
 OpenBabel11062422073D

 34 38  0  0  1  0  0  0  0  0999 V2000
  189.7500  173.6720  144.1120 N   0  0  0  0  0  0  0  0  0  0  0  0
  190.8570  172.9960  144.5210 C   0  0  0  0  0  3  0  0  0  0  0  0
  190.5100  177.1170  145.1310 C   0  0  0  0  0  3  0  0  0  0  0  0
  188.3270  177.0530  144.0630 C   0  0  0  0  0  0  0  0  0  0  0  0
  190.6560  175.7360  144.9410 C   0  0  0  0  0  0  0  0  0  0  0  0
  191.8060  175.0550  145.3690 C   0  0  0  0  0  0  0  0  0  0  0  0
  189.6230  175.0120  144.3030 C   0  0  0  0  0  0  0  0  0  0  0  0
  191.9000  173.6740  145.1550 C   0  0  0  0  0  3  0  0  0  0  0  0
  188.4710  175.6710  143.8690 C   0  0  0  0  0  3  0  0  0  0  0  0
  189.3530  177.7690  144.6940 C   0  0  0  0  0  3  0  0  0  0  0  0
  185.3020  179.1390  143.4310 N   0  0  0  0  0  0  0  0  0  0  0  0
  185.6690  178.0870  145.5860 C   0  0  0  0  0  1  0  0  0  0  0  0
  186.3260  178.7500  144.3880 C   0  0  1  0  0  3  0  0  0  0  0  0
  187.1100  177.7450  143.5990 C   0  0  0  0  0  0  0  0  0  0  0  0
  186.6180  177.5830  142.4160 N   0  0  0  0  0  0  0  0  0  0  0  0
  185.4990  178.4530  142.3540 C   0  0  0  0  0  0  0  0  0  0  0  0
  183.2300  178.1870  141.4190 C   0  0  0  0  0  1  0  0  0  0  0  0
  185.1750  177.8140  140.0960 O   0  0  0  0  0  1  0  0  0  0  0  0
  184.6610  178.5990  141.1280 C   0  0  2  0  0  3  0  0  0  0  0  0
  192.8660  175.7670  146.0230 N   0  0  0  0  0  2  0  0  0  0  0  0
  196.5700  175.8570  143.2730 C   0  0  0  0  0  2  0  0  0  0  0  0
  197.5430  175.2160  142.4780 O   0  0  0  0  0  0  0  0  0  0  0  0
  195.5160  174.8390  143.7690 C   0  0  2  0  0  0  0  0  0  0  0  0
  194.1600  175.5010  143.9850 C   0  0  1  0  0  3  0  0  0  0  0  0
  197.2340  174.1720  145.3610 O   0  0  0  0  0  1  0  0  0  0  0  0
  197.9400  173.9750  140.4900 C   0  0  0  0  0  1  0  0  0  0  0  0
  194.1580  176.0330  145.4070 C   0  0  2  0  0  3  0  0  0  0  0  0
  196.7780  176.0310  140.4620 O   0  0  0  0  0  1  0  0  0  0  0  0
  195.2590  175.2840  146.1490 C   0  0  0  0  0  2  0  0  0  0  0  0
  196.9700  174.8770  141.2260 C   0  0  2  0  0  0  0  0  0  0  0  0
  195.6300  174.1250  141.3540 C   0  0  0  0  0  2  0  0  0  0  0  0
  193.9090  176.5300  143.0700 O   0  0  0  0  0  1  0  0  0  0  0  0
  195.8570  174.3050  145.1560 C   0  0  1  0  0  3  0  0  0  0  0  0
  195.3820  173.6690  142.7900 C   0  0  0  0  0  2  0  0  0  0  0  0
  1  7  2  0  0  0  0
  1  2  1  0  0  0  0
  2  8  2  0  0  0  0
  4 10  1  0  0  0  0
  5  3  1  0  0  0  0
  5  6  2  0  0  0  0
  6 20  1  0  0  0  0
  7  5  1  0  0  0  0
  8  6  1  0  0  0  0
  9  4  2  0  0  0  0
  9  7  1  0  0  0  0
 10  3  2  0  0  0  0
 11 13  1  0  0  0  0
 13 12  1  1  0  0  0
 14  4  1  0  0  0  0
 14 13  1  0  0  0  0
 15 14  2  0  0  0  0
 16 15  1  0  0  0  0
 16 11  2  0  0  0  0
 18 19  1  0  0  0  0
 19 17  1  1  0  0  0
 19 16  1  0  0  0  0
 21 23  1  0  0  0  0
 22 21  1  0  0  0  0
 23 34  1  6  0  0  0
 23 24  1  0  0  0  0
 23 33  1  0  0  0  0
 24 32  1  6  0  0  0
 24 27  1  0  0  0  0
 27 20  1  1  0  0  0
 27 29  1  0  0  0  0
 28 30  1  0  0  0  0
 30 26  1  6  0  0  0
 30 31  1  0  0  0  0
 30 22  1  0  0  0  0
 31 34  1  0  0  0  0
 33 25  1  6  0  0  0
 33 29  1  0  0  0  0
M  END
>  <MODEL>
7

>  <REMARK>
 VINA RESULT:      -8.0      2.516      4.775
  Name = 
  4 active torsions:
  status: ('A' for Active; 'I' for Inactive)
    1  A    between atoms: C_13  and  C_24
    2  A    between atoms: N_14  and  C_16
    3  A    between atoms: N_14  and  C_22
    4  A    between atoms: C_26  and  C_28
                            x       y       z     vdW  Elec       q    Type
                         _______ _______ _______ _____ _____    ______ ____

>  <TORSDO>
F 4

$$$$
=
 OpenBabel11062422073D

 34 38  0  0  1  0  0  0  0  0999 V2000
  190.3000  174.2560  141.7770 N   0  0  0  0  0  0  0  0  0  0  0  0
  191.3730  173.7820  141.0890 C   0  0  0  0  0  3  0  0  0  0  0  0
  191.7160  177.1430  143.5520 C   0  0  0  0  0  3  0  0  0  0  0  0
  189.3590  176.9290  144.1070 C   0  0  0  0  0  0  0  0  0  0  0  0
  191.6330  176.0190  142.7190 C   0  0  0  0  0  0  0  0  0  0  0  0
  192.7510  175.5440  142.0150 C   0  0  0  0  0  0  0  0  0  0  0  0
  190.3960  175.3480  142.5820 C   0  0  0  0  0  0  0  0  0  0  0  0
  192.6120  174.4150  141.1970 C   0  0  0  0  0  3  0  0  0  0  0  0
  189.2710  175.8050  143.2730 C   0  0  0  0  0  3  0  0  0  0  0  0
  190.5860  177.5930  144.2400 C   0  0  0  0  0  3  0  0  0  0  0  0
  186.7030  178.0680  146.4630 N   0  0  0  0  0  0  0  0  0  0  0  0
  187.9670  176.0420  146.8880 C   0  0  0  0  0  1  0  0  0  0  0  0
  188.0120  177.4510  146.3220 C   0  0  1  0  0  3  0  0  0  0  0  0
  188.1670  177.4110  144.8320 C   0  0  0  0  0  0  0  0  0  0  0  0
  187.1340  177.9030  144.2340 N   0  0  0  0  0  0  0  0  0  0  0  0
  186.2490  178.2890  145.2730 C   0  0  0  0  0  0  0  0  0  0  0  0
  183.9720  178.6660  146.1470 C   0  0  0  0  0  1  0  0  0  0  0  0
  184.3950  178.4760  143.8110 O   0  0  0  0  0  1  0  0  0  0  0  0
  184.9350  178.9440  145.0090 C   0  0  2  0  0  3  0  0  0  0  0  0
  194.0180  176.2050  142.1410 N   0  0  0  0  0  2  0  0  0  0  0  0
  196.8360  173.6820  144.7840 C   0  0  0  0  0  2  0  0  0  0  0  0
  197.0660  172.7510  145.8180 O   0  0  0  0  0  0  0  0  0  0  0  0
  195.3190  173.8300  144.5150 C   0  0  2  0  0  0  0  0  0  0  0  0
  195.0460  174.2060  143.0620 C   0  0  1  0  0  3  0  0  0  0  0  0
  195.3160  175.1840  146.5380 O   0  0  0  0  0  1  0  0  0  0  0  0
  196.8150  170.4910  146.5120 C   0  0  0  0  0  1  0  0  0  0  0  0
  195.0980  175.7220  142.9900 C   0  0  2  0  0  3  0  0  0  0  0  0
  197.8190  171.0560  144.4510 O   0  0  0  0  0  1  0  0  0  0  0  0
  194.9120  176.2280  144.4160 C   0  0  0  0  0  2  0  0  0  0  0  0
  196.8080  171.4440  145.3340 C   0  0  2  0  0  0  0  0  0  0  0  0
  195.4430  171.3140  144.6290 C   0  0  0  0  0  2  0  0  0  0  0  0
  195.9640  173.6360  142.1740 O   0  0  0  0  0  1  0  0  0  0  0  0
  194.7210  175.0000  145.2860 C   0  0  1  0  0  3  0  0  0  0  0  0
  194.5710  172.5430  144.8750 C   0  0  0  0  0  2  0  0  0  0  0  0
  1  7  1  0  0  0  0
  2  8  1  0  0  0  0
  2  1  2  0  0  0  0
  3 10  1  0  0  0  0
  4 10  2  0  0  0  0
  4 14  1  0  0  0  0
  5  3  2  0  0  0  0
  6 20  1  0  0  0  0
  6  5  1  0  0  0  0
  7  5  1  0  0  0  0
  7  9  2  0  0  0  0
  8  6  2  0  0  0  0
  9  4  1  0  0  0  0
 13 11  1  0  0  0  0
 13 12  1  6  0  0  0
 14 13  1  0  0  0  0
 15 14  2  0  0  0  0
 15 16  1  0  0  0  0
 16 11  2  0  0  0  0
 18 19  1  0  0  0  0
 19 16  1  0  0  0  0
 19 17  1  1  0  0  0
 21 22  1  0  0  0  0
 23 21  1  1  0  0  0
 23 34  1  0  0  0  0
 23 33  1  0  0  0  0
 24 32  1  6  0  0  0
 24 23  1  0  0  0  0
 27 20  1  6  0  0  0
 27 24  1  0  0  0  0
 27 29  1  0  0  0  0
 28 30  1  0  0  0  0
 29 33  1  0  0  0  0
 30 22  1  0  0  0  0
 30 26  1  1  0  0  0
 31 34  1  0  0  0  0
 31 30  1  0  0  0  0
 33 25  1  1  0  0  0
M  END
>  <MODEL>
8

>  <REMARK>
 VINA RESULT:      -7.9      3.469      6.205
  Name = 
  4 active torsions:
  status: ('A' for Active; 'I' for Inactive)
    1  A    between atoms: C_13  and  C_24
    2  A    between atoms: N_14  and  C_16
    3  A    between atoms: N_14  and  C_22
    4  A    between atoms: C_26  and  C_28
                            x       y       z     vdW  Elec       q    Type
                         _______ _______ _______ _____ _____    ______ ____

>  <TORSDO>
F 4

$$$$
=
 OpenBabel11062422073D

 34 38  0  0  1  0  0  0  0  0999 V2000
  193.9120  176.0940  145.3730 N   0  0  0  0  0  0  0  0  0  0  0  0
  193.0960  177.0940  144.9450 C   0  0  0  0  0  3  0  0  0  0  0  0
  192.5020  173.1540  143.6820 C   0  0  0  0  0  3  0  0  0  0  0  0
  194.4130  172.4760  145.0240 C   0  0  0  0  0  0  0  0  0  0  0  0
  192.6750  174.4840  144.0880 C   0  0  0  0  0  0  0  0  0  0  0  0
  191.8240  175.5050  143.6360 C   0  0  0  0  0  0  0  0  0  0  0  0
  193.7310  174.8080  144.9700 C   0  0  0  0  0  0  0  0  0  0  0  0
  192.0410  176.8180  144.0740 C   0  0  0  0  0  3  0  0  0  0  0  0
  194.5900  173.8070  145.4300 C   0  0  0  0  0  3  0  0  0  0  0  0
  193.3660  172.1590  144.1480 C   0  0  0  0  0  3  0  0  0  0  0  0
  197.1840  170.2220  146.0930 N   0  0  0  0  0  0  0  0  0  0  0  0
  197.2470  171.3530  143.9480 C   0  0  0  0  0  1  0  0  0  0  0  0
  196.8190  171.4490  145.4010 C   0  0  1  0  0  3  0  0  0  0  0  0
  195.3250  171.4230  145.5100 C   0  0  0  0  0  0  0  0  0  0  0  0
  194.9130  170.3720  146.1360 N   0  0  0  0  0  0  0  0  0  0  0  0
  196.0880  169.6520  146.4710 C   0  0  0  0  0  0  0  0  0  0  0  0
  194.6850  168.1660  147.8550 C   0  0  0  0  0  1  0  0  0  0  0  0
  197.0230  168.3960  148.2490 O   0  0  0  0  0  1  0  0  0  0  0  0
  196.0560  168.3750  147.2430 C   0  0  2  0  0  3  0  0  0  0  0  0
  190.7430  175.2010  142.7440 N   0  0  0  0  0  2  0  0  0  0  0  0
  186.3460  176.1320  143.7900 C   0  0  0  0  0  2  0  0  0  0  0  0
  185.3550  176.9410  144.3820 O   0  0  0  0  0  0  0  0  0  0  0  0
  187.7310  176.8160  143.8770 C   0  0  2  0  0  0  0  0  0  0  0  0
  188.6310  176.4010  142.7180 C   0  0  1  0  0  3  0  0  0  0  0  0
  187.6940  176.0970  146.2030 O   0  0  0  0  0  1  0  0  0  0  0  0
  184.2240  179.0310  144.2990 C   0  0  0  0  0  1  0  0  0  0  0  0
  189.3480  175.1370  143.1580 C   0  0  2  0  0  3  0  0  0  0  0  0
  184.3970  177.6330  142.4040 O   0  0  0  0  0  1  0  0  0  0  0  0
  189.2530  175.0950  144.6790 C   0  0  0  0  0  2  0  0  0  0  0  0
  185.0950  178.0510  143.5390 C   0  0  2  0  0  0  0  0  0  0  0  0
  186.3740  178.7950  143.1020 C   0  0  0  0  0  2  0  0  0  0  0  0
  187.9210  176.1810  141.5340 O   0  0  0  0  0  1  0  0  0  0  0  0
  188.5140  176.3510  145.0990 C   0  0  1  0  0  3  0  0  0  0  0  0
  187.5860  178.3410  143.9120 C   0  0  0  0  0  2  0  0  0  0  0  0
  2  1  2  0  0  0  0
  3  5  2  0  0  0  0
  3 10  1  0  0  0  0
  4  9  1  0  0  0  0
  4 14  1  0  0  0  0
  5  7  1  0  0  0  0
  6  8  2  0  0  0  0
  6  5  1  0  0  0  0
  7  1  1  0  0  0  0
  7  9  2  0  0  0  0
  8  2  1  0  0  0  0
 10  4  2  0  0  0  0
 11 16  2  0  0  0  0
 13 12  1  6  0  0  0
 13 14  1  0  0  0  0
 13 11  1  0  0  0  0
 14 15  2  0  0  0  0
 15 16  1  0  0  0  0
 16 19  1  0  0  0  0
 19 17  1  1  0  0  0
 19 18  1  0  0  0  0
 20  6  1  0  0  0  0
 21 22  1  0  0  0  0
 23 21  1  6  0  0  0
 23 34  1  0  0  0  0
 23 33  1  0  0  0  0
 24 32  1  6  0  0  0
 24 27  1  0  0  0  0
 24 23  1  0  0  0  0
 27 20  1  1  0  0  0
 27 29  1  0  0  0  0
 28 30  1  0  0  0  0
 29 33  1  0  0  0  0
 30 26  1  1  0  0  0
 30 22  1  0  0  0  0
 31 30  1  0  0  0  0
 31 34  1  0  0  0  0
 33 25  1  1  0  0  0
M  END
>  <MODEL>
9

>  <REMARK>
 VINA RESULT:      -7.9      4.413     11.114
  Name = 
  4 active torsions:
  status: ('A' for Active; 'I' for Inactive)
    1  A    between atoms: C_13  and  C_24
    2  A    between atoms: N_14  and  C_16
    3  A    between atoms: N_14  and  C_22
    4  A    between atoms: C_26  and  C_28
                            x       y       z     vdW  Elec       q    Type
                         _______ _______ _______ _____ _____    ______ ____

>  <TORSDO>
F 4

$$$$
