=
 OpenBabel11072409393D

 25 27  0  0  1  0  0  0  0  0999 V2000
  188.7360  177.1830  143.7880 C   0  0  0  0  0  0  0  0  0  0  0  0
  187.4120  177.8930  143.5950 C   0  0  1  0  0  3  0  0  0  0  0  0
  186.6310  175.8340  142.3740 C   0  0  0  0  0  2  0  0  0  0  0  0
  188.9950  176.0210  143.1710 C   0  0  0  0  0  3  0  0  0  0  0  0
  188.0750  175.4040  142.1520 C   0  0  1  0  0  3  0  0  0  0  0  0
  186.5750  177.3560  142.4260 C   0  0  0  0  0  2  0  0  0  0  0  0
  185.9950  176.9640  147.0040 C   0  0  0  0  0  3  0  0  0  0  0  0
  186.6140  177.9400  144.8710 C   0  0  0  0  0  0  0  0  0  0  0  0
  185.0310  179.0310  146.3000 N   0  0  0  0  0  0  0  0  0  0  0  0
  186.7330  176.9160  145.8220 C   0  0  0  0  0  3  0  0  0  0  0  0
  185.1390  178.0420  147.2280 C   0  0  0  0  0  3  0  0  0  0  0  0
  185.7390  179.0090  145.1390 C   0  0  0  0  0  0  0  0  0  0  0  0
  185.5690  180.1310  144.1710 C   0  0  0  0  0  1  0  0  0  0  0  0
  189.6700  177.7530  144.7180 N   0  0  0  0  0  2  0  0  0  0  0  0
  190.2230  176.5850  146.7570 C   0  0  0  0  0  3  0  0  0  0  0  0
  191.4470  175.3420  148.4070 O   0  0  0  0  0  0  0  0  0  0  0  0
  192.5110  176.1060  146.4460 N   0  0  0  0  0  0  0  0  0  0  0  0
  192.0370  176.7730  145.2490 C   0  0  0  0  0  2  0  0  0  0  0  0
  191.4040  175.9610  147.3120 C   0  0  0  0  0  0  0  0  0  0  0  0
  190.5910  177.0590  145.5710 C   0  0  0  0  0  0  0  0  0  0  0  0
  193.5910  175.2910  146.4680 O   0  0  0  0  0  1  0  0  0  0  0  0
  188.1660  173.9870  142.1990 O   0  0  0  0  0  0  0  0  0  0  0  0
  188.3140  173.6060  139.8120 O   0  0  0  0  0  0  0  0  0  0  0  0
  188.6240  173.2370  141.1160 C   0  0  0  0  0  0  0  0  0  0  0  0
  189.3240  172.2120  141.3210 O   0  0  0  0  0  1  0  0  0  0  0  0
  1 14  1  0  0  0  0
  2  1  1  0  0  0  0
  2  8  1  1  0  0  0
  3  6  1  0  0  0  0
  4  1  2  0  0  0  0
  5 22  1  1  0  0  0
  5  3  1  0  0  0  0
  5  4  1  0  0  0  0
  6  2  1  0  0  0  0
  7 11  1  0  0  0  0
  8 12  2  0  0  0  0
  8 10  1  0  0  0  0
  9 11  2  0  0  0  0
 10  7  2  0  0  0  0
 12  9  1  0  0  0  0
 13 12  1  0  0  0  0
 14 20  1  0  0  0  0
 15 19  1  0  0  0  0
 17 21  1  0  0  0  0
 17 19  1  0  0  0  0
 18 20  1  0  0  0  0
 18 17  1  0  0  0  0
 19 16  2  0  0  0  0
 20 15  2  0  0  0  0
 23 24  2  0  0  0  0
 24 25  1  0  0  0  0
 24 22  1  0  0  0  0
M  END
>  <MODEL>
1

>  <REMARK>
 VINA RESULT:      -6.9      0.000      0.000
  Name = 
  5 active torsions:
  status: ('A' for Active; 'I' for Inactive)
    1  A    between atoms: C_3  and  N_21
    2  A    between atoms: C_4  and  C_7
    3  A    between atoms: C_9  and  O_24
    4  A    between atoms: C_17  and  N_21
    5  A    between atoms: C_22  and  O_24
                            x       y       z     vdW  Elec       q    Type
                         _______ _______ _______ _____ _____    ______ ____

>  <TORSDO>
F 5

$$$$
=
 OpenBabel11072409393D

 25 27  0  0  1  0  0  0  0  0999 V2000
  189.3660  176.4190  145.4890 C   0  0  0  0  0  0  0  0  0  0  0  0
  189.4910  177.1090  144.1460 C   0  0  1  0  0  3  0  0  0  0  0  0
  191.9850  176.8950  144.4090 C   0  0  0  0  0  2  0  0  0  0  0  0
  190.4450  176.1840  146.2480 C   0  0  0  0  0  3  0  0  0  0  0  0
  191.8210  176.6940  145.9090 C   0  0  1  0  0  3  0  0  0  0  0  0
  190.8500  177.7790  143.9050 C   0  0  0  0  0  2  0  0  0  0  0  0
  189.2080  174.0120  141.9510 C   0  0  0  0  0  3  0  0  0  0  0  0
  189.1180  176.1910  143.0120 C   0  0  0  0  0  0  0  0  0  0  0  0
  187.9950  175.7960  140.9320 N   0  0  0  0  0  0  0  0  0  0  0  0
  189.5580  174.8600  143.0010 C   0  0  0  0  0  3  0  0  0  0  0  0
  188.4170  174.5040  140.9140 C   0  0  0  0  0  3  0  0  0  0  0  0
  188.3200  176.6450  141.9450 C   0  0  0  0  0  0  0  0  0  0  0  0
  187.8170  178.0480  141.8970 C   0  0  0  0  0  1  0  0  0  0  0  0
  188.0670  175.9500  145.8810 N   0  0  0  0  0  2  0  0  0  0  0  0
  186.4770  177.2620  147.1370 C   0  0  0  0  0  3  0  0  0  0  0  0
  184.5790  178.6290  147.6810 O   0  0  0  0  0  0  0  0  0  0  0  0
  184.8400  177.7450  145.5100 N   0  0  0  0  0  0  0  0  0  0  0  0
  185.8950  176.9920  144.8600 C   0  0  0  0  0  2  0  0  0  0  0  0
  185.2290  177.9360  146.8550 C   0  0  0  0  0  0  0  0  0  0  0  0
  186.8570  176.7120  145.9880 C   0  0  0  0  0  0  0  0  0  0  0  0
  183.9970  178.5720  144.8490 O   0  0  0  0  0  1  0  0  0  0  0  0
  192.8120  175.7920  146.3830 O   0  0  0  0  0  0  0  0  0  0  0  0
  195.1680  175.2630  146.2030 O   0  0  0  0  0  0  0  0  0  0  0  0
  194.1510  176.1610  146.5090 C   0  0  0  0  0  0  0  0  0  0  0  0
  194.4430  177.3170  146.9060 O   0  0  0  0  0  1  0  0  0  0  0  0
  1 14  1  0  0  0  0
  1  4  2  0  0  0  0
  2  8  1  6  0  0  0
  2  1  1  0  0  0  0
  3  5  1  0  0  0  0
  5  4  1  0  0  0  0
  5 22  1  6  0  0  0
  6  2  1  0  0  0  0
  6  3  1  0  0  0  0
  7 10  1  0  0  0  0
  9 12  2  0  0  0  0
 10  8  2  0  0  0  0
 11  9  1  0  0  0  0
 11  7  2  0  0  0  0
 12  8  1  0  0  0  0
 13 12  1  0  0  0  0
 14 20  1  0  0  0  0
 17 19  1  0  0  0  0
 18 17  1  0  0  0  0
 18 20  1  0  0  0  0
 19 15  1  0  0  0  0
 19 16  2  0  0  0  0
 20 15  2  0  0  0  0
 21 17  1  0  0  0  0
 22 24  1  0  0  0  0
 23 24  2  0  0  0  0
 24 25  1  0  0  0  0
M  END
>  <MODEL>
2

>  <REMARK>
 VINA RESULT:      -6.8      3.045      6.190
  Name = 
  5 active torsions:
  status: ('A' for Active; 'I' for Inactive)
    1  A    between atoms: C_3  and  N_21
    2  A    between atoms: C_4  and  C_7
    3  A    between atoms: C_9  and  O_24
    4  A    between atoms: C_17  and  N_21
    5  A    between atoms: C_22  and  O_24
                            x       y       z     vdW  Elec       q    Type
                         _______ _______ _______ _____ _____    ______ ____

>  <TORSDO>
F 5

$$$$
=
 OpenBabel11072409393D

 25 27  0  0  1  0  0  0  0  0999 V2000
  189.5370  176.8910  144.9520 C   0  0  0  0  0  0  0  0  0  0  0  0
  188.4310  176.1690  145.6920 C   0  0  1  0  0  3  0  0  0  0  0  0
  190.1360  175.6420  147.4670 C   0  0  0  0  0  2  0  0  0  0  0  0
  190.8110  176.8120  145.3620 C   0  0  0  0  0  3  0  0  0  0  0  0
  191.2640  175.9120  146.4810 C   0  0  1  0  0  3  0  0  0  0  0  0
  188.9260  175.1230  146.7000 C   0  0  0  0  0  2  0  0  0  0  0  0
  186.9400  178.7690  148.0390 C   0  0  0  0  0  3  0  0  0  0  0  0
  187.4630  177.1330  146.3260 C   0  0  0  0  0  0  0  0  0  0  0  0
  185.3150  178.1920  146.3890 N   0  0  0  0  0  0  0  0  0  0  0  0
  187.8370  177.8740  147.4560 C   0  0  0  0  0  3  0  0  0  0  0  0
  185.6690  178.9150  147.4850 C   0  0  0  0  0  3  0  0  0  0  0  0
  186.1710  177.3130  145.8000 C   0  0  0  0  0  0  0  0  0  0  0  0
  185.7120  176.5580  144.5980 C   0  0  0  0  0  1  0  0  0  0  0  0
  189.1650  177.7310  143.8480 N   0  0  0  0  0  2  0  0  0  0  0  0
  188.7530  176.1550  142.0670 C   0  0  0  0  0  3  0  0  0  0  0  0
  187.8410  175.1410  140.0910 O   0  0  0  0  0  0  0  0  0  0  0  0
  187.2480  177.3420  140.6930 N   0  0  0  0  0  0  0  0  0  0  0  0
  187.5400  178.1730  141.8460 C   0  0  0  0  0  2  0  0  0  0  0  0
  187.9440  176.1250  140.8690 C   0  0  0  0  0  0  0  0  0  0  0  0
  188.5250  177.3390  142.6260 C   0  0  0  0  0  0  0  0  0  0  0  0
  186.1230  177.4630  139.9520 O   0  0  0  0  0  1  0  0  0  0  0  0
  192.3680  176.4900  147.1630 O   0  0  0  0  0  0  0  0  0  0  0  0
  194.4990  177.5080  146.6200 O   0  0  0  0  0  1  0  0  0  0  0  0
  193.6740  176.3890  146.6800 C   0  0  0  0  0  0  0  0  0  0  0  0
  194.1080  175.2760  146.2910 O   0  0  0  0  0  0  0  0  0  0  0  0
  1  4  2  0  0  0  0
  1  2  1  0  0  0  0
  2  8  1  1  0  0  0
  2  6  1  0  0  0  0
  4  5  1  0  0  0  0
  5 22  1  1  0  0  0
  5  3  1  0  0  0  0
  6  3  1  0  0  0  0
  8 10  1  0  0  0  0
  9 11  2  0  0  0  0
 10  7  2  0  0  0  0
 11  7  1  0  0  0  0
 12  8  2  0  0  0  0
 12  9  1  0  0  0  0
 13 12  1  0  0  0  0
 14  1  1  0  0  0  0
 15 20  2  0  0  0  0
 16 19  2  0  0  0  0
 17 19  1  0  0  0  0
 17 18  1  0  0  0  0
 18 20  1  0  0  0  0
 19 15  1  0  0  0  0
 20 14  1  0  0  0  0
 21 17  1  0  0  0  0
 23 24  1  0  0  0  0
 24 22  1  0  0  0  0
 25 24  2  0  0  0  0
M  END
>  <MODEL>
3

>  <REMARK>
 VINA RESULT:      -6.7      1.922      5.629
  Name = 
  5 active torsions:
  status: ('A' for Active; 'I' for Inactive)
    1  A    between atoms: C_3  and  N_21
    2  A    between atoms: C_4  and  C_7
    3  A    between atoms: C_9  and  O_24
    4  A    between atoms: C_17  and  N_21
    5  A    between atoms: C_22  and  O_24
                            x       y       z     vdW  Elec       q    Type
                         _______ _______ _______ _____ _____    ______ ____

>  <TORSDO>
F 5

$$$$
=
 OpenBabel11072409393D

 25 27  0  0  1  0  0  0  0  0999 V2000
  188.9460  177.4280  144.4240 C   0  0  0  0  0  0  0  0  0  0  0  0
  190.1580  176.5220  144.4830 C   0  0  1  0  0  3  0  0  0  0  0  0
  189.1150  175.4710  146.5180 C   0  0  0  0  0  2  0  0  0  0  0  0
  188.0460  177.4460  145.4170 C   0  0  0  0  0  3  0  0  0  0  0  0
  188.2250  176.6920  146.7070 C   0  0  1  0  0  3  0  0  0  0  0  0
  190.4200  175.9100  145.8660 C   0  0  0  0  0  2  0  0  0  0  0  0
  188.9500  173.6800  142.2570 C   0  0  0  0  0  3  0  0  0  0  0  0
  190.1180  175.4670  143.4090 C   0  0  0  0  0  0  0  0  0  0  0  0
  191.1470  174.3180  141.5760 N   0  0  0  0  0  0  0  0  0  0  0  0
  188.9860  174.6540  143.2540 C   0  0  0  0  0  3  0  0  0  0  0  0
  190.0530  173.5250  141.4190 C   0  0  0  0  0  3  0  0  0  0  0  0
  191.2080  175.2760  142.5400 C   0  0  0  0  0  0  0  0  0  0  0  0
  192.4400  176.1090  142.6500 C   0  0  0  0  0  1  0  0  0  0  0  0
  188.7490  178.2040  143.2310 N   0  0  0  0  0  2  0  0  0  0  0  0
  187.7850  177.5310  141.1230 C   0  0  0  0  0  3  0  0  0  0  0  0
  186.1930  177.1580  139.3640 O   0  0  0  0  0  0  0  0  0  0  0  0
  185.5880  178.3720  141.2930 N   0  0  0  0  0  0  0  0  0  0  0  0
  186.2700  178.6710  142.5380 C   0  0  0  0  0  2  0  0  0  0  0  0
  186.4940  177.6510  140.4830 C   0  0  0  0  0  0  0  0  0  0  0  0
  187.6570  178.1250  142.3050 C   0  0  0  0  0  0  0  0  0  0  0  0
  184.2430  178.2760  141.1830 O   0  0  0  0  0  1  0  0  0  0  0  0
  186.9630  176.2900  147.2230 O   0  0  0  0  0  0  0  0  0  0  0  0
  184.7500  176.9400  146.4840 O   0  0  0  0  0  0  0  0  0  0  0  0
  185.8730  177.1580  147.2760 C   0  0  0  0  0  0  0  0  0  0  0  0
  185.9050  178.1520  148.0450 O   0  0  0  0  0  1  0  0  0  0  0  0
  1  2  1  0  0  0  0
  1  4  2  0  0  0  0
  2  8  1  6  0  0  0
  2  6  1  0  0  0  0
  3  5  1  0  0  0  0
  4  5  1  0  0  0  0
  5 22  1  6  0  0  0
  6  3  1  0  0  0  0
  7 10  1  0  0  0  0
  9 12  2  0  0  0  0
 10  8  2  0  0  0  0
 11  9  1  0  0  0  0
 11  7  2  0  0  0  0
 12 13  1  0  0  0  0
 12  8  1  0  0  0  0
 14  1  1  0  0  0  0
 15 20  2  0  0  0  0
 16 19  2  0  0  0  0
 17 18  1  0  0  0  0
 19 15  1  0  0  0  0
 19 17  1  0  0  0  0
 20 18  1  0  0  0  0
 20 14  1  0  0  0  0
 21 17  1  0  0  0  0
 22 24  1  0  0  0  0
 23 24  2  0  0  0  0
 24 25  1  0  0  0  0
M  END
>  <MODEL>
4

>  <REMARK>
 VINA RESULT:      -6.7      3.146      6.926
  Name = 
  5 active torsions:
  status: ('A' for Active; 'I' for Inactive)
    1  A    between atoms: C_3  and  N_21
    2  A    between atoms: C_4  and  C_7
    3  A    between atoms: C_9  and  O_24
    4  A    between atoms: C_17  and  N_21
    5  A    between atoms: C_22  and  O_24
                            x       y       z     vdW  Elec       q    Type
                         _______ _______ _______ _____ _____    ______ ____

>  <TORSDO>
F 5

$$$$
=
 OpenBabel11072409393D

 25 27  0  0  1  0  0  0  0  0999 V2000
  188.6280  175.7580  143.3830 C   0  0  0  0  0  0  0  0  0  0  0  0
  189.2770  174.8200  144.3800 C   0  0  1  0  0  3  0  0  0  0  0  0
  189.9120  173.3780  142.4170 C   0  0  0  0  0  2  0  0  0  0  0  0
  188.4970  175.4150  142.0930 C   0  0  0  0  0  3  0  0  0  0  0  0
  188.8460  174.0500  141.5630 C   0  0  1  0  0  3  0  0  0  0  0  0
  189.4530  173.3840  143.8700 C   0  0  0  0  0  2  0  0  0  0  0  0
  192.7380  176.3970  144.5310 C   0  0  0  0  0  3  0  0  0  0  0  0
  190.5690  175.3810  144.9120 C   0  0  0  0  0  0  0  0  0  0  0  0
  191.9980  175.9370  146.7530 N   0  0  0  0  0  0  0  0  0  0  0  0
  191.5440  175.8760  144.0350 C   0  0  0  0  0  3  0  0  0  0  0  0
  192.9490  176.4190  145.9090 C   0  0  0  0  0  3  0  0  0  0  0  0
  190.8240  175.4230  146.2960 C   0  0  0  0  0  0  0  0  0  0  0  0
  189.8270  174.9160  147.2830 C   0  0  0  0  0  1  0  0  0  0  0  0
  188.2360  177.0600  143.8470 N   0  0  0  0  0  2  0  0  0  0  0  0
  187.5380  177.5050  146.1140 C   0  0  0  0  0  3  0  0  0  0  0  0
  186.1720  178.0750  148.0050 O   0  0  0  0  0  0  0  0  0  0  0  0
  185.2170  177.8370  145.8620 N   0  0  0  0  0  0  0  0  0  0  0  0
  185.7740  177.6070  144.5420 C   0  0  0  0  0  2  0  0  0  0  0  0
  186.2930  177.8200  146.7780 C   0  0  0  0  0  0  0  0  0  0  0  0
  187.2370  177.3760  144.8260 C   0  0  0  0  0  0  0  0  0  0  0  0
  184.0590  178.5020  146.0770 O   0  0  0  0  0  1  0  0  0  0  0  0
  189.2980  174.1440  140.2190 O   0  0  0  0  0  0  0  0  0  0  0  0
  187.8100  174.9030  138.4650 O   0  0  0  0  0  0  0  0  0  0  0  0
  188.4630  173.8740  139.1350 C   0  0  0  0  0  0  0  0  0  0  0  0
  188.2950  172.6860  138.7600 O   0  0  0  0  0  1  0  0  0  0  0  0
  1 14  1  0  0  0  0
  1  2  1  0  0  0  0
  2  8  1  6  0  0  0
  3  6  1  0  0  0  0
  4  1  2  0  0  0  0
  5 22  1  6  0  0  0
  5  4  1  0  0  0  0
  5  3  1  0  0  0  0
  6  2  1  0  0  0  0
  7 11  1  0  0  0  0
  8 12  2  0  0  0  0
 10  7  2  0  0  0  0
 10  8  1  0  0  0  0
 11  9  2  0  0  0  0
 12  9  1  0  0  0  0
 12 13  1  0  0  0  0
 14 20  1  0  0  0  0
 15 19  1  0  0  0  0
 17 21  1  0  0  0  0
 17 19  1  0  0  0  0
 18 20  1  0  0  0  0
 18 17  1  0  0  0  0
 19 16  2  0  0  0  0
 20 15  2  0  0  0  0
 23 24  2  0  0  0  0
 24 22  1  0  0  0  0
 25 24  1  0  0  0  0
M  END
>  <MODEL>
5

>  <REMARK>
 VINA RESULT:      -6.2      2.421      5.261
  Name = 
  5 active torsions:
  status: ('A' for Active; 'I' for Inactive)
    1  A    between atoms: C_3  and  N_21
    2  A    between atoms: C_4  and  C_7
    3  A    between atoms: C_9  and  O_24
    4  A    between atoms: C_17  and  N_21
    5  A    between atoms: C_22  and  O_24
                            x       y       z     vdW  Elec       q    Type
                         _______ _______ _______ _____ _____    ______ ____

>  <TORSDO>
F 5

$$$$
=
 OpenBabel11072409393D

 25 27  0  0  1  0  0  0  0  0999 V2000
  192.2490  174.4870  144.8750 C   0  0  0  0  0  0  0  0  0  0  0  0
  191.6750  175.1490  146.1110 C   0  0  1  0  0  3  0  0  0  0  0  0
  193.6150  176.7480  146.0020 C   0  0  0  0  0  2  0  0  0  0  0  0
  193.4580  174.8280  144.4060 C   0  0  0  0  0  3  0  0  0  0  0  0
  194.3860  175.7710  145.1230 C   0  0  1  0  0  3  0  0  0  0  0  0
  192.6950  175.9580  146.9230 C   0  0  0  0  0  2  0  0  0  0  0  0
  189.3890  177.7720  144.5660 C   0  0  0  0  0  3  0  0  0  0  0  0
  190.4510  175.9650  145.7870 C   0  0  0  0  0  0  0  0  0  0  0  0
  188.1220  176.4380  146.0870 N   0  0  0  0  0  0  0  0  0  0  0  0
  190.5240  177.0200  144.8660 C   0  0  0  0  0  3  0  0  0  0  0  0
  188.1830  177.4630  145.1940 C   0  0  0  0  0  3  0  0  0  0  0  0
  189.2140  175.6880  146.3970 C   0  0  0  0  0  0  0  0  0  0  0  0
  189.0680  174.5780  147.3830 C   0  0  0  0  0  1  0  0  0  0  0  0
  191.4210  173.5450  144.1750 N   0  0  0  0  0  2  0  0  0  0  0  0
  189.7360  174.2500  142.5980 C   0  0  0  0  0  3  0  0  0  0  0  0
  188.5860  174.6720  140.5320 O   0  0  0  0  0  0  0  0  0  0  0  0
  190.6150  173.4710  140.5530 N   0  0  0  0  0  0  0  0  0  0  0  0
  191.5740  173.1510  141.5940 C   0  0  0  0  0  2  0  0  0  0  0  0
  189.5500  174.1680  141.1660 C   0  0  0  0  0  0  0  0  0  0  0  0
  190.8990  173.6570  142.8440 C   0  0  0  0  0  0  0  0  0  0  0  0
  190.9470  173.6060  139.2490 O   0  0  0  0  0  1  0  0  0  0  0  0
  195.1780  176.4900  144.1880 O   0  0  0  0  0  0  0  0  0  0  0  0
  197.0230  174.9300  144.3590 O   0  0  0  0  0  1  0  0  0  0  0  0
  196.4120  176.0160  143.7420 C   0  0  0  0  0  0  0  0  0  0  0  0
  196.9800  176.5790  142.7720 O   0  0  0  0  0  0  0  0  0  0  0  0
  1  2  1  0  0  0  0
  2  8  1  6  0  0  0
  2  6  1  0  0  0  0
  3  6  1  0  0  0  0
  4  1  2  0  0  0  0
  4  5  1  0  0  0  0
  5 22  1  6  0  0  0
  5  3  1  0  0  0  0
  7 10  2  0  0  0  0
  7 11  1  0  0  0  0
  8 12  2  0  0  0  0
  9 12  1  0  0  0  0
 10  8  1  0  0  0  0
 11  9  2  0  0  0  0
 12 13  1  0  0  0  0
 14  1  1  0  0  0  0
 15 20  2  0  0  0  0
 16 19  2  0  0  0  0
 17 19  1  0  0  0  0
 17 18  1  0  0  0  0
 18 20  1  0  0  0  0
 19 15  1  0  0  0  0
 20 14  1  0  0  0  0
 21 17  1  0  0  0  0
 24 22  1  0  0  0  0
 24 23  1  0  0  0  0
 25 24  2  0  0  0  0
M  END
>  <MODEL>
6

>  <REMARK>
 VINA RESULT:      -6.1      2.832      6.427
  Name = 
  5 active torsions:
  status: ('A' for Active; 'I' for Inactive)
    1  A    between atoms: C_3  and  N_21
    2  A    between atoms: C_4  and  C_7
    3  A    between atoms: C_9  and  O_24
    4  A    between atoms: C_17  and  N_21
    5  A    between atoms: C_22  and  O_24
                            x       y       z     vdW  Elec       q    Type
                         _______ _______ _______ _____ _____    ______ ____

>  <TORSDO>
F 5

$$$$
=
 OpenBabel11072409393D

 25 27  0  0  1  0  0  0  0  0999 V2000
  187.5010  175.7150  142.7560 C   0  0  0  0  0  0  0  0  0  0  0  0
  188.7410  176.5110  143.1040 C   0  0  1  0  0  3  0  0  0  0  0  0
  187.1970  178.2730  144.0260 C   0  0  0  0  0  2  0  0  0  0  0  0
  186.2780  176.2510  142.8750 C   0  0  0  0  0  3  0  0  0  0  0  0
  186.0410  177.6970  143.2210 C   0  0  1  0  0  3  0  0  0  0  0  0
  188.4960  178.0170  143.2710 C   0  0  0  0  0  2  0  0  0  0  0  0
  189.4620  175.2380  146.6180 C   0  0  0  0  0  3  0  0  0  0  0  0
  189.4590  175.9320  144.2940 C   0  0  0  0  0  0  0  0  0  0  0  0
  191.4330  175.0090  145.2910 N   0  0  0  0  0  0  0  0  0  0  0  0
  188.7950  175.7770  145.5190 C   0  0  0  0  0  3  0  0  0  0  0  0
  190.7960  174.8550  146.4830 C   0  0  0  0  0  3  0  0  0  0  0  0
  190.8060  175.5320  144.2030 C   0  0  0  0  0  0  0  0  0  0  0  0
  191.5690  175.6660  142.9290 C   0  0  0  0  0  1  0  0  0  0  0  0
  187.6740  174.3400  142.3770 N   0  0  0  0  0  2  0  0  0  0  0  0
  188.5650  174.3180  140.1340 C   0  0  0  0  0  3  0  0  0  0  0  0
  189.8990  173.7480  138.2210 O   0  0  0  0  0  0  0  0  0  0  0  0
  190.0850  172.5180  140.2240 N   0  0  0  0  0  0  0  0  0  0  0  0
  189.5100  172.6720  141.5460 C   0  0  0  0  0  2  0  0  0  0  0  0
  189.5440  173.5390  139.4110 C   0  0  0  0  0  0  0  0  0  0  0  0
  188.5400  173.8140  141.3640 C   0  0  0  0  0  0  0  0  0  0  0  0
  191.2840  171.9330  139.9950 O   0  0  0  0  0  1  0  0  0  0  0  0
  184.8310  177.8370  143.9520 O   0  0  0  0  0  0  0  0  0  0  0  0
  185.1410  176.8280  146.1320 O   0  0  0  0  0  1  0  0  0  0  0  0
  184.8110  177.9260  145.3450 C   0  0  0  0  0  0  0  0  0  0  0  0
  184.4900  179.0090  145.8940 O   0  0  0  0  0  0  0  0  0  0  0  0
  1  4  2  0  0  0  0
  1  2  1  0  0  0  0
  2  6  1  0  0  0  0
  2  8  1  1  0  0  0
  4  5  1  0  0  0  0
  5 22  1  1  0  0  0
  5  3  1  0  0  0  0
  6  3  1  0  0  0  0
  8 10  1  0  0  0  0
  9 11  2  0  0  0  0
 10  7  2  0  0  0  0
 11  7  1  0  0  0  0
 12  8  2  0  0  0  0
 12  9  1  0  0  0  0
 13 12  1  0  0  0  0
 14  1  1  0  0  0  0
 15 20  2  0  0  0  0
 16 19  2  0  0  0  0
 17 18  1  0  0  0  0
 19 15  1  0  0  0  0
 19 17  1  0  0  0  0
 20 18  1  0  0  0  0
 20 14  1  0  0  0  0
 21 17  1  0  0  0  0
 22 24  1  0  0  0  0
 24 25  2  0  0  0  0
 24 23  1  0  0  0  0
M  END
>  <MODEL>
7

>  <REMARK>
 VINA RESULT:      -6.1      3.064      6.144
  Name = 
  5 active torsions:
  status: ('A' for Active; 'I' for Inactive)
    1  A    between atoms: C_3  and  N_21
    2  A    between atoms: C_4  and  C_7
    3  A    between atoms: C_9  and  O_24
    4  A    between atoms: C_17  and  N_21
    5  A    between atoms: C_22  and  O_24
                            x       y       z     vdW  Elec       q    Type
                         _______ _______ _______ _____ _____    ______ ____

>  <TORSDO>
F 5

$$$$
=
 OpenBabel11072409393D

 25 27  0  0  1  0  0  0  0  0999 V2000
  188.4850  175.4480  142.9880 C   0  0  0  0  0  0  0  0  0  0  0  0
  189.3840  176.4620  143.6640 C   0  0  1  0  0  3  0  0  0  0  0  0
  187.3340  177.8930  143.9600 C   0  0  0  0  0  2  0  0  0  0  0  0
  187.2120  175.7420  142.6890 C   0  0  0  0  0  3  0  0  0  0  0  0
  186.6180  177.1140  142.8650 C   0  0  1  0  0  3  0  0  0  0  0  0
  188.8290  177.8930  143.6650 C   0  0  0  0  0  2  0  0  0  0  0  0
  189.1980  175.0600  147.1980 C   0  0  0  0  0  3  0  0  0  0  0  0
  189.7800  176.0210  145.0480 C   0  0  0  0  0  0  0  0  0  0  0  0
  191.4420  175.7380  146.7500 N   0  0  0  0  0  0  0  0  0  0  0  0
  188.8280  175.4710  145.9180 C   0  0  0  0  0  3  0  0  0  0  0  0
  190.5250  175.2040  147.6010 C   0  0  0  0  0  3  0  0  0  0  0  0
  191.1080  176.1470  145.4960 C   0  0  0  0  0  0  0  0  0  0  0  0
  192.1700  176.7200  144.6190 C   0  0  0  0  0  1  0  0  0  0  0  0
  189.0160  174.1340  142.7560 N   0  0  0  0  0  2  0  0  0  0  0  0
  190.7140  173.5990  141.1260 C   0  0  0  0  0  3  0  0  0  0  0  0
  191.7940  172.7200  139.1700 O   0  0  0  0  0  0  0  0  0  0  0  0
  189.4560  172.5500  139.4290 N   0  0  0  0  0  0  0  0  0  0  0  0
  188.5460  172.8800  140.5090 C   0  0  0  0  0  2  0  0  0  0  0  0
  190.7500  172.9430  139.8380 C   0  0  0  0  0  0  0  0  0  0  0  0
  189.4420  173.5680  141.5090 C   0  0  0  0  0  0  0  0  0  0  0  0
  189.2200  171.5690  138.5280 O   0  0  0  0  0  1  0  0  0  0  0  0
  185.2340  177.0170  143.1730 O   0  0  0  0  0  0  0  0  0  0  0  0
  183.8690  178.9180  143.7960 O   0  0  0  0  0  1  0  0  0  0  0  0
  184.3270  178.0220  142.8360 C   0  0  0  0  0  0  0  0  0  0  0  0
  183.9160  178.1170  141.6520 O   0  0  0  0  0  0  0  0  0  0  0  0
  1  2  1  0  0  0  0
  2  6  1  0  0  0  0
  2  8  1  1  0  0  0
  4  5  1  0  0  0  0
  4  1  2  0  0  0  0
  5 22  1  1  0  0  0
  5  3  1  0  0  0  0
  6  3  1  0  0  0  0
  7 11  1  0  0  0  0
  8 12  2  0  0  0  0
  8 10  1  0  0  0  0
  9 11  2  0  0  0  0
 10  7  2  0  0  0  0
 12  9  1  0  0  0  0
 13 12  1  0  0  0  0
 14  1  1  0  0  0  0
 15 20  2  0  0  0  0
 16 19  2  0  0  0  0
 17 19  1  0  0  0  0
 17 18  1  0  0  0  0
 18 20  1  0  0  0  0
 19 15  1  0  0  0  0
 20 14  1  0  0  0  0
 21 17  1  0  0  0  0
 24 22  1  0  0  0  0
 24 23  1  0  0  0  0
 25 24  2  0  0  0  0
M  END
>  <MODEL>
8

>  <REMARK>
 VINA RESULT:      -6.0      3.378      6.010
  Name = 
  5 active torsions:
  status: ('A' for Active; 'I' for Inactive)
    1  A    between atoms: C_3  and  N_21
    2  A    between atoms: C_4  and  C_7
    3  A    between atoms: C_9  and  O_24
    4  A    between atoms: C_17  and  N_21
    5  A    between atoms: C_22  and  O_24
                            x       y       z     vdW  Elec       q    Type
                         _______ _______ _______ _____ _____    ______ ____

>  <TORSDO>
F 5

$$$$
=
 OpenBabel11072409393D

 25 27  0  0  1  0  0  0  0  0999 V2000
  190.3610  176.7210  145.2800 C   0  0  0  0  0  0  0  0  0  0  0  0
  190.1880  175.2190  145.3710 C   0  0  1  0  0  3  0  0  0  0  0  0
  188.1910  175.6640  146.8370 C   0  0  0  0  0  2  0  0  0  0  0  0
  189.6310  177.5480  146.0410 C   0  0  0  0  0  3  0  0  0  0  0  0
  188.7000  177.0700  147.1230 C   0  0  1  0  0  3  0  0  0  0  0  0
  189.3850  174.7500  146.5920 C   0  0  0  0  0  2  0  0  0  0  0  0
  188.0690  174.7360  142.2460 C   0  0  0  0  0  3  0  0  0  0  0  0
  189.6390  174.6430  144.0930 C   0  0  0  0  0  0  0  0  0  0  0  0
  189.6710  172.9710  142.3770 N   0  0  0  0  0  0  0  0  0  0  0  0
  188.5730  175.2690  143.4310 C   0  0  0  0  0  3  0  0  0  0  0  0
  188.6370  173.5720  141.7290 C   0  0  0  0  0  3  0  0  0  0  0  0
  190.1820  173.4710  143.5340 C   0  0  0  0  0  0  0  0  0  0  0  0
  191.3190  172.7580  144.1860 C   0  0  0  0  0  1  0  0  0  0  0  0
  191.2700  177.2300  144.2920 N   0  0  0  0  0  2  0  0  0  0  0  0
  192.8210  176.2030  142.7540 C   0  0  0  0  0  3  0  0  0  0  0  0
  194.8470  175.3220  141.8140 O   0  0  0  0  0  0  0  0  0  0  0  0
  194.7850  176.0620  144.0530 N   0  0  0  0  0  0  0  0  0  0  0  0
  193.7730  176.7190  144.8580 C   0  0  0  0  0  2  0  0  0  0  0  0
  194.2110  175.8060  142.7870 C   0  0  0  0  0  0  0  0  0  0  0  0
  192.5670  176.7230  143.9510 C   0  0  0  0  0  0  0  0  0  0  0  0
  196.1140  176.2100  144.2580 O   0  0  0  0  0  1  0  0  0  0  0  0
  187.6000  177.9600  147.2570 O   0  0  0  0  0  0  0  0  0  0  0  0
  186.5490  178.2770  145.0980 O   0  0  0  0  0  0  0  0  0  0  0  0
  186.4790  177.8830  146.4300 C   0  0  0  0  0  0  0  0  0  0  0  0
  185.3920  177.4580  146.8950 O   0  0  0  0  0  1  0  0  0  0  0  0
  1  2  1  0  0  0  0
  1  4  2  0  0  0  0
  2  8  1  6  0  0  0
  2  6  1  0  0  0  0
  3  5  1  0  0  0  0
  4  5  1  0  0  0  0
  5 22  1  6  0  0  0
  6  3  1  0  0  0  0
  7 10  1  0  0  0  0
  9 12  2  0  0  0  0
 10  8  2  0  0  0  0
 11  7  2  0  0  0  0
 11  9  1  0  0  0  0
 12  8  1  0  0  0  0
 12 13  1  0  0  0  0
 14  1  1  0  0  0  0
 15 19  1  0  0  0  0
 15 20  2  0  0  0  0
 16 19  2  0  0  0  0
 17 21  1  0  0  0  0
 17 18  1  0  0  0  0
 19 17  1  0  0  0  0
 20 14  1  0  0  0  0
 20 18  1  0  0  0  0
 23 24  2  0  0  0  0
 24 25  1  0  0  0  0
 24 22  1  0  0  0  0
M  END
>  <MODEL>
9

>  <REMARK>
 VINA RESULT:      -6.0      3.283      5.735
  Name = 
  5 active torsions:
  status: ('A' for Active; 'I' for Inactive)
    1  A    between atoms: C_3  and  N_21
    2  A    between atoms: C_4  and  C_7
    3  A    between atoms: C_9  and  O_24
    4  A    between atoms: C_17  and  N_21
    5  A    between atoms: C_22  and  O_24
                            x       y       z     vdW  Elec       q    Type
                         _______ _______ _______ _____ _____    ______ ____

>  <TORSDO>
F 5

$$$$
