=
 OpenBabel11062418563D

 33 38  0  0  1  0  0  0  0  0999 V2000
  190.0000  175.1780  145.2140 C   0  0  1  0  0  3  0  0  0  0  0  0
  193.9130  177.0730  145.5440 C   0  0  0  0  0  2  0  0  0  0  0  0
  196.5150  173.2930  145.9010 C   0  0  0  0  0  1  0  0  0  0  0  0
  195.4730  173.9430  145.0050 C   0  0  2  0  0  0  0  0  0  0  0  0
  195.5640  175.4510  145.1050 C   0  0  0  0  0  2  0  0  0  0  0  0
  191.2450  174.6660  145.7360 N   0  0  0  0  0  0  0  0  0  0  0  0
  192.4980  176.6950  145.1290 C   0  0  2  0  0  3  0  0  0  0  0  0
  194.0960  173.6000  145.5060 C   0  0  0  0  0  2  0  0  0  0  0  0
  192.3520  175.3260  145.6710 C   0  0  0  0  0  0  0  0  0  0  0  0
  193.6110  174.8260  146.2610 C   0  0  2  0  0  3  0  0  0  0  0  0
  194.5990  175.8990  146.1030 N   0  0  2  0  0  0  0  0  0  0  0  0
  191.4680  177.7700  143.1290 C   0  0  0  0  0  1  0  0  0  0  0  0
  192.3930  176.6680  143.6110 C   0  0  0  0  0  2  0  0  0  0  0  0
  195.6280  173.4750  143.5630 C   0  0  0  0  0  2  0  0  0  0  0  0
  194.4520  173.6890  142.8380 O   0  0  0  0  0  1  0  0  0  0  0  0
  187.9840  174.2660  142.1570 C   0  0  0  0  0  2  0  0  0  0  0  0
  191.1880  172.5380  143.6810 C   0  0  2  0  0  3  0  0  0  0  0  0
  188.5200  175.6770  142.3590 C   0  0  0  0  0  2  0  0  0  0  0  0
  191.7370  171.2190  143.9360 N   0  0  0  0  0  1  0  0  0  0  0  0
  190.5090  174.0510  141.9700 C   0  0  0  0  0  2  0  0  0  0  0  0
  189.9350  172.7410  144.5380 C   0  0  0  0  0  2  0  0  0  0  0  0
  189.3250  174.1310  144.3170 C   0  0  2  0  0  3  0  0  0  0  0  0
  190.8500  172.6590  142.2610 N   0  0  0  0  0  2  0  0  0  0  0  0
  189.3220  174.4840  142.8240 C   0  0  0  0  0  0  0  0  0  0  0  0
  189.1130  175.6710  146.3530 C   0  0  0  0  0  2  0  0  0  0  0  0
  189.0560  177.1920  146.3760 C   0  0  0  0  0  2  0  0  0  0  0  0
  185.9590  179.3130  143.4520 O   0  0  0  0  0  1  0  0  0  0  0  0
  186.0310  178.8030  144.7470 C   0  0  2  0  0  3  0  0  0  0  0  0
  187.6190  177.6880  146.2990 C   0  0  1  0  0  3  0  0  0  0  0  0
  187.2170  177.8610  144.8460 C   0  0  1  0  0  3  0  0  0  0  0  0
  185.8090  177.3020  144.7070 C   0  0  1  0  0  3  0  0  0  0  0  0
  185.3940  176.8010  146.0790 C   0  0  0  0  0  2  0  0  0  0  0  0
  186.6630  176.6720  146.8900 C   0  0  0  0  0  2  0  0  0  0  0  0
  1  6  1  0  0  0  0
  1 25  1  1  0  0  0
  2 11  1  0  0  0  0
  4  5  1  0  0  0  0
  4  8  1  0  0  0  0
  4  3  1  1  0  0  0
  7 13  1  6  0  0  0
  7  2  1  0  0  0  0
  7  9  1  0  0  0  0
  9  6  2  0  0  0  0
  9 10  1  0  0  0  0
 10  8  1  6  0  0  0
 11  5  1  6  0  0  0
 11 10  1  0  0  0  0
 12 13  1  0  0  0  0
 14  4  1  0  0  0  0
 15 14  1  0  0  0  0
 16 18  1  0  0  0  0
 16 24  1  0  0  0  0
 17 19  1  6  0  0  0
 17 21  1  0  0  0  0
 18 24  1  0  0  0  0
 20 23  1  0  0  0  0
 20 24  1  0  0  0  0
 22 21  1  0  0  0  0
 22  1  1  1  0  0  0
 23 17  1  0  0  0  0
 24 22  1  0  0  0  0
 25 26  1  0  0  0  0
 28 27  1  6  0  0  0
 28 30  1  0  0  0  0
 29 26  1  6  0  0  0
 29 33  1  0  0  0  0
 30 29  1  0  0  0  0
 31 28  1  0  0  0  0
 31 30  1  0  0  0  0
 31 32  1  0  0  0  0
 32 33  1  0  0  0  0
M  END
>  <MODEL>
1

>  <REMARK>
 VINA RESULT:      -7.6      0.000      0.000
  Name = 
  7 active torsions:
  status: ('A' for Active; 'I' for Inactive)
    1  A    between atoms: C_9  and  C_25
    2  A    between atoms: C_12  and  C_20
    3  A    between atoms: C_14  and  N_17
    4  A    between atoms: C_14  and  C_21
    5  A    between atoms: C_14  and  C_23
    6  A    between atoms: C_19  and  C_30
    7  A    between atoms: C_21  and  C_25
                            x       y       z     vdW  Elec       q    Type
                         _______ _______ _______ _____ _____    ______ ____

>  <TORSDO>
F 7

$$$$
=
 OpenBabel11062418563D

 33 38  0  0  1  0  0  0  0  0999 V2000
  189.4030  176.2360  145.1770 C   0  0  1  0  0  3  0  0  0  0  0  0
  193.7040  176.7410  145.6840 C   0  0  0  0  0  2  0  0  0  0  0  0
  194.9710  172.3200  145.5280 C   0  0  0  0  0  1  0  0  0  0  0  0
  194.2110  173.3700  144.7360 C   0  0  2  0  0  0  0  0  0  0  0  0
  194.7690  174.7480  145.0220 C   0  0  0  0  0  2  0  0  0  0  0  0
  190.4090  175.2960  145.6120 N   0  0  0  0  0  0  0  0  0  0  0  0
  192.2530  176.8840  145.2450 C   0  0  2  0  0  3  0  0  0  0  0  0
  192.7830  173.4220  145.2100 C   0  0  0  0  0  2  0  0  0  0  0  0
  191.6680  175.5760  145.6150 C   0  0  0  0  0  0  0  0  0  0  0  0
  192.6900  174.6350  146.1190 C   0  0  2  0  0  3  0  0  0  0  0  0
  193.9700  175.3520  146.0820 N   0  0  2  0  0  0  0  0  0  0  0  0
  191.3950  178.3320  143.4050 C   0  0  0  0  0  1  0  0  0  0  0  0
  192.1840  177.0790  143.7370 C   0  0  0  0  0  2  0  0  0  0  0  0
  194.2470  173.0590  143.2440 C   0  0  0  0  0  2  0  0  0  0  0  0
  193.6550  174.0850  142.5030 O   0  0  0  0  0  1  0  0  0  0  0  0
  186.4240  176.3810  142.8640 C   0  0  0  0  0  2  0  0  0  0  0  0
  189.8520  174.4680  142.4550 C   0  0  2  0  0  3  0  0  0  0  0  0
  187.0760  177.6510  143.3960 C   0  0  0  0  0  2  0  0  0  0  0  0
  190.3800  173.1980  141.9920 N   0  0  0  0  0  1  0  0  0  0  0  0
  188.7210  176.4530  141.7800 C   0  0  0  0  0  2  0  0  0  0  0  0
  188.9760  174.2340  143.6900 C   0  0  0  0  0  2  0  0  0  0  0  0
  188.4060  175.5520  144.2300 C   0  0  2  0  0  3  0  0  0  0  0  0
  189.0610  175.0860  141.3890 N   0  0  0  0  0  2  0  0  0  0  0  0
  187.9190  176.4380  143.0760 C   0  0  0  0  0  0  0  0  0  0  0  0
  188.7430  176.9010  146.3820 C   0  0  0  0  0  2  0  0  0  0  0  0
  187.6110  176.0400  146.9220 C   0  0  0  0  0  2  0  0  0  0  0  0
  186.3460  180.4530  148.1700 O   0  0  0  0  0  1  0  0  0  0  0  0
  185.7770  179.2020  147.9370 C   0  0  2  0  0  3  0  0  0  0  0  0
  186.4000  176.8880  147.2810 C   0  0  1  0  0  3  0  0  0  0  0  0
  186.7440  178.3590  147.1280 C   0  0  1  0  0  3  0  0  0  0  0  0
  185.5580  179.0230  146.4460 C   0  0  1  0  0  3  0  0  0  0  0  0
  184.5250  177.9380  146.2000 C   0  0  0  0  0  2  0  0  0  0  0  0
  185.2480  176.6180  146.3330 C   0  0  0  0  0  2  0  0  0  0  0  0
  1  6  1  0  0  0  0
  1 25  1  1  0  0  0
  2 11  1  0  0  0  0
  4  5  1  0  0  0  0
  4  8  1  0  0  0  0
  4  3  1  1  0  0  0
  6  9  2  0  0  0  0
  7 13  1  6  0  0  0
  7  9  1  0  0  0  0
  7  2  1  0  0  0  0
  9 10  1  0  0  0  0
 10  8  1  6  0  0  0
 11  5  1  6  0  0  0
 11 10  1  0  0  0  0
 12 13  1  0  0  0  0
 14  4  1  0  0  0  0
 15 14  1  0  0  0  0
 16 24  1  0  0  0  0
 16 18  1  0  0  0  0
 17 19  1  6  0  0  0
 17 21  1  0  0  0  0
 20 24  1  0  0  0  0
 21 22  1  0  0  0  0
 22  1  1  6  0  0  0
 23 20  1  0  0  0  0
 23 17  1  0  0  0  0
 24 18  1  0  0  0  0
 24 22  1  0  0  0  0
 25 26  1  0  0  0  0
 28 27  1  6  0  0  0
 29 26  1  6  0  0  0
 30 29  1  0  0  0  0
 30 28  1  0  0  0  0
 31 30  1  0  0  0  0
 31 28  1  0  0  0  0
 32 33  1  0  0  0  0
 32 31  1  0  0  0  0
 33 29  1  0  0  0  0
M  END
>  <MODEL>
2

>  <REMARK>
 VINA RESULT:      -7.6      1.548      2.047
  Name = 
  7 active torsions:
  status: ('A' for Active; 'I' for Inactive)
    1  A    between atoms: C_9  and  C_25
    2  A    between atoms: C_12  and  C_20
    3  A    between atoms: C_14  and  N_17
    4  A    between atoms: C_14  and  C_21
    5  A    between atoms: C_14  and  C_23
    6  A    between atoms: C_19  and  C_30
    7  A    between atoms: C_21  and  C_25
                            x       y       z     vdW  Elec       q    Type
                         _______ _______ _______ _____ _____    ______ ____

>  <TORSDO>
F 7

$$$$
=
 OpenBabel11062418563D

 33 38  0  0  1  0  0  0  0  0999 V2000
  188.4320  176.2840  143.5830 C   0  0  1  0  0  3  0  0  0  0  0  0
  190.5090  172.7460  142.1060 C   0  0  0  0  0  2  0  0  0  0  0  0
  194.7680  174.4720  141.8390 C   0  0  0  0  0  1  0  0  0  0  0  0
  193.6190  174.2780  142.8160 C   0  0  2  0  0  0  0  0  0  0  0  0
  192.8210  173.0460  142.4470 C   0  0  0  0  0  2  0  0  0  0  0  0
  189.6980  176.1610  142.8990 N   0  0  0  0  0  0  0  0  0  0  0  0
  189.6060  173.7020  142.8730 C   0  0  2  0  0  3  0  0  0  0  0  0
  192.6510  175.4240  142.6870 C   0  0  0  0  0  2  0  0  0  0  0  0
  190.2270  175.0200  142.6130 C   0  0  0  0  0  0  0  0  0  0  0  0
  191.4910  174.8970  141.8590 C   0  0  2  0  0  3  0  0  0  0  0  0
  191.6950  173.4640  141.6180 N   0  0  2  0  0  0  0  0  0  0  0  0
  190.0000  171.9210  144.5740 C   0  0  0  0  0  1  0  0  0  0  0  0
  189.6600  173.3850  144.3610 C   0  0  0  0  0  2  0  0  0  0  0  0
  194.1310  174.1950  144.2490 C   0  0  0  0  0  2  0  0  0  0  0  0
  194.0330  172.8910  144.7420 O   0  0  0  0  0  1  0  0  0  0  0  0
  187.0480  177.7280  146.7830 C   0  0  0  0  0  2  0  0  0  0  0  0
  190.6380  176.2860  146.0050 C   0  0  2  0  0  3  0  0  0  0  0  0
  186.3240  176.6120  146.0400 C   0  0  0  0  0  2  0  0  0  0  0  0
  192.0390  176.5560  146.2740 N   0  0  0  0  0  1  0  0  0  0  0  0
  188.5570  175.6950  147.0020 C   0  0  0  0  0  2  0  0  0  0  0  0
  190.0570  177.4200  145.1540 C   0  0  0  0  0  2  0  0  0  0  0  0
  188.5790  177.1720  144.8260 C   0  0  2  0  0  3  0  0  0  0  0  0
  189.9090  176.1840  147.2700 N   0  0  0  0  0  2  0  0  0  0  0  0
  187.8340  176.6570  146.0640 C   0  0  0  0  0  0  0  0  0  0  0  0
  187.3520  176.7610  142.6150 C   0  0  0  0  0  2  0  0  0  0  0  0
  187.4900  178.2520  142.3440 C   0  0  0  0  0  2  0  0  0  0  0  0
  182.8180  177.7390  141.6030 O   0  0  0  0  0  1  0  0  0  0  0  0
  183.7250  178.6670  142.1130 C   0  0  2  0  0  3  0  0  0  0  0  0
  186.1580  178.9670  142.5210 C   0  0  1  0  0  3  0  0  0  0  0  0
  185.0250  177.9590  142.4470 C   0  0  1  0  0  3  0  0  0  0  0  0
  184.0440  178.3130  143.5540 C   0  0  1  0  0  3  0  0  0  0  0  0
  184.6080  179.5260  144.2730 C   0  0  0  0  0  2  0  0  0  0  0  0
  186.0660  179.6130  143.8880 C   0  0  0  0  0  2  0  0  0  0  0  0
  1 25  1  6  0  0  0
  2  7  1  0  0  0  0
  4  3  1  6  0  0  0
  4 14  1  0  0  0  0
  5  4  1  0  0  0  0
  6  1  1  0  0  0  0
  7 13  1  1  0  0  0
  8  4  1  0  0  0  0
  9  7  1  0  0  0  0
  9  6  2  0  0  0  0
 10  9  1  0  0  0  0
 10  8  1  1  0  0  0
 11 10  1  0  0  0  0
 11  2  1  1  0  0  0
 11  5  1  0  0  0  0
 13 12  1  0  0  0  0
 14 15  1  0  0  0  0
 17 19  1  1  0  0  0
 17 23  1  0  0  0  0
 18 24  1  0  0  0  0
 18 16  1  0  0  0  0
 20 23  1  0  0  0  0
 21 17  1  0  0  0  0
 22  1  1  6  0  0  0
 22 21  1  0  0  0  0
 22 24  1  0  0  0  0
 24 16  1  0  0  0  0
 24 20  1  0  0  0  0
 26 25  1  0  0  0  0
 28 27  1  6  0  0  0
 28 30  1  0  0  0  0
 28 31  1  0  0  0  0
 29 26  1  1  0  0  0
 29 33  1  0  0  0  0
 30 29  1  0  0  0  0
 30 31  1  0  0  0  0
 31 32  1  0  0  0  0
 33 32  1  0  0  0  0
M  END
>  <MODEL>
3

>  <REMARK>
 VINA RESULT:      -7.1      1.949      4.406
  Name = 
  7 active torsions:
  status: ('A' for Active; 'I' for Inactive)
    1  A    between atoms: C_9  and  C_25
    2  A    between atoms: C_12  and  C_20
    3  A    between atoms: C_14  and  N_17
    4  A    between atoms: C_14  and  C_21
    5  A    between atoms: C_14  and  C_23
    6  A    between atoms: C_19  and  C_30
    7  A    between atoms: C_21  and  C_25
                            x       y       z     vdW  Elec       q    Type
                         _______ _______ _______ _____ _____    ______ ____

>  <TORSDO>
F 7

$$$$
=
 OpenBabel11062418563D

 33 38  0  0  1  0  0  0  0  0999 V2000
  189.1340  175.7050  143.6390 C   0  0  1  0  0  3  0  0  0  0  0  0
  191.0130  172.1780  141.8950 C   0  0  0  0  0  2  0  0  0  0  0  0
  194.8840  174.1200  140.3380 C   0  0  0  0  0  1  0  0  0  0  0  0
  194.0640  173.9470  141.6060 C   0  0  2  0  0  0  0  0  0  0  0  0
  193.2980  172.6420  141.5600 C   0  0  0  0  0  2  0  0  0  0  0  0
  190.1720  175.5960  142.6410 N   0  0  0  0  0  0  0  0  0  0  0  0
  190.2770  173.1430  142.8140 C   0  0  2  0  0  3  0  0  0  0  0  0
  193.0070  175.0180  141.6710 C   0  0  0  0  0  2  0  0  0  0  0  0
  190.6950  174.4670  142.3000 C   0  0  0  0  0  0  0  0  0  0  0  0
  191.7130  174.3520  141.2360 C   0  0  2  0  0  3  0  0  0  0  0  0
  191.9600  172.9180  141.0490 N   0  0  2  0  0  0  0  0  0  0  0  0
  189.6750  172.3160  145.0880 C   0  0  0  0  0  1  0  0  0  0  0  0
  190.7590  172.9650  144.2460 C   0  0  0  0  0  2  0  0  0  0  0  0
  194.9500  174.0230  142.8430 C   0  0  0  0  0  2  0  0  0  0  0  0
  194.2200  173.7460  144.0020 O   0  0  0  0  0  1  0  0  0  0  0  0
  188.6020  177.3870  146.9750 C   0  0  0  0  0  2  0  0  0  0  0  0
  191.9580  176.4650  145.1150 C   0  0  2  0  0  3  0  0  0  0  0  0
  187.9300  176.0610  146.6400 C   0  0  0  0  0  2  0  0  0  0  0  0
  193.2780  177.0070  144.8460 N   0  0  0  0  0  1  0  0  0  0  0  0
  190.4960  175.6980  146.8320 C   0  0  0  0  0  2  0  0  0  0  0  0
  190.9020  177.3340  144.4240 C   0  0  0  0  0  2  0  0  0  0  0  0
  189.4880  176.7920  144.6630 C   0  0  2  0  0  3  0  0  0  0  0  0
  191.7240  176.4440  146.5600 N   0  0  0  0  0  2  0  0  0  0  0  0
  189.3180  176.3630  146.1260 C   0  0  0  0  0  0  0  0  0  0  0  0
  187.7780  175.9140  142.9690 C   0  0  0  0  0  2  0  0  0  0  0  0
  187.3560  177.3730  143.0470 C   0  0  0  0  0  2  0  0  0  0  0  0
  185.3850  179.2430  146.9530 O   0  0  0  0  0  1  0  0  0  0  0  0
  185.0320  178.5050  145.8240 C   0  0  2  0  0  3  0  0  0  0  0  0
  186.0250  177.5220  143.7700 C   0  0  1  0  0  3  0  0  0  0  0  0
  186.1130  178.6590  144.7710 C   0  0  1  0  0  3  0  0  0  0  0  0
  184.8200  179.4510  144.6560 C   0  0  1  0  0  3  0  0  0  0  0  0
  183.9800  178.7750  143.5860 C   0  0  0  0  0  2  0  0  0  0  0  0
  184.9190  177.8890  142.8010 C   0  0  0  0  0  2  0  0  0  0  0  0
  1 25  1  6  0  0  0
  2  7  1  0  0  0  0
  4  3  1  6  0  0  0
  4  8  1  0  0  0  0
  4 14  1  0  0  0  0
  5  4  1  0  0  0  0
  6  1  1  0  0  0  0
  7 13  1  1  0  0  0
  9  6  2  0  0  0  0
  9  7  1  0  0  0  0
 10  8  1  1  0  0  0
 10  9  1  0  0  0  0
 11 10  1  0  0  0  0
 11  5  1  1  0  0  0
 11  2  1  0  0  0  0
 13 12  1  0  0  0  0
 14 15  1  0  0  0  0
 17 19  1  1  0  0  0
 17 23  1  0  0  0  0
 18 16  1  0  0  0  0
 21 22  1  0  0  0  0
 21 17  1  0  0  0  0
 22  1  1  6  0  0  0
 22 24  1  0  0  0  0
 23 20  1  0  0  0  0
 24 18  1  0  0  0  0
 24 20  1  0  0  0  0
 24 16  1  0  0  0  0
 25 26  1  0  0  0  0
 28 27  1  1  0  0  0
 29 26  1  6  0  0  0
 29 30  1  0  0  0  0
 30 28  1  0  0  0  0
 31 30  1  0  0  0  0
 31 28  1  0  0  0  0
 32 31  1  0  0  0  0
 33 32  1  0  0  0  0
 33 29  1  0  0  0  0
M  END
>  <MODEL>
4

>  <REMARK>
 VINA RESULT:      -7.1      1.852      4.331
  Name = 
  7 active torsions:
  status: ('A' for Active; 'I' for Inactive)
    1  A    between atoms: C_9  and  C_25
    2  A    between atoms: C_12  and  C_20
    3  A    between atoms: C_14  and  N_17
    4  A    between atoms: C_14  and  C_21
    5  A    between atoms: C_14  and  C_23
    6  A    between atoms: C_19  and  C_30
    7  A    between atoms: C_21  and  C_25
                            x       y       z     vdW  Elec       q    Type
                         _______ _______ _______ _____ _____    ______ ____

>  <TORSDO>
F 7

$$$$
=
 OpenBabel11062418563D

 33 38  0  0  1  0  0  0  0  0999 V2000
  189.7670  175.1250  144.6890 C   0  0  1  0  0  3  0  0  0  0  0  0
  188.4270  177.7610  141.4850 C   0  0  0  0  0  2  0  0  0  0  0  0
  183.9790  178.0760  142.6250 C   0  0  0  0  0  1  0  0  0  0  0  0
  185.3730  178.2850  143.1940 C   0  0  2  0  0  0  0  0  0  0  0  0
  186.3380  178.6650  142.0910 C   0  0  0  0  0  2  0  0  0  0  0  0
  188.4430  175.3570  144.1620 N   0  0  0  0  0  0  0  0  0  0  0  0
  189.2110  177.1110  142.6160 C   0  0  2  0  0  3  0  0  0  0  0  0
  185.8950  176.9810  143.7370 C   0  0  0  0  0  2  0  0  0  0  0  0
  188.1960  176.2530  143.2680 C   0  0  0  0  0  0  0  0  0  0  0  0
  186.8520  176.4460  142.6860 C   0  0  2  0  0  3  0  0  0  0  0  0
  186.9970  177.4500  141.6250 N   0  0  2  0  0  0  0  0  0  0  0  0
  191.2080  178.2920  143.5300 C   0  0  0  0  0  1  0  0  0  0  0  0
  189.6960  178.1750  143.5900 C   0  0  0  0  0  2  0  0  0  0  0  0
  185.3590  179.3330  144.3000 C   0  0  0  0  0  2  0  0  0  0  0  0
  184.3850  179.0390  145.2570 O   0  0  0  0  0  1  0  0  0  0  0  0
  191.5650  175.2910  148.0040 C   0  0  0  0  0  2  0  0  0  0  0  0
  188.3270  177.1910  146.7850 C   0  0  2  0  0  3  0  0  0  0  0  0
  192.3070  175.4960  146.6890 C   0  0  0  0  0  2  0  0  0  0  0  0
  187.0220  177.6060  147.2650 N   0  0  0  0  0  1  0  0  0  0  0  0
  190.6740  177.4810  147.0720 C   0  0  0  0  0  2  0  0  0  0  0  0
  188.3900  175.6610  146.7420 C   0  0  0  0  0  2  0  0  0  0  0  0
  189.7470  175.1710  146.2230 C   0  0  2  0  0  3  0  0  0  0  0  0
  189.3640  177.7110  147.6780 N   0  0  0  0  0  2  0  0  0  0  0  0
  190.8870  175.9880  146.8470 C   0  0  0  0  0  0  0  0  0  0  0  0
  190.3420  173.8290  144.1230 C   0  0  0  0  0  2  0  0  0  0  0  0
  189.2680  172.7550  144.0350 C   0  0  0  0  0  2  0  0  0  0  0  0
  188.5680  173.8450  139.4570 O   0  0  0  0  0  1  0  0  0  0  0  0
  188.8450  172.7430  140.2640 C   0  0  2  0  0  3  0  0  0  0  0  0
  189.2230  172.1380  142.6440 C   0  0  1  0  0  3  0  0  0  0  0  0
  189.3820  173.2260  141.5980 C   0  0  1  0  0  3  0  0  0  0  0  0
  190.3360  172.6900  140.5430 C   0  0  1  0  0  3  0  0  0  0  0  0
  190.7340  171.2900  140.9760 C   0  0  0  0  0  2  0  0  0  0  0  0
  190.3760  171.1760  142.4400 C   0  0  0  0  0  2  0  0  0  0  0  0
  1 25  1  1  0  0  0
  2  7  1  0  0  0  0
  4  3  1  6  0  0  0
  4  8  1  0  0  0  0
  4 14  1  0  0  0  0
  5  4  1  0  0  0  0
  6  1  1  0  0  0  0
  7  9  1  0  0  0  0
  7 13  1  1  0  0  0
  9  6  2  0  0  0  0
 10  9  1  0  0  0  0
 10  8  1  1  0  0  0
 11  2  1  1  0  0  0
 11  5  1  0  0  0  0
 11 10  1  0  0  0  0
 12 13  1  0  0  0  0
 14 15  1  0  0  0  0
 17 19  1  1  0  0  0
 17 23  1  0  0  0  0
 18 24  1  0  0  0  0
 18 16  1  0  0  0  0
 20 23  1  0  0  0  0
 21 17  1  0  0  0  0
 22  1  1  6  0  0  0
 22 21  1  0  0  0  0
 22 24  1  0  0  0  0
 24 20  1  0  0  0  0
 24 16  1  0  0  0  0
 26 25  1  0  0  0  0
 28 27  1  6  0  0  0
 28 31  1  0  0  0  0
 28 30  1  0  0  0  0
 29 26  1  1  0  0  0
 30 29  1  0  0  0  0
 31 32  1  0  0  0  0
 31 30  1  0  0  0  0
 32 33  1  0  0  0  0
 33 29  1  0  0  0  0
M  END
>  <MODEL>
5

>  <REMARK>
 VINA RESULT:      -7.1      2.886      7.392
  Name = 
  7 active torsions:
  status: ('A' for Active; 'I' for Inactive)
    1  A    between atoms: C_9  and  C_25
    2  A    between atoms: C_12  and  C_20
    3  A    between atoms: C_14  and  N_17
    4  A    between atoms: C_14  and  C_21
    5  A    between atoms: C_14  and  C_23
    6  A    between atoms: C_19  and  C_30
    7  A    between atoms: C_21  and  C_25
                            x       y       z     vdW  Elec       q    Type
                         _______ _______ _______ _____ _____    ______ ____

>  <TORSDO>
F 7

$$$$
=
 OpenBabel11062418563D

 33 38  0  0  1  0  0  0  0  0999 V2000
  191.1030  176.3620  144.0000 C   0  0  1  0  0  3  0  0  0  0  0  0
  188.5000  173.2410  142.4200 C   0  0  0  0  0  2  0  0  0  0  0  0
  191.0260  171.9670  138.7900 C   0  0  0  0  0  1  0  0  0  0  0  0
  191.1090  172.1410  140.2970 C   0  0  2  0  0  0  0  0  0  0  0  0
  189.7510  171.9160  140.9260 C   0  0  0  0  0  2  0  0  0  0  0  0
  191.0350  175.7820  142.6790 N   0  0  0  0  0  0  0  0  0  0  0  0
  189.3170  174.1450  143.3330 C   0  0  2  0  0  3  0  0  0  0  0  0
  191.4580  173.5700  140.6200 C   0  0  0  0  0  2  0  0  0  0  0  0
  190.2670  174.7850  142.3950 C   0  0  0  0  0  0  0  0  0  0  0  0
  190.1540  174.2330  141.0300 C   0  0  2  0  0  3  0  0  0  0  0  0
  189.1000  173.2130  141.0780 N   0  0  2  0  0  0  0  0  0  0  0  0
  189.6910  173.7170  145.7600 C   0  0  0  0  0  1  0  0  0  0  0  0
  190.0760  173.3060  144.3510 C   0  0  0  0  0  2  0  0  0  0  0  0
  192.1550  171.2090  140.8970 C   0  0  0  0  0  2  0  0  0  0  0  0
  192.1730  171.3040  142.2900 O   0  0  0  0  0  1  0  0  0  0  0  0
  193.7130  176.7620  146.6960 C   0  0  0  0  0  2  0  0  0  0  0  0
  193.7650  174.5380  143.4360 C   0  0  2  0  0  3  0  0  0  0  0  0
  192.2690  176.4140  147.0370 C   0  0  0  0  0  2  0  0  0  0  0  0
  194.6640  174.1250  142.3740 N   0  0  0  0  0  1  0  0  0  0  0  0
  193.3600  174.4180  145.7810 C   0  0  0  0  0  2  0  0  0  0  0  0
  193.5250  176.0480  143.3410 C   0  0  0  0  0  2  0  0  0  0  0  0
  192.5650  176.5320  144.4340 C   0  0  2  0  0  3  0  0  0  0  0  0
  194.3580  174.2050  144.7330 N   0  0  0  0  0  2  0  0  0  0  0  0
  192.9070  175.8740  145.7780 C   0  0  0  0  0  0  0  0  0  0  0  0
  190.2950  177.6560  144.0500 C   0  0  0  0  0  2  0  0  0  0  0  0
  189.1520  177.5420  145.0480 C   0  0  0  0  0  2  0  0  0  0  0  0
  184.4710  178.1300  145.6620 O   0  0  0  0  0  1  0  0  0  0  0  0
  185.3770  177.7000  144.6950 C   0  0  2  0  0  3  0  0  0  0  0  0
  187.8160  177.3860  144.3360 C   0  0  1  0  0  3  0  0  0  0  0  0
  186.7610  178.2150  145.0460 C   0  0  1  0  0  3  0  0  0  0  0  0
  185.9410  178.9070  143.9670 C   0  0  1  0  0  3  0  0  0  0  0  0
  186.5220  178.4830  142.6300 C   0  0  0  0  0  2  0  0  0  0  0  0
  187.8930  177.9160  142.9180 C   0  0  0  0  0  2  0  0  0  0  0  0
  1 25  1  6  0  0  0
  2  7  1  0  0  0  0
  4  3  1  6  0  0  0
  4  8  1  0  0  0  0
  4 14  1  0  0  0  0
  4  5  1  0  0  0  0
  6  1  1  0  0  0  0
  7 13  1  1  0  0  0
  9  6  2  0  0  0  0
  9  7  1  0  0  0  0
 10  8  1  1  0  0  0
 10 11  1  0  0  0  0
 10  9  1  0  0  0  0
 11  5  1  1  0  0  0
 11  2  1  0  0  0  0
 13 12  1  0  0  0  0
 14 15  1  0  0  0  0
 16 18  1  0  0  0  0
 17 19  1  6  0  0  0
 17 23  1  0  0  0  0
 21 17  1  0  0  0  0
 21 22  1  0  0  0  0
 22  1  1  6  0  0  0
 22 24  1  0  0  0  0
 23 20  1  0  0  0  0
 24 20  1  0  0  0  0
 24 16  1  0  0  0  0
 24 18  1  0  0  0  0
 25 26  1  0  0  0  0
 28 30  1  0  0  0  0
 28 27  1  1  0  0  0
 29 30  1  0  0  0  0
 29 26  1  1  0  0  0
 31 28  1  0  0  0  0
 31 30  1  0  0  0  0
 32 33  1  0  0  0  0
 32 31  1  0  0  0  0
 33 29  1  0  0  0  0
M  END
>  <MODEL>
6

>  <REMARK>
 VINA RESULT:      -7.0      2.009      4.944
  Name = 
  7 active torsions:
  status: ('A' for Active; 'I' for Inactive)
    1  A    between atoms: C_9  and  C_25
    2  A    between atoms: C_12  and  C_20
    3  A    between atoms: C_14  and  N_17
    4  A    between atoms: C_14  and  C_21
    5  A    between atoms: C_14  and  C_23
    6  A    between atoms: C_19  and  C_30
    7  A    between atoms: C_21  and  C_25
                            x       y       z     vdW  Elec       q    Type
                         _______ _______ _______ _____ _____    ______ ____

>  <TORSDO>
F 7

$$$$
=
 OpenBabel11062418563D

 33 38  0  0  1  0  0  0  0  0999 V2000
  189.6760  177.0960  144.1200 C   0  0  1  0  0  3  0  0  0  0  0  0
  192.1460  174.5190  141.6160 C   0  0  0  0  0  2  0  0  0  0  0  0
  196.2620  175.4720  143.4420 C   0  0  0  0  0  1  0  0  0  0  0  0
  194.8720  174.9890  143.8230 C   0  0  2  0  0  0  0  0  0  0  0  0
  194.2390  174.2500  142.6630 C   0  0  0  0  0  2  0  0  0  0  0  0
  191.0920  177.1440  143.8400 N   0  0  0  0  0  0  0  0  0  0  0  0
  191.0410  175.0810  142.4990 C   0  0  2  0  0  3  0  0  0  0  0  0
  193.9770  176.1750  144.0660 C   0  0  0  0  0  2  0  0  0  0  0  0
  191.6960  176.2380  143.1480 C   0  0  0  0  0  0  0  0  0  0  0  0
  193.1320  176.3220  142.8120 C   0  0  2  0  0  3  0  0  0  0  0  0
  193.4170  175.1950  141.9160 N   0  0  2  0  0  0  0  0  0  0  0  0
  189.2450  173.5290  143.2620 C   0  0  0  0  0  1  0  0  0  0  0  0
  190.6410  174.0530  143.5470 C   0  0  0  0  0  2  0  0  0  0  0  0
  194.9220  174.1170  145.0720 C   0  0  0  0  0  2  0  0  0  0  0  0
  193.7270  173.4130  145.2400 O   0  0  0  0  0  1  0  0  0  0  0  0
  187.3550  177.0530  147.0960 C   0  0  0  0  0  2  0  0  0  0  0  0
  191.0250  175.6480  146.7310 C   0  0  2  0  0  3  0  0  0  0  0  0
  186.9080  176.5320  145.7350 C   0  0  0  0  0  2  0  0  0  0  0  0
  192.2710  175.5580  147.4710 N   0  0  0  0  0  1  0  0  0  0  0  0
  188.7440  174.9630  146.6950 C   0  0  0  0  0  2  0  0  0  0  0  0
  190.7230  177.1180  146.4230 C   0  0  0  0  0  2  0  0  0  0  0  0
  189.4230  177.2670  145.6250 C   0  0  2  0  0  3  0  0  0  0  0  0
  189.9410  175.0700  147.5280 N   0  0  0  0  0  2  0  0  0  0  0  0
  188.3370  176.3430  146.1920 C   0  0  0  0  0  0  0  0  0  0  0  0
  188.9320  178.1090  143.2550 C   0  0  0  0  0  2  0  0  0  0  0  0
  188.6660  177.5440  141.8670 C   0  0  0  0  0  2  0  0  0  0  0  0
  184.3860  178.1910  143.8410 O   0  0  0  0  0  1  0  0  0  0  0  0
  184.9760  177.5580  142.7480 C   0  0  2  0  0  3  0  0  0  0  0  0
  187.1940  177.2050  141.6860 C   0  0  1  0  0  3  0  0  0  0  0  0
  186.3460  178.1620  142.5040 C   0  0  1  0  0  3  0  0  0  0  0  0
  185.1680  178.5660  141.6310 C   0  0  1  0  0  3  0  0  0  0  0  0
  185.3330  177.8460  140.3040 C   0  0  0  0  0  2  0  0  0  0  0  0
  186.7700  177.3850  140.2420 C   0  0  0  0  0  2  0  0  0  0  0  0
  1 25  1  6  0  0  0
  2  7  1  0  0  0  0
  4  3  1  6  0  0  0
  4  8  1  0  0  0  0
  4 14  1  0  0  0  0
  5  4  1  0  0  0  0
  6  1  1  0  0  0  0
  7  9  1  0  0  0  0
  7 13  1  1  0  0  0
  9  6  2  0  0  0  0
 10  9  1  0  0  0  0
 10  8  1  1  0  0  0
 11  2  1  1  0  0  0
 11  5  1  0  0  0  0
 11 10  1  0  0  0  0
 12 13  1  0  0  0  0
 14 15  1  0  0  0  0
 17 19  1  1  0  0  0
 17 23  1  0  0  0  0
 18 24  1  0  0  0  0
 18 16  1  0  0  0  0
 20 23  1  0  0  0  0
 21 17  1  0  0  0  0
 22  1  1  6  0  0  0
 22 24  1  0  0  0  0
 22 21  1  0  0  0  0
 24 20  1  0  0  0  0
 24 16  1  0  0  0  0
 26 25  1  0  0  0  0
 28 27  1  1  0  0  0
 29 26  1  6  0  0  0
 29 30  1  0  0  0  0
 30 28  1  0  0  0  0
 31 30  1  0  0  0  0
 31 28  1  0  0  0  0
 32 31  1  0  0  0  0
 33 32  1  0  0  0  0
 33 29  1  0  0  0  0
M  END
>  <MODEL>
7

>  <REMARK>
 VINA RESULT:      -6.9      2.094      4.051
  Name = 
  7 active torsions:
  status: ('A' for Active; 'I' for Inactive)
    1  A    between atoms: C_9  and  C_25
    2  A    between atoms: C_12  and  C_20
    3  A    between atoms: C_14  and  N_17
    4  A    between atoms: C_14  and  C_21
    5  A    between atoms: C_14  and  C_23
    6  A    between atoms: C_19  and  C_30
    7  A    between atoms: C_21  and  C_25
                            x       y       z     vdW  Elec       q    Type
                         _______ _______ _______ _____ _____    ______ ____

>  <TORSDO>
F 7

$$$$
=
 OpenBabel11062418563D

 33 38  0  0  1  0  0  0  0  0999 V2000
  189.7080  175.3360  145.4360 C   0  0  1  0  0  3  0  0  0  0  0  0
  189.3150  171.7150  143.0390 C   0  0  0  0  0  2  0  0  0  0  0  0
  190.0880  173.5210  138.8760 C   0  0  0  0  0  1  0  0  0  0  0  0
  190.7080  173.4050  140.2590 C   0  0  2  0  0  0  0  0  0  0  0  0
  190.2710  172.1170  140.9230 C   0  0  0  0  0  2  0  0  0  0  0  0
  189.4380  175.1730  144.0270 N   0  0  0  0  0  0  0  0  0  0  0  0
  189.6730  172.7250  144.1200 C   0  0  2  0  0  3  0  0  0  0  0  0
  190.1740  174.5010  141.1430 C   0  0  0  0  0  2  0  0  0  0  0  0
  189.4510  174.0220  143.4440 C   0  0  0  0  0  0  0  0  0  0  0  0
  189.1140  173.8520  142.0160 C   0  0  2  0  0  3  0  0  0  0  0  0
  189.1100  172.4070  141.7580 N   0  0  2  0  0  0  0  0  0  0  0  0
  191.6730  171.2370  144.0360 C   0  0  0  0  0  1  0  0  0  0  0  0
  191.1400  172.5800  144.5010 C   0  0  0  0  0  2  0  0  0  0  0  0
  192.2270  173.5000  140.1850 C   0  0  0  0  0  2  0  0  0  0  0  0
  192.6340  174.1030  138.9920 O   0  0  0  0  0  1  0  0  0  0  0  0
  192.3510  176.8930  147.6350 C   0  0  0  0  0  2  0  0  0  0  0  0
  192.5640  175.7120  143.8750 C   0  0  2  0  0  3  0  0  0  0  0  0
  191.5680  175.6660  148.0860 C   0  0  0  0  0  2  0  0  0  0  0  0
  193.1240  176.1220  142.6000 N   0  0  0  0  0  1  0  0  0  0  0  0
  193.1030  175.0200  146.0900 C   0  0  0  0  0  2  0  0  0  0  0  0
  191.4990  176.7240  144.3110 C   0  0  0  0  0  2  0  0  0  0  0  0
  190.8630  176.3250  145.6480 C   0  0  2  0  0  3  0  0  0  0  0  0
  193.6300  175.6430  144.8770 N   0  0  0  0  0  2  0  0  0  0  0  0
  191.9380  175.8420  146.6310 C   0  0  0  0  0  0  0  0  0  0  0  0
  188.4310  175.7180  146.1790 C   0  0  0  0  0  2  0  0  0  0  0  0
  188.5030  177.1550  146.6740 C   0  0  0  0  0  2  0  0  0  0  0  0
  185.5240  179.8960  144.1740 O   0  0  0  0  0  1  0  0  0  0  0  0
  185.5930  179.2270  145.3950 C   0  0  2  0  0  3  0  0  0  0  0  0
  187.1210  177.7880  146.7260 C   0  0  1  0  0  3  0  0  0  0  0  0
  186.6840  178.1740  145.3240 C   0  0  1  0  0  3  0  0  0  0  0  0
  185.2240  177.7690  145.1880 C   0  0  1  0  0  3  0  0  0  0  0  0
  184.8130  177.1450  146.5090 C   0  0  0  0  0  2  0  0  0  0  0  0
  186.0910  176.8010  147.2370 C   0  0  0  0  0  2  0  0  0  0  0  0
  1 25  1  1  0  0  0
  2  7  1  0  0  0  0
  4  3  1  6  0  0  0
  4  5  1  0  0  0  0
  4  8  1  0  0  0  0
  6  1  1  0  0  0  0
  7 13  1  6  0  0  0
  9  6  2  0  0  0  0
  9  7  1  0  0  0  0
 10  8  1  6  0  0  0
 10  9  1  0  0  0  0
 11  5  1  6  0  0  0
 11 10  1  0  0  0  0
 11  2  1  0  0  0  0
 12 13  1  0  0  0  0
 14  4  1  0  0  0  0
 15 14  1  0  0  0  0
 16 18  1  0  0  0  0
 17 19  1  6  0  0  0
 17 21  1  0  0  0  0
 17 23  1  0  0  0  0
 20 24  1  0  0  0  0
 21 22  1  0  0  0  0
 22  1  1  6  0  0  0
 22 24  1  0  0  0  0
 23 20  1  0  0  0  0
 24 16  1  0  0  0  0
 24 18  1  0  0  0  0
 25 26  1  0  0  0  0
 28 27  1  6  0  0  0
 29 26  1  6  0  0  0
 29 33  1  0  0  0  0
 30 28  1  0  0  0  0
 30 29  1  0  0  0  0
 31 30  1  0  0  0  0
 31 28  1  0  0  0  0
 31 32  1  0  0  0  0
 32 33  1  0  0  0  0
M  END
>  <MODEL>
8

>  <REMARK>
 VINA RESULT:      -6.8      1.885      4.852
  Name = 
  7 active torsions:
  status: ('A' for Active; 'I' for Inactive)
    1  A    between atoms: C_9  and  C_25
    2  A    between atoms: C_12  and  C_20
    3  A    between atoms: C_14  and  N_17
    4  A    between atoms: C_14  and  C_21
    5  A    between atoms: C_14  and  C_23
    6  A    between atoms: C_19  and  C_30
    7  A    between atoms: C_21  and  C_25
                            x       y       z     vdW  Elec       q    Type
                         _______ _______ _______ _____ _____    ______ ____

>  <TORSDO>
F 7

$$$$
=
 OpenBabel11062418563D

 33 38  0  0  1  0  0  0  0  0999 V2000
  190.6630  176.4500  144.3070 C   0  0  1  0  0  3  0  0  0  0  0  0
  189.8200  173.0880  141.6630 C   0  0  0  0  0  2  0  0  0  0  0  0
  194.0900  172.2720  140.1520 C   0  0  0  0  0  1  0  0  0  0  0  0
  193.2840  172.4010  141.4330 C   0  0  2  0  0  0  0  0  0  0  0  0
  191.8480  171.9850  141.1930 C   0  0  0  0  0  2  0  0  0  0  0  0
  191.4260  175.9140  143.2050 N   0  0  0  0  0  0  0  0  0  0  0  0
  189.8580  174.0530  142.8390 C   0  0  2  0  0  3  0  0  0  0  0  0
  193.2090  173.8490  141.8370 C   0  0  0  0  0  2  0  0  0  0  0  0
  191.0830  174.8410  142.5770 C   0  0  0  0  0  0  0  0  0  0  0  0
  191.8320  174.3290  141.4110 C   0  0  2  0  0  3  0  0  0  0  0  0
  191.0710  173.1840  140.8970 N   0  0  2  0  0  0  0  0  0  0  0  0
  189.3480  171.9160  144.0180 C   0  0  0  0  0  1  0  0  0  0  0  0
  190.0040  173.2790  144.1410 C   0  0  0  0  0  2  0  0  0  0  0  0
  193.9130  171.5850  142.5570 C   0  0  0  0  0  2  0  0  0  0  0  0
  193.6420  172.1560  143.8030 O   0  0  0  0  0  1  0  0  0  0  0  0
  191.5560  176.1340  147.9610 C   0  0  0  0  0  2  0  0  0  0  0  0
  193.8660  175.9360  144.7670 C   0  0  2  0  0  3  0  0  0  0  0  0
  190.4480  175.2910  147.3400 C   0  0  0  0  0  2  0  0  0  0  0  0
  195.1710  176.3650  144.2970 N   0  0  0  0  0  1  0  0  0  0  0  0
  192.7370  174.5610  146.3510 C   0  0  0  0  0  2  0  0  0  0  0  0
  192.9850  177.1660  145.0110 C   0  0  0  0  0  2  0  0  0  0  0  0
  191.5860  176.7640  145.4930 C   0  0  2  0  0  3  0  0  0  0  0  0
  194.0200  175.1740  146.0070 N   0  0  0  0  0  2  0  0  0  0  0  0
  191.6790  175.6430  146.5370 C   0  0  0  0  0  0  0  0  0  0  0  0
  189.8340  177.6450  143.8440 C   0  0  0  0  0  2  0  0  0  0  0  0
  188.3680  177.2630  143.7020 C   0  0  0  0  0  2  0  0  0  0  0  0
  184.4440  179.7880  144.6360 O   0  0  0  0  0  1  0  0  0  0  0  0
  185.4890  179.1480  145.3010 C   0  0  2  0  0  3  0  0  0  0  0  0
  187.5410  177.8210  144.8510 C   0  0  1  0  0  3  0  0  0  0  0  0
  186.1440  178.1550  144.3600 C   0  0  1  0  0  3  0  0  0  0  0  0
  185.1720  177.6690  145.4240 C   0  0  1  0  0  3  0  0  0  0  0  0
  186.0040  177.0500  146.5330 C   0  0  0  0  0  2  0  0  0  0  0  0
  187.3730  176.7900  145.9490 C   0  0  0  0  0  2  0  0  0  0  0  0
  1 25  1  6  0  0  0
  2  7  1  0  0  0  0
  4  3  1  6  0  0  0
  4  8  1  0  0  0  0
  4 14  1  0  0  0  0
  5  4  1  0  0  0  0
  6  1  1  0  0  0  0
  7 13  1  1  0  0  0
  9  7  1  0  0  0  0
  9  6  2  0  0  0  0
 10  8  1  1  0  0  0
 10  9  1  0  0  0  0
 11  5  1  1  0  0  0
 11 10  1  0  0  0  0
 11  2  1  0  0  0  0
 12 13  1  0  0  0  0
 14 15  1  0  0  0  0
 17 19  1  1  0  0  0
 17 21  1  0  0  0  0
 17 23  1  0  0  0  0
 18 16  1  0  0  0  0
 20 24  1  0  0  0  0
 21 22  1  0  0  0  0
 22  1  1  6  0  0  0
 22 24  1  0  0  0  0
 23 20  1  0  0  0  0
 24 18  1  0  0  0  0
 24 16  1  0  0  0  0
 26 25  1  0  0  0  0
 28 27  1  6  0  0  0
 28 31  1  0  0  0  0
 29 26  1  6  0  0  0
 29 33  1  0  0  0  0
 30 29  1  0  0  0  0
 30 28  1  0  0  0  0
 30 31  1  0  0  0  0
 31 32  1  0  0  0  0
 33 32  1  0  0  0  0
M  END
>  <MODEL>
9

>  <REMARK>
 VINA RESULT:      -6.5      1.782      4.375
  Name = 
  7 active torsions:
  status: ('A' for Active; 'I' for Inactive)
    1  A    between atoms: C_9  and  C_25
    2  A    between atoms: C_12  and  C_20
    3  A    between atoms: C_14  and  N_17
    4  A    between atoms: C_14  and  C_21
    5  A    between atoms: C_14  and  C_23
    6  A    between atoms: C_19  and  C_30
    7  A    between atoms: C_21  and  C_25
                            x       y       z     vdW  Elec       q    Type
                         _______ _______ _______ _____ _____    ______ ____

>  <TORSDO>
F 7

$$$$
