=
 OpenBabel11062418333D

 54 59  0  0  1  0  0  0  0  0999 V2000
  191.4600  175.6310  144.5180 C   0  0  2  0  0  0  0  0  0  0  0  0
  195.7320  173.6310  144.0220 N   0  0  0  0  0  0  0  0  0  0  0  0
  197.2840  169.0690  142.4990 O   0  0  0  0  0  1  0  0  0  0  0  0
  194.2080  170.1750  142.2330 N   0  0  0  0  0  0  0  0  0  0  0  0
  196.2630  169.4780  143.3250 C   0  0  1  0  0  3  0  0  0  0  0  0
  190.9390  177.0100  143.9420 C   0  0  0  0  0  2  0  0  0  0  0  0
  191.7680  169.3230  140.5160 C   0  0  0  0  0  2  0  0  0  0  0  0
  191.4190  170.6250  140.1510 O   0  0  0  0  0  0  0  0  0  0  0  0
  189.5380  177.5330  144.2610 C   0  0  0  0  0  2  0  0  0  0  0  0
  194.3440  173.7820  145.9030 O   0  0  0  0  0  0  0  0  0  0  0  0
  188.2890  176.9730  143.4990 C   0  0  1  0  0  3  0  0  0  0  0  0
  192.9360  175.9810  144.9470 C   0  0  0  0  0  2  0  0  0  0  0  0
  190.2710  172.8780  142.1780 C   0  0  1  0  0  3  0  0  0  0  0  0
  191.9280  170.4930  141.4120 C   0  0  1  0  0  0  0  0  0  0  0  0
  196.9750  170.1400  144.5260 C   0  0  0  0  0  2  0  0  0  0  0  0
  196.8340  171.9700  146.1710 O   0  0  0  0  0  1  0  0  0  0  0  0
  195.8140  171.8220  142.6230 O   0  0  0  0  0  0  0  0  0  0  0  0
  190.1850  174.3190  142.8570 C   0  0  1  0  0  3  0  0  0  0  0  0
  190.8510  171.7240  143.1010 C   0  0  0  0  0  2  0  0  0  0  0  0
  195.8950  172.3220  143.9160 C   0  0  0  0  0  0  0  0  0  0  0  0
  188.9610  174.2860  143.6790 C   0  0  0  0  0  2  0  0  0  0  0  0
  191.3510  174.4800  143.5960 O   0  0  0  0  0  0  0  0  0  0  0  0
  194.7760  174.2760  144.8230 C   0  0  0  0  0  0  0  0  0  0  0  0
  188.2140  175.5650  144.2190 C   0  0  0  0  0  2  0  0  0  0  0  0
  190.9360  175.1770  145.6780 F   0  0  0  0  0  0  0  0  0  0  0  0
  194.1100  175.4470  144.1150 C   0  0  2  0  0  3  0  0  0  0  0  0
  190.9890  170.4510  142.4020 O   0  0  0  0  0  0  0  0  0  0  0  0
  195.4060  170.4950  142.5700 C   0  0  0  0  0  0  0  0  0  0  0  0
  193.3440  171.0790  141.4780 C   0  0  1  0  0  3  0  0  0  0  0  0
  196.1730  171.3540  145.0590 C   0  0  1  0  0  3  0  0  0  0  0  0
  187.7150  178.2140  147.2240 F   0  0  0  0  0  0  0  0  0  0  0  0
  186.5410  177.6220  146.5750 C   0  0  1  0  0  3  0  0  0  0  0  0
  185.1330  178.2420  146.8620 C   0  0  0  0  0  2  0  0  0  0  0  0
  186.8600  177.8180  143.7360 C   0  0  1  0  0  0  0  0  0  0  0  0
  184.2200  177.9730  145.7860 O   0  0  0  0  0  0  0  0  0  0  0  0
  184.5120  179.1130  145.0460 C   0  0  0  0  0  2  0  0  0  0  0  0
  186.1850  180.1850  143.8190 O   0  0  0  0  0  1  0  0  0  0  0  0
  186.5240  177.0090  145.0520 C   0  0  0  0  0  2  0  0  0  0  0  0
  185.6320  178.9670  143.9000 C   0  0  1  0  0  3  0  0  0  0  0  0
  187.9120  177.9820  141.3330 O   0  0  0  0  0  1  0  0  0  0  0  0
  186.6920  177.9150  142.0950 C   0  0  0  0  0  2  0  0  0  0  0  0
  195.1630  176.4700  143.7310 C   0  0  0  0  0  0  0  0  0  0  0  0
  195.7210  177.2770  144.5710 O   0  0  0  0  0  1  0  0  0  0  0  0
  195.5410  176.5460  142.4180 O   0  0  0  0  0  0  0  0  0  0  0  0
  193.3900  172.5970  141.9040 C   0  0  0  0  0  2  0  0  0  0  0  0
  193.6800  173.4380  140.7960 O   0  0  0  0  0  1  0  0  0  0  0  0
  187.6900  172.3940  141.8700 C   0  0  0  0  0  1  0  0  0  0  0  0
  189.1020  172.4690  141.3070 C   0  0  1  0  0  3  0  0  0  0  0  0
  188.2070  173.4490  139.2510 N   0  0  0  0  0  0  0  0  0  0  0  0
  190.6630  173.7610  138.1050 C   0  0  0  0  0  3  0  0  0  0  0  0
  189.5060  174.0910  137.3750 C   0  0  0  0  0  3  0  0  0  0  0  0
  188.2430  173.9060  137.9550 C   0  0  0  0  0  3  0  0  0  0  0  0
  189.2340  173.1590  139.9880 C   0  0  0  0  0  0  0  0  0  0  0  0
  190.5360  173.2920  139.4000 C   0  0  0  0  0  3  0  0  0  0  0  0
  1 12  1  0  0  0  0
  1 25  1  1  0  0  0
  2 23  1  0  0  0  0
  4 28  2  0  0  0  0
  5  3  1  6  0  0  0
  5 15  1  0  0  0  0
  6  9  1  0  0  0  0
  6  1  1  0  0  0  0
  8  7  1  0  0  0  0
  8 14  1  0  0  0  0
 11 34  1  0  0  0  0
 11 24  1  1  0  0  0
 11  9  1  0  0  0  0
 13 48  1  1  0  0  0
 13 18  1  0  0  0  0
 13 19  1  0  0  0  0
 14  7  1  6  0  0  0
 14 29  1  0  0  0  0
 14 27  1  0  0  0  0
 15 30  1  0  0  0  0
 17 20  1  0  0  0  0
 18 22  1  0  0  0  0
 18 21  1  1  0  0  0
 20  2  2  0  0  0  0
 20 30  1  0  0  0  0
 21 24  1  0  0  0  0
 22  1  1  0  0  0  0
 23 10  2  0  0  0  0
 26 42  1  1  0  0  0
 26 23  1  0  0  0  0
 26 12  1  0  0  0  0
 27 19  1  0  0  0  0
 28 17  1  0  0  0  0
 28  5  1  0  0  0  0
 29 45  1  1  0  0  0
 29  4  1  0  0  0  0
 30 16  1  1  0  0  0
 32 33  1  0  0  0  0
 32 31  1  6  0  0  0
 34 41  1  6  0  0  0
 34 39  1  0  0  0  0
 34 38  1  0  0  0  0
 35 33  1  0  0  0  0
 36 35  1  0  0  0  0
 38 32  1  0  0  0  0
 39 37  1  1  0  0  0
 39 36  1  0  0  0  0
 40 41  1  0  0  0  0
 42 43  1  0  0  0  0
 44 42  2  0  0  0  0
 46 45  1  0  0  0  0
 48 47  1  1  0  0  0
 49 53  1  0  0  0  0
 50 54  1  0  0  0  0
 51 52  1  0  0  0  0
 51 50  2  0  0  0  0
 52 49  2  0  0  0  0
 53 48  1  0  0  0  0
 54 53  2  0  0  0  0
M  END
>  <MODEL>
1

>  <REMARK>
 VINA RESULT:      -8.9      0.000      0.000
  Name = 
  6 active torsions:
  status: ('A' for Active; 'I' for Inactive)
    1  A    between atoms: C_4  and  C_45
    2  A    between atoms: C_16  and  C_17
    3  A    between atoms: C_16  and  C_54
    4  A    between atoms: C_19  and  C_53
    5  A    between atoms: C_26  and  CA_49
    6  A    between atoms: C_42  and  C_53
                            x       y       z     vdW  Elec       q    Type
                         _______ _______ _______ _____ _____    ______ ____

>  <TORSDO>
F 6

$$$$
=
 OpenBabel11062418333D

 54 59  0  0  1  0  0  0  0  0999 V2000
  189.4460  174.4120  141.3660 C   0  0  2  0  0  0  0  0  0  0  0  0
  192.9010  171.4400  140.0500 N   0  0  0  0  0  0  0  0  0  0  0  0
  197.9410  171.7930  139.9380 O   0  0  0  0  0  1  0  0  0  0  0  0
  195.9530  173.9630  141.3860 N   0  0  0  0  0  0  0  0  0  0  0  0
  196.9380  172.6650  139.5840 C   0  0  1  0  0  3  0  0  0  0  0  0
  188.2520  174.1590  142.3740 C   0  0  0  0  0  2  0  0  0  0  0  0
  196.3860  176.1620  143.5320 C   0  0  0  0  0  2  0  0  0  0  0  0
  195.2500  175.8310  144.2730 O   0  0  0  0  0  0  0  0  0  0  0  0
  187.1830  175.2200  142.6310 C   0  0  0  0  0  2  0  0  0  0  0  0
  191.6350  172.9450  138.7750 O   0  0  0  0  0  0  0  0  0  0  0  0
  187.4720  176.4230  143.5930 C   0  0  1  0  0  3  0  0  0  0  0  0
  189.5330  173.0410  140.5940 C   0  0  0  0  0  2  0  0  0  0  0  0
  192.1950  176.2290  143.2680 C   0  0  1  0  0  3  0  0  0  0  0  0
  195.1260  175.6760  142.9210 C   0  0  1  0  0  0  0  0  0  0  0  0
  196.2170  171.9730  138.4060 C   0  0  0  0  0  2  0  0  0  0  0  0
  194.0230  171.6010  137.3460 O   0  0  0  0  0  1  0  0  0  0  0  0
  194.9730  171.9010  140.9050 O   0  0  0  0  0  0  0  0  0  0  0  0
  190.6820  175.8000  142.9960 C   0  0  1  0  0  3  0  0  0  0  0  0
  193.0990  176.3970  141.9740 C   0  0  0  0  0  2  0  0  0  0  0  0
  194.1340  171.8520  139.7990 C   0  0  0  0  0  0  0  0  0  0  0  0
  189.9920  177.0430  142.6080 C   0  0  0  0  0  2  0  0  0  0  0  0
  190.7180  174.8410  141.9900 O   0  0  0  0  0  0  0  0  0  0  0  0
  191.7240  172.1480  139.7520 C   0  0  0  0  0  0  0  0  0  0  0  0
  188.4280  177.2400  142.6310 C   0  0  0  0  0  2  0  0  0  0  0  0
  189.2620  175.2880  140.3540 F   0  0  0  0  0  0  0  0  0  0  0  0
  190.7020  172.0880  140.8780 C   0  0  2  0  0  3  0  0  0  0  0  0
  194.4900  176.7040  142.2880 O   0  0  0  0  0  0  0  0  0  0  0  0
  195.9960  172.8320  140.7770 C   0  0  0  0  0  0  0  0  0  0  0  0
  195.1080  174.1860  142.5560 C   0  0  1  0  0  3  0  0  0  0  0  0
  194.6930  172.2450  138.4370 C   0  0  1  0  0  3  0  0  0  0  0  0
  187.7130  178.1320  147.1650 F   0  0  0  0  0  0  0  0  0  0  0  0
  186.4180  177.5170  146.8530 C   0  0  1  0  0  3  0  0  0  0  0  0
  185.1140  178.2300  147.3400 C   0  0  0  0  0  2  0  0  0  0  0  0
  186.1400  177.3530  144.0080 C   0  0  1  0  0  0  0  0  0  0  0  0
  183.9910  177.8720  146.5190 O   0  0  0  0  0  0  0  0  0  0  0  0
  184.1420  178.8990  145.5950 C   0  0  0  0  0  2  0  0  0  0  0  0
  185.5400  179.7400  143.9230 O   0  0  0  0  0  1  0  0  0  0  0  0
  186.0730  176.7250  145.4570 C   0  0  0  0  0  2  0  0  0  0  0  0
  184.9940  178.5660  144.2710 C   0  0  1  0  0  3  0  0  0  0  0  0
  184.2780  177.6700  142.1790 O   0  0  0  0  0  1  0  0  0  0  0  0
  185.6340  177.2570  142.4370 C   0  0  0  0  0  2  0  0  0  0  0  0
  190.3240  170.6420  141.1400 C   0  0  0  0  0  0  0  0  0  0  0  0
  190.2530  170.1210  142.3200 O   0  0  0  0  0  1  0  0  0  0  0  0
  190.0480  169.8410  140.0650 O   0  0  0  0  0  0  0  0  0  0  0  0
  193.6620  173.5590  142.4940 C   0  0  0  0  0  2  0  0  0  0  0  0
  193.3230  172.9140  143.7140 O   0  0  0  0  0  1  0  0  0  0  0  0
  192.0070  178.7240  144.1250 C   0  0  0  0  0  1  0  0  0  0  0  0
  192.4190  177.2740  144.3410 C   0  0  1  0  0  3  0  0  0  0  0  0
  192.6160  175.6310  146.1430 N   0  0  0  0  0  0  0  0  0  0  0  0
  190.3650  176.4850  147.4270 C   0  0  0  0  0  3  0  0  0  0  0  0
  191.0670  175.3690  147.9190 C   0  0  0  0  0  3  0  0  0  0  0  0
  192.2090  174.9140  147.2440 C   0  0  0  0  0  3  0  0  0  0  0  0
  192.0350  176.6840  145.6600 C   0  0  0  0  0  0  0  0  0  0  0  0
  190.8360  177.1400  146.3020 C   0  0  0  0  0  3  0  0  0  0  0  0
  1 25  1  6  0  0  0
  1 22  1  0  0  0  0
  1  6  1  0  0  0  0
  4 29  1  0  0  0  0
  5  3  1  1  0  0  0
  5 28  1  0  0  0  0
  6  9  1  0  0  0  0
  7  8  1  0  0  0  0
  9 11  1  0  0  0  0
 10 23  2  0  0  0  0
 11 24  1  6  0  0  0
 11 34  1  0  0  0  0
 12 26  1  0  0  0  0
 12  1  1  0  0  0  0
 13 48  1  6  0  0  0
 14  7  1  6  0  0  0
 14  8  1  0  0  0  0
 15 30  1  0  0  0  0
 15  5  1  0  0  0  0
 18 21  1  6  0  0  0
 18 13  1  0  0  0  0
 19 27  1  0  0  0  0
 19 13  1  0  0  0  0
 20  2  2  0  0  0  0
 20 17  1  0  0  0  0
 21 24  1  0  0  0  0
 22 18  1  0  0  0  0
 23  2  1  0  0  0  0
 23 26  1  0  0  0  0
 26 42  1  6  0  0  0
 27 14  1  0  0  0  0
 28 17  1  0  0  0  0
 28  4  2  0  0  0  0
 29 45  1  6  0  0  0
 29 14  1  0  0  0  0
 30 16  1  6  0  0  0
 30 20  1  0  0  0  0
 32 31  1  6  0  0  0
 32 33  1  0  0  0  0
 34 41  1  6  0  0  0
 34 39  1  0  0  0  0
 34 38  1  0  0  0  0
 35 33  1  0  0  0  0
 36 35  1  0  0  0  0
 38 32  1  0  0  0  0
 39 37  1  1  0  0  0
 39 36  1  0  0  0  0
 40 41  1  0  0  0  0
 42 43  1  0  0  0  0
 44 42  2  0  0  0  0
 45 46  1  0  0  0  0
 48 47  1  6  0  0  0
 48 53  1  0  0  0  0
 49 52  1  0  0  0  0
 50 51  1  0  0  0  0
 52 51  2  0  0  0  0
 53 49  2  0  0  0  0
 53 54  1  0  0  0  0
 54 50  2  0  0  0  0
M  END
>  <MODEL>
2

>  <REMARK>
 VINA RESULT:      -8.7      2.326      5.637
  Name = 
  6 active torsions:
  status: ('A' for Active; 'I' for Inactive)
    1  A    between atoms: C_4  and  C_45
    2  A    between atoms: C_16  and  C_17
    3  A    between atoms: C_16  and  C_54
    4  A    between atoms: C_19  and  C_53
    5  A    between atoms: C_26  and  CA_49
    6  A    between atoms: C_42  and  C_53
                            x       y       z     vdW  Elec       q    Type
                         _______ _______ _______ _____ _____    ______ ____

>  <TORSDO>
F 6

$$$$
=
 OpenBabel11062418333D

 54 59  0  0  1  0  0  0  0  0999 V2000
  192.5480  175.2420  144.2870 C   0  0  2  0  0  0  0  0  0  0  0  0
  196.2110  173.6180  141.7490 N   0  0  0  0  0  0  0  0  0  0  0  0
  196.8270  169.6620  138.6650 O   0  0  0  0  0  1  0  0  0  0  0  0
  193.9390  170.6670  139.8520 N   0  0  0  0  0  0  0  0  0  0  0  0
  196.2100  169.8040  139.8860 C   0  0  1  0  0  3  0  0  0  0  0  0
  191.9290  176.6990  144.3130 C   0  0  0  0  0  2  0  0  0  0  0  0
  190.9920  170.1750  139.0130 C   0  0  0  0  0  2  0  0  0  0  0  0
  190.6070  171.5110  139.1440 O   0  0  0  0  0  0  0  0  0  0  0  0
  190.7780  177.0630  145.2510 C   0  0  0  0  0  2  0  0  0  0  0  0
  195.6310  173.2270  143.9850 O   0  0  0  0  0  0  0  0  0  0  0  0
  189.3060  176.6620  144.8960 C   0  0  1  0  0  3  0  0  0  0  0  0
  194.0950  175.5340  144.2080 C   0  0  0  0  0  2  0  0  0  0  0  0
  190.4220  173.1250  141.9480 C   0  0  1  0  0  3  0  0  0  0  0  0
  191.5390  171.0850  140.0480 C   0  0  1  0  0  0  0  0  0  0  0  0
  197.3520  170.1690  140.8600 C   0  0  0  0  0  2  0  0  0  0  0  0
  197.9350  171.5130  142.8410 O   0  0  0  0  0  1  0  0  0  0  0  0
  195.6650  172.2280  140.0150 O   0  0  0  0  0  0  0  0  0  0  0  0
  190.6750  174.3410  142.9490 C   0  0  1  0  0  3  0  0  0  0  0  0
  191.2370  171.8000  142.2670 C   0  0  0  0  0  2  0  0  0  0  0  0
  196.2480  172.3860  141.2650 C   0  0  0  0  0  0  0  0  0  0  0  0
  189.8440  174.0490  144.1310 C   0  0  0  0  0  2  0  0  0  0  0  0
  192.0400  174.3590  143.2150 O   0  0  0  0  0  0  0  0  0  0  0  0
  195.6580  173.9970  142.9830 C   0  0  0  0  0  0  0  0  0  0  0  0
  189.4240  175.1160  145.2130 C   0  0  0  0  0  2  0  0  0  0  0  0
  192.4660  174.4870  145.4040 F   0  0  0  0  0  0  0  0  0  0  0  0
  194.8440  175.2800  142.8930 C   0  0  2  0  0  3  0  0  0  0  0  0
  191.0330  170.7530  141.2720 O   0  0  0  0  0  0  0  0  0  0  0  0
  195.1930  170.9410  139.7870 C   0  0  0  0  0  0  0  0  0  0  0  0
  192.9090  171.6950  139.7260 C   0  0  1  0  0  3  0  0  0  0  0  0
  196.8750  171.1720  141.9400 C   0  0  1  0  0  3  0  0  0  0  0  0
  185.6250  176.2990  143.4610 F   0  0  0  0  0  0  0  0  0  0  0  0
  185.9630  177.6260  143.9860 C   0  0  1  0  0  3  0  0  0  0  0  0
  184.8640  178.4290  144.7580 C   0  0  0  0  0  2  0  0  0  0  0  0
  188.1170  177.3580  145.8520 C   0  0  1  0  0  0  0  0  0  0  0  0
  185.4540  179.3740  145.6640 O   0  0  0  0  0  0  0  0  0  0  0  0
  185.5220  178.5190  146.7580 C   0  0  0  0  0  2  0  0  0  0  0  0
  186.5360  176.5800  147.5730 O   0  0  0  0  0  1  0  0  0  0  0  0
  187.4250  178.0410  144.6060 C   0  0  0  0  0  2  0  0  0  0  0  0
  186.9020  177.7190  146.9690 C   0  0  1  0  0  3  0  0  0  0  0  0
  189.0620  178.6200  147.9570 O   0  0  0  0  0  1  0  0  0  0  0  0
  189.2320  177.5020  147.0640 C   0  0  0  0  0  2  0  0  0  0  0  0
  195.7360  176.4100  142.4140 C   0  0  0  0  0  0  0  0  0  0  0  0
  195.6080  176.9880  141.2650 O   0  0  0  0  0  0  0  0  0  0  0  0
  196.7370  176.8390  143.2420 O   0  0  0  0  0  1  0  0  0  0  0  0
  193.1950  173.0550  140.4700 C   0  0  0  0  0  2  0  0  0  0  0  0
  192.9070  174.1720  139.6400 O   0  0  0  0  0  1  0  0  0  0  0  0
  187.9610  172.2960  142.4460 C   0  0  0  0  0  1  0  0  0  0  0  0
  188.9930  172.9000  141.5040 C   0  0  1  0  0  3  0  0  0  0  0  0
  188.0650  175.1580  141.3310 N   0  0  0  0  0  0  0  0  0  0  0  0
  187.8180  175.0550  138.6160 C   0  0  0  0  0  3  0  0  0  0  0  0
  187.3540  176.1850  139.3150 C   0  0  0  0  0  3  0  0  0  0  0  0
  187.4570  176.2260  140.7130 C   0  0  0  0  0  3  0  0  0  0  0  0
  188.5420  174.1060  140.7430 C   0  0  0  0  0  0  0  0  0  0  0  0
  188.4040  174.0170  139.3180 C   0  0  0  0  0  3  0  0  0  0  0  0
  1  6  1  0  0  0  0
  1 25  1  1  0  0  0
  2 23  1  0  0  0  0
  5  3  1  6  0  0  0
  5 15  1  0  0  0  0
  6  9  1  0  0  0  0
  7  8  1  0  0  0  0
  8 14  1  0  0  0  0
 11 24  1  1  0  0  0
 11  9  1  0  0  0  0
 11 34  1  0  0  0  0
 12  1  1  0  0  0  0
 13 48  1  1  0  0  0
 13 19  1  0  0  0  0
 13 18  1  0  0  0  0
 14  7  1  6  0  0  0
 14 27  1  0  0  0  0
 15 30  1  0  0  0  0
 17 20  1  0  0  0  0
 18 22  1  0  0  0  0
 18 21  1  1  0  0  0
 20  2  2  0  0  0  0
 20 30  1  0  0  0  0
 21 24  1  0  0  0  0
 22  1  1  0  0  0  0
 23 10  2  0  0  0  0
 26 42  1  1  0  0  0
 26 23  1  0  0  0  0
 26 12  1  0  0  0  0
 27 19  1  0  0  0  0
 28  4  2  0  0  0  0
 28  5  1  0  0  0  0
 28 17  1  0  0  0  0
 29  4  1  0  0  0  0
 29 14  1  0  0  0  0
 29 45  1  1  0  0  0
 30 16  1  6  0  0  0
 32 31  1  1  0  0  0
 32 38  1  0  0  0  0
 32 33  1  0  0  0  0
 33 35  1  0  0  0  0
 34 39  1  0  0  0  0
 34 41  1  1  0  0  0
 35 36  1  0  0  0  0
 36 39  1  0  0  0  0
 38 34  1  0  0  0  0
 39 37  1  6  0  0  0
 41 40  1  0  0  0  0
 42 44  1  0  0  0  0
 43 42  2  0  0  0  0
 46 45  1  0  0  0  0
 48 47  1  1  0  0  0
 50 51  2  0  0  0  0
 50 54  1  0  0  0  0
 51 52  1  0  0  0  0
 52 49  2  0  0  0  0
 53 49  1  0  0  0  0
 53 48  1  0  0  0  0
 54 53  2  0  0  0  0
M  END
>  <MODEL>
3

>  <REMARK>
 VINA RESULT:      -8.5      2.018      2.651
  Name = 
  6 active torsions:
  status: ('A' for Active; 'I' for Inactive)
    1  A    between atoms: C_4  and  C_45
    2  A    between atoms: C_16  and  C_17
    3  A    between atoms: C_16  and  C_54
    4  A    between atoms: C_19  and  C_53
    5  A    between atoms: C_26  and  CA_49
    6  A    between atoms: C_42  and  C_53
                            x       y       z     vdW  Elec       q    Type
                         _______ _______ _______ _____ _____    ______ ____

>  <TORSDO>
F 6

$$$$
=
 OpenBabel11062418333D

 54 59  0  0  1  0  0  0  0  0999 V2000
  192.3010  175.2780  144.7420 C   0  0  2  0  0  0  0  0  0  0  0  0
  196.3950  173.4070  143.2490 N   0  0  0  0  0  0  0  0  0  0  0  0
  197.6420  168.9750  141.1640 O   0  0  0  0  0  1  0  0  0  0  0  0
  194.5670  170.0250  141.6090 N   0  0  0  0  0  0  0  0  0  0  0  0
  196.8110  169.3130  142.2060 C   0  0  1  0  0  3  0  0  0  0  0  0
  191.6570  176.6760  144.3700 C   0  0  0  0  0  2  0  0  0  0  0  0
  191.8310  169.2180  140.3870 C   0  0  0  0  0  2  0  0  0  0  0  0
  191.4000  170.5300  140.1820 O   0  0  0  0  0  0  0  0  0  0  0  0
  190.3490  177.1480  145.0040 C   0  0  0  0  0  2  0  0  0  0  0  0
  195.4290  173.4180  145.3830 O   0  0  0  0  0  0  0  0  0  0  0  0
  188.9730  176.6040  144.4850 C   0  0  1  0  0  3  0  0  0  0  0  0
  193.8300  175.6360  144.8750 C   0  0  0  0  0  2  0  0  0  0  0  0
  190.6780  172.6370  142.5360 C   0  0  1  0  0  3  0  0  0  0  0  0
  192.1620  170.3380  141.3000 C   0  0  1  0  0  0  0  0  0  0  0  0
  197.7510  169.9210  143.2720 C   0  0  0  0  0  2  0  0  0  0  0  0
  197.9370  171.6500  145.0190 O   0  0  0  0  0  1  0  0  0  0  0  0
  196.2020  171.6830  141.7570 O   0  0  0  0  0  0  0  0  0  0  0  0
  190.7200  174.0350  143.3040 C   0  0  1  0  0  3  0  0  0  0  0  0
  191.4490  171.4460  143.2470 C   0  0  0  0  0  2  0  0  0  0  0  0
  196.5460  172.1090  143.0320 C   0  0  0  0  0  0  0  0  0  0  0  0
  189.6950  173.9280  144.3580 C   0  0  0  0  0  2  0  0  0  0  0  0
  192.0140  174.1790  143.7940 O   0  0  0  0  0  0  0  0  0  0  0  0
  195.6200  173.9830  144.2690 C   0  0  0  0  0  0  0  0  0  0  0  0
  189.0640  175.1570  145.1180 C   0  0  0  0  0  2  0  0  0  0  0  0
  192.0340  174.7470  145.9550 F   0  0  0  0  0  0  0  0  0  0  0  0
  194.8100  175.1770  143.7870 C   0  0  2  0  0  3  0  0  0  0  0  0
  191.4510  170.2190  142.4580 O   0  0  0  0  0  0  0  0  0  0  0  0
  195.8060  170.3520  141.7090 C   0  0  0  0  0  0  0  0  0  0  0  0
  193.5550  170.9510  141.1060 C   0  0  1  0  0  3  0  0  0  0  0  0
  197.0660  171.0840  144.0320 C   0  0  1  0  0  3  0  0  0  0  0  0
  186.0120  176.9190  141.8650 F   0  0  0  0  0  0  0  0  0  0  0  0
  186.3000  178.1360  142.6300 C   0  0  1  0  0  3  0  0  0  0  0  0
  185.1040  179.0390  143.0810 C   0  0  0  0  0  2  0  0  0  0  0  0
  187.6170  177.4030  145.0650 C   0  0  1  0  0  0  0  0  0  0  0  0
  185.4480  179.8130  144.2400 O   0  0  0  0  0  0  0  0  0  0  0  0
  185.0270  178.8800  145.1800 C   0  0  0  0  0  2  0  0  0  0  0  0
  185.4530  176.7530  146.0450 O   0  0  0  0  0  1  0  0  0  0  0  0
  187.4900  178.2740  143.7510 C   0  0  0  0  0  2  0  0  0  0  0  0
  186.1400  177.8640  145.7440 C   0  0  1  0  0  3  0  0  0  0  0  0
  187.7110  178.1920  147.5710 O   0  0  0  0  0  1  0  0  0  0  0  0
  188.2470  177.2850  146.5880 C   0  0  0  0  0  2  0  0  0  0  0  0
  195.7500  176.2430  143.2550 C   0  0  0  0  0  0  0  0  0  0  0  0
  195.9510  176.4610  141.9970 O   0  0  0  0  0  0  0  0  0  0  0  0
  196.4290  177.0160  144.1580 O   0  0  0  0  0  1  0  0  0  0  0  0
  193.6740  172.4420  141.6040 C   0  0  0  0  0  2  0  0  0  0  0  0
  193.9080  173.3340  140.5230 O   0  0  0  0  0  1  0  0  0  0  0  0
  188.0610  172.2930  142.7010 C   0  0  0  0  0  1  0  0  0  0  0  0
  189.3570  172.2530  141.9030 C   0  0  1  0  0  3  0  0  0  0  0  0
  188.2590  172.7320  139.7700 N   0  0  0  0  0  0  0  0  0  0  0  0
  190.4990  173.8010  138.6380 C   0  0  0  0  0  3  0  0  0  0  0  0
  189.3280  173.6650  137.8700 C   0  0  0  0  0  3  0  0  0  0  0  0
  188.1840  173.0910  138.4440 C   0  0  0  0  0  3  0  0  0  0  0  0
  189.2940  172.8620  140.5390 C   0  0  0  0  0  0  0  0  0  0  0  0
  190.4920  173.4000  139.9620 C   0  0  0  0  0  3  0  0  0  0  0  0
  1 12  1  0  0  0  0
  1 25  1  1  0  0  0
  2 23  1  0  0  0  0
  4 28  2  0  0  0  0
  5  3  1  6  0  0  0
  5 15  1  0  0  0  0
  6  1  1  0  0  0  0
  6  9  1  0  0  0  0
  8  7  1  0  0  0  0
  8 14  1  0  0  0  0
 11  9  1  1  0  0  0
 11 34  1  0  0  0  0
 11 24  1  0  0  0  0
 13 48  1  1  0  0  0
 13 19  1  0  0  0  0
 13 18  1  0  0  0  0
 14  7  1  6  0  0  0
 14 27  1  0  0  0  0
 15 30  1  0  0  0  0
 17 20  1  0  0  0  0
 18 22  1  0  0  0  0
 18 21  1  1  0  0  0
 20  2  2  0  0  0  0
 20 30  1  0  0  0  0
 21 24  1  0  0  0  0
 22  1  1  0  0  0  0
 23 10  2  0  0  0  0
 26 42  1  1  0  0  0
 26 23  1  0  0  0  0
 26 12  1  0  0  0  0
 27 19  1  0  0  0  0
 28 17  1  0  0  0  0
 28  5  1  0  0  0  0
 29 14  1  0  0  0  0
 29 45  1  1  0  0  0
 29  4  1  0  0  0  0
 30 16  1  1  0  0  0
 32 31  1  1  0  0  0
 32 33  1  0  0  0  0
 32 38  1  0  0  0  0
 33 35  1  0  0  0  0
 34 39  1  0  0  0  0
 34 41  1  1  0  0  0
 35 36  1  0  0  0  0
 36 39  1  0  0  0  0
 38 34  1  0  0  0  0
 39 37  1  6  0  0  0
 41 40  1  0  0  0  0
 42 44  1  0  0  0  0
 43 42  2  0  0  0  0
 46 45  1  0  0  0  0
 48 47  1  1  0  0  0
 49 53  1  0  0  0  0
 50 54  1  0  0  0  0
 51 52  1  0  0  0  0
 51 50  2  0  0  0  0
 52 49  2  0  0  0  0
 53 48  1  0  0  0  0
 54 53  2  0  0  0  0
M  END
>  <MODEL>
4

>  <REMARK>
 VINA RESULT:      -8.5      1.342      1.973
  Name = 
  6 active torsions:
  status: ('A' for Active; 'I' for Inactive)
    1  A    between atoms: C_4  and  C_45
    2  A    between atoms: C_16  and  C_17
    3  A    between atoms: C_16  and  C_54
    4  A    between atoms: C_19  and  C_53
    5  A    between atoms: C_26  and  CA_49
    6  A    between atoms: C_42  and  C_53
                            x       y       z     vdW  Elec       q    Type
                         _______ _______ _______ _____ _____    ______ ____

>  <TORSDO>
F 6

$$$$
=
 OpenBabel11062418333D

 54 59  0  0  1  0  0  0  0  0999 V2000
  188.5290  174.0660  141.2120 C   0  0  2  0  0  0  0  0  0  0  0  0
  186.9230  177.7900  143.6720 N   0  0  0  0  0  0  0  0  0  0  0  0
  187.3920  179.2440  148.4890 O   0  0  0  0  0  1  0  0  0  0  0  0
  189.0890  176.8020  147.1070 N   0  0  0  0  0  0  0  0  0  0  0  0
  187.1470  178.0240  147.9040 C   0  0  1  0  0  3  0  0  0  0  0  0
  189.3300  174.0510  139.8470 C   0  0  0  0  0  2  0  0  0  0  0  0
  191.7080  175.3200  147.8630 C   0  0  0  0  0  2  0  0  0  0  0  0
  192.2390  175.3500  146.5720 O   0  0  0  0  0  0  0  0  0  0  0  0
  189.7130  172.7420  139.1580 C   0  0  0  0  0  2  0  0  0  0  0  0
  185.9030  175.7320  143.2080 O   0  0  0  0  0  0  0  0  0  0  0  0
  190.9460  171.9130  139.6570 C   0  0  1  0  0  3  0  0  0  0  0  0
  187.4790  175.2180  140.9760 C   0  0  0  0  0  2  0  0  0  0  0  0
  191.0540  173.7170  144.0360 C   0  0  1  0  0  3  0  0  0  0  0  0
  190.8820  175.2080  146.6370 C   0  0  1  0  0  0  0  0  0  0  0  0
  185.7770  178.1920  147.2090 C   0  0  0  0  0  2  0  0  0  0  0  0
  184.4500  177.5630  145.2300 O   0  0  0  0  0  1  0  0  0  0  0  0
  188.0600  178.2580  145.6020 O   0  0  0  0  0  0  0  0  0  0  0  0
  190.5440  173.5230  142.5370 C   0  0  1  0  0  3  0  0  0  0  0  0
  189.9270  173.6550  145.1530 C   0  0  0  0  0  2  0  0  0  0  0  0
  186.8950  177.8080  144.9950 C   0  0  0  0  0  0  0  0  0  0  0  0
  190.3800  172.0670  142.3690 C   0  0  0  0  0  2  0  0  0  0  0  0
  189.3550  174.2360  142.4280 O   0  0  0  0  0  0  0  0  0  0  0  0
  186.6780  176.6690  142.8620 C   0  0  0  0  0  0  0  0  0  0  0  0
  190.2930  171.3330  140.9770 C   0  0  0  0  0  2  0  0  0  0  0  0
  187.7280  173.0170  141.5020 F   0  0  0  0  0  0  0  0  0  0  0  0
  187.6550  176.5590  141.7000 C   0  0  2  0  0  3  0  0  0  0  0  0
  190.4380  173.9260  146.4920 O   0  0  0  0  0  0  0  0  0  0  0  0
  188.2480  177.7460  146.8800 C   0  0  0  0  0  0  0  0  0  0  0  0
  190.1900  176.5030  146.1940 C   0  0  1  0  0  3  0  0  0  0  0  0
  185.7190  177.4050  145.8770 C   0  0  1  0  0  3  0  0  0  0  0  0
  192.5850  168.8350  141.5480 F   0  0  0  0  0  0  0  0  0  0  0  0
  193.2800  169.2600  140.3280 C   0  0  1  0  0  3  0  0  0  0  0  0
  193.9080  168.1670  139.4020 C   0  0  0  0  0  2  0  0  0  0  0  0
  191.4260  170.6580  138.6530 C   0  0  1  0  0  0  0  0  0  0  0  0
  194.0240  168.6370  138.0510 O   0  0  0  0  0  0  0  0  0  0  0  0
  192.7740  168.2020  137.6270 C   0  0  0  0  0  2  0  0  0  0  0  0
  190.4760  168.5130  137.9060 O   0  0  0  0  0  1  0  0  0  0  0  0
  192.8210  170.5220  139.3850 C   0  0  0  0  0  2  0  0  0  0  0  0
  191.5680  169.2640  137.7090 C   0  0  1  0  0  3  0  0  0  0  0  0
  191.1900  171.3400  136.1250 O   0  0  0  0  0  1  0  0  0  0  0  0
  190.5740  171.3660  137.4270 C   0  0  0  0  0  2  0  0  0  0  0  0
  187.5450  177.7970  140.8300 C   0  0  0  0  0  0  0  0  0  0  0  0
  186.6080  177.9820  139.9590 O   0  0  0  0  0  0  0  0  0  0  0  0
  188.4940  178.7730  140.9700 O   0  0  0  0  0  1  0  0  0  0  0  0
  189.8450  176.5510  144.6560 C   0  0  0  0  0  2  0  0  0  0  0  0
  190.8350  177.2610  143.9240 O   0  0  0  0  0  1  0  0  0  0  0  0
  192.4200  171.5170  144.5730 C   0  0  0  0  0  1  0  0  0  0  0  0
  192.3510  173.0280  144.4040 C   0  0  1  0  0  3  0  0  0  0  0  0
  193.6690  174.9150  143.5730 N   0  0  0  0  0  0  0  0  0  0  0  0
  195.0290  173.4100  141.7490 C   0  0  0  0  0  3  0  0  0  0  0  0
  195.2440  174.7990  141.8040 C   0  0  0  0  0  3  0  0  0  0  0  0
  194.5260  175.5770  142.7240 C   0  0  0  0  0  3  0  0  0  0  0  0
  193.4520  173.6380  143.5960 C   0  0  0  0  0  0  0  0  0  0  0  0
  194.1370  172.8260  142.6310 C   0  0  0  0  0  3  0  0  0  0  0  0
  1 25  1  1  0  0  0
  1 22  1  0  0  0  0
  2 20  2  0  0  0  0
  5  3  1  6  0  0  0
  6  1  1  0  0  0  0
  8 14  1  0  0  0  0
  8  7  1  0  0  0  0
  9  6  1  0  0  0  0
 11  9  1  6  0  0  0
 11 24  1  0  0  0  0
 12  1  1  0  0  0  0
 12 26  1  0  0  0  0
 13 48  1  1  0  0  0
 13 19  1  0  0  0  0
 14  7  1  1  0  0  0
 15  5  1  0  0  0  0
 17 28  1  0  0  0  0
 18 21  1  1  0  0  0
 18 13  1  0  0  0  0
 19 27  1  0  0  0  0
 20 17  1  0  0  0  0
 20 30  1  0  0  0  0
 22 18  1  0  0  0  0
 23 10  2  0  0  0  0
 23  2  1  0  0  0  0
 24 21  1  0  0  0  0
 26 42  1  6  0  0  0
 26 23  1  0  0  0  0
 27 14  1  0  0  0  0
 28  4  2  0  0  0  0
 28  5  1  0  0  0  0
 29 45  1  6  0  0  0
 29 14  1  0  0  0  0
 29  4  1  0  0  0  0
 30 16  1  6  0  0  0
 30 15  1  0  0  0  0
 32 31  1  6  0  0  0
 33 32  1  0  0  0  0
 34 41  1  6  0  0  0
 34 38  1  0  0  0  0
 34 11  1  0  0  0  0
 35 33  1  0  0  0  0
 36 39  1  0  0  0  0
 36 35  1  0  0  0  0
 38 32  1  0  0  0  0
 39 37  1  1  0  0  0
 39 34  1  0  0  0  0
 40 41  1  0  0  0  0
 42 44  1  0  0  0  0
 43 42  2  0  0  0  0
 46 45  1  0  0  0  0
 48 47  1  6  0  0  0
 49 53  1  0  0  0  0
 50 51  2  0  0  0  0
 50 54  1  0  0  0  0
 51 52  1  0  0  0  0
 52 49  2  0  0  0  0
 53 48  1  0  0  0  0
 54 53  2  0  0  0  0
M  END
>  <MODEL>
5

>  <REMARK>
 VINA RESULT:      -7.9      3.110      9.249
  Name = 
  6 active torsions:
  status: ('A' for Active; 'I' for Inactive)
    1  A    between atoms: C_4  and  C_45
    2  A    between atoms: C_16  and  C_17
    3  A    between atoms: C_16  and  C_54
    4  A    between atoms: C_19  and  C_53
    5  A    between atoms: C_26  and  CA_49
    6  A    between atoms: C_42  and  C_53
                            x       y       z     vdW  Elec       q    Type
                         _______ _______ _______ _____ _____    ______ ____

>  <TORSDO>
F 6

$$$$
=
 OpenBabel11062418333D

 54 59  0  0  1  0  0  0  0  0999 V2000
  188.5630  174.0540  141.3840 C   0  0  2  0  0  0  0  0  0  0  0  0
  186.8590  177.7820  143.7710 N   0  0  0  0  0  0  0  0  0  0  0  0
  187.3920  179.4090  148.5260 O   0  0  0  0  0  1  0  0  0  0  0  0
  189.1580  176.9990  147.1730 N   0  0  0  0  0  0  0  0  0  0  0  0
  187.1850  178.1610  147.9860 C   0  0  1  0  0  3  0  0  0  0  0  0
  189.3270  174.0310  139.9980 C   0  0  0  0  0  2  0  0  0  0  0  0
  191.8590  175.6570  147.9010 C   0  0  0  0  0  2  0  0  0  0  0  0
  192.3540  175.6690  146.5950 O   0  0  0  0  0  0  0  0  0  0  0  0
  189.7490  172.7180  139.3390 C   0  0  0  0  0  2  0  0  0  0  0  0
  185.9190  175.6690  143.4000 O   0  0  0  0  0  0  0  0  0  0  0  0
  191.0300  171.9590  139.8290 C   0  0  1  0  0  3  0  0  0  0  0  0
  187.4570  175.1510  141.1410 C   0  0  0  0  0  2  0  0  0  0  0  0
  191.1750  173.9060  144.1450 C   0  0  1  0  0  3  0  0  0  0  0  0
  191.0060  175.4710  146.7030 C   0  0  1  0  0  0  0  0  0  0  0  0
  185.7920  178.2480  147.3250 C   0  0  0  0  0  2  0  0  0  0  0  0
  184.4410  177.4990  145.4040 O   0  0  0  0  0  1  0  0  0  0  0  0
  188.0260  178.3600  145.6530 O   0  0  0  0  0  0  0  0  0  0  0  0
  190.6340  173.6420  142.6670 C   0  0  1  0  0  3  0  0  0  0  0  0
  190.0820  173.8310  145.2940 C   0  0  0  0  0  2  0  0  0  0  0  0
  186.8660  177.8410  145.0940 C   0  0  0  0  0  0  0  0  0  0  0  0
  190.5310  172.1760  142.5500 C   0  0  0  0  0  2  0  0  0  0  0  0
  189.4130  174.2990  142.5700 O   0  0  0  0  0  0  0  0  0  0  0  0
  186.6430  176.6260  143.0030 C   0  0  0  0  0  0  0  0  0  0  0  0
  190.4390  171.3950  141.1830 C   0  0  0  0  0  2  0  0  0  0  0  0
  187.8170  172.9820  141.7280 F   0  0  0  0  0  0  0  0  0  0  0  0
  187.5920  176.5220  141.8190 C   0  0  2  0  0  3  0  0  0  0  0  0
  190.6150  174.1670  146.6100 O   0  0  0  0  0  0  0  0  0  0  0  0
  188.2700  177.8990  146.9410 C   0  0  0  0  0  0  0  0  0  0  0  0
  190.2460  176.7200  146.2390 C   0  0  1  0  0  3  0  0  0  0  0  0
  185.7330  177.4160  146.0190 C   0  0  1  0  0  3  0  0  0  0  0  0
  193.3360  173.0600  136.7940 F   0  0  0  0  0  0  0  0  0  0  0  0
  192.2920  172.0840  136.4630 C   0  0  1  0  0  3  0  0  0  0  0  0
  192.6200  170.9550  135.4310 C   0  0  0  0  0  2  0  0  0  0  0  0
  191.5390  170.6950  138.8510 C   0  0  1  0  0  0  0  0  0  0  0  0
  191.7780  169.8090  135.6330 O   0  0  0  0  0  0  0  0  0  0  0  0
  192.6160  169.1580  136.5320 C   0  0  0  0  0  2  0  0  0  0  0  0
  193.5490  169.2840  138.6690 O   0  0  0  0  0  1  0  0  0  0  0  0
  191.1940  171.4940  137.5300 C   0  0  0  0  0  2  0  0  0  0  0  0
  192.3440  169.4160  138.0960 C   0  0  1  0  0  3  0  0  0  0  0  0
  190.4420  168.4030  139.5270 O   0  0  0  0  0  1  0  0  0  0  0  0
  191.0060  169.6400  140.0050 C   0  0  0  0  0  2  0  0  0  0  0  0
  187.4050  177.7250  140.9140 C   0  0  0  0  0  0  0  0  0  0  0  0
  186.3690  177.9040  140.1620 O   0  0  0  0  0  0  0  0  0  0  0  0
  188.3910  178.6740  140.8870 O   0  0  0  0  0  1  0  0  0  0  0  0
  189.8590  176.7040  144.7110 C   0  0  0  0  0  2  0  0  0  0  0  0
  190.7950  177.4350  143.9300 O   0  0  0  0  0  1  0  0  0  0  0  0
  192.6670  171.7790  144.6380 C   0  0  0  0  0  1  0  0  0  0  0  0
  192.5110  173.2860  144.4970 C   0  0  1  0  0  3  0  0  0  0  0  0
  193.7510  175.2560  143.7420 N   0  0  0  0  0  0  0  0  0  0  0  0
  195.1090  173.8960  141.8060 C   0  0  0  0  0  3  0  0  0  0  0  0
  195.2830  175.2860  141.9330 C   0  0  0  0  0  3  0  0  0  0  0  0
  194.5650  175.9900  142.9110 C   0  0  0  0  0  3  0  0  0  0  0  0
  193.5730  173.9730  143.6990 C   0  0  0  0  0  0  0  0  0  0  0  0
  194.2570  173.2370  142.6750 C   0  0  0  0  0  3  0  0  0  0  0  0
  1 25  1  1  0  0  0
  1 22  1  0  0  0  0
  2 20  2  0  0  0  0
  5  3  1  6  0  0  0
  6  1  1  0  0  0  0
  8 14  1  0  0  0  0
  8  7  1  0  0  0  0
  9  6  1  0  0  0  0
 11  9  1  6  0  0  0
 11 24  1  0  0  0  0
 12  1  1  0  0  0  0
 12 26  1  0  0  0  0
 13 48  1  1  0  0  0
 13 19  1  0  0  0  0
 14  7  1  1  0  0  0
 15  5  1  0  0  0  0
 17 28  1  0  0  0  0
 18 21  1  1  0  0  0
 18 13  1  0  0  0  0
 19 27  1  0  0  0  0
 20 17  1  0  0  0  0
 20 30  1  0  0  0  0
 22 18  1  0  0  0  0
 23 10  2  0  0  0  0
 23  2  1  0  0  0  0
 24 21  1  0  0  0  0
 26 42  1  6  0  0  0
 26 23  1  0  0  0  0
 27 14  1  0  0  0  0
 28  4  2  0  0  0  0
 28  5  1  0  0  0  0
 29 45  1  6  0  0  0
 29 14  1  0  0  0  0
 29  4  1  0  0  0  0
 30 16  1  6  0  0  0
 30 15  1  0  0  0  0
 32 31  1  1  0  0  0
 32 38  1  0  0  0  0
 33 35  1  0  0  0  0
 33 32  1  0  0  0  0
 34 11  1  0  0  0  0
 34 41  1  1  0  0  0
 35 36  1  0  0  0  0
 36 39  1  0  0  0  0
 38 34  1  0  0  0  0
 39 37  1  1  0  0  0
 39 34  1  0  0  0  0
 40 41  1  0  0  0  0
 43 42  2  0  0  0  0
 44 42  1  0  0  0  0
 46 45  1  0  0  0  0
 48 47  1  6  0  0  0
 50 51  2  0  0  0  0
 50 54  1  0  0  0  0
 51 52  1  0  0  0  0
 52 49  2  0  0  0  0
 53 49  1  0  0  0  0
 53 48  1  0  0  0  0
 54 53  2  0  0  0  0
M  END
>  <MODEL>
6

>  <REMARK>
 VINA RESULT:      -7.6      3.075      9.353
  Name = 
  6 active torsions:
  status: ('A' for Active; 'I' for Inactive)
    1  A    between atoms: C_4  and  C_45
    2  A    between atoms: C_16  and  C_17
    3  A    between atoms: C_16  and  C_54
    4  A    between atoms: C_19  and  C_53
    5  A    between atoms: C_26  and  CA_49
    6  A    between atoms: C_42  and  C_53
                            x       y       z     vdW  Elec       q    Type
                         _______ _______ _______ _____ _____    ______ ____

>  <TORSDO>
F 6

$$$$
=
 OpenBabel11062418333D

 54 59  0  0  1  0  0  0  0  0999 V2000
  189.9440  174.7700  141.8170 C   0  0  2  0  0  0  0  0  0  0  0  0
  192.9300  171.9430  139.4520 N   0  0  0  0  0  0  0  0  0  0  0  0
  197.9410  171.9460  138.7920 O   0  0  0  0  0  1  0  0  0  0  0  0
  196.3410  173.8600  140.9220 N   0  0  0  0  0  0  0  0  0  0  0  0
  196.9970  172.9470  138.7690 C   0  0  1  0  0  3  0  0  0  0  0  0
  188.8430  174.3760  142.8840 C   0  0  0  0  0  2  0  0  0  0  0  0
  197.2120  175.4640  143.4310 C   0  0  0  0  0  2  0  0  0  0  0  0
  196.1330  175.0530  144.2160 O   0  0  0  0  0  0  0  0  0  0  0  0
  187.9170  175.4230  143.5020 C   0  0  0  0  0  2  0  0  0  0  0  0
  191.6930  173.7890  138.7120 O   0  0  0  0  0  0  0  0  0  0  0  0
  188.4240  176.3460  144.6620 C   0  0  1  0  0  3  0  0  0  0  0  0
  189.8140  173.6120  140.7550 C   0  0  0  0  0  2  0  0  0  0  0  0
  193.0440  175.8930  143.7150 C   0  0  1  0  0  3  0  0  0  0  0  0
  195.8530  175.2250  142.8900 C   0  0  1  0  0  0  0  0  0  0  0  0
  196.0920  172.6010  137.5660 C   0  0  0  0  0  2  0  0  0  0  0  0
  193.7720  172.6440  136.7330 O   0  0  0  0  0  1  0  0  0  0  0  0
  195.1160  172.0420  140.1220 O   0  0  0  0  0  0  0  0  0  0  0  0
  191.4760  175.6480  143.5460 C   0  0  1  0  0  3  0  0  0  0  0  0
  193.8180  176.2910  142.3880 C   0  0  0  0  0  2  0  0  0  0  0  0
  194.1650  172.3110  139.1470 C   0  0  0  0  0  0  0  0  0  0  0  0
  190.8750  176.9950  143.5330 C   0  0  0  0  0  2  0  0  0  0  0  0
  191.3100  174.9500  142.3560 O   0  0  0  0  0  0  0  0  0  0  0  0
  191.8050  172.7830  139.4690 C   0  0  0  0  0  0  0  0  0  0  0  0
  189.3490  177.2930  143.7950 C   0  0  0  0  0  2  0  0  0  0  0  0
  189.7420  175.8670  141.0550 F   0  0  0  0  0  0  0  0  0  0  0  0
  190.9060  172.5370  140.6720 C   0  0  2  0  0  3  0  0  0  0  0  0
  195.2590  176.4150  142.5850 O   0  0  0  0  0  0  0  0  0  0  0  0
  196.2080  172.9010  140.0770 C   0  0  0  0  0  0  0  0  0  0  0  0
  195.6490  173.8660  142.2090 C   0  0  1  0  0  3  0  0  0  0  0  0
  194.6130  172.9670  137.8470 C   0  0  1  0  0  3  0  0  0  0  0  0
  185.2830  177.2180  142.4010 F   0  0  0  0  0  0  0  0  0  0  0  0
  185.7950  178.3270  143.2140 C   0  0  1  0  0  3  0  0  0  0  0  0
  184.7710  179.3240  143.8500 C   0  0  0  0  0  2  0  0  0  0  0  0
  187.2410  177.2480  145.4370 C   0  0  1  0  0  0  0  0  0  0  0  0
  185.3210  179.9560  145.0170 O   0  0  0  0  0  0  0  0  0  0  0  0
  184.8800  179.0050  145.9300 C   0  0  0  0  0  2  0  0  0  0  0  0
  185.1190  176.7790  146.5960 O   0  0  0  0  0  1  0  0  0  0  0  0
  187.0970  178.2330  144.2080 C   0  0  0  0  0  2  0  0  0  0  0  0
  185.9070  177.8220  146.3000 C   0  0  1  0  0  3  0  0  0  0  0  0
  188.1140  175.5450  147.2390 O   0  0  0  0  0  1  0  0  0  0  0  0
  187.9970  176.9330  146.8730 C   0  0  0  0  0  2  0  0  0  0  0  0
  190.4170  171.1010  140.6520 C   0  0  0  0  0  0  0  0  0  0  0  0
  190.4410  170.3190  141.6810 O   0  0  0  0  0  1  0  0  0  0  0  0
  189.9270  170.6010  139.4760 O   0  0  0  0  0  0  0  0  0  0  0  0
  194.1500  173.3770  142.1910 C   0  0  0  0  0  2  0  0  0  0  0  0
  193.8710  172.5170  143.2880 O   0  0  0  0  0  1  0  0  0  0  0  0
  193.8690  178.1130  144.8920 C   0  0  0  0  0  1  0  0  0  0  0  0
  193.4820  176.6420  144.9560 C   0  0  1  0  0  3  0  0  0  0  0  0
  192.0200  177.1480  146.8520 N   0  0  0  0  0  0  0  0  0  0  0  0
  191.7960  174.5400  147.6210 C   0  0  0  0  0  3  0  0  0  0  0  0
  191.1910  175.5480  148.3940 C   0  0  0  0  0  3  0  0  0  0  0  0
  191.3280  176.8910  148.0130 C   0  0  0  0  0  3  0  0  0  0  0  0
  192.5700  176.2640  146.0800 C   0  0  0  0  0  0  0  0  0  0  0  0
  192.4870  174.8870  146.4740 C   0  0  0  0  0  3  0  0  0  0  0  0
  1 25  1  6  0  0  0
  1 22  1  0  0  0  0
  1  6  1  0  0  0  0
  2 23  1  0  0  0  0
  4 29  1  0  0  0  0
  5  3  1  1  0  0  0
  5 28  1  0  0  0  0
  6  9  1  0  0  0  0
  7  8  1  0  0  0  0
 10 23  2  0  0  0  0
 11  9  1  6  0  0  0
 11 34  1  0  0  0  0
 12  1  1  0  0  0  0
 13 48  1  1  0  0  0
 14  7  1  6  0  0  0
 14  8  1  0  0  0  0
 15 30  1  0  0  0  0
 15  5  1  0  0  0  0
 18 21  1  6  0  0  0
 18 13  1  0  0  0  0
 19 27  1  0  0  0  0
 19 13  1  0  0  0  0
 20  2  2  0  0  0  0
 20 17  1  0  0  0  0
 21 24  1  0  0  0  0
 22 18  1  0  0  0  0
 23 26  1  0  0  0  0
 24 11  1  0  0  0  0
 26 42  1  6  0  0  0
 26 12  1  0  0  0  0
 27 14  1  0  0  0  0
 28 17  1  0  0  0  0
 28  4  2  0  0  0  0
 29 45  1  6  0  0  0
 29 14  1  0  0  0  0
 30 16  1  6  0  0  0
 30 20  1  0  0  0  0
 32 31  1  1  0  0  0
 32 33  1  0  0  0  0
 32 38  1  0  0  0  0
 33 35  1  0  0  0  0
 34 39  1  0  0  0  0
 34 41  1  1  0  0  0
 35 36  1  0  0  0  0
 36 39  1  0  0  0  0
 38 34  1  0  0  0  0
 39 37  1  6  0  0  0
 41 40  1  0  0  0  0
 42 43  1  0  0  0  0
 44 42  2  0  0  0  0
 45 46  1  0  0  0  0
 48 47  1  6  0  0  0
 48 53  1  0  0  0  0
 49 52  1  0  0  0  0
 50 51  1  0  0  0  0
 52 51  2  0  0  0  0
 53 54  1  0  0  0  0
 53 49  2  0  0  0  0
 54 50  2  0  0  0  0
M  END
>  <MODEL>
7

>  <REMARK>
 VINA RESULT:      -7.5      2.641      6.010
  Name = 
  6 active torsions:
  status: ('A' for Active; 'I' for Inactive)
    1  A    between atoms: C_4  and  C_45
    2  A    between atoms: C_16  and  C_17
    3  A    between atoms: C_16  and  C_54
    4  A    between atoms: C_19  and  C_53
    5  A    between atoms: C_26  and  CA_49
    6  A    between atoms: C_42  and  C_53
                            x       y       z     vdW  Elec       q    Type
                         _______ _______ _______ _____ _____    ______ ____

>  <TORSDO>
F 6

$$$$
=
 OpenBabel11062418333D

 54 59  0  0  1  0  0  0  0  0999 V2000
  190.7490  172.7900  141.4670 C   0  0  2  0  0  0  0  0  0  0  0  0
  193.1030  169.4570  139.0490 N   0  0  0  0  0  0  0  0  0  0  0  0
  197.4610  169.4380  136.4900 O   0  0  0  0  0  1  0  0  0  0  0  0
  196.4450  171.8860  138.4210 N   0  0  0  0  0  0  0  0  0  0  0  0
  196.4200  170.3350  136.5510 C   0  0  1  0  0  3  0  0  0  0  0  0
  190.1900  172.7310  142.9470 C   0  0  0  0  0  2  0  0  0  0  0  0
  197.8850  174.2680  139.7930 C   0  0  0  0  0  2  0  0  0  0  0  0
  197.2470  174.0990  141.0240 O   0  0  0  0  0  0  0  0  0  0  0  0
  189.3900  173.8870  143.5470 C   0  0  0  0  0  2  0  0  0  0  0  0
  191.3930  170.9010  138.3570 O   0  0  0  0  0  0  0  0  0  0  0  0
  190.1210  175.1630  144.0880 C   0  0  1  0  0  3  0  0  0  0  0  0
  190.4370  171.3400  140.9310 C   0  0  0  0  0  2  0  0  0  0  0  0
  194.0920  174.6020  141.5660 C   0  0  1  0  0  3  0  0  0  0  0  0
  196.4820  173.8090  139.9300 C   0  0  1  0  0  0  0  0  0  0  0  0
  195.2120  169.5730  135.9630 C   0  0  0  0  0  2  0  0  0  0  0  0
  192.7760  169.2450  136.1430 O   0  0  0  0  0  1  0  0  0  0  0  0
  195.3340  169.8590  138.7380 O   0  0  0  0  0  0  0  0  0  0  0  0
  192.6330  174.2540  142.1110 C   0  0  1  0  0  3  0  0  0  0  0  0
  194.2570  174.5650  139.9880 C   0  0  0  0  0  2  0  0  0  0  0  0
  194.0640  169.7510  138.1870 C   0  0  0  0  0  0  0  0  0  0  0  0
  191.8530  175.4940  141.9460 C   0  0  0  0  0  2  0  0  0  0  0  0
  192.1670  173.1920  141.3430 O   0  0  0  0  0  0  0  0  0  0  0  0
  191.9370  170.2090  139.2640 C   0  0  0  0  0  0  0  0  0  0  0  0
  190.4980  175.8020  142.6910 C   0  0  0  0  0  2  0  0  0  0  0  0
  190.1060  173.5620  140.5640 F   0  0  0  0  0  0  0  0  0  0  0  0
  191.5880  170.3430  140.7390 C   0  0  2  0  0  3  0  0  0  0  0  0
  195.6290  174.8050  139.5540 O   0  0  0  0  0  0  0  0  0  0  0  0
  196.1770  170.6960  138.0170 C   0  0  0  0  0  0  0  0  0  0  0  0
  196.2750  172.2930  139.8130 C   0  0  1  0  0  3  0  0  0  0  0  0
  193.8970  169.9540  136.6870 C   0  0  1  0  0  3  0  0  0  0  0  0
  186.3270  175.2950  142.9370 F   0  0  0  0  0  0  0  0  0  0  0  0
  186.9450  176.5980  143.2000 C   0  0  1  0  0  3  0  0  0  0  0  0
  186.0820  177.7150  143.8760 C   0  0  0  0  0  2  0  0  0  0  0  0
  189.1660  176.2240  144.9680 C   0  0  1  0  0  0  0  0  0  0  0  0
  186.9100  178.6620  144.5670 O   0  0  0  0  0  0  0  0  0  0  0  0
  186.9140  178.0010  145.7900 C   0  0  0  0  0  2  0  0  0  0  0  0
  187.6220  176.0610  146.8800 O   0  0  0  0  0  1  0  0  0  0  0  0
  188.5060  176.8160  143.6590 C   0  0  0  0  0  2  0  0  0  0  0  0
  188.1370  176.9930  146.0660 C   0  0  1  0  0  3  0  0  0  0  0  0
  191.0510  175.1150  146.4280 O   0  0  0  0  0  1  0  0  0  0  0  0
  190.3880  176.3440  146.0740 C   0  0  0  0  0  2  0  0  0  0  0  0
  191.3700  168.9640  141.3340 C   0  0  0  0  0  0  0  0  0  0  0  0
  192.0550  168.4920  142.3230 O   0  0  0  0  0  1  0  0  0  0  0  0
  190.3980  168.1710  140.7880 O   0  0  0  0  0  0  0  0  0  0  0  0
  194.9740  171.7670  140.5330 C   0  0  0  0  0  2  0  0  0  0  0  0
  195.2620  171.2860  141.8390 O   0  0  0  0  0  1  0  0  0  0  0  0
  194.6910  177.1710  141.7570 C   0  0  0  0  0  1  0  0  0  0  0  0
  194.8180  175.7380  142.2560 C   0  0  1  0  0  3  0  0  0  0  0  0
  194.1210  176.4430  144.4930 N   0  0  0  0  0  0  0  0  0  0  0  0
  195.4360  174.4110  145.7510 C   0  0  0  0  0  3  0  0  0  0  0  0
  194.7740  175.3900  146.5140 C   0  0  0  0  0  3  0  0  0  0  0  0
  194.1200  176.4490  145.8680 C   0  0  0  0  0  3  0  0  0  0  0  0
  194.6820  175.5550  143.7340 C   0  0  0  0  0  0  0  0  0  0  0  0
  195.4000  174.4890  144.3700 C   0  0  0  0  0  3  0  0  0  0  0  0
  1 25  1  6  0  0  0
  1  6  1  0  0  0  0
  2 23  1  0  0  0  0
  4 29  1  0  0  0  0
  5  3  1  1  0  0  0
  5 28  1  0  0  0  0
  6  9  1  0  0  0  0
  7  8  1  0  0  0  0
  9 11  1  0  0  0  0
 10 23  2  0  0  0  0
 11 24  1  6  0  0  0
 11 34  1  0  0  0  0
 12  1  1  0  0  0  0
 13 18  1  0  0  0  0
 13 48  1  6  0  0  0
 14  7  1  6  0  0  0
 14  8  1  0  0  0  0
 15  5  1  0  0  0  0
 15 30  1  0  0  0  0
 18 21  1  6  0  0  0
 19 13  1  0  0  0  0
 20 17  1  0  0  0  0
 20  2  2  0  0  0  0
 21 24  1  0  0  0  0
 22  1  1  0  0  0  0
 22 18  1  0  0  0  0
 23 26  1  0  0  0  0
 26 12  1  0  0  0  0
 26 42  1  6  0  0  0
 27 14  1  0  0  0  0
 27 19  1  0  0  0  0
 28  4  2  0  0  0  0
 28 17  1  0  0  0  0
 29 14  1  0  0  0  0
 29 45  1  6  0  0  0
 30 16  1  6  0  0  0
 30 20  1  0  0  0  0
 32 31  1  1  0  0  0
 32 38  1  0  0  0  0
 32 33  1  0  0  0  0
 33 35  1  0  0  0  0
 34 39  1  0  0  0  0
 34 41  1  1  0  0  0
 35 36  1  0  0  0  0
 36 39  1  0  0  0  0
 38 34  1  0  0  0  0
 39 37  1  6  0  0  0
 41 40  1  0  0  0  0
 42 43  1  0  0  0  0
 44 42  2  0  0  0  0
 45 46  1  0  0  0  0
 48 47  1  6  0  0  0
 48 53  1  0  0  0  0
 49 52  1  0  0  0  0
 50 51  1  0  0  0  0
 52 51  2  0  0  0  0
 53 54  1  0  0  0  0
 53 49  2  0  0  0  0
 54 50  2  0  0  0  0
M  END
>  <MODEL>
8

>  <REMARK>
 VINA RESULT:      -7.3      2.978      6.354
  Name = 
  6 active torsions:
  status: ('A' for Active; 'I' for Inactive)
    1  A    between atoms: C_4  and  C_45
    2  A    between atoms: C_16  and  C_17
    3  A    between atoms: C_16  and  C_54
    4  A    between atoms: C_19  and  C_53
    5  A    between atoms: C_26  and  CA_49
    6  A    between atoms: C_42  and  C_53
                            x       y       z     vdW  Elec       q    Type
                         _______ _______ _______ _____ _____    ______ ____

>  <TORSDO>
F 6

$$$$
=
 OpenBabel11062418333D

 54 59  0  0  1  0  0  0  0  0999 V2000
  190.3270  174.3940  141.4960 C   0  0  2  0  0  0  0  0  0  0  0  0
  192.6890  171.8590  138.2560 N   0  0  0  0  0  0  0  0  0  0  0  0
  197.4630  171.9140  136.5980 O   0  0  0  0  0  1  0  0  0  0  0  0
  196.3830  173.5610  139.2200 N   0  0  0  0  0  0  0  0  0  0  0  0
  196.5660  172.9150  136.8860 C   0  0  1  0  0  3  0  0  0  0  0  0
  189.4510  173.8790  142.7100 C   0  0  0  0  0  2  0  0  0  0  0  0
  197.7890  174.8410  141.6720 C   0  0  0  0  0  2  0  0  0  0  0  0
  196.8780  174.3430  142.6060 O   0  0  0  0  0  0  0  0  0  0  0  0
  188.7010  174.8480  143.6230 C   0  0  0  0  0  2  0  0  0  0  0  0
  191.3860  173.7900  138.0070 O   0  0  0  0  0  0  0  0  0  0  0  0
  189.4580  175.6190  144.7580 C   0  0  1  0  0  3  0  0  0  0  0  0
  189.9510  173.3750  140.3520 C   0  0  0  0  0  2  0  0  0  0  0  0
  193.7780  175.2570  142.8450 C   0  0  1  0  0  3  0  0  0  0  0  0
  196.3420  174.6780  141.3940 C   0  0  1  0  0  0  0  0  0  0  0  0
  195.4270  172.7250  135.8590 C   0  0  0  0  0  2  0  0  0  0  0  0
  192.9900  172.8840  135.5260 O   0  0  0  0  0  1  0  0  0  0  0  0
  194.9670  171.8630  138.4750 O   0  0  0  0  0  0  0  0  0  0  0  0
  192.2010  175.0450  142.9700 C   0  0  1  0  0  3  0  0  0  0  0  0
  194.2820  175.8100  141.4450 C   0  0  0  0  0  2  0  0  0  0  0  0
  193.8480  172.2550  137.7530 C   0  0  0  0  0  0  0  0  0  0  0  0
  191.6510  176.3860  143.2390 C   0  0  0  0  0  2  0  0  0  0  0  0
  191.7790  174.4980  141.7640 O   0  0  0  0  0  0  0  0  0  0  0  0
  191.6170  172.6980  138.6000 C   0  0  0  0  0  0  0  0  0  0  0  0
  190.2180  176.6590  143.8390 C   0  0  0  0  0  2  0  0  0  0  0  0
  190.0100  175.5770  140.9270 F   0  0  0  0  0  0  0  0  0  0  0  0
  190.9710  172.3130  139.9230 C   0  0  2  0  0  3  0  0  0  0  0  0
  195.7350  175.9000  141.3600 O   0  0  0  0  0  0  0  0  0  0  0  0
  196.0540  172.7140  138.3120 C   0  0  0  0  0  0  0  0  0  0  0  0
  195.9640  173.4140  140.6120 C   0  0  1  0  0  3  0  0  0  0  0  0
  194.0470  173.0630  136.4760 C   0  0  1  0  0  3  0  0  0  0  0  0
  185.6860  176.0430  143.6030 F   0  0  0  0  0  0  0  0  0  0  0  0
  186.2960  177.2370  144.1980 C   0  0  1  0  0  3  0  0  0  0  0  0
  185.4160  178.1490  145.1150 C   0  0  0  0  0  2  0  0  0  0  0  0
  188.4830  176.4260  145.8580 C   0  0  1  0  0  0  0  0  0  0  0  0
  186.2280  178.8910  146.0390 O   0  0  0  0  0  0  0  0  0  0  0  0
  186.2110  177.9440  147.0560 C   0  0  0  0  0  2  0  0  0  0  0  0
  186.9040  175.7900  147.6370 O   0  0  0  0  0  1  0  0  0  0  0  0
  187.8460  177.3290  144.7270 C   0  0  0  0  0  2  0  0  0  0  0  0
  187.4310  176.8960  147.0930 C   0  0  1  0  0  3  0  0  0  0  0  0
  190.0950  174.9150  147.2830 O   0  0  0  0  0  1  0  0  0  0  0  0
  189.6830  176.2630  146.9820 C   0  0  0  0  0  2  0  0  0  0  0  0
  190.4430  170.8930  139.8320 C   0  0  0  0  0  0  0  0  0  0  0  0
  189.6820  170.4690  138.8780 O   0  0  0  0  0  0  0  0  0  0  0  0
  190.7890  170.0100  140.8200 O   0  0  0  0  0  1  0  0  0  0  0  0
  194.4780  172.9400  140.8400 C   0  0  0  0  0  2  0  0  0  0  0  0
  194.4200  171.8000  141.6880 O   0  0  0  0  0  1  0  0  0  0  0  0
  193.8590  176.9920  144.8400 C   0  0  0  0  0  1  0  0  0  0  0  0
  194.4780  175.8460  144.0520 C   0  0  1  0  0  3  0  0  0  0  0  0
  196.1460  174.8210  145.5200 N   0  0  0  0  0  0  0  0  0  0  0  0
  195.0410  172.3320  145.3550 C   0  0  0  0  0  3  0  0  0  0  0  0
  196.2350  172.5170  146.0750 C   0  0  0  0  0  3  0  0  0  0  0  0
  196.8170  173.7910  146.1380 C   0  0  0  0  0  3  0  0  0  0  0  0
  195.0280  174.7220  144.8710 C   0  0  0  0  0  0  0  0  0  0  0  0
  194.4380  173.4200  144.7500 C   0  0  0  0  0  3  0  0  0  0  0  0
  1 25  1  6  0  0  0
  1 22  1  0  0  0  0
  1  6  1  0  0  0  0
  2 23  1  0  0  0  0
  4 29  1  0  0  0  0
  5  3  1  6  0  0  0
  5 28  1  0  0  0  0
  6  9  1  0  0  0  0
  7  8  1  0  0  0  0
 10 23  2  0  0  0  0
 11  9  1  6  0  0  0
 11 34  1  0  0  0  0
 12  1  1  0  0  0  0
 13 18  1  0  0  0  0
 13 48  1  1  0  0  0
 14  7  1  6  0  0  0
 14  8  1  0  0  0  0
 15 30  1  0  0  0  0
 15  5  1  0  0  0  0
 18 21  1  6  0  0  0
 19 13  1  0  0  0  0
 20  2  2  0  0  0  0
 20 17  1  0  0  0  0
 21 24  1  0  0  0  0
 22 18  1  0  0  0  0
 23 26  1  0  0  0  0
 24 11  1  0  0  0  0
 26 42  1  6  0  0  0
 26 12  1  0  0  0  0
 27 14  1  0  0  0  0
 27 19  1  0  0  0  0
 28 17  1  0  0  0  0
 28  4  2  0  0  0  0
 29 45  1  6  0  0  0
 29 14  1  0  0  0  0
 30 16  1  6  0  0  0
 30 20  1  0  0  0  0
 32 31  1  1  0  0  0
 32 38  1  0  0  0  0
 32 33  1  0  0  0  0
 33 35  1  0  0  0  0
 34 41  1  1  0  0  0
 34 39  1  0  0  0  0
 35 36  1  0  0  0  0
 36 39  1  0  0  0  0
 38 34  1  0  0  0  0
 39 37  1  6  0  0  0
 41 40  1  0  0  0  0
 42 44  1  0  0  0  0
 43 42  2  0  0  0  0
 45 46  1  0  0  0  0
 48 47  1  1  0  0  0
 48 53  1  0  0  0  0
 49 52  1  0  0  0  0
 50 51  1  0  0  0  0
 51 52  2  0  0  0  0
 53 49  2  0  0  0  0
 54 53  1  0  0  0  0
 54 50  2  0  0  0  0
M  END
>  <MODEL>
9

>  <REMARK>
 VINA RESULT:      -7.2      2.861      6.400
  Name = 
  6 active torsions:
  status: ('A' for Active; 'I' for Inactive)
    1  A    between atoms: C_4  and  C_45
    2  A    between atoms: C_16  and  C_17
    3  A    between atoms: C_16  and  C_54
    4  A    between atoms: C_19  and  C_53
    5  A    between atoms: C_26  and  CA_49
    6  A    between atoms: C_42  and  C_53
                            x       y       z     vdW  Elec       q    Type
                         _______ _______ _______ _____ _____    ______ ____

>  <TORSDO>
F 6

$$$$
