=
 OpenBabel11062422273D

 36 43  0  0  1  0  0  0  0  0999 V2000
  192.6550  176.4110  146.8520 N   0  0  0  0  0  1  0  0  0  0  0  0
  193.3790  176.1300  145.6580 C   0  0  0  0  0  0  0  0  0  0  0  0
  192.8550  176.1500  144.3830 C   0  0  0  0  0  0  0  0  0  0  0  0
  194.6840  175.7920  145.6530 N   0  0  0  0  0  2  0  0  0  0  0  0
  193.8970  175.7900  143.5580 C   0  0  0  0  0  0  0  0  0  0  0  0
  195.0100  175.5860  144.3570 C   0  0  0  0  0  3  0  0  0  0  0  0
  191.1450  177.8650  144.3250 C   0  0  2  0  0  3  0  0  0  0  0  0
  190.2930  175.9330  144.6710 N   0  0  0  0  0  2  0  0  0  0  0  0
  191.4490  176.4720  143.9630 C   0  0  2  0  0  0  0  0  0  0  0  0
  189.9390  177.2900  145.0410 C   0  0  2  0  0  3  0  0  0  0  0  0
  191.1750  177.4630  142.9110 N   0  0  0  0  0  2  0  0  0  0  0  0
  188.6270  177.7010  144.3790 C   0  0  0  0  0  2  0  0  0  0  0  0
  185.4260  179.2050  145.9070 C   0  0  1  0  0  3  0  0  0  0  0  0
  187.5260  177.8200  145.4250 C   0  0  1  0  0  3  0  0  0  0  0  0
  185.5880  177.3730  147.3790 C   0  0  0  0  0  2  0  0  0  0  0  0
  184.5470  178.1630  146.5830 C   0  0  2  0  0  0  0  0  0  0  0  0
  185.1280  176.8300  146.0690 C   0  0  1  0  0  3  0  0  0  0  0  0
  186.3590  178.6060  144.8500 C   0  0  1  0  0  3  0  0  0  0  0  0
  184.1740  178.9090  145.4290 O   0  0  0  0  0  0  0  0  0  0  0  0
  186.2260  177.1030  145.0150 C   0  0  1  0  0  0  0  0  0  0  0  0
  186.1010  176.4180  143.6570 C   0  0  0  0  0  2  0  0  0  0  0  0
  185.3640  177.3170  142.6830 C   0  0  0  0  0  1  0  0  0  0  0  0
  193.8420  175.6710  142.0730 C   0  0  0  0  0  2  0  0  0  0  0  0
  193.6020  174.2860  141.6890 N   0  0  0  0  0  2  0  0  0  0  0  0
  191.7930  173.8360  140.2320 C   0  0  0  0  0  3  0  0  0  0  0  0
  191.4650  173.2140  142.6280 C   0  0  1  0  0  3  0  0  0  0  0  0
  189.2620  174.7820  141.3870 O   0  0  0  0  0  1  0  0  0  0  0  0
  192.2960  173.7480  141.4680 C   0  0  0  0  0  0  0  0  0  0  0  0
  189.4550  173.4330  141.0530 C   0  0  2  0  0  0  0  0  0  0  0  0
  190.0870  172.6680  142.2270 C   0  0  0  0  0  2  0  0  0  0  0  0
  190.4230  173.3420  139.8750 C   0  0  0  0  0  2  0  0  0  0  0  0
  192.5170  170.9590  142.7870 O   0  0  0  0  0  0  0  0  0  0  0  0
  192.1920  172.1590  143.4020 C   0  0  0  0  0  0  0  0  0  0  0  0
  192.5610  172.3710  144.5880 O   0  0  0  0  0  1  0  0  0  0  0  0
  188.2370  172.8360  140.6550 O   0  0  0  0  0  0  0  0  0  0  0  0
  188.2370  172.6540  139.2600 C   0  0  0  0  0  1  0  0  0  0  0  0
  2  1  1  0  0  0  0
  3  2  2  0  0  0  0
  4  2  1  0  0  0  0
  5  6  2  0  0  0  0
  5  3  1  0  0  0  0
  6  4  1  0  0  0  0
  7 11  1  6  0  0  0
  7 10  1  0  0  0  0
  8 10  1  0  0  0  0
  9  7  1  0  0  0  0
  9  3  1  1  0  0  0
  9  8  1  0  0  0  0
 10 12  1  6  0  0  0
 11  9  1  0  0  0  0
 13 19  1  6  0  0  0
 13 16  1  0  0  0  0
 14 12  1  6  0  0  0
 16 15  1  1  0  0  0
 17 16  1  0  0  0  0
 17 15  1  1  0  0  0
 18 20  1  0  0  0  0
 18 14  1  0  0  0  0
 18 13  1  0  0  0  0
 19 16  1  0  0  0  0
 20 14  1  0  0  0  0
 20 17  1  0  0  0  0
 21 20  1  0  0  0  0
 22 21  1  0  0  0  0
 23  5  1  0  0  0  0
 24 23  1  0  0  0  0
 25 28  2  0  0  0  0
 26 33  1  0  0  0  0
 28 24  1  0  0  0  0
 28 26  1  0  0  0  0
 29 27  1  0  0  0  0
 29 30  1  0  0  0  0
 30 26  1  0  0  0  0
 31 25  1  0  0  0  0
 31 29  1  0  0  0  0
 32 33  2  0  0  0  0
 33 34  1  0  0  0  0
 35 29  1  0  0  0  0
 36 35  1  0  0  0  0
M  END
>  <MODEL>
1

>  <REMARK>
 VINA RESULT:      -7.3      0.000      0.000
  Name = 
  9 active torsions:
  status: ('A' for Active; 'I' for Inactive)
    1  A    between atoms: C_4  and  C_29
    2  A    between atoms: C_6  and  C_9
    3  A    between atoms: C_9  and  C_21
    4  A    between atoms: O_10  and  C_15
    5  A    between atoms: C_13  and  C_32
    6  A    between atoms: C_14  and  N_24
    7  A    between atoms: C_20  and  C_25
    8  A    between atoms: N_24  and  C_36
    9  A    between atoms: C_30  and  C_36
                            x       y       z     vdW  Elec       q    Type
                         _______ _______ _______ _____ _____    ______ ____

>  <TORSDO>
F 9

$$$$
=
 OpenBabel11062422273D

 36 43  0  0  1  0  0  0  0  0999 V2000
  189.8110  171.8850  138.8960 N   0  0  0  0  0  1  0  0  0  0  0  0
  189.9960  171.7830  140.3050 C   0  0  0  0  0  0  0  0  0  0  0  0
  189.3450  172.5450  141.2520 C   0  0  1  0  0  3  0  0  0  0  0  0
  190.8600  170.9180  140.8710 N   0  0  0  0  0  0  0  0  0  0  0  0
  189.8540  172.1280  142.4620 C   0  0  0  0  0  0  0  0  0  0  0  0
  190.7730  171.1240  142.2050 C   0  0  0  0  0  3  0  0  0  0  0  0
  188.9490  174.9340  141.2000 C   0  0  2  0  0  3  0  0  0  0  0  0
  187.2690  173.8880  142.0150 N   0  0  0  0  0  2  0  0  0  0  0  0
  188.3150  173.6170  141.0340 C   0  0  2  0  0  0  0  0  0  0  0  0
  187.8460  175.2060  142.2030 C   0  0  2  0  0  3  0  0  0  0  0  0
  188.4050  174.5390  139.8920 N   0  0  0  0  0  2  0  0  0  0  0  0
  186.8810  176.2860  141.7190 C   0  0  0  0  0  2  0  0  0  0  0  0
  186.3620  179.2070  144.1760 C   0  0  1  0  0  3  0  0  0  0  0  0
  186.2360  176.9850  142.9090 C   0  0  1  0  0  3  0  0  0  0  0  0
  184.5110  177.9330  144.8830 C   0  0  0  0  0  2  0  0  0  0  0  0
  184.9080  179.3810  144.5890 C   0  0  2  0  0  0  0  0  0  0  0  0
  184.1470  178.5190  143.5610 C   0  0  1  0  0  3  0  0  0  0  0  0
  186.5200  178.4770  142.8390 C   0  0  1  0  0  3  0  0  0  0  0  0
  185.6540  180.3340  143.8380 O   0  0  0  0  0  0  0  0  0  0  0  0
  185.1290  177.9740  142.4980 C   0  0  1  0  0  0  0  0  0  0  0  0
  184.8070  178.2260  141.0280 C   0  0  0  0  0  2  0  0  0  0  0  0
  183.3050  178.2720  140.8230 C   0  0  0  0  0  1  0  0  0  0  0  0
  189.4630  172.6450  143.8050 C   0  0  0  0  0  2  0  0  0  0  0  0
  190.4100  173.6600  144.2460 N   0  0  0  0  0  2  0  0  0  0  0  0
  189.5970  174.4900  146.3070 C   0  0  0  0  0  3  0  0  0  0  0  0
  190.0510  176.1870  144.5340 C   0  0  1  0  0  3  0  0  0  0  0  0
  187.4020  176.3950  145.8730 O   0  0  0  0  0  1  0  0  0  0  0  0
  190.0460  174.7650  145.0780 C   0  0  0  0  0  0  0  0  0  0  0  0
  188.5750  176.7700  146.5460 C   0  0  2  0  0  0  0  0  0  0  0  0
  189.6390  177.2610  145.5510 C   0  0  0  0  0  2  0  0  0  0  0  0
  189.1500  175.5530  147.2670 C   0  0  0  0  0  2  0  0  0  0  0  0
  192.5400  176.2670  144.6480 O   0  0  0  0  0  1  0  0  0  0  0  0
  191.3780  176.5630  143.9520 C   0  0  0  0  0  0  0  0  0  0  0  0
  191.4520  177.0930  142.8110 O   0  0  0  0  0  0  0  0  0  0  0  0
  188.2990  177.7550  147.5210 O   0  0  0  0  0  0  0  0  0  0  0  0
  186.9100  177.9680  147.5930 C   0  0  0  0  0  1  0  0  0  0  0  0
  1  2  1  0  0  0  0
  2  4  2  0  0  0  0
  3  2  1  6  0  0  0
  3  5  1  0  0  0  0
  4  6  1  0  0  0  0
  5 23  1  0  0  0  0
  6  5  2  0  0  0  0
  7 11  1  6  0  0  0
  7 10  1  0  0  0  0
  8 10  1  0  0  0  0
  9 11  1  6  0  0  0
  9  7  1  0  0  0  0
  9  3  1  0  0  0  0
  9  8  1  0  0  0  0
 10 12  1  6  0  0  0
 13 19  1  6  0  0  0
 13 16  1  0  0  0  0
 14 12  1  6  0  0  0
 16 15  1  1  0  0  0
 17 16  1  0  0  0  0
 17 15  1  1  0  0  0
 18 14  1  0  0  0  0
 18 13  1  0  0  0  0
 19 16  1  0  0  0  0
 20 18  1  0  0  0  0
 20 14  1  0  0  0  0
 20 17  1  0  0  0  0
 21 20  1  0  0  0  0
 22 21  1  0  0  0  0
 23 24  1  0  0  0  0
 24 28  1  0  0  0  0
 25 31  1  0  0  0  0
 26 28  1  0  0  0  0
 26 30  1  0  0  0  0
 27 29  1  0  0  0  0
 28 25  2  0  0  0  0
 29 31  1  0  0  0  0
 29 35  1  0  0  0  0
 30 29  1  0  0  0  0
 33 26  1  0  0  0  0
 33 32  1  0  0  0  0
 34 33  2  0  0  0  0
 35 36  1  0  0  0  0
M  END
>  <MODEL>
2

>  <REMARK>
 VINA RESULT:      -7.1      2.797      5.416
  Name = 
  9 active torsions:
  status: ('A' for Active; 'I' for Inactive)
    1  A    between atoms: C_4  and  C_29
    2  A    between atoms: C_6  and  C_9
    3  A    between atoms: C_9  and  C_21
    4  A    between atoms: O_10  and  C_15
    5  A    between atoms: C_13  and  C_32
    6  A    between atoms: C_14  and  N_24
    7  A    between atoms: C_20  and  C_25
    8  A    between atoms: N_24  and  C_36
    9  A    between atoms: C_30  and  C_36
                            x       y       z     vdW  Elec       q    Type
                         _______ _______ _______ _____ _____    ______ ____

>  <TORSDO>
F 9

$$$$
=
 OpenBabel11062422273D

 36 43  0  0  1  0  0  0  0  0999 V2000
  189.4480  173.7210  138.0710 N   0  0  0  0  0  1  0  0  0  0  0  0
  190.1200  173.4080  139.2880 C   0  0  0  0  0  0  0  0  0  0  0  0
  189.6510  173.6900  140.5530 C   0  0  1  0  0  3  0  0  0  0  0  0
  191.3210  172.7990  139.3270 N   0  0  0  0  0  0  0  0  0  0  0  0
  190.6310  173.2400  141.4100 C   0  0  0  0  0  0  0  0  0  0  0  0
  191.6400  172.6890  140.6360 C   0  0  0  0  0  3  0  0  0  0  0  0
  188.6480  175.7340  141.3810 C   0  0  2  0  0  3  0  0  0  0  0  0
  187.6500  174.0100  142.1620 N   0  0  0  0  0  2  0  0  0  0  0  0
  188.3630  174.3610  140.9380 C   0  0  2  0  0  0  0  0  0  0  0  0
  187.8900  175.3580  142.6390 C   0  0  2  0  0  3  0  0  0  0  0  0
  187.8410  175.5050  140.1740 N   0  0  0  0  0  2  0  0  0  0  0  0
  186.5750  176.1230  142.7670 C   0  0  0  0  0  2  0  0  0  0  0  0
  187.2470  176.7390  146.5110 C   0  0  1  0  0  3  0  0  0  0  0  0
  186.1810  176.2470  144.2340 C   0  0  1  0  0  3  0  0  0  0  0  0
  184.8960  176.7230  146.6620 C   0  0  0  0  0  2  0  0  0  0  0  0
  186.1110  177.4800  147.2010 C   0  0  2  0  0  0  0  0  0  0  0  0
  185.2750  178.0150  146.0210 C   0  0  1  0  0  3  0  0  0  0  0  0
  187.2790  176.9710  144.9970 C   0  0  1  0  0  3  0  0  0  0  0  0
  187.4260  177.9990  147.0280 O   0  0  0  0  0  0  0  0  0  0  0  0
  185.9890  177.7070  144.6840 C   0  0  1  0  0  0  0  0  0  0  0  0
  186.2440  178.8650  143.7250 C   0  0  0  0  0  2  0  0  0  0  0  0
  185.4220  180.0730  144.1330 C   0  0  0  0  0  1  0  0  0  0  0  0
  190.5970  173.3100  142.8990 C   0  0  0  0  0  2  0  0  0  0  0  0
  191.7500  174.0490  143.3930 N   0  0  0  0  0  2  0  0  0  0  0  0
  192.3970  174.3640  145.6470 C   0  0  0  0  0  3  0  0  0  0  0  0
  190.8640  176.0840  144.6850 C   0  0  1  0  0  3  0  0  0  0  0  0
  190.0650  174.9740  147.3270 O   0  0  0  0  0  1  0  0  0  0  0  0
  191.7270  174.8320  144.5890 C   0  0  0  0  0  0  0  0  0  0  0  0
  191.1450  175.8640  147.2230 C   0  0  2  0  0  0  0  0  0  0  0  0
  190.9500  176.8160  146.0320 C   0  0  0  0  0  2  0  0  0  0  0  0
  192.4250  175.0710  146.9700 C   0  0  0  0  0  2  0  0  0  0  0  0
  190.2950  178.1160  143.3580 O   0  0  0  0  0  1  0  0  0  0  0  0
  191.1630  177.0600  143.5900 C   0  0  0  0  0  0  0  0  0  0  0  0
  192.2230  176.9630  142.9150 O   0  0  0  0  0  0  0  0  0  0  0  0
  191.3170  176.5840  148.4270 O   0  0  0  0  0  0  0  0  0  0  0  0
  190.7320  177.8580  148.2990 C   0  0  0  0  0  1  0  0  0  0  0  0
  1  2  1  0  0  0  0
  2  4  2  0  0  0  0
  3  2  1  6  0  0  0
  3  9  1  0  0  0  0
  3  5  1  0  0  0  0
  4  6  1  0  0  0  0
  5 23  1  0  0  0  0
  6  5  2  0  0  0  0
  7 11  1  6  0  0  0
  7 10  1  0  0  0  0
  8 10  1  0  0  0  0
  9 11  1  6  0  0  0
  9  7  1  0  0  0  0
  9  8  1  0  0  0  0
 10 12  1  6  0  0  0
 13 19  1  1  0  0  0
 13 16  1  0  0  0  0
 14 12  1  6  0  0  0
 14 20  1  0  0  0  0
 14 18  1  0  0  0  0
 16 15  1  1  0  0  0
 17 15  1  6  0  0  0
 17 16  1  0  0  0  0
 18 13  1  0  0  0  0
 19 16  1  0  0  0  0
 20 18  1  0  0  0  0
 20 17  1  0  0  0  0
 21 22  1  0  0  0  0
 21 20  1  0  0  0  0
 23 24  1  0  0  0  0
 24 28  1  0  0  0  0
 25 31  1  0  0  0  0
 26 30  1  0  0  0  0
 28 26  1  0  0  0  0
 28 25  2  0  0  0  0
 29 27  1  0  0  0  0
 29 35  1  0  0  0  0
 30 29  1  0  0  0  0
 31 29  1  0  0  0  0
 32 33  1  0  0  0  0
 33 26  1  0  0  0  0
 34 33  2  0  0  0  0
 36 35  1  0  0  0  0
M  END
>  <MODEL>
3

>  <REMARK>
 VINA RESULT:      -7.1      2.653      5.309
  Name = 
  9 active torsions:
  status: ('A' for Active; 'I' for Inactive)
    1  A    between atoms: C_4  and  C_29
    2  A    between atoms: C_6  and  C_9
    3  A    between atoms: C_9  and  C_21
    4  A    between atoms: O_10  and  C_15
    5  A    between atoms: C_13  and  C_32
    6  A    between atoms: C_14  and  N_24
    7  A    between atoms: C_20  and  C_25
    8  A    between atoms: N_24  and  C_36
    9  A    between atoms: C_30  and  C_36
                            x       y       z     vdW  Elec       q    Type
                         _______ _______ _______ _____ _____    ______ ____

>  <TORSDO>
F 9

$$$$
=
 OpenBabel11062422273D

 36 43  0  0  1  0  0  0  0  0999 V2000
  188.7190  174.1930  139.9800 N   0  0  0  0  0  1  0  0  0  0  0  0
  189.8900  173.4930  140.3910 C   0  0  0  0  0  0  0  0  0  0  0  0
  190.5190  173.6380  141.6090 C   0  0  1  0  0  3  0  0  0  0  0  0
  190.5270  172.6030  139.6060 N   0  0  0  0  0  0  0  0  0  0  0  0
  191.6090  172.7980  141.5540 C   0  0  0  0  0  0  0  0  0  0  0  0
  191.5880  172.1670  140.3210 C   0  0  0  0  0  3  0  0  0  0  0  0
  188.6650  174.5460  142.8750 C   0  0  2  0  0  3  0  0  0  0  0  0
  190.2390  175.9810  142.6700 N   0  0  0  0  0  2  0  0  0  0  0  0
  190.1310  174.5280  142.7550 C   0  0  2  0  0  0  0  0  0  0  0  0
  188.7960  176.0540  142.8020 C   0  0  2  0  0  3  0  0  0  0  0  0
  189.4840  173.9840  143.9590 N   0  0  0  0  0  2  0  0  0  0  0  0
  188.4140  176.7290  144.1180 C   0  0  0  0  0  2  0  0  0  0  0  0
  185.1370  178.2180  142.7430 C   0  0  1  0  0  3  0  0  0  0  0  0
  187.4120  177.8480  143.8610 C   0  0  1  0  0  3  0  0  0  0  0  0
  185.7850  180.1080  143.9910 C   0  0  0  0  0  2  0  0  0  0  0  0
  184.5430  179.2820  143.6540 C   0  0  2  0  0  0  0  0  0  0  0  0
  185.3200  179.0860  144.9720 C   0  0  1  0  0  3  0  0  0  0  0  0
  186.0660  177.2500  143.4800 C   0  0  1  0  0  3  0  0  0  0  0  0
  183.9270  178.0300  143.3640 O   0  0  0  0  0  0  0  0  0  0  0  0
  186.2430  177.8500  144.8630 C   0  0  1  0  0  0  0  0  0  0  0  0
  186.1290  176.7750  145.9400 C   0  0  0  0  0  2  0  0  0  0  0  0
  184.8250  176.9310  146.6990 C   0  0  0  0  0  1  0  0  0  0  0  0
  192.6130  172.5880  142.6370 C   0  0  0  0  0  2  0  0  0  0  0  0
  193.4230  173.7860  142.8090 N   0  0  0  0  0  0  0  0  0  0  0  0
  192.8550  174.0300  145.0930 C   0  0  0  0  0  2  0  0  0  0  0  0
  193.9730  175.9850  144.0170 C   0  0  1  0  0  3  0  0  0  0  0  0
  191.5070  176.5980  145.5650 O   0  0  0  0  0  1  0  0  0  0  0  0
  193.4340  174.5610  144.0110 C   0  0  0  0  0  0  0  0  0  0  0  0
  192.7010  176.2650  146.2240 C   0  0  2  0  0  0  0  0  0  0  0  0
  193.9190  176.6830  145.3840 C   0  0  0  0  0  2  0  0  0  0  0  0
  192.7680  174.7510  146.4050 C   0  0  0  0  0  2  0  0  0  0  0  0
  196.4110  175.5170  144.2400 O   0  0  0  0  0  1  0  0  0  0  0  0
  195.3740  176.0600  143.4960 C   0  0  0  0  0  0  0  0  0  0  0  0
  195.6140  176.5590  142.3640 O   0  0  0  0  0  0  0  0  0  0  0  0
  192.7440  176.8540  147.5080 O   0  0  0  0  0  0  0  0  0  0  0  0
  191.4770  176.7570  148.1120 C   0  0  0  0  0  1  0  0  0  0  0  0
  1  2  1  0  0  0  0
  3  2  1  6  0  0  0
  3  9  1  0  0  0  0
  4  6  1  0  0  0  0
  4  2  2  0  0  0  0
  5  3  1  0  0  0  0
  5 23  1  0  0  0  0
  6  5  2  0  0  0  0
  7 11  1  1  0  0  0
  8 10  1  0  0  0  0
  9  8  1  1  0  0  0
  9  7  1  0  0  0  0
  9 11  1  0  0  0  0
 10  7  1  0  0  0  0
 10 12  1  1  0  0  0
 13 19  1  1  0  0  0
 13 18  1  0  0  0  0
 13 16  1  0  0  0  0
 14 12  1  1  0  0  0
 14 20  1  0  0  0  0
 16 15  1  6  0  0  0
 16 17  1  0  0  0  0
 17 15  1  6  0  0  0
 18 14  1  0  0  0  0
 18 20  1  0  0  0  0
 19 16  1  0  0  0  0
 20 17  1  0  0  0  0
 20 21  1  0  0  0  0
 21 22  1  0  0  0  0
 23 24  1  0  0  0  0
 24 28  2  0  0  0  0
 25 31  1  0  0  0  0
 26 30  1  0  0  0  0
 27 29  1  0  0  0  0
 28 26  1  0  0  0  0
 28 25  1  0  0  0  0
 29 31  1  0  0  0  0
 29 35  1  0  0  0  0
 30 29  1  0  0  0  0
 33 26  1  0  0  0  0
 33 32  1  0  0  0  0
 34 33  2  0  0  0  0
 35 36  1  0  0  0  0
M  END
>  <MODEL>
4

>  <REMARK>
 VINA RESULT:      -7.1      2.548      4.998
  Name = 
  9 active torsions:
  status: ('A' for Active; 'I' for Inactive)
    1  A    between atoms: C_4  and  C_29
    2  A    between atoms: C_6  and  C_9
    3  A    between atoms: C_9  and  C_21
    4  A    between atoms: O_10  and  C_15
    5  A    between atoms: C_13  and  C_32
    6  A    between atoms: C_14  and  N_24
    7  A    between atoms: C_20  and  C_25
    8  A    between atoms: N_24  and  C_36
    9  A    between atoms: C_30  and  C_36
                            x       y       z     vdW  Elec       q    Type
                         _______ _______ _______ _____ _____    ______ ____

>  <TORSDO>
F 9

$$$$
=
 OpenBabel11062422273D

 36 43  0  0  1  0  0  0  0  0999 V2000
  194.3010  177.4350  146.8400 N   0  0  0  0  0  1  0  0  0  0  0  0
  193.8460  176.1700  146.3680 C   0  0  0  0  0  0  0  0  0  0  0  0
  192.5260  175.8070  146.2030 C   0  0  1  0  0  3  0  0  0  0  0  0
  194.6820  175.1660  146.0370 N   0  0  0  0  0  0  0  0  0  0  0  0
  192.5620  174.5040  145.7610 C   0  0  0  0  0  0  0  0  0  0  0  0
  193.8940  174.1350  145.6580 C   0  0  0  0  0  3  0  0  0  0  0  0
  190.2110  175.7490  146.9140 C   0  0  2  0  0  3  0  0  0  0  0  0
  190.5120  177.2040  145.3750 N   0  0  0  0  0  2  0  0  0  0  0  0
  191.2970  176.6320  146.4630 C   0  0  2  0  0  0  0  0  0  0  0  0
  189.4040  176.3660  145.7890 C   0  0  2  0  0  3  0  0  0  0  0  0
  190.7470  176.7750  147.8200 N   0  0  0  0  0  2  0  0  0  0  0  0
  188.2520  177.2210  146.3110 C   0  0  0  0  0  2  0  0  0  0  0  0
  186.3630  177.3890  142.9570 C   0  0  1  0  0  3  0  0  0  0  0  0
  187.5620  177.9340  145.1540 C   0  0  1  0  0  3  0  0  0  0  0  0
  186.1120  179.6630  143.5170 C   0  0  0  0  0  2  0  0  0  0  0  0
  185.3220  178.4980  142.9190 C   0  0  2  0  0  0  0  0  0  0  0  0
  185.1860  178.8990  144.4020 C   0  0  1  0  0  3  0  0  0  0  0  0
  186.7090  176.9410  144.3800 C   0  0  1  0  0  3  0  0  0  0  0  0
  185.0230  177.1070  142.8530 O   0  0  0  0  0  0  0  0  0  0  0  0
  186.0280  177.9500  145.2860 C   0  0  1  0  0  0  0  0  0  0  0  0
  185.3320  177.2510  146.4510 C   0  0  0  0  0  2  0  0  0  0  0  0
  184.5600  178.2600  147.2800 C   0  0  0  0  0  1  0  0  0  0  0  0
  191.3820  173.6550  145.4290 C   0  0  0  0  0  2  0  0  0  0  0  0
  191.5680  173.0240  144.1300 N   0  0  0  0  0  2  0  0  0  0  0  0
  189.5420  172.3270  143.1240 C   0  0  0  0  0  3  0  0  0  0  0  0
  190.8860  174.0050  141.8560 C   0  0  1  0  0  3  0  0  0  0  0  0
  189.9600  171.6470  140.2970 O   0  0  0  0  0  1  0  0  0  0  0  0
  190.6160  173.1220  143.0670 C   0  0  0  0  0  0  0  0  0  0  0  0
  189.0560  172.6480  140.6830 C   0  0  2  0  0  0  0  0  0  0  0  0
  189.7680  174.0050  140.8030 C   0  0  0  0  0  2  0  0  0  0  0  0
  188.4870  172.3060  142.0580 C   0  0  0  0  0  2  0  0  0  0  0  0
  192.4910  175.8230  142.4370 O   0  0  0  0  0  1  0  0  0  0  0  0
  191.1770  175.4210  142.2450 C   0  0  0  0  0  0  0  0  0  0  0  0
  190.2470  176.2650  142.3450 O   0  0  0  0  0  0  0  0  0  0  0  0
  187.9740  172.7220  139.7770 O   0  0  0  0  0  0  0  0  0  0  0  0
  188.3220  173.5520  138.6960 C   0  0  0  0  0  1  0  0  0  0  0  0
  2  1  1  0  0  0  0
  3  5  1  1  0  0  0
  3  2  1  0  0  0  0
  3  9  1  0  0  0  0
  4  2  2  0  0  0  0
  6  5  2  0  0  0  0
  6  4  1  0  0  0  0
  7 11  1  1  0  0  0
  8 10  1  0  0  0  0
  9  8  1  6  0  0  0
  9  7  1  0  0  0  0
  9 11  1  0  0  0  0
 10 12  1  1  0  0  0
 10  7  1  0  0  0  0
 13 19  1  6  0  0  0
 13 18  1  0  0  0  0
 14 20  1  0  0  0  0
 14 12  1  1  0  0  0
 16 13  1  0  0  0  0
 16 15  1  6  0  0  0
 16 17  1  0  0  0  0
 17 15  1  6  0  0  0
 17 20  1  0  0  0  0
 18 14  1  0  0  0  0
 18 20  1  0  0  0  0
 19 16  1  0  0  0  0
 20 21  1  0  0  0  0
 21 22  1  0  0  0  0
 23  5  1  0  0  0  0
 24 23  1  0  0  0  0
 26 33  1  0  0  0  0
 26 28  1  0  0  0  0
 27 29  1  0  0  0  0
 28 25  2  0  0  0  0
 28 24  1  0  0  0  0
 29 30  1  0  0  0  0
 29 31  1  0  0  0  0
 30 26  1  0  0  0  0
 31 25  1  0  0  0  0
 33 34  2  0  0  0  0
 33 32  1  0  0  0  0
 35 29  1  0  0  0  0
 36 35  1  0  0  0  0
M  END
>  <MODEL>
5

>  <REMARK>
 VINA RESULT:      -6.9      1.900      2.982
  Name = 
  9 active torsions:
  status: ('A' for Active; 'I' for Inactive)
    1  A    between atoms: C_4  and  C_29
    2  A    between atoms: C_6  and  C_9
    3  A    between atoms: C_9  and  C_21
    4  A    between atoms: O_10  and  C_15
    5  A    between atoms: C_13  and  C_32
    6  A    between atoms: C_14  and  N_24
    7  A    between atoms: C_20  and  C_25
    8  A    between atoms: N_24  and  C_36
    9  A    between atoms: C_30  and  C_36
                            x       y       z     vdW  Elec       q    Type
                         _______ _______ _______ _____ _____    ______ ____

>  <TORSDO>
F 9

$$$$
=
 OpenBabel11062422273D

 36 43  0  0  1  0  0  0  0  0999 V2000
  188.4270  173.6710  138.4540 N   0  0  0  0  0  1  0  0  0  0  0  0
  188.9500  173.0700  139.6350 C   0  0  0  0  0  0  0  0  0  0  0  0
  188.7070  173.4960  140.9230 C   0  0  1  0  0  3  0  0  0  0  0  0
  189.7710  172.0010  139.6120 N   0  0  0  0  0  0  0  0  0  0  0  0
  189.4330  172.6470  141.7280 C   0  0  0  0  0  0  0  0  0  0  0  0
  190.0690  171.7330  140.9030 C   0  0  0  0  0  3  0  0  0  0  0  0
  188.7240  175.7660  141.7680 C   0  0  2  0  0  3  0  0  0  0  0  0
  187.1430  174.6250  142.6480 N   0  0  0  0  0  2  0  0  0  0  0  0
  187.8540  174.6480  141.3740 C   0  0  2  0  0  0  0  0  0  0  0  0
  187.9640  175.7390  143.0790 C   0  0  2  0  0  3  0  0  0  0  0  0
  187.8170  175.9110  140.6200 N   0  0  0  0  0  2  0  0  0  0  0  0
  187.1100  176.9890  143.2740 C   0  0  0  0  0  2  0  0  0  0  0  0
  186.6710  178.2650  146.8830 C   0  0  1  0  0  3  0  0  0  0  0  0
  186.4940  176.9920  144.6680 C   0  0  1  0  0  3  0  0  0  0  0  0
  184.8140  176.8160  146.8860 C   0  0  0  0  0  2  0  0  0  0  0  0
  185.2270  178.2110  147.3580 C   0  0  2  0  0  0  0  0  0  0  0  0
  184.4370  177.9920  146.0510 C   0  0  1  0  0  3  0  0  0  0  0  0
  186.7980  178.3120  145.3570 C   0  0  1  0  0  3  0  0  0  0  0  0
  185.9730  179.4110  147.1780 O   0  0  0  0  0  0  0  0  0  0  0  0
  185.3940  178.0570  144.8380 C   0  0  1  0  0  0  0  0  0  0  0  0
  185.0510  179.0200  143.7060 C   0  0  0  0  0  2  0  0  0  0  0  0
  183.5530  179.0400  143.4720 C   0  0  0  0  0  1  0  0  0  0  0  0
  189.4980  172.6880  143.2170 C   0  0  0  0  0  2  0  0  0  0  0  0
  190.7210  173.3530  143.6470 N   0  0  0  0  0  0  0  0  0  0  0  0
  189.7390  174.1950  145.6280 C   0  0  0  0  0  2  0  0  0  0  0  0
  191.9850  175.1070  145.0330 C   0  0  1  0  0  3  0  0  0  0  0  0
  189.9100  177.1270  145.7140 O   0  0  0  0  0  1  0  0  0  0  0  0
  190.7960  174.1820  144.8100 C   0  0  0  0  0  0  0  0  0  0  0  0
  190.4880  176.3300  146.7150 C   0  0  2  0  0  0  0  0  0  0  0  0
  191.9200  175.9290  146.3290 C   0  0  0  0  0  2  0  0  0  0  0  0
  189.6770  175.0450  146.8620 C   0  0  0  0  0  2  0  0  0  0  0  0
  194.2900  174.7900  144.1360 O   0  0  0  0  0  0  0  0  0  0  0  0
  193.2880  174.3700  144.9980 C   0  0  0  0  0  0  0  0  0  0  0  0
  193.5030  173.4080  145.7830 O   0  0  0  0  0  1  0  0  0  0  0  0
  190.4660  176.9980  147.9600 O   0  0  0  0  0  0  0  0  0  0  0  0
  191.7830  177.1660  148.4260 C   0  0  0  0  0  1  0  0  0  0  0  0
  1  2  1  0  0  0  0
  3  2  1  6  0  0  0
  3  9  1  0  0  0  0
  3  5  1  0  0  0  0
  4  2  2  0  0  0  0
  4  6  1  0  0  0  0
  5 23  1  0  0  0  0
  6  5  2  0  0  0  0
  7 11  1  6  0  0  0
  7 10  1  0  0  0  0
  8 10  1  0  0  0  0
  9 11  1  6  0  0  0
  9  7  1  0  0  0  0
  9  8  1  0  0  0  0
 10 12  1  6  0  0  0
 13 19  1  1  0  0  0
 13 16  1  0  0  0  0
 14 12  1  6  0  0  0
 14 20  1  0  0  0  0
 14 18  1  0  0  0  0
 16 15  1  1  0  0  0
 17 15  1  1  0  0  0
 17 16  1  0  0  0  0
 18 13  1  0  0  0  0
 19 16  1  0  0  0  0
 20 18  1  0  0  0  0
 20 17  1  0  0  0  0
 21 20  1  0  0  0  0
 22 21  1  0  0  0  0
 23 24  1  0  0  0  0
 24 28  2  0  0  0  0
 25 31  1  0  0  0  0
 26 30  1  0  0  0  0
 27 29  1  0  0  0  0
 28 26  1  0  0  0  0
 28 25  1  0  0  0  0
 29 31  1  0  0  0  0
 29 35  1  0  0  0  0
 30 29  1  0  0  0  0
 32 33  2  0  0  0  0
 33 26  1  0  0  0  0
 33 34  1  0  0  0  0
 35 36  1  0  0  0  0
M  END
>  <MODEL>
6

>  <REMARK>
 VINA RESULT:      -6.8      2.758      5.139
  Name = 
  9 active torsions:
  status: ('A' for Active; 'I' for Inactive)
    1  A    between atoms: C_4  and  C_29
    2  A    between atoms: C_6  and  C_9
    3  A    between atoms: C_9  and  C_21
    4  A    between atoms: O_10  and  C_15
    5  A    between atoms: C_13  and  C_32
    6  A    between atoms: C_14  and  N_24
    7  A    between atoms: C_20  and  C_25
    8  A    between atoms: N_24  and  C_36
    9  A    between atoms: C_30  and  C_36
                            x       y       z     vdW  Elec       q    Type
                         _______ _______ _______ _____ _____    ______ ____

>  <TORSDO>
F 9

$$$$
=
 OpenBabel11062422273D

 36 43  0  0  1  0  0  0  0  0999 V2000
  195.1080  174.5680  144.8830 N   0  0  0  0  0  1  0  0  0  0  0  0
  193.9930  173.6890  144.7640 C   0  0  0  0  0  0  0  0  0  0  0  0
  192.6710  174.0790  144.7270 C   0  0  1  0  0  3  0  0  0  0  0  0
  194.1190  172.3500  144.6880 N   0  0  0  0  0  0  0  0  0  0  0  0
  191.9530  172.9070  144.6370 C   0  0  0  0  0  0  0  0  0  0  0  0
  192.8620  171.8620  144.6050 C   0  0  0  0  0  3  0  0  0  0  0  0
  191.0660  175.5240  145.8230 C   0  0  2  0  0  3  0  0  0  0  0  0
  191.2390  175.9960  143.7440 N   0  0  0  0  0  2  0  0  0  0  0  0
  192.1110  175.4710  144.7890 C   0  0  2  0  0  0  0  0  0  0  0  0
  190.1790  176.0840  144.7290 C   0  0  2  0  0  3  0  0  0  0  0  0
  192.2960  176.3150  145.9800 N   0  0  0  0  0  2  0  0  0  0  0  0
  189.8040  177.5420  144.9830 C   0  0  0  0  0  2  0  0  0  0  0  0
  186.5070  176.7440  143.1580 C   0  0  1  0  0  3  0  0  0  0  0  0
  188.5300  177.8950  144.2260 C   0  0  1  0  0  3  0  0  0  0  0  0
  186.2060  179.0790  143.2400 C   0  0  0  0  0  2  0  0  0  0  0  0
  185.4210  177.7780  143.4180 C   0  0  2  0  0  0  0  0  0  0  0  0
  185.9740  178.5680  144.6220 C   0  0  1  0  0  3  0  0  0  0  0  0
  187.5760  176.7110  144.2530 C   0  0  1  0  0  3  0  0  0  0  0  0
  185.3550  176.4160  143.8300 O   0  0  0  0  0  0  0  0  0  0  0  0
  187.2810  177.9160  145.1280 C   0  0  1  0  0  0  0  0  0  0  0  0
  187.3730  177.5490  146.6060 C   0  0  0  0  0  2  0  0  0  0  0  0
  186.0370  177.0260  147.0990 C   0  0  0  0  0  1  0  0  0  0  0  0
  190.4680  172.7900  144.5610 C   0  0  0  0  0  2  0  0  0  0  0  0
  190.0820  172.1040  143.3350 N   0  0  0  0  0  2  0  0  0  0  0  0
  188.8000  173.6730  142.1130 C   0  0  0  0  0  3  0  0  0  0  0  0
  190.5300  172.4170  140.8260 C   0  0  1  0  0  3  0  0  0  0  0  0
  187.8170  172.4930  139.6080 O   0  0  0  0  0  1  0  0  0  0  0  0
  189.8000  172.7860  142.1100 C   0  0  0  0  0  0  0  0  0  0  0  0
  188.6320  173.6360  139.6090 C   0  0  2  0  0  0  0  0  0  0  0  0
  190.1180  173.2410  139.5970 C   0  0  0  0  0  2  0  0  0  0  0  0
  188.3800  174.4300  140.8880 C   0  0  0  0  0  2  0  0  0  0  0  0
  192.6210  173.7330  141.1610 O   0  0  0  0  0  1  0  0  0  0  0  0
  192.0170  172.4980  140.9800 C   0  0  0  0  0  0  0  0  0  0  0  0
  192.7190  171.4510  141.0040 O   0  0  0  0  0  0  0  0  0  0  0  0
  188.3210  174.4740  138.5140 O   0  0  0  0  0  0  0  0  0  0  0  0
  189.1650  174.1640  137.4320 C   0  0  0  0  0  1  0  0  0  0  0  0
  2  1  1  0  0  0  0
  3  5  1  1  0  0  0
  3  2  1  0  0  0  0
  3  9  1  0  0  0  0
  4  2  2  0  0  0  0
  6  5  2  0  0  0  0
  6  4  1  0  0  0  0
  7 11  1  1  0  0  0
  8 10  1  0  0  0  0
  9  8  1  6  0  0  0
  9  7  1  0  0  0  0
  9 11  1  0  0  0  0
 10 12  1  1  0  0  0
 10  7  1  0  0  0  0
 13 16  1  0  0  0  0
 13 19  1  1  0  0  0
 13 18  1  0  0  0  0
 14 18  1  0  0  0  0
 14 12  1  1  0  0  0
 14 20  1  0  0  0  0
 16 15  1  6  0  0  0
 16 19  1  0  0  0  0
 16 17  1  0  0  0  0
 17 15  1  6  0  0  0
 17 20  1  0  0  0  0
 18 20  1  0  0  0  0
 20 21  1  0  0  0  0
 21 22  1  0  0  0  0
 23  5  1  0  0  0  0
 24 23  1  0  0  0  0
 26 33  1  0  0  0  0
 26 28  1  0  0  0  0
 27 29  1  0  0  0  0
 28 25  2  0  0  0  0
 28 24  1  0  0  0  0
 29 31  1  0  0  0  0
 30 29  1  0  0  0  0
 30 26  1  0  0  0  0
 31 25  1  0  0  0  0
 33 34  2  0  0  0  0
 33 32  1  0  0  0  0
 35 29  1  0  0  0  0
 36 35  1  0  0  0  0
M  END
>  <MODEL>
7

>  <REMARK>
 VINA RESULT:      -6.8      1.799      3.080
  Name = 
  9 active torsions:
  status: ('A' for Active; 'I' for Inactive)
    1  A    between atoms: C_4  and  C_29
    2  A    between atoms: C_6  and  C_9
    3  A    between atoms: C_9  and  C_21
    4  A    between atoms: O_10  and  C_15
    5  A    between atoms: C_13  and  C_32
    6  A    between atoms: C_14  and  N_24
    7  A    between atoms: C_20  and  C_25
    8  A    between atoms: N_24  and  C_36
    9  A    between atoms: C_30  and  C_36
                            x       y       z     vdW  Elec       q    Type
                         _______ _______ _______ _____ _____    ______ ____

>  <TORSDO>
F 9

$$$$
=
 OpenBabel11062422273D

 36 43  0  0  1  0  0  0  0  0999 V2000
  190.4430  171.8720  140.9960 N   0  0  0  0  0  1  0  0  0  0  0  0
  189.5890  172.9910  140.7770 C   0  0  0  0  0  0  0  0  0  0  0  0
  189.3830  174.0240  141.6670 C   0  0  1  0  0  3  0  0  0  0  0  0
  188.8650  173.1520  139.6530 N   0  0  0  0  0  0  0  0  0  0  0  0
  188.4700  174.8520  141.0540 C   0  0  0  0  0  0  0  0  0  0  0  0
  188.1740  174.3030  139.8160 C   0  0  0  0  0  3  0  0  0  0  0  0
  191.4200  174.5450  142.8700 C   0  0  2  0  0  3  0  0  0  0  0  0
  190.2540  173.0880  143.9170 N   0  0  0  0  0  2  0  0  0  0  0  0
  189.9950  174.2140  143.0260 C   0  0  2  0  0  0  0  0  0  0  0  0
  191.6700  173.3830  143.8100 C   0  0  2  0  0  3  0  0  0  0  0  0
  190.4980  175.5270  143.4590 N   0  0  0  0  0  2  0  0  0  0  0  0
  192.2240  173.8410  145.1570 C   0  0  0  0  0  2  0  0  0  0  0  0
  195.7930  173.3750  143.7840 C   0  0  1  0  0  3  0  0  0  0  0  0
  193.7040  173.4950  145.2600 C   0  0  1  0  0  3  0  0  0  0  0  0
  196.3500  173.1290  146.0600 C   0  0  0  0  0  2  0  0  0  0  0  0
  196.8680  173.7860  144.7790 C   0  0  2  0  0  0  0  0  0  0  0  0
  196.0770  174.5790  145.8390 C   0  0  1  0  0  3  0  0  0  0  0  0
  194.4430  174.0450  144.0510 C   0  0  1  0  0  3  0  0  0  0  0  0
  196.6290  174.4350  143.5340 O   0  0  0  0  0  0  0  0  0  0  0  0
  194.6050  174.7360  145.3930 C   0  0  1  0  0  0  0  0  0  0  0  0
  194.0150  176.1430  145.3540 C   0  0  0  0  0  2  0  0  0  0  0  0
  194.3990  176.9060  146.6070 C   0  0  0  0  0  1  0  0  0  0  0  0
  187.9220  176.1220  141.6110 C   0  0  0  0  0  2  0  0  0  0  0  0
  186.8270  175.8360  142.5270 N   0  0  0  0  0  2  0  0  0  0  0  0
  187.2720  176.8630  144.6120 C   0  0  0  0  0  3  0  0  0  0  0  0
  185.0560  177.3700  143.5800 C   0  0  1  0  0  3  0  0  0  0  0  0
  184.9920  176.5490  146.4380 O   0  0  0  0  0  1  0  0  0  0  0  0
  186.4330  176.7210  143.5800 C   0  0  0  0  0  0  0  0  0  0  0  0
  185.4650  177.8180  146.0700 C   0  0  2  0  0  0  0  0  0  0  0  0
  184.7860  178.2950  144.7760 C   0  0  0  0  0  2  0  0  0  0  0  0
  186.9650  177.7320  145.7950 C   0  0  0  0  0  2  0  0  0  0  0  0
  183.5410  178.0580  141.7230 O   0  0  0  0  0  0  0  0  0  0  0  0
  184.7920  178.1310  142.3180 C   0  0  0  0  0  0  0  0  0  0  0  0
  185.6760  178.8800  141.8220 O   0  0  0  0  0  1  0  0  0  0  0  0
  185.2730  178.7470  147.1170 O   0  0  0  0  0  0  0  0  0  0  0  0
  186.4110  178.7640  147.9450 C   0  0  0  0  0  1  0  0  0  0  0  0
  2  1  1  0  0  0  0
  3  2  1  1  0  0  0
  3  9  1  0  0  0  0
  4  6  1  0  0  0  0
  4  2  2  0  0  0  0
  5 23  1  0  0  0  0
  5  3  1  0  0  0  0
  6  5  2  0  0  0  0
  7  9  1  0  0  0  0
  7 11  1  1  0  0  0
  7 10  1  0  0  0  0
  9 11  1  1  0  0  0
  9  8  1  0  0  0  0
 10  8  1  0  0  0  0
 10 12  1  1  0  0  0
 13 19  1  6  0  0  0
 13 18  1  0  0  0  0
 13 16  1  0  0  0  0
 14 12  1  6  0  0  0
 14 20  1  0  0  0  0
 16 17  1  0  0  0  0
 16 15  1  1  0  0  0
 17 15  1  1  0  0  0
 18 14  1  0  0  0  0
 18 20  1  0  0  0  0
 19 16  1  0  0  0  0
 20 17  1  0  0  0  0
 21 20  1  0  0  0  0
 21 22  1  0  0  0  0
 23 24  1  0  0  0  0
 24 28  1  0  0  0  0
 25 31  1  0  0  0  0
 26 28  1  0  0  0  0
 26 30  1  0  0  0  0
 28 25  2  0  0  0  0
 29 27  1  0  0  0  0
 29 35  1  0  0  0  0
 30 29  1  0  0  0  0
 31 29  1  0  0  0  0
 32 33  2  0  0  0  0
 33 26  1  0  0  0  0
 34 33  1  0  0  0  0
 35 36  1  0  0  0  0
M  END
>  <MODEL>
8

>  <REMARK>
 VINA RESULT:      -6.8      2.703      8.402
  Name = 
  9 active torsions:
  status: ('A' for Active; 'I' for Inactive)
    1  A    between atoms: C_4  and  C_29
    2  A    between atoms: C_6  and  C_9
    3  A    between atoms: C_9  and  C_21
    4  A    between atoms: O_10  and  C_15
    5  A    between atoms: C_13  and  C_32
    6  A    between atoms: C_14  and  N_24
    7  A    between atoms: C_20  and  C_25
    8  A    between atoms: N_24  and  C_36
    9  A    between atoms: C_30  and  C_36
                            x       y       z     vdW  Elec       q    Type
                         _______ _______ _______ _____ _____    ______ ____

>  <TORSDO>
F 9

$$$$
=
 OpenBabel11062422273D

 36 43  0  0  1  0  0  0  0  0999 V2000
  186.3440  178.1190  147.7680 N   0  0  0  0  0  1  0  0  0  0  0  0
  186.5900  177.8010  146.4010 C   0  0  0  0  0  0  0  0  0  0  0  0
  187.7150  177.1660  145.9200 C   0  0  1  0  0  3  0  0  0  0  0  0
  185.7310  178.1100  145.4100 N   0  0  0  0  0  0  0  0  0  0  0  0
  187.5350  177.0980  144.5560 C   0  0  0  0  0  0  0  0  0  0  0  0
  186.3080  177.6740  144.2680 C   0  0  0  0  0  3  0  0  0  0  0  0
  190.1330  177.1590  146.0600 C   0  0  2  0  0  3  0  0  0  0  0  0
  189.3190  175.2680  146.6410 N   0  0  0  0  0  2  0  0  0  0  0  0
  188.9010  176.6650  146.6930 C   0  0  2  0  0  0  0  0  0  0  0  0
  190.5580  175.7050  146.0280 C   0  0  2  0  0  3  0  0  0  0  0  0
  189.7830  177.5910  147.4210 N   0  0  0  0  0  2  0  0  0  0  0  0
  191.7390  175.4310  146.9560 C   0  0  0  0  0  2  0  0  0  0  0  0
  193.9170  174.7140  143.8590 C   0  0  1  0  0  3  0  0  0  0  0  0
  192.8560  174.7320  146.1910 C   0  0  1  0  0  3  0  0  0  0  0  0
  195.2070  173.4660  145.3860 C   0  0  0  0  0  2  0  0  0  0  0  0
  195.3700  174.4320  144.2110 C   0  0  2  0  0  0  0  0  0  0  0  0
  195.4730  174.9050  145.6750 C   0  0  1  0  0  3  0  0  0  0  0  0
  193.1870  175.5230  144.9360 C   0  0  1  0  0  3  0  0  0  0  0  0
  194.9240  175.5570  143.4580 O   0  0  0  0  0  0  0  0  0  0  0  0
  194.1460  175.5690  146.1110 C   0  0  1  0  0  0  0  0  0  0  0  0
  194.2100  176.9730  146.7060 C   0  0  0  0  0  2  0  0  0  0  0  0
  194.9440  177.9070  145.7620 C   0  0  0  0  0  1  0  0  0  0  0  0
  188.4780  176.4900  143.5740 C   0  0  0  0  0  2  0  0  0  0  0  0
  188.1960  175.0690  143.4220 N   0  0  0  0  0  2  0  0  0  0  0  0
  188.9860  174.8230  141.2050 C   0  0  0  0  0  3  0  0  0  0  0  0
  189.0380  172.7750  142.6310 C   0  0  1  0  0  3  0  0  0  0  0  0
  187.8180  172.4430  139.9380 O   0  0  0  0  0  1  0  0  0  0  0  0
  188.7810  174.2580  142.3990 C   0  0  0  0  0  0  0  0  0  0  0  0
  189.2060  172.5900  140.0810 C   0  0  2  0  0  0  0  0  0  0  0  0
  189.6730  172.0430  141.4400 C   0  0  0  0  0  2  0  0  0  0  0  0
  189.5600  174.0740  140.0390 C   0  0  0  0  0  2  0  0  0  0  0  0
  189.3160  171.9210  144.9570 O   0  0  0  0  0  1  0  0  0  0  0  0
  189.8780  172.5320  143.8460 C   0  0  0  0  0  0  0  0  0  0  0  0
  191.1040  172.8250  143.8480 O   0  0  0  0  0  0  0  0  0  0  0  0
  189.8880  171.9550  139.0180 O   0  0  0  0  0  0  0  0  0  0  0  0
  189.3830  172.4230  137.7900 C   0  0  0  0  0  1  0  0  0  0  0  0
  2  1  1  0  0  0  0
  3  5  1  6  0  0  0
  3  2  1  0  0  0  0
  3  9  1  0  0  0  0
  4  2  2  0  0  0  0
  6  5  2  0  0  0  0
  6  4  1  0  0  0  0
  7  9  1  0  0  0  0
  7 11  1  1  0  0  0
  9  8  1  1  0  0  0
  9 11  1  0  0  0  0
 10  7  1  0  0  0  0
 10  8  1  0  0  0  0
 10 12  1  1  0  0  0
 13 19  1  6  0  0  0
 13 16  1  0  0  0  0
 13 18  1  0  0  0  0
 14 12  1  1  0  0  0
 16 15  1  6  0  0  0
 16 17  1  0  0  0  0
 17 15  1  1  0  0  0
 17 20  1  0  0  0  0
 18 20  1  0  0  0  0
 18 14  1  0  0  0  0
 19 16  1  0  0  0  0
 20 14  1  0  0  0  0
 20 21  1  0  0  0  0
 22 21  1  0  0  0  0
 23  5  1  0  0  0  0
 24 23  1  0  0  0  0
 25 28  2  0  0  0  0
 26 33  1  0  0  0  0
 27 29  1  0  0  0  0
 28 26  1  0  0  0  0
 28 24  1  0  0  0  0
 29 30  1  0  0  0  0
 30 26  1  0  0  0  0
 31 29  1  0  0  0  0
 31 25  1  0  0  0  0
 33 34  2  0  0  0  0
 33 32  1  0  0  0  0
 35 29  1  0  0  0  0
 36 35  1  0  0  0  0
M  END
>  <MODEL>
9

>  <REMARK>
 VINA RESULT:      -6.7      2.691      6.389
  Name = 
  9 active torsions:
  status: ('A' for Active; 'I' for Inactive)
    1  A    between atoms: C_4  and  C_29
    2  A    between atoms: C_6  and  C_9
    3  A    between atoms: C_9  and  C_21
    4  A    between atoms: O_10  and  C_15
    5  A    between atoms: C_13  and  C_32
    6  A    between atoms: C_14  and  N_24
    7  A    between atoms: C_20  and  C_25
    8  A    between atoms: N_24  and  C_36
    9  A    between atoms: C_30  and  C_36
                            x       y       z     vdW  Elec       q    Type
                         _______ _______ _______ _____ _____    ______ ____

>  <TORSDO>
F 9

$$$$
