=
 OpenBabel11072408333D

 26 27  0  0  1  0  0  0  0  0999 V2000
  188.5460  174.4820  140.5450 S   0  0  0  0  0  0  0  0  0  0  0  0
  189.6350  174.7280  144.4470 C   0  0  0  0  0  0  0  0  0  0  0  0
  188.8280  174.1380  142.1200 C   0  0  0  0  0  0  0  0  0  0  0  0
  188.4460  176.4400  143.1730 C   0  0  0  0  0  0  0  0  0  0  0  0
  189.0020  177.5300  144.0330 C   0  0  0  0  0  2  0  0  0  0  0  0
  189.3670  172.4120  143.6840 C   0  0  0  0  0  3  0  0  0  0  0  0
  189.1930  177.0020  145.4550 C   0  0  0  0  0  2  0  0  0  0  0  0
  189.6900  173.4150  144.7100 C   0  0  0  0  0  3  0  0  0  0  0  0
  187.2560  176.4810  142.6390 N   0  0  0  0  0  0  0  0  0  0  0  0
  189.3190  175.2250  143.0530 C   0  0  1  0  0  3  0  0  0  0  0  0
  189.8760  175.7020  145.4870 N   0  0  0  0  0  0  0  0  0  0  0  0
  188.9660  172.7640  142.5010 N   0  0  0  0  0  0  0  0  0  0  0  0
  186.2660  177.5140  142.7690 C   0  0  0  0  0  0  0  0  0  0  0  0
  186.3650  178.5430  142.0500 O   0  0  0  0  0  0  0  0  0  0  0  0
  185.0700  177.3740  143.6580 C   0  0  0  0  0  2  0  0  0  0  0  0
  185.3520  177.9370  145.0430 C   0  0  0  0  0  3  0  0  0  0  0  0
  185.5270  176.7930  146.0200 C   0  0  0  0  0  1  0  0  0  0  0  0
  184.2060  178.8170  145.5100 C   0  0  0  0  0  1  0  0  0  0  0  0
  190.5310  175.3290  146.7390 C   0  0  0  0  0  2  0  0  0  0  0  0
  191.9650  176.8220  147.9110 O   0  0  0  0  0  0  0  0  0  0  0  0
  194.1210  176.5960  145.9740 C   0  0  0  0  0  0  0  0  0  0  0  0
  192.8580  175.9240  145.9370 N   0  0  0  0  0  2  0  0  0  0  0  0
  191.8150  176.0720  146.9090 C   0  0  0  0  0  0  0  0  0  0  0  0
  194.4310  177.3490  146.9360 O   0  0  0  0  0  0  0  0  0  0  0  0
  195.0960  176.3810  144.8710 C   0  0  0  0  0  2  0  0  0  0  0  0
  194.4150  176.2580  143.6600 O   0  0  0  0  0  1  0  0  0  0  0  0
  1  3  2  0  0  0  0
  2  8  2  0  0  0  0
  2 11  1  0  0  0  0
  3 12  1  0  0  0  0
  4  5  1  0  0  0  0
  5  7  1  0  0  0  0
  6  8  1  0  0  0  0
  7 11  1  0  0  0  0
  9 13  1  0  0  0  0
  9  4  2  0  0  0  0
 10  3  1  6  0  0  0
 10  4  1  0  0  0  0
 10  2  1  0  0  0  0
 11 19  1  0  0  0  0
 12  6  2  0  0  0  0
 13 15  1  0  0  0  0
 14 13  2  0  0  0  0
 15 16  1  0  0  0  0
 16 18  1  0  0  0  0
 16 17  1  0  0  0  0
 19 23  1  0  0  0  0
 21 24  2  0  0  0  0
 22 21  1  0  0  0  0
 22 23  1  0  0  0  0
 23 20  2  0  0  0  0
 25 21  1  0  0  0  0
 26 25  1  0  0  0  0
M  END
>  <MODEL>
1

>  <REMARK>
 VINA RESULT:      -6.5      0.000      0.000
  Name = 
  6 active torsions:
  status: ('A' for Active; 'I' for Inactive)
    1  A    between atoms: C_4  and  C_14
    2  A    between atoms: C_4  and  C_16
    3  A    between atoms: C_5  and  N_19
    4  A    between atoms: C_5  and  C_23
    5  A    between atoms: C_7  and  C_8
    6  A    between atoms: C_14  and  N_17
                            x       y       z     vdW  Elec       q    Type
                         _______ _______ _______ _____ _____    ______ ____

>  <TORSDO>
F 6

$$$$
=
 OpenBabel11072408333D

 26 27  0  0  1  0  0  0  0  0999 V2000
  188.2760  173.8960  141.4140 S   0  0  0  0  0  0  0  0  0  0  0  0
  190.8050  175.0360  144.3760 C   0  0  0  0  0  0  0  0  0  0  0  0
  189.1310  173.9630  142.8080 C   0  0  0  0  0  0  0  0  0  0  0  0
  189.2970  176.4980  143.1290 C   0  0  0  0  0  0  0  0  0  0  0  0
  190.1950  177.6760  143.3370 C   0  0  0  0  0  2  0  0  0  0  0  0
  190.1520  172.6780  144.5460 C   0  0  0  0  0  3  0  0  0  0  0  0
  190.8970  177.5420  144.6880 C   0  0  0  0  0  2  0  0  0  0  0  0
  190.8960  173.8590  145.0100 C   0  0  0  0  0  3  0  0  0  0  0  0
  187.9970  176.5860  143.0670 N   0  0  0  0  0  0  0  0  0  0  0  0
  189.9970  175.1700  143.1050 C   0  0  1  0  0  3  0  0  0  0  0  0
  191.4770  176.2080  144.8920 N   0  0  0  0  0  0  0  0  0  0  0  0
  189.3410  172.7470  143.5360 N   0  0  0  0  0  0  0  0  0  0  0  0
  187.1850  177.7630  143.1990 C   0  0  0  0  0  0  0  0  0  0  0  0
  186.8340  178.3780  142.1580 O   0  0  0  0  0  0  0  0  0  0  0  0
  186.6620  178.2350  144.5200 C   0  0  0  0  0  2  0  0  0  0  0  0
  186.5310  177.0780  145.5000 C   0  0  0  0  0  3  0  0  0  0  0  0
  185.1920  177.1660  146.2000 C   0  0  0  0  0  1  0  0  0  0  0  0
  187.6380  177.1240  146.5380 C   0  0  0  0  0  1  0  0  0  0  0  0
  192.5480  176.0960  145.8800 C   0  0  0  0  0  2  0  0  0  0  0  0
  194.5670  177.3520  145.9440 O   0  0  0  0  0  0  0  0  0  0  0  0
  195.4880  176.3900  143.3610 C   0  0  0  0  0  0  0  0  0  0  0  0
  194.2760  176.0290  144.0300 N   0  0  0  0  0  2  0  0  0  0  0  0
  193.8520  176.5370  145.3010 C   0  0  0  0  0  0  0  0  0  0  0  0
  196.3230  177.1660  143.8980 O   0  0  0  0  0  0  0  0  0  0  0  0
  195.7810  175.8180  142.0190 C   0  0  0  0  0  2  0  0  0  0  0  0
  196.4220  176.7730  141.2300 O   0  0  0  0  0  1  0  0  0  0  0  0
  1  3  2  0  0  0  0
  2 11  1  0  0  0  0
  2  8  2  0  0  0  0
  3 12  1  0  0  0  0
  4  5  1  0  0  0  0
  5  7  1  0  0  0  0
  6  8  1  0  0  0  0
  7 11  1  0  0  0  0
  9  4  2  0  0  0  0
  9 13  1  0  0  0  0
 10  3  1  1  0  0  0
 10  4  1  0  0  0  0
 10  2  1  0  0  0  0
 11 19  1  0  0  0  0
 12  6  2  0  0  0  0
 13 15  1  0  0  0  0
 14 13  2  0  0  0  0
 15 16  1  0  0  0  0
 16 17  1  0  0  0  0
 16 18  1  0  0  0  0
 21 24  2  0  0  0  0
 21 22  1  0  0  0  0
 22 23  1  0  0  0  0
 23 19  1  0  0  0  0
 23 20  2  0  0  0  0
 25 21  1  0  0  0  0
 26 25  1  0  0  0  0
M  END
>  <MODEL>
2

>  <REMARK>
 VINA RESULT:      -6.2      1.535      2.073
  Name = 
  6 active torsions:
  status: ('A' for Active; 'I' for Inactive)
    1  A    between atoms: C_4  and  C_14
    2  A    between atoms: C_4  and  C_16
    3  A    between atoms: C_5  and  N_19
    4  A    between atoms: C_5  and  C_23
    5  A    between atoms: C_7  and  C_8
    6  A    between atoms: C_14  and  N_17
                            x       y       z     vdW  Elec       q    Type
                         _______ _______ _______ _____ _____    ______ ____

>  <TORSDO>
F 6

$$$$
=
 OpenBabel11072408333D

 26 27  0  0  1  0  0  0  0  0999 V2000
  187.6350  175.5720  142.1340 S   0  0  0  0  0  0  0  0  0  0  0  0
  190.5320  175.0650  144.9310 C   0  0  0  0  0  0  0  0  0  0  0  0
  188.7310  174.9140  143.1580 C   0  0  0  0  0  0  0  0  0  0  0  0
  188.6410  176.6040  145.0790 C   0  0  0  0  0  0  0  0  0  0  0  0
  189.4100  177.5340  145.9640 C   0  0  0  0  0  2  0  0  0  0  0  0
  190.2210  173.0810  143.5220 C   0  0  0  0  0  3  0  0  0  0  0  0
  190.3730  176.7230  146.8310 C   0  0  0  0  0  2  0  0  0  0  0  0
  190.8890  173.8140  144.6080 C   0  0  0  0  0  3  0  0  0  0  0  0
  187.3530  176.4200  145.1750 N   0  0  0  0  0  0  0  0  0  0  0  0
  189.4810  175.8010  144.1300 C   0  0  1  0  0  3  0  0  0  0  0  0
  191.1420  175.7420  146.0540 N   0  0  0  0  0  0  0  0  0  0  0  0
  189.2260  173.6020  142.8710 N   0  0  0  0  0  0  0  0  0  0  0  0
  186.4440  177.0190  146.1110 C   0  0  0  0  0  0  0  0  0  0  0  0
  186.5580  176.7370  147.3330 O   0  0  0  0  0  0  0  0  0  0  0  0
  185.4240  178.0370  145.7040 C   0  0  0  0  0  2  0  0  0  0  0  0
  185.6630  178.5060  144.2760 C   0  0  0  0  0  3  0  0  0  0  0  0
  185.5390  180.0140  144.2200 C   0  0  0  0  0  1  0  0  0  0  0  0
  184.6490  177.8890  143.3310 C   0  0  0  0  0  1  0  0  0  0  0  0
  192.3900  175.2620  146.6430 C   0  0  0  0  0  2  0  0  0  0  0  0
  194.1370  176.8770  146.6690 O   0  0  0  0  0  0  0  0  0  0  0  0
  195.1250  176.1510  144.0340 C   0  0  0  0  0  0  0  0  0  0  0  0
  194.0280  175.5560  144.7340 N   0  0  0  0  0  2  0  0  0  0  0  0
  193.5650  175.9520  146.0310 C   0  0  0  0  0  0  0  0  0  0  0  0
  195.8180  177.0610  144.5610 O   0  0  0  0  0  0  0  0  0  0  0  0
  195.4690  175.6680  142.6700 C   0  0  0  0  0  2  0  0  0  0  0  0
  195.9210  176.7340  141.8930 O   0  0  0  0  0  1  0  0  0  0  0  0
  1  3  2  0  0  0  0
  2 11  1  0  0  0  0
  4  9  2  0  0  0  0
  4  5  1  0  0  0  0
  5  7  1  0  0  0  0
  6  8  1  0  0  0  0
  8  2  2  0  0  0  0
  9 13  1  0  0  0  0
 10  3  1  1  0  0  0
 10  2  1  0  0  0  0
 10  4  1  0  0  0  0
 11 19  1  0  0  0  0
 11  7  1  0  0  0  0
 12  3  1  0  0  0  0
 12  6  2  0  0  0  0
 13 14  2  0  0  0  0
 15 13  1  0  0  0  0
 16 15  1  0  0  0  0
 17 16  1  0  0  0  0
 18 16  1  0  0  0  0
 21 24  2  0  0  0  0
 21 22  1  0  0  0  0
 22 23  1  0  0  0  0
 23 19  1  0  0  0  0
 23 20  2  0  0  0  0
 25 21  1  0  0  0  0
 26 25  1  0  0  0  0
M  END
>  <MODEL>
3

>  <REMARK>
 VINA RESULT:      -6.1      1.763      2.321
  Name = 
  6 active torsions:
  status: ('A' for Active; 'I' for Inactive)
    1  A    between atoms: C_4  and  C_14
    2  A    between atoms: C_4  and  C_16
    3  A    between atoms: C_5  and  N_19
    4  A    between atoms: C_5  and  C_23
    5  A    between atoms: C_7  and  C_8
    6  A    between atoms: C_14  and  N_17
                            x       y       z     vdW  Elec       q    Type
                         _______ _______ _______ _____ _____    ______ ____

>  <TORSDO>
F 6

$$$$
=
 OpenBabel11072408333D

 26 27  0  0  1  0  0  0  0  0999 V2000
  190.2450  172.9100  144.6820 S   0  0  0  0  0  0  0  0  0  0  0  0
  188.3320  175.3950  142.1060 C   0  0  0  0  0  0  0  0  0  0  0  0
  189.4820  173.5280  143.3720 C   0  0  0  0  0  0  0  0  0  0  0  0
  190.2690  175.9620  143.4820 C   0  0  0  0  0  0  0  0  0  0  0  0
  189.8730  177.4030  143.5250 C   0  0  0  0  0  2  0  0  0  0  0  0
  188.0640  173.0300  141.5130 C   0  0  0  0  0  3  0  0  0  0  0  0
  189.1760  177.7740  142.2150 C   0  0  0  0  0  2  0  0  0  0  0  0
  187.8130  174.4620  141.2940 C   0  0  0  0  0  3  0  0  0  0  0  0
  191.5090  175.5550  143.4770 N   0  0  0  0  0  0  0  0  0  0  0  0
  189.1270  174.9990  143.3300 C   0  0  1  0  0  3  0  0  0  0  0  0
  188.1440  176.8020  141.8310 N   0  0  0  0  0  0  0  0  0  0  0  0
  188.8390  172.6200  142.4690 N   0  0  0  0  0  0  0  0  0  0  0  0
  192.7000  176.3580  143.4900 C   0  0  0  0  0  0  0  0  0  0  0  0
  193.2110  176.7030  142.3930 O   0  0  0  0  0  0  0  0  0  0  0  0
  193.3040  176.8800  144.7570 C   0  0  0  0  0  2  0  0  0  0  0  0
  193.2760  175.8220  145.8500 C   0  0  0  0  0  3  0  0  0  0  0  0
  192.3530  176.2770  146.9610 C   0  0  0  0  0  1  0  0  0  0  0  0
  194.6660  175.5990  146.4190 C   0  0  0  0  0  1  0  0  0  0  0  0
  187.1120  177.2630  140.9050 C   0  0  0  0  0  2  0  0  0  0  0  0
  185.0030  178.3580  141.0110 O   0  0  0  0  0  0  0  0  0  0  0  0
  184.7840  178.1000  143.8980 C   0  0  0  0  0  0  0  0  0  0  0  0
  185.8510  177.6270  143.0710 N   0  0  0  0  0  2  0  0  0  0  0  0
  185.9260  177.7850  141.6490 C   0  0  0  0  0  0  0  0  0  0  0  0
  183.7710  178.6590  143.3980 O   0  0  0  0  0  0  0  0  0  0  0  0
  184.8580  177.9050  145.3710 C   0  0  0  0  0  2  0  0  0  0  0  0
  183.9350  178.7380  146.0030 O   0  0  0  0  0  1  0  0  0  0  0  0
  3  1  2  0  0  0  0
  4  5  1  0  0  0  0
  6 12  2  0  0  0  0
  7  5  1  0  0  0  0
  8  6  1  0  0  0  0
  8  2  2  0  0  0  0
  9  4  2  0  0  0  0
  9 13  1  0  0  0  0
 10  2  1  6  0  0  0
 10  3  1  0  0  0  0
 10  4  1  0  0  0  0
 11  2  1  0  0  0  0
 11  7  1  0  0  0  0
 12  3  1  0  0  0  0
 13 15  1  0  0  0  0
 14 13  2  0  0  0  0
 15 16  1  0  0  0  0
 16 18  1  0  0  0  0
 16 17  1  0  0  0  0
 19 23  1  0  0  0  0
 19 11  1  0  0  0  0
 20 23  2  0  0  0  0
 21 25  1  0  0  0  0
 22 21  1  0  0  0  0
 23 22  1  0  0  0  0
 24 21  2  0  0  0  0
 25 26  1  0  0  0  0
M  END
>  <MODEL>
4

>  <REMARK>
 VINA RESULT:      -6.1      2.227      6.883
  Name = 
  6 active torsions:
  status: ('A' for Active; 'I' for Inactive)
    1  A    between atoms: C_4  and  C_14
    2  A    between atoms: C_4  and  C_16
    3  A    between atoms: C_5  and  N_19
    4  A    between atoms: C_5  and  C_23
    5  A    between atoms: C_7  and  C_8
    6  A    between atoms: C_14  and  N_17
                            x       y       z     vdW  Elec       q    Type
                         _______ _______ _______ _____ _____    ______ ____

>  <TORSDO>
F 6

$$$$
=
 OpenBabel11072408333D

 26 27  0  0  1  0  0  0  0  0999 V2000
  189.7600  172.1190  144.6700 S   0  0  0  0  0  0  0  0  0  0  0  0
  189.1180  175.7020  142.8750 C   0  0  0  0  0  0  0  0  0  0  0  0
  189.7360  173.3550  143.5970 C   0  0  0  0  0  0  0  0  0  0  0  0
  189.8080  175.3560  145.1920 C   0  0  0  0  0  0  0  0  0  0  0  0
  189.1650  176.6370  145.6220 C   0  0  0  0  0  2  0  0  0  0  0  0
  189.7190  173.9390  141.2790 C   0  0  0  0  0  3  0  0  0  0  0  0
  189.2470  177.6500  144.4790 C   0  0  0  0  0  2  0  0  0  0  0  0
  189.3390  175.3210  141.6090 C   0  0  0  0  0  3  0  0  0  0  0  0
  190.8970  174.8810  145.7320 N   0  0  0  0  0  0  0  0  0  0  0  0
  189.1680  174.6980  144.0050 C   0  0  1  0  0  3  0  0  0  0  0  0
  188.8260  177.0820  143.1910 N   0  0  0  0  0  0  0  0  0  0  0  0
  189.9030  173.0510  142.2070 N   0  0  0  0  0  0  0  0  0  0  0  0
  191.6860  175.4600  146.7830 C   0  0  0  0  0  0  0  0  0  0  0  0
  191.3240  175.2910  147.9770 O   0  0  0  0  0  0  0  0  0  0  0  0
  192.9720  176.1790  146.5190 C   0  0  0  0  0  2  0  0  0  0  0  0
  193.7380  175.5250  145.3790 C   0  0  0  0  0  3  0  0  0  0  0  0
  195.1680  175.2810  145.8140 C   0  0  0  0  0  1  0  0  0  0  0  0
  193.7390  176.4160  144.1500 C   0  0  0  0  0  1  0  0  0  0  0  0
  188.4070  178.0260  142.1580 C   0  0  0  0  0  2  0  0  0  0  0  0
  186.3500  177.9080  140.9670 O   0  0  0  0  0  0  0  0  0  0  0  0
  184.7270  178.4950  143.3060 C   0  0  0  0  0  0  0  0  0  0  0  0
  186.1520  178.3780  143.2560 N   0  0  0  0  0  2  0  0  0  0  0  0
  186.9170  178.0970  142.0770 C   0  0  0  0  0  0  0  0  0  0  0  0
  184.0200  178.2930  142.2830 O   0  0  0  0  0  0  0  0  0  0  0  0
  184.0660  178.8350  144.5950 C   0  0  0  0  0  2  0  0  0  0  0  0
  184.4730  177.9390  145.5830 O   0  0  0  0  0  1  0  0  0  0  0  0
  2 11  1  0  0  0  0
  3 10  1  0  0  0  0
  3  1  2  0  0  0  0
  4  5  1  0  0  0  0
  4  9  2  0  0  0  0
  6  8  1  0  0  0  0
  6 12  2  0  0  0  0
  7  5  1  0  0  0  0
  8  2  2  0  0  0  0
  9 13  1  0  0  0  0
 10  2  1  6  0  0  0
 10  4  1  0  0  0  0
 11  7  1  0  0  0  0
 12  3  1  0  0  0  0
 13 14  2  0  0  0  0
 15 13  1  0  0  0  0
 16 17  1  0  0  0  0
 16 15  1  0  0  0  0
 18 16  1  0  0  0  0
 19 11  1  0  0  0  0
 20 23  2  0  0  0  0
 21 25  1  0  0  0  0
 22 21  1  0  0  0  0
 23 19  1  0  0  0  0
 23 22  1  0  0  0  0
 24 21  2  0  0  0  0
 25 26  1  0  0  0  0
M  END
>  <MODEL>
5

>  <REMARK>
 VINA RESULT:      -6.0      2.053      6.931
  Name = 
  6 active torsions:
  status: ('A' for Active; 'I' for Inactive)
    1  A    between atoms: C_4  and  C_14
    2  A    between atoms: C_4  and  C_16
    3  A    between atoms: C_5  and  N_19
    4  A    between atoms: C_5  and  C_23
    5  A    between atoms: C_7  and  C_8
    6  A    between atoms: C_14  and  N_17
                            x       y       z     vdW  Elec       q    Type
                         _______ _______ _______ _____ _____    ______ ____

>  <TORSDO>
F 6

$$$$
=
 OpenBabel11072408333D

 26 27  0  0  1  0  0  0  0  0999 V2000
  186.6960  176.6580  141.9870 S   0  0  0  0  0  0  0  0  0  0  0  0
  190.5930  175.7990  142.7280 C   0  0  0  0  0  0  0  0  0  0  0  0
  188.1500  175.9090  142.0720 C   0  0  0  0  0  0  0  0  0  0  0  0
  189.0340  176.8630  144.2780 C   0  0  0  0  0  0  0  0  0  0  0  0
  190.1460  177.5830  144.9720 C   0  0  0  0  0  2  0  0  0  0  0  0
  189.6130  174.3410  141.0170 C   0  0  0  0  0  3  0  0  0  0  0  0
  191.4060  176.7180  144.9360 C   0  0  0  0  0  2  0  0  0  0  0  0
  190.7350  174.7960  141.8500 C   0  0  0  0  0  3  0  0  0  0  0  0
  187.9600  176.4400  144.8850 N   0  0  0  0  0  0  0  0  0  0  0  0
  189.2890  176.5580  142.8300 C   0  0  1  0  0  3  0  0  0  0  0  0
  191.6830  176.1810  143.5980 N   0  0  0  0  0  0  0  0  0  0  0  0
  188.4300  174.8610  141.1370 N   0  0  0  0  0  0  0  0  0  0  0  0
  187.6360  176.5450  146.2810 C   0  0  0  0  0  0  0  0  0  0  0  0
  188.0810  175.6750  147.0740 O   0  0  0  0  0  0  0  0  0  0  0  0
  186.8690  177.7010  146.8430 C   0  0  0  0  0  2  0  0  0  0  0  0
  185.6410  178.0030  145.9970 C   0  0  0  0  0  3  0  0  0  0  0  0
  185.9210  179.2080  145.1230 C   0  0  0  0  0  1  0  0  0  0  0  0
  184.4400  178.2980  146.8770 C   0  0  0  0  0  1  0  0  0  0  0  0
  193.0550  175.7620  143.3240 C   0  0  0  0  0  2  0  0  0  0  0  0
  194.1920  174.8670  145.2120 O   0  0  0  0  0  0  0  0  0  0  0  0
  193.3250  172.1400  144.6980 C   0  0  0  0  0  0  0  0  0  0  0  0
  192.9960  173.3050  143.9350 N   0  0  0  0  0  2  0  0  0  0  0  0
  193.4550  174.6340  144.2170 C   0  0  0  0  0  0  0  0  0  0  0  0
  194.0220  172.2220  145.7440 O   0  0  0  0  0  0  0  0  0  0  0  0
  192.8130  170.8130  144.2630 C   0  0  0  0  0  2  0  0  0  0  0  0
  191.7270  170.9860  143.4050 O   0  0  0  0  0  1  0  0  0  0  0  0
  1  3  2  0  0  0  0
  2 10  1  0  0  0  0
  2 11  1  0  0  0  0
  4  9  2  0  0  0  0
  4  5  1  0  0  0  0
  6 12  2  0  0  0  0
  6  8  1  0  0  0  0
  7  5  1  0  0  0  0
  8  2  2  0  0  0  0
  9 13  1  0  0  0  0
 10  3  1  1  0  0  0
 10  4  1  0  0  0  0
 11  7  1  0  0  0  0
 12  3  1  0  0  0  0
 13 15  1  0  0  0  0
 13 14  2  0  0  0  0
 16 15  1  0  0  0  0
 16 18  1  0  0  0  0
 17 16  1  0  0  0  0
 19 11  1  0  0  0  0
 19 23  1  0  0  0  0
 21 24  2  0  0  0  0
 22 23  1  0  0  0  0
 22 21  1  0  0  0  0
 23 20  2  0  0  0  0
 25 21  1  0  0  0  0
 26 25  1  0  0  0  0
M  END
>  <MODEL>
6

>  <REMARK>
 VINA RESULT:      -5.8      2.683      3.535
  Name = 
  6 active torsions:
  status: ('A' for Active; 'I' for Inactive)
    1  A    between atoms: C_4  and  C_14
    2  A    between atoms: C_4  and  C_16
    3  A    between atoms: C_5  and  N_19
    4  A    between atoms: C_5  and  C_23
    5  A    between atoms: C_7  and  C_8
    6  A    between atoms: C_14  and  N_17
                            x       y       z     vdW  Elec       q    Type
                         _______ _______ _______ _____ _____    ______ ____

>  <TORSDO>
F 6

$$$$
=
 OpenBabel11072408333D

 26 27  0  0  1  0  0  0  0  0999 V2000
  189.4250  172.2830  141.9260 S   0  0  0  0  0  0  0  0  0  0  0  0
  189.0270  175.7760  143.9540 C   0  0  0  0  0  0  0  0  0  0  0  0
  189.2420  173.8640  142.3070 C   0  0  0  0  0  0  0  0  0  0  0  0
  190.5970  173.9790  144.4760 C   0  0  0  0  0  0  0  0  0  0  0  0
  190.6090  174.3500  145.9250 C   0  0  0  0  0  2  0  0  0  0  0  0
  188.3020  175.9510  141.6170 C   0  0  0  0  0  3  0  0  0  0  0  0
  190.4210  175.8610  146.0590 C   0  0  0  0  0  2  0  0  0  0  0  0
  188.5160  176.5140  142.9590 C   0  0  0  0  0  3  0  0  0  0  0  0
  191.6340  173.4970  143.8480 N   0  0  0  0  0  0  0  0  0  0  0  0
  189.3230  174.3060  143.7530 C   0  0  1  0  0  3  0  0  0  0  0  0
  189.3080  176.3650  145.2430 N   0  0  0  0  0  0  0  0  0  0  0  0
  188.6470  174.7320  141.3350 N   0  0  0  0  0  0  0  0  0  0  0  0
  192.9480  173.2500  144.3730 C   0  0  0  0  0  0  0  0  0  0  0  0
  193.2270  172.0970  144.7930 O   0  0  0  0  0  0  0  0  0  0  0  0
  194.0280  174.2870  144.3560 C   0  0  0  0  0  2  0  0  0  0  0  0
  194.6040  174.4980  145.7480 C   0  0  0  0  0  3  0  0  0  0  0  0
  194.2480  175.8880  146.2300 C   0  0  0  0  0  1  0  0  0  0  0  0
  196.1140  174.3480  145.7340 C   0  0  0  0  0  1  0  0  0  0  0  0
  188.7310  177.6490  145.6330 C   0  0  0  0  0  2  0  0  0  0  0  0
  187.0030  176.6760  146.9470 O   0  0  0  0  0  0  0  0  0  0  0  0
  184.8840  178.1810  145.6440 C   0  0  0  0  0  0  0  0  0  0  0  0
  186.2870  178.2590  145.3710 N   0  0  0  0  0  2  0  0  0  0  0  0
  187.3000  177.4890  146.0310 C   0  0  0  0  0  0  0  0  0  0  0  0
  184.4390  177.4410  146.5610 O   0  0  0  0  0  0  0  0  0  0  0  0
  183.9380  179.0090  144.8480 C   0  0  0  0  0  2  0  0  0  0  0  0
  184.0740  178.7080  143.4930 O   0  0  0  0  0  1  0  0  0  0  0  0
  1  3  2  0  0  0  0
  2 11  1  0  0  0  0
  4  5  1  0  0  0  0
  5  7  1  0  0  0  0
  6  8  1  0  0  0  0
  8  2  2  0  0  0  0
  9 13  1  0  0  0  0
  9  4  2  0  0  0  0
 10  3  1  6  0  0  0
 10  2  1  0  0  0  0
 10  4  1  0  0  0  0
 11 19  1  0  0  0  0
 11  7  1  0  0  0  0
 12  6  2  0  0  0  0
 12  3  1  0  0  0  0
 13 14  2  0  0  0  0
 15 13  1  0  0  0  0
 15 16  1  0  0  0  0
 16 17  1  0  0  0  0
 18 16  1  0  0  0  0
 19 23  1  0  0  0  0
 21 24  2  0  0  0  0
 22 21  1  0  0  0  0
 22 23  1  0  0  0  0
 23 20  2  0  0  0  0
 25 21  1  0  0  0  0
 26 25  1  0  0  0  0
M  END
>  <MODEL>
7

>  <REMARK>
 VINA RESULT:      -5.7      2.438      6.902
  Name = 
  6 active torsions:
  status: ('A' for Active; 'I' for Inactive)
    1  A    between atoms: C_4  and  C_14
    2  A    between atoms: C_4  and  C_16
    3  A    between atoms: C_5  and  N_19
    4  A    between atoms: C_5  and  C_23
    5  A    between atoms: C_7  and  C_8
    6  A    between atoms: C_14  and  N_17
                            x       y       z     vdW  Elec       q    Type
                         _______ _______ _______ _____ _____    ______ ____

>  <TORSDO>
F 6

$$$$
=
 OpenBabel11072408333D

 26 27  0  0  1  0  0  0  0  0999 V2000
  191.5600  177.0080  148.4250 S   0  0  0  0  0  0  0  0  0  0  0  0
  190.0330  175.7300  144.8890 C   0  0  0  0  0  0  0  0  0  0  0  0
  190.8690  176.1020  147.2500 C   0  0  0  0  0  0  0  0  0  0  0  0
  192.1000  176.9970  145.1900 C   0  0  0  0  0  0  0  0  0  0  0  0
  191.9810  177.6010  143.8270 C   0  0  0  0  0  2  0  0  0  0  0  0
  189.3040  174.3550  146.7850 C   0  0  0  0  0  3  0  0  0  0  0  0
  191.3090  176.5990  142.8890 C   0  0  0  0  0  2  0  0  0  0  0  0
  189.3150  174.6980  145.3550 C   0  0  0  0  0  3  0  0  0  0  0  0
  193.2410  176.7110  145.7540 N   0  0  0  0  0  0  0  0  0  0  0  0
  190.7930  176.6340  145.8340 C   0  0  1  0  0  3  0  0  0  0  0  0
  190.0990  176.0050  143.4710 N   0  0  0  0  0  0  0  0  0  0  0  0
  190.0300  175.0080  147.6400 N   0  0  0  0  0  0  0  0  0  0  0  0
  194.5600  176.8820  145.2120 C   0  0  0  0  0  0  0  0  0  0  0  0
  195.1570  177.9740  145.4040 O   0  0  0  0  0  0  0  0  0  0  0  0
  195.2890  175.7810  144.5080 C   0  0  0  0  0  2  0  0  0  0  0  0
  195.3540  176.0400  143.0100 C   0  0  0  0  0  3  0  0  0  0  0  0
  194.9360  174.7880  142.2690 C   0  0  0  0  0  1  0  0  0  0  0  0
  196.7620  176.4200  142.5900 C   0  0  0  0  0  1  0  0  0  0  0  0
  189.1320  175.4270  142.5400 C   0  0  0  0  0  2  0  0  0  0  0  0
  187.8060  176.6270  140.9720 O   0  0  0  0  0  0  0  0  0  0  0  0
  186.3740  178.1200  143.0140 C   0  0  0  0  0  0  0  0  0  0  0  0
  187.3850  177.1290  143.2230 N   0  0  0  0  0  2  0  0  0  0  0  0
  188.0760  176.4230  142.1850 C   0  0  0  0  0  0  0  0  0  0  0  0
  185.9700  178.4040  141.8550 O   0  0  0  0  0  0  0  0  0  0  0  0
  185.7710  178.8080  144.1880 C   0  0  0  0  0  2  0  0  0  0  0  0
  185.5680  180.1550  143.8900 O   0  0  0  0  0  1  0  0  0  0  0  0
  2  8  2  0  0  0  0
  3 12  1  0  0  0  0
  3  1  2  0  0  0  0
  4  9  2  0  0  0  0
  4 10  1  0  0  0  0
  5  4  1  0  0  0  0
  6 12  2  0  0  0  0
  7 11  1  0  0  0  0
  7  5  1  0  0  0  0
  8  6  1  0  0  0  0
 10  2  1  6  0  0  0
 10  3  1  0  0  0  0
 11  2  1  0  0  0  0
 13 14  2  0  0  0  0
 13  9  1  0  0  0  0
 15 13  1  0  0  0  0
 16 15  1  0  0  0  0
 17 16  1  0  0  0  0
 18 16  1  0  0  0  0
 19 11  1  0  0  0  0
 20 23  2  0  0  0  0
 21 22  1  0  0  0  0
 21 25  1  0  0  0  0
 23 19  1  0  0  0  0
 23 22  1  0  0  0  0
 24 21  2  0  0  0  0
 26 25  1  0  0  0  0
M  END
>  <MODEL>
8

>  <REMARK>
 VINA RESULT:      -5.7      2.526      7.431
  Name = 
  6 active torsions:
  status: ('A' for Active; 'I' for Inactive)
    1  A    between atoms: C_4  and  C_14
    2  A    between atoms: C_4  and  C_16
    3  A    between atoms: C_5  and  N_19
    4  A    between atoms: C_5  and  C_23
    5  A    between atoms: C_7  and  C_8
    6  A    between atoms: C_14  and  N_17
                            x       y       z     vdW  Elec       q    Type
                         _______ _______ _______ _____ _____    ______ ____

>  <TORSDO>
F 6

$$$$
=
 OpenBabel11072408333D

 26 27  0  0  1  0  0  0  0  0999 V2000
  189.9230  177.1620  146.6680 S   0  0  0  0  0  0  0  0  0  0  0  0
  190.4530  175.4830  143.0110 C   0  0  0  0  0  0  0  0  0  0  0  0
  190.5370  176.7310  145.2130 C   0  0  0  0  0  0  0  0  0  0  0  0
  188.3800  176.4560  143.8620 C   0  0  0  0  0  0  0  0  0  0  0  0
  187.5520  175.5610  142.9970 C   0  0  0  0  0  2  0  0  0  0  0  0
  192.5410  176.3460  143.9670 C   0  0  0  0  0  3  0  0  0  0  0  0
  188.3050  175.2790  141.6960 C   0  0  0  0  0  2  0  0  0  0  0  0
  191.7760  175.6700  142.9080 C   0  0  0  0  0  3  0  0  0  0  0  0
  188.0360  177.6760  144.1740 N   0  0  0  0  0  0  0  0  0  0  0  0
  189.7100  175.8880  144.2650 C   0  0  1  0  0  3  0  0  0  0  0  0
  189.7030  174.8900  141.9270 N   0  0  0  0  0  0  0  0  0  0  0  0
  191.9520  176.8330  145.0160 N   0  0  0  0  0  0  0  0  0  0  0  0
  186.8620  178.3940  143.7610 C   0  0  0  0  0  0  0  0  0  0  0  0
  186.7150  178.6640  142.5410 O   0  0  0  0  0  0  0  0  0  0  0  0
  185.7620  178.7510  144.7120 C   0  0  0  0  0  2  0  0  0  0  0  0
  186.0210  178.1630  146.0910 C   0  0  0  0  0  3  0  0  0  0  0  0
  185.2030  176.9000  146.2570 C   0  0  0  0  0  1  0  0  0  0  0  0
  185.6350  179.1500  147.1780 C   0  0  0  0  0  1  0  0  0  0  0  0
  190.3700  174.1530  140.8570 C   0  0  0  0  0  2  0  0  0  0  0  0
  189.5230  171.9560  140.5160 O   0  0  0  0  0  0  0  0  0  0  0  0
  191.3250  170.7410  142.4460 C   0  0  0  0  0  0  0  0  0  0  0  0
  191.2610  172.1230  142.0810 N   0  0  0  0  0  2  0  0  0  0  0  0
  190.3480  172.6840  141.1300 C   0  0  0  0  0  0  0  0  0  0  0  0
  190.5890  169.8850  141.8870 O   0  0  0  0  0  0  0  0  0  0  0  0
  192.2960  170.3030  143.4840 C   0  0  0  0  0  2  0  0  0  0  0  0
  192.6400  168.9680  143.2740 O   0  0  0  0  0  1  0  0  0  0  0  0
  3  1  2  0  0  0  0
  4  9  2  0  0  0  0
  4 10  1  0  0  0  0
  5  4  1  0  0  0  0
  6 12  2  0  0  0  0
  7 11  1  0  0  0  0
  7  5  1  0  0  0  0
  8  2  2  0  0  0  0
  8  6  1  0  0  0  0
 10  2  1  6  0  0  0
 10  3  1  0  0  0  0
 11  2  1  0  0  0  0
 12  3  1  0  0  0  0
 13  9  1  0  0  0  0
 13 15  1  0  0  0  0
 14 13  2  0  0  0  0
 15 16  1  0  0  0  0
 16 17  1  0  0  0  0
 16 18  1  0  0  0  0
 19 23  1  0  0  0  0
 19 11  1  0  0  0  0
 20 23  2  0  0  0  0
 21 25  1  0  0  0  0
 22 21  1  0  0  0  0
 23 22  1  0  0  0  0
 24 21  2  0  0  0  0
 26 25  1  0  0  0  0
M  END
>  <MODEL>
9

>  <REMARK>
 VINA RESULT:      -5.6      3.470      5.000
  Name = 
  6 active torsions:
  status: ('A' for Active; 'I' for Inactive)
    1  A    between atoms: C_4  and  C_14
    2  A    between atoms: C_4  and  C_16
    3  A    between atoms: C_5  and  N_19
    4  A    between atoms: C_5  and  C_23
    5  A    between atoms: C_7  and  C_8
    6  A    between atoms: C_14  and  N_17
                            x       y       z     vdW  Elec       q    Type
                         _______ _______ _______ _____ _____    ______ ____

>  <TORSDO>
F 6

$$$$
