=
 OpenBabel11072409003D

 47 51  0  0  1  0  0  0  0  0999 V2000
  192.6980  176.4270  145.9510 C   0  0  2  0  0  0  0  0  0  0  0  0
  189.7770  176.6260  143.8030 C   0  0  0  0  0  3  0  0  0  0  0  0
  191.4560  176.4670  146.7600 C   0  0  2  0  0  3  0  0  0  0  0  0
  189.0300  175.7870  145.9420 N   0  0  0  0  0  0  0  0  0  0  0  0
  192.4700  176.3180  144.5050 N   0  0  0  0  0  2  0  0  0  0  0  0
  190.7860  175.4000  147.6160 C   0  0  0  0  0  2  0  0  0  0  0  0
  191.4830  175.7290  145.4190 C   0  0  1  0  0  0  0  0  0  0  0  0
  190.0800  176.1340  145.0070 C   0  0  0  0  0  0  0  0  0  0  0  0
  189.3330  175.4170  147.1650 C   0  0  0  0  0  3  0  0  0  0  0  0
  193.6520  175.4220  146.4070 N   0  0  0  0  0  2  0  0  0  0  0  0
  195.0120  175.4310  145.9570 C   0  0  0  0  0  0  0  0  0  0  0  0
  195.4630  176.4380  145.3520 O   0  0  0  0  0  0  0  0  0  0  0  0
  196.9460  172.1300  145.7420 C   0  0  0  0  0  1  0  0  0  0  0  0
  195.8720  174.2410  146.0630 C   0  0  0  0  0  3  0  0  0  0  0  0
  195.8290  173.0760  145.4110 C   0  0  0  0  0  0  0  0  0  0  0  0
  194.7210  172.6170  144.5210 C   0  0  0  0  0  0  0  0  0  0  0  0
  194.7480  172.9690  143.2540 C   0  0  0  0  0  0  0  0  0  0  0  0
  193.8240  173.0310  141.1450 F   0  0  0  0  0  0  0  0  0  0  0  0
  194.8430  173.3100  141.9960 C   0  0  0  0  0  0  0  0  0  0  0  0
  193.6960  171.7910  145.0300 O   0  0  0  0  0  0  0  0  0  0  0  0
  191.4830  171.9390  144.3270 O   0  0  0  0  0  0  0  0  0  0  0  0
  192.6850  170.0530  143.5560 C   0  0  0  0  0  1  0  0  0  0  0  0
  192.5740  171.3180  144.3290 C   0  0  0  0  0  0  0  0  0  0  0  0
  196.1040  173.7540  141.4890 N   0  0  0  0  0  2  0  0  0  0  0  0
  195.2630  176.2580  141.5880 O   0  0  0  0  0  0  0  0  0  0  0  0
  197.6060  175.7980  142.1780 O   0  0  0  0  0  0  0  0  0  0  0  0
  196.4710  175.4280  141.2560 S   0  0  0  0  0  0  0  0  0  0  0  0
  196.9440  175.7000  139.6090 N   0  0  0  0  0  2  0  0  0  0  0  0
  196.5560  174.5250  138.8400 C   0  0  0  0  0  2  0  0  0  0  0  0
  194.1760  175.0830  138.3250 C   0  0  0  0  0  1  0  0  0  0  0  0
  195.5660  174.9180  137.7520 C   0  0  0  0  0  2  0  0  0  0  0  0
  188.4330  176.9670  143.4660 N   0  0  0  0  0  2  0  0  0  0  0  0
  187.5310  176.0380  142.7920 C   0  0  2  0  0  3  0  0  0  0  0  0
  187.8210  175.9710  141.3570 N   0  0  0  0  0  2  0  0  0  0  0  0
  188.4120  174.2970  139.6480 C   0  0  0  0  0  2  0  0  0  0  0  0
  188.1500  173.6660  142.0760 C   0  0  0  0  0  2  0  0  0  0  0  0
  188.8650  172.8470  139.4010 C   0  0  0  0  0  2  0  0  0  0  0  0
  189.7030  172.2910  140.5560 C   0  0  0  0  0  2  0  0  0  0  0  0
  188.9580  172.3670  141.8930 C   0  0  0  0  0  2  0  0  0  0  0  0
  188.5940  174.7620  141.1040 C   0  0  0  0  0  3  0  0  0  0  0  0
  186.0650  176.4090  143.0820 C   0  0  0  0  0  2  0  0  0  0  0  0
  184.4500  178.1270  146.6600 C   0  0  0  0  0  2  0  0  0  0  0  0
  184.6310  178.2150  144.1570 C   0  0  0  0  0  2  0  0  0  0  0  0
  185.8340  177.2770  144.3300 C   0  0  1  0  0  3  0  0  0  0  0  0
  185.7180  177.2820  146.6030 C   0  0  0  0  0  2  0  0  0  0  0  0
  184.4110  179.0320  145.4330 C   0  0  0  0  0  2  0  0  0  0  0  0
  185.6790  176.4490  145.4660 O   0  0  0  0  0  0  0  0  0  0  0  0
  1 10  1  1  0  0  0
  1  3  1  0  0  0  0
  2  8  2  0  0  0  0
  3  6  1  1  0  0  0
  4  9  2  0  0  0  0
  5  1  1  0  0  0  0
  7  5  1  6  0  0  0
  7  1  1  0  0  0  0
  7  3  1  0  0  0  0
  8  7  1  0  0  0  0
  8  4  1  0  0  0  0
  9  6  1  0  0  0  0
 11 14  1  0  0  0  0
 11 10  1  0  0  0  0
 12 11  2  0  0  0  0
 15 13  1  0  0  0  0
 15 14  2  0  0  0  0
 16 20  1  0  0  0  0
 16 15  1  0  0  0  0
 17 16  2  0  0  0  0
 18 19  1  0  0  0  0
 19 17  2  0  0  0  0
 21 23  2  0  0  0  0
 22 23  1  0  0  0  0
 23 20  1  0  0  0  0
 24 19  1  0  0  0  0
 27 24  1  0  0  0  0
 27 25  2  0  0  0  0
 27 26  2  0  0  0  0
 28 27  1  0  0  0  0
 29 28  1  0  0  0  0
 31 30  1  0  0  0  0
 31 29  1  0  0  0  0
 32  2  1  0  0  0  0
 33 41  1  6  0  0  0
 33 32  1  0  0  0  0
 34 33  1  0  0  0  0
 35 40  1  0  0  0  0
 37 35  1  0  0  0  0
 37 38  1  0  0  0  0
 38 39  1  0  0  0  0
 39 36  1  0  0  0  0
 40 34  1  0  0  0  0
 40 36  1  0  0  0  0
 43 44  1  0  0  0  0
 43 46  1  0  0  0  0
 44 41  1  6  0  0  0
 44 47  1  0  0  0  0
 45 42  1  0  0  0  0
 46 42  1  0  0  0  0
 47 45  1  0  0  0  0
M  END
>  <MODEL>
1

>  <REMARK>
 VINA RESULT:      -7.0      0.000      0.000
  Name = 
  16 active torsions:
  status: ('A' for Active; 'I' for Inactive)
    1  A    between atoms: N_1  and  C_31
    2  A    between atoms: N_1  and  S_37
    3  A    between atoms: C_4  and  O_43
    4  A    between atoms: C_4  and  C_46
    5  A    between atoms: C_7  and  N_20
    6  A    between atoms: N_9  and  C_27
    7  A    between atoms: N_9  and  S_37
    8  A    between atoms: C_10  and  N_39
    9  A    between atoms: C_18  and  C_22
   10  A    between atoms: C_22  and  C_26
   11  A    between atoms: C_24  and  C_32
   12  A    between atoms: C_26  and  N_29
   13  A    between atoms: C_26  and  N_39
   14  A    between atoms: C_27  and  C_36
   15  A    between atoms: N_29  and  C_44
   16  A    between atoms: O_43  and  C_47
                            x       y       z     vdW  Elec       q    Type
                         _______ _______ _______ _____ _____    ______ ____

>  <TORSDO>
F 16

$$$$
=
 OpenBabel11072409003D

 47 51  0  0  1  0  0  0  0  0999 V2000
  194.6760  176.0300  143.9110 C   0  0  2  0  0  0  0  0  0  0  0  0
  191.3450  177.4760  143.8790 C   0  0  0  0  0  3  0  0  0  0  0  0
  194.1110  176.0700  145.2810 C   0  0  2  0  0  3  0  0  0  0  0  0
  191.5400  176.1860  145.9140 N   0  0  0  0  0  0  0  0  0  0  0  0
  193.7310  176.4220  142.8590 N   0  0  0  0  0  2  0  0  0  0  0  0
  193.6450  174.9510  146.2030 C   0  0  0  0  0  2  0  0  0  0  0  0
  193.2060  175.7940  144.0780 C   0  0  1  0  0  0  0  0  0  0  0  0
  192.0230  176.5840  144.6070 C   0  0  0  0  0  0  0  0  0  0  0  0
  192.2700  175.4020  146.6750 C   0  0  0  0  0  3  0  0  0  0  0  0
  195.3200  174.7600  143.5890 N   0  0  0  0  0  2  0  0  0  0  0  0
  196.7180  174.6920  143.2890 C   0  0  0  0  0  0  0  0  0  0  0  0
  197.4570  175.6820  143.5270 O   0  0  0  0  0  0  0  0  0  0  0  0
  197.8690  171.3590  141.7890 C   0  0  0  0  0  1  0  0  0  0  0  0
  197.3050  173.5420  142.5810 C   0  0  0  0  0  3  0  0  0  0  0  0
  197.1670  172.2300  142.7890 C   0  0  0  0  0  0  0  0  0  0  0  0
  196.5080  171.6000  143.9730 C   0  0  0  0  0  0  0  0  0  0  0  0
  195.2230  171.3300  143.9040 C   0  0  0  0  0  0  0  0  0  0  0  0
  193.2560  170.5750  144.8360 F   0  0  0  0  0  0  0  0  0  0  0  0
  193.9550  171.0430  143.7710 C   0  0  0  0  0  0  0  0  0  0  0  0
  197.2670  171.2710  145.1160 O   0  0  0  0  0  0  0  0  0  0  0  0
  196.5630  169.9670  146.9100 O   0  0  0  0  0  0  0  0  0  0  0  0
  197.9340  168.8770  145.3190 C   0  0  0  0  0  1  0  0  0  0  0  0
  197.2130  170.0680  145.8400 C   0  0  0  0  0  0  0  0  0  0  0  0
  193.3860  171.0010  142.4600 N   0  0  0  0  0  2  0  0  0  0  0  0
  191.6660  171.9400  140.6860 O   0  0  0  0  0  0  0  0  0  0  0  0
  190.8260  170.4100  142.4170 O   0  0  0  0  0  0  0  0  0  0  0  0
  191.7760  171.5440  142.1310 S   0  0  0  0  0  0  0  0  0  0  0  0
  191.3960  172.8970  143.1490 N   0  0  0  0  0  2  0  0  0  0  0  0
  190.5650  173.8100  142.3760 C   0  0  0  0  0  2  0  0  0  0  0  0
  188.2350  173.0930  141.8330 C   0  0  0  0  0  1  0  0  0  0  0  0
  189.1250  173.7470  142.8670 C   0  0  0  0  0  2  0  0  0  0  0  0
  190.2250  178.1710  144.4260 N   0  0  0  0  0  2  0  0  0  0  0  0
  188.8510  177.8920  144.0190 C   0  0  2  0  0  3  0  0  0  0  0  0
  188.2290  176.9080  144.9110 N   0  0  0  0  0  2  0  0  0  0  0  0
  187.5380  177.7160  147.1330 C   0  0  0  0  0  2  0  0  0  0  0  0
  185.8690  176.7680  145.4980 C   0  0  0  0  0  2  0  0  0  0  0  0
  186.3420  178.0440  148.0450 C   0  0  0  0  0  2  0  0  0  0  0  0
  185.1080  178.4860  147.2540 C   0  0  0  0  0  2  0  0  0  0  0  0
  184.6840  177.4380  146.2210 C   0  0  0  0  0  2  0  0  0  0  0  0
  187.1620  177.5720  145.6480 C   0  0  0  0  0  3  0  0  0  0  0  0
  188.8070  177.4610  142.5420 C   0  0  0  0  0  2  0  0  0  0  0  0
  185.2890  178.3260  140.2540 C   0  0  0  0  0  2  0  0  0  0  0  0
  186.4950  178.5200  142.4470 C   0  0  0  0  0  2  0  0  0  0  0  0
  187.4060  177.4080  141.9080 C   0  0  1  0  0  3  0  0  0  0  0  0
  186.2470  177.1750  139.9640 C   0  0  0  0  0  2  0  0  0  0  0  0
  185.1260  178.4570  141.7640 C   0  0  0  0  0  2  0  0  0  0  0  0
  187.5160  177.4730  140.5000 O   0  0  0  0  0  0  0  0  0  0  0  0
  1 10  1  6  0  0  0
  1  7  1  0  0  0  0
  1  3  1  0  0  0  0
  2 32  1  0  0  0  0
  2  8  2  0  0  0  0
  3  6  1  1  0  0  0
  4  9  2  0  0  0  0
  5  1  1  0  0  0  0
  6  9  1  0  0  0  0
  7  5  1  1  0  0  0
  7  8  1  0  0  0  0
  7  3  1  0  0  0  0
  8  4  1  0  0  0  0
 11 12  2  0  0  0  0
 11 10  1  0  0  0  0
 13 15  1  0  0  0  0
 14 15  2  0  0  0  0
 14 11  1  0  0  0  0
 15 16  1  0  0  0  0
 16 20  1  0  0  0  0
 17 16  2  0  0  0  0
 19 17  2  0  0  0  0
 19 18  1  0  0  0  0
 20 23  1  0  0  0  0
 22 23  1  0  0  0  0
 23 21  2  0  0  0  0
 24 19  1  0  0  0  0
 25 27  2  0  0  0  0
 27 26  2  0  0  0  0
 27 24  1  0  0  0  0
 27 28  1  0  0  0  0
 29 31  1  0  0  0  0
 29 28  1  0  0  0  0
 30 31  1  0  0  0  0
 33 41  1  6  0  0  0
 33 32  1  0  0  0  0
 33 34  1  0  0  0  0
 34 40  1  0  0  0  0
 35 37  1  0  0  0  0
 36 40  1  0  0  0  0
 36 39  1  0  0  0  0
 38 37  1  0  0  0  0
 39 38  1  0  0  0  0
 40 35  1  0  0  0  0
 42 46  1  0  0  0  0
 44 43  1  0  0  0  0
 44 41  1  1  0  0  0
 45 42  1  0  0  0  0
 45 47  1  0  0  0  0
 46 43  1  0  0  0  0
 47 44  1  0  0  0  0
M  END
>  <MODEL>
2

>  <REMARK>
 VINA RESULT:      -6.7      2.721      5.128
  Name = 
  16 active torsions:
  status: ('A' for Active; 'I' for Inactive)
    1  A    between atoms: N_1  and  C_31
    2  A    between atoms: N_1  and  S_37
    3  A    between atoms: C_4  and  O_43
    4  A    between atoms: C_4  and  C_46
    5  A    between atoms: C_7  and  N_20
    6  A    between atoms: N_9  and  C_27
    7  A    between atoms: N_9  and  S_37
    8  A    between atoms: C_10  and  N_39
    9  A    between atoms: C_18  and  C_22
   10  A    between atoms: C_22  and  C_26
   11  A    between atoms: C_24  and  C_32
   12  A    between atoms: C_26  and  N_29
   13  A    between atoms: C_26  and  N_39
   14  A    between atoms: C_27  and  C_36
   15  A    between atoms: N_29  and  C_44
   16  A    between atoms: O_43  and  C_47
                            x       y       z     vdW  Elec       q    Type
                         _______ _______ _______ _____ _____    ______ ____

>  <TORSDO>
F 16

$$$$
=
 OpenBabel11072409003D

 47 51  0  0  1  0  0  0  0  0999 V2000
  191.6230  171.6460  140.9560 C   0  0  2  0  0  0  0  0  0  0  0  0
  189.2790  174.1240  142.2040 C   0  0  0  0  0  3  0  0  0  0  0  0
  190.5780  171.9350  139.9430 C   0  0  2  0  0  3  0  0  0  0  0  0
  189.1040  174.1310  139.7940 N   0  0  0  0  0  0  0  0  0  0  0  0
  191.5710  172.5160  142.1370 N   0  0  0  0  0  2  0  0  0  0  0  0
  190.6590  172.6490  138.6010 C   0  0  0  0  0  2  0  0  0  0  0  0
  191.1070  173.0500  140.8500 C   0  0  1  0  0  0  0  0  0  0  0  0
  189.7660  173.7400  141.0210 C   0  0  0  0  0  0  0  0  0  0  0  0
  189.5160  173.6530  138.6420 C   0  0  0  0  0  3  0  0  0  0  0  0
  192.9710  171.6010  140.3980 N   0  0  0  0  0  2  0  0  0  0  0  0
  193.8460  170.4980  140.6630 C   0  0  0  0  0  0  0  0  0  0  0  0
  193.3870  169.4470  141.1810 O   0  0  0  0  0  0  0  0  0  0  0  0
  197.6710  170.7030  140.7680 C   0  0  0  0  0  1  0  0  0  0  0  0
  195.3010  170.6000  140.4700 C   0  0  0  0  0  3  0  0  0  0  0  0
  196.2920  170.7100  141.3600 C   0  0  0  0  0  0  0  0  0  0  0  0
  196.1250  170.9660  142.8220 C   0  0  0  0  0  0  0  0  0  0  0  0
  196.4440  172.1520  143.2910 C   0  0  0  0  0  0  0  0  0  0  0  0
  196.7200  173.6410  145.0260 F   0  0  0  0  0  0  0  0  0  0  0  0
  196.7350  173.3580  143.7000 C   0  0  0  0  0  0  0  0  0  0  0  0
  195.5970  169.9630  143.6620 O   0  0  0  0  0  0  0  0  0  0  0  0
  193.4010  170.1960  144.3970 O   0  0  0  0  0  0  0  0  0  0  0  0
  195.0600  170.2300  146.0830 C   0  0  0  0  0  1  0  0  0  0  0  0
  194.6260  170.1340  144.6640 C   0  0  0  0  0  0  0  0  0  0  0  0
  196.8340  174.4130  142.7390 N   0  0  0  0  0  2  0  0  0  0  0  0
  196.1110  176.7040  141.6360 O   0  0  0  0  0  0  0  0  0  0  0  0
  194.3670  175.0270  142.0730 O   0  0  0  0  0  0  0  0  0  0  0  0
  195.6340  175.6520  142.5970 S   0  0  0  0  0  0  0  0  0  0  0  0
  195.3370  176.3590  144.1540 N   0  0  0  0  0  2  0  0  0  0  0  0
  193.9500  176.0860  144.5030 C   0  0  0  0  0  2  0  0  0  0  0  0
  193.3790  173.8370  145.4270 C   0  0  0  0  0  1  0  0  0  0  0  0
  193.8880  175.2230  145.7560 C   0  0  0  0  0  2  0  0  0  0  0  0
  188.0210  174.7910  142.2990 N   0  0  0  0  0  2  0  0  0  0  0  0
  187.7500  175.8220  143.2960 C   0  0  2  0  0  3  0  0  0  0  0  0
  186.8310  176.8350  142.7670 N   0  0  0  0  0  2  0  0  0  0  0  0
  185.5800  177.0090  144.8820 C   0  0  0  0  0  2  0  0  0  0  0  0
  185.7430  178.9530  143.2840 C   0  0  0  0  0  2  0  0  0  0  0  0
  184.8420  177.9600  145.8420 C   0  0  0  0  0  2  0  0  0  0  0  0
  185.4000  179.3850  145.7950 C   0  0  0  0  0  2  0  0  0  0  0  0
  185.3650  179.9690  144.3800 C   0  0  0  0  0  2  0  0  0  0  0  0
  186.4690  177.7330  143.8560 C   0  0  0  0  0  3  0  0  0  0  0  0
  189.0680  176.4310  143.8080 C   0  0  0  0  0  2  0  0  0  0  0  0
  190.7120  175.4260  147.6350 C   0  0  0  0  0  2  0  0  0  0  0  0
  189.0830  174.8610  145.8100 C   0  0  0  0  0  2  0  0  0  0  0  0
  189.3180  176.2970  145.3200 C   0  0  1  0  0  3  0  0  0  0  0  0
  190.7190  176.8270  147.0330 C   0  0  0  0  0  2  0  0  0  0  0  0
  189.3790  174.7600  147.3090 C   0  0  0  0  0  2  0  0  0  0  0  0
  190.6260  176.7370  145.6290 O   0  0  0  0  0  0  0  0  0  0  0  0
  1 10  1  6  0  0  0
  1  5  1  0  0  0  0
  2 32  1  0  0  0  0
  3  6  1  6  0  0  0
  3  7  1  0  0  0  0
  3  1  1  0  0  0  0
  4  8  1  0  0  0  0
  6  9  1  0  0  0  0
  7  1  1  0  0  0  0
  7  8  1  6  0  0  0
  7  5  1  0  0  0  0
  8  2  2  0  0  0  0
  9  4  2  0  0  0  0
 10 11  1  0  0  0  0
 11 12  2  0  0  0  0
 13 15  1  0  0  0  0
 14 11  1  0  0  0  0
 14 15  2  0  0  0  0
 15 16  1  0  0  0  0
 16 17  2  0  0  0  0
 16 20  1  0  0  0  0
 17 19  2  0  0  0  0
 19 18  1  0  0  0  0
 20 23  1  0  0  0  0
 21 23  2  0  0  0  0
 23 22  1  0  0  0  0
 24 19  1  0  0  0  0
 25 27  2  0  0  0  0
 26 27  2  0  0  0  0
 27 24  1  0  0  0  0
 27 28  1  0  0  0  0
 28 29  1  0  0  0  0
 29 31  1  0  0  0  0
 30 31  1  0  0  0  0
 32 33  1  0  0  0  0
 33 41  1  6  0  0  0
 34 33  1  0  0  0  0
 34 40  1  0  0  0  0
 35 37  1  0  0  0  0
 36 40  1  0  0  0  0
 36 39  1  0  0  0  0
 38 37  1  0  0  0  0
 39 38  1  0  0  0  0
 40 35  1  0  0  0  0
 43 46  1  0  0  0  0
 44 41  1  6  0  0  0
 44 47  1  0  0  0  0
 44 43  1  0  0  0  0
 45 42  1  0  0  0  0
 46 42  1  0  0  0  0
 47 45  1  0  0  0  0
M  END
>  <MODEL>
3

>  <REMARK>
 VINA RESULT:      -6.6      2.382      5.679
  Name = 
  16 active torsions:
  status: ('A' for Active; 'I' for Inactive)
    1  A    between atoms: N_1  and  C_31
    2  A    between atoms: N_1  and  S_37
    3  A    between atoms: C_4  and  O_43
    4  A    between atoms: C_4  and  C_46
    5  A    between atoms: C_7  and  N_20
    6  A    between atoms: N_9  and  C_27
    7  A    between atoms: N_9  and  S_37
    8  A    between atoms: C_10  and  N_39
    9  A    between atoms: C_18  and  C_22
   10  A    between atoms: C_22  and  C_26
   11  A    between atoms: C_24  and  C_32
   12  A    between atoms: C_26  and  N_29
   13  A    between atoms: C_26  and  N_39
   14  A    between atoms: C_27  and  C_36
   15  A    between atoms: N_29  and  C_44
   16  A    between atoms: O_43  and  C_47
                            x       y       z     vdW  Elec       q    Type
                         _______ _______ _______ _____ _____    ______ ____

>  <TORSDO>
F 16

$$$$
=
 OpenBabel11072409003D

 47 51  0  0  1  0  0  0  0  0999 V2000
  191.7180  172.4370  140.7460 C   0  0  2  0  0  0  0  0  0  0  0  0
  189.6640  174.8970  142.4540 C   0  0  0  0  0  3  0  0  0  0  0  0
  190.2780  172.1510  140.5380 C   0  0  2  0  0  3  0  0  0  0  0  0
  188.2880  173.8880  140.7420 N   0  0  0  0  0  0  0  0  0  0  0  0
  191.9850  173.7030  141.4390 N   0  0  0  0  0  2  0  0  0  0  0  0
  189.4090  172.2510  139.2910 C   0  0  0  0  0  2  0  0  0  0  0  0
  190.7770  173.5960  140.6110 C   0  0  1  0  0  0  0  0  0  0  0  0
  189.5730  174.1230  141.3690 C   0  0  0  0  0  0  0  0  0  0  0  0
  188.1860  173.0330  139.7500 C   0  0  0  0  0  3  0  0  0  0  0  0
  192.5100  172.3340  139.5240 N   0  0  0  0  0  2  0  0  0  0  0  0
  193.9210  172.0950  139.5720 C   0  0  0  0  0  0  0  0  0  0  0  0
  194.4580  171.7380  140.6530 O   0  0  0  0  0  0  0  0  0  0  0  0
  196.1690  173.4270  136.7700 C   0  0  0  0  0  1  0  0  0  0  0  0
  194.7960  172.3830  138.4240 C   0  0  0  0  0  3  0  0  0  0  0  0
  195.1960  173.5480  137.9060 C   0  0  0  0  0  0  0  0  0  0  0  0
  194.6610  174.8930  138.2710 C   0  0  0  0  0  0  0  0  0  0  0  0
  194.9500  175.3810  139.4580 C   0  0  0  0  0  0  0  0  0  0  0  0
  194.7670  177.0010  141.0860 F   0  0  0  0  0  0  0  0  0  0  0  0
  195.3000  175.8400  140.6310 C   0  0  0  0  0  0  0  0  0  0  0  0
  193.8980  175.6310  137.3410 O   0  0  0  0  0  0  0  0  0  0  0  0
  193.0050  175.1890  135.2380 O   0  0  0  0  0  0  0  0  0  0  0  0
  191.6970  174.4890  137.0800 C   0  0  0  0  0  1  0  0  0  0  0  0
  192.9020  175.1270  136.4880 C   0  0  0  0  0  0  0  0  0  0  0  0
  196.4080  175.2410  141.3090 N   0  0  0  0  0  2  0  0  0  0  0  0
  197.9190  174.7040  143.4100 O   0  0  0  0  0  0  0  0  0  0  0  0
  196.8660  176.9220  143.2760 O   0  0  0  0  0  0  0  0  0  0  0  0
  196.6800  175.4510  143.0040 S   0  0  0  0  0  0  0  0  0  0  0  0
  195.3120  174.8600  143.8940 N   0  0  0  0  0  2  0  0  0  0  0  0
  195.7170  174.7230  145.2860 C   0  0  0  0  0  2  0  0  0  0  0  0
  196.8270  172.6360  146.0920 C   0  0  0  0  0  1  0  0  0  0  0  0
  195.5060  173.2890  145.7520 C   0  0  0  0  0  2  0  0  0  0  0  0
  188.4930  175.3820  143.1100 N   0  0  0  0  0  2  0  0  0  0  0  0
  188.4780  176.6250  143.8760 C   0  0  2  0  0  3  0  0  0  0  0  0
  187.4250  177.5250  143.3940 N   0  0  0  0  0  2  0  0  0  0  0  0
  186.3320  176.7430  145.4590 C   0  0  0  0  0  2  0  0  0  0  0  0
  185.3190  178.5650  144.0400 C   0  0  0  0  0  2  0  0  0  0  0  0
  185.1920  176.9980  146.4620 C   0  0  0  0  0  2  0  0  0  0  0  0
  184.8210  178.4800  146.5620 C   0  0  0  0  0  2  0  0  0  0  0  0
  184.4370  179.0670  145.2000 C   0  0  0  0  0  2  0  0  0  0  0  0
  186.6240  177.9410  144.5380 C   0  0  0  0  0  3  0  0  0  0  0  0
  189.8700  177.2820  143.8580 C   0  0  0  0  0  2  0  0  0  0  0  0
  192.1120  175.6480  147.1230 C   0  0  0  0  0  2  0  0  0  0  0  0
  189.8910  176.4360  146.2570 C   0  0  0  0  0  2  0  0  0  0  0  0
  190.7000  177.1120  145.1410 C   0  0  1  0  0  3  0  0  0  0  0  0
  192.7130  176.4720  145.9890 C   0  0  0  0  0  2  0  0  0  0  0  0
  190.7620  176.2490  147.5020 C   0  0  0  0  0  2  0  0  0  0  0  0
  191.8810  176.3890  144.8540 O   0  0  0  0  0  0  0  0  0  0  0  0
  1 10  1  6  0  0  0
  1  5  1  0  0  0  0
  2 32  1  0  0  0  0
  3  6  1  6  0  0  0
  3  7  1  0  0  0  0
  3  1  1  0  0  0  0
  4  8  1  0  0  0  0
  6  9  1  0  0  0  0
  7  1  1  0  0  0  0
  7  8  1  6  0  0  0
  7  5  1  0  0  0  0
  8  2  2  0  0  0  0
  9  4  2  0  0  0  0
 10 11  1  0  0  0  0
 11 12  2  0  0  0  0
 13 15  1  0  0  0  0
 14 11  1  0  0  0  0
 15 16  1  0  0  0  0
 15 14  2  0  0  0  0
 16 17  2  0  0  0  0
 17 19  2  0  0  0  0
 19 18  1  0  0  0  0
 19 24  1  0  0  0  0
 20 16  1  0  0  0  0
 21 23  2  0  0  0  0
 23 22  1  0  0  0  0
 23 20  1  0  0  0  0
 24 27  1  0  0  0  0
 27 26  2  0  0  0  0
 27 25  2  0  0  0  0
 27 28  1  0  0  0  0
 28 29  1  0  0  0  0
 29 31  1  0  0  0  0
 31 30  1  0  0  0  0
 32 33  1  0  0  0  0
 33 41  1  6  0  0  0
 34 33  1  0  0  0  0
 34 40  1  0  0  0  0
 35 37  1  0  0  0  0
 36 40  1  0  0  0  0
 36 39  1  0  0  0  0
 37 38  1  0  0  0  0
 39 38  1  0  0  0  0
 40 35  1  0  0  0  0
 42 46  1  0  0  0  0
 43 46  1  0  0  0  0
 44 41  1  6  0  0  0
 44 43  1  0  0  0  0
 45 42  1  0  0  0  0
 47 44  1  0  0  0  0
 47 45  1  0  0  0  0
M  END
>  <MODEL>
4

>  <REMARK>
 VINA RESULT:      -6.5      2.299      6.491
  Name = 
  16 active torsions:
  status: ('A' for Active; 'I' for Inactive)
    1  A    between atoms: N_1  and  C_31
    2  A    between atoms: N_1  and  S_37
    3  A    between atoms: C_4  and  O_43
    4  A    between atoms: C_4  and  C_46
    5  A    between atoms: C_7  and  N_20
    6  A    between atoms: N_9  and  C_27
    7  A    between atoms: N_9  and  S_37
    8  A    between atoms: C_10  and  N_39
    9  A    between atoms: C_18  and  C_22
   10  A    between atoms: C_22  and  C_26
   11  A    between atoms: C_24  and  C_32
   12  A    between atoms: C_26  and  N_29
   13  A    between atoms: C_26  and  N_39
   14  A    between atoms: C_27  and  C_36
   15  A    between atoms: N_29  and  C_44
   16  A    between atoms: O_43  and  C_47
                            x       y       z     vdW  Elec       q    Type
                         _______ _______ _______ _____ _____    ______ ____

>  <TORSDO>
F 16

$$$$
=
 OpenBabel11072409003D

 47 51  0  0  1  0  0  0  0  0999 V2000
  194.7900  176.4320  144.0280 C   0  0  2  0  0  0  0  0  0  0  0  0
  191.2660  177.2860  143.8170 C   0  0  0  0  0  3  0  0  0  0  0  0
  194.2080  176.5920  145.3830 C   0  0  2  0  0  3  0  0  0  0  0  0
  191.6470  176.3820  146.0250 N   0  0  0  0  0  0  0  0  0  0  0  0
  193.8060  176.4940  142.9410 N   0  0  0  0  0  2  0  0  0  0  0  0
  193.9220  175.5700  146.4750 C   0  0  0  0  0  2  0  0  0  0  0  0
  193.3760  175.9860  144.2500 C   0  0  1  0  0  0  0  0  0  0  0  0
  192.0730  176.6430  144.6660 C   0  0  0  0  0  0  0  0  0  0  0  0
  192.4860  175.8570  146.8890 C   0  0  0  0  0  3  0  0  0  0  0  0
  195.6370  175.2510  143.9000 N   0  0  0  0  0  2  0  0  0  0  0  0
  196.7170  175.2110  142.9600 C   0  0  0  0  0  0  0  0  0  0  0  0
  197.0980  176.2720  142.4010 O   0  0  0  0  0  0  0  0  0  0  0  0
  197.9410  171.9760  141.3110 C   0  0  0  0  0  1  0  0  0  0  0  0
  197.3170  173.9410  142.5200 C   0  0  0  0  0  3  0  0  0  0  0  0
  197.0410  173.1670  141.4670 C   0  0  0  0  0  0  0  0  0  0  0  0
  195.8680  173.3220  140.5550 C   0  0  0  0  0  0  0  0  0  0  0  0
  194.6670  173.0860  141.0350 C   0  0  0  0  0  0  0  0  0  0  0  0
  192.3850  172.8900  140.7860 F   0  0  0  0  0  0  0  0  0  0  0  0
  193.4920  172.8810  141.5700 C   0  0  0  0  0  0  0  0  0  0  0  0
  196.0560  173.7520  139.2240 O   0  0  0  0  0  0  0  0  0  0  0  0
  196.0040  171.7890  137.9740 O   0  0  0  0  0  0  0  0  0  0  0  0
  195.1580  173.7190  136.8980 C   0  0  0  0  0  1  0  0  0  0  0  0
  195.7690  173.0200  138.0590 C   0  0  0  0  0  0  0  0  0  0  0  0
  193.3670  172.8860  142.9940 N   0  0  0  0  0  2  0  0  0  0  0  0
  193.5340  171.8230  145.4090 O   0  0  0  0  0  0  0  0  0  0  0  0
  192.5290  170.4740  143.6150 O   0  0  0  0  0  0  0  0  0  0  0  0
  193.6130  171.4660  143.9510 S   0  0  0  0  0  0  0  0  0  0  0  0
  195.1660  170.7800  143.5910 N   0  0  0  0  0  2  0  0  0  0  0  0
  195.8010  170.4380  144.8560 C   0  0  0  0  0  2  0  0  0  0  0  0
  196.9970  172.4150  145.8060 C   0  0  0  0  0  1  0  0  0  0  0  0
  197.1380  171.1560  144.9790 C   0  0  0  0  0  2  0  0  0  0  0  0
  190.0400  177.8640  144.2630 N   0  0  0  0  0  2  0  0  0  0  0  0
  188.7390  177.4310  143.7640 C   0  0  2  0  0  3  0  0  0  0  0  0
  187.9400  176.8270  144.8350 N   0  0  0  0  0  2  0  0  0  0  0  0
  186.1700  177.4060  146.4470 C   0  0  0  0  0  2  0  0  0  0  0  0
  185.7270  177.3580  143.9650 C   0  0  0  0  0  2  0  0  0  0  0  0
  184.7340  177.9360  146.6140 C   0  0  0  0  0  2  0  0  0  0  0  0
  184.3280  178.8880  145.4860 C   0  0  0  0  0  2  0  0  0  0  0  0
  184.4680  178.2350  144.1070 C   0  0  0  0  0  2  0  0  0  0  0  0
  186.7630  177.6590  145.0500 C   0  0  0  0  0  3  0  0  0  0  0  0
  188.9130  176.4930  142.5560 C   0  0  0  0  0  2  0  0  0  0  0  0
  189.1900  172.2180  142.4590 C   0  0  0  0  0  2  0  0  0  0  0  0
  187.9640  174.2830  141.7260 C   0  0  0  0  0  2  0  0  0  0  0  0
  188.7330  174.9940  142.8490 C   0  0  1  0  0  3  0  0  0  0  0  0
  189.7670  173.0970  143.5640 C   0  0  0  0  0  2  0  0  0  0  0  0
  187.8410  172.7890  142.0350 C   0  0  0  0  0  2  0  0  0  0  0  0
  189.9960  174.3950  143.0640 O   0  0  0  0  0  0  0  0  0  0  0  0
  1 10  1  6  0  0  0
  1  7  1  0  0  0  0
  1  3  1  0  0  0  0
  2 32  1  0  0  0  0
  2  8  2  0  0  0  0
  3  6  1  1  0  0  0
  4  9  2  0  0  0  0
  5  1  1  0  0  0  0
  6  9  1  0  0  0  0
  7  5  1  6  0  0  0
  7  8  1  0  0  0  0
  7  3  1  0  0  0  0
  8  4  1  0  0  0  0
 11 10  1  0  0  0  0
 12 11  2  0  0  0  0
 13 15  1  0  0  0  0
 14 11  1  0  0  0  0
 15 14  2  0  0  0  0
 16 17  2  0  0  0  0
 16 15  1  0  0  0  0
 17 19  2  0  0  0  0
 18 19  1  0  0  0  0
 19 24  1  0  0  0  0
 20 16  1  0  0  0  0
 21 23  2  0  0  0  0
 22 23  1  0  0  0  0
 23 20  1  0  0  0  0
 24 27  1  0  0  0  0
 26 27  2  0  0  0  0
 27 25  2  0  0  0  0
 28 27  1  0  0  0  0
 28 29  1  0  0  0  0
 29 31  1  0  0  0  0
 31 30  1  0  0  0  0
 33 41  1  6  0  0  0
 33 32  1  0  0  0  0
 33 34  1  0  0  0  0
 34 40  1  0  0  0  0
 35 37  1  0  0  0  0
 36 39  1  0  0  0  0
 36 40  1  0  0  0  0
 38 37  1  0  0  0  0
 39 38  1  0  0  0  0
 40 35  1  0  0  0  0
 42 45  1  0  0  0  0
 43 46  1  0  0  0  0
 43 44  1  0  0  0  0
 44 41  1  6  0  0  0
 44 47  1  0  0  0  0
 46 42  1  0  0  0  0
 47 45  1  0  0  0  0
M  END
>  <MODEL>
5

>  <REMARK>
 VINA RESULT:      -6.5      2.245      5.490
  Name = 
  16 active torsions:
  status: ('A' for Active; 'I' for Inactive)
    1  A    between atoms: N_1  and  C_31
    2  A    between atoms: N_1  and  S_37
    3  A    between atoms: C_4  and  O_43
    4  A    between atoms: C_4  and  C_46
    5  A    between atoms: C_7  and  N_20
    6  A    between atoms: N_9  and  C_27
    7  A    between atoms: N_9  and  S_37
    8  A    between atoms: C_10  and  N_39
    9  A    between atoms: C_18  and  C_22
   10  A    between atoms: C_22  and  C_26
   11  A    between atoms: C_24  and  C_32
   12  A    between atoms: C_26  and  N_29
   13  A    between atoms: C_26  and  N_39
   14  A    between atoms: C_27  and  C_36
   15  A    between atoms: N_29  and  C_44
   16  A    between atoms: O_43  and  C_47
                            x       y       z     vdW  Elec       q    Type
                         _______ _______ _______ _____ _____    ______ ____

>  <TORSDO>
F 16

$$$$
=
 OpenBabel11072409003D

 47 51  0  0  1  0  0  0  0  0999 V2000
  195.0990  176.4360  143.7910 C   0  0  2  0  0  0  0  0  0  0  0  0
  191.5830  177.3420  143.6930 C   0  0  0  0  0  3  0  0  0  0  0  0
  194.5910  176.7110  145.1570 C   0  0  2  0  0  3  0  0  0  0  0  0
  192.0630  176.6010  145.9420 N   0  0  0  0  0  0  0  0  0  0  0  0
  194.0610  176.4350  142.7530 N   0  0  0  0  0  2  0  0  0  0  0  0
  194.3450  175.7810  146.3380 C   0  0  0  0  0  2  0  0  0  0  0  0
  193.6910  176.0370  144.1180 C   0  0  1  0  0  0  0  0  0  0  0  0
  192.4220  176.7500  144.5470 C   0  0  0  0  0  0  0  0  0  0  0  0
  192.9370  176.1270  146.8010 C   0  0  0  0  0  3  0  0  0  0  0  0
  195.9190  175.2320  143.7110 N   0  0  0  0  0  2  0  0  0  0  0  0
  197.0110  175.1380  142.7890 C   0  0  0  0  0  0  0  0  0  0  0  0
  197.4240  176.1720  142.2020 O   0  0  0  0  0  0  0  0  0  0  0  0
  197.9360  171.5470  141.8240 C   0  0  0  0  0  1  0  0  0  0  0  0
  197.5850  173.8410  142.3970 C   0  0  0  0  0  3  0  0  0  0  0  0
  197.0420  172.6200  142.3710 C   0  0  0  0  0  0  0  0  0  0  0  0
  195.7180  172.2440  142.9510 C   0  0  0  0  0  0  0  0  0  0  0  0
  194.6800  172.1720  142.1470 C   0  0  0  0  0  0  0  0  0  0  0  0
  192.4320  171.8470  141.7590 F   0  0  0  0  0  0  0  0  0  0  0  0
  193.6890  172.0720  141.3000 C   0  0  0  0  0  0  0  0  0  0  0  0
  195.6050  171.9370  144.3240 O   0  0  0  0  0  0  0  0  0  0  0  0
  197.3810  170.8300  145.3400 O   0  0  0  0  0  0  0  0  0  0  0  0
  196.9270  173.0070  146.1480 C   0  0  0  0  0  1  0  0  0  0  0  0
  196.6560  171.8510  145.2520 C   0  0  0  0  0  0  0  0  0  0  0  0
  193.9770  171.9670  139.9030 N   0  0  0  0  0  2  0  0  0  0  0  0
  192.3150  172.3110  137.8770 O   0  0  0  0  0  0  0  0  0  0  0  0
  192.6020  174.1640  139.4690 O   0  0  0  0  0  0  0  0  0  0  0  0
  193.3040  173.0500  138.7350 S   0  0  0  0  0  0  0  0  0  0  0  0
  194.5710  173.7070  137.7480 N   0  0  0  0  0  2  0  0  0  0  0  0
  195.3800  174.5760  138.5910 C   0  0  0  0  0  2  0  0  0  0  0  0
  197.7310  175.3590  138.9070 C   0  0  0  0  0  1  0  0  0  0  0  0
  196.7030  174.8850  137.9030 C   0  0  0  0  0  2  0  0  0  0  0  0
  190.3920  177.9770  144.1550 N   0  0  0  0  0  2  0  0  0  0  0  0
  189.0590  177.4560  143.8640 C   0  0  2  0  0  3  0  0  0  0  0  0
  188.4910  176.7840  145.0370 N   0  0  0  0  0  2  0  0  0  0  0  0
  186.3850  176.7310  146.3150 C   0  0  0  0  0  2  0  0  0  0  0  0
  186.7040  178.2990  144.3670 C   0  0  0  0  0  2  0  0  0  0  0  0
  185.0250  177.4160  146.5440 C   0  0  0  0  0  2  0  0  0  0  0  0
  185.0720  178.9180  146.2550 C   0  0  0  0  0  2  0  0  0  0  0  0
  185.5540  179.2140  144.8310 C   0  0  0  0  0  2  0  0  0  0  0  0
  187.3920  177.5990  145.5400 C   0  0  0  0  0  3  0  0  0  0  0  0
  189.0990  176.5460  142.6240 C   0  0  0  0  0  2  0  0  0  0  0  0
  189.1820  172.2630  142.5080 C   0  0  0  0  0  2  0  0  0  0  0  0
  188.1200  174.3880  141.6950 C   0  0  0  0  0  2  0  0  0  0  0  0
  188.8250  175.0550  142.8860 C   0  0  1  0  0  3  0  0  0  0  0  0
  189.7040  173.1070  143.6670 C   0  0  0  0  0  2  0  0  0  0  0  0
  187.9010  172.9000  141.9780 C   0  0  0  0  0  2  0  0  0  0  0  0
  190.0350  174.3950  143.2000 O   0  0  0  0  0  0  0  0  0  0  0  0
  1 10  1  6  0  0  0
  1  7  1  0  0  0  0
  1  3  1  0  0  0  0
  2 32  1  0  0  0  0
  2  8  2  0  0  0  0
  3  6  1  1  0  0  0
  4  9  2  0  0  0  0
  5  1  1  0  0  0  0
  6  9  1  0  0  0  0
  7  5  1  6  0  0  0
  7  8  1  0  0  0  0
  7  3  1  0  0  0  0
  8  4  1  0  0  0  0
 11 10  1  0  0  0  0
 12 11  2  0  0  0  0
 13 15  1  0  0  0  0
 14 11  1  0  0  0  0
 15 14  2  0  0  0  0
 15 16  1  0  0  0  0
 16 20  1  0  0  0  0
 17 16  2  0  0  0  0
 19 18  1  0  0  0  0
 19 17  2  0  0  0  0
 20 23  1  0  0  0  0
 23 21  2  0  0  0  0
 23 22  1  0  0  0  0
 24 19  1  0  0  0  0
 25 27  2  0  0  0  0
 27 26  2  0  0  0  0
 27 24  1  0  0  0  0
 28 29  1  0  0  0  0
 28 27  1  0  0  0  0
 31 29  1  0  0  0  0
 31 30  1  0  0  0  0
 33 41  1  6  0  0  0
 33 32  1  0  0  0  0
 33 34  1  0  0  0  0
 34 40  1  0  0  0  0
 35 37  1  0  0  0  0
 36 39  1  0  0  0  0
 36 40  1  0  0  0  0
 38 37  1  0  0  0  0
 39 38  1  0  0  0  0
 40 35  1  0  0  0  0
 42 45  1  0  0  0  0
 43 46  1  0  0  0  0
 43 44  1  0  0  0  0
 44 41  1  6  0  0  0
 44 47  1  0  0  0  0
 46 42  1  0  0  0  0
 47 45  1  0  0  0  0
M  END
>  <MODEL>
6

>  <REMARK>
 VINA RESULT:      -6.5      2.270      4.750
  Name = 
  16 active torsions:
  status: ('A' for Active; 'I' for Inactive)
    1  A    between atoms: N_1  and  C_31
    2  A    between atoms: N_1  and  S_37
    3  A    between atoms: C_4  and  O_43
    4  A    between atoms: C_4  and  C_46
    5  A    between atoms: C_7  and  N_20
    6  A    between atoms: N_9  and  C_27
    7  A    between atoms: N_9  and  S_37
    8  A    between atoms: C_10  and  N_39
    9  A    between atoms: C_18  and  C_22
   10  A    between atoms: C_22  and  C_26
   11  A    between atoms: C_24  and  C_32
   12  A    between atoms: C_26  and  N_29
   13  A    between atoms: C_26  and  N_39
   14  A    between atoms: C_27  and  C_36
   15  A    between atoms: N_29  and  C_44
   16  A    between atoms: O_43  and  C_47
                            x       y       z     vdW  Elec       q    Type
                         _______ _______ _______ _____ _____    ______ ____

>  <TORSDO>
F 16

$$$$
=
 OpenBabel11072409003D

 47 51  0  0  1  0  0  0  0  0999 V2000
  193.5800  176.4850  146.0000 C   0  0  2  0  0  0  0  0  0  0  0  0
  190.5480  177.3670  144.2060 C   0  0  0  0  0  3  0  0  0  0  0  0
  192.4030  176.4250  146.9010 C   0  0  2  0  0  3  0  0  0  0  0  0
  189.8780  176.1160  146.1620 N   0  0  0  0  0  0  0  0  0  0  0  0
  193.2460  176.7230  144.5900 N   0  0  0  0  0  2  0  0  0  0  0  0
  191.7040  175.2400  147.5530 C   0  0  0  0  0  2  0  0  0  0  0  0
  192.2760  176.0110  145.4320 C   0  0  1  0  0  0  0  0  0  0  0  0
  190.8880  176.5940  145.2410 C   0  0  0  0  0  0  0  0  0  0  0  0
  190.2300  175.4580  147.2430 C   0  0  0  0  0  3  0  0  0  0  0  0
  194.4730  175.3390  146.1390 N   0  0  0  0  0  2  0  0  0  0  0  0
  195.6910  175.2520  145.3900 C   0  0  0  0  0  0  0  0  0  0  0  0
  196.1240  176.2650  144.7820 O   0  0  0  0  0  0  0  0  0  0  0  0
  197.3940  172.0000  144.2900 C   0  0  0  0  0  1  0  0  0  0  0  0
  196.3920  173.9720  145.1960 C   0  0  0  0  0  3  0  0  0  0  0  0
  196.5200  173.2070  144.1080 C   0  0  0  0  0  0  0  0  0  0  0  0
  195.7780  173.3860  142.8250 C   0  0  0  0  0  0  0  0  0  0  0  0
  195.1660  172.3450  142.3040 C   0  0  0  0  0  0  0  0  0  0  0  0
  193.9370  171.3380  140.6360 F   0  0  0  0  0  0  0  0  0  0  0  0
  194.5400  171.2910  141.8510 C   0  0  0  0  0  0  0  0  0  0  0  0
  195.7090  174.6570  142.2160 O   0  0  0  0  0  0  0  0  0  0  0  0
  193.6090  175.3540  141.4970 O   0  0  0  0  0  0  0  0  0  0  0  0
  195.2630  175.1670  139.8160 C   0  0  0  0  0  1  0  0  0  0  0  0
  194.8000  175.0640  141.2250 C   0  0  0  0  0  0  0  0  0  0  0  0
  194.2970  170.1930  142.7330 N   0  0  0  0  0  2  0  0  0  0  0  0
  192.4780  171.3250  144.2810 O   0  0  0  0  0  0  0  0  0  0  0  0
  191.7280  169.6500  142.6440 O   0  0  0  0  0  0  0  0  0  0  0  0
  192.8190  170.0210  143.6150 S   0  0  0  0  0  0  0  0  0  0  0  0
  192.9910  168.7720  144.8080 N   0  0  0  0  0  2  0  0  0  0  0  0
  194.4150  168.5830  145.0460 C   0  0  0  0  0  2  0  0  0  0  0  0
  194.9310  168.8140  147.4790 C   0  0  0  0  0  1  0  0  0  0  0  0
  194.8890  169.5250  146.1440 C   0  0  0  0  0  2  0  0  0  0  0  0
  189.2180  177.8670  144.0690 N   0  0  0  0  0  2  0  0  0  0  0  0
  188.1460  177.0900  143.4540 C   0  0  2  0  0  3  0  0  0  0  0  0
  188.6050  176.4460  142.2190 N   0  0  0  0  0  2  0  0  0  0  0  0
  190.2140  174.5870  142.0620 C   0  0  0  0  0  2  0  0  0  0  0  0
  187.7380  174.2180  141.7510 C   0  0  0  0  0  2  0  0  0  0  0  0
  190.3760  173.0600  141.9510 C   0  0  0  0  0  2  0  0  0  0  0  0
  189.2210  172.3000  142.6090 C   0  0  0  0  0  2  0  0  0  0  0  0
  187.8630  172.7070  142.0290 C   0  0  0  0  0  2  0  0  0  0  0  0
  188.8040  175.0280  142.4920 C   0  0  0  0  0  3  0  0  0  0  0  0
  186.9040  177.9730  143.2330 C   0  0  0  0  0  2  0  0  0  0  0  0
  184.6970  178.2650  146.8940 C   0  0  0  0  0  2  0  0  0  0  0  0
  186.2170  176.8990  145.4350 C   0  0  0  0  0  2  0  0  0  0  0  0
  185.8150  177.8690  144.3140 C   0  0  1  0  0  3  0  0  0  0  0  0
  184.3680  179.0400  145.6230 C   0  0  0  0  0  2  0  0  0  0  0  0
  185.1260  176.8540  146.5080 C   0  0  0  0  0  2  0  0  0  0  0  0
  185.5260  179.1540  144.8270 O   0  0  0  0  0  0  0  0  0  0  0  0
  1 10  1  1  0  0  0
  1  3  1  0  0  0  0
  2  8  2  0  0  0  0
  3  6  1  1  0  0  0
  4  9  2  0  0  0  0
  5  1  1  0  0  0  0
  7  5  1  1  0  0  0
  7  1  1  0  0  0  0
  7  3  1  0  0  0  0
  8  7  1  0  0  0  0
  8  4  1  0  0  0  0
  9  6  1  0  0  0  0
 11 10  1  0  0  0  0
 12 11  2  0  0  0  0
 14 11  1  0  0  0  0
 15 13  1  0  0  0  0
 15 14  2  0  0  0  0
 16 15  1  0  0  0  0
 17 16  2  0  0  0  0
 18 19  1  0  0  0  0
 19 17  2  0  0  0  0
 19 24  1  0  0  0  0
 20 16  1  0  0  0  0
 22 23  1  0  0  0  0
 23 21  2  0  0  0  0
 23 20  1  0  0  0  0
 24 27  1  0  0  0  0
 26 27  2  0  0  0  0
 27 25  2  0  0  0  0
 27 28  1  0  0  0  0
 28 29  1  0  0  0  0
 29 31  1  0  0  0  0
 31 30  1  0  0  0  0
 32  2  1  0  0  0  0
 33 41  1  6  0  0  0
 33 32  1  0  0  0  0
 34 40  1  0  0  0  0
 34 33  1  0  0  0  0
 35 40  1  0  0  0  0
 36 39  1  0  0  0  0
 36 40  1  0  0  0  0
 37 35  1  0  0  0  0
 37 38  1  0  0  0  0
 39 38  1  0  0  0  0
 43 46  1  0  0  0  0
 44 41  1  6  0  0  0
 44 47  1  0  0  0  0
 44 43  1  0  0  0  0
 45 42  1  0  0  0  0
 46 42  1  0  0  0  0
 47 45  1  0  0  0  0
M  END
>  <MODEL>
7

>  <REMARK>
 VINA RESULT:      -6.4      2.187      4.075
  Name = 
  16 active torsions:
  status: ('A' for Active; 'I' for Inactive)
    1  A    between atoms: N_1  and  C_31
    2  A    between atoms: N_1  and  S_37
    3  A    between atoms: C_4  and  O_43
    4  A    between atoms: C_4  and  C_46
    5  A    between atoms: C_7  and  N_20
    6  A    between atoms: N_9  and  C_27
    7  A    between atoms: N_9  and  S_37
    8  A    between atoms: C_10  and  N_39
    9  A    between atoms: C_18  and  C_22
   10  A    between atoms: C_22  and  C_26
   11  A    between atoms: C_24  and  C_32
   12  A    between atoms: C_26  and  N_29
   13  A    between atoms: C_26  and  N_39
   14  A    between atoms: C_27  and  C_36
   15  A    between atoms: N_29  and  C_44
   16  A    between atoms: O_43  and  C_47
                            x       y       z     vdW  Elec       q    Type
                         _______ _______ _______ _____ _____    ______ ____

>  <TORSDO>
F 16

$$$$
=
 OpenBabel11072409003D

 47 51  0  0  1  0  0  0  0  0999 V2000
  194.0160  176.1410  144.0760 C   0  0  2  0  0  0  0  0  0  0  0  0
  190.4460  176.8120  144.0690 C   0  0  0  0  0  3  0  0  0  0  0  0
  193.5790  176.6610  145.3940 C   0  0  2  0  0  3  0  0  0  0  0  0
  191.1210  176.5750  146.3780 N   0  0  0  0  0  0  0  0  0  0  0  0
  192.9160  175.8700  143.1420 N   0  0  0  0  0  2  0  0  0  0  0  0
  193.4750  175.9810  146.7530 C   0  0  0  0  0  2  0  0  0  0  0  0
  192.6640  175.7400  144.5830 C   0  0  1  0  0  0  0  0  0  0  0  0
  191.3780  176.4540  144.9580 C   0  0  0  0  0  0  0  0  0  0  0  0
  192.0790  176.3360  147.2440 C   0  0  0  0  0  3  0  0  0  0  0  0
  194.9120  174.9940  144.1760 N   0  0  0  0  0  2  0  0  0  0  0  0
  196.0230  174.8410  143.2860 C   0  0  0  0  0  0  0  0  0  0  0  0
  196.3810  175.8050  142.5620 O   0  0  0  0  0  0  0  0  0  0  0  0
  197.5440  171.4960  142.1970 C   0  0  0  0  0  1  0  0  0  0  0  0
  196.6860  173.5410  143.0890 C   0  0  0  0  0  3  0  0  0  0  0  0
  196.6580  172.6980  142.0520 C   0  0  0  0  0  0  0  0  0  0  0  0
  195.7440  172.7960  140.8750 C   0  0  0  0  0  0  0  0  0  0  0  0
  194.5120  172.3540  141.0000 C   0  0  0  0  0  0  0  0  0  0  0  0
  192.4250  171.8900  140.1410 F   0  0  0  0  0  0  0  0  0  0  0  0
  193.2860  171.9420  141.1880 C   0  0  0  0  0  0  0  0  0  0  0  0
  196.1930  173.3860  139.6740 O   0  0  0  0  0  0  0  0  0  0  0  0
  197.0310  175.4710  139.0680 O   0  0  0  0  0  0  0  0  0  0  0  0
  194.6730  175.2900  139.1410 C   0  0  0  0  0  1  0  0  0  0  0  0
  196.0430  174.7310  139.2940 C   0  0  0  0  0  0  0  0  0  0  0  0
  192.8050  171.7780  142.5250 N   0  0  0  0  0  2  0  0  0  0  0  0
  190.2910  171.0070  142.7880 O   0  0  0  0  0  0  0  0  0  0  0  0
  191.1990  172.5840  144.4420 O   0  0  0  0  0  0  0  0  0  0  0  0
  191.1910  172.1940  142.9860 S   0  0  0  0  0  0  0  0  0  0  0  0
  190.6340  173.5290  142.0270 N   0  0  0  0  0  2  0  0  0  0  0  0
  189.4540  173.0850  141.2990 C   0  0  0  0  0  2  0  0  0  0  0  0
  189.3320  172.5270  138.8670 C   0  0  0  0  0  1  0  0  0  0  0  0
  189.4760  173.6400  139.8810 C   0  0  0  0  0  2  0  0  0  0  0  0
  189.2450  177.4600  144.4850 N   0  0  0  0  0  2  0  0  0  0  0  0
  187.9730  176.7560  144.6090 C   0  0  2  0  0  3  0  0  0  0  0  0
  187.8260  176.1650  145.9430 N   0  0  0  0  0  2  0  0  0  0  0  0
  185.4760  176.8850  145.7660 C   0  0  0  0  0  2  0  0  0  0  0  0
  187.1970  178.2860  146.9640 C   0  0  0  0  0  2  0  0  0  0  0  0
  184.4290  177.9120  146.2330 C   0  0  0  0  0  2  0  0  0  0  0  0
  184.7210  178.4470  147.6370 C   0  0  0  0  0  2  0  0  0  0  0  0
  186.1170  179.0700  147.7350 C   0  0  0  0  0  2  0  0  0  0  0  0
  186.7480  176.8620  146.6330 C   0  0  0  0  0  3  0  0  0  0  0  0
  187.8250  175.7160  143.4830 C   0  0  0  0  0  2  0  0  0  0  0  0
  186.2890  177.9160  140.1430 C   0  0  0  0  0  2  0  0  0  0  0  0
  186.1240  177.3850  142.5910 C   0  0  0  0  0  2  0  0  0  0  0  0
  187.0030  176.1690  142.2650 C   0  0  1  0  0  3  0  0  0  0  0  0
  187.0660  176.6090  140.0330 C   0  0  0  0  0  2  0  0  0  0  0  0
  185.3540  177.8290  141.3450 C   0  0  0  0  0  2  0  0  0  0  0  0
  187.8690  176.4400  141.1790 O   0  0  0  0  0  0  0  0  0  0  0  0
  1 10  1  1  0  0  0
  1  7  1  0  0  0  0
  1  3  1  0  0  0  0
  2 32  1  0  0  0  0
  2  8  2  0  0  0  0
  3  6  1  1  0  0  0
  4  9  2  0  0  0  0
  5  1  1  0  0  0  0
  6  9  1  0  0  0  0
  7  5  1  6  0  0  0
  7  8  1  0  0  0  0
  7  3  1  0  0  0  0
  8  4  1  0  0  0  0
 11 10  1  0  0  0  0
 12 11  2  0  0  0  0
 14 11  1  0  0  0  0
 15 13  1  0  0  0  0
 15 14  2  0  0  0  0
 16 17  2  0  0  0  0
 16 15  1  0  0  0  0
 17 19  2  0  0  0  0
 18 19  1  0  0  0  0
 19 24  1  0  0  0  0
 20 16  1  0  0  0  0
 21 23  2  0  0  0  0
 22 23  1  0  0  0  0
 23 20  1  0  0  0  0
 24 27  1  0  0  0  0
 25 27  2  0  0  0  0
 27 26  2  0  0  0  0
 28 27  1  0  0  0  0
 29 28  1  0  0  0  0
 30 31  1  0  0  0  0
 31 29  1  0  0  0  0
 32 33  1  0  0  0  0
 33 41  1  6  0  0  0
 33 34  1  0  0  0  0
 34 40  1  0  0  0  0
 35 37  1  0  0  0  0
 35 40  1  0  0  0  0
 36 39  1  0  0  0  0
 37 38  1  0  0  0  0
 38 39  1  0  0  0  0
 40 36  1  0  0  0  0
 42 46  1  0  0  0  0
 44 43  1  0  0  0  0
 44 41  1  1  0  0  0
 45 42  1  0  0  0  0
 45 47  1  0  0  0  0
 46 43  1  0  0  0  0
 47 44  1  0  0  0  0
M  END
>  <MODEL>
8

>  <REMARK>
 VINA RESULT:      -6.3      2.324      5.245
  Name = 
  16 active torsions:
  status: ('A' for Active; 'I' for Inactive)
    1  A    between atoms: N_1  and  C_31
    2  A    between atoms: N_1  and  S_37
    3  A    between atoms: C_4  and  O_43
    4  A    between atoms: C_4  and  C_46
    5  A    between atoms: C_7  and  N_20
    6  A    between atoms: N_9  and  C_27
    7  A    between atoms: N_9  and  S_37
    8  A    between atoms: C_10  and  N_39
    9  A    between atoms: C_18  and  C_22
   10  A    between atoms: C_22  and  C_26
   11  A    between atoms: C_24  and  C_32
   12  A    between atoms: C_26  and  N_29
   13  A    between atoms: C_26  and  N_39
   14  A    between atoms: C_27  and  C_36
   15  A    between atoms: N_29  and  C_44
   16  A    between atoms: O_43  and  C_47
                            x       y       z     vdW  Elec       q    Type
                         _______ _______ _______ _____ _____    ______ ____

>  <TORSDO>
F 16

$$$$
=
 OpenBabel11072409003D

 47 51  0  0  1  0  0  0  0  0999 V2000
  190.5850  171.6420  141.7710 C   0  0  2  0  0  0  0  0  0  0  0  0
  190.0870  173.3790  144.9210 C   0  0  0  0  0  3  0  0  0  0  0  0
  189.3790  172.5020  141.7080 C   0  0  2  0  0  3  0  0  0  0  0  0
  188.8780  174.6120  143.2310 N   0  0  0  0  0  0  0  0  0  0  0  0
  191.3750  171.8020  142.9980 N   0  0  0  0  0  2  0  0  0  0  0  0
  189.1040  173.7820  140.9290 C   0  0  0  0  0  2  0  0  0  0  0  0
  190.6110  172.9520  142.4980 C   0  0  1  0  0  0  0  0  0  0  0  0
  189.8280  173.5940  143.6280 C   0  0  0  0  0  0  0  0  0  0  0  0
  188.5370  174.7380  141.9680 C   0  0  0  0  0  3  0  0  0  0  0  0
  191.4320  171.7470  140.5870 N   0  0  0  0  0  2  0  0  0  0  0  0
  191.3940  170.7520  139.5570 C   0  0  0  0  0  0  0  0  0  0  0  0
  190.4670  169.9020  139.5440 O   0  0  0  0  0  0  0  0  0  0  0  0
  194.1020  170.9450  136.8530 C   0  0  0  0  0  1  0  0  0  0  0  0
  192.4850  170.6050  138.5800 C   0  0  0  0  0  3  0  0  0  0  0  0
  192.8780  171.4080  137.5860 C   0  0  0  0  0  0  0  0  0  0  0  0
  192.1360  172.6060  137.0900 C   0  0  0  0  0  0  0  0  0  0  0  0
  192.7240  173.7800  137.1610 C   0  0  0  0  0  0  0  0  0  0  0  0
  192.7270  176.0680  136.8890 F   0  0  0  0  0  0  0  0  0  0  0  0
  193.3680  174.9160  137.2130 C   0  0  0  0  0  0  0  0  0  0  0  0
  190.8520  172.4620  136.5250 O   0  0  0  0  0  0  0  0  0  0  0  0
  190.0010  173.9250  134.9280 O   0  0  0  0  0  0  0  0  0  0  0  0
  189.0540  174.0960  137.0900 C   0  0  0  0  0  1  0  0  0  0  0  0
  189.9980  173.4980  136.1090 C   0  0  0  0  0  0  0  0  0  0  0  0
  194.7880  174.9040  137.3800 N   0  0  0  0  0  2  0  0  0  0  0  0
  195.5770  173.2990  139.3270 O   0  0  0  0  0  0  0  0  0  0  0  0
  196.9420  175.2850  138.8370 O   0  0  0  0  0  0  0  0  0  0  0  0
  195.5370  174.7490  138.9320 S   0  0  0  0  0  0  0  0  0  0  0  0
  194.6420  175.6600  140.1070 N   0  0  0  0  0  2  0  0  0  0  0  0
  195.5990  176.4230  140.8950 C   0  0  0  0  0  2  0  0  0  0  0  0
  196.8400  176.4850  143.0620 C   0  0  0  0  0  1  0  0  0  0  0  0
  195.7150  175.8300  142.2930 C   0  0  0  0  0  2  0  0  0  0  0  0
  189.3300  174.0310  145.9400 N   0  0  0  0  0  2  0  0  0  0  0  0
  189.6430  175.3750  146.4140 C   0  0  2  0  0  3  0  0  0  0  0  0
  190.7340  175.3460  147.3940 N   0  0  0  0  0  2  0  0  0  0  0  0
  191.4970  176.7220  145.4980 C   0  0  0  0  0  2  0  0  0  0  0  0
  193.0010  175.0040  146.5690 C   0  0  0  0  0  2  0  0  0  0  0  0
  192.7040  177.1240  144.6310 C   0  0  0  0  0  2  0  0  0  0  0  0
  194.0260  177.0520  145.4010 C   0  0  0  0  0  2  0  0  0  0  0  0
  194.2700  175.6600  145.9920 C   0  0  0  0  0  2  0  0  0  0  0  0
  191.8860  176.0230  146.8130 C   0  0  0  0  0  3  0  0  0  0  0  0
  188.3770  176.0590  146.9610 C   0  0  0  0  0  2  0  0  0  0  0  0
  186.0150  178.6890  144.5390 C   0  0  0  0  0  2  0  0  0  0  0  0
  186.1250  177.1630  146.5300 C   0  0  0  0  0  2  0  0  0  0  0  0
  187.4210  176.6310  145.9010 C   0  0  1  0  0  3  0  0  0  0  0  0
  187.2590  177.9520  144.0550 C   0  0  0  0  0  2  0  0  0  0  0  0
  185.2190  177.7590  145.4490 C   0  0  0  0  0  2  0  0  0  0  0  0
  188.0800  177.6370  145.1570 O   0  0  0  0  0  0  0  0  0  0  0  0
  1 10  1  6  0  0  0
  1  7  1  0  0  0  0
  1  5  1  0  0  0  0
  2 32  1  0  0  0  0
  3  6  1  6  0  0  0
  3  1  1  0  0  0  0
  3  7  1  0  0  0  0
  4  8  1  0  0  0  0
  6  9  1  0  0  0  0
  7  5  1  1  0  0  0
  7  8  1  0  0  0  0
  8  2  2  0  0  0  0
  9  4  2  0  0  0  0
 11 10  1  0  0  0  0
 12 11  2  0  0  0  0
 13 15  1  0  0  0  0
 14 11  1  0  0  0  0
 15 14  2  0  0  0  0
 16 17  2  0  0  0  0
 16 15  1  0  0  0  0
 17 19  2  0  0  0  0
 18 19  1  0  0  0  0
 19 24  1  0  0  0  0
 20 16  1  0  0  0  0
 21 23  2  0  0  0  0
 23 20  1  0  0  0  0
 23 22  1  0  0  0  0
 24 27  1  0  0  0  0
 26 27  2  0  0  0  0
 27 25  2  0  0  0  0
 27 28  1  0  0  0  0
 28 29  1  0  0  0  0
 29 31  1  0  0  0  0
 31 30  1  0  0  0  0
 32 33  1  0  0  0  0
 33 41  1  1  0  0  0
 33 34  1  0  0  0  0
 35 40  1  0  0  0  0
 36 40  1  0  0  0  0
 37 38  1  0  0  0  0
 37 35  1  0  0  0  0
 38 39  1  0  0  0  0
 39 36  1  0  0  0  0
 40 34  1  0  0  0  0
 42 46  1  0  0  0  0
 44 43  1  0  0  0  0
 44 41  1  1  0  0  0
 45 42  1  0  0  0  0
 45 47  1  0  0  0  0
 46 43  1  0  0  0  0
 47 44  1  0  0  0  0
M  END
>  <MODEL>
9

>  <REMARK>
 VINA RESULT:      -6.3      3.191      6.148
  Name = 
  16 active torsions:
  status: ('A' for Active; 'I' for Inactive)
    1  A    between atoms: N_1  and  C_31
    2  A    between atoms: N_1  and  S_37
    3  A    between atoms: C_4  and  O_43
    4  A    between atoms: C_4  and  C_46
    5  A    between atoms: C_7  and  N_20
    6  A    between atoms: N_9  and  C_27
    7  A    between atoms: N_9  and  S_37
    8  A    between atoms: C_10  and  N_39
    9  A    between atoms: C_18  and  C_22
   10  A    between atoms: C_22  and  C_26
   11  A    between atoms: C_24  and  C_32
   12  A    between atoms: C_26  and  N_29
   13  A    between atoms: C_26  and  N_39
   14  A    between atoms: C_27  and  C_36
   15  A    between atoms: N_29  and  C_44
   16  A    between atoms: O_43  and  C_47
                            x       y       z     vdW  Elec       q    Type
                         _______ _______ _______ _____ _____    ______ ____

>  <TORSDO>
F 16

$$$$
