=
 OpenBabel11062419123D

 54 58  0  0  1  0  0  0  0  0999 V2000
  190.9430  173.4280  142.7850 C   0  0  2  0  0  3  0  0  0  0  0  0
  190.3080  174.8210  142.7500 C   0  0  1  0  0  3  0  0  0  0  0  0
  186.9280  176.0020  142.4430 C   0  0  0  0  0  3  0  0  0  0  0  0
  189.1890  174.8900  141.7660 C   0  0  0  0  0  3  0  0  0  0  0  0
  188.0620  175.4490  142.1000 C   0  0  0  0  0  0  0  0  0  0  0  0
  185.0860  178.3650  144.4970 C   0  0  2  0  0  3  0  0  0  0  0  0
  185.6400  179.2470  143.4020 C   0  0  0  0  0  2  0  0  0  0  0  0
  185.3400  179.0060  145.8530 C   0  0  0  0  0  2  0  0  0  0  0  0
  186.3480  178.3930  142.4600 N   0  0  0  0  0  2  0  0  0  0  0  0
  185.8880  177.0730  144.4160 C   0  0  2  0  0  3  0  0  0  0  0  0
  186.6830  176.9190  145.7050 C   0  0  0  0  0  2  0  0  0  0  0  0
  186.7290  178.2880  147.7020 N   0  0  0  0  0  2  0  0  0  0  0  0
  186.3110  178.1030  146.5060 C   0  0  0  0  0  0  0  0  0  0  0  0
  186.8340  177.2650  143.2480 C   0  0  1  0  0  3  0  0  0  0  0  0
  189.8410  175.1590  144.0230 O   0  0  0  0  0  0  0  0  0  0  0  0
  191.3290  176.8290  143.1710 C   0  0  0  0  0  1  0  0  0  0  0  0
  190.4960  176.3490  144.3510 C   0  0  2  0  0  3  0  0  0  0  0  0
  191.3180  176.1650  145.6390 C   0  0  2  0  0  3  0  0  0  0  0  0
  190.5660  176.3030  146.9320 C   0  0  0  0  0  0  0  0  0  0  0  0
  190.1070  177.4250  147.2670 O   0  0  0  0  0  0  0  0  0  0  0  0
  190.3510  175.2010  147.7510 O   0  0  0  0  0  1  0  0  0  0  0  0
  192.6120  176.7350  145.6320 O   0  0  0  0  0  0  0  0  0  0  0  0
  193.3790  176.1500  146.6510 C   0  0  0  0  0  1  0  0  0  0  0  0
  190.0600  172.4500  142.2470 O   0  0  0  0  0  0  0  0  0  0  0  0
  190.6100  172.1130  139.8120 C   0  0  0  0  0  2  0  0  0  0  0  0
  191.0100  169.0720  140.9690 N   0  0  0  0  0  2  0  0  0  0  0  0
  189.8870  171.4430  138.7200 N   0  0  0  0  0  0  0  0  0  0  0  0
  190.1540  170.0720  138.7090 C   0  0  0  0  0  0  0  0  0  0  0  0
  190.7160  170.2790  141.7140 C   0  0  0  0  0  3  0  0  0  0  0  0
  190.3130  168.7420  138.3140 C   0  0  0  0  0  2  0  0  0  0  0  0
  190.4350  171.5430  141.2510 C   0  0  0  0  0  0  0  0  0  0  0  0
  190.6180  169.1100  139.6260 C   0  0  0  0  0  0  0  0  0  0  0  0
  189.4890  172.1600  137.5200 C   0  0  0  0  0  2  0  0  0  0  0  0
  190.3350  174.3110  136.5710 C   0  0  0  0  0  1  0  0  0  0  0  0
  189.6000  173.6640  137.7280 C   0  0  0  0  0  3  0  0  0  0  0  0
  188.2100  174.2580  137.8280 C   0  0  0  0  0  1  0  0  0  0  0  0
  191.3030  173.0740  144.0910 O   0  0  0  0  0  0  0  0  0  0  0  0
  193.5430  172.7620  145.6610 O   0  0  0  0  0  1  0  0  0  0  0  0
  193.3750  171.6750  143.2900 O   0  0  0  0  0  0  0  0  0  0  0  0
  192.9920  172.9140  144.0680 P   0  0  1  0  0  0  0  0  0  0  0  0
  193.6800  174.2950  143.3520 O   0  0  0  0  0  0  0  0  0  0  0  0
  195.0250  173.9830  143.1100 C   0  0  1  0  0  3  0  0  0  0  0  0
  195.4790  172.9030  140.8860 C   0  0  0  0  0  2  0  0  0  0  0  0
  194.2860  174.9250  140.9210 C   0  0  0  0  0  0  0  0  0  0  0  0
  193.6550  174.1320  139.9400 N   0  0  0  0  0  2  0  0  0  0  0  0
  193.9510  176.1180  141.1350 O   0  0  0  0  0  0  0  0  0  0  0  0
  194.7500  172.5200  138.5890 N   0  0  0  0  0  1  0  0  0  0  0  0
  195.3830  174.2350  141.6380 C   0  0  1  0  0  3  0  0  0  0  0  0
  194.2830  172.8260  139.9280 C   0  0  1  0  0  3  0  0  0  0  0  0
  195.9010  174.7880  144.0310 C   0  0  0  0  0  0  0  0  0  0  0  0
  195.8890  176.1260  143.9890 C   0  0  0  0  0  2  0  0  0  0  0  0
  196.4300  174.2310  146.2820 O   0  0  0  0  0  1  0  0  0  0  0  0
  196.8290  174.0580  144.9560 C   0  0  1  0  0  3  0  0  0  0  0  0
  196.8940  172.5780  144.6210 C   0  0  0  0  0  1  0  0  0  0  0  0
  1 24  1  1  0  0  0
  1 37  1  0  0  0  0
  2  4  1  6  0  0  0
  2  1  1  0  0  0  0
  2 15  1  0  0  0  0
  4  5  2  0  0  0  0
  5  3  2  0  0  0  0
  6  7  1  6  0  0  0
  6  8  1  0  0  0  0
  8 13  1  0  0  0  0
  9 14  1  0  0  0  0
  9  7  1  0  0  0  0
 10  6  1  0  0  0  0
 10 11  1  1  0  0  0
 11 13  1  0  0  0  0
 13 12  2  0  0  0  0
 14  3  1  6  0  0  0
 14 10  1  0  0  0  0
 15 17  1  0  0  0  0
 17 16  1  6  0  0  0
 17 18  1  0  0  0  0
 18 22  1  1  0  0  0
 18 19  1  0  0  0  0
 19 20  2  0  0  0  0
 19 21  1  0  0  0  0
 22 23  1  0  0  0  0
 25 31  1  0  0  0  0
 26 29  1  0  0  0  0
 27 25  1  0  0  0  0
 28 27  1  0  0  0  0
 28 32  2  0  0  0  0
 30 28  1  0  0  0  0
 30 32  1  0  0  0  0
 31 29  2  0  0  0  0
 31 24  1  0  0  0  0
 32 26  1  0  0  0  0
 33 35  1  0  0  0  0
 33 27  1  0  0  0  0
 34 35  1  0  0  0  0
 35 36  1  0  0  0  0
 40 39  2  6  0  0  0
 40 37  1  0  0  0  0
 40 38  1  0  0  0  0
 41 40  1  0  0  0  0
 42 41  1  6  0  0  0
 42 50  1  0  0  0  0
 43 48  1  0  0  0  0
 44 46  2  0  0  0  0
 44 48  1  0  0  0  0
 45 44  1  0  0  0  0
 48 42  1  1  0  0  0
 49 47  1  6  0  0  0
 49 45  1  0  0  0  0
 49 43  1  0  0  0  0
 50 53  1  0  0  0  0
 51 50  2  0  0  0  0
 53 54  1  6  0  0  0
 53 52  1  0  0  0  0
M  END
>  <MODEL>
1

>  <REMARK>
 VINA RESULT:      -6.5      0.000      0.000
  Name = 
  19 active torsions:
  status: ('A' for Active; 'I' for Inactive)
    1  A    between atoms: O_3  and  C_45
    2  A    between atoms: O_3  and  C_52
    3  A    between atoms: O_4  and  C_22
    4  A    between atoms: O_4  and  P_50
    5  A    between atoms: N_13  and  C_30
    6  A    between atoms: C_14  and  C_49
    7  A    between atoms: C_15  and  O_21
    8  A    between atoms: C_15  and  C_32
    9  A    between atoms: C_15  and  C_53
   10  A    between atoms: C_20  and  C_48
   11  A    between atoms: O_21  and  P_50
   12  A    between atoms: C_22  and  O_39
   13  A    between atoms: C_22  and  C_45
   14  A    between atoms: C_24  and  C_32
   15  A    between atoms: O_27  and  C_48
   16  A    between atoms: C_28  and  C_45
   17  A    between atoms: C_30  and  C_35
   18  A    between atoms: C_33  and  O_39
   19  A    between atoms: C_48  and  C_52
                            x       y       z     vdW  Elec       q    Type
                         _______ _______ _______ _____ _____    ______ ____

>  <TORSDO>
F 19

$$$$
=
 OpenBabel11062419123D

 54 58  0  0  1  0  0  0  0  0999 V2000
  190.7780  173.2580  143.2150 C   0  0  2  0  0  3  0  0  0  0  0  0
  190.1430  174.6380  143.4000 C   0  0  1  0  0  3  0  0  0  0  0  0
  187.1880  176.3880  142.3400 C   0  0  0  0  0  3  0  0  0  0  0  0
  189.4460  175.0930  142.1620 C   0  0  0  0  0  3  0  0  0  0  0  0
  188.3220  175.7440  142.2490 C   0  0  0  0  0  0  0  0  0  0  0  0
  184.9580  178.2530  144.5200 C   0  0  2  0  0  3  0  0  0  0  0  0
  185.6420  179.3500  143.7350 C   0  0  0  0  0  2  0  0  0  0  0  0
  184.9740  178.5930  146.0020 C   0  0  0  0  0  2  0  0  0  0  0  0
  186.5190  178.7180  142.7620 N   0  0  0  0  0  2  0  0  0  0  0  0
  185.8130  177.0120  144.3010 C   0  0  2  0  0  3  0  0  0  0  0  0
  186.4030  176.5920  145.6390 C   0  0  0  0  0  2  0  0  0  0  0  0
  186.0850  177.5070  147.8590 N   0  0  0  0  0  2  0  0  0  0  0  0
  185.8660  177.5780  146.5990 C   0  0  0  0  0  0  0  0  0  0  0  0
  186.9210  177.4510  143.3650 C   0  0  1  0  0  3  0  0  0  0  0  0
  189.2400  174.6030  144.4660 O   0  0  0  0  0  0  0  0  0  0  0  0
  189.1910  174.4700  146.8550 C   0  0  0  0  0  1  0  0  0  0  0  0
  190.0190  174.7720  145.6140 C   0  0  2  0  0  3  0  0  0  0  0  0
  190.6440  176.1770  145.6290 C   0  0  2  0  0  3  0  0  0  0  0  0
  191.6230  176.4570  146.7350 C   0  0  0  0  0  0  0  0  0  0  0  0
  191.2140  176.9630  147.8120 O   0  0  0  0  0  1  0  0  0  0  0  0
  192.9680  176.1440  146.5890 O   0  0  0  0  0  0  0  0  0  0  0  0
  189.7710  177.2450  145.3150 O   0  0  0  0  0  0  0  0  0  0  0  0
  190.3910  178.0880  144.3810 C   0  0  0  0  0  1  0  0  0  0  0  0
  189.9020  172.3820  142.5140 O   0  0  0  0  0  0  0  0  0  0  0  0
  190.1800  172.3530  140.0100 C   0  0  0  0  0  2  0  0  0  0  0  0
  191.2350  169.3490  140.7900 N   0  0  0  0  0  2  0  0  0  0  0  0
  189.4460  171.6560  138.9430 N   0  0  0  0  0  0  0  0  0  0  0  0
  189.9360  170.3620  138.7590 C   0  0  0  0  0  0  0  0  0  0  0  0
  190.8400  170.4170  141.6860 C   0  0  0  0  0  3  0  0  0  0  0  0
  190.2650  169.1200  138.2120 C   0  0  0  0  0  2  0  0  0  0  0  0
  190.2930  171.6430  141.3930 C   0  0  0  0  0  0  0  0  0  0  0  0
  190.6710  169.4270  139.5110 C   0  0  0  0  0  0  0  0  0  0  0  0
  188.7790  172.3870  137.8770 C   0  0  0  0  0  2  0  0  0  0  0  0
  190.1370  174.1530  136.7470 C   0  0  0  0  0  1  0  0  0  0  0  0
  189.1890  173.8530  137.8910 C   0  0  0  0  0  3  0  0  0  0  0  0
  187.9540  174.7180  137.7520 C   0  0  0  0  0  1  0  0  0  0  0  0
  191.1220  172.6950  144.4500 O   0  0  0  0  0  0  0  0  0  0  0  0
  193.5380  173.0390  145.7250 O   0  0  0  0  0  1  0  0  0  0  0  0
  193.0220  170.8870  144.3320 O   0  0  0  0  0  0  0  0  0  0  0  0
  192.7870  172.3810  144.3580 P   0  0  1  0  0  0  0  0  0  0  0  0
  193.4190  173.1010  142.9530 O   0  0  0  0  0  0  0  0  0  0  0  0
  194.6190  173.7180  143.3340 C   0  0  1  0  0  3  0  0  0  0  0  0
  196.4940  172.0440  143.3020 C   0  0  0  0  0  2  0  0  0  0  0  0
  195.3330  172.4560  141.3040 C   0  0  0  0  0  0  0  0  0  0  0  0
  195.5580  171.0640  141.3290 N   0  0  0  0  0  2  0  0  0  0  0  0
  194.8070  173.0320  140.3170 O   0  0  0  0  0  0  0  0  0  0  0  0
  197.4310  170.0110  142.3310 N   0  0  0  0  0  1  0  0  0  0  0  0
  195.7970  173.1620  142.5200 C   0  0  1  0  0  3  0  0  0  0  0  0
  196.1920  170.7210  142.5870 C   0  0  1  0  0  3  0  0  0  0  0  0
  194.4940  175.2080  143.1670 C   0  0  0  0  0  0  0  0  0  0  0  0
  193.6530  175.7260  142.2620 C   0  0  0  0  0  2  0  0  0  0  0  0
  195.8580  175.4050  145.1050 O   0  0  0  0  0  1  0  0  0  0  0  0
  195.3730  176.0980  143.9950 C   0  0  1  0  0  3  0  0  0  0  0  0
  196.5290  176.6480  143.1790 C   0  0  0  0  0  1  0  0  0  0  0  0
  1 24  1  1  0  0  0
  1  2  1  0  0  0  0
  1 37  1  0  0  0  0
  2  4  1  6  0  0  0
  2 15  1  0  0  0  0
  4  5  2  0  0  0  0
  5  3  2  0  0  0  0
  6  7  1  6  0  0  0
  6  8  1  0  0  0  0
  8 13  1  0  0  0  0
  9 14  1  0  0  0  0
  9  7  1  0  0  0  0
 10  6  1  0  0  0  0
 10 11  1  1  0  0  0
 11 13  1  0  0  0  0
 13 12  2  0  0  0  0
 14  3  1  6  0  0  0
 14 10  1  0  0  0  0
 15 17  1  0  0  0  0
 17 18  1  0  0  0  0
 17 16  1  1  0  0  0
 18 22  1  1  0  0  0
 18 19  1  0  0  0  0
 19 20  1  0  0  0  0
 21 19  2  0  0  0  0
 23 22  1  0  0  0  0
 25 31  1  0  0  0  0
 26 29  1  0  0  0  0
 27 25  1  0  0  0  0
 28 27  1  0  0  0  0
 28 32  2  0  0  0  0
 30 28  1  0  0  0  0
 30 32  1  0  0  0  0
 31 29  2  0  0  0  0
 31 24  1  0  0  0  0
 32 26  1  0  0  0  0
 33 35  1  0  0  0  0
 33 27  1  0  0  0  0
 34 35  1  0  0  0  0
 36 35  1  0  0  0  0
 40 39  2  6  0  0  0
 40 37  1  0  0  0  0
 40 38  1  0  0  0  0
 41 40  1  0  0  0  0
 42 41  1  6  0  0  0
 44 45  1  0  0  0  0
 44 48  1  0  0  0  0
 45 49  1  0  0  0  0
 46 44  2  0  0  0  0
 48 43  1  0  0  0  0
 48 42  1  1  0  0  0
 49 47  1  6  0  0  0
 49 43  1  0  0  0  0
 50 42  1  0  0  0  0
 50 53  1  0  0  0  0
 51 50  2  0  0  0  0
 53 54  1  6  0  0  0
 53 52  1  0  0  0  0
M  END
>  <MODEL>
2

>  <REMARK>
 VINA RESULT:      -6.4      1.380      1.945
  Name = 
  19 active torsions:
  status: ('A' for Active; 'I' for Inactive)
    1  A    between atoms: O_3  and  C_45
    2  A    between atoms: O_3  and  C_52
    3  A    between atoms: O_4  and  C_22
    4  A    between atoms: O_4  and  P_50
    5  A    between atoms: N_13  and  C_30
    6  A    between atoms: C_14  and  C_49
    7  A    between atoms: C_15  and  O_21
    8  A    between atoms: C_15  and  C_32
    9  A    between atoms: C_15  and  C_53
   10  A    between atoms: C_20  and  C_48
   11  A    between atoms: O_21  and  P_50
   12  A    between atoms: C_22  and  O_39
   13  A    between atoms: C_22  and  C_45
   14  A    between atoms: C_24  and  C_32
   15  A    between atoms: O_27  and  C_48
   16  A    between atoms: C_28  and  C_45
   17  A    between atoms: C_30  and  C_35
   18  A    between atoms: C_33  and  O_39
   19  A    between atoms: C_48  and  C_52
                            x       y       z     vdW  Elec       q    Type
                         _______ _______ _______ _____ _____    ______ ____

>  <TORSDO>
F 19

$$$$
=
 OpenBabel11062419123D

 54 58  0  0  1  0  0  0  0  0999 V2000
  190.6410  172.9860  143.4030 C   0  0  2  0  0  3  0  0  0  0  0  0
  189.7060  174.1520  143.7330 C   0  0  1  0  0  3  0  0  0  0  0  0
  188.7460  176.8890  145.8550 C   0  0  0  0  0  3  0  0  0  0  0  0
  190.1620  174.8960  144.9430 C   0  0  0  0  0  3  0  0  0  0  0  0
  189.4540  175.8870  145.4030 C   0  0  0  0  0  0  0  0  0  0  0  0
  185.5560  178.4630  146.5980 C   0  0  2  0  0  3  0  0  0  0  0  0
  185.4930  177.1940  147.4170 C   0  0  0  0  0  2  0  0  0  0  0  0
  184.2610  178.6380  145.8200 C   0  0  0  0  0  2  0  0  0  0  0  0
  186.7630  176.5010  147.2600 N   0  0  0  0  0  2  0  0  0  0  0  0
  186.6890  178.2420  145.6040 C   0  0  2  0  0  3  0  0  0  0  0  0
  186.1020  178.2360  144.2000 C   0  0  0  0  0  2  0  0  0  0  0  0
  183.8340  178.6080  143.4370 N   0  0  0  0  0  2  0  0  0  0  0  0
  184.6590  178.4720  144.4070 C   0  0  0  0  0  0  0  0  0  0  0  0
  187.2470  176.8720  145.9340 C   0  0  1  0  0  3  0  0  0  0  0  0
  189.6320  175.0220  142.6420 O   0  0  0  0  0  0  0  0  0  0  0  0
  187.4930  174.1240  142.0520 C   0  0  0  0  0  1  0  0  0  0  0  0
  188.2770  175.3420  142.5180 C   0  0  2  0  0  3  0  0  0  0  0  0
  188.1030  176.5640  141.6000 C   0  0  2  0  0  3  0  0  0  0  0  0
  188.8960  177.7870  141.9630 C   0  0  0  0  0  0  0  0  0  0  0  0
  188.4130  178.9280  141.7460 O   0  0  0  0  0  0  0  0  0  0  0  0
  190.1470  177.6720  142.5570 O   0  0  0  0  0  1  0  0  0  0  0  0
  186.7860  176.8140  141.1480 O   0  0  0  0  0  0  0  0  0  0  0  0
  186.8070  177.0310  139.7620 C   0  0  0  0  0  1  0  0  0  0  0  0
  189.9580  171.9760  142.6680 O   0  0  0  0  0  0  0  0  0  0  0  0
  191.1020  172.3010  140.4480 C   0  0  0  0  0  2  0  0  0  0  0  0
  190.8640  169.0340  140.5540 N   0  0  0  0  0  2  0  0  0  0  0  0
  190.6330  172.1420  139.0630 N   0  0  0  0  0  0  0  0  0  0  0  0
  190.7510  170.8150  138.6420 C   0  0  0  0  0  0  0  0  0  0  0  0
  190.5060  169.9890  141.5830 C   0  0  0  0  0  3  0  0  0  0  0  0
  190.8730  169.6640  137.8620 C   0  0  0  0  0  2  0  0  0  0  0  0
  190.4910  171.3620  141.5300 C   0  0  0  0  0  0  0  0  0  0  0  0
  190.8520  169.5510  139.2530 C   0  0  0  0  0  0  0  0  0  0  0  0
  190.6470  173.2520  138.1230 C   0  0  0  0  0  2  0  0  0  0  0  0
  188.2390  173.8450  138.4290 C   0  0  0  0  0  1  0  0  0  0  0  0
  189.2950  173.3950  137.4380 C   0  0  0  0  0  3  0  0  0  0  0  0
  189.4040  174.4200  136.3290 C   0  0  0  0  0  1  0  0  0  0  0  0
  191.1870  172.4350  144.5680 O   0  0  0  0  0  0  0  0  0  0  0  0
  193.6650  172.4980  145.7670 O   0  0  0  0  0  1  0  0  0  0  0  0
  193.2000  171.0080  143.6700 O   0  0  0  0  0  0  0  0  0  0  0  0
  192.8590  172.3460  144.2880 P   0  0  1  0  0  0  0  0  0  0  0  0
  193.3240  173.6100  143.2480 O   0  0  0  0  0  0  0  0  0  0  0  0
  194.3720  174.2820  143.8920 C   0  0  1  0  0  3  0  0  0  0  0  0
  196.5960  173.2930  143.2650 C   0  0  0  0  0  2  0  0  0  0  0  0
  195.2260  174.1310  141.5530 C   0  0  0  0  0  0  0  0  0  0  0  0
  195.7910  172.9460  141.0380 N   0  0  0  0  0  2  0  0  0  0  0  0
  194.5030  174.8860  140.8540 O   0  0  0  0  0  0  0  0  0  0  0  0
  197.9360  172.1070  141.6050 N   0  0  0  0  0  1  0  0  0  0  0  0
  195.5880  174.4060  142.9620 C   0  0  1  0  0  3  0  0  0  0  0  0
  196.5810  172.3190  142.0800 C   0  0  1  0  0  3  0  0  0  0  0  0
  193.8960  175.6330  144.3520 C   0  0  0  0  0  0  0  0  0  0  0  0
  193.1770  176.4170  143.5390 C   0  0  0  0  0  2  0  0  0  0  0  0
  195.2820  175.2750  146.2520 O   0  0  0  0  0  1  0  0  0  0  0  0
  194.2920  176.1040  145.7200 C   0  0  1  0  0  3  0  0  0  0  0  0
  194.7790  177.5420  145.6900 C   0  0  0  0  0  1  0  0  0  0  0  0
  1 24  1  1  0  0  0
  1  2  1  0  0  0  0
  1 37  1  0  0  0  0
  2  4  1  1  0  0  0
  4  5  2  0  0  0  0
  5  3  2  0  0  0  0
  6  8  1  6  0  0  0
  6  7  1  0  0  0  0
  9  7  1  0  0  0  0
 10 11  1  6  0  0  0
 10 14  1  0  0  0  0
 10  6  1  0  0  0  0
 11 13  1  0  0  0  0
 12 13  2  0  0  0  0
 13  8  1  0  0  0  0
 14  3  1  1  0  0  0
 14  9  1  0  0  0  0
 15  2  1  0  0  0  0
 17 16  1  6  0  0  0
 17 15  1  0  0  0  0
 18 22  1  1  0  0  0
 18 19  1  0  0  0  0
 18 17  1  0  0  0  0
 19 21  1  0  0  0  0
 20 19  2  0  0  0  0
 23 22  1  0  0  0  0
 25 31  1  0  0  0  0
 26 29  1  0  0  0  0
 27 25  1  0  0  0  0
 28 27  1  0  0  0  0
 28 32  2  0  0  0  0
 30 28  1  0  0  0  0
 30 32  1  0  0  0  0
 31 29  2  0  0  0  0
 31 24  1  0  0  0  0
 32 26  1  0  0  0  0
 33 27  1  0  0  0  0
 35 33  1  0  0  0  0
 35 34  1  0  0  0  0
 36 35  1  0  0  0  0
 40 39  2  6  0  0  0
 40 37  1  0  0  0  0
 40 38  1  0  0  0  0
 41 40  1  0  0  0  0
 42 41  1  6  0  0  0
 42 50  1  0  0  0  0
 44 48  1  0  0  0  0
 45 44  1  0  0  0  0
 45 49  1  0  0  0  0
 46 44  2  0  0  0  0
 48 43  1  0  0  0  0
 48 42  1  1  0  0  0
 49 47  1  6  0  0  0
 49 43  1  0  0  0  0
 50 53  1  0  0  0  0
 51 50  2  0  0  0  0
 53 54  1  6  0  0  0
 53 52  1  0  0  0  0
M  END
>  <MODEL>
3

>  <REMARK>
 VINA RESULT:      -6.2      1.740      3.276
  Name = 
  19 active torsions:
  status: ('A' for Active; 'I' for Inactive)
    1  A    between atoms: O_3  and  C_45
    2  A    between atoms: O_3  and  C_52
    3  A    between atoms: O_4  and  C_22
    4  A    between atoms: O_4  and  P_50
    5  A    between atoms: N_13  and  C_30
    6  A    between atoms: C_14  and  C_49
    7  A    between atoms: C_15  and  O_21
    8  A    between atoms: C_15  and  C_32
    9  A    between atoms: C_15  and  C_53
   10  A    between atoms: C_20  and  C_48
   11  A    between atoms: O_21  and  P_50
   12  A    between atoms: C_22  and  O_39
   13  A    between atoms: C_22  and  C_45
   14  A    between atoms: C_24  and  C_32
   15  A    between atoms: O_27  and  C_48
   16  A    between atoms: C_28  and  C_45
   17  A    between atoms: C_30  and  C_35
   18  A    between atoms: C_33  and  O_39
   19  A    between atoms: C_48  and  C_52
                            x       y       z     vdW  Elec       q    Type
                         _______ _______ _______ _____ _____    ______ ____

>  <TORSDO>
F 19

$$$$
=
 OpenBabel11062419123D

 54 58  0  0  1  0  0  0  0  0999 V2000
  190.7490  172.9730  143.5180 C   0  0  2  0  0  3  0  0  0  0  0  0
  191.0720  174.2360  144.3220 C   0  0  1  0  0  3  0  0  0  0  0  0
  189.3850  176.2590  146.7660 C   0  0  0  0  0  3  0  0  0  0  0  0
  190.5200  174.1630  145.7060 C   0  0  0  0  0  3  0  0  0  0  0  0
  189.9480  175.2060  146.2340 C   0  0  0  0  0  0  0  0  0  0  0  0
  186.6970  176.8550  144.3940 C   0  0  2  0  0  3  0  0  0  0  0  0
  187.8060  177.7310  143.8580 C   0  0  0  0  0  2  0  0  0  0  0  0
  185.3990  177.6440  144.4490 C   0  0  0  0  0  2  0  0  0  0  0  0
  188.9800  177.5210  144.6930 N   0  0  0  0  0  2  0  0  0  0  0  0
  187.1120  176.5100  145.8180 C   0  0  2  0  0  3  0  0  0  0  0  0
  186.0970  177.1180  146.7760 C   0  0  0  0  0  2  0  0  0  0  0  0
  184.0560  178.3440  146.3390 N   0  0  0  0  0  2  0  0  0  0  0  0
  185.1140  177.7780  145.8930 C   0  0  0  0  0  0  0  0  0  0  0  0
  188.4610  177.1720  146.0120 C   0  0  1  0  0  3  0  0  0  0  0  0
  192.4560  174.4210  144.3730 O   0  0  0  0  0  0  0  0  0  0  0  0
  192.0810  176.3040  142.9440 C   0  0  0  0  0  1  0  0  0  0  0  0
  192.6460  175.8020  144.2640 C   0  0  2  0  0  3  0  0  0  0  0  0
  194.1330  176.1490  144.4590 C   0  0  2  0  0  3  0  0  0  0  0  0
  194.4850  176.8690  145.7300 C   0  0  0  0  0  0  0  0  0  0  0  0
  194.2540  176.3200  146.8390 O   0  0  0  0  0  1  0  0  0  0  0  0
  195.0830  178.1220  145.6950 O   0  0  0  0  0  0  0  0  0  0  0  0
  194.8190  176.5940  143.3060 O   0  0  0  0  0  0  0  0  0  0  0  0
  196.0130  175.8700  143.1710 C   0  0  0  0  0  1  0  0  0  0  0  0
  191.0860  171.8010  144.2510 O   0  0  0  0  0  0  0  0  0  0  0  0
  193.5350  171.3540  144.6360 C   0  0  0  0  0  2  0  0  0  0  0  0
  192.7830  168.9440  142.5460 N   0  0  0  0  0  2  0  0  0  0  0  0
  194.7170  171.5280  143.7790 N   0  0  0  0  0  0  0  0  0  0  0  0
  194.9050  170.4190  142.9520 C   0  0  0  0  0  0  0  0  0  0  0  0
  191.8900  169.9100  143.1540 C   0  0  0  0  0  3  0  0  0  0  0  0
  195.4690  169.4460  142.1250 C   0  0  0  0  0  2  0  0  0  0  0  0
  192.1870  170.9940  143.9440 C   0  0  0  0  0  0  0  0  0  0  0  0
  194.1160  169.3630  142.4570 C   0  0  0  0  0  0  0  0  0  0  0  0
  195.8190  172.3930  144.1700 C   0  0  0  0  0  2  0  0  0  0  0  0
  197.0220  171.0400  145.8910 C   0  0  0  0  0  1  0  0  0  0  0  0
  196.1250  172.2390  145.6530 C   0  0  0  0  0  3  0  0  0  0  0  0
  196.8230  173.4870  146.1510 C   0  0  0  0  0  1  0  0  0  0  0  0
  191.4220  172.9740  142.2910 O   0  0  0  0  0  0  0  0  0  0  0  0
  188.7960  172.2520  141.8920 O   0  0  0  0  0  1  0  0  0  0  0  0
  189.9810  174.0000  140.3510 O   0  0  0  0  0  0  0  0  0  0  0  0
  190.2250  172.7170  141.1160 P   0  0  1  0  0  0  0  0  0  0  0  0
  190.7300  171.4870  140.0560 O   0  0  0  0  0  0  0  0  0  0  0  0
  190.8110  172.0730  138.7850 C   0  0  1  0  0  3  0  0  0  0  0  0
  192.8820  173.4580  138.4430 C   0  0  0  0  0  2  0  0  0  0  0  0
  193.1330  171.2270  139.1300 C   0  0  0  0  0  0  0  0  0  0  0  0
  194.0940  171.9570  139.8590 N   0  0  0  0  0  2  0  0  0  0  0  0
  193.0560  169.9730  139.1920 O   0  0  0  0  0  0  0  0  0  0  0  0
  195.1930  173.9090  139.0800 N   0  0  0  0  0  1  0  0  0  0  0  0
  192.2620  172.0660  138.2770 C   0  0  1  0  0  3  0  0  0  0  0  0
  193.9340  173.3660  139.5540 C   0  0  1  0  0  3  0  0  0  0  0  0
  189.8970  171.3460  137.8360 C   0  0  0  0  0  0  0  0  0  0  0  0
  189.6990  170.0270  137.9550 C   0  0  0  0  0  2  0  0  0  0  0  0
  189.5600  173.4790  136.8400 O   0  0  0  0  0  1  0  0  0  0  0  0
  189.2590  172.1210  136.7220 C   0  0  1  0  0  3  0  0  0  0  0  0
  189.7010  171.6050  135.3640 C   0  0  0  0  0  1  0  0  0  0  0  0
  1 37  1  6  0  0  0
  1 24  1  0  0  0  0
  1  2  1  0  0  0  0
  2 15  1  0  0  0  0
  2  4  1  1  0  0  0
  4  5  2  0  0  0  0
  5  3  2  0  0  0  0
  6  7  1  1  0  0  0
  6  8  1  0  0  0  0
  6 10  1  0  0  0  0
  7  9  1  0  0  0  0
  8 13  1  0  0  0  0
  9 14  1  0  0  0  0
 10 14  1  0  0  0  0
 10 11  1  1  0  0  0
 13 12  2  0  0  0  0
 13 11  1  0  0  0  0
 14  3  1  6  0  0  0
 17 16  1  6  0  0  0
 17 15  1  0  0  0  0
 17 18  1  0  0  0  0
 18 22  1  6  0  0  0
 18 19  1  0  0  0  0
 19 20  1  0  0  0  0
 21 19  2  0  0  0  0
 23 22  1  0  0  0  0
 26 29  1  0  0  0  0
 27 33  1  0  0  0  0
 27 25  1  0  0  0  0
 28 27  1  0  0  0  0
 29 31  2  0  0  0  0
 30 32  1  0  0  0  0
 30 28  1  0  0  0  0
 31 24  1  0  0  0  0
 31 25  1  0  0  0  0
 32 26  1  0  0  0  0
 32 28  2  0  0  0  0
 33 35  1  0  0  0  0
 35 34  1  0  0  0  0
 35 36  1  0  0  0  0
 40 39  2  6  0  0  0
 40 38  1  0  0  0  0
 40 37  1  0  0  0  0
 41 40  1  0  0  0  0
 42 50  1  6  0  0  0
 42 41  1  0  0  0  0
 43 49  1  0  0  0  0
 44 46  2  0  0  0  0
 44 45  1  0  0  0  0
 48 43  1  0  0  0  0
 48 42  1  1  0  0  0
 48 44  1  0  0  0  0
 49 47  1  6  0  0  0
 49 45  1  0  0  0  0
 50 51  2  0  0  0  0
 53 54  1  6  0  0  0
 53 52  1  0  0  0  0
 53 50  1  0  0  0  0
M  END
>  <MODEL>
4

>  <REMARK>
 VINA RESULT:      -6.2      2.294      5.761
  Name = 
  19 active torsions:
  status: ('A' for Active; 'I' for Inactive)
    1  A    between atoms: O_3  and  C_45
    2  A    between atoms: O_3  and  C_52
    3  A    between atoms: O_4  and  C_22
    4  A    between atoms: O_4  and  P_50
    5  A    between atoms: N_13  and  C_30
    6  A    between atoms: C_14  and  C_49
    7  A    between atoms: C_15  and  O_21
    8  A    between atoms: C_15  and  C_32
    9  A    between atoms: C_15  and  C_53
   10  A    between atoms: C_20  and  C_48
   11  A    between atoms: O_21  and  P_50
   12  A    between atoms: C_22  and  O_39
   13  A    between atoms: C_22  and  C_45
   14  A    between atoms: C_24  and  C_32
   15  A    between atoms: O_27  and  C_48
   16  A    between atoms: C_28  and  C_45
   17  A    between atoms: C_30  and  C_35
   18  A    between atoms: C_33  and  O_39
   19  A    between atoms: C_48  and  C_52
                            x       y       z     vdW  Elec       q    Type
                         _______ _______ _______ _____ _____    ______ ____

>  <TORSDO>
F 19

$$$$
=
 OpenBabel11062419123D

 54 58  0  0  1  0  0  0  0  0999 V2000
  190.8210  174.0960  142.7590 C   0  0  2  0  0  3  0  0  0  0  0  0
  190.1400  175.4140  143.1370 C   0  0  1  0  0  3  0  0  0  0  0  0
  186.9890  177.0050  142.4650 C   0  0  0  0  0  3  0  0  0  0  0  0
  189.3360  175.9610  142.0070 C   0  0  0  0  0  3  0  0  0  0  0  0
  188.1670  176.4870  142.2340 C   0  0  0  0  0  0  0  0  0  0  0  0
  184.7090  178.4500  144.8970 C   0  0  2  0  0  3  0  0  0  0  0  0
  185.3530  179.6730  144.2860 C   0  0  0  0  0  2  0  0  0  0  0  0
  184.7210  178.5650  146.4140 C   0  0  0  0  0  2  0  0  0  0  0  0
  186.2470  179.2230  143.2300 N   0  0  0  0  0  2  0  0  0  0  0  0
  185.6030  177.2840  144.4960 C   0  0  2  0  0  3  0  0  0  0  0  0
  186.2130  176.6880  145.7570 C   0  0  0  0  0  2  0  0  0  0  0  0
  185.8740  177.2510  148.0880 N   0  0  0  0  0  2  0  0  0  0  0  0
  185.6470  177.5020  146.8530 C   0  0  0  0  0  0  0  0  0  0  0  0
  186.6920  177.8940  143.6370 C   0  0  1  0  0  3  0  0  0  0  0  0
  189.3200  175.2190  144.2510 O   0  0  0  0  0  0  0  0  0  0  0  0
  189.4760  174.1660  146.3950 C   0  0  0  0  0  1  0  0  0  0  0  0
  190.1940  174.9570  145.3110 C   0  0  2  0  0  3  0  0  0  0  0  0
  190.8120  176.2690  145.8250 C   0  0  2  0  0  3  0  0  0  0  0  0
  189.9120  177.4720  145.8240 C   0  0  0  0  0  0  0  0  0  0  0  0
  189.1660  177.6910  146.8130 O   0  0  0  0  0  1  0  0  0  0  0  0
  189.9110  178.3570  144.7530 O   0  0  0  0  0  0  0  0  0  0  0  0
  192.1480  176.5170  145.4340 O   0  0  0  0  0  0  0  0  0  0  0  0
  192.9960  176.3100  146.5320 C   0  0  0  0  0  1  0  0  0  0  0  0
  189.8770  173.0310  142.7030 O   0  0  0  0  0  0  0  0  0  0  0  0
  190.3100  170.7470  141.7320 C   0  0  0  0  0  2  0  0  0  0  0  0
  188.7510  172.1990  139.2410 N   0  0  0  0  0  2  0  0  0  0  0  0
  191.2320  170.2770  140.6860 N   0  0  0  0  0  0  0  0  0  0  0  0
  190.6710  170.4320  139.4170 C   0  0  0  0  0  0  0  0  0  0  0  0
  188.9960  172.7250  140.5680 C   0  0  0  0  0  3  0  0  0  0  0  0
  190.3730  170.2970  138.0590 C   0  0  0  0  0  2  0  0  0  0  0  0
  189.7360  172.1890  141.5950 C   0  0  0  0  0  0  0  0  0  0  0  0
  189.6550  171.2120  138.8320 C   0  0  0  0  0  0  0  0  0  0  0  0
  192.2470  169.2740  140.9640 C   0  0  0  0  0  2  0  0  0  0  0  0
  194.7350  169.4740  141.0760 C   0  0  0  0  0  1  0  0  0  0  0  0
  193.5170  169.5600  140.1760 C   0  0  0  0  0  3  0  0  0  0  0  0
  193.6520  168.5460  139.0600 C   0  0  0  0  0  1  0  0  0  0  0  0
  191.8380  173.7780  143.6670 O   0  0  0  0  0  0  0  0  0  0  0  0
  193.8280  172.5160  142.2440 O   0  0  0  0  0  1  0  0  0  0  0  0
  193.0530  174.9410  141.6520 O   0  0  0  0  0  0  0  0  0  0  0  0
  193.2910  174.0120  142.8220 P   0  0  1  0  0  0  0  0  0  0  0  0
  194.4530  174.6730  143.8720 O   0  0  0  0  0  0  0  0  0  0  0  0
  195.5990  173.8770  143.7400 C   0  0  1  0  0  3  0  0  0  0  0  0
  196.9940  174.2520  141.6820 C   0  0  0  0  0  2  0  0  0  0  0  0
  196.3960  176.1160  142.9780 C   0  0  0  0  0  0  0  0  0  0  0  0
  196.2770  176.5350  141.6370 N   0  0  0  0  0  2  0  0  0  0  0  0
  196.2340  176.9050  143.9440 O   0  0  0  0  0  0  0  0  0  0  0  0
  197.6050  175.7340  139.8420 N   0  0  0  0  0  1  0  0  0  0  0  0
  196.7540  174.6870  143.1310 C   0  0  1  0  0  3  0  0  0  0  0  0
  196.5420  175.4020  140.7730 C   0  0  1  0  0  3  0  0  0  0  0  0
  195.9770  173.3110  145.0820 C   0  0  0  0  0  0  0  0  0  0  0  0
  196.6270  174.0610  145.9810 C   0  0  0  0  0  2  0  0  0  0  0  0
  194.2860  171.7070  145.5570 O   0  0  0  0  0  1  0  0  0  0  0  0
  195.6590  171.8740  145.3680 C   0  0  1  0  0  3  0  0  0  0  0  0
  196.1440  170.9670  144.2510 C   0  0  0  0  0  1  0  0  0  0  0  0
  1 24  1  1  0  0  0
  1  2  1  0  0  0  0
  1 37  1  0  0  0  0
  2  4  1  6  0  0  0
  2 15  1  0  0  0  0
  4  5  2  0  0  0  0
  5  3  2  0  0  0  0
  6  7  1  6  0  0  0
  6  8  1  0  0  0  0
  8 13  1  0  0  0  0
  9 14  1  0  0  0  0
  9  7  1  0  0  0  0
 10  6  1  0  0  0  0
 10 11  1  1  0  0  0
 11 13  1  0  0  0  0
 13 12  2  0  0  0  0
 14  3  1  6  0  0  0
 14 10  1  0  0  0  0
 15 17  1  0  0  0  0
 17 18  1  0  0  0  0
 17 16  1  1  0  0  0
 18 22  1  6  0  0  0
 19 18  1  0  0  0  0
 19 20  1  0  0  0  0
 21 19  2  0  0  0  0
 22 23  1  0  0  0  0
 26 29  1  0  0  0  0
 27 33  1  0  0  0  0
 27 25  1  0  0  0  0
 28 27  1  0  0  0  0
 29 31  2  0  0  0  0
 30 32  1  0  0  0  0
 30 28  1  0  0  0  0
 31 25  1  0  0  0  0
 31 24  1  0  0  0  0
 32 26  1  0  0  0  0
 32 28  2  0  0  0  0
 35 33  1  0  0  0  0
 35 34  1  0  0  0  0
 36 35  1  0  0  0  0
 38 40  1  0  0  0  0
 40 39  2  6  0  0  0
 40 37  1  0  0  0  0
 40 41  1  0  0  0  0
 42 41  1  1  0  0  0
 42 50  1  0  0  0  0
 43 48  1  0  0  0  0
 44 48  1  0  0  0  0
 44 46  2  0  0  0  0
 45 44  1  0  0  0  0
 48 42  1  6  0  0  0
 49 47  1  6  0  0  0
 49 45  1  0  0  0  0
 49 43  1  0  0  0  0
 50 53  1  0  0  0  0
 50 51  2  0  0  0  0
 53 54  1  6  0  0  0
 53 52  1  0  0  0  0
M  END
>  <MODEL>
5

>  <REMARK>
 VINA RESULT:      -6.1      1.744      2.885
  Name = 
  19 active torsions:
  status: ('A' for Active; 'I' for Inactive)
    1  A    between atoms: O_3  and  C_45
    2  A    between atoms: O_3  and  C_52
    3  A    between atoms: O_4  and  C_22
    4  A    between atoms: O_4  and  P_50
    5  A    between atoms: N_13  and  C_30
    6  A    between atoms: C_14  and  C_49
    7  A    between atoms: C_15  and  O_21
    8  A    between atoms: C_15  and  C_32
    9  A    between atoms: C_15  and  C_53
   10  A    between atoms: C_20  and  C_48
   11  A    between atoms: O_21  and  P_50
   12  A    between atoms: C_22  and  O_39
   13  A    between atoms: C_22  and  C_45
   14  A    between atoms: C_24  and  C_32
   15  A    between atoms: O_27  and  C_48
   16  A    between atoms: C_28  and  C_45
   17  A    between atoms: C_30  and  C_35
   18  A    between atoms: C_33  and  O_39
   19  A    between atoms: C_48  and  C_52
                            x       y       z     vdW  Elec       q    Type
                         _______ _______ _______ _____ _____    ______ ____

>  <TORSDO>
F 19

$$$$
=
 OpenBabel11062419123D

 54 58  0  0  1  0  0  0  0  0999 V2000
  191.2210  173.8280  142.5940 C   0  0  2  0  0  3  0  0  0  0  0  0
  189.7370  173.8350  142.9660 C   0  0  1  0  0  3  0  0  0  0  0  0
  189.9000  174.3130  146.5240 C   0  0  0  0  0  3  0  0  0  0  0  0
  189.4870  173.1100  144.2460 C   0  0  0  0  0  3  0  0  0  0  0  0
  189.6880  173.7100  145.3840 C   0  0  0  0  0  0  0  0  0  0  0  0
  188.2950  177.4310  145.5740 C   0  0  2  0  0  3  0  0  0  0  0  0
  189.7030  177.8740  145.8990 C   0  0  0  0  0  2  0  0  0  0  0  0
  187.2950  178.3520  146.2540 C   0  0  0  0  0  2  0  0  0  0  0  0
  190.4770  176.6870  146.2280 N   0  0  0  0  0  2  0  0  0  0  0  0
  188.1620  176.0410  146.1820 C   0  0  2  0  0  3  0  0  0  0  0  0
  187.1070  176.0940  147.2770 C   0  0  0  0  0  2  0  0  0  0  0  0
  185.6860  177.9130  148.0100 N   0  0  0  0  0  2  0  0  0  0  0  0
  186.6400  177.4960  147.2650 C   0  0  0  0  0  0  0  0  0  0  0  0
  189.5170  175.7400  146.7890 C   0  0  1  0  0  3  0  0  0  0  0  0
  189.2820  175.1520  143.0710 O   0  0  0  0  0  0  0  0  0  0  0  0
  188.2500  174.5500  140.9980 C   0  0  0  0  0  1  0  0  0  0  0  0
  188.0720  175.1810  142.3710 C   0  0  2  0  0  3  0  0  0  0  0  0
  187.5270  176.6180  142.3130 C   0  0  2  0  0  3  0  0  0  0  0  0
  186.0700  176.7900  142.6380 C   0  0  0  0  0  0  0  0  0  0  0  0
  185.2940  177.2690  141.7720 O   0  0  0  0  0  0  0  0  0  0  0  0
  185.5670  176.4050  143.8740 O   0  0  0  0  0  1  0  0  0  0  0  0
  188.0040  177.4170  141.2480 O   0  0  0  0  0  0  0  0  0  0  0  0
  188.9400  178.3370  141.7430 C   0  0  0  0  0  1  0  0  0  0  0  0
  191.6820  172.5020  142.3560 O   0  0  0  0  0  0  0  0  0  0  0  0
  191.2650  172.5460  139.8720 C   0  0  0  0  0  2  0  0  0  0  0  0
  193.8780  170.5740  140.0310 N   0  0  0  0  0  2  0  0  0  0  0  0
  190.7430  171.5340  138.9410 N   0  0  0  0  0  0  0  0  0  0  0  0
  191.7610  170.6870  138.4980 C   0  0  0  0  0  0  0  0  0  0  0  0
  193.2420  171.3010  141.1100 C   0  0  0  0  0  3  0  0  0  0  0  0
  192.5250  169.7880  137.7510 C   0  0  0  0  0  2  0  0  0  0  0  0
  192.0860  172.0450  141.0970 C   0  0  0  0  0  0  0  0  0  0  0  0
  193.0410  170.3030  138.9420 C   0  0  0  0  0  0  0  0  0  0  0  0
  189.5420  171.7710  138.1550 C   0  0  0  0  0  2  0  0  0  0  0  0
  189.3200  171.5430  135.6780 C   0  0  0  0  0  1  0  0  0  0  0  0
  189.8930  172.3800  136.8050 C   0  0  0  0  0  3  0  0  0  0  0  0
  189.3200  173.7790  136.7240 C   0  0  0  0  0  1  0  0  0  0  0  0
  191.9930  174.4240  143.5990 O   0  0  0  0  0  0  0  0  0  0  0  0
  193.0650  175.2880  141.2140 O   0  0  0  0  0  0  0  0  0  0  0  0
  192.0010  176.9600  142.9190 O   0  0  0  0  0  1  0  0  0  0  0  0
  192.8250  175.6930  142.8390 P   0  0  1  0  0  0  0  0  0  0  0  0
  194.3270  175.9190  143.6030 O   0  0  0  0  0  0  0  0  0  0  0  0
  195.0160  174.7050  143.4810 C   0  0  1  0  0  3  0  0  0  0  0  0
  196.3600  174.3680  141.3830 C   0  0  0  0  0  2  0  0  0  0  0  0
  196.6580  176.3590  142.5910 C   0  0  0  0  0  0  0  0  0  0  0  0
  196.6780  176.7360  141.2320 N   0  0  0  0  0  2  0  0  0  0  0  0
  196.8820  177.1800  143.5170 O   0  0  0  0  0  0  0  0  0  0  0  0
  197.4730  175.3750  139.4590 N   0  0  0  0  0  1  0  0  0  0  0  0
  196.3820  174.9210  142.8120 C   0  0  1  0  0  3  0  0  0  0  0  0
  196.4050  175.5640  140.4240 C   0  0  1  0  0  3  0  0  0  0  0  0
  195.1670  174.0720  144.8380 C   0  0  0  0  0  0  0  0  0  0  0  0
  195.3210  174.8300  145.9310 C   0  0  0  0  0  2  0  0  0  0  0  0
  196.1990  172.1640  145.8120 O   0  0  0  0  0  1  0  0  0  0  0  0
  195.1970  172.5760  144.9310 C   0  0  1  0  0  3  0  0  0  0  0  0
  193.8550  172.0210  145.3740 C   0  0  0  0  0  1  0  0  0  0  0  0
  1 24  1  1  0  0  0
  1  2  1  0  0  0  0
  1 37  1  0  0  0  0
  2 15  1  0  0  0  0
  2  4  1  1  0  0  0
  4  5  2  0  0  0  0
  5  3  2  0  0  0  0
  6  7  1  1  0  0  0
  6 10  1  0  0  0  0
  6  8  1  0  0  0  0
  7  9  1  0  0  0  0
  8 13  1  0  0  0  0
  9 14  1  0  0  0  0
 10 14  1  0  0  0  0
 10 11  1  1  0  0  0
 13 11  1  0  0  0  0
 13 12  2  0  0  0  0
 14  3  1  6  0  0  0
 17 16  1  6  0  0  0
 17 15  1  0  0  0  0
 18 22  1  6  0  0  0
 18 17  1  0  0  0  0
 18 19  1  0  0  0  0
 19 21  1  0  0  0  0
 20 19  2  0  0  0  0
 22 23  1  0  0  0  0
 25 31  1  0  0  0  0
 26 29  1  0  0  0  0
 27 25  1  0  0  0  0
 28 27  1  0  0  0  0
 28 32  2  0  0  0  0
 30 28  1  0  0  0  0
 30 32  1  0  0  0  0
 31 29  2  0  0  0  0
 31 24  1  0  0  0  0
 32 26  1  0  0  0  0
 33 27  1  0  0  0  0
 34 35  1  0  0  0  0
 35 33  1  0  0  0  0
 36 35  1  0  0  0  0
 40 38  2  6  0  0  0
 40 39  1  0  0  0  0
 40 37  1  0  0  0  0
 40 41  1  0  0  0  0
 42 41  1  1  0  0  0
 42 50  1  0  0  0  0
 43 48  1  0  0  0  0
 44 48  1  0  0  0  0
 44 46  2  0  0  0  0
 45 44  1  0  0  0  0
 48 42  1  6  0  0  0
 49 47  1  6  0  0  0
 49 45  1  0  0  0  0
 49 43  1  0  0  0  0
 50 53  1  0  0  0  0
 50 51  2  0  0  0  0
 53 54  1  1  0  0  0
 53 52  1  0  0  0  0
M  END
>  <MODEL>
6

>  <REMARK>
 VINA RESULT:      -6.1      2.293      3.555
  Name = 
  19 active torsions:
  status: ('A' for Active; 'I' for Inactive)
    1  A    between atoms: O_3  and  C_45
    2  A    between atoms: O_3  and  C_52
    3  A    between atoms: O_4  and  C_22
    4  A    between atoms: O_4  and  P_50
    5  A    between atoms: N_13  and  C_30
    6  A    between atoms: C_14  and  C_49
    7  A    between atoms: C_15  and  O_21
    8  A    between atoms: C_15  and  C_32
    9  A    between atoms: C_15  and  C_53
   10  A    between atoms: C_20  and  C_48
   11  A    between atoms: O_21  and  P_50
   12  A    between atoms: C_22  and  O_39
   13  A    between atoms: C_22  and  C_45
   14  A    between atoms: C_24  and  C_32
   15  A    between atoms: O_27  and  C_48
   16  A    between atoms: C_28  and  C_45
   17  A    between atoms: C_30  and  C_35
   18  A    between atoms: C_33  and  O_39
   19  A    between atoms: C_48  and  C_52
                            x       y       z     vdW  Elec       q    Type
                         _______ _______ _______ _____ _____    ______ ____

>  <TORSDO>
F 19

$$$$
=
 OpenBabel11062419123D

 54 58  0  0  1  0  0  0  0  0999 V2000
  190.6730  173.8300  141.6340 C   0  0  2  0  0  3  0  0  0  0  0  0
  189.6980  174.7950  142.3120 C   0  0  1  0  0  3  0  0  0  0  0  0
  186.4840  176.4030  142.3460 C   0  0  0  0  0  3  0  0  0  0  0  0
  188.5910  175.1930  141.3950 C   0  0  0  0  0  3  0  0  0  0  0  0
  187.5410  175.8010  141.8670 C   0  0  0  0  0  0  0  0  0  0  0  0
  184.9140  178.7400  144.6430 C   0  0  2  0  0  3  0  0  0  0  0  0
  185.8220  179.6380  143.8330 C   0  0  0  0  0  2  0  0  0  0  0  0
  185.0840  179.0370  146.1250 C   0  0  0  0  0  2  0  0  0  0  0  0
  186.4610  178.8190  142.8150 N   0  0  0  0  0  2  0  0  0  0  0  0
  185.4080  177.3250  144.3750 C   0  0  2  0  0  3  0  0  0  0  0  0
  185.9290  176.7420  145.6810 C   0  0  0  0  0  2  0  0  0  0  0  0
  185.9590  177.6670  147.9190 N   0  0  0  0  0  2  0  0  0  0  0  0
  185.7090  177.8150  146.6720 C   0  0  0  0  0  0  0  0  0  0  0  0
  186.5480  177.4800  143.3900 C   0  0  1  0  0  3  0  0  0  0  0  0
  189.1710  174.2030  143.4630 O   0  0  0  0  0  0  0  0  0  0  0  0
  189.7230  173.6990  145.7360 C   0  0  0  0  0  1  0  0  0  0  0  0
  190.1210  174.4300  144.4620 C   0  0  2  0  0  3  0  0  0  0  0  0
  190.3230  175.9410  144.6680 C   0  0  2  0  0  3  0  0  0  0  0  0
  191.7290  176.3900  144.9540 C   0  0  0  0  0  0  0  0  0  0  0  0
  192.3660  177.0310  144.0790 O   0  0  0  0  0  0  0  0  0  0  0  0
  192.3240  176.1250  146.1810 O   0  0  0  0  0  1  0  0  0  0  0  0
  189.3180  176.6030  145.4110 O   0  0  0  0  0  0  0  0  0  0  0  0
  189.4230  177.9860  145.1990 C   0  0  0  0  0  1  0  0  0  0  0  0
  189.9900  172.9540  140.7450 O   0  0  0  0  0  0  0  0  0  0  0  0
  191.6510  172.9940  138.8510 C   0  0  0  0  0  2  0  0  0  0  0  0
  188.8210  172.9290  137.1970 N   0  0  0  0  0  2  0  0  0  0  0  0
  192.0210  174.0380  137.8840 N   0  0  0  0  0  0  0  0  0  0  0  0
  191.1550  174.0370  136.7880 C   0  0  0  0  0  0  0  0  0  0  0  0
  189.0210  172.8350  138.6290 C   0  0  0  0  0  3  0  0  0  0  0  0
  190.6040  174.2120  135.5170 C   0  0  0  0  0  2  0  0  0  0  0  0
  190.1780  172.9680  139.3590 C   0  0  0  0  0  0  0  0  0  0  0  0
  189.8540  173.5780  136.5100 C   0  0  0  0  0  0  0  0  0  0  0  0
  193.3830  174.5380  137.7890 C   0  0  0  0  0  2  0  0  0  0  0  0
  194.9370  172.7670  136.9600 C   0  0  0  0  0  1  0  0  0  0  0  0
  194.3810  173.4610  138.1880 C   0  0  0  0  0  3  0  0  0  0  0  0
  195.5210  174.0960  138.9570 C   0  0  0  0  0  1  0  0  0  0  0  0
  191.3810  173.0830  142.5830 O   0  0  0  0  0  0  0  0  0  0  0  0
  193.7970  172.2870  141.5300 O   0  0  0  0  0  0  0  0  0  0  0  0
  193.0960  174.8050  141.5920 O   0  0  0  0  0  1  0  0  0  0  0  0
  193.0090  173.5180  142.3820 P   0  0  1  0  0  0  0  0  0  0  0  0
  193.7320  173.7140  143.9090 O   0  0  0  0  0  0  0  0  0  0  0  0
  194.9810  173.0820  143.8350 C   0  0  1  0  0  3  0  0  0  0  0  0
  196.5950  174.8280  143.0180 C   0  0  0  0  0  2  0  0  0  0  0  0
  195.5980  175.1280  145.1230 C   0  0  0  0  0  0  0  0  0  0  0  0
  195.6190  176.4070  144.5290 N   0  0  0  0  0  2  0  0  0  0  0  0
  195.2070  174.9440  146.3040 O   0  0  0  0  0  0  0  0  0  0  0  0
  197.2740  177.1710  143.0110 N   0  0  0  0  0  1  0  0  0  0  0  0
  196.1030  174.0490  144.2430 C   0  0  1  0  0  3  0  0  0  0  0  0
  196.1390  176.2830  143.1810 C   0  0  1  0  0  3  0  0  0  0  0  0
  194.9750  171.8540  144.7060 C   0  0  0  0  0  0  0  0  0  0  0  0
  194.0800  171.7210  145.6920 C   0  0  0  0  0  2  0  0  0  0  0  0
  196.7370  171.0830  143.3070 O   0  0  0  0  0  1  0  0  0  0  0  0
  196.0290  170.8110  144.4790 C   0  0  1  0  0  3  0  0  0  0  0  0
  196.9840  170.7250  145.6560 C   0  0  0  0  0  1  0  0  0  0  0  0
  1 24  1  6  0  0  0
  1  2  1  0  0  0  0
  1 37  1  0  0  0  0
  2  4  1  6  0  0  0
  2 15  1  0  0  0  0
  4  5  2  0  0  0  0
  5  3  2  0  0  0  0
  6  7  1  6  0  0  0
  6  8  1  0  0  0  0
  8 13  1  0  0  0  0
  9 14  1  0  0  0  0
  9  7  1  0  0  0  0
 10  6  1  0  0  0  0
 10 11  1  1  0  0  0
 11 13  1  0  0  0  0
 13 12  2  0  0  0  0
 14  3  1  6  0  0  0
 14 10  1  0  0  0  0
 15 17  1  0  0  0  0
 17 18  1  0  0  0  0
 17 16  1  1  0  0  0
 18 19  1  1  0  0  0
 18 22  1  0  0  0  0
 19 21  1  0  0  0  0
 20 19  2  0  0  0  0
 23 22  1  0  0  0  0
 25 31  1  0  0  0  0
 26 29  1  0  0  0  0
 27 25  1  0  0  0  0
 28 27  1  0  0  0  0
 29 31  2  0  0  0  0
 30 32  1  0  0  0  0
 30 28  1  0  0  0  0
 31 24  1  0  0  0  0
 32 28  2  0  0  0  0
 32 26  1  0  0  0  0
 33 27  1  0  0  0  0
 33 35  1  0  0  0  0
 34 35  1  0  0  0  0
 35 36  1  0  0  0  0
 39 40  1  0  0  0  0
 40 38  2  6  0  0  0
 40 37  1  0  0  0  0
 40 41  1  0  0  0  0
 42 41  1  1  0  0  0
 42 50  1  0  0  0  0
 43 49  1  0  0  0  0
 43 48  1  0  0  0  0
 44 46  2  0  0  0  0
 45 44  1  0  0  0  0
 48 42  1  6  0  0  0
 48 44  1  0  0  0  0
 49 47  1  1  0  0  0
 49 45  1  0  0  0  0
 50 51  2  0  0  0  0
 52 53  1  0  0  0  0
 53 50  1  0  0  0  0
 53 54  1  1  0  0  0
M  END
>  <MODEL>
7

>  <REMARK>
 VINA RESULT:      -6.0      1.966      3.490
  Name = 
  19 active torsions:
  status: ('A' for Active; 'I' for Inactive)
    1  A    between atoms: O_3  and  C_45
    2  A    between atoms: O_3  and  C_52
    3  A    between atoms: O_4  and  C_22
    4  A    between atoms: O_4  and  P_50
    5  A    between atoms: N_13  and  C_30
    6  A    between atoms: C_14  and  C_49
    7  A    between atoms: C_15  and  O_21
    8  A    between atoms: C_15  and  C_32
    9  A    between atoms: C_15  and  C_53
   10  A    between atoms: C_20  and  C_48
   11  A    between atoms: O_21  and  P_50
   12  A    between atoms: C_22  and  O_39
   13  A    between atoms: C_22  and  C_45
   14  A    between atoms: C_24  and  C_32
   15  A    between atoms: O_27  and  C_48
   16  A    between atoms: C_28  and  C_45
   17  A    between atoms: C_30  and  C_35
   18  A    between atoms: C_33  and  O_39
   19  A    between atoms: C_48  and  C_52
                            x       y       z     vdW  Elec       q    Type
                         _______ _______ _______ _____ _____    ______ ____

>  <TORSDO>
F 19

$$$$
=
 OpenBabel11062419123D

 54 58  0  0  1  0  0  0  0  0999 V2000
  191.4500  174.5830  142.2920 C   0  0  2  0  0  3  0  0  0  0  0  0
  192.9400  174.7520  142.5960 C   0  0  1  0  0  3  0  0  0  0  0  0
  195.6640  176.4010  140.9290 C   0  0  0  0  0  3  0  0  0  0  0  0
  193.4240  176.1170  142.2370 C   0  0  0  0  0  3  0  0  0  0  0  0
  194.5380  176.2600  141.5800 C   0  0  0  0  0  0  0  0  0  0  0  0
  195.6510  173.2200  139.1730 C   0  0  2  0  0  3  0  0  0  0  0  0
  197.1280  173.5000  139.3310 C   0  0  0  0  0  2  0  0  0  0  0  0
  195.3550  172.8090  137.7400 C   0  0  0  0  0  2  0  0  0  0  0  0
  197.2670  174.7300  140.0960 N   0  0  0  0  0  2  0  0  0  0  0  0
  194.9600  174.5500  139.4460 C   0  0  2  0  0  3  0  0  0  0  0  0
  194.2620  174.9990  138.1700 C   0  0  0  0  0  2  0  0  0  0  0  0
  194.0520  173.9060  136.0190 N   0  0  0  0  0  2  0  0  0  0  0  0
  194.5430  173.9200  137.2020 C   0  0  0  0  0  0  0  0  0  0  0  0
  196.0750  175.5160  139.7890 C   0  0  1  0  0  3  0  0  0  0  0  0
  193.1770  174.5070  143.9510 O   0  0  0  0  0  0  0  0  0  0  0  0
  193.2460  172.3700  145.0260 C   0  0  0  0  0  1  0  0  0  0  0  0
  193.8700  173.2940  143.9910 C   0  0  2  0  0  3  0  0  0  0  0  0
  195.3690  173.5470  144.2280 C   0  0  2  0  0  3  0  0  0  0  0  0
  195.7200  174.8090  144.9650 C   0  0  0  0  0  0  0  0  0  0  0  0
  195.4150  174.9240  146.1800 O   0  0  0  0  0  1  0  0  0  0  0  0
  196.3980  175.8400  144.3260 O   0  0  0  0  0  0  0  0  0  0  0  0
  196.2280  173.2190  143.1540 O   0  0  0  0  0  0  0  0  0  0  0  0
  195.7070  172.1130  142.4680 C   0  0  0  0  0  1  0  0  0  0  0  0
  191.2540  173.9080  141.0540 O   0  0  0  0  0  0  0  0  0  0  0  0
  192.2130  172.0390  139.6640 C   0  0  0  0  0  2  0  0  0  0  0  0
  190.7830  170.3470  142.0800 N   0  0  0  0  0  2  0  0  0  0  0  0
  191.5860  171.0360  138.7900 N   0  0  0  0  0  0  0  0  0  0  0  0
  191.1570  169.9280  139.5250 C   0  0  0  0  0  0  0  0  0  0  0  0
  190.9110  171.7850  141.9500 C   0  0  0  0  0  3  0  0  0  0  0  0
  190.7630  168.6430  139.9030 C   0  0  0  0  0  2  0  0  0  0  0  0
  191.4050  172.5250  140.9030 C   0  0  0  0  0  0  0  0  0  0  0  0
  190.8380  169.6490  140.8670 C   0  0  0  0  0  0  0  0  0  0  0  0
  191.9210  170.9410  137.3780 C   0  0  0  0  0  2  0  0  0  0  0  0
  189.6850  171.3330  136.3360 C   0  0  0  0  0  1  0  0  0  0  0  0
  190.7770  170.3140  136.5940 C   0  0  0  0  0  3  0  0  0  0  0  0
  191.3020  169.8040  135.2680 C   0  0  0  0  0  1  0  0  0  0  0  0
  190.8010  175.8230  142.2610 O   0  0  0  0  0  0  0  0  0  0  0  0
  188.2620  175.1420  141.4440 O   0  0  0  0  0  0  0  0  0  0  0  0
  189.2150  174.3470  143.7450 O   0  0  0  0  0  1  0  0  0  0  0  0
  189.2160  175.5200  142.7880 P   0  0  1  0  0  0  0  0  0  0  0  0
  188.6030  176.9070  143.5570 O   0  0  0  0  0  0  0  0  0  0  0  0
  188.0410  176.4700  144.7640 C   0  0  1  0  0  3  0  0  0  0  0  0
  189.1500  175.7400  146.8990 C   0  0  0  0  0  2  0  0  0  0  0  0
  190.2700  177.2860  145.5320 C   0  0  0  0  0  0  0  0  0  0  0  0
  191.2670  176.4060  146.0020 N   0  0  0  0  0  2  0  0  0  0  0  0
  190.5430  178.2980  144.8390 O   0  0  0  0  0  0  0  0  0  0  0  0
  191.2270  175.3090  148.1050 N   0  0  0  0  0  1  0  0  0  0  0  0
  188.8990  176.9220  145.9560 C   0  0  1  0  0  3  0  0  0  0  0  0
  190.6320  175.3620  146.7820 C   0  0  1  0  0  3  0  0  0  0  0  0
  186.6320  176.9860  144.8800 C   0  0  0  0  0  0  0  0  0  0  0  0
  185.9130  176.7670  145.9880 C   0  0  0  0  0  2  0  0  0  0  0  0
  185.5900  176.7840  142.7510 O   0  0  0  0  0  1  0  0  0  0  0  0
  186.0330  177.7020  143.7060 C   0  0  1  0  0  3  0  0  0  0  0  0
  184.8870  178.6030  144.1320 C   0  0  0  0  0  1  0  0  0  0  0  0
  1 24  1  6  0  0  0
  1  2  1  0  0  0  0
  2  4  1  1  0  0  0
  2 15  1  0  0  0  0
  3  5  2  0  0  0  0
  5  4  2  0  0  0  0
  6  8  1  6  0  0  0
  6  7  1  0  0  0  0
  6 10  1  0  0  0  0
  7  9  1  0  0  0  0
 10 11  1  6  0  0  0
 10 14  1  0  0  0  0
 12 13  2  0  0  0  0
 13  8  1  0  0  0  0
 13 11  1  0  0  0  0
 14  9  1  0  0  0  0
 14  3  1  1  0  0  0
 15 17  1  0  0  0  0
 17 18  1  0  0  0  0
 17 16  1  1  0  0  0
 18 22  1  6  0  0  0
 18 19  1  0  0  0  0
 19 20  1  0  0  0  0
 21 19  2  0  0  0  0
 23 22  1  0  0  0  0
 25 31  1  0  0  0  0
 27 28  1  0  0  0  0
 27 25  1  0  0  0  0
 28 30  1  0  0  0  0
 28 32  2  0  0  0  0
 29 26  1  0  0  0  0
 30 32  1  0  0  0  0
 31 24  1  0  0  0  0
 31 29  2  0  0  0  0
 32 26  1  0  0  0  0
 33 27  1  0  0  0  0
 34 35  1  0  0  0  0
 35 33  1  0  0  0  0
 36 35  1  0  0  0  0
 37  1  1  0  0  0  0
 37 40  1  0  0  0  0
 40 38  2  6  0  0  0
 40 41  1  0  0  0  0
 40 39  1  0  0  0  0
 42 41  1  6  0  0  0
 42 50  1  0  0  0  0
 44 48  1  0  0  0  0
 44 45  1  0  0  0  0
 45 49  1  0  0  0  0
 46 44  2  0  0  0  0
 48 42  1  6  0  0  0
 48 43  1  0  0  0  0
 49 43  1  0  0  0  0
 49 47  1  1  0  0  0
 50 51  2  0  0  0  0
 52 53  1  0  0  0  0
 53 54  1  1  0  0  0
 53 50  1  0  0  0  0
M  END
>  <MODEL>
8

>  <REMARK>
 VINA RESULT:      -5.9      2.380      7.712
  Name = 
  19 active torsions:
  status: ('A' for Active; 'I' for Inactive)
    1  A    between atoms: O_3  and  C_45
    2  A    between atoms: O_3  and  C_52
    3  A    between atoms: O_4  and  C_22
    4  A    between atoms: O_4  and  P_50
    5  A    between atoms: N_13  and  C_30
    6  A    between atoms: C_14  and  C_49
    7  A    between atoms: C_15  and  O_21
    8  A    between atoms: C_15  and  C_32
    9  A    between atoms: C_15  and  C_53
   10  A    between atoms: C_20  and  C_48
   11  A    between atoms: O_21  and  P_50
   12  A    between atoms: C_22  and  O_39
   13  A    between atoms: C_22  and  C_45
   14  A    between atoms: C_24  and  C_32
   15  A    between atoms: O_27  and  C_48
   16  A    between atoms: C_28  and  C_45
   17  A    between atoms: C_30  and  C_35
   18  A    between atoms: C_33  and  O_39
   19  A    between atoms: C_48  and  C_52
                            x       y       z     vdW  Elec       q    Type
                         _______ _______ _______ _____ _____    ______ ____

>  <TORSDO>
F 19

$$$$
=
 OpenBabel11062419123D

 54 58  0  0  1  0  0  0  0  0999 V2000
  191.4340  173.9940  141.9800 C   0  0  2  0  0  3  0  0  0  0  0  0
  192.9570  174.0270  142.1310 C   0  0  1  0  0  3  0  0  0  0  0  0
  195.3700  175.2890  139.7860 C   0  0  0  0  0  3  0  0  0  0  0  0
  193.5310  175.3120  141.6360 C   0  0  0  0  0  3  0  0  0  0  0  0
  194.4440  175.3020  140.7100 C   0  0  0  0  0  0  0  0  0  0  0  0
  194.3500  172.2240  138.1210 C   0  0  2  0  0  3  0  0  0  0  0  0
  195.8500  172.2170  137.9290 C   0  0  0  0  0  2  0  0  0  0  0  0
  193.6610  171.9220  136.8000 C   0  0  0  0  0  2  0  0  0  0  0  0
  196.3920  173.3740  138.6260 N   0  0  0  0  0  2  0  0  0  0  0  0
  194.0060  173.6510  138.5290 C   0  0  2  0  0  3  0  0  0  0  0  0
  193.1330  174.2640  137.4440 C   0  0  0  0  0  2  0  0  0  0  0  0
  192.2310  173.3000  135.4140 N   0  0  0  0  0  2  0  0  0  0  0  0
  192.9740  173.1830  136.4500 C   0  0  0  0  0  0  0  0  0  0  0  0
  195.3330  174.3790  138.5930 C   0  0  1  0  0  3  0  0  0  0  0  0
  193.3030  173.8390  143.4720 O   0  0  0  0  0  0  0  0  0  0  0  0
  193.4580  171.6950  144.5250 C   0  0  0  0  0  1  0  0  0  0  0  0
  194.0440  172.6530  143.4970 C   0  0  2  0  0  3  0  0  0  0  0  0
  195.5320  172.9630  143.7350 C   0  0  2  0  0  3  0  0  0  0  0  0
  195.8340  174.2180  144.5050 C   0  0  0  0  0  0  0  0  0  0  0  0
  195.8030  174.1970  145.7620 O   0  0  0  0  0  1  0  0  0  0  0  0
  196.1680  175.3940  143.8450 O   0  0  0  0  0  0  0  0  0  0  0  0
  196.3980  172.7010  142.6480 O   0  0  0  0  0  0  0  0  0  0  0  0
  195.7410  171.8760  141.7230 C   0  0  0  0  0  1  0  0  0  0  0  0
  191.0490  174.2090  140.6270 O   0  0  0  0  0  0  0  0  0  0  0  0
  190.6790  171.7380  140.3010 C   0  0  0  0  0  2  0  0  0  0  0  0
  189.1730  172.9490  137.6540 N   0  0  0  0  0  2  0  0  0  0  0  0
  191.2490  170.7710  139.3510 N   0  0  0  0  0  0  0  0  0  0  0  0
  190.5460  170.7780  138.1450 C   0  0  0  0  0  0  0  0  0  0  0  0
  189.7710  173.6800  138.7530 C   0  0  0  0  0  3  0  0  0  0  0  0
  189.9970  170.4160  136.9130 C   0  0  0  0  0  2  0  0  0  0  0  0
  190.5020  173.2080  139.8170 C   0  0  0  0  0  0  0  0  0  0  0  0
  189.6950  171.6650  137.4590 C   0  0  0  0  0  0  0  0  0  0  0  0
  191.9870  169.6040  139.8070 C   0  0  0  0  0  2  0  0  0  0  0  0
  190.8650  168.3410  141.6470 C   0  0  0  0  0  1  0  0  0  0  0  0
  191.8570  169.4380  141.3140 C   0  0  0  0  0  3  0  0  0  0  0  0
  193.2080  169.0770  141.8950 C   0  0  0  0  0  1  0  0  0  0  0  0
  190.8280  174.9530  142.8020 O   0  0  0  0  0  0  0  0  0  0  0  0
  188.1190  174.4580  142.7830 O   0  0  0  0  0  0  0  0  0  0  0  0
  189.8330  172.6500  143.5750 O   0  0  0  0  0  1  0  0  0  0  0  0
  189.5680  174.1390  143.5960 P   0  0  1  0  0  0  0  0  0  0  0  0
  189.4610  174.6950  145.2000 O   0  0  0  0  0  0  0  0  0  0  0  0
  190.1270  175.9280  145.2320 C   0  0  1  0  0  3  0  0  0  0  0  0
  188.7150  177.8370  144.4080 C   0  0  0  0  0  2  0  0  0  0  0  0
  187.8860  176.5130  146.1600 C   0  0  0  0  0  0  0  0  0  0  0  0
  186.7780  176.7750  145.3280 N   0  0  0  0  0  2  0  0  0  0  0  0
  187.7740  175.8970  147.2510 O   0  0  0  0  0  0  0  0  0  0  0  0
  186.4800  178.7480  144.0460 N   0  0  0  0  0  1  0  0  0  0  0  0
  189.1650  177.0530  145.6450 C   0  0  1  0  0  3  0  0  0  0  0  0
  187.2350  177.5140  144.1680 C   0  0  1  0  0  3  0  0  0  0  0  0
  191.3000  175.8420  146.1710 C   0  0  0  0  0  0  0  0  0  0  0  0
  191.1250  175.4960  147.4530 C   0  0  0  0  0  2  0  0  0  0  0  0
  192.5540  177.1580  144.6370 O   0  0  0  0  0  1  0  0  0  0  0  0
  192.6600  176.2060  145.6530 C   0  0  1  0  0  3  0  0  0  0  0  0
  193.5540  176.7290  146.7640 C   0  0  0  0  0  1  0  0  0  0  0  0
  1 24  1  6  0  0  0
  1  2  1  0  0  0  0
  1 37  1  0  0  0  0
  2  4  1  1  0  0  0
  2 15  1  0  0  0  0
  3  5  2  0  0  0  0
  5  4  2  0  0  0  0
  6  8  1  6  0  0  0
  6 10  1  0  0  0  0
  7  6  1  0  0  0  0
  7  9  1  0  0  0  0
 10 11  1  6  0  0  0
 10 14  1  0  0  0  0
 12 13  2  0  0  0  0
 13  8  1  0  0  0  0
 13 11  1  0  0  0  0
 14  9  1  0  0  0  0
 14  3  1  1  0  0  0
 15 17  1  0  0  0  0
 17 18  1  0  0  0  0
 17 16  1  1  0  0  0
 18 22  1  6  0  0  0
 18 19  1  0  0  0  0
 19 20  1  0  0  0  0
 21 19  2  0  0  0  0
 23 22  1  0  0  0  0
 26 29  1  0  0  0  0
 27 33  1  0  0  0  0
 27 25  1  0  0  0  0
 28 27  1  0  0  0  0
 29 31  2  0  0  0  0
 30 32  1  0  0  0  0
 30 28  1  0  0  0  0
 31 25  1  0  0  0  0
 31 24  1  0  0  0  0
 32 26  1  0  0  0  0
 32 28  2  0  0  0  0
 33 35  1  0  0  0  0
 35 34  1  0  0  0  0
 35 36  1  0  0  0  0
 37 40  1  0  0  0  0
 39 40  1  0  0  0  0
 40 38  2  6  0  0  0
 40 41  1  0  0  0  0
 42 41  1  1  0  0  0
 42 50  1  0  0  0  0
 43 48  1  0  0  0  0
 44 46  2  0  0  0  0
 45 44  1  0  0  0  0
 48 42  1  6  0  0  0
 48 44  1  0  0  0  0
 49 47  1  1  0  0  0
 49 43  1  0  0  0  0
 49 45  1  0  0  0  0
 50 51  2  0  0  0  0
 52 53  1  0  0  0  0
 53 50  1  0  0  0  0
 53 54  1  1  0  0  0
M  END
>  <MODEL>
9

>  <REMARK>
 VINA RESULT:      -5.9      1.964      7.468
  Name = 
  19 active torsions:
  status: ('A' for Active; 'I' for Inactive)
    1  A    between atoms: O_3  and  C_45
    2  A    between atoms: O_3  and  C_52
    3  A    between atoms: O_4  and  C_22
    4  A    between atoms: O_4  and  P_50
    5  A    between atoms: N_13  and  C_30
    6  A    between atoms: C_14  and  C_49
    7  A    between atoms: C_15  and  O_21
    8  A    between atoms: C_15  and  C_32
    9  A    between atoms: C_15  and  C_53
   10  A    between atoms: C_20  and  C_48
   11  A    between atoms: O_21  and  P_50
   12  A    between atoms: C_22  and  O_39
   13  A    between atoms: C_22  and  C_45
   14  A    between atoms: C_24  and  C_32
   15  A    between atoms: O_27  and  C_48
   16  A    between atoms: C_28  and  C_45
   17  A    between atoms: C_30  and  C_35
   18  A    between atoms: C_33  and  O_39
   19  A    between atoms: C_48  and  C_52
                            x       y       z     vdW  Elec       q    Type
                         _______ _______ _______ _____ _____    ______ ____

>  <TORSDO>
F 19

$$$$
