=
 OpenBabel11062421113D

 33 37  0  0  1  0  0  0  0  0999 V2000
  189.0660  173.6790  142.0440 C   0  0  0  0  0  0  0  0  0  0  0  0
  188.3390  175.6520  141.3510 N   0  0  0  0  0  0  0  0  0  0  0  0
  189.7840  171.4340  142.6080 O   0  0  0  0  0  1  0  0  0  0  0  0
  189.6630  172.7800  142.9240 C   0  0  0  0  0  0  0  0  0  0  0  0
  190.1400  173.2770  144.1490 C   0  0  0  0  0  3  0  0  0  0  0  0
  188.0950  174.7400  140.3800 C   0  0  0  0  0  3  0  0  0  0  0  0
  188.9370  175.0010  142.3570 C   0  0  0  0  0  0  0  0  0  0  0  0
  189.4060  175.5240  143.5610 C   0  0  0  0  0  3  0  0  0  0  0  0
  190.0270  174.6510  144.4830 C   0  0  0  0  0  0  0  0  0  0  0  0
  188.5390  173.4750  140.7810 C   0  0  0  0  0  3  0  0  0  0  0  0
  190.5600  175.2040  145.7650 C   0  0  0  0  0  0  0  0  0  0  0  0
  191.6730  175.9450  145.8840 C   0  0  0  0  0  3  0  0  0  0  0  0
  189.6440  174.9270  147.2870 S   0  0  0  0  0  0  0  0  0  0  0  0
  186.3670  178.5750  146.8180 C   0  0  2  0  0  3  0  0  0  0  0  0
  184.2500  178.0590  146.3580 C   0  0  0  0  0  3  0  0  0  0  0  0
  189.0330  177.4580  146.8260 O   0  0  0  0  0  0  0  0  0  0  0  0
  186.1390  177.1020  146.7720 C   0  0  0  0  0  0  0  0  0  0  0  0
  187.1350  176.0860  146.9440 N   0  0  0  0  0  2  0  0  0  0  0  0
  184.9120  176.8120  146.5110 N   0  0  0  0  0  0  0  0  0  0  0  0
  186.7550  179.0040  148.2230 C   0  0  0  0  0  1  0  0  0  0  0  0
  188.5470  176.3110  147.0030 C   0  0  0  0  0  0  0  0  0  0  0  0
  185.0350  179.0750  146.5180 N   0  0  0  0  0  0  0  0  0  0  0  0
  192.5960  176.3350  144.7780 C   0  0  0  0  0  2  0  0  0  0  0  0
  194.9320  176.4470  144.8170 C   0  0  0  0  0  2  0  0  0  0  0  0
  194.4690  176.1650  146.1690 C   0  0  0  0  0  2  0  0  0  0  0  0
  193.7090  177.0910  145.3180 N   0  0  0  0  0  0  0  0  0  0  0  0
  188.0240  177.0760  141.2950 C   0  0  0  0  0  2  0  0  0  0  0  0
  185.7950  177.9740  140.6350 C   0  0  0  0  0  2  0  0  0  0  0  0
  184.3230  178.1550  141.0370 C   0  0  0  0  0  2  0  0  0  0  0  0
  186.5970  178.2110  143.0210 C   0  0  0  0  0  2  0  0  0  0  0  0
  186.5990  177.3300  141.7610 C   0  0  0  0  0  3  0  0  0  0  0  0
  185.3340  179.0720  143.1640 C   0  0  0  0  0  2  0  0  0  0  0  0
  184.1230  178.3830  142.5430 C   0  0  0  0  0  2  0  0  0  0  0  0
  1  7  2  0  0  0  0
  1  4  1  0  0  0  0
  2  7  1  0  0  0  0
  3  4  1  0  0  0  0
  4  5  2  0  0  0  0
  5  9  1  0  0  0  0
  6 10  2  0  0  0  0
  6  2  1  0  0  0  0
  7  8  1  0  0  0  0
  8  9  2  0  0  0  0
  9 11  1  0  0  0  0
 10  1  1  0  0  0  0
 11 12  2  0  0  0  0
 11 13  1  0  0  0  0
 14 20  1  1  0  0  0
 15 19  1  0  0  0  0
 15 22  2  0  0  0  0
 16 21  2  0  0  0  0
 17 14  1  0  0  0  0
 17 18  1  0  0  0  0
 18 21  1  0  0  0  0
 19 17  2  0  0  0  0
 21 13  1  0  0  0  0
 22 14  1  0  0  0  0
 23 26  1  0  0  0  0
 23 12  1  0  0  0  0
 24 26  1  0  0  0  0
 24 25  1  0  0  0  0
 26 25  1  0  0  0  0
 27  2  1  0  0  0  0
 27 31  1  0  0  0  0
 28 29  1  0  0  0  0
 28 31  1  0  0  0  0
 29 33  1  0  0  0  0
 30 32  1  0  0  0  0
 31 30  1  0  0  0  0
 33 32  1  0  0  0  0
M  END
>  <MODEL>
1

>  <REMARK>
 VINA RESULT:      -7.9      0.000      0.000
  Name = 
  7 active torsions:
  status: ('A' for Active; 'I' for Inactive)
    1  A    between atoms: N_7  and  C_18
    2  A    between atoms: S_13  and  C_24
    3  A    between atoms: S_13  and  C_25
    4  A    between atoms: C_18  and  C_22
    5  A    between atoms: C_20  and  C_26
    6  A    between atoms: C_20  and  N_29
    7  A    between atoms: C_25  and  C_31
                            x       y       z     vdW  Elec       q    Type
                         _______ _______ _______ _____ _____    ______ ____

>  <TORSDO>
F 7

$$$$
=
 OpenBabel11062421113D

 33 37  0  0  1  0  0  0  0  0999 V2000
  189.1120  174.0550  142.7360 C   0  0  0  0  0  0  0  0  0  0  0  0
  188.3500  175.9230  141.8250 N   0  0  0  0  0  0  0  0  0  0  0  0
  189.9140  171.9100  143.5320 O   0  0  0  0  0  1  0  0  0  0  0  0
  189.6170  173.2490  143.7520 C   0  0  0  0  0  0  0  0  0  0  0  0
  189.8150  173.8300  145.0170 C   0  0  0  0  0  3  0  0  0  0  0  0
  188.3710  174.9600  140.8730 C   0  0  0  0  0  3  0  0  0  0  0  0
  188.8100  175.3670  142.9530 C   0  0  0  0  0  0  0  0  0  0  0  0
  189.0010  175.9740  144.1940 C   0  0  0  0  0  3  0  0  0  0  0  0
  189.5180  175.1960  145.2550 C   0  0  0  0  0  0  0  0  0  0  0  0
  188.8470  173.7590  141.4100 C   0  0  0  0  0  3  0  0  0  0  0  0
  189.7560  175.8420  146.5830 C   0  0  0  0  0  0  0  0  0  0  0  0
  188.9720  176.7790  147.1390 C   0  0  0  0  0  3  0  0  0  0  0  0
  191.1600  175.3140  147.5740 S   0  0  0  0  0  0  0  0  0  0  0  0
  194.4830  176.3230  144.0800 C   0  0  2  0  0  3  0  0  0  0  0  0
  196.4620  175.3040  144.1590 C   0  0  0  0  0  3  0  0  0  0  0  0
  192.1420  176.8790  145.6830 O   0  0  0  0  0  0  0  0  0  0  0  0
  194.5700  175.3380  145.1960 C   0  0  0  0  0  0  0  0  0  0  0  0
  193.5530  175.0690  146.1690 N   0  0  0  0  0  2  0  0  0  0  0  0
  195.7140  174.7490  145.2310 N   0  0  0  0  0  0  0  0  0  0  0  0
  193.4420  175.8790  143.0660 C   0  0  0  0  0  1  0  0  0  0  0  0
  192.3550  175.8320  146.3480 C   0  0  0  0  0  0  0  0  0  0  0  0
  195.8060  176.1960  143.4900 N   0  0  0  0  0  0  0  0  0  0  0  0
  187.7410  177.3700  146.5370 C   0  0  0  0  0  2  0  0  0  0  0  0
  185.4790  176.8080  146.3400 C   0  0  0  0  0  2  0  0  0  0  0  0
  185.5780  178.0220  147.1410 C   0  0  0  0  0  2  0  0  0  0  0  0
  186.5810  176.9590  147.3020 N   0  0  0  0  0  0  0  0  0  0  0  0
  187.9240  177.3060  141.6420 C   0  0  0  0  0  2  0  0  0  0  0  0
  185.5340  177.9060  141.2660 C   0  0  0  0  0  2  0  0  0  0  0  0
  184.1430  178.0620  141.9010 C   0  0  0  0  0  2  0  0  0  0  0  0
  186.7080  178.6560  143.3760 C   0  0  0  0  0  2  0  0  0  0  0  0
  186.5820  177.5490  142.3160 C   0  0  0  0  0  3  0  0  0  0  0  0
  185.4080  179.4410  143.6000 C   0  0  0  0  0  2  0  0  0  0  0  0
  184.1840  178.5640  143.3520 C   0  0  0  0  0  2  0  0  0  0  0  0
  1  7  2  0  0  0  0
  1  4  1  0  0  0  0
  2  7  1  0  0  0  0
  3  4  1  0  0  0  0
  4  5  2  0  0  0  0
  5  9  1  0  0  0  0
  6 10  2  0  0  0  0
  6  2  1  0  0  0  0
  7  8  1  0  0  0  0
  8  9  2  0  0  0  0
  9 11  1  0  0  0  0
 10  1  1  0  0  0  0
 11 12  2  0  0  0  0
 11 13  1  0  0  0  0
 14 20  1  6  0  0  0
 14 17  1  0  0  0  0
 15 19  1  0  0  0  0
 16 21  2  0  0  0  0
 17 19  2  0  0  0  0
 17 18  1  0  0  0  0
 18 21  1  0  0  0  0
 21 13  1  0  0  0  0
 22 14  1  0  0  0  0
 22 15  2  0  0  0  0
 23 12  1  0  0  0  0
 23 26  1  0  0  0  0
 24 25  1  0  0  0  0
 24 26  1  0  0  0  0
 25 26  1  0  0  0  0
 27  2  1  0  0  0  0
 27 31  1  0  0  0  0
 28 29  1  0  0  0  0
 28 31  1  0  0  0  0
 29 33  1  0  0  0  0
 30 32  1  0  0  0  0
 31 30  1  0  0  0  0
 33 32  1  0  0  0  0
M  END
>  <MODEL>
2

>  <REMARK>
 VINA RESULT:      -7.6      1.396      5.519
  Name = 
  7 active torsions:
  status: ('A' for Active; 'I' for Inactive)
    1  A    between atoms: N_7  and  C_18
    2  A    between atoms: S_13  and  C_24
    3  A    between atoms: S_13  and  C_25
    4  A    between atoms: C_18  and  C_22
    5  A    between atoms: C_20  and  C_26
    6  A    between atoms: C_20  and  N_29
    7  A    between atoms: C_25  and  C_31
                            x       y       z     vdW  Elec       q    Type
                         _______ _______ _______ _____ _____    ______ ____

>  <TORSDO>
F 7

$$$$
=
 OpenBabel11062421113D

 33 37  0  0  1  0  0  0  0  0999 V2000
  188.0550  175.6840  141.3850 C   0  0  0  0  0  0  0  0  0  0  0  0
  187.6040  177.4110  142.6960 N   0  0  0  0  0  0  0  0  0  0  0  0
  188.4390  173.9040  139.7850 O   0  0  0  0  0  1  0  0  0  0  0  0
  188.5730  174.4330  141.0620 C   0  0  0  0  0  0  0  0  0  0  0  0
  189.2380  173.7150  142.0710 C   0  0  0  0  0  3  0  0  0  0  0  0
  187.1230  177.6760  141.4580 C   0  0  0  0  0  3  0  0  0  0  0  0
  188.1770  176.2010  142.6420 C   0  0  0  0  0  0  0  0  0  0  0  0
  188.8360  175.5160  143.6620 C   0  0  0  0  0  3  0  0  0  0  0  0
  189.3860  174.2450  143.3790 C   0  0  0  0  0  0  0  0  0  0  0  0
  187.3870  176.6040  140.5970 C   0  0  0  0  0  3  0  0  0  0  0  0
  190.1200  173.5130  144.4550 C   0  0  0  0  0  0  0  0  0  0  0  0
  190.0770  173.8120  145.7630 C   0  0  0  0  0  3  0  0  0  0  0  0
  191.1110  172.0770  144.0180 S   0  0  0  0  0  0  0  0  0  0  0  0
  195.1540  174.7850  144.7910 C   0  0  2  0  0  3  0  0  0  0  0  0
  195.7510  176.2790  143.2510 C   0  0  0  0  0  3  0  0  0  0  0  0
  193.4440  172.4880  145.1930 O   0  0  0  0  0  0  0  0  0  0  0  0
  194.1760  174.8640  143.6670 C   0  0  0  0  0  0  0  0  0  0  0  0
  192.9980  174.0630  143.5120 N   0  0  0  0  0  2  0  0  0  0  0  0
  194.5250  175.7340  142.7850 N   0  0  0  0  0  0  0  0  0  0  0  0
  194.5070  175.2470  146.0850 C   0  0  0  0  0  1  0  0  0  0  0  0
  192.6590  172.9240  144.3110 C   0  0  0  0  0  0  0  0  0  0  0  0
  196.1410  175.7680  144.3730 N   0  0  0  0  0  0  0  0  0  0  0  0
  189.3160  174.9340  146.3860 C   0  0  0  0  0  2  0  0  0  0  0  0
  189.9590  177.0840  147.0460 C   0  0  0  0  0  2  0  0  0  0  0  0
  191.1230  176.4170  146.4780 C   0  0  0  0  0  2  0  0  0  0  0  0
  190.1770  175.6530  147.3040 N   0  0  0  0  0  0  0  0  0  0  0  0
  187.5270  178.2910  143.8570 C   0  0  0  0  0  2  0  0  0  0  0  0
  185.4320  179.2990  144.7550 C   0  0  0  0  0  2  0  0  0  0  0  0
  184.0960  179.0410  145.4690 C   0  0  0  0  0  2  0  0  0  0  0  0
  186.6080  177.4690  146.0440 C   0  0  0  0  0  2  0  0  0  0  0  0
  186.2590  178.0200  144.6520 C   0  0  0  0  0  3  0  0  0  0  0  0
  185.5630  177.8090  147.1170 C   0  0  0  0  0  2  0  0  0  0  0  0
  184.1660  177.9160  146.5130 C   0  0  0  0  0  2  0  0  0  0  0  0
  1  7  1  0  0  0  0
  2 27  1  0  0  0  0
  3  4  1  0  0  0  0
  4  1  2  0  0  0  0
  4  5  1  0  0  0  0
  5  9  2  0  0  0  0
  6  2  1  0  0  0  0
  7  2  1  0  0  0  0
  7  8  2  0  0  0  0
  9  8  1  0  0  0  0
  9 11  1  0  0  0  0
 10  1  1  0  0  0  0
 10  6  2  0  0  0  0
 11 12  2  0  0  0  0
 12 23  1  0  0  0  0
 13 21  1  0  0  0  0
 13 11  1  0  0  0  0
 14 20  1  1  0  0  0
 15 22  2  0  0  0  0
 17 14  1  0  0  0  0
 18 17  1  0  0  0  0
 18 21  1  0  0  0  0
 19 15  1  0  0  0  0
 19 17  2  0  0  0  0
 21 16  2  0  0  0  0
 22 14  1  0  0  0  0
 23 26  1  0  0  0  0
 24 26  1  0  0  0  0
 25 24  1  0  0  0  0
 25 26  1  0  0  0  0
 27 31  1  0  0  0  0
 28 29  1  0  0  0  0
 29 33  1  0  0  0  0
 30 32  1  0  0  0  0
 31 28  1  0  0  0  0
 31 30  1  0  0  0  0
 33 32  1  0  0  0  0
M  END
>  <MODEL>
3

>  <REMARK>
 VINA RESULT:      -7.4      2.493      5.644
  Name = 
  7 active torsions:
  status: ('A' for Active; 'I' for Inactive)
    1  A    between atoms: N_7  and  C_18
    2  A    between atoms: S_13  and  C_24
    3  A    between atoms: S_13  and  C_25
    4  A    between atoms: C_18  and  C_22
    5  A    between atoms: C_20  and  C_26
    6  A    between atoms: C_20  and  N_29
    7  A    between atoms: C_25  and  C_31
                            x       y       z     vdW  Elec       q    Type
                         _______ _______ _______ _____ _____    ______ ____

>  <TORSDO>
F 7

$$$$
=
 OpenBabel11062421113D

 33 37  0  0  1  0  0  0  0  0999 V2000
  190.4950  175.5840  146.6520 C   0  0  0  0  0  0  0  0  0  0  0  0
  192.3730  176.3740  145.7860 N   0  0  0  0  0  0  0  0  0  0  0  0
  188.5670  174.6190  147.7590 O   0  0  0  0  0  1  0  0  0  0  0  0
  189.1200  175.3830  146.7410 C   0  0  0  0  0  0  0  0  0  0  0  0
  188.3040  175.9780  145.7630 C   0  0  0  0  0  3  0  0  0  0  0  0
  192.6790  175.6660  146.8990 C   0  0  0  0  0  3  0  0  0  0  0  0
  191.0420  176.3260  145.6470 C   0  0  0  0  0  0  0  0  0  0  0  0
  190.2580  176.9330  144.6660 C   0  0  0  0  0  3  0  0  0  0  0  0
  188.8560  176.7640  144.7190 C   0  0  0  0  0  0  0  0  0  0  0  0
  191.5160  175.1460  147.4780 C   0  0  0  0  0  3  0  0  0  0  0  0
  188.0020  177.4330  143.6910 C   0  0  0  0  0  0  0  0  0  0  0  0
  186.9200  178.1830  143.9530 C   0  0  0  0  0  3  0  0  0  0  0  0
  188.4510  177.2970  141.9550 S   0  0  0  0  0  0  0  0  0  0  0  0
  189.3210  172.4630  142.3390 C   0  0  2  0  0  3  0  0  0  0  0  0
  191.1240  171.6180  141.3410 C   0  0  0  0  0  3  0  0  0  0  0  0
  187.6450  174.8180  142.3990 O   0  0  0  0  0  0  0  0  0  0  0  0
  190.1560  173.5150  141.6900 C   0  0  0  0  0  0  0  0  0  0  0  0
  189.8610  174.9160  141.6360 N   0  0  0  0  0  2  0  0  0  0  0  0
  191.1990  173.0190  141.1210 N   0  0  0  0  0  0  0  0  0  0  0  0
  189.3090  172.6560  143.8460 C   0  0  0  0  0  1  0  0  0  0  0  0
  188.6240  175.5180  142.0310 C   0  0  0  0  0  0  0  0  0  0  0  0
  190.0800  171.2650  142.0180 N   0  0  0  0  0  0  0  0  0  0  0  0
  186.3510  178.4700  145.3030 C   0  0  0  0  0  2  0  0  0  0  0  0
  184.4410  178.4520  146.6520 C   0  0  0  0  0  2  0  0  0  0  0  0
  184.9100  177.0800  146.5130 C   0  0  0  0  0  2  0  0  0  0  0  0
  184.9830  177.9940  145.3640 N   0  0  0  0  0  0  0  0  0  0  0  0
  193.3190  177.0700  144.9200 C   0  0  0  0  0  2  0  0  0  0  0  0
  195.5710  176.4520  144.0490 C   0  0  0  0  0  2  0  0  0  0  0  0
  196.3980  175.4170  143.2720 C   0  0  0  0  0  2  0  0  0  0  0  0
  193.5140  176.0410  142.6380 C   0  0  0  0  0  2  0  0  0  0  0  0
  194.0910  176.0790  144.0620 C   0  0  0  0  0  3  0  0  0  0  0  0
  194.5500  175.6700  141.5670 C   0  0  0  0  0  2  0  0  0  0  0  0
  195.6200  174.7410  142.1330 C   0  0  0  0  0  2  0  0  0  0  0  0
  1  4  1  0  0  0  0
  1 10  1  0  0  0  0
  2  6  1  0  0  0  0
  4  3  1  0  0  0  0
  5  4  2  0  0  0  0
  6 10  2  0  0  0  0
  7  2  1  0  0  0  0
  7  1  2  0  0  0  0
  8  9  2  0  0  0  0
  8  7  1  0  0  0  0
  9  5  1  0  0  0  0
 11 12  2  0  0  0  0
 11  9  1  0  0  0  0
 12 23  1  0  0  0  0
 13 21  1  0  0  0  0
 13 11  1  0  0  0  0
 14 20  1  1  0  0  0
 15 22  2  0  0  0  0
 17 14  1  0  0  0  0
 18 17  1  0  0  0  0
 18 21  1  0  0  0  0
 19 15  1  0  0  0  0
 19 17  2  0  0  0  0
 21 16  2  0  0  0  0
 22 14  1  0  0  0  0
 23 26  1  0  0  0  0
 25 24  1  0  0  0  0
 26 25  1  0  0  0  0
 26 24  1  0  0  0  0
 27  2  1  0  0  0  0
 28 31  1  0  0  0  0
 29 28  1  0  0  0  0
 30 31  1  0  0  0  0
 31 27  1  0  0  0  0
 32 33  1  0  0  0  0
 32 30  1  0  0  0  0
 33 29  1  0  0  0  0
M  END
>  <MODEL>
4

>  <REMARK>
 VINA RESULT:      -7.4      2.318      7.683
  Name = 
  7 active torsions:
  status: ('A' for Active; 'I' for Inactive)
    1  A    between atoms: N_7  and  C_18
    2  A    between atoms: S_13  and  C_24
    3  A    between atoms: S_13  and  C_25
    4  A    between atoms: C_18  and  C_22
    5  A    between atoms: C_20  and  C_26
    6  A    between atoms: C_20  and  N_29
    7  A    between atoms: C_25  and  C_31
                            x       y       z     vdW  Elec       q    Type
                         _______ _______ _______ _____ _____    ______ ____

>  <TORSDO>
F 7

$$$$
=
 OpenBabel11062421113D

 33 37  0  0  1  0  0  0  0  0999 V2000
  190.9930  175.4170  146.2720 C   0  0  0  0  0  0  0  0  0  0  0  0
  192.9070  176.2200  145.5020 N   0  0  0  0  0  0  0  0  0  0  0  0
  189.0020  174.5070  147.3140 O   0  0  0  0  0  1  0  0  0  0  0  0
  189.6550  175.0360  146.2090 C   0  0  0  0  0  0  0  0  0  0  0  0
  188.9820  175.2000  144.9860 C   0  0  0  0  0  3  0  0  0  0  0  0
  193.0690  175.9060  146.8100 C   0  0  0  0  0  3  0  0  0  0  0  0
  191.6390  175.9280  145.1850 C   0  0  0  0  0  0  0  0  0  0  0  0
  190.9960  176.1080  143.9610 C   0  0  0  0  0  3  0  0  0  0  0  0
  189.6350  175.7420  143.8500 C   0  0  0  0  0  0  0  0  0  0  0  0
  191.8780  175.3920  147.3350 C   0  0  0  0  0  3  0  0  0  0  0  0
  188.9260  175.9580  142.5520 C   0  0  0  0  0  0  0  0  0  0  0  0
  188.5710  174.9890  141.6940 C   0  0  0  0  0  3  0  0  0  0  0  0
  188.4410  177.6260  142.0850 S   0  0  0  0  0  0  0  0  0  0  0  0
  184.6400  178.0440  145.1910 C   0  0  2  0  0  3  0  0  0  0  0  0
  185.0530  178.5160  147.3280 C   0  0  0  0  0  3  0  0  0  0  0  0
  185.9340  177.1400  142.7690 O   0  0  0  0  0  0  0  0  0  0  0  0
  186.0910  178.2680  145.4540 C   0  0  0  0  0  0  0  0  0  0  0  0
  187.1520  178.1570  144.4960 N   0  0  0  0  0  2  0  0  0  0  0  0
  186.3210  178.5460  146.6900 N   0  0  0  0  0  0  0  0  0  0  0  0
  184.1000  179.1210  144.2670 C   0  0  0  0  0  1  0  0  0  0  0  0
  187.0200  177.6300  143.1720 C   0  0  0  0  0  0  0  0  0  0  0  0
  184.0830  178.2320  146.5210 N   0  0  0  0  0  0  0  0  0  0  0  0
  188.8340  173.5290  141.8550 C   0  0  0  0  0  2  0  0  0  0  0  0
  190.2830  171.7490  141.4040 C   0  0  0  0  0  2  0  0  0  0  0  0
  190.8950  172.5830  142.4300 C   0  0  0  0  0  2  0  0  0  0  0  0
  190.1480  173.2110  141.3310 N   0  0  0  0  0  0  0  0  0  0  0  0
  193.9210  176.7880  144.6200 C   0  0  0  0  0  2  0  0  0  0  0  0
  196.1820  176.4600  143.6260 C   0  0  0  0  0  2  0  0  0  0  0  0
  197.3590  175.4920  143.4250 C   0  0  0  0  0  2  0  0  0  0  0  0
  194.4810  174.5920  143.5400 C   0  0  0  0  0  2  0  0  0  0  0  0
  195.0260  175.7780  144.3520 C   0  0  0  0  0  3  0  0  0  0  0  0
  195.5390  173.9190  142.6530 C   0  0  0  0  0  2  0  0  0  0  0  0
  196.9280  174.0260  143.2740 C   0  0  0  0  0  2  0  0  0  0  0  0
  1 10  1  0  0  0  0
  2  6  1  0  0  0  0
  4  1  1  0  0  0  0
  4  3  1  0  0  0  0
  5  4  2  0  0  0  0
  6 10  2  0  0  0  0
  7  2  1  0  0  0  0
  7  1  2  0  0  0  0
  8  7  1  0  0  0  0
  9  8  2  0  0  0  0
  9  5  1  0  0  0  0
 11  9  1  0  0  0  0
 12 23  1  0  0  0  0
 12 11  2  0  0  0  0
 13 11  1  0  0  0  0
 13 21  1  0  0  0  0
 14 20  1  6  0  0  0
 14 17  1  0  0  0  0
 14 22  1  0  0  0  0
 16 21  2  0  0  0  0
 17 19  2  0  0  0  0
 18 17  1  0  0  0  0
 19 15  1  0  0  0  0
 21 18  1  0  0  0  0
 22 15  2  0  0  0  0
 24 25  1  0  0  0  0
 26 24  1  0  0  0  0
 26 23  1  0  0  0  0
 26 25  1  0  0  0  0
 27  2  1  0  0  0  0
 28 31  1  0  0  0  0
 29 28  1  0  0  0  0
 30 31  1  0  0  0  0
 31 27  1  0  0  0  0
 32 33  1  0  0  0  0
 32 30  1  0  0  0  0
 33 29  1  0  0  0  0
M  END
>  <MODEL>
5

>  <REMARK>
 VINA RESULT:      -7.4      2.234      6.566
  Name = 
  7 active torsions:
  status: ('A' for Active; 'I' for Inactive)
    1  A    between atoms: N_7  and  C_18
    2  A    between atoms: S_13  and  C_24
    3  A    between atoms: S_13  and  C_25
    4  A    between atoms: C_18  and  C_22
    5  A    between atoms: C_20  and  C_26
    6  A    between atoms: C_20  and  N_29
    7  A    between atoms: C_25  and  C_31
                            x       y       z     vdW  Elec       q    Type
                         _______ _______ _______ _____ _____    ______ ____

>  <TORSDO>
F 7

$$$$
=
 OpenBabel11062421113D

 33 37  0  0  1  0  0  0  0  0999 V2000
  185.8640  177.7140  141.5470 C   0  0  0  0  0  0  0  0  0  0  0  0
  184.6000  178.3080  143.2660 N   0  0  0  0  0  0  0  0  0  0  0  0
  187.0610  177.0760  139.5390 O   0  0  0  0  0  1  0  0  0  0  0  0
  187.0390  177.3400  140.9020 C   0  0  0  0  0  0  0  0  0  0  0  0
  188.2090  177.2340  141.6740 C   0  0  0  0  0  3  0  0  0  0  0  0
  183.8290  178.2910  142.1520 C   0  0  0  0  0  3  0  0  0  0  0  0
  185.8380  177.9640  142.8880 C   0  0  0  0  0  0  0  0  0  0  0  0
  186.9830  177.8730  143.6790 C   0  0  0  0  0  3  0  0  0  0  0  0
  188.2020  177.5040  143.0660 C   0  0  0  0  0  0  0  0  0  0  0  0
  184.5930  177.9170  141.0400 C   0  0  0  0  0  3  0  0  0  0  0  0
  189.4430  177.4320  143.8970 C   0  0  0  0  0  0  0  0  0  0  0  0
  189.6250  176.6150  144.9460 C   0  0  0  0  0  3  0  0  0  0  0  0
  190.8500  178.4630  143.4600 S   0  0  0  0  0  0  0  0  0  0  0  0
  193.9480  174.7050  144.2070 C   0  0  2  0  0  3  0  0  0  0  0  0
  195.5360  174.9190  145.7540 C   0  0  0  0  0  3  0  0  0  0  0  0
  192.0520  176.2470  142.6620 O   0  0  0  0  0  0  0  0  0  0  0  0
  193.8540  176.0000  144.9420 C   0  0  0  0  0  0  0  0  0  0  0  0
  192.9080  177.0470  144.6940 N   0  0  0  0  0  2  0  0  0  0  0  0
  194.7710  176.1130  145.8380 N   0  0  0  0  0  0  0  0  0  0  0  0
  192.7250  173.8500  144.4890 C   0  0  0  0  0  1  0  0  0  0  0  0
  192.0130  177.1090  143.5780 C   0  0  0  0  0  0  0  0  0  0  0  0
  195.1080  174.1040  144.8460 N   0  0  0  0  0  0  0  0  0  0  0  0
  188.6280  175.6510  145.4970 C   0  0  0  0  0  2  0  0  0  0  0  0
  188.9410  174.5650  147.5440 C   0  0  0  0  0  2  0  0  0  0  0  0
  190.2190  175.1270  147.1290 C   0  0  0  0  0  2  0  0  0  0  0  0
  189.3190  174.5420  146.1240 N   0  0  0  0  0  0  0  0  0  0  0  0
  184.1610  178.6560  144.6120 C   0  0  0  0  0  2  0  0  0  0  0  0
  184.8160  177.2170  146.5390 C   0  0  0  0  0  2  0  0  0  0  0  0
  185.9360  176.8260  147.5150 C   0  0  0  0  0  2  0  0  0  0  0  0
  185.5870  179.6230  146.4380 C   0  0  0  0  0  2  0  0  0  0  0  0
  185.2540  178.3600  145.6270 C   0  0  0  0  0  3  0  0  0  0  0  0
  186.1000  179.3250  147.8540 C   0  0  0  0  0  2  0  0  0  0  0  0
  186.8510  177.9980  147.9010 C   0  0  0  0  0  2  0  0  0  0  0  0
  1  7  1  0  0  0  0
  2 27  1  0  0  0  0
  3  4  1  0  0  0  0
  4  1  2  0  0  0  0
  4  5  1  0  0  0  0
  5  9  2  0  0  0  0
  6  2  1  0  0  0  0
  7  2  1  0  0  0  0
  7  8  2  0  0  0  0
  9  8  1  0  0  0  0
  9 11  1  0  0  0  0
 10  1  1  0  0  0  0
 10  6  2  0  0  0  0
 11 12  2  0  0  0  0
 12 23  1  0  0  0  0
 13 21  1  0  0  0  0
 13 11  1  0  0  0  0
 14 20  1  1  0  0  0
 14 22  1  0  0  0  0
 14 17  1  0  0  0  0
 15 19  1  0  0  0  0
 16 21  2  0  0  0  0
 17 19  2  0  0  0  0
 18 17  1  0  0  0  0
 21 18  1  0  0  0  0
 22 15  2  0  0  0  0
 23 26  1  0  0  0  0
 25 24  1  0  0  0  0
 26 25  1  0  0  0  0
 26 24  1  0  0  0  0
 27 31  1  0  0  0  0
 28 29  1  0  0  0  0
 29 33  1  0  0  0  0
 30 32  1  0  0  0  0
 31 30  1  0  0  0  0
 31 28  1  0  0  0  0
 32 33  1  0  0  0  0
M  END
>  <MODEL>
6

>  <REMARK>
 VINA RESULT:      -7.3      2.668      6.283
  Name = 
  7 active torsions:
  status: ('A' for Active; 'I' for Inactive)
    1  A    between atoms: N_7  and  C_18
    2  A    between atoms: S_13  and  C_24
    3  A    between atoms: S_13  and  C_25
    4  A    between atoms: C_18  and  C_22
    5  A    between atoms: C_20  and  C_26
    6  A    between atoms: C_20  and  N_29
    7  A    between atoms: C_25  and  C_31
                            x       y       z     vdW  Elec       q    Type
                         _______ _______ _______ _____ _____    ______ ____

>  <TORSDO>
F 7

$$$$
=
 OpenBabel11062421113D

 33 37  0  0  1  0  0  0  0  0999 V2000
  190.9230  176.1560  145.1080 C   0  0  0  0  0  0  0  0  0  0  0  0
  189.2820  176.2120  146.5940 N   0  0  0  0  0  0  0  0  0  0  0  0
  192.8580  176.1590  143.6480 O   0  0  0  0  0  1  0  0  0  0  0  0
  191.4980  175.9720  143.8530 C   0  0  0  0  0  0  0  0  0  0  0  0
  190.6560  175.5910  142.7930 C   0  0  0  0  0  3  0  0  0  0  0  0
  190.4410  176.5230  147.2230 C   0  0  0  0  0  3  0  0  0  0  0  0
  189.5850  175.9820  145.3090 C   0  0  0  0  0  0  0  0  0  0  0  0
  188.7260  175.5990  144.2790 C   0  0  0  0  0  3  0  0  0  0  0  0
  189.2660  175.3930  142.9900 C   0  0  0  0  0  0  0  0  0  0  0  0
  191.5060  176.5000  146.3150 C   0  0  0  0  0  3  0  0  0  0  0  0
  188.3610  174.9530  141.8830 C   0  0  0  0  0  0  0  0  0  0  0  0
  187.6900  175.7740  141.0600 C   0  0  0  0  0  3  0  0  0  0  0  0
  188.1680  173.1950  141.5560 S   0  0  0  0  0  0  0  0  0  0  0  0
  190.5420  173.2170  137.2390 C   0  0  2  0  0  3  0  0  0  0  0  0
  192.6950  173.7830  137.2060 C   0  0  0  0  0  3  0  0  0  0  0  0
  188.1870  173.3140  138.9150 O   0  0  0  0  0  0  0  0  0  0  0  0
  191.0830  173.4700  138.6050 C   0  0  0  0  0  0  0  0  0  0  0  0
  190.3440  173.4220  139.8320 N   0  0  0  0  0  2  0  0  0  0  0  0
  192.3300  173.7910  138.5780 N   0  0  0  0  0  0  0  0  0  0  0  0
  190.1380  171.7590  137.0950 C   0  0  0  0  0  1  0  0  0  0  0  0
  188.9210  173.3060  139.9370 C   0  0  0  0  0  0  0  0  0  0  0  0
  191.7160  173.4700  136.4200 N   0  0  0  0  0  0  0  0  0  0  0  0
  187.6960  177.2660  141.1050 C   0  0  0  0  0  2  0  0  0  0  0  0
  186.3160  178.6570  142.3800 C   0  0  0  0  0  2  0  0  0  0  0  0
  185.8370  177.2890  142.5230 C   0  0  0  0  0  2  0  0  0  0  0  0
  186.3360  177.7530  141.2210 N   0  0  0  0  0  0  0  0  0  0  0  0
  187.9630  176.1270  147.2100 C   0  0  0  0  0  2  0  0  0  0  0  0
  186.7770  178.2380  147.8020 C   0  0  0  0  0  2  0  0  0  0  0  0
  185.9410  179.4190  147.2850 C   0  0  0  0  0  2  0  0  0  0  0  0
  185.7490  176.6330  146.1400 C   0  0  0  0  0  2  0  0  0  0  0  0
  187.0550  177.2300  146.6890 C   0  0  0  0  0  3  0  0  0  0  0  0
  184.5480  177.5850  146.2450 C   0  0  0  0  0  2  0  0  0  0  0  0
  184.9890  179.0420  146.1400 C   0  0  0  0  0  2  0  0  0  0  0  0
  1  7  1  0  0  0  0
  1 10  1  0  0  0  0
  2 27  1  0  0  0  0
  2  6  1  0  0  0  0
  3  4  1  0  0  0  0
  4  1  2  0  0  0  0
  5  9  2  0  0  0  0
  5  4  1  0  0  0  0
  7  2  1  0  0  0  0
  8  7  2  0  0  0  0
  9  8  1  0  0  0  0
 10  6  2  0  0  0  0
 11  9  1  0  0  0  0
 12 23  1  0  0  0  0
 12 11  2  0  0  0  0
 13 11  1  0  0  0  0
 14 20  1  1  0  0  0
 14 17  1  0  0  0  0
 15 19  1  0  0  0  0
 16 21  2  0  0  0  0
 17 18  1  0  0  0  0
 18 21  1  0  0  0  0
 19 17  2  0  0  0  0
 21 13  1  0  0  0  0
 22 15  2  0  0  0  0
 22 14  1  0  0  0  0
 23 26  1  0  0  0  0
 24 25  1  0  0  0  0
 26 24  1  0  0  0  0
 26 25  1  0  0  0  0
 29 28  1  0  0  0  0
 30 32  1  0  0  0  0
 30 31  1  0  0  0  0
 31 27  1  0  0  0  0
 31 28  1  0  0  0  0
 33 32  1  0  0  0  0
 33 29  1  0  0  0  0
M  END
>  <MODEL>
7

>  <REMARK>
 VINA RESULT:      -7.2      2.898      7.615
  Name = 
  7 active torsions:
  status: ('A' for Active; 'I' for Inactive)
    1  A    between atoms: N_7  and  C_18
    2  A    between atoms: S_13  and  C_24
    3  A    between atoms: S_13  and  C_25
    4  A    between atoms: C_18  and  C_22
    5  A    between atoms: C_20  and  C_26
    6  A    between atoms: C_20  and  N_29
    7  A    between atoms: C_25  and  C_31
                            x       y       z     vdW  Elec       q    Type
                         _______ _______ _______ _____ _____    ______ ____

>  <TORSDO>
F 7

$$$$
=
 OpenBabel11062421113D

 33 37  0  0  1  0  0  0  0  0999 V2000
  186.4430  178.0580  143.0040 C   0  0  0  0  0  0  0  0  0  0  0  0
  186.6880  177.9780  145.2040 N   0  0  0  0  0  0  0  0  0  0  0  0
  186.0400  178.3250  140.6290 O   0  0  0  0  0  1  0  0  0  0  0  0
  186.6370  177.6520  141.6870 C   0  0  0  0  0  0  0  0  0  0  0  0
  187.4550  176.5320  141.4570 C   0  0  0  0  0  3  0  0  0  0  0  0
  185.9020  179.0380  144.8980 C   0  0  0  0  0  3  0  0  0  0  0  0
  187.0200  177.3920  144.0460 C   0  0  0  0  0  0  0  0  0  0  0  0
  187.8410  176.2820  143.8490 C   0  0  0  0  0  3  0  0  0  0  0  0
  188.0730  175.8370  142.5280 C   0  0  0  0  0  0  0  0  0  0  0  0
  185.7210  179.1230  143.5130 C   0  0  0  0  0  3  0  0  0  0  0  0
  188.9750  174.6660  142.3010 C   0  0  0  0  0  0  0  0  0  0  0  0
  190.3160  174.7130  142.2960 C   0  0  0  0  0  3  0  0  0  0  0  0
  188.2520  173.0370  142.0640 S   0  0  0  0  0  0  0  0  0  0  0  0
  190.2350  172.9490  137.5550 C   0  0  2  0  0  3  0  0  0  0  0  0
  189.3040  174.1840  135.9530 C   0  0  0  0  0  3  0  0  0  0  0  0
  189.7290  171.8870  140.1960 O   0  0  0  0  0  0  0  0  0  0  0  0
  189.0980  173.7710  138.0610 C   0  0  0  0  0  0  0  0  0  0  0  0
  188.5830  173.7720  139.3980 N   0  0  0  0  0  2  0  0  0  0  0  0
  188.5690  174.4860  137.1300 N   0  0  0  0  0  0  0  0  0  0  0  0
  191.5360  173.3980  138.2000 C   0  0  0  0  0  1  0  0  0  0  0  0
  188.9500  172.8490  140.4280 C   0  0  0  0  0  0  0  0  0  0  0  0
  190.2470  173.3210  136.1500 N   0  0  0  0  0  0  0  0  0  0  0  0
  191.1570  175.9300  142.4890 C   0  0  0  0  0  2  0  0  0  0  0  0
  191.4720  177.6420  144.0510 C   0  0  0  0  0  2  0  0  0  0  0  0
  192.6530  176.7890  144.0690 C   0  0  0  0  0  2  0  0  0  0  0  0
  191.3220  176.1870  143.9070 N   0  0  0  0  0  0  0  0  0  0  0  0
  187.1050  177.5710  146.5410 C   0  0  0  0  0  2  0  0  0  0  0  0
  188.1910  175.4480  147.2630 C   0  0  0  0  0  2  0  0  0  0  0  0
  189.4250  174.5400  147.1400 C   0  0  0  0  0  2  0  0  0  0  0  0
  189.5700  177.5520  147.0160 C   0  0  0  0  0  2  0  0  0  0  0  0
  188.3790  176.7430  146.4780 C   0  0  0  0  0  3  0  0  0  0  0  0
  190.6720  176.6810  147.6360 C   0  0  0  0  0  2  0  0  0  0  0  0
  190.7400  175.3150  146.9630 C   0  0  0  0  0  2  0  0  0  0  0  0
  1 10  1  0  0  0  0
  1  7  1  0  0  0  0
  2 27  1  0  0  0  0
  3  4  1  0  0  0  0
  4  1  2  0  0  0  0
  5  4  1  0  0  0  0
  5  9  2  0  0  0  0
  6  2  1  0  0  0  0
  7  2  1  0  0  0  0
  8  7  2  0  0  0  0
  9  8  1  0  0  0  0
 10  6  2  0  0  0  0
 11  9  1  0  0  0  0
 12 11  2  0  0  0  0
 12 23  1  0  0  0  0
 13 11  1  0  0  0  0
 14 17  1  0  0  0  0
 14 20  1  1  0  0  0
 15 22  2  0  0  0  0
 15 19  1  0  0  0  0
 16 21  2  0  0  0  0
 17 18  1  0  0  0  0
 18 21  1  0  0  0  0
 19 17  2  0  0  0  0
 21 13  1  0  0  0  0
 22 14  1  0  0  0  0
 23 26  1  0  0  0  0
 24 25  1  0  0  0  0
 26 24  1  0  0  0  0
 26 25  1  0  0  0  0
 29 28  1  0  0  0  0
 30 32  1  0  0  0  0
 31 27  1  0  0  0  0
 31 30  1  0  0  0  0
 31 28  1  0  0  0  0
 33 29  1  0  0  0  0
 33 32  1  0  0  0  0
M  END
>  <MODEL>
8

>  <REMARK>
 VINA RESULT:      -7.2      2.801      7.246
  Name = 
  7 active torsions:
  status: ('A' for Active; 'I' for Inactive)
    1  A    between atoms: N_7  and  C_18
    2  A    between atoms: S_13  and  C_24
    3  A    between atoms: S_13  and  C_25
    4  A    between atoms: C_18  and  C_22
    5  A    between atoms: C_20  and  C_26
    6  A    between atoms: C_20  and  N_29
    7  A    between atoms: C_25  and  C_31
                            x       y       z     vdW  Elec       q    Type
                         _______ _______ _______ _____ _____    ______ ____

>  <TORSDO>
F 7

$$$$
=
 OpenBabel11062421113D

 33 37  0  0  1  0  0  0  0  0999 V2000
  188.0460  176.0520  141.2630 C   0  0  0  0  0  0  0  0  0  0  0  0
  187.0930  177.8440  142.1500 N   0  0  0  0  0  0  0  0  0  0  0  0
  188.9270  174.0970  140.1350 O   0  0  0  0  0  1  0  0  0  0  0  0
  188.9820  175.0260  141.1640 C   0  0  0  0  0  0  0  0  0  0  0  0
  189.9870  174.9560  142.1440 C   0  0  0  0  0  3  0  0  0  0  0  0
  186.4100  177.5040  141.0310 C   0  0  0  0  0  3  0  0  0  0  0  0
  188.0920  176.9610  142.2800 C   0  0  0  0  0  0  0  0  0  0  0  0
  189.0810  176.9210  143.2630 C   0  0  0  0  0  3  0  0  0  0  0  0
  190.0570  175.9010  143.1990 C   0  0  0  0  0  0  0  0  0  0  0  0
  186.9810  176.3720  140.4390 C   0  0  0  0  0  3  0  0  0  0  0  0
  191.1400  175.8640  144.2300 C   0  0  0  0  0  0  0  0  0  0  0  0
  191.0520  175.2550  145.4220 C   0  0  0  0  0  3  0  0  0  0  0  0
  192.7220  176.6370  143.8650 S   0  0  0  0  0  0  0  0  0  0  0  0
  195.1370  172.4020  144.5790 C   0  0  2  0  0  3  0  0  0  0  0  0
  196.9100  172.3960  145.9260 C   0  0  0  0  0  3  0  0  0  0  0  0
  193.3880  174.1880  143.1250 O   0  0  0  0  0  0  0  0  0  0  0  0
  195.3730  173.7320  145.2130 C   0  0  0  0  0  0  0  0  0  0  0  0
  194.6140  174.9260  144.9830 N   0  0  0  0  0  2  0  0  0  0  0  0
  196.3960  173.7180  145.9950 N   0  0  0  0  0  0  0  0  0  0  0  0
  193.8180  171.8180  145.0570 C   0  0  0  0  0  1  0  0  0  0  0  0
  193.6200  175.0930  143.9680 C   0  0  0  0  0  0  0  0  0  0  0  0
  196.2330  171.6270  145.1370 N   0  0  0  0  0  0  0  0  0  0  0  0
  189.8640  174.5270  145.9560 C   0  0  0  0  0  2  0  0  0  0  0  0
  188.1900  175.6660  147.1270 C   0  0  0  0  0  2  0  0  0  0  0  0
  189.3790  176.5070  147.1040 C   0  0  0  0  0  2  0  0  0  0  0  0
  189.5190  175.0520  147.2630 N   0  0  0  0  0  0  0  0  0  0  0  0
  186.8010  178.9700  143.0290 C   0  0  0  0  0  2  0  0  0  0  0  0
  184.7040  179.4900  144.2710 C   0  0  0  0  0  2  0  0  0  0  0  0
  183.7140  179.0280  145.3520 C   0  0  0  0  0  2  0  0  0  0  0  0
  186.6810  178.4930  145.4910 C   0  0  0  0  0  2  0  0  0  0  0  0
  185.8940  178.5400  144.1720 C   0  0  0  0  0  3  0  0  0  0  0  0
  185.8150  178.7610  146.7310 C   0  0  0  0  0  2  0  0  0  0  0  0
  184.3830  178.2820  146.5170 C   0  0  0  0  0  2  0  0  0  0  0  0
  1  7  1  0  0  0  0
  2  7  1  0  0  0  0
  2 27  1  0  0  0  0
  3  4  1  0  0  0  0
  4  1  2  0  0  0  0
  4  5  1  0  0  0  0
  5  9  2  0  0  0  0
  6  2  1  0  0  0  0
  7  8  2  0  0  0  0
  9  8  1  0  0  0  0
  9 11  1  0  0  0  0
 10  6  2  0  0  0  0
 10  1  1  0  0  0  0
 11 12  2  0  0  0  0
 12 23  1  0  0  0  0
 13 21  1  0  0  0  0
 13 11  1  0  0  0  0
 14 20  1  1  0  0  0
 14 22  1  0  0  0  0
 14 17  1  0  0  0  0
 15 19  1  0  0  0  0
 16 21  2  0  0  0  0
 17 19  2  0  0  0  0
 18 17  1  0  0  0  0
 21 18  1  0  0  0  0
 22 15  2  0  0  0  0
 23 26  1  0  0  0  0
 24 26  1  0  0  0  0
 25 24  1  0  0  0  0
 25 26  1  0  0  0  0
 27 31  1  0  0  0  0
 28 29  1  0  0  0  0
 29 33  1  0  0  0  0
 30 32  1  0  0  0  0
 31 28  1  0  0  0  0
 31 30  1  0  0  0  0
 33 32  1  0  0  0  0
M  END
>  <MODEL>
9

>  <REMARK>
 VINA RESULT:      -7.1      2.594      6.266
  Name = 
  7 active torsions:
  status: ('A' for Active; 'I' for Inactive)
    1  A    between atoms: N_7  and  C_18
    2  A    between atoms: S_13  and  C_24
    3  A    between atoms: S_13  and  C_25
    4  A    between atoms: C_18  and  C_22
    5  A    between atoms: C_20  and  C_26
    6  A    between atoms: C_20  and  N_29
    7  A    between atoms: C_25  and  C_31
                            x       y       z     vdW  Elec       q    Type
                         _______ _______ _______ _____ _____    ______ ____

>  <TORSDO>
F 7

$$$$
