=
 OpenBabel11062422263D

 36 40  0  0  1  0  0  0  0  0999 V2000
  187.6130  175.7890  147.0960 O   0  0  0  0  0  0  0  0  0  0  0  0
  186.5900  177.0130  144.3050 C   0  0  0  0  0  2  0  0  0  0  0  0
  185.2310  178.9110  144.6450 C   0  0  0  0  0  3  0  0  0  0  0  0
  186.0780  177.0330  145.6590 N   0  0  0  0  0  0  0  0  0  0  0  0
  185.4070  178.5900  147.1220 N   0  0  0  0  0  0  0  0  0  0  0  0
  186.2000  177.6990  147.7690 C   0  0  0  0  0  3  0  0  0  0  0  0
  186.6460  176.7680  146.8440 C   0  0  0  0  0  0  0  0  0  0  0  0
  185.3630  178.1280  145.8560 C   0  0  0  0  0  0  0  0  0  0  0  0
  185.9020  178.2230  143.7070 C   0  0  0  0  0  0  0  0  0  0  0  0
  183.7140  178.7000  141.4110 N   0  0  0  0  0  2  0  0  0  0  0  0
  185.0800  178.2740  141.3590 C   0  0  0  0  0  0  0  0  0  0  0  0
  182.6690  178.2130  140.5650 C   0  0  0  0  0  0  0  0  0  0  0  0
  185.5550  177.5300  140.4180 N   0  0  0  0  0  0  0  0  0  0  0  0
  181.3060  178.8010  140.6760 C   0  0  0  0  0  1  0  0  0  0  0  0
  186.1440  178.7360  142.3080 C   0  0  2  0  0  3  0  0  0  0  0  0
  188.7240  178.1660  142.0510 C   0  0  0  0  0  1  0  0  0  0  0  0
  186.9300  177.3850  140.5990 N   0  0  0  0  0  0  0  0  0  0  0  0
  182.8710  177.2650  139.7610 O   0  0  0  0  0  0  0  0  0  0  0  0
  187.2960  178.0400  141.6500 C   0  0  0  0  0  0  0  0  0  0  0  0
  190.1880  177.5500  145.3860 C   0  0  0  0  0  3  0  0  0  0  0  0
  188.9360  175.8200  146.6420 C   0  0  0  0  0  0  0  0  0  0  0  0
  190.7650  174.5420  145.4980 C   0  0  0  0  0  3  0  0  0  0  0  0
  189.7620  177.0660  146.7310 C   0  0  0  0  0  2  0  0  0  0  0  0
  189.4390  174.6970  146.1290 C   0  0  0  0  0  3  0  0  0  0  0  0
  191.4800  175.4780  144.8450 C   0  0  0  0  0  0  0  0  0  0  0  0
  190.9850  176.8420  144.5850 C   0  0  0  0  0  3  0  0  0  0  0  0
  192.7090  175.1110  144.2110 N   0  0  0  0  0  2  0  0  0  0  0  0
  192.7870  174.2440  143.0420 C   0  0  0  0  0  2  0  0  0  0  0  0
  191.8980  174.7790  141.9370 C   0  0  0  0  0  2  0  0  0  0  0  0
  191.2430  173.6430  141.1540 C   0  0  0  0  0  2  0  0  0  0  0  0
  189.8670  173.2800  141.7080 C   0  0  0  0  0  0  0  0  0  0  0  0
  188.6630  173.7600  140.9280 C   0  0  0  0  0  2  0  0  0  0  0  0
  189.0880  174.4830  142.2040 C   0  0  0  0  0  2  0  0  0  0  0  0
  189.6800  172.0320  142.5210 C   0  0  0  0  0  0  0  0  0  0  0  0
  190.2180  170.8210  142.0930 O   0  0  0  0  0  0  0  0  0  0  0  0
  189.0490  172.0800  143.6100 O   0  0  0  0  0  1  0  0  0  0  0  0
  2  4  1  0  0  0  0
  3  8  1  0  0  0  0
  4  8  1  0  0  0  0
  4  7  1  0  0  0  0
  5  6  1  0  0  0  0
  7  1  1  0  0  0  0
  7  6  2  0  0  0  0
  8  5  2  0  0  0  0
  9  2  1  0  0  0  0
  9  3  2  0  0  0  0
 11 10  1  0  0  0  0
 11 15  1  0  0  0  0
 12 14  1  0  0  0  0
 12 10  1  0  0  0  0
 13 17  1  0  0  0  0
 13 11  2  0  0  0  0
 15  9  1  1  0  0  0
 17 19  2  0  0  0  0
 18 12  2  0  0  0  0
 19 16  1  0  0  0  0
 19 15  1  0  0  0  0
 20 23  1  0  0  0  0
 21 23  1  0  0  0  0
 21  1  1  0  0  0  0
 22 24  1  0  0  0  0
 24 21  2  0  0  0  0
 25 22  2  0  0  0  0
 26 25  1  0  0  0  0
 26 20  2  0  0  0  0
 27 25  1  0  0  0  0
 28 27  1  0  0  0  0
 29 28  1  0  0  0  0
 30 31  1  0  0  0  0
 30 29  1  0  0  0  0
 31 33  1  0  0  0  0
 31 34  1  0  0  0  0
 32 31  1  0  0  0  0
 32 33  1  0  0  0  0
 34 36  1  0  0  0  0
 35 34  2  0  0  0  0
M  END
>  <MODEL>
1

>  <REMARK>
 VINA RESULT:      -7.8      0.000      0.000
  Name = 
  9 active torsions:
  status: ('A' for Active; 'I' for Inactive)
    1  A    between atoms: C_2  and  C_5
    2  A    between atoms: C_2  and  C_9
    3  A    between atoms: C_5  and  C_24
    4  A    between atoms: O_7  and  C_13
    5  A    between atoms: O_7  and  C_26
    6  A    between atoms: C_9  and  C_10
    7  A    between atoms: N_12  and  C_24
    8  A    between atoms: N_12  and  C_25
    9  A    between atoms: C_29  and  C_30
                            x       y       z     vdW  Elec       q    Type
                         _______ _______ _______ _____ _____    ______ ____

>  <TORSDO>
F 9

$$$$
=
 OpenBabel11062422263D

 36 40  0  0  1  0  0  0  0  0999 V2000
  192.2510  177.2560  144.1490 O   0  0  0  0  0  0  0  0  0  0  0  0
  191.0440  175.0060  142.1950 C   0  0  0  0  0  2  0  0  0  0  0  0
  192.6430  173.3420  141.7070 C   0  0  0  0  0  3  0  0  0  0  0  0
  192.3810  175.4960  142.4590 N   0  0  0  0  0  0  0  0  0  0  0  0
  194.3570  174.6070  143.0250 N   0  0  0  0  0  0  0  0  0  0  0  0
  194.1410  175.7080  143.7890 C   0  0  0  0  0  3  0  0  0  0  0  0
  192.8960  176.2210  143.4620 C   0  0  0  0  0  0  0  0  0  0  0  0
  193.2650  174.5390  142.2360 C   0  0  0  0  0  0  0  0  0  0  0  0
  191.3350  173.6350  141.6210 C   0  0  0  0  0  0  0  0  0  0  0  0
  189.8560  173.3500  138.7900 N   0  0  0  0  0  2  0  0  0  0  0  0
  189.4060  173.1340  140.1320 C   0  0  0  0  0  0  0  0  0  0  0  0
  189.0630  173.9050  137.7370 C   0  0  0  0  0  0  0  0  0  0  0  0
  188.1730  173.2510  140.4930 N   0  0  0  0  0  0  0  0  0  0  0  0
  189.6360  174.0020  136.3660 C   0  0  0  0  0  1  0  0  0  0  0  0
  190.2770  172.6280  141.2420 C   0  0  2  0  0  3  0  0  0  0  0  0
  189.3880  171.9670  143.6540 C   0  0  0  0  0  1  0  0  0  0  0  0
  188.0500  172.8710  141.8290 N   0  0  0  0  0  0  0  0  0  0  0  0
  187.9080  174.3530  137.9600 O   0  0  0  0  0  0  0  0  0  0  0  0
  189.2070  172.5230  142.2850 C   0  0  0  0  0  0  0  0  0  0  0  0
  190.5150  175.1440  146.4250 C   0  0  0  0  0  3  0  0  0  0  0  0
  191.2020  177.0940  145.0600 C   0  0  0  0  0  0  0  0  0  0  0  0
  188.7660  177.4880  145.5070 C   0  0  0  0  0  3  0  0  0  0  0  0
  191.3920  176.3480  146.3450 C   0  0  0  0  0  2  0  0  0  0  0  0
  190.0230  177.6320  144.7460 C   0  0  0  0  0  3  0  0  0  0  0  0
  188.3890  176.4560  146.2850 C   0  0  0  0  0  0  0  0  0  0  0  0
  189.1840  175.2230  146.4380 C   0  0  0  0  0  3  0  0  0  0  0  0
  187.0830  176.4520  146.8670 N   0  0  0  0  0  2  0  0  0  0  0  0
  186.5460  177.5530  147.6560 C   0  0  0  0  0  2  0  0  0  0  0  0
  185.3110  178.1210  146.9850 C   0  0  0  0  0  2  0  0  0  0  0  0
  184.8980  177.2790  145.7800 C   0  0  0  0  0  2  0  0  0  0  0  0
  185.1310  178.0100  144.4590 C   0  0  0  0  0  0  0  0  0  0  0  0
  185.6770  179.4180  144.5400 C   0  0  0  0  0  2  0  0  0  0  0  0
  184.1960  179.1850  144.2540 C   0  0  0  0  0  2  0  0  0  0  0  0
  185.4560  177.2400  143.2120 C   0  0  0  0  0  0  0  0  0  0  0  0
  186.2510  176.0980  143.2710 O   0  0  0  0  0  1  0  0  0  0  0  0
  184.9910  177.6150  142.1030 O   0  0  0  0  0  0  0  0  0  0  0  0
  1 21  1  0  0  0  0
  2  4  1  0  0  0  0
  3  8  1  0  0  0  0
  4  7  1  0  0  0  0
  5  6  1  0  0  0  0
  7  6  2  0  0  0  0
  7  1  1  0  0  0  0
  8  4  1  0  0  0  0
  8  5  2  0  0  0  0
  9  3  2  0  0  0  0
  9  2  1  0  0  0  0
 10 11  1  0  0  0  0
 11 13  2  0  0  0  0
 11 15  1  0  0  0  0
 12 18  2  0  0  0  0
 12 10  1  0  0  0  0
 13 17  1  0  0  0  0
 14 12  1  0  0  0  0
 15  9  1  1  0  0  0
 15 19  1  0  0  0  0
 17 19  2  0  0  0  0
 19 16  1  0  0  0  0
 20 26  2  0  0  0  0
 21 23  1  0  0  0  0
 22 25  2  0  0  0  0
 23 20  1  0  0  0  0
 24 21  2  0  0  0  0
 24 22  1  0  0  0  0
 25 26  1  0  0  0  0
 25 27  1  0  0  0  0
 27 28  1  0  0  0  0
 29 28  1  0  0  0  0
 30 29  1  0  0  0  0
 31 32  1  0  0  0  0
 31 30  1  0  0  0  0
 33 31  1  0  0  0  0
 33 32  1  0  0  0  0
 34 35  1  0  0  0  0
 34 31  1  0  0  0  0
 36 34  2  0  0  0  0
M  END
>  <MODEL>
2

>  <REMARK>
 VINA RESULT:      -7.5      2.757      6.953
  Name = 
  9 active torsions:
  status: ('A' for Active; 'I' for Inactive)
    1  A    between atoms: C_2  and  C_5
    2  A    between atoms: C_2  and  C_9
    3  A    between atoms: C_5  and  C_24
    4  A    between atoms: O_7  and  C_13
    5  A    between atoms: O_7  and  C_26
    6  A    between atoms: C_9  and  C_10
    7  A    between atoms: N_12  and  C_24
    8  A    between atoms: N_12  and  C_25
    9  A    between atoms: C_29  and  C_30
                            x       y       z     vdW  Elec       q    Type
                         _______ _______ _______ _____ _____    ______ ____

>  <TORSDO>
F 9

$$$$
=
 OpenBabel11062422263D

 36 40  0  0  1  0  0  0  0  0999 V2000
  187.6720  175.8210  147.1130 O   0  0  0  0  0  0  0  0  0  0  0  0
  186.6480  177.0190  144.3100 C   0  0  0  0  0  2  0  0  0  0  0  0
  185.2260  178.8730  144.6350 C   0  0  0  0  0  3  0  0  0  0  0  0
  186.1180  177.0190  145.6570 N   0  0  0  0  0  0  0  0  0  0  0  0
  185.3790  178.5520  147.1150 N   0  0  0  0  0  0  0  0  0  0  0  0
  186.1910  177.6840  147.7700 C   0  0  0  0  0  3  0  0  0  0  0  0
  186.6780  176.7700  146.8490 C   0  0  0  0  0  0  0  0  0  0  0  0
  185.3670  178.0910  145.8470 C   0  0  0  0  0  0  0  0  0  0  0  0
  185.9310  178.2080  143.7050 C   0  0  0  0  0  0  0  0  0  0  0  0
  183.7520  178.6680  141.3970 N   0  0  0  0  0  2  0  0  0  0  0  0
  185.1240  178.2610  141.3520 C   0  0  0  0  0  0  0  0  0  0  0  0
  182.7190  178.1720  140.5420 C   0  0  0  0  0  0  0  0  0  0  0  0
  185.6150  177.5270  140.4110 N   0  0  0  0  0  0  0  0  0  0  0  0
  181.3490  178.7420  140.6470 C   0  0  0  0  0  1  0  0  0  0  0  0
  186.1750  178.7310  142.3110 C   0  0  2  0  0  3  0  0  0  0  0  0
  188.7650  178.1970  142.0680 C   0  0  0  0  0  1  0  0  0  0  0  0
  186.9910  177.4000  140.6000 N   0  0  0  0  0  0  0  0  0  0  0  0
  182.9400  177.2310  139.7350 O   0  0  0  0  0  0  0  0  0  0  0  0
  187.3410  178.0540  141.6570 C   0  0  0  0  0  0  0  0  0  0  0  0
  190.4150  177.2330  145.3420 C   0  0  0  0  0  3  0  0  0  0  0  0
  189.0500  176.0480  147.0360 C   0  0  0  0  0  0  0  0  0  0  0  0
  191.3330  175.0370  147.2730 C   0  0  0  0  0  3  0  0  0  0  0  0
  189.6000  177.3660  146.5840 C   0  0  0  0  0  2  0  0  0  0  0  0
  189.8610  175.0470  147.3830 C   0  0  0  0  0  3  0  0  0  0  0  0
  192.0970  175.7040  146.3870 C   0  0  0  0  0  0  0  0  0  0  0  0
  191.5420  176.5220  145.2920 C   0  0  0  0  0  3  0  0  0  0  0  0
  193.5100  175.4900  146.3730 N   0  0  0  0  0  2  0  0  0  0  0  0
  194.4730  176.4800  145.9080 C   0  0  0  0  0  2  0  0  0  0  0  0
  195.5350  175.8150  145.0550 C   0  0  0  0  0  2  0  0  0  0  0  0
  195.0530  174.4680  144.5210 C   0  0  0  0  0  2  0  0  0  0  0  0
  195.7090  173.2940  145.2430 C   0  0  0  0  0  0  0  0  0  0  0  0
  196.8450  173.6160  146.1900 C   0  0  0  0  0  2  0  0  0  0  0  0
  197.1390  173.0460  144.8050 C   0  0  0  0  0  2  0  0  0  0  0  0
  194.9210  172.0520  145.5470 C   0  0  0  0  0  0  0  0  0  0  0  0
  193.5390  172.0330  145.3850 O   0  0  0  0  0  0  0  0  0  0  0  0
  195.5150  171.0090  145.9310 O   0  0  0  0  0  1  0  0  0  0  0  0
  2  4  1  0  0  0  0
  3  8  1  0  0  0  0
  4  8  1  0  0  0  0
  4  7  1  0  0  0  0
  5  6  1  0  0  0  0
  7  1  1  0  0  0  0
  7  6  2  0  0  0  0
  8  5  2  0  0  0  0
  9  2  1  0  0  0  0
  9  3  2  0  0  0  0
 11 10  1  0  0  0  0
 11 15  1  0  0  0  0
 12 14  1  0  0  0  0
 12 10  1  0  0  0  0
 13 17  1  0  0  0  0
 13 11  2  0  0  0  0
 15  9  1  1  0  0  0
 17 19  2  0  0  0  0
 18 12  2  0  0  0  0
 19 16  1  0  0  0  0
 19 15  1  0  0  0  0
 20 23  1  0  0  0  0
 21  1  1  0  0  0  0
 21 24  2  0  0  0  0
 22 24  1  0  0  0  0
 23 21  1  0  0  0  0
 25 22  2  0  0  0  0
 26 20  2  0  0  0  0
 26 25  1  0  0  0  0
 27 25  1  0  0  0  0
 28 27  1  0  0  0  0
 29 28  1  0  0  0  0
 30 29  1  0  0  0  0
 30 31  1  0  0  0  0
 31 34  1  0  0  0  0
 31 32  1  0  0  0  0
 33 31  1  0  0  0  0
 33 32  1  0  0  0  0
 34 36  1  0  0  0  0
 35 34  2  0  0  0  0
M  END
>  <MODEL>
3

>  <REMARK>
 VINA RESULT:      -7.5      2.352      3.355
  Name = 
  9 active torsions:
  status: ('A' for Active; 'I' for Inactive)
    1  A    between atoms: C_2  and  C_5
    2  A    between atoms: C_2  and  C_9
    3  A    between atoms: C_5  and  C_24
    4  A    between atoms: O_7  and  C_13
    5  A    between atoms: O_7  and  C_26
    6  A    between atoms: C_9  and  C_10
    7  A    between atoms: N_12  and  C_24
    8  A    between atoms: N_12  and  C_25
    9  A    between atoms: C_29  and  C_30
                            x       y       z     vdW  Elec       q    Type
                         _______ _______ _______ _____ _____    ______ ____

>  <TORSDO>
F 9

$$$$
=
 OpenBabel11062422263D

 36 40  0  0  1  0  0  0  0  0999 V2000
  187.8360  175.7340  146.9700 O   0  0  0  0  0  0  0  0  0  0  0  0
  186.7330  176.9370  144.2000 C   0  0  0  0  0  2  0  0  0  0  0  0
  185.1040  178.6020  144.5730 C   0  0  0  0  0  3  0  0  0  0  0  0
  186.1820  176.8150  145.5340 N   0  0  0  0  0  0  0  0  0  0  0  0
  185.2470  178.1860  147.0390 N   0  0  0  0  0  0  0  0  0  0  0  0
  186.1410  177.3860  147.6740 C   0  0  0  0  0  3  0  0  0  0  0  0
  186.7450  176.5760  146.7260 C   0  0  0  0  0  0  0  0  0  0  0  0
  185.3110  177.7860  145.7530 C   0  0  0  0  0  0  0  0  0  0  0  0
  185.8970  178.0650  143.6320 C   0  0  0  0  0  0  0  0  0  0  0  0
  183.6700  178.6020  141.3870 N   0  0  0  0  0  2  0  0  0  0  0  0
  185.0520  178.2340  141.2980 C   0  0  0  0  0  0  0  0  0  0  0  0
  182.6370  178.1290  140.5180 C   0  0  0  0  0  0  0  0  0  0  0  0
  185.5460  177.5720  140.3070 N   0  0  0  0  0  0  0  0  0  0  0  0
  181.2540  178.6550  140.6760 C   0  0  0  0  0  1  0  0  0  0  0  0
  186.1050  178.6760  142.2680 C   0  0  2  0  0  3  0  0  0  0  0  0
  188.7030  178.2260  141.9570 C   0  0  0  0  0  1  0  0  0  0  0  0
  186.9280  177.4710  140.4690 N   0  0  0  0  0  0  0  0  0  0  0  0
  182.8690  177.2440  139.6530 O   0  0  0  0  0  0  0  0  0  0  0  0
  187.2780  178.0700  141.5580 C   0  0  0  0  0  0  0  0  0  0  0  0
  190.4840  177.2840  145.1710 C   0  0  0  0  0  3  0  0  0  0  0  0
  189.1810  176.1150  146.9240 C   0  0  0  0  0  0  0  0  0  0  0  0
  191.5500  175.4120  147.3520 C   0  0  0  0  0  3  0  0  0  0  0  0
  189.5970  177.4390  146.3610 C   0  0  0  0  0  2  0  0  0  0  0  0
  190.0820  175.2580  147.4040 C   0  0  0  0  0  3  0  0  0  0  0  0
  192.2750  176.0760  146.4320 C   0  0  0  0  0  0  0  0  0  0  0  0
  191.6860  176.7110  145.2380 C   0  0  0  0  0  3  0  0  0  0  0  0
  193.7030  176.0320  146.4940 N   0  0  0  0  0  2  0  0  0  0  0  0
  194.5700  177.0200  145.8650 C   0  0  0  0  0  2  0  0  0  0  0  0
  195.3170  176.3930  144.7040 C   0  0  0  0  0  2  0  0  0  0  0  0
  195.1230  174.8780  144.6730 C   0  0  0  0  0  2  0  0  0  0  0  0
  194.3260  174.4240  143.4520 C   0  0  0  0  0  0  0  0  0  0  0  0
  195.0050  174.5410  142.1050 C   0  0  0  0  0  2  0  0  0  0  0  0
  193.9530  175.5640  142.5250 C   0  0  0  0  0  2  0  0  0  0  0  0
  193.2830  173.3520  143.5820 C   0  0  0  0  0  0  0  0  0  0  0  0
  192.7350  173.0430  144.8240 O   0  0  0  0  0  1  0  0  0  0  0  0
  192.8810  172.7390  142.5570 O   0  0  0  0  0  0  0  0  0  0  0  0
  2  4  1  0  0  0  0
  3  8  1  0  0  0  0
  4  8  1  0  0  0  0
  4  7  1  0  0  0  0
  5  6  1  0  0  0  0
  7  1  1  0  0  0  0
  7  6  2  0  0  0  0
  8  5  2  0  0  0  0
  9  2  1  0  0  0  0
  9  3  2  0  0  0  0
 11 10  1  0  0  0  0
 11 15  1  0  0  0  0
 12 14  1  0  0  0  0
 12 10  1  0  0  0  0
 13 17  1  0  0  0  0
 13 11  2  0  0  0  0
 15  9  1  1  0  0  0
 17 19  2  0  0  0  0
 18 12  2  0  0  0  0
 19 16  1  0  0  0  0
 19 15  1  0  0  0  0
 20 26  2  0  0  0  0
 20 23  1  0  0  0  0
 21  1  1  0  0  0  0
 21 24  2  0  0  0  0
 22 24  1  0  0  0  0
 23 21  1  0  0  0  0
 25 27  1  0  0  0  0
 25 22  2  0  0  0  0
 26 25  1  0  0  0  0
 28 27  1  0  0  0  0
 29 28  1  0  0  0  0
 30 29  1  0  0  0  0
 31 34  1  0  0  0  0
 31 30  1  0  0  0  0
 32 33  1  0  0  0  0
 32 31  1  0  0  0  0
 33 31  1  0  0  0  0
 34 35  1  0  0  0  0
 36 34  2  0  0  0  0
M  END
>  <MODEL>
4

>  <REMARK>
 VINA RESULT:      -7.5      1.886      2.540
  Name = 
  9 active torsions:
  status: ('A' for Active; 'I' for Inactive)
    1  A    between atoms: C_2  and  C_5
    2  A    between atoms: C_2  and  C_9
    3  A    between atoms: C_5  and  C_24
    4  A    between atoms: O_7  and  C_13
    5  A    between atoms: O_7  and  C_26
    6  A    between atoms: C_9  and  C_10
    7  A    between atoms: N_12  and  C_24
    8  A    between atoms: N_12  and  C_25
    9  A    between atoms: C_29  and  C_30
                            x       y       z     vdW  Elec       q    Type
                         _______ _______ _______ _____ _____    ______ ____

>  <TORSDO>
F 9

$$$$
=
 OpenBabel11062422263D

 36 40  0  0  1  0  0  0  0  0999 V2000
  188.8460  174.9710  140.9080 O   0  0  0  0  0  0  0  0  0  0  0  0
  191.1280  175.8180  143.0100 C   0  0  0  0  0  2  0  0  0  0  0  0
  192.5900  174.0230  143.4610 C   0  0  0  0  0  3  0  0  0  0  0  0
  190.5090  174.5590  142.6500 N   0  0  0  0  0  0  0  0  0  0  0  0
  191.2060  172.5310  142.0000 N   0  0  0  0  0  0  0  0  0  0  0  0
  190.1680  172.9080  141.2120 C   0  0  0  0  0  3  0  0  0  0  0  0
  189.7770  174.1810  141.5930 C   0  0  0  0  0  0  0  0  0  0  0  0
  191.3570  173.5650  142.8540 C   0  0  0  0  0  0  0  0  0  0  0  0
  192.4350  175.3480  143.6140 C   0  0  0  0  0  0  0  0  0  0  0  0
  195.2460  175.9230  142.1800 N   0  0  0  0  0  2  0  0  0  0  0  0
  194.8700  175.8550  143.5600 C   0  0  0  0  0  0  0  0  0  0  0  0
  196.4880  175.4610  141.6420 C   0  0  0  0  0  0  0  0  0  0  0  0
  195.6900  175.5290  144.5020 N   0  0  0  0  0  0  0  0  0  0  0  0
  196.7780  175.6650  140.1970 C   0  0  0  0  0  1  0  0  0  0  0  0
  193.5320  176.2680  144.0910 C   0  0  2  0  0  3  0  0  0  0  0  0
  192.9260  176.4020  146.6730 C   0  0  0  0  0  1  0  0  0  0  0  0
  195.0490  175.6620  145.7330 N   0  0  0  0  0  0  0  0  0  0  0  0
  197.3180  174.8450  142.3610 O   0  0  0  0  0  0  0  0  0  0  0  0
  193.8370  176.0660  145.5440 C   0  0  0  0  0  0  0  0  0  0  0  0
  188.0190  178.2100  142.1250 C   0  0  0  0  0  3  0  0  0  0  0  0
  187.9030  175.8140  141.5050 C   0  0  0  0  0  0  0  0  0  0  0  0
  186.2020  176.0560  143.3320 C   0  0  0  0  0  3  0  0  0  0  0  0
  187.7180  177.2270  141.0440 C   0  0  0  0  0  2  0  0  0  0  0  0
  187.1690  175.3130  142.4990 C   0  0  0  0  0  3  0  0  0  0  0  0
  186.2240  177.3650  143.6490 C   0  0  0  0  0  0  0  0  0  0  0  0
  187.3150  178.2770  143.2550 C   0  0  0  0  0  3  0  0  0  0  0  0
  185.2490  177.8870  144.5550 N   0  0  0  0  0  2  0  0  0  0  0  0
  185.1550  177.4940  145.9550 C   0  0  0  0  0  2  0  0  0  0  0  0
  186.4790  177.7310  146.6530 C   0  0  0  0  0  2  0  0  0  0  0  0
  187.0900  176.4200  147.1440 C   0  0  0  0  0  2  0  0  0  0  0  0
  188.5510  176.2720  146.7250 C   0  0  0  0  0  0  0  0  0  0  0  0
  188.8830  175.1440  145.7730 C   0  0  0  0  0  2  0  0  0  0  0  0
  189.2000  175.0100  147.2600 C   0  0  0  0  0  2  0  0  0  0  0  0
  189.4530  177.4710  146.6790 C   0  0  0  0  0  0  0  0  0  0  0  0
  189.9790  177.9150  145.4690 O   0  0  0  0  0  0  0  0  0  0  0  0
  189.7230  178.0970  147.7390 O   0  0  0  0  0  1  0  0  0  0  0  0
  1 21  1  0  0  0  0
  1  7  1  0  0  0  0
  2  9  1  0  0  0  0
  3  9  2  0  0  0  0
  4  8  1  0  0  0  0
  4  2  1  0  0  0  0
  5  8  2  0  0  0  0
  6  7  2  0  0  0  0
  6  5  1  0  0  0  0
  7  4  1  0  0  0  0
  8  3  1  0  0  0  0
 10 11  1  0  0  0  0
 11 15  1  0  0  0  0
 11 13  2  0  0  0  0
 12 10  1  0  0  0  0
 12 18  2  0  0  0  0
 13 17  1  0  0  0  0
 14 12  1  0  0  0  0
 15  9  1  6  0  0  0
 15 19  1  0  0  0  0
 19 17  2  0  0  0  0
 19 16  1  0  0  0  0
 20 26  2  0  0  0  0
 21 24  2  0  0  0  0
 22 25  2  0  0  0  0
 23 21  1  0  0  0  0
 23 20  1  0  0  0  0
 24 22  1  0  0  0  0
 25 27  1  0  0  0  0
 26 25  1  0  0  0  0
 27 28  1  0  0  0  0
 28 29  1  0  0  0  0
 29 30  1  0  0  0  0
 31 30  1  0  0  0  0
 31 33  1  0  0  0  0
 32 31  1  0  0  0  0
 32 33  1  0  0  0  0
 34 31  1  0  0  0  0
 34 36  1  0  0  0  0
 35 34  2  0  0  0  0
M  END
>  <MODEL>
5

>  <REMARK>
 VINA RESULT:      -7.4      2.664      8.350
  Name = 
  9 active torsions:
  status: ('A' for Active; 'I' for Inactive)
    1  A    between atoms: C_2  and  C_5
    2  A    between atoms: C_2  and  C_9
    3  A    between atoms: C_5  and  C_24
    4  A    between atoms: O_7  and  C_13
    5  A    between atoms: O_7  and  C_26
    6  A    between atoms: C_9  and  C_10
    7  A    between atoms: N_12  and  C_24
    8  A    between atoms: N_12  and  C_25
    9  A    between atoms: C_29  and  C_30
                            x       y       z     vdW  Elec       q    Type
                         _______ _______ _______ _____ _____    ______ ____

>  <TORSDO>
F 9

$$$$
=
 OpenBabel11062422263D

 36 40  0  0  1  0  0  0  0  0999 V2000
  188.0270  175.7600  146.7390 O   0  0  0  0  0  0  0  0  0  0  0  0
  186.5920  176.9540  144.1210 C   0  0  0  0  0  2  0  0  0  0  0  0
  184.8900  178.4830  144.6950 C   0  0  0  0  0  3  0  0  0  0  0  0
  186.1760  176.7550  145.4940 N   0  0  0  0  0  0  0  0  0  0  0  0
  185.2880  178.0120  147.1220 N   0  0  0  0  0  0  0  0  0  0  0  0
  186.2910  177.2630  147.6480 C   0  0  0  0  0  3  0  0  0  0  0  0
  186.8610  176.5260  146.6220 C   0  0  0  0  0  0  0  0  0  0  0  0
  185.2620  177.6530  145.8230 C   0  0  0  0  0  0  0  0  0  0  0  0
  185.6300  178.0320  143.6680 C   0  0  0  0  0  0  0  0  0  0  0  0
  183.1360  178.7030  141.7660 N   0  0  0  0  0  2  0  0  0  0  0  0
  184.4840  178.3130  141.4780 C   0  0  0  0  0  0  0  0  0  0  0  0
  181.9850  178.2870  141.0280 C   0  0  0  0  0  0  0  0  0  0  0  0
  184.8240  177.6810  140.4050 N   0  0  0  0  0  0  0  0  0  0  0  0
  180.6480  178.8320  141.3910 C   0  0  0  0  0  1  0  0  0  0  0  0
  185.6680  178.6940  142.3130 C   0  0  2  0  0  3  0  0  0  0  0  0
  188.1890  178.2070  141.6370 C   0  0  0  0  0  1  0  0  0  0  0  0
  186.2120  177.5470  140.3750 N   0  0  0  0  0  0  0  0  0  0  0  0
  182.0760  177.4330  140.1060 O   0  0  0  0  0  0  0  0  0  0  0  0
  186.7200  178.0940  141.4290 C   0  0  0  0  0  0  0  0  0  0  0  0
  190.1510  177.9040  144.8560 C   0  0  0  0  0  3  0  0  0  0  0  0
  189.1770  175.9100  145.9580 C   0  0  0  0  0  0  0  0  0  0  0  0
  190.5470  174.9640  144.0820 C   0  0  0  0  0  3  0  0  0  0  0  0
  190.0740  177.1000  146.1110 C   0  0  0  0  0  2  0  0  0  0  0  0
  189.4520  174.9510  145.0730 C   0  0  0  0  0  3  0  0  0  0  0  0
  191.1170  176.0360  143.5010 C   0  0  0  0  0  0  0  0  0  0  0  0
  190.6560  177.4200  143.7210 C   0  0  0  0  0  3  0  0  0  0  0  0
  192.1030  175.8450  142.4830 N   0  0  0  0  0  2  0  0  0  0  0  0
  193.4440  176.4130  142.5410 C   0  0  0  0  0  2  0  0  0  0  0  0
  194.4550  175.3320  142.8670 C   0  0  0  0  0  2  0  0  0  0  0  0
  195.4900  175.8260  143.8760 C   0  0  0  0  0  2  0  0  0  0  0  0
  195.0080  175.6750  145.3170 C   0  0  0  0  0  0  0  0  0  0  0  0
  195.6130  174.5520  146.1310 C   0  0  0  0  0  2  0  0  0  0  0  0
  194.2090  174.4070  145.5490 C   0  0  0  0  0  2  0  0  0  0  0  0
  194.5270  176.8710  146.0870 C   0  0  0  0  0  0  0  0  0  0  0  0
  193.6510  176.7180  147.1590 O   0  0  0  0  0  1  0  0  0  0  0  0
  194.9320  178.0220  145.7780 O   0  0  0  0  0  0  0  0  0  0  0  0
  2  4  1  0  0  0  0
  3  8  1  0  0  0  0
  4  8  1  0  0  0  0
  4  7  1  0  0  0  0
  5  6  1  0  0  0  0
  7  1  1  0  0  0  0
  7  6  2  0  0  0  0
  8  5  2  0  0  0  0
  9  2  1  0  0  0  0
  9  3  2  0  0  0  0
 11 10  1  0  0  0  0
 11 15  1  0  0  0  0
 12 14  1  0  0  0  0
 12 10  1  0  0  0  0
 13 11  2  0  0  0  0
 15  9  1  1  0  0  0
 17 13  1  0  0  0  0
 17 19  2  0  0  0  0
 18 12  2  0  0  0  0
 19 16  1  0  0  0  0
 19 15  1  0  0  0  0
 20 23  1  0  0  0  0
 21 23  1  0  0  0  0
 21  1  1  0  0  0  0
 22 24  1  0  0  0  0
 24 21  2  0  0  0  0
 25 26  1  0  0  0  0
 25 22  2  0  0  0  0
 26 20  2  0  0  0  0
 27 28  1  0  0  0  0
 27 25  1  0  0  0  0
 28 29  1  0  0  0  0
 29 30  1  0  0  0  0
 30 31  1  0  0  0  0
 31 33  1  0  0  0  0
 31 34  1  0  0  0  0
 31 32  1  0  0  0  0
 33 32  1  0  0  0  0
 34 35  1  0  0  0  0
 36 34  2  0  0  0  0
M  END
>  <MODEL>
6

>  <REMARK>
 VINA RESULT:      -7.2      2.277      3.447
  Name = 
  9 active torsions:
  status: ('A' for Active; 'I' for Inactive)
    1  A    between atoms: C_2  and  C_5
    2  A    between atoms: C_2  and  C_9
    3  A    between atoms: C_5  and  C_24
    4  A    between atoms: O_7  and  C_13
    5  A    between atoms: O_7  and  C_26
    6  A    between atoms: C_9  and  C_10
    7  A    between atoms: N_12  and  C_24
    8  A    between atoms: N_12  and  C_25
    9  A    between atoms: C_29  and  C_30
                            x       y       z     vdW  Elec       q    Type
                         _______ _______ _______ _____ _____    ______ ____

>  <TORSDO>
F 9

$$$$
=
 OpenBabel11062422263D

 36 40  0  0  1  0  0  0  0  0999 V2000
  190.7300  175.8240  144.8620 O   0  0  0  0  0  0  0  0  0  0  0  0
  188.5280  177.6530  143.3960 C   0  0  0  0  0  2  0  0  0  0  0  0
  187.0780  176.3540  142.0650 C   0  0  0  0  0  3  0  0  0  0  0  0
  189.1300  176.3700  143.0980 N   0  0  0  0  0  0  0  0  0  0  0  0
  188.4050  174.3040  142.6260 N   0  0  0  0  0  0  0  0  0  0  0  0
  189.4140  174.2150  143.5280 C   0  0  0  0  0  3  0  0  0  0  0  0
  189.8230  175.5010  143.8460 C   0  0  0  0  0  0  0  0  0  0  0  0
  188.2880  175.6280  142.3990 C   0  0  0  0  0  0  0  0  0  0  0  0
  187.2430  177.5740  142.5990 C   0  0  0  0  0  0  0  0  0  0  0  0
  185.9100  178.9520  145.1700 N   0  0  0  0  0  2  0  0  0  0  0  0
  185.3790  178.6030  143.8870 C   0  0  0  0  0  0  0  0  0  0  0  0
  185.1980  178.8560  146.4070 C   0  0  0  0  0  0  0  0  0  0  0  0
  184.1330  178.3310  143.6860 N   0  0  0  0  0  0  0  0  0  0  0  0
  185.8480  179.3280  147.6610 C   0  0  0  0  0  1  0  0  0  0  0  0
  186.1660  178.6320  142.6130 C   0  0  2  0  0  3  0  0  0  0  0  0
  185.1210  178.2520  140.2020 C   0  0  0  0  0  1  0  0  0  0  0  0
  183.9220  178.1380  142.3210 N   0  0  0  0  0  0  0  0  0  0  0  0
  184.0520  178.3390  146.4600 O   0  0  0  0  0  0  0  0  0  0  0  0
  185.0370  178.2920  141.6880 C   0  0  0  0  0  0  0  0  0  0  0  0
  193.9070  176.2410  146.4060 C   0  0  0  0  0  3  0  0  0  0  0  0
  192.1200  175.6960  144.7790 C   0  0  0  0  0  0  0  0  0  0  0  0
  194.1530  176.0570  143.3550 C   0  0  0  0  0  3  0  0  0  0  0  0
  192.9300  175.2130  145.9420 C   0  0  0  0  0  2  0  0  0  0  0  0
  192.7010  176.0160  143.6220 C   0  0  0  0  0  3  0  0  0  0  0  0
  195.1430  176.3120  144.2320 C   0  0  0  0  0  0  0  0  0  0  0  0
  194.9060  176.6820  145.6390 C   0  0  0  0  0  3  0  0  0  0  0  0
  196.4910  176.4070  143.7640 N   0  0  0  0  0  2  0  0  0  0  0  0
  197.1230  175.4060  142.9140 C   0  0  0  0  0  2  0  0  0  0  0  0
  197.5990  174.2360  143.7530 C   0  0  0  0  0  2  0  0  0  0  0  0
  196.9090  172.9380  143.3360 C   0  0  0  0  0  2  0  0  0  0  0  0
  196.3380  172.1790  144.5310 C   0  0  0  0  0  0  0  0  0  0  0  0
  194.9490  172.5650  144.9900 C   0  0  0  0  0  2  0  0  0  0  0  0
  196.1730  173.0460  145.7640 C   0  0  0  0  0  2  0  0  0  0  0  0
  196.7620  170.7660  144.8080 C   0  0  0  0  0  0  0  0  0  0  0  0
  197.2040  170.3950  146.0750 O   0  0  0  0  0  1  0  0  0  0  0  0
  196.7000  169.9010  143.8940 O   0  0  0  0  0  0  0  0  0  0  0  0
  3  8  1  0  0  0  0
  3  9  2  0  0  0  0
  4  2  1  0  0  0  0
  4  7  1  0  0  0  0
  5  6  1  0  0  0  0
  6  7  2  0  0  0  0
  7  1  1  0  0  0  0
  8  5  2  0  0  0  0
  8  4  1  0  0  0  0
  9  2  1  0  0  0  0
 10 12  1  0  0  0  0
 11 10  1  0  0  0  0
 12 18  2  0  0  0  0
 12 14  1  0  0  0  0
 13 11  2  0  0  0  0
 15  9  1  1  0  0  0
 15 11  1  0  0  0  0
 16 19  1  0  0  0  0
 17 13  1  0  0  0  0
 19 17  2  0  0  0  0
 19 15  1  0  0  0  0
 21  1  1  0  0  0  0
 21 23  1  0  0  0  0
 22 24  1  0  0  0  0
 22 25  2  0  0  0  0
 23 20  1  0  0  0  0
 24 21  2  0  0  0  0
 25 26  1  0  0  0  0
 26 20  2  0  0  0  0
 27 25  1  0  0  0  0
 28 29  1  0  0  0  0
 28 27  1  0  0  0  0
 30 29  1  0  0  0  0
 30 31  1  0  0  0  0
 31 34  1  0  0  0  0
 31 32  1  0  0  0  0
 31 33  1  0  0  0  0
 32 33  1  0  0  0  0
 34 35  1  0  0  0  0
 36 34  2  0  0  0  0
M  END
>  <MODEL>
7

>  <REMARK>
 VINA RESULT:      -7.0      3.375      5.280
  Name = 
  9 active torsions:
  status: ('A' for Active; 'I' for Inactive)
    1  A    between atoms: C_2  and  C_5
    2  A    between atoms: C_2  and  C_9
    3  A    between atoms: C_5  and  C_24
    4  A    between atoms: O_7  and  C_13
    5  A    between atoms: O_7  and  C_26
    6  A    between atoms: C_9  and  C_10
    7  A    between atoms: N_12  and  C_24
    8  A    between atoms: N_12  and  C_25
    9  A    between atoms: C_29  and  C_30
                            x       y       z     vdW  Elec       q    Type
                         _______ _______ _______ _____ _____    ______ ____

>  <TORSDO>
F 9

$$$$
=
 OpenBabel11062422263D

 36 40  0  0  1  0  0  0  0  0999 V2000
  187.9600  175.9350  140.6030 O   0  0  0  0  0  0  0  0  0  0  0  0
  190.6600  174.9250  142.0270 C   0  0  0  0  0  2  0  0  0  0  0  0
  191.2650  172.7670  141.2930 C   0  0  0  0  0  3  0  0  0  0  0  0
  189.5190  174.2520  141.4440 N   0  0  0  0  0  0  0  0  0  0  0  0
  189.1820  172.6580  139.9050 N   0  0  0  0  0  0  0  0  0  0  0  0
  188.3030  173.6680  139.6860 C   0  0  0  0  0  3  0  0  0  0  0  0
  188.5510  174.6670  140.6130 C   0  0  0  0  0  0  0  0  0  0  0  0
  189.8810  173.0650  140.9850 C   0  0  0  0  0  0  0  0  0  0  0  0
  191.7130  173.8390  141.9660 C   0  0  0  0  0  0  0  0  0  0  0  0
  192.8110  174.7570  144.8360 N   0  0  0  0  0  2  0  0  0  0  0  0
  193.2860  174.9990  143.5070 C   0  0  0  0  0  0  0  0  0  0  0  0
  192.8570  175.7010  145.9090 C   0  0  0  0  0  0  0  0  0  0  0  0
  193.9720  176.0400  143.1780 N   0  0  0  0  0  0  0  0  0  0  0  0
  192.3980  175.2890  147.2640 C   0  0  0  0  0  1  0  0  0  0  0  0
  193.1540  174.0250  142.3750 C   0  0  2  0  0  3  0  0  0  0  0  0
  194.2690  174.3520  139.9880 C   0  0  0  0  0  1  0  0  0  0  0  0
  194.3700  175.9250  141.8460 N   0  0  0  0  0  0  0  0  0  0  0  0
  193.2350  176.8870  145.7160 O   0  0  0  0  0  0  0  0  0  0  0  0
  193.9250  174.8140  141.3600 C   0  0  0  0  0  0  0  0  0  0  0  0
  186.2290  178.6730  142.0740 C   0  0  0  0  0  3  0  0  0  0  0  0
  186.9900  176.3840  141.5050 C   0  0  0  0  0  0  0  0  0  0  0  0
  186.0480  176.1580  143.8190 C   0  0  0  0  0  3  0  0  0  0  0  0
  186.0620  177.5070  141.1570 C   0  0  0  0  0  2  0  0  0  0  0  0
  186.9170  175.7740  142.6890 C   0  0  0  0  0  3  0  0  0  0  0  0
  185.5910  177.3880  144.1230 C   0  0  0  0  0  0  0  0  0  0  0  0
  185.9740  178.6030  143.3810 C   0  0  0  0  0  3  0  0  0  0  0  0
  184.8360  177.5810  145.3220 N   0  0  0  0  0  2  0  0  0  0  0  0
  185.2380  178.4840  146.3930 C   0  0  0  0  0  2  0  0  0  0  0  0
  186.7280  178.3630  146.6450 C   0  0  0  0  0  2  0  0  0  0  0  0
  187.1040  176.9470  147.0770 C   0  0  0  0  0  2  0  0  0  0  0  0
  188.5200  176.5710  146.6490 C   0  0  0  0  0  0  0  0  0  0  0  0
  189.6130  177.5790  146.9260 C   0  0  0  0  0  2  0  0  0  0  0  0
  189.0480  177.4290  145.5160 C   0  0  0  0  0  2  0  0  0  0  0  0
  188.9400  175.1300  146.5940 C   0  0  0  0  0  0  0  0  0  0  0  0
  189.3540  174.5580  145.3950 O   0  0  0  0  0  0  0  0  0  0  0  0
  188.9400  174.4360  147.6450 O   0  0  0  0  0  1  0  0  0  0  0  0
  1  7  1  0  0  0  0
  1 21  1  0  0  0  0
  3  9  2  0  0  0  0
  4  2  1  0  0  0  0
  5  8  2  0  0  0  0
  6  5  1  0  0  0  0
  6  7  2  0  0  0  0
  7  4  1  0  0  0  0
  8  3  1  0  0  0  0
  8  4  1  0  0  0  0
  9  2  1  0  0  0  0
 10 12  1  0  0  0  0
 11 10  1  0  0  0  0
 12 14  1  0  0  0  0
 13 11  2  0  0  0  0
 15  9  1  6  0  0  0
 15 11  1  0  0  0  0
 16 19  1  0  0  0  0
 17 13  1  0  0  0  0
 18 12  2  0  0  0  0
 19 17  2  0  0  0  0
 19 15  1  0  0  0  0
 20 26  2  0  0  0  0
 21 24  2  0  0  0  0
 22 25  2  0  0  0  0
 23 21  1  0  0  0  0
 23 20  1  0  0  0  0
 24 22  1  0  0  0  0
 25 27  1  0  0  0  0
 26 25  1  0  0  0  0
 27 28  1  0  0  0  0
 28 29  1  0  0  0  0
 29 30  1  0  0  0  0
 31 32  1  0  0  0  0
 31 30  1  0  0  0  0
 33 31  1  0  0  0  0
 33 32  1  0  0  0  0
 34 31  1  0  0  0  0
 34 36  1  0  0  0  0
 35 34  2  0  0  0  0
M  END
>  <MODEL>
8

>  <REMARK>
 VINA RESULT:      -6.9      2.431      7.819
  Name = 
  9 active torsions:
  status: ('A' for Active; 'I' for Inactive)
    1  A    between atoms: C_2  and  C_5
    2  A    between atoms: C_2  and  C_9
    3  A    between atoms: C_5  and  C_24
    4  A    between atoms: O_7  and  C_13
    5  A    between atoms: O_7  and  C_26
    6  A    between atoms: C_9  and  C_10
    7  A    between atoms: N_12  and  C_24
    8  A    between atoms: N_12  and  C_25
    9  A    between atoms: C_29  and  C_30
                            x       y       z     vdW  Elec       q    Type
                         _______ _______ _______ _____ _____    ______ ____

>  <TORSDO>
F 9

$$$$
=
 OpenBabel11062422263D

 36 40  0  0  1  0  0  0  0  0999 V2000
  191.8170  174.8020  145.5680 O   0  0  0  0  0  0  0  0  0  0  0  0
  194.5850  174.1710  144.0590 C   0  0  0  0  0  2  0  0  0  0  0  0
  196.1750  175.8740  144.4290 C   0  0  0  0  0  3  0  0  0  0  0  0
  193.9310  175.3880  144.4910 N   0  0  0  0  0  0  0  0  0  0  0  0
  194.4740  177.1760  145.7270 N   0  0  0  0  0  0  0  0  0  0  0  0
  193.2380  176.7520  146.0940 C   0  0  0  0  0  3  0  0  0  0  0  0
  192.9330  175.6190  145.3560 C   0  0  0  0  0  0  0  0  0  0  0  0
  194.8330  176.3190  144.7500 C   0  0  0  0  0  0  0  0  0  0  0  0
  196.0270  174.6240  143.9590 C   0  0  0  0  0  0  0  0  0  0  0  0
  197.5440  174.3780  141.1450 N   0  0  0  0  0  2  0  0  0  0  0  0
  197.2400  173.4120  142.1570 C   0  0  0  0  0  0  0  0  0  0  0  0
  197.5260  174.1270  139.7370 C   0  0  0  0  0  0  0  0  0  0  0  0
  197.0880  172.1540  141.9130 N   0  0  0  0  0  0  0  0  0  0  0  0
  197.9410  175.2050  138.7980 C   0  0  0  0  0  1  0  0  0  0  0  0
  197.1840  173.7160  143.6230 C   0  0  2  0  0  3  0  0  0  0  0  0
  196.8920  171.8800  145.5190 C   0  0  0  0  0  1  0  0  0  0  0  0
  196.9090  171.4730  143.1160 N   0  0  0  0  0  0  0  0  0  0  0  0
  197.1220  173.0260  139.2780 O   0  0  0  0  0  0  0  0  0  0  0  0
  196.9490  172.3130  144.0950 C   0  0  0  0  0  0  0  0  0  0  0  0
  189.4600  177.4350  145.1600 C   0  0  0  0  0  3  0  0  0  0  0  0
  190.4970  175.2470  145.6880 C   0  0  0  0  0  0  0  0  0  0  0  0
  188.4610  175.3280  147.1500 C   0  0  0  0  0  3  0  0  0  0  0  0
  189.8630  176.0990  144.6320 C   0  0  0  0  0  2  0  0  0  0  0  0
  189.8180  174.8820  146.7760 C   0  0  0  0  0  3  0  0  0  0  0  0
  187.8640  176.4940  146.8410 C   0  0  0  0  0  0  0  0  0  0  0  0
  188.5400  177.5850  146.1140 C   0  0  0  0  0  3  0  0  0  0  0  0
  186.5730  176.7890  147.3800 N   0  0  0  0  0  2  0  0  0  0  0  0
  186.1710  178.1140  147.8370 C   0  0  0  0  0  2  0  0  0  0  0  0
  185.1610  178.7120  146.8780 C   0  0  0  0  0  2  0  0  0  0  0  0
  184.8260  177.7400  145.7480 C   0  0  0  0  0  2  0  0  0  0  0  0
  185.2000  178.2990  144.3770 C   0  0  0  0  0  0  0  0  0  0  0  0
  185.2650  179.8040  144.2430 C   0  0  0  0  0  2  0  0  0  0  0  0
  184.0610  179.0370  143.7030 C   0  0  0  0  0  2  0  0  0  0  0  0
  186.0740  177.5080  143.4470 C   0  0  0  0  0  0  0  0  0  0  0  0
  186.9420  178.1540  142.5700 O   0  0  0  0  0  0  0  0  0  0  0  0
  186.0410  176.2490  143.4720 O   0  0  0  0  0  1  0  0  0  0  0  0
  1 21  1  0  0  0  0
  2  4  1  0  0  0  0
  3  8  1  0  0  0  0
  4  8  1  0  0  0  0
  4  7  1  0  0  0  0
  5  6  1  0  0  0  0
  7  1  1  0  0  0  0
  7  6  2  0  0  0  0
  8  5  2  0  0  0  0
  9  2  1  0  0  0  0
  9  3  2  0  0  0  0
 10 11  1  0  0  0  0
 11 15  1  0  0  0  0
 12 10  1  0  0  0  0
 13 11  2  0  0  0  0
 13 17  1  0  0  0  0
 14 12  1  0  0  0  0
 15  9  1  6  0  0  0
 15 19  1  0  0  0  0
 17 19  2  0  0  0  0
 18 12  2  0  0  0  0
 19 16  1  0  0  0  0
 20 26  2  0  0  0  0
 21 24  2  0  0  0  0
 23 20  1  0  0  0  0
 23 21  1  0  0  0  0
 24 22  1  0  0  0  0
 25 22  2  0  0  0  0
 25 27  1  0  0  0  0
 26 25  1  0  0  0  0
 27 28  1  0  0  0  0
 29 28  1  0  0  0  0
 30 29  1  0  0  0  0
 31 30  1  0  0  0  0
 32 31  1  0  0  0  0
 33 32  1  0  0  0  0
 33 31  1  0  0  0  0
 34 36  1  0  0  0  0
 34 31  1  0  0  0  0
 35 34  2  0  0  0  0
M  END
>  <MODEL>
9

>  <REMARK>
 VINA RESULT:      -6.9      3.616      9.365
  Name = 
  9 active torsions:
  status: ('A' for Active; 'I' for Inactive)
    1  A    between atoms: C_2  and  C_5
    2  A    between atoms: C_2  and  C_9
    3  A    between atoms: C_5  and  C_24
    4  A    between atoms: O_7  and  C_13
    5  A    between atoms: O_7  and  C_26
    6  A    between atoms: C_9  and  C_10
    7  A    between atoms: N_12  and  C_24
    8  A    between atoms: N_12  and  C_25
    9  A    between atoms: C_29  and  C_30
                            x       y       z     vdW  Elec       q    Type
                         _______ _______ _______ _____ _____    ______ ____

>  <TORSDO>
F 9

$$$$
