=
 OpenBabel11062421243D

 31 32  0  0  1  0  0  0  0  0999 V2000
  188.6530  177.0220  143.0120 C   0  0  0  0  0  2  0  0  0  0  0  0
  187.4060  176.2560  141.0240 C   0  0  0  0  0  0  0  0  0  0  0  0
  185.3770  177.6480  142.4560 C   0  0  0  0  0  0  0  0  0  0  0  0
  186.6070  177.3320  139.0660 O   0  0  0  0  0  0  0  0  0  0  0  0
  186.2100  176.8730  143.0960 N   0  0  0  0  0  0  0  0  0  0  0  0
  187.4210  176.2660  142.5250 C   0  0  2  0  0  3  0  0  0  0  0  0
  185.5340  177.8900  141.0560 N   0  0  0  0  0  2  0  0  0  0  0  0
  186.5200  177.1780  140.3130 C   0  0  0  0  0  0  0  0  0  0  0  0
  188.1810  175.4940  140.3880 O   0  0  0  0  0  0  0  0  0  0  0  0
  184.2340  178.2520  143.1530 C   0  0  0  0  0  3  0  0  0  0  0  0
  184.3370  178.9210  145.6750 C   0  0  0  0  0  3  0  0  0  0  0  0
  184.2840  178.5880  144.4140 C   0  0  0  0  0  0  0  0  0  0  0  0
  184.7880  177.9730  146.6960 C   0  0  0  0  0  0  0  0  0  0  0  0
  184.6560  176.7370  146.4860 O   0  0  0  0  0  0  0  0  0  0  0  0
  185.3490  178.4350  147.8890 O   0  0  0  0  0  0  0  0  0  0  0  0
  186.1560  179.6020  147.9360 C   0  0  0  0  0  1  0  0  0  0  0  0
  189.5350  176.1950  143.9510 C   0  0  1  0  0  3  0  0  0  0  0  0
  188.4920  176.9490  146.1460 C   0  0  0  0  0  2  0  0  0  0  0  0
  191.6830  176.6990  148.2200 O   0  0  0  0  0  1  0  0  0  0  0  0
  190.6540  176.3720  147.3460 C   0  0  0  0  0  0  0  0  0  0  0  0
  188.7900  175.7690  145.2250 C   0  0  2  0  0  3  0  0  0  0  0  0
  190.5430  175.1060  146.9330 C   0  0  0  0  0  3  0  0  0  0  0  0
  189.7580  177.4690  146.8270 C   0  0  2  0  0  3  0  0  0  0  0  0
  189.4040  178.3320  147.8630 O   0  0  0  0  0  1  0  0  0  0  0  0
  189.4550  174.6320  146.0090 C   0  0  0  0  0  2  0  0  0  0  0  0
  190.1200  175.1100  143.2810 O   0  0  0  0  0  0  0  0  0  0  0  0
  191.2580  175.6280  142.6520 C   0  0  1  0  0  3  0  0  0  0  0  0
  192.2500  176.1260  143.6880 C   0  0  0  0  0  1  0  0  0  0  0  0
  191.8980  174.5840  141.7350 C   0  0  0  0  0  2  0  0  0  0  0  0
  190.8720  173.4910  139.8660 O   0  0  0  0  0  1  0  0  0  0  0  0
  190.9130  173.5210  141.2590 C   0  0  0  0  0  2  0  0  0  0  0  0
  2  6  1  0  0  0  0
  3  5  2  0  0  0  0
  3 10  1  0  0  0  0
  4  8  2  0  0  0  0
  6  1  1  6  0  0  0
  6  5  1  0  0  0  0
  7  3  1  0  0  0  0
  8  2  1  0  0  0  0
  8  7  1  0  0  0  0
  9  2  2  0  0  0  0
 10 12  2  0  0  0  0
 11 13  1  0  0  0  0
 12 11  2  0  0  0  0
 13 15  1  0  0  0  0
 14 13  2  0  0  0  0
 15 16  1  0  0  0  0
 17  1  1  6  0  0  0
 18 23  1  0  0  0  0
 20 19  1  0  0  0  0
 21 17  1  6  0  0  0
 21 25  1  0  0  0  0
 21 18  1  0  0  0  0
 22 20  2  0  0  0  0
 23 20  1  0  0  0  0
 23 24  1  1  0  0  0
 25 22  1  0  0  0  0
 26 17  1  0  0  0  0
 27 26  1  0  0  0  0
 27 28  1  1  0  0  0
 29 27  1  0  0  0  0
 30 31  1  0  0  0  0
 31 29  1  0  0  0  0
M  END
>  <MODEL>
1

>  <REMARK>
 VINA RESULT:      -6.5      0.000      0.000
  Name = 
  10 active torsions:
  status: ('A' for Active; 'I' for Inactive)
    1  A    between atoms: C_2  and  C_15
    2  A    between atoms: C_2  and  C_20
    3  A    between atoms: C_2  and  O_25
    4  A    between atoms: C_4  and  C_13
    5  A    between atoms: O_6  and  C_10
    6  A    between atoms: C_7  and  C_11
    7  A    between atoms: C_10  and  C_18
    8  A    between atoms: C_13  and  C_19
    9  A    between atoms: C_16  and  C_20
   10  A    between atoms: C_19  and  O_25
                            x       y       z     vdW  Elec       q    Type
                         _______ _______ _______ _____ _____    ______ ____

>  <TORSDO>
F 10

$$$$
=
 OpenBabel11062421243D

 31 32  0  0  1  0  0  0  0  0999 V2000
  189.4320  176.7480  142.6390 C   0  0  0  0  0  2  0  0  0  0  0  0
  187.6020  176.2820  141.0480 C   0  0  0  0  0  0  0  0  0  0  0  0
  186.4500  178.3410  142.6420 C   0  0  0  0  0  0  0  0  0  0  0  0
  186.7390  177.4180  139.1530 O   0  0  0  0  0  0  0  0  0  0  0  0
  187.1380  177.3880  143.2080 N   0  0  0  0  0  0  0  0  0  0  0  0
  187.9560  176.3910  142.5030 C   0  0  2  0  0  3  0  0  0  0  0  0
  186.3540  178.4230  141.2170 N   0  0  0  0  0  2  0  0  0  0  0  0
  186.8920  177.3860  140.4020 C   0  0  0  0  0  0  0  0  0  0  0  0
  187.9540  175.2710  140.3850 O   0  0  0  0  0  0  0  0  0  0  0  0
  185.7240  179.3230  143.4560 C   0  0  0  0  0  3  0  0  0  0  0  0
  185.6990  179.2230  146.0650 C   0  0  0  0  0  3  0  0  0  0  0  0
  185.7110  179.2750  144.7610 C   0  0  0  0  0  0  0  0  0  0  0  0
  185.3480  177.9910  146.7760 C   0  0  0  0  0  0  0  0  0  0  0  0
  184.1650  177.5620  146.7120 O   0  0  0  0  0  0  0  0  0  0  0  0
  186.3130  177.3060  147.5200 O   0  0  0  0  0  0  0  0  0  0  0  0
  187.2530  176.4360  146.9080 C   0  0  0  0  0  1  0  0  0  0  0  0
  190.1650  175.9010  143.6830 C   0  0  1  0  0  3  0  0  0  0  0  0
  192.2690  177.1940  144.2950 C   0  0  0  0  0  2  0  0  0  0  0  0
  194.1380  174.2340  145.8100 O   0  0  0  0  0  1  0  0  0  0  0  0
  193.1340  175.1540  145.5350 C   0  0  0  0  0  0  0  0  0  0  0  0
  190.8730  176.7640  144.7380 C   0  0  2  0  0  3  0  0  0  0  0  0
  192.0580  175.1830  146.3270 C   0  0  0  0  0  3  0  0  0  0  0  0
  193.2530  176.0240  144.3080 C   0  0  2  0  0  3  0  0  0  0  0  0
  194.5540  176.5130  144.1880 O   0  0  0  0  0  1  0  0  0  0  0  0
  190.9220  176.1510  146.1420 C   0  0  0  0  0  2  0  0  0  0  0  0
  189.3140  174.9430  144.2540 O   0  0  0  0  0  0  0  0  0  0  0  0
  189.8540  173.7020  143.8980 C   0  0  1  0  0  3  0  0  0  0  0  0
  189.8500  172.7660  145.0940 C   0  0  0  0  0  1  0  0  0  0  0  0
  189.0920  173.0920  142.7200 C   0  0  0  0  0  2  0  0  0  0  0  0
  190.1650  171.0830  141.9740 O   0  0  0  0  0  1  0  0  0  0  0  0
  190.0070  172.4390  141.6890 C   0  0  0  0  0  2  0  0  0  0  0  0
  2  6  1  0  0  0  0
  3  5  2  0  0  0  0
  3 10  1  0  0  0  0
  4  8  2  0  0  0  0
  6  1  1  6  0  0  0
  6  5  1  0  0  0  0
  7  3  1  0  0  0  0
  8  2  1  0  0  0  0
  8  7  1  0  0  0  0
  9  2  2  0  0  0  0
 10 12  2  0  0  0  0
 11 13  1  0  0  0  0
 12 11  2  0  0  0  0
 13 15  1  0  0  0  0
 14 13  2  0  0  0  0
 16 15  1  0  0  0  0
 17  1  1  6  0  0  0
 17 26  1  0  0  0  0
 18 23  1  0  0  0  0
 18 21  1  0  0  0  0
 20 19  1  0  0  0  0
 20 22  2  0  0  0  0
 21 17  1  6  0  0  0
 21 25  1  0  0  0  0
 23 24  1  1  0  0  0
 23 20  1  0  0  0  0
 25 22  1  0  0  0  0
 27 26  1  0  0  0  0
 27 28  1  1  0  0  0
 29 27  1  0  0  0  0
 31 30  1  0  0  0  0
 31 29  1  0  0  0  0
M  END
>  <MODEL>
2

>  <REMARK>
 VINA RESULT:      -6.3      1.845      2.572
  Name = 
  10 active torsions:
  status: ('A' for Active; 'I' for Inactive)
    1  A    between atoms: C_2  and  C_15
    2  A    between atoms: C_2  and  C_20
    3  A    between atoms: C_2  and  O_25
    4  A    between atoms: C_4  and  C_13
    5  A    between atoms: O_6  and  C_10
    6  A    between atoms: C_7  and  C_11
    7  A    between atoms: C_10  and  C_18
    8  A    between atoms: C_13  and  C_19
    9  A    between atoms: C_16  and  C_20
   10  A    between atoms: C_19  and  O_25
                            x       y       z     vdW  Elec       q    Type
                         _______ _______ _______ _____ _____    ______ ____

>  <TORSDO>
F 10

$$$$
=
 OpenBabel11062421243D

 31 32  0  0  1  0  0  0  0  0999 V2000
  190.2260  176.6240  143.3590 C   0  0  0  0  0  2  0  0  0  0  0  0
  188.8340  174.9930  142.1360 C   0  0  0  0  0  0  0  0  0  0  0  0
  187.1970  177.3200  142.0270 C   0  0  0  0  0  0  0  0  0  0  0  0
  188.3190  174.6580  139.8450 O   0  0  0  0  0  0  0  0  0  0  0  0
  187.8190  177.0130  143.1330 N   0  0  0  0  0  0  0  0  0  0  0  0
  188.8490  175.9740  143.2730 C   0  0  2  0  0  3  0  0  0  0  0  0
  187.4100  176.5580  140.8360 N   0  0  0  0  0  2  0  0  0  0  0  0
  188.1960  175.3710  140.8750 C   0  0  0  0  0  0  0  0  0  0  0  0
  189.4030  173.8760  142.2570 O   0  0  0  0  0  0  0  0  0  0  0  0
  186.2330  178.4260  141.9950 C   0  0  0  0  0  3  0  0  0  0  0  0
  185.5090  179.7050  144.1540 C   0  0  0  0  0  3  0  0  0  0  0  0
  185.8700  179.0680  143.0740 C   0  0  0  0  0  0  0  0  0  0  0  0
  185.0370  178.9880  145.3410 C   0  0  0  0  0  0  0  0  0  0  0  0
  183.8010  178.9450  145.5800 O   0  0  0  0  0  0  0  0  0  0  0  0
  185.9490  178.3660  146.1990 O   0  0  0  0  0  0  0  0  0  0  0  0
  185.9320  178.5900  147.6010 C   0  0  0  0  0  1  0  0  0  0  0  0
  190.9160  176.3980  144.7070 C   0  0  1  0  0  3  0  0  0  0  0  0
  189.2340  177.0710  146.4930 C   0  0  0  0  0  2  0  0  0  0  0  0
  191.7720  177.4700  149.3120 O   0  0  0  0  0  1  0  0  0  0  0  0
  191.0690  176.9310  148.2430 C   0  0  0  0  0  0  0  0  0  0  0  0
  189.9380  175.9150  145.7880 C   0  0  2  0  0  3  0  0  0  0  0  0
  191.2630  175.6450  147.9320 C   0  0  0  0  0  3  0  0  0  0  0  0
  190.1840  177.8320  147.4180 C   0  0  2  0  0  3  0  0  0  0  0  0
  189.4450  178.6720  148.2500 O   0  0  0  0  0  1  0  0  0  0  0  0
  190.5390  174.9480  146.8140 C   0  0  0  0  0  2  0  0  0  0  0  0
  192.0320  175.5580  144.5770 O   0  0  0  0  0  0  0  0  0  0  0  0
  193.1100  176.4070  144.3030 C   0  0  1  0  0  3  0  0  0  0  0  0
  193.7460  176.8800  145.5990 C   0  0  0  0  0  1  0  0  0  0  0  0
  194.1380  175.7150  143.4070 C   0  0  0  0  0  2  0  0  0  0  0  0
  196.2480  176.8010  143.0800 O   0  0  0  0  0  1  0  0  0  0  0  0
  195.5720  175.8910  143.8930 C   0  0  0  0  0  2  0  0  0  0  0  0
  2  9  2  0  0  0  0
  2  6  1  0  0  0  0
  3  5  2  0  0  0  0
  4  8  2  0  0  0  0
  5  6  1  0  0  0  0
  6  1  1  6  0  0  0
  7  8  1  0  0  0  0
  7  3  1  0  0  0  0
  8  2  1  0  0  0  0
 10  3  1  0  0  0  0
 10 12  2  0  0  0  0
 11 13  1  0  0  0  0
 12 11  2  0  0  0  0
 13 14  2  0  0  0  0
 13 15  1  0  0  0  0
 15 16  1  0  0  0  0
 17  1  1  6  0  0  0
 18 23  1  0  0  0  0
 20 19  1  0  0  0  0
 21 17  1  6  0  0  0
 21 18  1  0  0  0  0
 21 25  1  0  0  0  0
 22 20  2  0  0  0  0
 23 20  1  0  0  0  0
 23 24  1  1  0  0  0
 25 22  1  0  0  0  0
 26 17  1  0  0  0  0
 27 26  1  0  0  0  0
 27 28  1  1  0  0  0
 29 31  1  0  0  0  0
 29 27  1  0  0  0  0
 30 31  1  0  0  0  0
M  END
>  <MODEL>
3

>  <REMARK>
 VINA RESULT:      -6.2      1.949      2.536
  Name = 
  10 active torsions:
  status: ('A' for Active; 'I' for Inactive)
    1  A    between atoms: C_2  and  C_15
    2  A    between atoms: C_2  and  C_20
    3  A    between atoms: C_2  and  O_25
    4  A    between atoms: C_4  and  C_13
    5  A    between atoms: O_6  and  C_10
    6  A    between atoms: C_7  and  C_11
    7  A    between atoms: C_10  and  C_18
    8  A    between atoms: C_13  and  C_19
    9  A    between atoms: C_16  and  C_20
   10  A    between atoms: C_19  and  O_25
                            x       y       z     vdW  Elec       q    Type
                         _______ _______ _______ _____ _____    ______ ____

>  <TORSDO>
F 10

$$$$
=
 OpenBabel11062421243D

 31 32  0  0  1  0  0  0  0  0999 V2000
  190.4330  176.8110  143.2650 C   0  0  0  0  0  2  0  0  0  0  0  0
  188.9760  175.0800  142.2780 C   0  0  0  0  0  0  0  0  0  0  0  0
  187.2920  177.3720  142.1450 C   0  0  0  0  0  0  0  0  0  0  0  0
  188.2810  174.5780  140.0660 O   0  0  0  0  0  0  0  0  0  0  0  0
  188.0080  177.1520  143.2130 N   0  0  0  0  0  0  0  0  0  0  0  0
  189.0660  176.1390  143.3380 C   0  0  2  0  0  3  0  0  0  0  0  0
  187.4210  176.5320  140.9950 N   0  0  0  0  0  2  0  0  0  0  0  0
  188.2300  175.3600  141.0510 C   0  0  0  0  0  0  0  0  0  0  0  0
  189.5750  173.9820  142.4280 O   0  0  0  0  0  0  0  0  0  0  0  0
  186.3080  178.4610  142.1170 C   0  0  0  0  0  3  0  0  0  0  0  0
  185.5920  179.7450  144.2740 C   0  0  0  0  0  3  0  0  0  0  0  0
  185.9490  179.1050  143.1950 C   0  0  0  0  0  0  0  0  0  0  0  0
  185.1490  179.0310  145.4740 C   0  0  0  0  0  0  0  0  0  0  0  0
  183.9890  178.5390  145.5020 O   0  0  0  0  0  0  0  0  0  0  0  0
  186.0020  178.9030  146.5740 O   0  0  0  0  0  0  0  0  0  0  0  0
  185.6430  178.1400  147.7160 C   0  0  0  0  0  1  0  0  0  0  0  0
  191.3540  176.4340  144.4290 C   0  0  1  0  0  3  0  0  0  0  0  0
  193.0550  175.1270  143.0630 C   0  0  0  0  0  2  0  0  0  0  0  0
  193.9080  172.5980  145.7890 O   0  0  0  0  0  1  0  0  0  0  0  0
  193.6740  173.8040  145.1410 C   0  0  0  0  0  0  0  0  0  0  0  0
  192.8220  176.3130  143.9940 C   0  0  2  0  0  3  0  0  0  0  0  0
  194.0160  174.9400  145.7580 C   0  0  0  0  0  3  0  0  0  0  0  0
  192.9640  173.7950  143.8100 C   0  0  2  0  0  3  0  0  0  0  0  0
  193.4690  172.7770  143.0020 O   0  0  0  0  0  1  0  0  0  0  0  0
  193.8350  176.3000  145.1440 C   0  0  0  0  0  2  0  0  0  0  0  0
  191.1850  177.3030  145.5170 O   0  0  0  0  0  0  0  0  0  0  0  0
  190.6630  176.5150  146.5490 C   0  0  1  0  0  3  0  0  0  0  0  0
  191.4950  176.6830  147.8090 C   0  0  0  0  0  1  0  0  0  0  0  0
  189.1950  176.8570  146.8100 C   0  0  0  0  0  2  0  0  0  0  0  0
  189.0390  174.4700  146.6690 O   0  0  0  0  0  1  0  0  0  0  0  0
  188.3110  175.6240  146.9600 C   0  0  0  0  0  2  0  0  0  0  0  0
  2  9  2  0  0  0  0
  2  6  1  0  0  0  0
  3  5  2  0  0  0  0
  4  8  2  0  0  0  0
  5  6  1  0  0  0  0
  6  1  1  6  0  0  0
  7  8  1  0  0  0  0
  7  3  1  0  0  0  0
  8  2  1  0  0  0  0
 10  3  1  0  0  0  0
 10 12  2  0  0  0  0
 11 13  1  0  0  0  0
 12 11  2  0  0  0  0
 13 14  2  0  0  0  0
 13 15  1  0  0  0  0
 15 16  1  0  0  0  0
 17  1  1  6  0  0  0
 17 26  1  0  0  0  0
 18 23  1  0  0  0  0
 18 21  1  0  0  0  0
 20 22  2  0  0  0  0
 20 19  1  0  0  0  0
 21 17  1  1  0  0  0
 21 25  1  0  0  0  0
 23 24  1  6  0  0  0
 23 20  1  0  0  0  0
 25 22  1  0  0  0  0
 26 27  1  0  0  0  0
 27 29  1  0  0  0  0
 27 28  1  1  0  0  0
 29 31  1  0  0  0  0
 30 31  1  0  0  0  0
M  END
>  <MODEL>
4

>  <REMARK>
 VINA RESULT:      -6.1      2.130      4.012
  Name = 
  10 active torsions:
  status: ('A' for Active; 'I' for Inactive)
    1  A    between atoms: C_2  and  C_15
    2  A    between atoms: C_2  and  C_20
    3  A    between atoms: C_2  and  O_25
    4  A    between atoms: C_4  and  C_13
    5  A    between atoms: O_6  and  C_10
    6  A    between atoms: C_7  and  C_11
    7  A    between atoms: C_10  and  C_18
    8  A    between atoms: C_13  and  C_19
    9  A    between atoms: C_16  and  C_20
   10  A    between atoms: C_19  and  O_25
                            x       y       z     vdW  Elec       q    Type
                         _______ _______ _______ _____ _____    ______ ____

>  <TORSDO>
F 10

$$$$
=
 OpenBabel11062421243D

 31 32  0  0  1  0  0  0  0  0999 V2000
  190.4260  175.0760  145.6920 C   0  0  0  0  0  2  0  0  0  0  0  0
  189.2210  177.1430  146.3020 C   0  0  0  0  0  0  0  0  0  0  0  0
  187.8270  176.3570  143.9470 C   0  0  0  0  0  0  0  0  0  0  0  0
  187.1040  177.5890  147.2740 O   0  0  0  0  0  0  0  0  0  0  0  0
  189.1290  176.2710  143.9920 N   0  0  0  0  0  0  0  0  0  0  0  0
  189.9550  176.4400  145.1970 C   0  0  2  0  0  3  0  0  0  0  0  0
  187.0820  176.7430  145.1050 N   0  0  0  0  0  2  0  0  0  0  0  0
  187.7590  177.1740  146.2820 C   0  0  0  0  0  0  0  0  0  0  0  0
  189.8610  177.6590  147.2570 O   0  0  0  0  0  0  0  0  0  0  0  0
  187.1050  176.1010  142.6950 C   0  0  0  0  0  3  0  0  0  0  0  0
  185.2990  177.7440  141.7700 C   0  0  0  0  0  3  0  0  0  0  0  0
  186.2020  176.9220  142.2300 C   0  0  0  0  0  0  0  0  0  0  0  0
  184.1960  178.2140  142.6110 C   0  0  0  0  0  0  0  0  0  0  0  0
  183.0320  178.2530  142.1290 O   0  0  0  0  0  0  0  0  0  0  0  0
  184.4340  178.6210  143.9260 O   0  0  0  0  0  0  0  0  0  0  0  0
  185.2260  179.7600  144.2270 C   0  0  0  0  0  1  0  0  0  0  0  0
  191.7680  174.6480  145.0940 C   0  0  1  0  0  3  0  0  0  0  0  0
  193.3640  176.0540  146.4900 C   0  0  0  0  0  2  0  0  0  0  0  0
  196.1230  176.2660  143.8650 O   0  0  0  0  0  1  0  0  0  0  0  0
  195.1530  175.7490  144.7140 C   0  0  0  0  0  0  0  0  0  0  0  0
  192.8960  174.6450  146.1370 C   0  0  2  0  0  3  0  0  0  0  0  0
  195.0840  174.4240  144.8760 C   0  0  0  0  0  3  0  0  0  0  0  0
  194.1580  176.6890  145.3490 C   0  0  2  0  0  3  0  0  0  0  0  0
  194.8070  177.8310  145.8170 O   0  0  0  0  0  1  0  0  0  0  0  0
  194.0930  173.7540  145.7880 C   0  0  0  0  0  2  0  0  0  0  0  0
  191.6600  173.4260  144.4150 O   0  0  0  0  0  0  0  0  0  0  0  0
  191.2360  173.7510  143.1210 C   0  0  1  0  0  3  0  0  0  0  0  0
  192.4360  173.9710  142.2170 C   0  0  0  0  0  1  0  0  0  0  0  0
  190.3150  172.6680  142.5590 C   0  0  0  0  0  2  0  0  0  0  0  0
  188.0000  172.8240  141.9590 O   0  0  0  0  0  1  0  0  0  0  0  0
  189.2840  173.2100  141.5740 C   0  0  0  0  0  2  0  0  0  0  0  0
  2  9  2  0  0  0  0
  3  5  2  0  0  0  0
  3  7  1  0  0  0  0
  5  6  1  0  0  0  0
  6  1  1  1  0  0  0
  6  2  1  0  0  0  0
  7  8  1  0  0  0  0
  8  2  1  0  0  0  0
  8  4  2  0  0  0  0
 10  3  1  0  0  0  0
 11 12  2  0  0  0  0
 11 13  1  0  0  0  0
 12 10  2  0  0  0  0
 13 15  1  0  0  0  0
 14 13  2  0  0  0  0
 15 16  1  0  0  0  0
 17  1  1  1  0  0  0
 19 20  1  0  0  0  0
 20 22  2  0  0  0  0
 20 23  1  0  0  0  0
 21 17  1  6  0  0  0
 21 18  1  0  0  0  0
 22 25  1  0  0  0  0
 23 24  1  1  0  0  0
 23 18  1  0  0  0  0
 25 21  1  0  0  0  0
 26 17  1  0  0  0  0
 27 28  1  6  0  0  0
 27 26  1  0  0  0  0
 29 27  1  0  0  0  0
 31 30  1  0  0  0  0
 31 29  1  0  0  0  0
M  END
>  <MODEL>
5

>  <REMARK>
 VINA RESULT:      -6.0      2.571      4.526
  Name = 
  10 active torsions:
  status: ('A' for Active; 'I' for Inactive)
    1  A    between atoms: C_2  and  C_15
    2  A    between atoms: C_2  and  C_20
    3  A    between atoms: C_2  and  O_25
    4  A    between atoms: C_4  and  C_13
    5  A    between atoms: O_6  and  C_10
    6  A    between atoms: C_7  and  C_11
    7  A    between atoms: C_10  and  C_18
    8  A    between atoms: C_13  and  C_19
    9  A    between atoms: C_16  and  C_20
   10  A    between atoms: C_19  and  O_25
                            x       y       z     vdW  Elec       q    Type
                         _______ _______ _______ _____ _____    ______ ____

>  <TORSDO>
F 10

$$$$
=
 OpenBabel11062421243D

 31 32  0  0  1  0  0  0  0  0999 V2000
  190.2240  175.0040  145.4290 C   0  0  0  0  0  2  0  0  0  0  0  0
  189.0540  177.0560  146.1470 C   0  0  0  0  0  0  0  0  0  0  0  0
  187.7070  176.4670  143.7090 C   0  0  0  0  0  0  0  0  0  0  0  0
  186.9220  177.4910  147.0910 O   0  0  0  0  0  0  0  0  0  0  0  0
  189.0040  176.3440  143.7820 N   0  0  0  0  0  0  0  0  0  0  0  0
  189.8000  176.4100  145.0160 C   0  0  2  0  0  3  0  0  0  0  0  0
  186.9390  176.7940  144.8700 N   0  0  0  0  0  2  0  0  0  0  0  0
  187.5940  177.1270  146.0910 C   0  0  0  0  0  0  0  0  0  0  0  0
  189.6790  177.4910  147.1510 O   0  0  0  0  0  0  0  0  0  0  0  0
  187.0130  176.3150  142.4240 C   0  0  0  0  0  3  0  0  0  0  0  0
  185.1100  177.9350  141.6690 C   0  0  0  0  0  3  0  0  0  0  0  0
  186.0620  177.1250  142.0440 C   0  0  0  0  0  0  0  0  0  0  0  0
  183.9710  178.2310  142.5410 C   0  0  0  0  0  0  0  0  0  0  0  0
  184.1770  178.4500  143.7650 O   0  0  0  0  0  0  0  0  0  0  0  0
  182.6740  178.2630  142.0220 O   0  0  0  0  0  0  0  0  0  0  0  0
  182.4170  178.0910  140.6370 C   0  0  0  0  0  1  0  0  0  0  0  0
  191.6140  174.6180  144.9170 C   0  0  1  0  0  3  0  0  0  0  0  0
  193.1510  175.9070  146.4810 C   0  0  0  0  0  2  0  0  0  0  0  0
  196.1280  176.0480  144.1000 O   0  0  0  0  0  1  0  0  0  0  0  0
  195.0660  175.5590  144.8490 C   0  0  0  0  0  0  0  0  0  0  0  0
  192.6480  174.5320  146.0490 C   0  0  2  0  0  3  0  0  0  0  0  0
  194.9210  174.2350  144.9670 C   0  0  0  0  0  3  0  0  0  0  0  0
  194.0680  176.5310  145.4280 C   0  0  2  0  0  3  0  0  0  0  0  0
  194.7290  177.6270  145.9820 O   0  0  0  0  0  1  0  0  0  0  0  0
  193.8270  173.5920  145.7730 C   0  0  0  0  0  2  0  0  0  0  0  0
  191.5670  173.4510  144.1410 O   0  0  0  0  0  0  0  0  0  0  0  0
  191.2970  173.8780  142.8360 C   0  0  1  0  0  3  0  0  0  0  0  0
  192.5050  174.5960  142.2590 C   0  0  0  0  0  1  0  0  0  0  0  0
  190.8810  172.7030  141.9500 C   0  0  0  0  0  2  0  0  0  0  0  0
  188.5920  173.0810  142.5500 O   0  0  0  0  0  1  0  0  0  0  0  0
  189.5500  172.0840  142.3640 C   0  0  0  0  0  2  0  0  0  0  0  0
  2  9  2  0  0  0  0
  3  5  2  0  0  0  0
  3  7  1  0  0  0  0
  5  6  1  0  0  0  0
  6  1  1  1  0  0  0
  6  2  1  0  0  0  0
  7  8  1  0  0  0  0
  8  2  1  0  0  0  0
  8  4  2  0  0  0  0
 10  3  1  0  0  0  0
 11 12  2  0  0  0  0
 11 13  1  0  0  0  0
 12 10  2  0  0  0  0
 13 14  2  0  0  0  0
 15 13  1  0  0  0  0
 16 15  1  0  0  0  0
 17  1  1  1  0  0  0
 19 20  1  0  0  0  0
 20 22  2  0  0  0  0
 20 23  1  0  0  0  0
 21 17  1  6  0  0  0
 21 18  1  0  0  0  0
 22 25  1  0  0  0  0
 23 24  1  1  0  0  0
 23 18  1  0  0  0  0
 25 21  1  0  0  0  0
 26 17  1  0  0  0  0
 27 28  1  6  0  0  0
 27 26  1  0  0  0  0
 29 31  1  0  0  0  0
 29 27  1  0  0  0  0
 31 30  1  0  0  0  0
M  END
>  <MODEL>
6

>  <REMARK>
 VINA RESULT:      -6.0      2.557      4.630
  Name = 
  10 active torsions:
  status: ('A' for Active; 'I' for Inactive)
    1  A    between atoms: C_2  and  C_15
    2  A    between atoms: C_2  and  C_20
    3  A    between atoms: C_2  and  O_25
    4  A    between atoms: C_4  and  C_13
    5  A    between atoms: O_6  and  C_10
    6  A    between atoms: C_7  and  C_11
    7  A    between atoms: C_10  and  C_18
    8  A    between atoms: C_13  and  C_19
    9  A    between atoms: C_16  and  C_20
   10  A    between atoms: C_19  and  O_25
                            x       y       z     vdW  Elec       q    Type
                         _______ _______ _______ _____ _____    ______ ____

>  <TORSDO>
F 10

$$$$
=
 OpenBabel11062421243D

 31 32  0  0  1  0  0  0  0  0999 V2000
  189.4730  175.9950  142.4360 C   0  0  0  0  0  2  0  0  0  0  0  0
  191.4680  176.4550  143.8160 C   0  0  0  0  0  0  0  0  0  0  0  0
  189.5820  175.6740  145.8010 C   0  0  0  0  0  0  0  0  0  0  0  0
  193.0470  175.0840  144.9360 O   0  0  0  0  0  0  0  0  0  0  0  0
  189.2130  176.4610  144.8260 N   0  0  0  0  0  0  0  0  0  0  0  0
  190.0120  176.7720  143.6320 C   0  0  2  0  0  3  0  0  0  0  0  0
  190.8970  175.1140  145.8270 N   0  0  0  0  0  2  0  0  0  0  0  0
  191.8670  175.5170  144.8650 C   0  0  0  0  0  0  0  0  0  0  0  0
  192.3270  176.9570  143.0440 O   0  0  0  0  0  0  0  0  0  0  0  0
  188.6680  175.3840  146.9120 C   0  0  0  0  0  3  0  0  0  0  0  0
  186.4450  176.7070  147.2680 C   0  0  0  0  0  3  0  0  0  0  0  0
  187.5550  176.0440  147.0910 C   0  0  0  0  0  0  0  0  0  0  0  0
  186.4270  178.1720  147.2980 C   0  0  0  0  0  0  0  0  0  0  0  0
  187.2530  178.7800  148.0300 O   0  0  0  0  0  0  0  0  0  0  0  0
  185.5020  178.8820  146.5280 O   0  0  0  0  0  0  0  0  0  0  0  0
  184.1680  178.4280  146.3520 C   0  0  0  0  0  1  0  0  0  0  0  0
  187.9950  176.2740  142.1510 C   0  0  1  0  0  3  0  0  0  0  0  0
  187.4180  178.7440  142.3520 C   0  0  0  0  0  2  0  0  0  0  0  0
  183.6370  178.2980  142.1170 O   0  0  0  0  0  1  0  0  0  0  0  0
  184.9930  178.1960  141.8330 C   0  0  0  0  0  0  0  0  0  0  0  0
  187.7870  177.6020  141.4080 C   0  0  2  0  0  3  0  0  0  0  0  0
  185.3650  177.6720  140.6620 C   0  0  0  0  0  3  0  0  0  0  0  0
  185.9940  178.5960  142.8890 C   0  0  2  0  0  3  0  0  0  0  0  0
  185.6020  179.7900  143.4950 O   0  0  0  0  0  1  0  0  0  0  0  0
  186.8010  177.5360  140.2370 C   0  0  0  0  0  2  0  0  0  0  0  0
  187.3860  175.1920  141.5000 O   0  0  0  0  0  0  0  0  0  0  0  0
  188.4220  174.2950  141.2130 C   0  0  1  0  0  3  0  0  0  0  0  0
  188.1590  172.9590  141.8840 C   0  0  0  0  0  1  0  0  0  0  0  0
  188.5970  174.1280  139.7030 C   0  0  0  0  0  2  0  0  0  0  0  0
  190.9150  173.8320  140.2320 O   0  0  0  0  0  1  0  0  0  0  0  0
  189.9210  173.4730  139.3230 C   0  0  0  0  0  2  0  0  0  0  0  0
  2  8  1  0  0  0  0
  3  7  1  0  0  0  0
  3 10  1  0  0  0  0
  5  3  2  0  0  0  0
  6  1  1  6  0  0  0
  6  2  1  0  0  0  0
  6  5  1  0  0  0  0
  8  4  2  0  0  0  0
  8  7  1  0  0  0  0
  9  2  2  0  0  0  0
 10 12  2  0  0  0  0
 11 13  1  0  0  0  0
 12 11  2  0  0  0  0
 13 14  2  0  0  0  0
 15 13  1  0  0  0  0
 16 15  1  0  0  0  0
 17  1  1  6  0  0  0
 18 23  1  0  0  0  0
 20 19  1  0  0  0  0
 20 23  1  0  0  0  0
 21 17  1  1  0  0  0
 21 18  1  0  0  0  0
 22 20  2  0  0  0  0
 23 24  1  6  0  0  0
 25 22  1  0  0  0  0
 25 21  1  0  0  0  0
 26 17  1  0  0  0  0
 27 26  1  0  0  0  0
 27 28  1  1  0  0  0
 29 27  1  0  0  0  0
 31 29  1  0  0  0  0
 31 30  1  0  0  0  0
M  END
>  <MODEL>
7

>  <REMARK>
 VINA RESULT:      -5.8      2.320      5.320
  Name = 
  10 active torsions:
  status: ('A' for Active; 'I' for Inactive)
    1  A    between atoms: C_2  and  C_15
    2  A    between atoms: C_2  and  C_20
    3  A    between atoms: C_2  and  O_25
    4  A    between atoms: C_4  and  C_13
    5  A    between atoms: O_6  and  C_10
    6  A    between atoms: C_7  and  C_11
    7  A    between atoms: C_10  and  C_18
    8  A    between atoms: C_13  and  C_19
    9  A    between atoms: C_16  and  C_20
   10  A    between atoms: C_19  and  O_25
                            x       y       z     vdW  Elec       q    Type
                         _______ _______ _______ _____ _____    ______ ____

>  <TORSDO>
F 10

$$$$
=
 OpenBabel11062421243D

 31 32  0  0  1  0  0  0  0  0999 V2000
  187.0870  176.0410  143.0950 C   0  0  0  0  0  2  0  0  0  0  0  0
  188.2550  174.9160  141.2340 C   0  0  0  0  0  0  0  0  0  0  0  0
  189.6370  173.8560  143.4860 C   0  0  0  0  0  0  0  0  0  0  0  0
  188.2170  172.7120  140.3580 O   0  0  0  0  0  0  0  0  0  0  0  0
  189.3300  175.1240  143.4490 N   0  0  0  0  0  0  0  0  0  0  0  0
  188.4450  175.7590  142.4620 C   0  0  2  0  0  3  0  0  0  0  0  0
  189.1970  172.9690  142.4540 N   0  0  0  0  0  2  0  0  0  0  0  0
  188.5350  173.4820  141.3020 C   0  0  0  0  0  0  0  0  0  0  0  0
  187.8170  175.4340  140.1730 O   0  0  0  0  0  0  0  0  0  0  0  0
  190.4800  173.3230  144.5630 C   0  0  0  0  0  3  0  0  0  0  0  0
  192.1400  174.8260  145.9050 C   0  0  0  0  0  3  0  0  0  0  0  0
  191.3100  174.0740  145.2360 C   0  0  0  0  0  0  0  0  0  0  0  0
  193.1110  175.6850  145.2220 C   0  0  0  0  0  0  0  0  0  0  0  0
  194.2730  175.7930  145.6960 O   0  0  0  0  0  0  0  0  0  0  0  0
  192.7470  176.3800  144.0660 O   0  0  0  0  0  0  0  0  0  0  0  0
  193.2700  176.0400  142.7910 C   0  0  0  0  0  1  0  0  0  0  0  0
  187.1380  177.1250  144.1760 C   0  0  1  0  0  3  0  0  0  0  0  0
  185.6410  179.1800  144.2510 C   0  0  0  0  0  2  0  0  0  0  0  0
  183.0850  177.9140  141.7190 O   0  0  0  0  0  1  0  0  0  0  0  0
  184.2970  178.2450  142.3090 C   0  0  0  0  0  0  0  0  0  0  0  0
  186.8610  178.5250  143.6090 C   0  0  2  0  0  3  0  0  0  0  0  0
  185.4020  178.2290  141.5570 C   0  0  0  0  0  3  0  0  0  0  0  0
  184.3390  178.5240  143.7920 C   0  0  2  0  0  3  0  0  0  0  0  0
  183.2610  179.3280  144.1600 O   0  0  0  0  0  1  0  0  0  0  0  0
  186.7630  178.5930  142.0810 C   0  0  0  0  0  2  0  0  0  0  0  0
  186.3050  176.8080  145.2590 O   0  0  0  0  0  0  0  0  0  0  0  0
  187.0130  177.1950  146.4020 C   0  0  1  0  0  3  0  0  0  0  0  0
  186.1040  177.1580  147.6180 C   0  0  0  0  0  1  0  0  0  0  0  0
  188.2440  176.3120  146.6090 C   0  0  0  0  0  2  0  0  0  0  0  0
  190.0670  177.5960  145.7330 O   0  0  0  0  0  1  0  0  0  0  0  0
  189.5080  177.1080  146.9140 C   0  0  0  0  0  2  0  0  0  0  0  0
  2  8  1  0  0  0  0
  2  6  1  0  0  0  0
  3 10  1  0  0  0  0
  4  8  2  0  0  0  0
  5  3  2  0  0  0  0
  6  1  1  1  0  0  0
  6  5  1  0  0  0  0
  7  3  1  0  0  0  0
  8  7  1  0  0  0  0
  9  2  2  0  0  0  0
 10 12  2  0  0  0  0
 12 11  2  0  0  0  0
 13 14  2  0  0  0  0
 13 11  1  0  0  0  0
 15 13  1  0  0  0  0
 16 15  1  0  0  0  0
 17  1  1  6  0  0  0
 17 26  1  0  0  0  0
 19 20  1  0  0  0  0
 20 23  1  0  0  0  0
 21 17  1  6  0  0  0
 21 18  1  0  0  0  0
 22 25  1  0  0  0  0
 22 20  2  0  0  0  0
 23 24  1  6  0  0  0
 23 18  1  0  0  0  0
 25 21  1  0  0  0  0
 26 27  1  0  0  0  0
 27 29  1  0  0  0  0
 27 28  1  1  0  0  0
 29 31  1  0  0  0  0
 30 31  1  0  0  0  0
M  END
>  <MODEL>
8

>  <REMARK>
 VINA RESULT:      -5.8      2.325      6.609
  Name = 
  10 active torsions:
  status: ('A' for Active; 'I' for Inactive)
    1  A    between atoms: C_2  and  C_15
    2  A    between atoms: C_2  and  C_20
    3  A    between atoms: C_2  and  O_25
    4  A    between atoms: C_4  and  C_13
    5  A    between atoms: O_6  and  C_10
    6  A    between atoms: C_7  and  C_11
    7  A    between atoms: C_10  and  C_18
    8  A    between atoms: C_13  and  C_19
    9  A    between atoms: C_16  and  C_20
   10  A    between atoms: C_19  and  O_25
                            x       y       z     vdW  Elec       q    Type
                         _______ _______ _______ _____ _____    ______ ____

>  <TORSDO>
F 10

$$$$
=
 OpenBabel11062421243D

 31 32  0  0  1  0  0  0  0  0999 V2000
  189.9460  177.5920  143.9790 C   0  0  0  0  0  2  0  0  0  0  0  0
  188.3180  177.5220  142.1240 C   0  0  0  0  0  0  0  0  0  0  0  0
  188.6170  174.7520  142.7130 C   0  0  0  0  0  0  0  0  0  0  0  0
  185.9820  177.1290  141.9970 O   0  0  0  0  0  0  0  0  0  0  0  0
  189.6650  175.5290  142.6900 N   0  0  0  0  0  0  0  0  0  0  0  0
  189.6380  176.9970  142.6090 C   0  0  2  0  0  3  0  0  0  0  0  0
  187.3040  175.2940  142.5490 N   0  0  0  0  0  2  0  0  0  0  0  0
  187.1330  176.6690  142.2190 C   0  0  0  0  0  0  0  0  0  0  0  0
  188.2280  178.6980  141.6840 O   0  0  0  0  0  0  0  0  0  0  0  0
  188.7670  173.3000  142.8650 C   0  0  0  0  0  3  0  0  0  0  0  0
  190.1180  171.8550  141.1600 C   0  0  0  0  0  3  0  0  0  0  0  0
  189.4440  172.5750  142.0130 C   0  0  0  0  0  0  0  0  0  0  0  0
  189.8610  171.9380  139.7200 C   0  0  0  0  0  0  0  0  0  0  0  0
  190.8020  171.7060  138.9150 O   0  0  0  0  0  0  0  0  0  0  0  0
  188.5900  172.2760  139.2490 O   0  0  0  0  0  0  0  0  0  0  0  0
  188.3230  173.5360  138.6510 C   0  0  0  0  0  1  0  0  0  0  0  0
  190.6170  176.5990  144.9320 C   0  0  1  0  0  3  0  0  0  0  0  0
  192.8590  176.0930  143.8410 C   0  0  0  0  0  2  0  0  0  0  0  0
  193.4450  172.7790  145.6360 O   0  0  0  0  0  1  0  0  0  0  0  0
  193.1510  174.1170  145.4100 C   0  0  0  0  0  0  0  0  0  0  0  0
  192.1400  176.7900  144.9930 C   0  0  2  0  0  3  0  0  0  0  0  0
  193.0690  174.9420  146.4590 C   0  0  0  0  0  3  0  0  0  0  0  0
  192.8470  174.5730  144.0040 C   0  0  2  0  0  3  0  0  0  0  0  0
  193.7530  174.0060  143.1080 O   0  0  0  0  0  1  0  0  0  0  0  0
  192.7820  176.4120  146.3330 C   0  0  0  0  0  2  0  0  0  0  0  0
  190.0190  176.6240  146.2010 O   0  0  0  0  0  0  0  0  0  0  0  0
  188.9380  175.7390  146.1240 C   0  0  1  0  0  3  0  0  0  0  0  0
  189.3200  174.3920  146.7110 C   0  0  0  0  0  1  0  0  0  0  0  0
  187.7080  176.3160  146.8270 C   0  0  0  0  0  2  0  0  0  0  0  0
  185.5660  176.5560  145.7810 O   0  0  0  0  0  1  0  0  0  0  0  0
  186.8240  177.1460  145.9020 C   0  0  0  0  0  2  0  0  0  0  0  0
  2  8  1  0  0  0  0
  2  6  1  0  0  0  0
  3 10  1  0  0  0  0
  4  8  2  0  0  0  0
  5  3  2  0  0  0  0
  6  5  1  0  0  0  0
  6  1  1  1  0  0  0
  7  3  1  0  0  0  0
  8  7  1  0  0  0  0
  9  2  2  0  0  0  0
 11 12  2  0  0  0  0
 12 10  2  0  0  0  0
 13 11  1  0  0  0  0
 14 13  2  0  0  0  0
 15 13  1  0  0  0  0
 16 15  1  0  0  0  0
 17  1  1  6  0  0  0
 17 26  1  0  0  0  0
 18 23  1  0  0  0  0
 18 21  1  0  0  0  0
 20 19  1  0  0  0  0
 20 22  2  0  0  0  0
 21 17  1  1  0  0  0
 21 25  1  0  0  0  0
 23 24  1  6  0  0  0
 23 20  1  0  0  0  0
 25 22  1  0  0  0  0
 27 26  1  0  0  0  0
 27 28  1  1  0  0  0
 27 29  1  0  0  0  0
 30 31  1  0  0  0  0
 31 29  1  0  0  0  0
M  END
>  <MODEL>
9

>  <REMARK>
 VINA RESULT:      -5.8      2.335      6.191
  Name = 
  10 active torsions:
  status: ('A' for Active; 'I' for Inactive)
    1  A    between atoms: C_2  and  C_15
    2  A    between atoms: C_2  and  C_20
    3  A    between atoms: C_2  and  O_25
    4  A    between atoms: C_4  and  C_13
    5  A    between atoms: O_6  and  C_10
    6  A    between atoms: C_7  and  C_11
    7  A    between atoms: C_10  and  C_18
    8  A    between atoms: C_13  and  C_19
    9  A    between atoms: C_16  and  C_20
   10  A    between atoms: C_19  and  O_25
                            x       y       z     vdW  Elec       q    Type
                         _______ _______ _______ _____ _____    ______ ____

>  <TORSDO>
F 10

$$$$
