=
 OpenBabel11062420133D

 52 54  0  0  1  0  0  0  0  0999 V2000
  191.0360  175.8440  146.6330 C   0  0  0  0  0  2  0  0  0  0  0  0
  193.8100  175.4280  146.0210 C   0  0  0  0  0  0  0  0  0  0  0  0
  194.8700  175.7560  146.6510 O   0  0  0  0  0  0  0  0  0  0  0  0
  192.5620  176.0440  146.5080 N   0  0  0  0  0  2  0  0  0  0  0  0
  194.1310  174.7500  144.6640 C   0  0  1  0  0  3  0  0  0  0  0  0
  194.9110  175.6580  143.6030 C   0  0  0  0  0  2  0  0  0  0  0  0
  196.3800  175.9030  143.7670 C   0  0  0  0  0  0  0  0  0  0  0  0
  196.9710  174.9170  144.4950 O   0  0  0  0  0  1  0  0  0  0  0  0
  197.1050  176.8760  143.1690 O   0  0  0  0  0  0  0  0  0  0  0  0
  193.9740  173.2380  144.0940 C   0  0  1  0  0  3  0  0  0  0  0  0
  195.9660  171.5740  143.5540 C   0  0  0  0  0  0  0  0  0  0  0  0
  196.3170  169.6780  144.9960 C   0  0  0  0  0  3  0  0  0  0  0  0
  196.5230  172.2820  142.4710 O   0  0  0  0  0  1  0  0  0  0  0  0
  194.8850  172.0240  144.3450 C   0  0  0  0  0  0  0  0  0  0  0  0
  196.6330  170.4050  143.8500 C   0  0  0  0  0  3  0  0  0  0  0  0
  195.2810  170.0980  145.8150 C   0  0  0  0  0  0  0  0  0  0  0  0
  194.9630  169.2940  147.0290 C   0  0  0  0  0  1  0  0  0  0  0  0
  194.5550  171.2120  145.5160 C   0  0  0  0  0  3  0  0  0  0  0  0
  192.5780  172.6890  144.5450 C   0  0  0  0  0  2  0  0  0  0  0  0
  191.5340  172.5350  143.4140 C   0  0  1  0  0  3  0  0  0  0  0  0
  190.3170  173.3240  143.5560 C   0  0  0  0  0  2  0  0  0  0  0  0
  189.6870  173.0610  144.8120 O   0  0  0  0  0  1  0  0  0  0  0  0
  192.0350  172.2760  141.9270 C   0  0  0  0  0  2  0  0  0  0  0  0
  189.6110  172.4420  139.8780 C   0  0  0  0  0  1  0  0  0  0  0  0
  191.9770  173.8530  140.0610 O   0  0  0  0  0  0  0  0  0  0  0  0
  190.9290  173.2620  140.9210 S   0  0  2  0  0  0  0  0  0  0  0  0
  189.3580  177.4630  146.6550 C   0  0  0  0  0  1  0  0  0  0  0  0
  190.1210  176.5910  145.6330 C   0  0  1  0  0  3  0  0  0  0  0  0
  190.8190  177.4270  144.4650 C   0  0  0  0  0  2  0  0  0  0  0  0
  188.7190  177.4920  143.0090 C   0  0  0  0  0  2  0  0  0  0  0  0
  190.0440  177.5620  143.1730 C   0  0  0  0  0  2  0  0  0  0  0  0
  188.2760  177.9440  141.6760 C   0  0  0  0  0  2  0  0  0  0  0  0
  187.2990  176.9930  141.1790 N   0  0  0  0  0  0  0  0  0  0  0  0
  187.8720  175.6300  141.2190 C   0  0  0  0  0  1  0  0  0  0  0  0
  186.0370  177.0560  141.9090 C   0  0  0  0  0  2  0  0  0  0  0  0
  185.5160  178.3080  142.5120 C   0  0  2  0  0  3  0  0  0  0  0  0
  185.3560  177.0610  144.5940 C   0  0  0  0  0  3  0  0  0  0  0  0
  185.5320  179.4280  144.8740 C   0  0  0  0  0  0  0  0  0  0  0  0
  185.6940  177.9860  146.8960 C   0  0  0  0  0  0  0  0  0  0  0  0
  185.6620  179.2650  146.3490 C   0  0  0  0  0  3  0  0  0  0  0  0
  185.8550  177.8420  148.2320 O   0  0  0  0  0  1  0  0  0  0  0  0
  185.3820  180.5920  144.3540 O   0  0  0  0  0  1  0  0  0  0  0  0
  185.5590  178.2290  144.0540 C   0  0  0  0  0  0  0  0  0  0  0  0
  185.5120  176.7530  146.0950 C   0  0  0  0  0  3  0  0  0  0  0  0
  184.0690  178.4590  142.0820 N   0  0  0  0  0  2  0  0  0  0  0  0
  184.0610  177.6640  139.9450 O   0  0  0  0  0  0  0  0  0  0  0  0
  183.4920  178.3000  140.8450 C   0  0  0  0  0  0  0  0  0  0  0  0
  182.3130  179.0700  140.4800 C   0  0  0  0  0  3  0  0  0  0  0  0
  181.0290  178.8960  140.8930 C   0  0  0  0  0  3  0  0  0  0  0  0
  180.4470  177.8740  141.8670 C   0  0  0  0  0  3  0  0  0  0  0  0
  179.0210  178.1260  142.5270 C   0  0  0  0  0  2  0  0  0  0  0  0
  178.9970  177.6530  141.1890 C   0  0  0  0  0  2  0  0  0  0  0  0
  2  4  1  0  0  0  0
  2  3  2  0  0  0  0
  4  1  1  0  0  0  0
  5  6  1  1  0  0  0
  5  2  1  0  0  0  0
  6  7  1  0  0  0  0
  7  8  1  0  0  0  0
  9  7  2  0  0  0  0
 10 14  1  0  0  0  0
 10 19  1  1  0  0  0
 10  5  1  0  0  0  0
 11 15  2  0  0  0  0
 11 14  1  0  0  0  0
 12 16  2  0  0  0  0
 13 11  1  0  0  0  0
 14 18  2  0  0  0  0
 15 12  1  0  0  0  0
 16 17  1  0  0  0  0
 18 16  1  0  0  0  0
 20 23  1  6  0  0  0
 20 21  1  0  0  0  0
 20 19  1  0  0  0  0
 21 22  1  0  0  0  0
 25 26  2  0  0  0  0
 26 24  1  6  0  0  0
 26 23  1  0  0  0  0
 28  1  1  0  0  0  0
 28 27  1  1  0  0  0
 29 28  1  0  0  0  0
 30 31  1  0  0  0  0
 31 29  1  0  0  0  0
 32 30  1  0  0  0  0
 33 34  1  0  0  0  0
 33 32  1  0  0  0  0
 33 35  1  0  0  0  0
 36 35  1  6  0  0  0
 36 43  1  0  0  0  0
 37 44  1  0  0  0  0
 38 40  2  0  0  0  0
 39 41  1  0  0  0  0
 40 39  1  0  0  0  0
 42 38  1  0  0  0  0
 43 37  2  0  0  0  0
 43 38  1  0  0  0  0
 44 39  2  0  0  0  0
 45 36  1  0  0  0  0
 46 47  2  0  0  0  0
 47 45  1  0  0  0  0
 48 47  1  0  0  0  0
 48 49  2  0  0  0  0
 49 50  1  0  0  0  0
 50 51  1  0  0  0  0
 52 50  1  0  0  0  0
 52 51  1  0  0  0  0
M  END
>  <MODEL>
1

>  <REMARK>
 VINA RESULT:      -6.5      0.000      0.000
  Name = 
  22 active torsions:
  status: ('A' for Active; 'I' for Inactive)
    1  A    between atoms: N_3  and  C_33
    2  A    between atoms: N_3  and  C_46
    3  A    between atoms: C_4  and  C_33
    4  A    between atoms: C_5  and  C_48
    5  A    between atoms: C_6  and  C_21
    6  A    between atoms: C_7  and  C_41
    7  A    between atoms: C_7  and  C_51
    8  A    between atoms: C_8  and  C_23
    9  A    between atoms: S_12  and  C_40
   10  A    between atoms: C_13  and  C_18
   11  A    between atoms: C_13  and  C_25
   12  A    between atoms: N_17  and  C_37
   13  A    between atoms: C_18  and  C_24
   14  A    between atoms: C_18  and  C_40
   15  A    between atoms: C_21  and  C_23
   16  A    between atoms: C_23  and  C_25
   17  A    between atoms: C_25  and  C_31
   18  A    between atoms: C_29  and  C_36
   19  A    between atoms: C_35  and  C_37
   20  A    between atoms: C_37  and  C_46
   21  A    between atoms: C_39  and  N_49
   22  A    between atoms: C_39  and  C_51
                            x       y       z     vdW  Elec       q    Type
                         _______ _______ _______ _____ _____    ______ ____

>  <TORSDO>
F 22

$$$$
=
 OpenBabel11062420133D

 52 54  0  0  1  0  0  0  0  0999 V2000
  197.1510  175.1770  141.9860 C   0  0  0  0  0  2  0  0  0  0  0  0
  194.9410  174.7100  140.2140 C   0  0  0  0  0  0  0  0  0  0  0  0
  194.4200  175.4410  139.3070 O   0  0  0  0  0  0  0  0  0  0  0  0
  195.9000  175.3880  141.1070 N   0  0  0  0  0  2  0  0  0  0  0  0
  194.1700  173.3770  140.3970 C   0  0  0  0  0  0  0  0  0  0  0  0
  194.9130  172.0670  139.8590 C   0  0  0  0  0  3  0  0  0  0  0  0
  196.2710  172.1810  139.2350 C   0  0  0  0  0  0  0  0  0  0  0  0
  196.1870  172.4420  137.9030 O   0  0  0  0  0  0  0  0  0  0  0  0
  197.4570  172.1850  139.8870 O   0  0  0  0  0  1  0  0  0  0  0  0
  192.7940  172.9650  141.1530 C   0  0  1  0  0  3  0  0  0  0  0  0
  190.3390  173.7860  141.7270 C   0  0  0  0  0  0  0  0  0  0  0  0
  188.7550  174.0480  139.9330 C   0  0  0  0  0  3  0  0  0  0  0  0
  190.5270  174.0130  143.1040 O   0  0  0  0  0  1  0  0  0  0  0  0
  191.3560  173.4010  140.8230 C   0  0  0  0  0  0  0  0  0  0  0  0
  189.0600  174.0570  141.2920 C   0  0  0  0  0  3  0  0  0  0  0  0
  189.7290  173.7040  139.0100 C   0  0  0  0  0  0  0  0  0  0  0  0
  189.3690  173.6970  137.5630 C   0  0  0  0  0  1  0  0  0  0  0  0
  190.9870  173.3630  139.4080 C   0  0  0  0  0  3  0  0  0  0  0  0
  192.6680  171.4030  141.1210 C   0  0  0  0  0  2  0  0  0  0  0  0
  191.8090  170.7890  142.2510 C   0  0  1  0  0  3  0  0  0  0  0  0
  190.6660  169.9910  141.8230 C   0  0  0  0  0  2  0  0  0  0  0  0
  190.6770  169.8140  140.4040 O   0  0  0  0  0  1  0  0  0  0  0  0
  192.5130  170.3390  143.6040 C   0  0  0  0  0  2  0  0  0  0  0  0
  195.0830  168.4820  143.4010 C   0  0  0  0  0  1  0  0  0  0  0  0
  194.7720  171.1400  144.0780 O   0  0  0  0  0  0  0  0  0  0  0  0
  194.2300  170.1270  143.1460 S   0  0  2  0  0  0  0  0  0  0  0  0
  196.8550  176.9960  143.4170 C   0  0  0  0  0  1  0  0  0  0  0  0
  197.0280  175.4630  143.5030 C   0  0  1  0  0  3  0  0  0  0  0  0
  195.8630  174.7260  144.3090 C   0  0  0  0  0  2  0  0  0  0  0  0
  193.8120  175.4750  145.6380 C   0  0  0  0  0  2  0  0  0  0  0  0
  194.6040  175.5260  144.5630 C   0  0  0  0  0  2  0  0  0  0  0  0
  192.8350  176.5790  145.6900 C   0  0  0  0  0  2  0  0  0  0  0  0
  191.5020  176.0030  145.6560 N   0  0  0  0  0  0  0  0  0  0  0  0
  191.1510  175.4940  147.0000 C   0  0  0  0  0  1  0  0  0  0  0  0
  190.4990  176.9450  145.1710 C   0  0  0  0  0  2  0  0  0  0  0  0
  189.0460  176.6400  145.1610 C   0  0  2  0  0  3  0  0  0  0  0  0
  188.9990  177.8780  143.0680 C   0  0  0  0  0  3  0  0  0  0  0  0
  187.1340  176.4200  143.3930 C   0  0  0  0  0  0  0  0  0  0  0  0
  187.4100  177.5040  141.1700 C   0  0  0  0  0  0  0  0  0  0  0  0
  186.6570  176.6860  142.0070 C   0  0  0  0  0  3  0  0  0  0  0  0
  186.9960  177.7080  139.8980 O   0  0  0  0  0  1  0  0  0  0  0  0
  186.4040  175.7670  144.2230 O   0  0  0  0  0  1  0  0  0  0  0  0
  188.4350  176.9390  143.7740 C   0  0  0  0  0  0  0  0  0  0  0  0
  188.6350  178.2120  141.6100 C   0  0  0  0  0  3  0  0  0  0  0  0
  188.3800  177.5440  146.1820 N   0  0  0  0  0  2  0  0  0  0  0  0
  187.1250  176.1070  147.4300 O   0  0  0  0  0  0  0  0  0  0  0  0
  187.3880  177.2720  147.0920 C   0  0  0  0  0  0  0  0  0  0  0  0
  186.4610  178.3160  147.5030 C   0  0  0  0  0  3  0  0  0  0  0  0
  185.4150  178.8380  146.8090 C   0  0  0  0  0  3  0  0  0  0  0  0
  184.8870  178.4770  145.4220 C   0  0  0  0  0  3  0  0  0  0  0  0
  184.2920  179.6120  144.4770 C   0  0  0  0  0  2  0  0  0  0  0  0
  185.7090  179.5490  144.5350 C   0  0  0  0  0  2  0  0  0  0  0  0
  1 28  1  0  0  0  0
  2  5  1  0  0  0  0
  2  4  1  0  0  0  0
  3  2  2  0  0  0  0
  4  1  1  0  0  0  0
  5 10  1  0  0  0  0
  6  5  2  0  0  0  0
  7  6  1  0  0  0  0
  7  9  1  0  0  0  0
  8  7  2  0  0  0  0
 10 19  1  6  0  0  0
 11 13  1  0  0  0  0
 12 15  2  0  0  0  0
 14 10  1  0  0  0  0
 14 11  2  0  0  0  0
 15 11  1  0  0  0  0
 16 18  2  0  0  0  0
 16 12  1  0  0  0  0
 17 16  1  0  0  0  0
 18 14  1  0  0  0  0
 20 19  1  6  0  0  0
 20 23  1  0  0  0  0
 21 20  1  0  0  0  0
 22 21  1  0  0  0  0
 26 24  1  1  0  0  0
 26 23  1  0  0  0  0
 26 25  2  0  0  0  0
 28 27  1  6  0  0  0
 28 29  1  0  0  0  0
 29 31  1  0  0  0  0
 30 32  1  0  0  0  0
 31 30  1  0  0  0  0
 33 32  1  0  0  0  0
 33 34  1  0  0  0  0
 35 33  1  0  0  0  0
 36 35  1  6  0  0  0
 36 45  1  0  0  0  0
 37 43  1  0  0  0  0
 38 43  2  0  0  0  0
 38 42  1  0  0  0  0
 39 44  1  0  0  0  0
 39 40  2  0  0  0  0
 40 38  1  0  0  0  0
 41 39  1  0  0  0  0
 43 36  1  0  0  0  0
 44 37  2  0  0  0  0
 45 47  1  0  0  0  0
 47 46  2  0  0  0  0
 47 48  1  0  0  0  0
 49 48  2  0  0  0  0
 50 49  1  0  0  0  0
 51 52  1  0  0  0  0
 51 50  1  0  0  0  0
 52 50  1  0  0  0  0
M  END
>  <MODEL>
2

>  <REMARK>
 VINA RESULT:      -6.3      3.077      6.427
  Name = 
  22 active torsions:
  status: ('A' for Active; 'I' for Inactive)
    1  A    between atoms: N_3  and  C_33
    2  A    between atoms: N_3  and  C_46
    3  A    between atoms: C_4  and  C_33
    4  A    between atoms: C_5  and  C_48
    5  A    between atoms: C_6  and  C_21
    6  A    between atoms: C_7  and  C_41
    7  A    between atoms: C_7  and  C_51
    8  A    between atoms: C_8  and  C_23
    9  A    between atoms: S_12  and  C_40
   10  A    between atoms: C_13  and  C_18
   11  A    between atoms: C_13  and  C_25
   12  A    between atoms: N_17  and  C_37
   13  A    between atoms: C_18  and  C_24
   14  A    between atoms: C_18  and  C_40
   15  A    between atoms: C_21  and  C_23
   16  A    between atoms: C_23  and  C_25
   17  A    between atoms: C_25  and  C_31
   18  A    between atoms: C_29  and  C_36
   19  A    between atoms: C_35  and  C_37
   20  A    between atoms: C_37  and  C_46
   21  A    between atoms: C_39  and  N_49
   22  A    between atoms: C_39  and  C_51
                            x       y       z     vdW  Elec       q    Type
                         _______ _______ _______ _____ _____    ______ ____

>  <TORSDO>
F 22

$$$$
=
 OpenBabel11062420133D

 52 54  0  0  1  0  0  0  0  0999 V2000
  193.1160  175.7850  146.0720 C   0  0  0  0  0  2  0  0  0  0  0  0
  193.3030  175.6030  143.2140 C   0  0  0  0  0  0  0  0  0  0  0  0
  192.7160  176.2570  142.2870 O   0  0  0  0  0  0  0  0  0  0  0  0
  192.7580  175.7910  144.5700 N   0  0  0  0  0  2  0  0  0  0  0  0
  194.2120  174.4840  142.6430 C   0  0  1  0  0  3  0  0  0  0  0  0
  195.7510  174.8750  142.4450 C   0  0  0  0  0  2  0  0  0  0  0  0
  196.4430  175.7250  143.4660 C   0  0  0  0  0  0  0  0  0  0  0  0
  196.5400  175.0860  144.6630 O   0  0  0  0  0  1  0  0  0  0  0  0
  197.0460  176.9160  143.2460 O   0  0  0  0  0  0  0  0  0  0  0  0
  193.9910  172.9100  142.3120 C   0  0  1  0  0  3  0  0  0  0  0  0
  192.5120  172.8350  140.1140 C   0  0  0  0  0  0  0  0  0  0  0  0
  191.1250  170.9070  139.7160 C   0  0  0  0  0  3  0  0  0  0  0  0
  192.9730  174.0290  139.5280 O   0  0  0  0  0  1  0  0  0  0  0  0
  193.0130  172.2730  141.3110 C   0  0  0  0  0  0  0  0  0  0  0  0
  191.5570  172.1830  139.3630 C   0  0  0  0  0  3  0  0  0  0  0  0
  191.6110  170.3080  140.8660 C   0  0  0  0  0  0  0  0  0  0  0  0
  191.1220  168.9440  141.2200 C   0  0  0  0  0  1  0  0  0  0  0  0
  192.5040  170.9500  141.6710 C   0  0  0  0  0  3  0  0  0  0  0  0
  195.3620  172.3130  141.8430 C   0  0  0  0  0  2  0  0  0  0  0  0
  195.9150  171.1650  142.7190 C   0  0  1  0  0  3  0  0  0  0  0  0
  196.3550  169.9710  142.0070 C   0  0  0  0  0  2  0  0  0  0  0  0
  195.9330  170.0140  140.6420 O   0  0  0  0  0  1  0  0  0  0  0  0
  196.7070  171.5200  144.0530 C   0  0  0  0  0  2  0  0  0  0  0  0
  194.1310  169.9300  145.0170 C   0  0  0  0  0  1  0  0  0  0  0  0
  195.0850  172.4480  145.6270 O   0  0  0  0  0  0  0  0  0  0  0  0
  195.5690  171.0760  145.3610 S   0  0  2  0  0  0  0  0  0  0  0  0
  191.9510  176.6610  147.8930 C   0  0  0  0  0  1  0  0  0  0  0  0
  192.0220  175.3510  147.0780 C   0  0  1  0  0  3  0  0  0  0  0  0
  190.6140  174.8780  146.4910 C   0  0  0  0  0  2  0  0  0  0  0  0
  188.3560  175.9750  146.9720 C   0  0  0  0  0  2  0  0  0  0  0  0
  189.5440  175.9390  146.3600 C   0  0  0  0  0  2  0  0  0  0  0  0
  187.6780  177.2790  146.8420 C   0  0  0  0  0  2  0  0  0  0  0  0
  186.2470  177.0400  146.7920 N   0  0  0  0  0  0  0  0  0  0  0  0
  185.5380  178.1590  147.4520 C   0  0  0  0  0  1  0  0  0  0  0  0
  185.7620  176.8380  145.4310 C   0  0  0  0  0  2  0  0  0  0  0  0
  186.3160  177.5660  144.2610 C   0  0  2  0  0  3  0  0  0  0  0  0
  185.5250  177.6570  141.9630 C   0  0  0  0  0  3  0  0  0  0  0  0
  183.9890  178.5370  143.5700 C   0  0  0  0  0  0  0  0  0  0  0  0
  183.2070  178.2510  141.2250 C   0  0  0  0  0  0  0  0  0  0  0  0
  182.9420  178.6830  142.5210 C   0  0  0  0  0  3  0  0  0  0  0  0
  182.2380  178.3460  140.2860 O   0  0  0  0  0  1  0  0  0  0  0  0
  183.8170  179.0330  144.7420 O   0  0  0  0  0  1  0  0  0  0  0  0
  185.2120  177.8380  143.2150 C   0  0  0  0  0  0  0  0  0  0  0  0
  184.5240  177.7260  140.7950 C   0  0  0  0  0  3  0  0  0  0  0  0
  187.3690  176.6790  143.6260 N   0  0  0  0  0  2  0  0  0  0  0  0
  189.2000  178.0320  143.4960 O   0  0  0  0  0  0  0  0  0  0  0  0
  188.6200  176.9910  143.1510 C   0  0  0  0  0  0  0  0  0  0  0  0
  189.1980  176.2340  142.0500 C   0  0  0  0  0  3  0  0  0  0  0  0
  189.2350  174.8850  141.8800 C   0  0  0  0  0  3  0  0  0  0  0  0
  188.6710  173.7750  142.7630 C   0  0  0  0  0  3  0  0  0  0  0  0
  189.2060  172.2840  142.6050 C   0  0  0  0  0  2  0  0  0  0  0  0
  190.0520  173.1590  143.3350 C   0  0  0  0  0  2  0  0  0  0  0  0
  1 28  1  0  0  0  0
  2  4  1  0  0  0  0
  3  2  2  0  0  0  0
  4  1  1  0  0  0  0
  5  6  1  1  0  0  0
  5  2  1  0  0  0  0
  6  7  1  0  0  0  0
  7  8  1  0  0  0  0
  9  7  2  0  0  0  0
 10 19  1  6  0  0  0
 10  5  1  0  0  0  0
 11 14  1  0  0  0  0
 12 16  2  0  0  0  0
 13 11  1  0  0  0  0
 14 18  2  0  0  0  0
 14 10  1  0  0  0  0
 15 12  1  0  0  0  0
 15 11  2  0  0  0  0
 16 17  1  0  0  0  0
 16 18  1  0  0  0  0
 20 19  1  6  0  0  0
 20 23  1  0  0  0  0
 21 20  1  0  0  0  0
 22 21  1  0  0  0  0
 23 26  1  0  0  0  0
 26 24  1  6  0  0  0
 26 25  2  0  0  0  0
 28 27  1  1  0  0  0
 29 28  1  0  0  0  0
 31 29  1  0  0  0  0
 31 30  1  0  0  0  0
 32 30  1  0  0  0  0
 33 32  1  0  0  0  0
 33 34  1  0  0  0  0
 35 33  1  0  0  0  0
 36 35  1  1  0  0  0
 37 43  1  0  0  0  0
 38 42  1  0  0  0  0
 39 40  2  0  0  0  0
 40 38  1  0  0  0  0
 41 39  1  0  0  0  0
 43 38  2  0  0  0  0
 43 36  1  0  0  0  0
 44 39  1  0  0  0  0
 44 37  2  0  0  0  0
 45 36  1  0  0  0  0
 47 46  2  0  0  0  0
 47 45  1  0  0  0  0
 48 47  1  0  0  0  0
 49 48  2  0  0  0  0
 49 50  1  0  0  0  0
 50 52  1  0  0  0  0
 51 50  1  0  0  0  0
 51 52  1  0  0  0  0
M  END
>  <MODEL>
3

>  <REMARK>
 VINA RESULT:      -6.3      2.265      5.578
  Name = 
  22 active torsions:
  status: ('A' for Active; 'I' for Inactive)
    1  A    between atoms: N_3  and  C_33
    2  A    between atoms: N_3  and  C_46
    3  A    between atoms: C_4  and  C_33
    4  A    between atoms: C_5  and  C_48
    5  A    between atoms: C_6  and  C_21
    6  A    between atoms: C_7  and  C_41
    7  A    between atoms: C_7  and  C_51
    8  A    between atoms: C_8  and  C_23
    9  A    between atoms: S_12  and  C_40
   10  A    between atoms: C_13  and  C_18
   11  A    between atoms: C_13  and  C_25
   12  A    between atoms: N_17  and  C_37
   13  A    between atoms: C_18  and  C_24
   14  A    between atoms: C_18  and  C_40
   15  A    between atoms: C_21  and  C_23
   16  A    between atoms: C_23  and  C_25
   17  A    between atoms: C_25  and  C_31
   18  A    between atoms: C_29  and  C_36
   19  A    between atoms: C_35  and  C_37
   20  A    between atoms: C_37  and  C_46
   21  A    between atoms: C_39  and  N_49
   22  A    between atoms: C_39  and  C_51
                            x       y       z     vdW  Elec       q    Type
                         _______ _______ _______ _____ _____    ______ ____

>  <TORSDO>
F 22

$$$$
=
 OpenBabel11062420133D

 52 54  0  0  1  0  0  0  0  0999 V2000
  196.5820  175.2810  144.2070 C   0  0  0  0  0  2  0  0  0  0  0  0
  196.4140  174.9870  141.3560 C   0  0  0  0  0  0  0  0  0  0  0  0
  196.2410  175.8480  140.4290 O   0  0  0  0  0  0  0  0  0  0  0  0
  196.1790  175.4730  142.7290 N   0  0  0  0  0  2  0  0  0  0  0  0
  196.4720  173.5410  140.7990 C   0  0  1  0  0  3  0  0  0  0  0  0
  197.6860  173.2300  139.8040 C   0  0  0  0  0  2  0  0  0  0  0  0
  197.4520  173.2110  138.3240 C   0  0  0  0  0  0  0  0  0  0  0  0
  197.5580  171.9520  137.8190 O   0  0  0  0  0  1  0  0  0  0  0  0
  197.0390  174.2500  137.5620 O   0  0  0  0  0  0  0  0  0  0  0  0
  195.6370  172.1820  141.1010 C   0  0  1  0  0  3  0  0  0  0  0  0
  195.7220  170.9440  143.4430 C   0  0  0  0  0  0  0  0  0  0  0  0
  193.7140  170.8280  144.7670 C   0  0  0  0  0  3  0  0  0  0  0  0
  197.1030  170.6670  143.4670 O   0  0  0  0  0  1  0  0  0  0  0  0
  195.0630  171.6920  142.4410 C   0  0  0  0  0  0  0  0  0  0  0  0
  195.0480  170.4870  144.5550 C   0  0  0  0  0  3  0  0  0  0  0  0
  193.0380  171.5830  143.8230 C   0  0  0  0  0  0  0  0  0  0  0  0
  191.6090  171.9260  144.0760 C   0  0  0  0  0  1  0  0  0  0  0  0
  193.6520  171.9950  142.6790 C   0  0  0  0  0  3  0  0  0  0  0  0
  194.3640  172.1790  140.1880 C   0  0  0  0  0  2  0  0  0  0  0  0
  194.3180  171.0540  139.1270 C   0  0  1  0  0  3  0  0  0  0  0  0
  195.1570  169.8920  139.3900 C   0  0  0  0  0  2  0  0  0  0  0  0
  194.4570  168.9350  140.1900 O   0  0  0  0  0  1  0  0  0  0  0  0
  192.9590  170.7790  138.3470 C   0  0  0  0  0  2  0  0  0  0  0  0
  191.5780  172.1220  135.8210 C   0  0  0  0  0  1  0  0  0  0  0  0
  194.2000  172.0690  136.6840 O   0  0  0  0  0  0  0  0  0  0  0  0
  192.8230  172.1600  137.2160 S   0  0  2  0  0  0  0  0  0  0  0  0
  197.2040  173.7050  145.8100 C   0  0  0  0  0  1  0  0  0  0  0  0
  195.9590  174.0940  144.9810 C   0  0  1  0  0  3  0  0  0  0  0  0
  194.6590  174.3790  145.8640 C   0  0  0  0  0  2  0  0  0  0  0  0
  193.1260  176.2670  145.0780 C   0  0  0  0  0  2  0  0  0  0  0  0
  193.4700  174.9770  145.1460 C   0  0  0  0  0  2  0  0  0  0  0  0
  192.0810  176.5350  144.0720 C   0  0  0  0  0  2  0  0  0  0  0  0
  191.2570  177.6270  144.5570 N   0  0  0  0  0  0  0  0  0  0  0  0
  191.2960  178.7420  143.5850 C   0  0  0  0  0  1  0  0  0  0  0  0
  189.8850  177.2130  144.8300 C   0  0  0  0  0  2  0  0  0  0  0  0
  188.8330  177.1690  143.7830 C   0  0  2  0  0  3  0  0  0  0  0  0
  187.0490  176.7250  145.3750 C   0  0  0  0  0  3  0  0  0  0  0  0
  186.5070  178.3590  143.7170 C   0  0  0  0  0  0  0  0  0  0  0  0
  184.9260  178.0300  145.6100 C   0  0  0  0  0  0  0  0  0  0  0  0
  185.2260  178.6700  144.4110 C   0  0  0  0  0  3  0  0  0  0  0  0
  183.7820  178.3480  146.2590 O   0  0  0  0  0  1  0  0  0  0  0  0
  186.7570  178.8430  142.5540 O   0  0  0  0  0  1  0  0  0  0  0  0
  187.4460  177.4780  144.3890 C   0  0  0  0  0  0  0  0  0  0  0  0
  185.7760  176.9730  146.2050 C   0  0  0  0  0  3  0  0  0  0  0  0
  188.8060  175.7600  143.2200 N   0  0  0  0  0  2  0  0  0  0  0  0
  187.9310  176.0350  141.1320 O   0  0  0  0  0  0  0  0  0  0  0  0
  188.2350  175.2780  142.0670 C   0  0  0  0  0  0  0  0  0  0  0  0
  187.7510  173.9070  142.0050 C   0  0  0  0  0  3  0  0  0  0  0  0
  188.1510  172.9070  141.1740 C   0  0  0  0  0  3  0  0  0  0  0  0
  189.2250  172.9110  140.0890 C   0  0  0  0  0  3  0  0  0  0  0  0
  190.7630  172.9930  140.4930 C   0  0  0  0  0  2  0  0  0  0  0  0
  190.1640  171.7150  140.6370 C   0  0  0  0  0  2  0  0  0  0  0  0
  1 28  1  0  0  0  0
  2  4  1  0  0  0  0
  3  2  2  0  0  0  0
  4  1  1  0  0  0  0
  5  6  1  1  0  0  0
  5 10  1  0  0  0  0
  5  2  1  0  0  0  0
  7  6  1  0  0  0  0
  8  7  1  0  0  0  0
  9  7  2  0  0  0  0
 10 19  1  6  0  0  0
 10 14  1  0  0  0  0
 11 13  1  0  0  0  0
 11 15  1  0  0  0  0
 14 18  1  0  0  0  0
 14 11  2  0  0  0  0
 15 12  2  0  0  0  0
 16 17  1  0  0  0  0
 16 12  1  0  0  0  0
 18 16  2  0  0  0  0
 20 23  1  1  0  0  0
 20 21  1  0  0  0  0
 20 19  1  0  0  0  0
 21 22  1  0  0  0  0
 25 26  2  0  0  0  0
 26 24  1  6  0  0  0
 26 23  1  0  0  0  0
 28 27  1  1  0  0  0
 28 29  1  0  0  0  0
 30 31  1  0  0  0  0
 31 29  1  0  0  0  0
 32 33  1  0  0  0  0
 32 30  1  0  0  0  0
 33 35  1  0  0  0  0
 34 33  1  0  0  0  0
 36 43  1  0  0  0  0
 36 35  1  1  0  0  0
 37 44  1  0  0  0  0
 38 43  1  0  0  0  0
 38 40  2  0  0  0  0
 39 44  2  0  0  0  0
 39 41  1  0  0  0  0
 40 39  1  0  0  0  0
 42 38  1  0  0  0  0
 43 37  2  0  0  0  0
 45 36  1  0  0  0  0
 46 47  2  0  0  0  0
 47 45  1  0  0  0  0
 48 47  1  0  0  0  0
 49 48  2  0  0  0  0
 50 51  1  0  0  0  0
 50 52  1  0  0  0  0
 50 49  1  0  0  0  0
 51 52  1  0  0  0  0
M  END
>  <MODEL>
4

>  <REMARK>
 VINA RESULT:      -6.3      3.040      5.605
  Name = 
  22 active torsions:
  status: ('A' for Active; 'I' for Inactive)
    1  A    between atoms: N_3  and  C_33
    2  A    between atoms: N_3  and  C_46
    3  A    between atoms: C_4  and  C_33
    4  A    between atoms: C_5  and  C_48
    5  A    between atoms: C_6  and  C_21
    6  A    between atoms: C_7  and  C_41
    7  A    between atoms: C_7  and  C_51
    8  A    between atoms: C_8  and  C_23
    9  A    between atoms: S_12  and  C_40
   10  A    between atoms: C_13  and  C_18
   11  A    between atoms: C_13  and  C_25
   12  A    between atoms: N_17  and  C_37
   13  A    between atoms: C_18  and  C_24
   14  A    between atoms: C_18  and  C_40
   15  A    between atoms: C_21  and  C_23
   16  A    between atoms: C_23  and  C_25
   17  A    between atoms: C_25  and  C_31
   18  A    between atoms: C_29  and  C_36
   19  A    between atoms: C_35  and  C_37
   20  A    between atoms: C_37  and  C_46
   21  A    between atoms: C_39  and  N_49
   22  A    between atoms: C_39  and  C_51
                            x       y       z     vdW  Elec       q    Type
                         _______ _______ _______ _____ _____    ______ ____

>  <TORSDO>
F 22

$$$$
=
 OpenBabel11062420133D

 52 54  0  0  1  0  0  0  0  0999 V2000
  197.3630  175.5480  141.5630 C   0  0  0  0  0  2  0  0  0  0  0  0
  196.2410  173.5550  139.8290 C   0  0  0  0  0  0  0  0  0  0  0  0
  196.7920  172.7430  139.0110 O   0  0  0  0  0  0  0  0  0  0  0  0
  197.1150  174.6200  140.3550 N   0  0  0  0  0  2  0  0  0  0  0  0
  194.6940  173.4520  139.7920 C   0  0  1  0  0  3  0  0  0  0  0  0
  193.9590  174.4370  138.7690 C   0  0  0  0  0  2  0  0  0  0  0  0
  194.4200  174.5160  137.3450 C   0  0  0  0  0  0  0  0  0  0  0  0
  193.8230  173.5680  136.5740 O   0  0  0  0  0  0  0  0  0  0  0  0
  195.2090  175.4750  136.8080 O   0  0  0  0  0  1  0  0  0  0  0  0
  193.6140  172.4510  140.4740 C   0  0  1  0  0  3  0  0  0  0  0  0
  194.1590  171.4340  142.8610 C   0  0  0  0  0  0  0  0  0  0  0  0
  192.5950  171.7880  144.6570 C   0  0  0  0  0  3  0  0  0  0  0  0
  195.4380  170.9240  142.5680 O   0  0  0  0  0  1  0  0  0  0  0  0
  193.3650  172.1910  141.9700 C   0  0  0  0  0  0  0  0  0  0  0  0
  193.7560  171.2030  144.1580 C   0  0  0  0  0  3  0  0  0  0  0  0
  191.8010  172.5610  143.8250 C   0  0  0  0  0  0  0  0  0  0  0  0
  190.5610  173.1680  144.3870 C   0  0  0  0  0  1  0  0  0  0  0  0
  192.1310  172.7550  142.5170 C   0  0  0  0  0  3  0  0  0  0  0  0
  192.1860  172.8640  139.9800 C   0  0  0  0  0  2  0  0  0  0  0  0
  191.4440  171.7960  139.1420 C   0  0  1  0  0  3  0  0  0  0  0  0
  190.5180  170.9400  139.8730 C   0  0  0  0  0  2  0  0  0  0  0  0
  190.7490  169.5640  139.5620 O   0  0  0  0  0  1  0  0  0  0  0  0
  191.0590  172.1230  137.6340 C   0  0  0  0  0  2  0  0  0  0  0  0
  188.9430  173.8830  139.2220 C   0  0  0  0  0  1  0  0  0  0  0  0
  189.2760  173.3760  136.5290 O   0  0  0  0  0  0  0  0  0  0  0  0
  190.0700  173.6100  137.7540 S   0  0  2  0  0  0  0  0  0  0  0  0
  195.5360  176.8970  141.0300 C   0  0  0  0  0  1  0  0  0  0  0  0
  196.1320  176.1770  142.2610 C   0  0  1  0  0  3  0  0  0  0  0  0
  195.1070  175.1950  142.9930 C   0  0  0  0  0  2  0  0  0  0  0  0
  193.8580  175.6570  145.1750 C   0  0  0  0  0  2  0  0  0  0  0  0
  194.0550  175.8430  143.8660 C   0  0  0  0  0  2  0  0  0  0  0  0
  192.9380  176.6470  145.7680 C   0  0  0  0  0  2  0  0  0  0  0  0
  191.6720  175.9870  146.0280 N   0  0  0  0  0  0  0  0  0  0  0  0
  191.7880  175.1650  147.2530 C   0  0  0  0  0  1  0  0  0  0  0  0
  190.5610  176.9270  146.1280 C   0  0  0  0  0  2  0  0  0  0  0  0
  189.1440  176.5230  145.9500 C   0  0  2  0  0  3  0  0  0  0  0  0
  188.0470  175.6500  143.9620 C   0  0  0  0  0  3  0  0  0  0  0  0
  189.2970  177.6550  143.5990 C   0  0  0  0  0  0  0  0  0  0  0  0
  187.8500  176.8180  141.7560 C   0  0  0  0  0  0  0  0  0  0  0  0
  188.7750  177.7540  142.2080 C   0  0  0  0  0  3  0  0  0  0  0  0
  187.3470  176.9370  140.5060 O   0  0  0  0  0  1  0  0  0  0  0  0
  190.2360  178.4320  144.0040 O   0  0  0  0  0  1  0  0  0  0  0  0
  188.7240  176.6420  144.4680 C   0  0  0  0  0  0  0  0  0  0  0  0
  187.4110  175.6530  142.5600 C   0  0  0  0  0  3  0  0  0  0  0  0
  188.2890  177.4720  146.7680 N   0  0  0  0  0  2  0  0  0  0  0  0
  186.3760  176.2880  147.1380 O   0  0  0  0  0  0  0  0  0  0  0  0
  186.9720  177.3760  147.1460 C   0  0  0  0  0  0  0  0  0  0  0  0
  186.1720  178.5770  147.3360 C   0  0  0  0  0  3  0  0  0  0  0  0
  185.6160  179.3810  146.3900 C   0  0  0  0  0  3  0  0  0  0  0  0
  185.6400  179.2570  144.8690 C   0  0  0  0  0  3  0  0  0  0  0  0
  185.0160  177.9730  144.1650 C   0  0  0  0  0  2  0  0  0  0  0  0
  184.0770  178.9440  144.6000 C   0  0  0  0  0  2  0  0  0  0  0  0
  1 28  1  0  0  0  0
  2  4  1  0  0  0  0
  3  2  2  0  0  0  0
  4  1  1  0  0  0  0
  5  6  1  6  0  0  0
  5  2  1  0  0  0  0
  5 10  1  0  0  0  0
  7  6  1  0  0  0  0
  8  7  2  0  0  0  0
  9  7  1  0  0  0  0
 10 19  1  1  0  0  0
 10 14  1  0  0  0  0
 11 15  1  0  0  0  0
 13 11  1  0  0  0  0
 14 18  1  0  0  0  0
 14 11  2  0  0  0  0
 15 12  2  0  0  0  0
 16 17  1  0  0  0  0
 16 12  1  0  0  0  0
 18 16  2  0  0  0  0
 20 23  1  6  0  0  0
 20 21  1  0  0  0  0
 20 19  1  0  0  0  0
 22 21  1  0  0  0  0
 23 26  1  0  0  0  0
 25 26  2  0  0  0  0
 26 24  1  1  0  0  0
 28 27  1  6  0  0  0
 28 29  1  0  0  0  0
 29 31  1  0  0  0  0
 30 32  1  0  0  0  0
 31 30  1  0  0  0  0
 32 33  1  0  0  0  0
 33 35  1  0  0  0  0
 33 34  1  0  0  0  0
 36 35  1  6  0  0  0
 36 45  1  0  0  0  0
 37 43  1  0  0  0  0
 38 42  1  0  0  0  0
 38 43  2  0  0  0  0
 39 40  2  0  0  0  0
 39 44  1  0  0  0  0
 40 38  1  0  0  0  0
 41 39  1  0  0  0  0
 43 36  1  0  0  0  0
 44 37  2  0  0  0  0
 45 47  1  0  0  0  0
 46 47  2  0  0  0  0
 47 48  1  0  0  0  0
 49 48  2  0  0  0  0
 50 49  1  0  0  0  0
 51 52  1  0  0  0  0
 51 50  1  0  0  0  0
 52 50  1  0  0  0  0
M  END
>  <MODEL>
5

>  <REMARK>
 VINA RESULT:      -6.1      3.089      5.796
  Name = 
  22 active torsions:
  status: ('A' for Active; 'I' for Inactive)
    1  A    between atoms: N_3  and  C_33
    2  A    between atoms: N_3  and  C_46
    3  A    between atoms: C_4  and  C_33
    4  A    between atoms: C_5  and  C_48
    5  A    between atoms: C_6  and  C_21
    6  A    between atoms: C_7  and  C_41
    7  A    between atoms: C_7  and  C_51
    8  A    between atoms: C_8  and  C_23
    9  A    between atoms: S_12  and  C_40
   10  A    between atoms: C_13  and  C_18
   11  A    between atoms: C_13  and  C_25
   12  A    between atoms: N_17  and  C_37
   13  A    between atoms: C_18  and  C_24
   14  A    between atoms: C_18  and  C_40
   15  A    between atoms: C_21  and  C_23
   16  A    between atoms: C_23  and  C_25
   17  A    between atoms: C_25  and  C_31
   18  A    between atoms: C_29  and  C_36
   19  A    between atoms: C_35  and  C_37
   20  A    between atoms: C_37  and  C_46
   21  A    between atoms: C_39  and  N_49
   22  A    between atoms: C_39  and  C_51
                            x       y       z     vdW  Elec       q    Type
                         _______ _______ _______ _____ _____    ______ ____

>  <TORSDO>
F 22

$$$$
=
 OpenBabel11062420133D

 52 54  0  0  1  0  0  0  0  0999 V2000
  189.9100  174.0250  145.4090 C   0  0  0  0  0  2  0  0  0  0  0  0
  190.5550  172.4540  143.0950 C   0  0  0  0  0  0  0  0  0  0  0  0
  189.8540  171.6370  142.4090 O   0  0  0  0  0  0  0  0  0  0  0  0
  189.9680  172.8760  144.3790 N   0  0  0  0  0  2  0  0  0  0  0  0
  192.0200  172.5230  142.5900 C   0  0  1  0  0  3  0  0  0  0  0  0
  192.2350  172.1960  141.0390 C   0  0  0  0  0  2  0  0  0  0  0  0
  191.7640  173.1670  139.9990 C   0  0  0  0  0  0  0  0  0  0  0  0
  192.6700  174.1630  139.8000 O   0  0  0  0  0  1  0  0  0  0  0  0
  190.6640  173.0420  139.2220 O   0  0  0  0  0  0  0  0  0  0  0  0
  193.4220  172.9950  143.2580 C   0  0  1  0  0  3  0  0  0  0  0  0
  194.7220  175.3050  143.2240 C   0  0  0  0  0  0  0  0  0  0  0  0
  194.4030  176.8420  145.0500 C   0  0  0  0  0  3  0  0  0  0  0  0
  195.3180  175.1740  141.9550 O   0  0  0  0  0  1  0  0  0  0  0  0
  193.8060  174.3880  143.7880 C   0  0  0  0  0  0  0  0  0  0  0  0
  195.0430  176.4820  143.8660 C   0  0  0  0  0  3  0  0  0  0  0  0
  193.4780  175.9850  145.6230 C   0  0  0  0  0  0  0  0  0  0  0  0
  192.8160  176.3970  146.8930 C   0  0  0  0  0  1  0  0  0  0  0  0
  193.1860  174.7820  145.0520 C   0  0  0  0  0  3  0  0  0  0  0  0
  193.6950  172.0920  144.5100 C   0  0  0  0  0  2  0  0  0  0  0  0
  195.1350  171.5400  144.6210 C   0  0  1  0  0  3  0  0  0  0  0  0
  195.4350  170.7740  145.8250 C   0  0  0  0  0  2  0  0  0  0  0  0
  196.8410  170.5390  145.9380 O   0  0  0  0  0  1  0  0  0  0  0  0
  195.9020  171.0990  143.2990 C   0  0  0  0  0  2  0  0  0  0  0  0
  197.4990  173.5930  144.4510 C   0  0  0  0  0  1  0  0  0  0  0  0
  197.1820  172.6260  141.8840 O   0  0  0  0  0  0  0  0  0  0  0  0
  197.3530  172.1470  143.2730 S   0  0  2  0  0  0  0  0  0  0  0  0
  188.8630  175.8770  146.3640 C   0  0  0  0  0  1  0  0  0  0  0  0
  189.2760  175.3660  144.9660 C   0  0  1  0  0  3  0  0  0  0  0  0
  190.1880  176.3890  144.1480 C   0  0  0  0  0  2  0  0  0  0  0  0
  188.7450  177.3830  142.2870 C   0  0  0  0  0  2  0  0  0  0  0  0
  189.4700  177.4930  143.4040 C   0  0  0  0  0  2  0  0  0  0  0  0
  187.9550  178.5920  141.9870 C   0  0  0  0  0  2  0  0  0  0  0  0
  186.9440  178.2400  141.0080 N   0  0  0  0  0  0  0  0  0  0  0  0
  186.9770  176.7800  140.7690 C   0  0  0  0  0  1  0  0  0  0  0  0
  185.6080  178.6780  141.4000 C   0  0  0  0  0  2  0  0  0  0  0  0
  184.6180  177.7740  142.0370 C   0  0  2  0  0  3  0  0  0  0  0  0
  182.5160  178.7200  142.8130 C   0  0  0  0  0  3  0  0  0  0  0  0
  182.4910  178.0010  140.5340 C   0  0  0  0  0  0  0  0  0  0  0  0
  180.5390  179.2880  141.3860 C   0  0  0  0  0  0  0  0  0  0  0  0
  181.1380  178.5940  140.3400 C   0  0  0  0  0  3  0  0  0  0  0  0
  179.3290  179.8620  141.1910 O   0  0  0  0  0  1  0  0  0  0  0  0
  183.0170  177.2560  139.6300 O   0  0  0  0  0  1  0  0  0  0  0  0
  183.1790  178.2760  141.7830 C   0  0  0  0  0  0  0  0  0  0  0  0
  181.1370  179.4010  142.7370 C   0  0  0  0  0  3  0  0  0  0  0  0
  184.8740  177.7920  143.5320 N   0  0  0  0  0  2  0  0  0  0  0  0
  186.2360  175.9940  143.8620 O   0  0  0  0  0  0  0  0  0  0  0  0
  185.4880  176.8630  144.3360 C   0  0  0  0  0  0  0  0  0  0  0  0
  185.0930  176.7220  145.7290 C   0  0  0  0  0  3  0  0  0  0  0  0
  185.4610  177.4850  146.7930 C   0  0  0  0  0  3  0  0  0  0  0  0
  186.3640  178.7150  146.8460 C   0  0  0  0  0  3  0  0  0  0  0  0
  186.2940  179.7010  148.0940 C   0  0  0  0  0  2  0  0  0  0  0  0
  187.0230  178.5020  148.3060 C   0  0  0  0  0  2  0  0  0  0  0  0
  2  4  1  0  0  0  0
  3  2  2  0  0  0  0
  4  1  1  0  0  0  0
  5  6  1  6  0  0  0
  5  2  1  0  0  0  0
  5 10  1  0  0  0  0
  7  6  1  0  0  0  0
  8  7  1  0  0  0  0
  9  7  2  0  0  0  0
 10 14  1  0  0  0  0
 10 19  1  1  0  0  0
 11 14  2  0  0  0  0
 11 15  1  0  0  0  0
 12 16  1  0  0  0  0
 13 11  1  0  0  0  0
 14 18  1  0  0  0  0
 15 12  2  0  0  0  0
 16 17  1  0  0  0  0
 18 16  2  0  0  0  0
 19 20  1  0  0  0  0
 20 23  1  6  0  0  0
 20 21  1  0  0  0  0
 21 22  1  0  0  0  0
 25 26  2  0  0  0  0
 26 23  1  0  0  0  0
 26 24  1  1  0  0  0
 28  1  1  0  0  0  0
 28 27  1  1  0  0  0
 29 28  1  0  0  0  0
 30 31  1  0  0  0  0
 31 29  1  0  0  0  0
 32 30  1  0  0  0  0
 33 35  1  0  0  0  0
 33 32  1  0  0  0  0
 34 33  1  0  0  0  0
 36 35  1  6  0  0  0
 36 45  1  0  0  0  0
 38 43  1  0  0  0  0
 39 44  2  0  0  0  0
 40 38  2  0  0  0  0
 40 39  1  0  0  0  0
 41 39  1  0  0  0  0
 42 38  1  0  0  0  0
 43 36  1  0  0  0  0
 43 37  2  0  0  0  0
 44 37  1  0  0  0  0
 45 47  1  0  0  0  0
 46 47  2  0  0  0  0
 47 48  1  0  0  0  0
 48 49  2  0  0  0  0
 49 50  1  0  0  0  0
 50 51  1  0  0  0  0
 50 52  1  0  0  0  0
 51 52  1  0  0  0  0
M  END
>  <MODEL>
6

>  <REMARK>
 VINA RESULT:      -6.1      2.125      5.560
  Name = 
  22 active torsions:
  status: ('A' for Active; 'I' for Inactive)
    1  A    between atoms: N_3  and  C_33
    2  A    between atoms: N_3  and  C_46
    3  A    between atoms: C_4  and  C_33
    4  A    between atoms: C_5  and  C_48
    5  A    between atoms: C_6  and  C_21
    6  A    between atoms: C_7  and  C_41
    7  A    between atoms: C_7  and  C_51
    8  A    between atoms: C_8  and  C_23
    9  A    between atoms: S_12  and  C_40
   10  A    between atoms: C_13  and  C_18
   11  A    between atoms: C_13  and  C_25
   12  A    between atoms: N_17  and  C_37
   13  A    between atoms: C_18  and  C_24
   14  A    between atoms: C_18  and  C_40
   15  A    between atoms: C_21  and  C_23
   16  A    between atoms: C_23  and  C_25
   17  A    between atoms: C_25  and  C_31
   18  A    between atoms: C_29  and  C_36
   19  A    between atoms: C_35  and  C_37
   20  A    between atoms: C_37  and  C_46
   21  A    between atoms: C_39  and  N_49
   22  A    between atoms: C_39  and  C_51
                            x       y       z     vdW  Elec       q    Type
                         _______ _______ _______ _____ _____    ______ ____

>  <TORSDO>
F 22

$$$$
=
 OpenBabel11062420133D

 52 54  0  0  1  0  0  0  0  0999 V2000
  196.8310  175.4100  141.4080 C   0  0  0  0  0  2  0  0  0  0  0  0
  195.8410  173.6550  139.3640 C   0  0  0  0  0  0  0  0  0  0  0  0
  195.7900  173.7830  138.0940 O   0  0  0  0  0  0  0  0  0  0  0  0
  196.1740  174.8780  140.1160 N   0  0  0  0  0  2  0  0  0  0  0  0
  195.1800  172.3340  139.8370 C   0  0  1  0  0  3  0  0  0  0  0  0
  195.8660  170.9880  139.3110 C   0  0  0  0  0  2  0  0  0  0  0  0
  195.0750  169.7160  139.2640 C   0  0  0  0  0  0  0  0  0  0  0  0
  194.8550  169.3140  137.9830 O   0  0  0  0  0  0  0  0  0  0  0  0
  194.7280  168.9460  140.3200 O   0  0  0  0  0  1  0  0  0  0  0  0
  193.9940  171.9800  140.8870 C   0  0  1  0  0  3  0  0  0  0  0  0
  193.1860  171.1300  143.2650 C   0  0  0  0  0  0  0  0  0  0  0  0
  194.4640  171.7430  145.2110 C   0  0  0  0  0  3  0  0  0  0  0  0
  192.1130  170.3280  142.8310 O   0  0  0  0  0  1  0  0  0  0  0  0
  194.0900  171.8050  142.4130 C   0  0  0  0  0  0  0  0  0  0  0  0
  193.3490  171.1400  144.6330 C   0  0  0  0  0  3  0  0  0  0  0  0
  195.3890  172.3930  144.4100 C   0  0  0  0  0  0  0  0  0  0  0  0
  196.5680  173.0340  145.0600 C   0  0  0  0  0  1  0  0  0  0  0  0
  195.2250  172.4620  143.0590 C   0  0  0  0  0  3  0  0  0  0  0  0
  192.8860  173.0810  140.7610 C   0  0  0  0  0  2  0  0  0  0  0  0
  191.5000  172.5700  140.3010 C   0  0  1  0  0  3  0  0  0  0  0  0
  190.4340  173.5640  140.2590 C   0  0  0  0  0  2  0  0  0  0  0  0
  189.2020  172.9660  139.8480 O   0  0  0  0  0  1  0  0  0  0  0  0
  191.4220  171.4100  139.2160 C   0  0  0  0  0  2  0  0  0  0  0  0
  192.2490  174.0460  137.6460 C   0  0  0  0  0  1  0  0  0  0  0  0
  190.7660  171.8390  136.9020 O   0  0  0  0  0  0  0  0  0  0  0  0
  191.9570  172.1990  137.7010 S   0  0  2  0  0  0  0  0  0  0  0  0
  194.6280  176.0290  141.8580 C   0  0  0  0  0  1  0  0  0  0  0  0
  196.0610  176.4710  142.2300 C   0  0  1  0  0  3  0  0  0  0  0  0
  196.3290  176.5350  143.8030 C   0  0  0  0  0  2  0  0  0  0  0  0
  194.3710  177.1320  145.3340 C   0  0  0  0  0  2  0  0  0  0  0  0
  195.1480  176.2460  144.7030 C   0  0  0  0  0  2  0  0  0  0  0  0
  193.1480  176.5300  145.8980 C   0  0  0  0  0  2  0  0  0  0  0  0
  192.3070  176.0990  144.7960 N   0  0  0  0  0  0  0  0  0  0  0  0
  191.9220  174.6840  144.9940 C   0  0  0  0  0  1  0  0  0  0  0  0
  191.1310  176.9460  144.6250 C   0  0  0  0  0  2  0  0  0  0  0  0
  189.7440  176.4360  144.7620 C   0  0  2  0  0  3  0  0  0  0  0  0
  188.5800  177.8740  143.1840 C   0  0  0  0  0  3  0  0  0  0  0  0
  188.3890  175.5380  142.7150 C   0  0  0  0  0  0  0  0  0  0  0  0
  187.5420  177.1540  141.0220 C   0  0  0  0  0  0  0  0  0  0  0  0
  187.7110  175.8320  141.4210 C   0  0  0  0  0  3  0  0  0  0  0  0
  186.9640  177.4140  139.8270 O   0  0  0  0  0  1  0  0  0  0  0  0
  188.4540  174.3370  143.1630 O   0  0  0  0  0  1  0  0  0  0  0  0
  188.9510  176.6550  143.4550 C   0  0  0  0  0  0  0  0  0  0  0  0
  187.9210  178.3130  141.8630 C   0  0  0  0  0  3  0  0  0  0  0  0
  189.0710  177.2260  145.8680 N   0  0  0  0  0  2  0  0  0  0  0  0
  187.8070  175.6650  146.9480 O   0  0  0  0  0  0  0  0  0  0  0  0
  188.0730  176.8590  146.7370 C   0  0  0  0  0  0  0  0  0  0  0  0
  187.1430  177.8540  147.2500 C   0  0  0  0  0  3  0  0  0  0  0  0
  186.2620  178.6240  146.5570 C   0  0  0  0  0  3  0  0  0  0  0  0
  185.9670  178.6620  145.0600 C   0  0  0  0  0  3  0  0  0  0  0  0
  184.8770  177.6820  144.4380 C   0  0  0  0  0  2  0  0  0  0  0  0
  184.3600  178.8230  145.1060 C   0  0  0  0  0  2  0  0  0  0  0  0
  1 28  1  0  0  0  0
  2  5  1  0  0  0  0
  2  4  1  0  0  0  0
  3  2  2  0  0  0  0
  4  1  1  0  0  0  0
  5  6  1  1  0  0  0
  5 10  1  0  0  0  0
  7  6  1  0  0  0  0
  7  9  1  0  0  0  0
  8  7  2  0  0  0  0
 10 19  1  1  0  0  0
 10 14  1  0  0  0  0
 11 15  1  0  0  0  0
 13 11  1  0  0  0  0
 14 18  1  0  0  0  0
 14 11  2  0  0  0  0
 15 12  2  0  0  0  0
 16 17  1  0  0  0  0
 16 12  1  0  0  0  0
 18 16  2  0  0  0  0
 20 23  1  6  0  0  0
 20 19  1  0  0  0  0
 21 20  1  0  0  0  0
 22 21  1  0  0  0  0
 25 26  2  0  0  0  0
 26 24  1  1  0  0  0
 26 23  1  0  0  0  0
 28 27  1  1  0  0  0
 28 29  1  0  0  0  0
 29 31  1  0  0  0  0
 30 32  1  0  0  0  0
 31 30  1  0  0  0  0
 33 34  1  0  0  0  0
 33 32  1  0  0  0  0
 35 33  1  0  0  0  0
 36 35  1  6  0  0  0
 36 45  1  0  0  0  0
 37 43  1  0  0  0  0
 38 42  1  0  0  0  0
 38 43  2  0  0  0  0
 39 40  2  0  0  0  0
 39 44  1  0  0  0  0
 40 38  1  0  0  0  0
 41 39  1  0  0  0  0
 43 36  1  0  0  0  0
 44 37  2  0  0  0  0
 45 47  1  0  0  0  0
 47 46  2  0  0  0  0
 47 48  1  0  0  0  0
 49 48  2  0  0  0  0
 50 52  1  0  0  0  0
 50 49  1  0  0  0  0
 51 50  1  0  0  0  0
 51 52  1  0  0  0  0
M  END
>  <MODEL>
7

>  <REMARK>
 VINA RESULT:      -6.0      3.273      5.920
  Name = 
  22 active torsions:
  status: ('A' for Active; 'I' for Inactive)
    1  A    between atoms: N_3  and  C_33
    2  A    between atoms: N_3  and  C_46
    3  A    between atoms: C_4  and  C_33
    4  A    between atoms: C_5  and  C_48
    5  A    between atoms: C_6  and  C_21
    6  A    between atoms: C_7  and  C_41
    7  A    between atoms: C_7  and  C_51
    8  A    between atoms: C_8  and  C_23
    9  A    between atoms: S_12  and  C_40
   10  A    between atoms: C_13  and  C_18
   11  A    between atoms: C_13  and  C_25
   12  A    between atoms: N_17  and  C_37
   13  A    between atoms: C_18  and  C_24
   14  A    between atoms: C_18  and  C_40
   15  A    between atoms: C_21  and  C_23
   16  A    between atoms: C_23  and  C_25
   17  A    between atoms: C_25  and  C_31
   18  A    between atoms: C_29  and  C_36
   19  A    between atoms: C_35  and  C_37
   20  A    between atoms: C_37  and  C_46
   21  A    between atoms: C_39  and  N_49
   22  A    between atoms: C_39  and  C_51
                            x       y       z     vdW  Elec       q    Type
                         _______ _______ _______ _____ _____    ______ ____

>  <TORSDO>
F 22

$$$$
=
 OpenBabel11062420133D

 52 54  0  0  1  0  0  0  0  0999 V2000
  193.6210  171.4200  143.2990 C   0  0  0  0  0  2  0  0  0  0  0  0
  191.6310  170.4590  141.4680 C   0  0  0  0  0  0  0  0  0  0  0  0
  190.4540  170.0040  141.6650 O   0  0  0  0  0  0  0  0  0  0  0  0
  192.4660  170.6090  142.6730 N   0  0  0  0  0  2  0  0  0  0  0  0
  192.0310  170.3970  139.9710 C   0  0  1  0  0  3  0  0  0  0  0  0
  191.8760  168.9670  139.2700 C   0  0  0  0  0  2  0  0  0  0  0  0
  191.3250  168.8730  137.8800 C   0  0  0  0  0  0  0  0  0  0  0  0
  189.9890  169.1300  137.8550 O   0  0  0  0  0  1  0  0  0  0  0  0
  192.0380  168.7060  136.7420 O   0  0  0  0  0  0  0  0  0  0  0  0
  192.4600  171.5120  138.8710 C   0  0  1  0  0  3  0  0  0  0  0  0
  191.7860  172.5130  136.5110 C   0  0  0  0  0  0  0  0  0  0  0  0
  189.7730  173.8240  136.3400 C   0  0  0  0  0  3  0  0  0  0  0  0
  192.8110  171.9210  135.7480 O   0  0  0  0  0  1  0  0  0  0  0  0
  191.5590  172.2770  137.8860 C   0  0  0  0  0  0  0  0  0  0  0  0
  190.9350  173.3060  135.7720 C   0  0  0  0  0  3  0  0  0  0  0  0
  189.4980  173.5940  137.6780 C   0  0  0  0  0  0  0  0  0  0  0  0
  188.2500  174.1680  138.2580 C   0  0  0  0  0  1  0  0  0  0  0  0
  190.3520  172.8720  138.4580 C   0  0  0  0  0  3  0  0  0  0  0  0
  193.1810  172.6840  139.6200 C   0  0  0  0  0  2  0  0  0  0  0  0
  194.7250  172.5960  139.6470 C   0  0  1  0  0  3  0  0  0  0  0  0
  195.3630  172.1690  138.4080 C   0  0  0  0  0  2  0  0  0  0  0  0
  196.7080  171.7490  138.6500 O   0  0  0  0  0  1  0  0  0  0  0  0
  195.5450  173.6240  140.5420 C   0  0  0  0  0  2  0  0  0  0  0  0
  194.3260  175.2990  138.1330 C   0  0  0  0  0  1  0  0  0  0  0  0
  196.7030  175.5170  139.5200 O   0  0  0  0  0  0  0  0  0  0  0  0
  195.2750  175.2020  139.7420 S   0  0  2  0  0  0  0  0  0  0  0  0
  195.7290  170.4720  142.9820 C   0  0  0  0  0  1  0  0  0  0  0  0
  194.6910  170.6510  144.1120 C   0  0  1  0  0  3  0  0  0  0  0  0
  195.2770  171.3490  145.4230 C   0  0  0  0  0  2  0  0  0  0  0  0
  194.6550  173.8050  145.7660 C   0  0  0  0  0  2  0  0  0  0  0  0
  195.4900  172.8450  145.3560 C   0  0  0  0  0  2  0  0  0  0  0  0
  195.2840  175.1380  145.8140 C   0  0  0  0  0  2  0  0  0  0  0  0
  194.3740  176.0420  146.4930 N   0  0  0  0  0  0  0  0  0  0  0  0
  194.5710  177.4170  145.9800 C   0  0  0  0  0  1  0  0  0  0  0  0
  192.9800  175.6290  146.3690 C   0  0  0  0  0  2  0  0  0  0  0  0
  192.0700  176.1670  145.3270 C   0  0  2  0  0  3  0  0  0  0  0  0
  190.1580  175.1510  146.4350 C   0  0  0  0  0  3  0  0  0  0  0  0
  189.7080  177.2800  145.4460 C   0  0  0  0  0  0  0  0  0  0  0  0
  187.9620  176.2610  146.8970 C   0  0  0  0  0  0  0  0  0  0  0  0
  188.3500  177.3010  146.0590 C   0  0  0  0  0  3  0  0  0  0  0  0
  186.7440  176.3070  147.4860 O   0  0  0  0  0  1  0  0  0  0  0  0
  190.0500  178.1620  144.5780 O   0  0  0  0  0  1  0  0  0  0  0  0
  190.6160  176.2190  145.8460 C   0  0  0  0  0  0  0  0  0  0  0  0
  188.7970  175.0640  147.1510 C   0  0  0  0  0  3  0  0  0  0  0  0
  192.1200  175.2210  144.1410 N   0  0  0  0  0  2  0  0  0  0  0  0
  191.9640  176.6100  142.3410 O   0  0  0  0  0  0  0  0  0  0  0  0
  191.9060  175.4620  142.8060 C   0  0  0  0  0  0  0  0  0  0  0  0
  191.3710  174.4160  141.9480 C   0  0  0  0  0  3  0  0  0  0  0  0
  190.1600  173.8010  142.0190 C   0  0  0  0  0  3  0  0  0  0  0  0
  189.0040  174.0340  142.9880 C   0  0  0  0  0  3  0  0  0  0  0  0
  188.1210  175.3540  142.8710 C   0  0  0  0  0  2  0  0  0  0  0  0
  187.8220  174.3360  141.9280 C   0  0  0  0  0  2  0  0  0  0  0  0
  1 28  1  0  0  0  0
  2  3  2  0  0  0  0
  2  4  1  0  0  0  0
  4  1  1  0  0  0  0
  5  6  1  6  0  0  0
  5  2  1  0  0  0  0
  7  6  1  0  0  0  0
  8  7  1  0  0  0  0
  9  7  2  0  0  0  0
 10 19  1  1  0  0  0
 10  5  1  0  0  0  0
 11 14  1  0  0  0  0
 12 16  2  0  0  0  0
 13 11  1  0  0  0  0
 14 18  2  0  0  0  0
 14 10  1  0  0  0  0
 15 12  1  0  0  0  0
 15 11  2  0  0  0  0
 16 17  1  0  0  0  0
 16 18  1  0  0  0  0
 19 20  1  0  0  0  0
 20 21  1  6  0  0  0
 20 23  1  0  0  0  0
 21 22  1  0  0  0  0
 25 26  2  0  0  0  0
 26 24  1  6  0  0  0
 26 23  1  0  0  0  0
 28 27  1  6  0  0  0
 28 29  1  0  0  0  0
 30 32  1  0  0  0  0
 31 29  1  0  0  0  0
 31 30  1  0  0  0  0
 32 33  1  0  0  0  0
 34 33  1  0  0  0  0
 35 33  1  0  0  0  0
 36 43  1  0  0  0  0
 36 35  1  1  0  0  0
 37 44  1  0  0  0  0
 38 43  1  0  0  0  0
 38 40  2  0  0  0  0
 39 44  2  0  0  0  0
 39 41  1  0  0  0  0
 40 39  1  0  0  0  0
 42 38  1  0  0  0  0
 43 37  2  0  0  0  0
 45 36  1  0  0  0  0
 46 47  2  0  0  0  0
 47 45  1  0  0  0  0
 48 49  2  0  0  0  0
 48 47  1  0  0  0  0
 49 50  1  0  0  0  0
 51 50  1  0  0  0  0
 52 51  1  0  0  0  0
 52 50  1  0  0  0  0
M  END
>  <MODEL>
8

>  <REMARK>
 VINA RESULT:      -5.8      4.196      7.989
  Name = 
  22 active torsions:
  status: ('A' for Active; 'I' for Inactive)
    1  A    between atoms: N_3  and  C_33
    2  A    between atoms: N_3  and  C_46
    3  A    between atoms: C_4  and  C_33
    4  A    between atoms: C_5  and  C_48
    5  A    between atoms: C_6  and  C_21
    6  A    between atoms: C_7  and  C_41
    7  A    between atoms: C_7  and  C_51
    8  A    between atoms: C_8  and  C_23
    9  A    between atoms: S_12  and  C_40
   10  A    between atoms: C_13  and  C_18
   11  A    between atoms: C_13  and  C_25
   12  A    between atoms: N_17  and  C_37
   13  A    between atoms: C_18  and  C_24
   14  A    between atoms: C_18  and  C_40
   15  A    between atoms: C_21  and  C_23
   16  A    between atoms: C_23  and  C_25
   17  A    between atoms: C_25  and  C_31
   18  A    between atoms: C_29  and  C_36
   19  A    between atoms: C_35  and  C_37
   20  A    between atoms: C_37  and  C_46
   21  A    between atoms: C_39  and  N_49
   22  A    between atoms: C_39  and  C_51
                            x       y       z     vdW  Elec       q    Type
                         _______ _______ _______ _____ _____    ______ ____

>  <TORSDO>
F 22

$$$$
=
 OpenBabel11062420133D

 52 54  0  0  1  0  0  0  0  0999 V2000
  195.9820  173.8070  143.7140 C   0  0  0  0  0  2  0  0  0  0  0  0
  194.6690  172.8100  141.3650 C   0  0  0  0  0  0  0  0  0  0  0  0
  194.5190  171.6210  140.9230 O   0  0  0  0  0  0  0  0  0  0  0  0
  195.6330  172.9630  142.4690 N   0  0  0  0  0  2  0  0  0  0  0  0
  194.0790  173.8650  140.3930 C   0  0  1  0  0  3  0  0  0  0  0  0
  194.2830  175.3920  140.8220 C   0  0  0  0  0  2  0  0  0  0  0  0
  193.5550  175.9380  142.0120 C   0  0  0  0  0  0  0  0  0  0  0  0
  192.3330  175.3570  142.1580 O   0  0  0  0  0  0  0  0  0  0  0  0
  194.0540  176.7850  142.9410 O   0  0  0  0  0  1  0  0  0  0  0  0
  193.3930  173.7860  138.9240 C   0  0  1  0  0  3  0  0  0  0  0  0
  193.8280  174.8970  136.5570 C   0  0  0  0  0  0  0  0  0  0  0  0
  195.3820  173.8440  135.0500 C   0  0  0  0  0  3  0  0  0  0  0  0
  193.0430  176.0520  136.7370 O   0  0  0  0  0  1  0  0  0  0  0  0
  194.0670  173.9180  137.5480 C   0  0  0  0  0  0  0  0  0  0  0  0
  194.4390  174.8310  135.3230 C   0  0  0  0  0  3  0  0  0  0  0  0
  195.6680  172.8800  136.0030 C   0  0  0  0  0  0  0  0  0  0  0  0
  196.6780  171.8330  135.6760 C   0  0  0  0  0  1  0  0  0  0  0  0
  195.0330  172.8730  137.2090 C   0  0  0  0  0  3  0  0  0  0  0  0
  192.6730  172.4000  138.7950 C   0  0  0  0  0  2  0  0  0  0  0  0
  191.1520  172.4200  139.0760 C   0  0  1  0  0  3  0  0  0  0  0  0
  190.3850  173.4420  138.3740 C   0  0  0  0  0  2  0  0  0  0  0  0
  189.4110  174.0270  139.2410 O   0  0  0  0  0  1  0  0  0  0  0  0
  190.3990  171.0490  139.3640 C   0  0  0  0  0  2  0  0  0  0  0  0
  190.8240  170.0560  136.3760 C   0  0  0  0  0  1  0  0  0  0  0  0
  190.4860  168.6860  138.7490 O   0  0  0  0  0  0  0  0  0  0  0  0
  191.1420  169.8980  138.2130 S   0  0  2  0  0  0  0  0  0  0  0  0
  194.8280  172.5380  145.2940 C   0  0  0  0  0  1  0  0  0  0  0  0
  194.8880  173.9980  144.7920 C   0  0  1  0  0  3  0  0  0  0  0  0
  195.1570  175.0670  145.9470 C   0  0  0  0  0  2  0  0  0  0  0  0
  192.7380  175.8940  145.9460 C   0  0  0  0  0  2  0  0  0  0  0  0
  193.9450  175.7770  146.5090 C   0  0  0  0  0  2  0  0  0  0  0  0
  191.7120  176.4000  146.8770 C   0  0  0  0  0  2  0  0  0  0  0  0
  190.4140  175.9570  146.4020 N   0  0  0  0  0  0  0  0  0  0  0  0
  189.8000  175.0630  147.4090 C   0  0  0  0  0  1  0  0  0  0  0  0
  189.5280  177.0690  146.0750 C   0  0  0  0  0  2  0  0  0  0  0  0
  188.8200  177.1810  144.7750 C   0  0  2  0  0  3  0  0  0  0  0  0
  186.7080  177.1110  145.9780 C   0  0  0  0  0  3  0  0  0  0  0  0
  186.6560  178.4070  143.9710 C   0  0  0  0  0  0  0  0  0  0  0  0
  184.6850  178.5010  145.4860 C   0  0  0  0  0  0  0  0  0  0  0  0
  185.2830  178.8860  144.2900 C   0  0  0  0  0  3  0  0  0  0  0  0
  183.4540  178.9740  145.7910 O   0  0  0  0  0  1  0  0  0  0  0  0
  187.1850  178.6470  142.8260 O   0  0  0  0  0  1  0  0  0  0  0  0
  187.3620  177.6450  144.9860 C   0  0  0  0  0  0  0  0  0  0  0  0
  185.3070  177.5540  146.4400 C   0  0  0  0  0  3  0  0  0  0  0  0
  188.7970  175.8010  144.1450 N   0  0  0  0  0  2  0  0  0  0  0  0
  189.2470  176.2080  141.9480 O   0  0  0  0  0  0  0  0  0  0  0  0
  188.8390  175.4300  142.8230 C   0  0  0  0  0  0  0  0  0  0  0  0
  188.1830  174.2080  142.3830 C   0  0  0  0  0  3  0  0  0  0  0  0
  188.6870  172.9450  142.3460 C   0  0  0  0  0  3  0  0  0  0  0  0
  190.0600  172.4290  142.7720 C   0  0  0  0  0  3  0  0  0  0  0  0
  190.7000  172.9140  144.1470 C   0  0  0  0  0  2  0  0  0  0  0  0
  189.7020  171.9120  144.2610 C   0  0  0  0  0  2  0  0  0  0  0  0
  1 28  1  0  0  0  0
  2  4  1  0  0  0  0
  3  2  2  0  0  0  0
  4  1  1  0  0  0  0
  5  6  1  6  0  0  0
  5  2  1  0  0  0  0
  6  7  1  0  0  0  0
  7  8  2  0  0  0  0
  7  9  1  0  0  0  0
 10 19  1  6  0  0  0
 10  5  1  0  0  0  0
 11 13  1  0  0  0  0
 11 14  1  0  0  0  0
 12 15  1  0  0  0  0
 12 16  2  0  0  0  0
 14 10  1  0  0  0  0
 15 11  2  0  0  0  0
 16 18  1  0  0  0  0
 17 16  1  0  0  0  0
 18 14  2  0  0  0  0
 19 20  1  0  0  0  0
 20 21  1  6  0  0  0
 20 23  1  0  0  0  0
 21 22  1  0  0  0  0
 26 24  1  6  0  0  0
 26 25  2  0  0  0  0
 26 23  1  0  0  0  0
 28 27  1  1  0  0  0
 28 29  1  0  0  0  0
 29 31  1  0  0  0  0
 30 31  1  0  0  0  0
 30 32  1  0  0  0  0
 33 32  1  0  0  0  0
 33 34  1  0  0  0  0
 35 33  1  0  0  0  0
 36 43  1  0  0  0  0
 36 35  1  1  0  0  0
 37 44  1  0  0  0  0
 38 40  2  0  0  0  0
 38 43  1  0  0  0  0
 39 41  1  0  0  0  0
 39 44  2  0  0  0  0
 40 39  1  0  0  0  0
 42 38  1  0  0  0  0
 43 37  2  0  0  0  0
 45 36  1  0  0  0  0
 46 47  2  0  0  0  0
 47 45  1  0  0  0  0
 48 47  1  0  0  0  0
 49 48  2  0  0  0  0
 49 50  1  0  0  0  0
 50 51  1  0  0  0  0
 50 52  1  0  0  0  0
 51 52  1  0  0  0  0
M  END
>  <MODEL>
9

>  <REMARK>
 VINA RESULT:      -5.7      3.451      6.562
  Name = 
  22 active torsions:
  status: ('A' for Active; 'I' for Inactive)
    1  A    between atoms: N_3  and  C_33
    2  A    between atoms: N_3  and  C_46
    3  A    between atoms: C_4  and  C_33
    4  A    between atoms: C_5  and  C_48
    5  A    between atoms: C_6  and  C_21
    6  A    between atoms: C_7  and  C_41
    7  A    between atoms: C_7  and  C_51
    8  A    between atoms: C_8  and  C_23
    9  A    between atoms: S_12  and  C_40
   10  A    between atoms: C_13  and  C_18
   11  A    between atoms: C_13  and  C_25
   12  A    between atoms: N_17  and  C_37
   13  A    between atoms: C_18  and  C_24
   14  A    between atoms: C_18  and  C_40
   15  A    between atoms: C_21  and  C_23
   16  A    between atoms: C_23  and  C_25
   17  A    between atoms: C_25  and  C_31
   18  A    between atoms: C_29  and  C_36
   19  A    between atoms: C_35  and  C_37
   20  A    between atoms: C_37  and  C_46
   21  A    between atoms: C_39  and  N_49
   22  A    between atoms: C_39  and  C_51
                            x       y       z     vdW  Elec       q    Type
                         _______ _______ _______ _____ _____    ______ ____

>  <TORSDO>
F 22

$$$$
