=
 OpenBabel11062419103D

 54 58  0  0  1  0  0  0  0  0999 V2000
  189.3690  173.5380  140.9990 O   0  0  0  0  0  0  0  0  0  0  0  0
  189.1140  172.5620  143.0950 O   0  0  0  0  0  1  0  0  0  0  0  0
  191.6420  174.1010  142.6650 C   0  0  1  0  0  3  0  0  0  0  0  0
  189.1960  173.7710  142.3840 C   0  0  1  0  0  3  0  0  0  0  0  0
  190.2880  174.6040  142.9060 N   0  0  0  0  0  0  0  0  0  0  0  0
  192.9720  173.0090  141.0320 F   0  0  0  0  0  0  0  0  0  0  0  0
  191.8040  173.7380  141.1900 C   0  0  1  0  0  3  0  0  0  0  0  0
  190.6020  172.8690  140.7860 C   0  0  2  0  0  3  0  0  0  0  0  0
  189.3230  176.4120  144.1680 C   0  0  0  0  0  0  0  0  0  0  0  0
  190.0810  175.9680  143.2070 N   0  0  0  0  0  0  0  0  0  0  0  0
  188.5810  175.5890  145.1780 C   0  0  2  0  0  3  0  0  0  0  0  0
  187.9040  176.6940  145.9280 C   0  0  0  0  0  0  0  0  0  0  0  0
  189.5720  174.8870  146.0920 C   0  0  0  0  0  1  0  0  0  0  0  0
  189.1280  177.7670  144.3850 O   0  0  0  0  0  0  0  0  0  0  0  0
  188.2770  177.9780  145.4390 N   0  0  0  0  0  2  0  0  0  0  0  0
  187.0340  176.5070  146.9160 C   0  0  0  0  0  3  0  0  0  0  0  0
  186.3850  177.6510  147.6200 C   0  0  0  0  0  2  0  0  0  0  0  0
  184.5250  178.4360  145.7550 C   0  0  0  0  0  0  0  0  0  0  0  0
  183.7950  178.2940  146.9100 O   0  0  0  0  0  0  0  0  0  0  0  0
  185.1460  178.0500  146.8970 C   0  0  0  0  0  0  0  0  0  0  0  0
  185.1780  177.5810  143.5500 C   0  0  0  0  0  1  0  0  0  0  0  0
  184.5840  178.7550  144.3020 C   0  0  0  0  0  3  0  0  0  0  0  0
  185.4450  179.9830  144.0800 C   0  0  0  0  0  1  0  0  0  0  0  0
  192.9300  173.6770  145.2910 C   0  0  0  0  0  1  0  0  0  0  0  0
  193.3130  174.8110  144.4590 N   0  0  0  0  0  0  0  0  0  0  0  0
  192.7150  175.0270  143.1730 C   0  0  0  0  0  0  0  0  0  0  0  0
  193.0600  176.0220  142.4790 O   0  0  0  0  0  0  0  0  0  0  0  0
  194.3170  175.7320  144.9720 C   0  0  0  0  0  1  0  0  0  0  0  0
  189.8120  171.3680  139.0860 O   0  0  0  0  0  1  0  0  0  0  0  0
  190.7290  172.3920  139.3390 C   0  0  1  0  0  3  0  0  0  0  0  0
  190.6020  173.5250  138.3150 C   0  0  2  0  0  3  0  0  0  0  0  0
  189.4900  173.3360  137.4860 O   0  0  0  0  0  1  0  0  0  0  0  0
  191.8450  173.6510  137.4900 C   0  0  0  0  0  0  0  0  0  0  0  0
  192.0720  174.6830  136.8720 O   0  0  0  0  0  0  0  0  0  0  0  0
  192.8010  172.4910  137.4440 C   0  0  1  0  0  3  0  0  0  0  0  0
  194.6390  170.7760  135.6510 O   0  0  0  0  0  1  0  0  0  0  0  0
  193.7940  171.8940  135.6240 C   0  0  1  0  0  3  0  0  0  0  0  0
  192.4750  171.5410  136.2930 C   0  0  0  0  0  2  0  0  0  0  0  0
  194.1070  172.8770  136.7640 C   0  0  2  0  0  3  0  0  0  0  0  0
  195.1900  172.4610  137.5540 O   0  0  0  0  0  0  0  0  0  0  0  0
  197.2680  173.3000  138.4810 C   0  0  2  0  0  0  0  0  0  0  0  0
  197.3600  173.3740  136.9660 C   0  0  1  0  0  0  0  0  0  0  0  0
  197.4810  172.1450  136.2980 O   0  0  0  0  0  1  0  0  0  0  0  0
  197.2980  172.0350  139.0540 F   0  0  0  0  0  0  0  0  0  0  0  0
  196.0090  173.5970  137.6560 C   0  0  1  0  0  3  0  0  0  0  0  0
  197.4860  174.5100  140.6080 C   0  0  0  0  0  3  0  0  0  0  0  0
  197.7100  174.4710  139.3010 C   0  0  0  0  0  3  0  0  0  0  0  0
  197.8960  175.6170  141.3480 O   0  0  0  0  0  0  0  0  0  0  0  0
  197.1290  176.7980  143.1810 O   0  0  0  0  0  1  0  0  0  0  0  0
  195.9090  176.9670  141.2520 O   0  0  0  0  0  0  0  0  0  0  0  0
  196.9860  176.4700  141.9720 C   0  0  0  0  0  0  0  0  0  0  0  0
  197.9210  174.6180  136.2860 C   0  0  0  0  0  2  0  0  0  0  0  0
  196.8360  175.3290  135.4960 C   0  0  0  0  0  2  0  0  0  0  0  0
  196.9220  176.6980  135.7330 O   0  0  0  0  0  1  0  0  0  0  0  0
  1  4  1  0  0  0  0
  3  5  1  0  0  0  0
  3 26  1  6  0  0  0
  4  5  1  0  0  0  0
  4  2  1  1  0  0  0
  5 10  1  0  0  0  0
  7  6  1  1  0  0  0
  7  3  1  0  0  0  0
  8 30  1  6  0  0  0
  8  1  1  0  0  0  0
  8  7  1  0  0  0  0
  9 14  1  0  0  0  0
  9 11  1  0  0  0  0
 10  9  2  0  0  0  0
 11 12  1  0  0  0  0
 11 13  1  1  0  0  0
 12 16  2  0  0  0  0
 14 15  1  0  0  0  0
 15 12  1  0  0  0  0
 16 17  1  0  0  0  0
 18 20  2  0  0  0  0
 18 19  1  0  0  0  0
 20 19  1  0  0  0  0
 20 17  1  0  0  0  0
 21 22  1  0  0  0  0
 22 18  1  0  0  0  0
 23 22  1  0  0  0  0
 25 28  1  0  0  0  0
 25 24  1  0  0  0  0
 26 25  1  0  0  0  0
 27 26  2  0  0  0  0
 30 29  1  6  0  0  0
 31 32  1  6  0  0  0
 31 30  1  0  0  0  0
 33 31  1  0  0  0  0
 34 33  2  0  0  0  0
 35 33  1  6  0  0  0
 37 36  1  1  0  0  0
 37 38  1  0  0  0  0
 37 39  1  0  0  0  0
 38 35  1  0  0  0  0
 39 35  1  0  0  0  0
 39 40  1  1  0  0  0
 41 44  1  1  0  0  0
 41 47  1  0  0  0  0
 42 43  1  6  0  0  0
 42 45  1  0  0  0  0
 42 41  1  0  0  0  0
 45 40  1  6  0  0  0
 45 41  1  0  0  0  0
 46 48  1  0  0  0  0
 47 46  2  0  0  0  0
 48 51  1  0  0  0  0
 50 51  2  0  0  0  0
 51 49  1  0  0  0  0
 52 42  1  0  0  0  0
 53 54  1  0  0  0  0
 53 52  1  0  0  0  0
M  END
>  <MODEL>
1

>  <REMARK>
 VINA RESULT:      -6.7      0.000      0.000
  Name = 
  16 active torsions:
  status: ('A' for Active; 'I' for Inactive)
    1  A    between atoms: O_1  and  C_31
    2  A    between atoms: O_1  and  C_48
    3  A    between atoms: C_2  and  C_15
    4  A    between atoms: C_2  and  C_45
    5  A    between atoms: C_6  and  C_37
    6  A    between atoms: C_7  and  C_36
    7  A    between atoms: N_11  and  N_41
    8  A    between atoms: C_13  and  C_21
    9  A    between atoms: C_13  and  C_54
   10  A    between atoms: C_14  and  C_43
   11  A    between atoms: C_15  and  C_20
   12  A    between atoms: C_17  and  C_43
   13  A    between atoms: C_23  and  C_26
   14  A    between atoms: O_29  and  C_47
   15  A    between atoms: O_29  and  C_53
   16  A    between atoms: C_45  and  C_52
                            x       y       z     vdW  Elec       q    Type
                         _______ _______ _______ _____ _____    ______ ____

>  <TORSDO>
F 16

$$$$
=
 OpenBabel11062419103D

 54 58  0  0  1  0  0  0  0  0999 V2000
  189.9130  172.6470  142.6330 O   0  0  0  0  0  0  0  0  0  0  0  0
  189.7020  172.3670  144.9320 O   0  0  0  0  0  1  0  0  0  0  0  0
  192.1190  173.8680  144.0120 C   0  0  1  0  0  3  0  0  0  0  0  0
  189.7070  173.2920  143.8750 C   0  0  1  0  0  3  0  0  0  0  0  0
  190.7300  174.3230  144.0960 N   0  0  0  0  0  0  0  0  0  0  0  0
  193.5440  172.4150  142.7930 F   0  0  0  0  0  0  0  0  0  0  0  0
  192.3250  173.0700  142.7250 C   0  0  1  0  0  3  0  0  0  0  0  0
  191.1930  172.0350  142.6280 C   0  0  2  0  0  3  0  0  0  0  0  0
  189.5010  176.3250  144.6230 C   0  0  0  0  0  0  0  0  0  0  0  0
  190.4230  175.6940  143.9540 N   0  0  0  0  0  0  0  0  0  0  0  0
  188.6370  175.7590  145.7100 C   0  0  2  0  0  3  0  0  0  0  0  0
  187.8040  176.9680  145.9990 C   0  0  0  0  0  0  0  0  0  0  0  0
  189.4920  175.4300  146.9230 C   0  0  0  0  0  1  0  0  0  0  0  0
  189.2200  177.6640  144.4050 O   0  0  0  0  0  0  0  0  0  0  0  0
  188.2010  178.0900  145.2170 N   0  0  0  0  0  2  0  0  0  0  0  0
  186.7910  176.9940  146.8610 C   0  0  0  0  0  3  0  0  0  0  0  0
  185.9910  178.2310  147.1000 C   0  0  0  0  0  2  0  0  0  0  0  0
  184.5920  178.2910  144.7350 C   0  0  0  0  0  0  0  0  0  0  0  0
  183.6710  178.6880  145.6740 O   0  0  0  0  0  0  0  0  0  0  0  0
  184.9570  178.3730  146.0380 C   0  0  0  0  0  0  0  0  0  0  0  0
  186.0580  178.8760  142.8570 C   0  0  0  0  0  1  0  0  0  0  0  0
  184.9320  177.9750  143.3200 C   0  0  0  0  0  3  0  0  0  0  0  0
  183.7170  178.1910  142.4390 C   0  0  0  0  0  1  0  0  0  0  0  0
  192.9340  174.7940  146.6970 C   0  0  0  0  0  1  0  0  0  0  0  0
  193.4830  175.4260  145.5040 N   0  0  0  0  0  0  0  0  0  0  0  0
  193.1180  174.9810  144.1900 C   0  0  0  0  0  0  0  0  0  0  0  0
  193.6020  175.5520  143.1760 O   0  0  0  0  0  0  0  0  0  0  0  0
  194.4120  176.5330  145.6780 C   0  0  0  0  0  1  0  0  0  0  0  0
  190.8400  169.8680  141.6560 O   0  0  0  0  0  1  0  0  0  0  0  0
  191.3720  171.1370  141.4050 C   0  0  1  0  0  3  0  0  0  0  0  0
  190.7970  171.7420  140.1200 C   0  0  2  0  0  3  0  0  0  0  0  0
  190.3020  170.7470  139.2690 O   0  0  0  0  0  1  0  0  0  0  0  0
  191.8200  172.5700  139.4060 C   0  0  0  0  0  0  0  0  0  0  0  0
  191.6430  173.7720  139.2530 O   0  0  0  0  0  0  0  0  0  0  0  0
  193.0630  171.8960  138.8930 C   0  0  1  0  0  3  0  0  0  0  0  0
  195.4530  172.1030  136.9500 O   0  0  0  0  0  1  0  0  0  0  0  0
  194.3350  172.8120  137.4100 C   0  0  1  0  0  3  0  0  0  0  0  0
  193.1140  171.9060  137.3660 C   0  0  0  0  0  2  0  0  0  0  0  0
  194.2620  172.8320  138.9460 C   0  0  2  0  0  3  0  0  0  0  0  0
  195.3460  172.1720  139.5470 O   0  0  0  0  0  0  0  0  0  0  0  0
  197.1390  172.5840  141.1280 C   0  0  2  0  0  0  0  0  0  0  0  0
  197.2060  173.6490  140.0470 C   0  0  1  0  0  0  0  0  0  0  0  0
  197.6380  173.2170  138.7840 O   0  0  0  0  0  1  0  0  0  0  0  0
  197.4960  171.2910  140.7620 F   0  0  0  0  0  0  0  0  0  0  0  0
  195.8440  173.0940  140.4830 C   0  0  1  0  0  3  0  0  0  0  0  0
  197.4610  172.0750  143.5100 C   0  0  0  0  0  3  0  0  0  0  0  0
  197.2660  172.9840  142.5630 C   0  0  0  0  0  3  0  0  0  0  0  0
  197.5630  172.4720  144.8410 O   0  0  0  0  0  0  0  0  0  0  0  0
  196.5910  173.9230  146.3550 O   0  0  0  0  0  1  0  0  0  0  0  0
  195.2240  172.3620  145.3880 O   0  0  0  0  0  0  0  0  0  0  0  0
  196.4680  172.9550  145.5570 C   0  0  0  0  0  0  0  0  0  0  0  0
  197.4250  175.1120  140.4180 C   0  0  0  0  0  2  0  0  0  0  0  0
  196.0970  175.8460  140.5020 C   0  0  0  0  0  2  0  0  0  0  0  0
  196.2130  176.8980  141.4050 O   0  0  0  0  0  1  0  0  0  0  0  0
  1  4  1  0  0  0  0
  3  5  1  0  0  0  0
  3 26  1  6  0  0  0
  4  5  1  0  0  0  0
  4  2  1  1  0  0  0
  7  6  1  1  0  0  0
  7  3  1  0  0  0  0
  8 30  1  6  0  0  0
  8  1  1  0  0  0  0
  8  7  1  0  0  0  0
  9 11  1  0  0  0  0
 10  5  1  0  0  0  0
 10  9  2  0  0  0  0
 11 12  1  0  0  0  0
 11 13  1  1  0  0  0
 12 16  2  0  0  0  0
 14  9  1  0  0  0  0
 14 15  1  0  0  0  0
 15 12  1  0  0  0  0
 16 17  1  0  0  0  0
 18 19  1  0  0  0  0
 18 20  2  0  0  0  0
 19 20  1  0  0  0  0
 20 17  1  0  0  0  0
 21 22  1  0  0  0  0
 22 18  1  0  0  0  0
 23 22  1  0  0  0  0
 25 28  1  0  0  0  0
 25 24  1  0  0  0  0
 26 25  1  0  0  0  0
 27 26  2  0  0  0  0
 30 29  1  1  0  0  0
 31 32  1  6  0  0  0
 31 30  1  0  0  0  0
 33 31  1  0  0  0  0
 34 33  2  0  0  0  0
 35 39  1  0  0  0  0
 35 33  1  6  0  0  0
 37 36  1  1  0  0  0
 37 39  1  0  0  0  0
 38 37  1  0  0  0  0
 38 35  1  0  0  0  0
 39 40  1  1  0  0  0
 41 44  1  6  0  0  0
 41 47  1  0  0  0  0
 42 43  1  6  0  0  0
 42 52  1  0  0  0  0
 42 45  1  0  0  0  0
 42 41  1  0  0  0  0
 45 40  1  6  0  0  0
 45 41  1  0  0  0  0
 46 48  1  0  0  0  0
 47 46  2  0  0  0  0
 48 51  1  0  0  0  0
 50 51  2  0  0  0  0
 51 49  1  0  0  0  0
 52 53  1  0  0  0  0
 53 54  1  0  0  0  0
M  END
>  <MODEL>
2

>  <REMARK>
 VINA RESULT:      -6.6      1.937      2.601
  Name = 
  16 active torsions:
  status: ('A' for Active; 'I' for Inactive)
    1  A    between atoms: O_1  and  C_31
    2  A    between atoms: O_1  and  C_48
    3  A    between atoms: C_2  and  C_15
    4  A    between atoms: C_2  and  C_45
    5  A    between atoms: C_6  and  C_37
    6  A    between atoms: C_7  and  C_36
    7  A    between atoms: N_11  and  N_41
    8  A    between atoms: C_13  and  C_21
    9  A    between atoms: C_13  and  C_54
   10  A    between atoms: C_14  and  C_43
   11  A    between atoms: C_15  and  C_20
   12  A    between atoms: C_17  and  C_43
   13  A    between atoms: C_23  and  C_26
   14  A    between atoms: O_29  and  C_47
   15  A    between atoms: O_29  and  C_53
   16  A    between atoms: C_45  and  C_52
                            x       y       z     vdW  Elec       q    Type
                         _______ _______ _______ _____ _____    ______ ____

>  <TORSDO>
F 16

$$$$
=
 OpenBabel11062419103D

 54 58  0  0  1  0  0  0  0  0999 V2000
  193.5820  173.8420  142.4480 O   0  0  0  0  0  0  0  0  0  0  0  0
  191.5050  172.8680  142.8310 O   0  0  0  0  0  1  0  0  0  0  0  0
  192.4620  174.7750  144.9250 C   0  0  1  0  0  3  0  0  0  0  0  0
  192.1890  174.0650  142.5610 C   0  0  1  0  0  3  0  0  0  0  0  0
  191.9090  175.0650  143.6000 N   0  0  0  0  0  0  0  0  0  0  0  0
  194.3780  173.8820  146.0020 F   0  0  0  0  0  0  0  0  0  0  0  0
  193.9430  174.4210  144.8020 C   0  0  1  0  0  3  0  0  0  0  0  0
  194.0840  173.3710  143.6890 C   0  0  2  0  0  3  0  0  0  0  0  0
  190.3720  176.7350  142.8020 C   0  0  0  0  0  0  0  0  0  0  0  0
  191.5390  176.3840  143.2590 N   0  0  0  0  0  0  0  0  0  0  0  0
  189.1790  175.8460  142.6100 C   0  0  2  0  0  3  0  0  0  0  0  0
  188.2300  176.8500  142.0340 C   0  0  0  0  0  0  0  0  0  0  0  0
  188.6670  175.3800  143.9630 C   0  0  0  0  0  1  0  0  0  0  0  0
  190.0840  178.0430  142.4450 O   0  0  0  0  0  0  0  0  0  0  0  0
  188.8010  178.1530  141.9760 N   0  0  0  0  0  2  0  0  0  0  0  0
  187.0060  176.5630  141.5980 C   0  0  0  0  0  3  0  0  0  0  0  0
  186.1090  177.6080  141.0250 C   0  0  0  0  0  2  0  0  0  0  0  0
  184.7020  178.4110  143.2450 C   0  0  0  0  0  0  0  0  0  0  0  0
  183.7260  178.0790  142.3370 O   0  0  0  0  0  0  0  0  0  0  0  0
  185.0560  177.9650  142.0140 C   0  0  0  0  0  0  0  0  0  0  0  0
  186.4050  178.2940  145.0070 C   0  0  0  0  0  1  0  0  0  0  0  0
  185.0890  178.9180  144.5910 C   0  0  0  0  0  3  0  0  0  0  0  0
  184.0180  178.5600  145.6020 C   0  0  0  0  0  1  0  0  0  0  0  0
  190.1390  174.6490  146.7470 C   0  0  0  0  0  1  0  0  0  0  0  0
  191.0450  175.7890  146.7910 N   0  0  0  0  0  0  0  0  0  0  0  0
  192.1910  175.8640  145.9300 C   0  0  0  0  0  0  0  0  0  0  0  0
  192.9530  176.8670  145.9830 O   0  0  0  0  0  0  0  0  0  0  0  0
  190.7550  176.8630  147.7300 C   0  0  0  0  0  1  0  0  0  0  0  0
  195.6680  171.6060  144.0660 O   0  0  0  0  0  1  0  0  0  0  0  0
  195.5310  172.9000  143.5550 C   0  0  1  0  0  3  0  0  0  0  0  0
  196.0710  172.9990  142.1240 C   0  0  2  0  0  3  0  0  0  0  0  0
  196.8820  171.9010  141.8120 O   0  0  0  0  0  1  0  0  0  0  0  0
  196.8280  174.2740  141.9170 C   0  0  0  0  0  0  0  0  0  0  0  0
  197.6100  174.6720  142.7700 O   0  0  0  0  0  0  0  0  0  0  0  0
  196.6110  175.0420  140.6420 C   0  0  1  0  0  3  0  0  0  0  0  0
  197.4050  175.3210  137.6710 O   0  0  0  0  0  1  0  0  0  0  0  0
  197.6260  174.5310  138.8080 C   0  0  1  0  0  3  0  0  0  0  0  0
  197.9370  175.4330  139.9920 C   0  0  0  0  0  2  0  0  0  0  0  0
  196.3080  174.1090  139.4780 C   0  0  2  0  0  3  0  0  0  0  0  0
  195.1780  174.5730  138.7870 O   0  0  0  0  0  0  0  0  0  0  0  0
  192.9800  173.8330  138.0740 C   0  0  2  0  0  0  0  0  0  0  0  0
  194.0200  172.9820  137.3650 C   0  0  1  0  0  0  0  0  0  0  0  0
  194.7640  173.6270  136.3650 O   0  0  0  0  0  1  0  0  0  0  0  0
  192.8760  175.1610  137.6770 F   0  0  0  0  0  0  0  0  0  0  0  0
  194.2910  173.4830  138.7890 C   0  0  1  0  0  3  0  0  0  0  0  0
  190.5740  173.3530  138.1960 C   0  0  0  0  0  3  0  0  0  0  0  0
  191.7900  173.1730  138.6940 C   0  0  0  0  0  3  0  0  0  0  0  0
  189.4800  172.7370  138.7990 O   0  0  0  0  0  0  0  0  0  0  0  0
  188.1510  172.9400  140.6790 O   0  0  0  0  0  1  0  0  0  0  0  0
  188.1680  174.7070  139.2240 O   0  0  0  0  0  0  0  0  0  0  0  0
  188.5850  173.4400  139.6060 C   0  0  0  0  0  0  0  0  0  0  0  0
  193.8430  171.4710  137.2640 C   0  0  0  0  0  2  0  0  0  0  0  0
  193.0200  171.1110  136.0380 C   0  0  0  0  0  2  0  0  0  0  0  0
  192.1020  170.1230  136.3780 O   0  0  0  0  0  1  0  0  0  0  0  0
  1  4  1  0  0  0  0
  1  8  1  0  0  0  0
  3 26  1  1  0  0  0
  4  2  1  1  0  0  0
  4  5  1  0  0  0  0
  5  3  1  0  0  0  0
  7  3  1  0  0  0  0
  7  6  1  1  0  0  0
  8 30  1  6  0  0  0
  8  7  1  0  0  0  0
  9 10  2  0  0  0  0
 10  5  1  0  0  0  0
 11  9  1  0  0  0  0
 11 13  1  1  0  0  0
 12 11  1  0  0  0  0
 14  9  1  0  0  0  0
 15 12  1  0  0  0  0
 15 14  1  0  0  0  0
 16 12  2  0  0  0  0
 17 16  1  0  0  0  0
 17 20  1  0  0  0  0
 18 22  1  0  0  0  0
 19 18  1  0  0  0  0
 20 19  1  0  0  0  0
 20 18  2  0  0  0  0
 22 21  1  0  0  0  0
 22 23  1  0  0  0  0
 24 25  1  0  0  0  0
 25 28  1  0  0  0  0
 26 27  2  0  0  0  0
 26 25  1  0  0  0  0
 30 29  1  6  0  0  0
 31 32  1  1  0  0  0
 31 30  1  0  0  0  0
 33 31  1  0  0  0  0
 33 34  2  0  0  0  0
 35 33  1  1  0  0  0
 37 36  1  6  0  0  0
 37 39  1  0  0  0  0
 37 38  1  0  0  0  0
 38 35  1  0  0  0  0
 39 40  1  6  0  0  0
 39 35  1  0  0  0  0
 41 44  1  6  0  0  0
 41 47  1  0  0  0  0
 41 45  1  0  0  0  0
 42 43  1  6  0  0  0
 42 41  1  0  0  0  0
 42 45  1  0  0  0  0
 45 40  1  6  0  0  0
 46 47  2  0  0  0  0
 46 48  1  0  0  0  0
 48 51  1  0  0  0  0
 50 51  2  0  0  0  0
 51 49  1  0  0  0  0
 52 42  1  0  0  0  0
 53 54  1  0  0  0  0
 53 52  1  0  0  0  0
M  END
>  <MODEL>
3

>  <REMARK>
 VINA RESULT:      -6.5      2.339      5.273
  Name = 
  16 active torsions:
  status: ('A' for Active; 'I' for Inactive)
    1  A    between atoms: O_1  and  C_31
    2  A    between atoms: O_1  and  C_48
    3  A    between atoms: C_2  and  C_15
    4  A    between atoms: C_2  and  C_45
    5  A    between atoms: C_6  and  C_37
    6  A    between atoms: C_7  and  C_36
    7  A    between atoms: N_11  and  N_41
    8  A    between atoms: C_13  and  C_21
    9  A    between atoms: C_13  and  C_54
   10  A    between atoms: C_14  and  C_43
   11  A    between atoms: C_15  and  C_20
   12  A    between atoms: C_17  and  C_43
   13  A    between atoms: C_23  and  C_26
   14  A    between atoms: O_29  and  C_47
   15  A    between atoms: O_29  and  C_53
   16  A    between atoms: C_45  and  C_52
                            x       y       z     vdW  Elec       q    Type
                         _______ _______ _______ _____ _____    ______ ____

>  <TORSDO>
F 16

$$$$
=
 OpenBabel11062419103D

 54 58  0  0  1  0  0  0  0  0999 V2000
  193.0630  175.6910  143.2730 O   0  0  0  0  0  0  0  0  0  0  0  0
  195.1620  176.6900  143.3620 O   0  0  0  0  0  1  0  0  0  0  0  0
  195.0080  173.8770  144.3620 C   0  0  1  0  0  3  0  0  0  0  0  0
  194.3860  175.6790  142.7710 C   0  0  1  0  0  3  0  0  0  0  0  0
  195.0060  174.3630  142.9810 N   0  0  0  0  0  0  0  0  0  0  0  0
  193.6770  173.7980  146.3240 F   0  0  0  0  0  0  0  0  0  0  0  0
  193.6040  173.9900  144.9540 C   0  0  1  0  0  3  0  0  0  0  0  0
  193.0870  175.4090  144.6640 C   0  0  2  0  0  3  0  0  0  0  0  0
  195.7900  173.7310  140.7960 C   0  0  0  0  0  0  0  0  0  0  0  0
  195.1740  173.4600  141.9090 N   0  0  0  0  0  0  0  0  0  0  0  0
  196.4960  175.0080  140.4500 C   0  0  2  0  0  3  0  0  0  0  0  0
  196.9250  174.6680  139.0560 C   0  0  0  0  0  0  0  0  0  0  0  0
  197.7220  175.1690  141.3340 C   0  0  0  0  0  1  0  0  0  0  0  0
  195.8840  172.8110  139.7630 O   0  0  0  0  0  0  0  0  0  0  0  0
  196.5620  173.3400  138.6950 N   0  0  0  0  0  2  0  0  0  0  0  0
  197.5470  175.5100  138.2350 C   0  0  0  0  0  3  0  0  0  0  0  0
  197.9410  175.1140  136.8520 C   0  0  0  0  0  2  0  0  0  0  0  0
  195.5870  175.8720  135.6510 C   0  0  0  0  0  0  0  0  0  0  0  0
  196.4630  175.7280  134.6020 O   0  0  0  0  0  0  0  0  0  0  0  0
  196.8690  175.4970  135.8930 C   0  0  0  0  0  0  0  0  0  0  0  0
  193.8520  175.2690  137.2770 C   0  0  0  0  0  1  0  0  0  0  0  0
  194.2300  176.2150  136.1560 C   0  0  0  0  0  3  0  0  0  0  0  0
  193.2190  176.0950  135.0320 C   0  0  0  0  0  1  0  0  0  0  0  0
  197.9200  173.4800  144.6730 C   0  0  0  0  0  1  0  0  0  0  0  0
  197.0230  172.3330  144.6330 N   0  0  0  0  0  0  0  0  0  0  0  0
  195.6040  172.5000  144.5020 C   0  0  0  0  0  0  0  0  0  0  0  0
  194.8530  171.4890  144.4600 O   0  0  0  0  0  0  0  0  0  0  0  0
  197.6050  171.0010  144.7210 C   0  0  0  0  0  1  0  0  0  0  0  0
  191.8550  176.1600  146.5830 O   0  0  0  0  0  1  0  0  0  0  0  0
  191.7140  175.6340  145.2960 C   0  0  1  0  0  3  0  0  0  0  0  0
  190.7850  176.4970  144.4350 C   0  0  2  0  0  3  0  0  0  0  0  0
  190.2980  177.5920  145.1580 O   0  0  0  0  0  1  0  0  0  0  0  0
  189.6460  175.6910  143.8920 C   0  0  0  0  0  0  0  0  0  0  0  0
  188.9750  174.9900  144.6390 O   0  0  0  0  0  0  0  0  0  0  0  0
  189.3450  175.7680  142.4210 C   0  0  1  0  0  3  0  0  0  0  0  0
  188.2750  174.2440  139.9580 O   0  0  0  0  0  1  0  0  0  0  0  0
  188.4870  174.1110  141.3360 C   0  0  1  0  0  3  0  0  0  0  0  0
  189.9020  174.5590  141.6710 C   0  0  0  0  0  2  0  0  0  0  0  0
  187.9250  175.3080  142.1210 C   0  0  2  0  0  3  0  0  0  0  0  0
  187.2920  176.2480  141.2920 O   0  0  0  0  0  0  0  0  0  0  0  0
  186.6960  178.2940  142.4500 C   0  0  2  0  0  0  0  0  0  0  0  0
  185.6320  178.0150  141.4020 C   0  0  1  0  0  0  0  0  0  0  0  0
  186.0210  178.2010  140.0670 O   0  0  0  0  0  1  0  0  0  0  0  0
  187.9460  178.6890  141.9900 F   0  0  0  0  0  0  0  0  0  0  0  0
  186.3220  176.8450  142.1140 C   0  0  1  0  0  3  0  0  0  0  0  0
  186.8250  178.1210  144.8980 C   0  0  0  0  0  3  0  0  0  0  0  0
  186.2800  178.6920  143.8310 C   0  0  0  0  0  3  0  0  0  0  0  0
  186.4120  178.5000  146.1730 O   0  0  0  0  0  0  0  0  0  0  0  0
  185.8560  177.6710  148.2580 O   0  0  0  0  0  1  0  0  0  0  0  0
  184.8000  176.7380  146.4540 O   0  0  0  0  0  0  0  0  0  0  0  0
  185.6980  177.6400  147.0070 C   0  0  0  0  0  0  0  0  0  0  0  0
  184.1530  178.1630  141.7450 C   0  0  0  0  0  2  0  0  0  0  0  0
  183.2990  178.0170  140.4970 C   0  0  0  0  0  2  0  0  0  0  0  0
  181.9600  177.9440  140.8660 O   0  0  0  0  0  1  0  0  0  0  0  0
  1  8  1  0  0  0  0
  3 26  1  6  0  0  0
  3  7  1  0  0  0  0
  4  5  1  0  0  0  0
  4  1  1  0  0  0  0
  4  2  1  1  0  0  0
  5  3  1  0  0  0  0
  7  6  1  1  0  0  0
  8  7  1  0  0  0  0
  8 30  1  6  0  0  0
  9 10  2  0  0  0  0
 10  5  1  0  0  0  0
 11  9  1  0  0  0  0
 11 13  1  1  0  0  0
 12 11  1  0  0  0  0
 14  9  1  0  0  0  0
 15 12  1  0  0  0  0
 15 14  1  0  0  0  0
 16 12  2  0  0  0  0
 17 16  1  0  0  0  0
 18 20  2  0  0  0  0
 18 22  1  0  0  0  0
 19 18  1  0  0  0  0
 19 20  1  0  0  0  0
 20 17  1  0  0  0  0
 22 21  1  0  0  0  0
 23 22  1  0  0  0  0
 25 24  1  0  0  0  0
 25 28  1  0  0  0  0
 26 25  1  0  0  0  0
 27 26  2  0  0  0  0
 30 29  1  1  0  0  0
 31 32  1  1  0  0  0
 31 30  1  0  0  0  0
 33 31  1  0  0  0  0
 33 34  2  0  0  0  0
 35 33  1  1  0  0  0
 37 36  1  6  0  0  0
 37 38  1  0  0  0  0
 37 39  1  0  0  0  0
 38 35  1  0  0  0  0
 39 40  1  6  0  0  0
 39 35  1  0  0  0  0
 41 44  1  6  0  0  0
 41 47  1  0  0  0  0
 42 43  1  6  0  0  0
 42 52  1  0  0  0  0
 42 45  1  0  0  0  0
 42 41  1  0  0  0  0
 45 40  1  6  0  0  0
 45 41  1  0  0  0  0
 46 48  1  0  0  0  0
 47 46  2  0  0  0  0
 48 51  1  0  0  0  0
 50 51  2  0  0  0  0
 51 49  1  0  0  0  0
 53 54  1  0  0  0  0
 53 52  1  0  0  0  0
M  END
>  <MODEL>
4

>  <REMARK>
 VINA RESULT:      -6.4      3.036     10.409
  Name = 
  16 active torsions:
  status: ('A' for Active; 'I' for Inactive)
    1  A    between atoms: O_1  and  C_31
    2  A    between atoms: O_1  and  C_48
    3  A    between atoms: C_2  and  C_15
    4  A    between atoms: C_2  and  C_45
    5  A    between atoms: C_6  and  C_37
    6  A    between atoms: C_7  and  C_36
    7  A    between atoms: N_11  and  N_41
    8  A    between atoms: C_13  and  C_21
    9  A    between atoms: C_13  and  C_54
   10  A    between atoms: C_14  and  C_43
   11  A    between atoms: C_15  and  C_20
   12  A    between atoms: C_17  and  C_43
   13  A    between atoms: C_23  and  C_26
   14  A    between atoms: O_29  and  C_47
   15  A    between atoms: O_29  and  C_53
   16  A    between atoms: C_45  and  C_52
                            x       y       z     vdW  Elec       q    Type
                         _______ _______ _______ _____ _____    ______ ____

>  <TORSDO>
F 16

$$$$
=
 OpenBabel11062419103D

 54 58  0  0  1  0  0  0  0  0999 V2000
  190.2220  171.2470  141.3410 O   0  0  0  0  0  0  0  0  0  0  0  0
  191.1100  169.4280  140.1940 O   0  0  0  0  0  1  0  0  0  0  0  0
  192.7570  171.9230  140.1680 C   0  0  1  0  0  3  0  0  0  0  0  0
  191.2630  170.2890  141.2930 C   0  0  1  0  0  3  0  0  0  0  0  0
  192.5730  170.9540  141.2500 N   0  0  0  0  0  0  0  0  0  0  0  0
  191.6220  173.6160  138.9550 F   0  0  0  0  0  0  0  0  0  0  0  0
  191.5790  172.8950  140.1380 C   0  0  1  0  0  3  0  0  0  0  0  0
  190.2850  172.0670  140.1840 C   0  0  2  0  0  3  0  0  0  0  0  0
  193.2450  171.8040  143.3990 C   0  0  0  0  0  0  0  0  0  0  0  0
  193.4040  170.9970  142.3910 N   0  0  0  0  0  0  0  0  0  0  0  0
  192.1310  172.7900  143.5910 C   0  0  2  0  0  3  0  0  0  0  0  0
  192.5740  173.3920  144.8880 C   0  0  0  0  0  0  0  0  0  0  0  0
  190.8210  172.0470  143.7960 C   0  0  0  0  0  1  0  0  0  0  0  0
  194.1230  171.8250  144.4710 O   0  0  0  0  0  0  0  0  0  0  0  0
  193.7520  172.7710  145.3910 N   0  0  0  0  0  2  0  0  0  0  0  0
  191.9620  174.4070  145.4920 C   0  0  0  0  0  3  0  0  0  0  0  0
  192.4580  174.9700  146.7820 C   0  0  0  0  0  2  0  0  0  0  0  0
  194.5050  176.4730  145.7320 C   0  0  0  0  0  0  0  0  0  0  0  0
  194.1750  177.1300  146.8920 O   0  0  0  0  0  0  0  0  0  0  0  0
  193.5090  175.9890  146.5150 C   0  0  0  0  0  0  0  0  0  0  0  0
  194.4310  176.2020  143.2950 C   0  0  0  0  0  1  0  0  0  0  0  0
  195.3340  176.3790  144.4990 C   0  0  0  0  0  3  0  0  0  0  0  0
  196.2750  175.1950  144.6020 C   0  0  0  0  0  1  0  0  0  0  0  0
  195.1740  170.6690  139.0200 C   0  0  0  0  0  1  0  0  0  0  0  0
  195.2600  171.9730  139.6650 N   0  0  0  0  0  0  0  0  0  0  0  0
  194.0970  172.6110  140.2130 C   0  0  0  0  0  0  0  0  0  0  0  0
  194.2020  173.7350  140.7740 O   0  0  0  0  0  0  0  0  0  0  0  0
  196.5640  172.6150  139.7500 C   0  0  0  0  0  1  0  0  0  0  0  0
  188.0650  172.3340  139.3110 O   0  0  0  0  0  1  0  0  0  0  0  0
  189.0530  172.9630  140.0740 C   0  0  1  0  0  3  0  0  0  0  0  0
  188.5090  173.4140  141.4340 C   0  0  2  0  0  3  0  0  0  0  0  0
  187.1930  172.9760  141.6230 O   0  0  0  0  0  1  0  0  0  0  0  0
  188.5840  174.9020  141.5810 C   0  0  0  0  0  0  0  0  0  0  0  0
  188.1270  175.6310  140.7110 O   0  0  0  0  0  0  0  0  0  0  0  0
  189.2220  175.4730  142.8180 C   0  0  1  0  0  3  0  0  0  0  0  0
  190.9410  177.7650  143.9680 O   0  0  0  0  0  1  0  0  0  0  0  0
  190.3400  177.3190  142.7840 C   0  0  1  0  0  3  0  0  0  0  0  0
  190.6810  175.8520  142.5710 C   0  0  0  0  0  2  0  0  0  0  0  0
  188.8640  176.9410  142.9970 C   0  0  2  0  0  3  0  0  0  0  0  0
  188.4350  177.1630  144.3150 O   0  0  0  0  0  0  0  0  0  0  0  0
  186.0860  177.4760  143.8000 C   0  0  2  0  0  0  0  0  0  0  0  0
  186.3160  177.9000  145.2400 C   0  0  1  0  0  0  0  0  0  0  0  0
  186.5730  176.8640  146.1520 O   0  0  0  0  0  1  0  0  0  0  0  0
  186.1660  176.1170  143.5220 F   0  0  0  0  0  0  0  0  0  0  0  0
  187.4180  178.1250  144.1980 C   0  0  1  0  0  3  0  0  0  0  0  0
  184.4750  177.8170  141.9760 C   0  0  0  0  0  3  0  0  0  0  0  0
  185.2670  178.3460  142.9000 C   0  0  0  0  0  3  0  0  0  0  0  0
  183.7310  178.6480  141.1420 O   0  0  0  0  0  0  0  0  0  0  0  0
  182.2280  177.5340  139.7850 O   0  0  0  0  0  0  0  0  0  0  0  0
  181.3540  178.8920  141.4070 O   0  0  0  0  0  1  0  0  0  0  0  0
  182.4340  178.3280  140.7420 C   0  0  0  0  0  0  0  0  0  0  0  0
  185.6970  179.1870  145.7740 C   0  0  0  0  0  2  0  0  0  0  0  0
  184.2530  178.9550  146.1850 C   0  0  0  0  0  2  0  0  0  0  0  0
  184.2260  178.2900  147.4060 O   0  0  0  0  0  1  0  0  0  0  0  0
  3 26  1  1  0  0  0
  3  5  1  0  0  0  0
  4  2  1  6  0  0  0
  4  1  1  0  0  0  0
  5  4  1  0  0  0  0
  5 10  1  0  0  0  0
  7  6  1  6  0  0  0
  7  3  1  0  0  0  0
  7  8  1  0  0  0  0
  8 30  1  1  0  0  0
  8  1  1  0  0  0  0
  9 11  1  0  0  0  0
  9 14  1  0  0  0  0
 10  9  2  0  0  0  0
 11 13  1  1  0  0  0
 11 12  1  0  0  0  0
 12 15  1  0  0  0  0
 12 16  2  0  0  0  0
 14 15  1  0  0  0  0
 16 17  1  0  0  0  0
 18 20  2  0  0  0  0
 18 19  1  0  0  0  0
 20 17  1  0  0  0  0
 20 19  1  0  0  0  0
 21 22  1  0  0  0  0
 22 23  1  0  0  0  0
 22 18  1  0  0  0  0
 24 25  1  0  0  0  0
 25 28  1  0  0  0  0
 25 26  1  0  0  0  0
 26 27  2  0  0  0  0
 30 29  1  1  0  0  0
 30 31  1  0  0  0  0
 31 33  1  0  0  0  0
 31 32  1  6  0  0  0
 34 33  2  0  0  0  0
 35 33  1  6  0  0  0
 35 39  1  0  0  0  0
 37 39  1  0  0  0  0
 37 36  1  1  0  0  0
 38 37  1  0  0  0  0
 38 35  1  0  0  0  0
 39 40  1  1  0  0  0
 41 44  1  6  0  0  0
 41 45  1  0  0  0  0
 41 42  1  0  0  0  0
 42 52  1  0  0  0  0
 42 43  1  1  0  0  0
 45 40  1  1  0  0  0
 45 42  1  0  0  0  0
 46 47  2  0  0  0  0
 47 41  1  0  0  0  0
 48 46  1  0  0  0  0
 49 51  2  0  0  0  0
 51 48  1  0  0  0  0
 51 50  1  0  0  0  0
 52 53  1  0  0  0  0
 53 54  1  0  0  0  0
M  END
>  <MODEL>
5

>  <REMARK>
 VINA RESULT:      -6.4      3.269      9.488
  Name = 
  16 active torsions:
  status: ('A' for Active; 'I' for Inactive)
    1  A    between atoms: O_1  and  C_31
    2  A    between atoms: O_1  and  C_48
    3  A    between atoms: C_2  and  C_15
    4  A    between atoms: C_2  and  C_45
    5  A    between atoms: C_6  and  C_37
    6  A    between atoms: C_7  and  C_36
    7  A    between atoms: N_11  and  N_41
    8  A    between atoms: C_13  and  C_21
    9  A    between atoms: C_13  and  C_54
   10  A    between atoms: C_14  and  C_43
   11  A    between atoms: C_15  and  C_20
   12  A    between atoms: C_17  and  C_43
   13  A    between atoms: C_23  and  C_26
   14  A    between atoms: O_29  and  C_47
   15  A    between atoms: O_29  and  C_53
   16  A    between atoms: C_45  and  C_52
                            x       y       z     vdW  Elec       q    Type
                         _______ _______ _______ _____ _____    ______ ____

>  <TORSDO>
F 16

$$$$
=
 OpenBabel11062419103D

 54 58  0  0  1  0  0  0  0  0999 V2000
  189.4100  174.3480  142.1100 O   0  0  0  0  0  0  0  0  0  0  0  0
  188.6000  172.1790  142.3330 O   0  0  0  0  0  1  0  0  0  0  0  0
  189.7290  172.8870  139.6560 C   0  0  1  0  0  3  0  0  0  0  0  0
  189.7430  172.9730  142.1380 C   0  0  1  0  0  3  0  0  0  0  0  0
  190.4360  172.5850  140.9020 N   0  0  0  0  0  0  0  0  0  0  0  0
  188.3660  174.5330  138.6250 F   0  0  0  0  0  0  0  0  0  0  0  0
  189.2640  174.3420  139.6630 C   0  0  1  0  0  3  0  0  0  0  0  0
  188.5580  174.6030  141.0040 C   0  0  2  0  0  3  0  0  0  0  0  0
  192.4500  171.4830  141.6240 C   0  0  0  0  0  0  0  0  0  0  0  0
  191.8300  172.3610  140.8900 N   0  0  0  0  0  0  0  0  0  0  0  0
  191.8220  170.4970  142.5640 C   0  0  2  0  0  3  0  0  0  0  0  0
  193.0660  169.8510  143.0900 C   0  0  0  0  0  0  0  0  0  0  0  0
  191.0160  169.4790  141.7740 C   0  0  0  0  0  1  0  0  0  0  0  0
  193.8280  171.3410  141.5960 O   0  0  0  0  0  0  0  0  0  0  0  0
  194.2390  170.3670  142.4680 N   0  0  0  0  0  2  0  0  0  0  0  0
  193.0860  168.9260  144.0450 C   0  0  0  0  0  3  0  0  0  0  0  0
  194.3620  168.3250  144.5330 C   0  0  0  0  0  2  0  0  0  0  0  0
  195.3440  170.4230  146.0120 C   0  0  0  0  0  0  0  0  0  0  0  0
  195.5220  169.3320  146.8280 O   0  0  0  0  0  0  0  0  0  0  0  0
  194.9580  169.1960  145.5830 C   0  0  0  0  0  0  0  0  0  0  0  0
  194.0960  172.4640  145.4650 C   0  0  0  0  0  1  0  0  0  0  0  0
  195.4620  171.8890  145.7820 C   0  0  0  0  0  3  0  0  0  0  0  0
  196.4010  172.1520  144.6200 C   0  0  0  0  0  1  0  0  0  0  0  0
  189.5750  170.1810  138.4790 C   0  0  0  0  0  1  0  0  0  0  0  0
  190.4390  171.1920  137.8840 N   0  0  0  0  0  0  0  0  0  0  0  0
  190.5160  172.5180  138.4260 C   0  0  0  0  0  0  0  0  0  0  0  0
  191.2790  173.3700  137.8960 O   0  0  0  0  0  0  0  0  0  0  0  0
  191.2350  170.8200  136.7230 C   0  0  0  0  0  1  0  0  0  0  0  0
  187.0930  176.2220  140.0070 O   0  0  0  0  0  1  0  0  0  0  0  0
  187.9890  176.0200  141.0600 C   0  0  1  0  0  3  0  0  0  0  0  0
  187.3540  176.3640  142.4110 C   0  0  2  0  0  3  0  0  0  0  0  0
  186.2990  175.4940  142.7120 O   0  0  0  0  0  1  0  0  0  0  0  0
  186.8750  177.7820  142.4390 C   0  0  0  0  0  0  0  0  0  0  0  0
  186.3950  178.2910  141.4350 O   0  0  0  0  0  0  0  0  0  0  0  0
  186.9910  178.5580  143.7230 C   0  0  1  0  0  3  0  0  0  0  0  0
  185.7330  179.1050  146.4890 O   0  0  0  0  0  1  0  0  0  0  0  0
  185.5830  178.3160  145.3400 C   0  0  1  0  0  3  0  0  0  0  0  0
  185.6620  179.2040  144.1080 C   0  0  0  0  0  2  0  0  0  0  0  0
  186.9030  177.6400  144.9340 C   0  0  2  0  0  3  0  0  0  0  0  0
  187.9530  177.9290  145.8200 O   0  0  0  0  0  0  0  0  0  0  0  0
  190.2160  177.2250  145.3030 C   0  0  2  0  0  0  0  0  0  0  0  0
  189.9400  176.8990  146.7610 C   0  0  1  0  0  0  0  0  0  0  0  0
  189.8620  177.9970  147.6310 O   0  0  0  0  0  1  0  0  0  0  0  0
  190.3510  178.5670  144.9710 F   0  0  0  0  0  0  0  0  0  0  0  0
  188.8030  176.8130  145.7350 C   0  0  1  0  0  3  0  0  0  0  0  0
  191.9270  176.5140  143.6890 C   0  0  0  0  0  3  0  0  0  0  0  0
  190.8750  176.2010  144.4340 C   0  0  0  0  0  3  0  0  0  0  0  0
  192.5150  175.5460  142.8780 O   0  0  0  0  0  0  0  0  0  0  0  0
  194.4070  174.4530  142.1240 O   0  0  0  0  0  0  0  0  0  0  0  0
  194.6680  175.8760  143.8980 O   0  0  0  0  0  1  0  0  0  0  0  0
  193.8790  175.2610  142.9350 C   0  0  0  0  0  0  0  0  0  0  0  0
  190.3510  175.5510  147.3430 C   0  0  0  0  0  2  0  0  0  0  0  0
  189.1870  174.5760  147.3050 C   0  0  0  0  0  2  0  0  0  0  0  0
  189.4270  173.6160  146.3260 O   0  0  0  0  0  1  0  0  0  0  0  0
  1  4  1  0  0  0  0
  3 26  1  6  0  0  0
  3  7  1  0  0  0  0
  3  5  1  0  0  0  0
  4  2  1  6  0  0  0
  5  4  1  0  0  0  0
  7  6  1  6  0  0  0
  7  8  1  0  0  0  0
  8 30  1  6  0  0  0
  8  1  1  0  0  0  0
  9 11  1  0  0  0  0
 10  5  1  0  0  0  0
 10  9  2  0  0  0  0
 11 13  1  6  0  0  0
 11 12  1  0  0  0  0
 12 16  2  0  0  0  0
 14  9  1  0  0  0  0
 14 15  1  0  0  0  0
 15 12  1  0  0  0  0
 16 17  1  0  0  0  0
 17 20  1  0  0  0  0
 18 19  1  0  0  0  0
 20 18  2  0  0  0  0
 20 19  1  0  0  0  0
 21 22  1  0  0  0  0
 22 18  1  0  0  0  0
 23 22  1  0  0  0  0
 25 26  1  0  0  0  0
 25 24  1  0  0  0  0
 27 26  2  0  0  0  0
 28 25  1  0  0  0  0
 30 29  1  6  0  0  0
 30 31  1  0  0  0  0
 31 33  1  0  0  0  0
 31 32  1  6  0  0  0
 34 33  2  0  0  0  0
 35 33  1  6  0  0  0
 35 38  1  0  0  0  0
 35 39  1  0  0  0  0
 37 36  1  1  0  0  0
 38 37  1  0  0  0  0
 39 37  1  0  0  0  0
 39 40  1  1  0  0  0
 41 44  1  6  0  0  0
 41 45  1  0  0  0  0
 41 42  1  0  0  0  0
 42 52  1  0  0  0  0
 42 43  1  1  0  0  0
 45 40  1  1  0  0  0
 45 42  1  0  0  0  0
 46 47  2  0  0  0  0
 47 41  1  0  0  0  0
 48 51  1  0  0  0  0
 48 46  1  0  0  0  0
 49 51  2  0  0  0  0
 51 50  1  0  0  0  0
 53 52  1  0  0  0  0
 54 53  1  0  0  0  0
M  END
>  <MODEL>
6

>  <REMARK>
 VINA RESULT:      -6.4      3.775      9.503
  Name = 
  16 active torsions:
  status: ('A' for Active; 'I' for Inactive)
    1  A    between atoms: O_1  and  C_31
    2  A    between atoms: O_1  and  C_48
    3  A    between atoms: C_2  and  C_15
    4  A    between atoms: C_2  and  C_45
    5  A    between atoms: C_6  and  C_37
    6  A    between atoms: C_7  and  C_36
    7  A    between atoms: N_11  and  N_41
    8  A    between atoms: C_13  and  C_21
    9  A    between atoms: C_13  and  C_54
   10  A    between atoms: C_14  and  C_43
   11  A    between atoms: C_15  and  C_20
   12  A    between atoms: C_17  and  C_43
   13  A    between atoms: C_23  and  C_26
   14  A    between atoms: O_29  and  C_47
   15  A    between atoms: O_29  and  C_53
   16  A    between atoms: C_45  and  C_52
                            x       y       z     vdW  Elec       q    Type
                         _______ _______ _______ _____ _____    ______ ____

>  <TORSDO>
F 16

$$$$
=
 OpenBabel11062419103D

 54 58  0  0  1  0  0  0  0  0999 V2000
  190.5050  173.9960  143.6360 O   0  0  0  0  0  0  0  0  0  0  0  0
  191.3300  175.9450  142.6710 O   0  0  0  0  0  1  0  0  0  0  0  0
  190.1590  173.9430  140.7840 C   0  0  1  0  0  3  0  0  0  0  0  0
  190.1800  175.1820  142.9360 C   0  0  1  0  0  3  0  0  0  0  0  0
  189.4710  174.8660  141.6890 N   0  0  0  0  0  0  0  0  0  0  0  0
  191.4970  171.9850  140.7660 F   0  0  0  0  0  0  0  0  0  0  0  0
  190.6150  172.7060  141.5550 C   0  0  1  0  0  3  0  0  0  0  0  0
  191.3390  173.1850  142.8240 C   0  0  2  0  0  3  0  0  0  0  0  0
  187.4280  176.0780  142.0730 C   0  0  0  0  0  0  0  0  0  0  0  0
  188.0780  175.0670  141.5740 N   0  0  0  0  0  0  0  0  0  0  0  0
  188.0150  177.2520  142.7990 C   0  0  2  0  0  3  0  0  0  0  0  0
  186.7490  177.9840  143.1210 C   0  0  0  0  0  0  0  0  0  0  0  0
  188.8500  178.0810  141.8380 C   0  0  0  0  0  1  0  0  0  0  0  0
  186.0510  176.1960  141.9610 O   0  0  0  0  0  0  0  0  0  0  0  0
  185.6030  177.3320  142.5820 N   0  0  0  0  0  2  0  0  0  0  0  0
  186.6890  179.0950  143.8490 C   0  0  0  0  0  3  0  0  0  0  0  0
  185.3930  179.7740  144.1440 C   0  0  0  0  0  2  0  0  0  0  0  0
  184.8520  178.4970  146.5180 C   0  0  0  0  0  0  0  0  0  0  0  0
  183.6100  178.7770  146.0020 O   0  0  0  0  0  0  0  0  0  0  0  0
  184.7500  179.1390  145.3270 C   0  0  0  0  0  0  0  0  0  0  0  0
  186.5760  179.0170  148.1840 C   0  0  0  0  0  1  0  0  0  0  0  0
  185.6950  177.9290  147.6050 C   0  0  0  0  0  3  0  0  0  0  0  0
  186.5650  176.8170  147.0530 C   0  0  0  0  0  1  0  0  0  0  0  0
  191.3880  173.9380  138.0970 C   0  0  0  0  0  1  0  0  0  0  0  0
  189.9710  173.6380  138.2560 N   0  0  0  0  0  0  0  0  0  0  0  0
  189.3560  173.6150  139.5520 C   0  0  0  0  0  0  0  0  0  0  0  0
  188.1260  173.3620  139.6590 O   0  0  0  0  0  0  0  0  0  0  0  0
  189.1860  173.3670  137.0600 C   0  0  0  0  0  1  0  0  0  0  0  0
  190.9270  171.4930  144.4760 O   0  0  0  0  0  1  0  0  0  0  0  0
  191.9020  172.0050  143.6150 C   0  0  1  0  0  3  0  0  0  0  0  0
  192.4980  170.9080  142.7270 C   0  0  2  0  0  3  0  0  0  0  0  0
  192.1650  169.6340  143.2020 O   0  0  0  0  0  1  0  0  0  0  0  0
  193.9850  171.0460  142.6200 C   0  0  0  0  0  0  0  0  0  0  0  0
  194.5310  171.0040  141.5250 O   0  0  0  0  0  0  0  0  0  0  0  0
  194.7840  171.2430  143.8790 C   0  0  1  0  0  3  0  0  0  0  0  0
  197.6130  171.3170  145.1140 O   0  0  0  0  0  1  0  0  0  0  0  0
  196.9400  171.1660  143.8940 C   0  0  1  0  0  3  0  0  0  0  0  0
  195.8270  170.1420  144.0580 C   0  0  0  0  0  2  0  0  0  0  0  0
  195.8900  172.2690  143.6780 C   0  0  2  0  0  3  0  0  0  0  0  0
  195.8630  173.2010  144.7270 O   0  0  0  0  0  0  0  0  0  0  0  0
  194.6930  175.2090  145.4220 C   0  0  2  0  0  0  0  0  0  0  0  0
  195.4410  175.5170  144.1360 C   0  0  1  0  0  0  0  0  0  0  0  0
  196.8380  175.5980  144.2430 O   0  0  0  0  0  1  0  0  0  0  0  0
  195.4580  175.0240  146.5680 F   0  0  0  0  0  0  0  0  0  0  0  0
  194.8610  174.1150  144.3600 C   0  0  1  0  0  3  0  0  0  0  0  0
  192.6020  175.4300  146.6930 C   0  0  0  0  0  3  0  0  0  0  0  0
  193.2730  175.6560  145.5710 C   0  0  0  0  0  3  0  0  0  0  0  0
  191.2770  175.8450  146.8020 O   0  0  0  0  0  0  0  0  0  0  0  0
  189.8780  177.6000  147.3590 O   0  0  0  0  0  0  0  0  0  0  0  0
  191.6520  177.2030  148.7510 O   0  0  0  0  0  1  0  0  0  0  0  0
  190.8970  176.9060  147.6240 C   0  0  0  0  0  0  0  0  0  0  0  0
  194.7620  176.2970  143.0160 C   0  0  0  0  0  2  0  0  0  0  0  0
  195.3980  175.9680  141.6750 C   0  0  0  0  0  2  0  0  0  0  0  0
  196.1680  177.0480  141.2570 O   0  0  0  0  0  1  0  0  0  0  0  0
  3 26  1  6  0  0  0
  3  7  1  0  0  0  0
  3  5  1  0  0  0  0
  4  2  1  6  0  0  0
  4  1  1  0  0  0  0
  5  4  1  0  0  0  0
  7  6  1  6  0  0  0
  7  8  1  0  0  0  0
  8 30  1  1  0  0  0
  8  1  1  0  0  0  0
  9 11  1  0  0  0  0
 10  5  1  0  0  0  0
 10  9  2  0  0  0  0
 11 13  1  6  0  0  0
 11 12  1  0  0  0  0
 12 16  2  0  0  0  0
 14  9  1  0  0  0  0
 14 15  1  0  0  0  0
 15 12  1  0  0  0  0
 16 17  1  0  0  0  0
 17 20  1  0  0  0  0
 18 22  1  0  0  0  0
 19 18  1  0  0  0  0
 20 19  1  0  0  0  0
 20 18  2  0  0  0  0
 22 21  1  0  0  0  0
 23 22  1  0  0  0  0
 24 25  1  0  0  0  0
 25 26  1  0  0  0  0
 26 27  2  0  0  0  0
 28 25  1  0  0  0  0
 30 29  1  6  0  0  0
 31 32  1  1  0  0  0
 31 30  1  0  0  0  0
 33 31  1  0  0  0  0
 34 33  2  0  0  0  0
 35 33  1  6  0  0  0
 35 38  1  0  0  0  0
 37 38  1  0  0  0  0
 37 36  1  1  0  0  0
 39 35  1  0  0  0  0
 39 37  1  0  0  0  0
 39 40  1  1  0  0  0
 41 47  1  0  0  0  0
 41 44  1  1  0  0  0
 42 43  1  1  0  0  0
 42 45  1  0  0  0  0
 42 41  1  0  0  0  0
 45 40  1  1  0  0  0
 45 41  1  0  0  0  0
 46 48  1  0  0  0  0
 47 46  2  0  0  0  0
 48 51  1  0  0  0  0
 49 51  2  0  0  0  0
 51 50  1  0  0  0  0
 52 42  1  0  0  0  0
 53 52  1  0  0  0  0
 54 53  1  0  0  0  0
M  END
>  <MODEL>
7

>  <REMARK>
 VINA RESULT:      -6.2      3.163      6.041
  Name = 
  16 active torsions:
  status: ('A' for Active; 'I' for Inactive)
    1  A    between atoms: O_1  and  C_31
    2  A    between atoms: O_1  and  C_48
    3  A    between atoms: C_2  and  C_15
    4  A    between atoms: C_2  and  C_45
    5  A    between atoms: C_6  and  C_37
    6  A    between atoms: C_7  and  C_36
    7  A    between atoms: N_11  and  N_41
    8  A    between atoms: C_13  and  C_21
    9  A    between atoms: C_13  and  C_54
   10  A    between atoms: C_14  and  C_43
   11  A    between atoms: C_15  and  C_20
   12  A    between atoms: C_17  and  C_43
   13  A    between atoms: C_23  and  C_26
   14  A    between atoms: O_29  and  C_47
   15  A    between atoms: O_29  and  C_53
   16  A    between atoms: C_45  and  C_52
                            x       y       z     vdW  Elec       q    Type
                         _______ _______ _______ _____ _____    ______ ____

>  <TORSDO>
F 16

$$$$
=
 OpenBabel11062419103D

 54 58  0  0  1  0  0  0  0  0999 V2000
  192.5360  172.2850  142.8810 O   0  0  0  0  0  0  0  0  0  0  0  0
  190.4140  172.1150  143.8180 O   0  0  0  0  0  1  0  0  0  0  0  0
  192.3550  173.8550  145.2810 C   0  0  1  0  0  3  0  0  0  0  0  0
  191.3380  172.9700  143.1960 C   0  0  1  0  0  3  0  0  0  0  0  0
  191.6190  174.1340  144.0470 N   0  0  0  0  0  0  0  0  0  0  0  0
  194.1170  172.5280  146.1530 F   0  0  0  0  0  0  0  0  0  0  0  0
  193.5930  173.0170  144.9670 C   0  0  1  0  0  3  0  0  0  0  0  0
  193.1520  171.8420  144.0800 C   0  0  2  0  0  3  0  0  0  0  0  0
  190.5050  176.1410  143.3250 C   0  0  0  0  0  0  0  0  0  0  0  0
  191.5860  175.4440  143.5200 N   0  0  0  0  0  0  0  0  0  0  0  0
  189.1030  175.7390  143.6740 C   0  0  2  0  0  3  0  0  0  0  0  0
  188.3780  176.9430  143.1580 C   0  0  0  0  0  0  0  0  0  0  0  0
  188.9540  175.6650  145.1850 C   0  0  0  0  0  1  0  0  0  0  0  0
  190.5370  177.4090  142.7650 O   0  0  0  0  0  0  0  0  0  0  0  0
  189.2730  177.9250  142.6470 N   0  0  0  0  0  2  0  0  0  0  0  0
  187.0550  177.0760  143.1480 C   0  0  0  0  0  3  0  0  0  0  0  0
  186.3910  178.3000  142.6110 C   0  0  0  0  0  2  0  0  0  0  0  0
  185.4360  179.2460  145.0080 C   0  0  0  0  0  0  0  0  0  0  0  0
  185.5640  180.3740  144.2340 O   0  0  0  0  0  0  0  0  0  0  0  0
  185.8940  179.1380  143.7350 C   0  0  0  0  0  0  0  0  0  0  0  0
  186.1250  178.9640  147.3450 C   0  0  0  0  0  1  0  0  0  0  0  0
  185.0810  178.6110  146.3060 C   0  0  0  0  0  3  0  0  0  0  0  0
  185.0220  177.1040  146.1420 C   0  0  0  0  0  1  0  0  0  0  0  0
  194.8010  175.4400  144.7920 C   0  0  0  0  0  1  0  0  0  0  0  0
  193.8650  175.8380  145.8350 N   0  0  0  0  0  0  0  0  0  0  0  0
  192.6620  175.0960  146.0790 C   0  0  0  0  0  0  0  0  0  0  0  0
  191.8750  175.4580  146.9950 O   0  0  0  0  0  0  0  0  0  0  0  0
  194.1860  177.0100  146.6370 C   0  0  0  0  0  1  0  0  0  0  0  0
  193.9050  169.5720  143.8630 O   0  0  0  0  0  1  0  0  0  0  0  0
  194.3220  170.9040  143.7860 C   0  0  1  0  0  3  0  0  0  0  0  0
  195.0130  171.1990  142.4510 C   0  0  2  0  0  3  0  0  0  0  0  0
  195.4340  170.0190  141.8260 O   0  0  0  0  0  1  0  0  0  0  0  0
  196.1750  172.1260  142.6350 C   0  0  0  0  0  0  0  0  0  0  0  0
  197.1600  171.7630  143.2650 O   0  0  0  0  0  0  0  0  0  0  0  0
  196.1050  173.5000  142.0260 C   0  0  1  0  0  3  0  0  0  0  0  0
  197.3930  175.4650  140.0230 O   0  0  0  0  0  1  0  0  0  0  0  0
  197.4950  174.1550  140.5110 C   0  0  1  0  0  3  0  0  0  0  0  0
  197.4700  174.1850  142.0320 C   0  0  0  0  0  2  0  0  0  0  0  0
  196.1370  173.4340  140.5060 C   0  0  2  0  0  3  0  0  0  0  0  0
  195.1060  174.2280  139.9790 O   0  0  0  0  0  0  0  0  0  0  0  0
  192.8210  173.6380  139.4180 C   0  0  2  0  0  0  0  0  0  0  0  0
  193.5290  174.0570  138.1410 C   0  0  1  0  0  0  0  0  0  0  0  0
  193.8190  175.4250  138.0200 O   0  0  0  0  0  1  0  0  0  0  0  0
  192.5420  174.6390  140.3420 F   0  0  0  0  0  0  0  0  0  0  0  0
  194.3140  173.3320  139.2420 C   0  0  1  0  0  3  0  0  0  0  0  0
  190.6520  172.4860  139.4890 C   0  0  0  0  0  3  0  0  0  0  0  0
  191.9750  172.4050  139.4180 C   0  0  0  0  0  3  0  0  0  0  0  0
  189.8860  171.3220  139.4990 O   0  0  0  0  0  0  0  0  0  0  0  0
  189.6870  170.4150  137.3820 O   0  0  0  0  0  0  0  0  0  0  0  0
  190.7230  169.1310  138.9690 O   0  0  0  0  0  1  0  0  0  0  0  0
  190.0820  170.2980  138.5740 C   0  0  0  0  0  0  0  0  0  0  0  0
  193.3610  173.2440  136.8630 C   0  0  0  0  0  2  0  0  0  0  0  0
  194.4640  173.5730  135.8710 C   0  0  0  0  0  2  0  0  0  0  0  0
  195.4400  172.5840  135.9280 O   0  0  0  0  0  1  0  0  0  0  0  0
  1  4  1  0  0  0  0
  1  8  1  0  0  0  0
  3 26  1  6  0  0  0
  4  2  1  1  0  0  0
  4  5  1  0  0  0  0
  5  3  1  0  0  0  0
  7  3  1  0  0  0  0
  7  6  1  1  0  0  0
  8 30  1  6  0  0  0
  8  7  1  0  0  0  0
  9 10  2  0  0  0  0
  9 11  1  0  0  0  0
 10  5  1  0  0  0  0
 11 13  1  1  0  0  0
 12 11  1  0  0  0  0
 14  9  1  0  0  0  0
 15 14  1  0  0  0  0
 15 12  1  0  0  0  0
 16 12  2  0  0  0  0
 17 16  1  0  0  0  0
 17 20  1  0  0  0  0
 18 22  1  0  0  0  0
 19 18  1  0  0  0  0
 20 19  1  0  0  0  0
 20 18  2  0  0  0  0
 22 21  1  0  0  0  0
 23 22  1  0  0  0  0
 24 25  1  0  0  0  0
 25 26  1  0  0  0  0
 25 28  1  0  0  0  0
 26 27  2  0  0  0  0
 30 29  1  6  0  0  0
 31 32  1  1  0  0  0
 31 33  1  0  0  0  0
 31 30  1  0  0  0  0
 33 34  2  0  0  0  0
 35 38  1  0  0  0  0
 35 33  1  1  0  0  0
 37 36  1  6  0  0  0
 37 38  1  0  0  0  0
 39 40  1  6  0  0  0
 39 37  1  0  0  0  0
 39 35  1  0  0  0  0
 41 44  1  1  0  0  0
 42 43  1  6  0  0  0
 42 45  1  0  0  0  0
 42 41  1  0  0  0  0
 45 41  1  0  0  0  0
 45 40  1  1  0  0  0
 46 48  1  0  0  0  0
 47 41  1  0  0  0  0
 47 46  2  0  0  0  0
 49 51  2  0  0  0  0
 51 50  1  0  0  0  0
 51 48  1  0  0  0  0
 52 42  1  0  0  0  0
 53 54  1  0  0  0  0
 53 52  1  0  0  0  0
M  END
>  <MODEL>
8

>  <REMARK>
 VINA RESULT:      -6.2      2.398      5.180
  Name = 
  16 active torsions:
  status: ('A' for Active; 'I' for Inactive)
    1  A    between atoms: O_1  and  C_31
    2  A    between atoms: O_1  and  C_48
    3  A    between atoms: C_2  and  C_15
    4  A    between atoms: C_2  and  C_45
    5  A    between atoms: C_6  and  C_37
    6  A    between atoms: C_7  and  C_36
    7  A    between atoms: N_11  and  N_41
    8  A    between atoms: C_13  and  C_21
    9  A    between atoms: C_13  and  C_54
   10  A    between atoms: C_14  and  C_43
   11  A    between atoms: C_15  and  C_20
   12  A    between atoms: C_17  and  C_43
   13  A    between atoms: C_23  and  C_26
   14  A    between atoms: O_29  and  C_47
   15  A    between atoms: O_29  and  C_53
   16  A    between atoms: C_45  and  C_52
                            x       y       z     vdW  Elec       q    Type
                         _______ _______ _______ _____ _____    ______ ____

>  <TORSDO>
F 16

$$$$
=
 OpenBabel11062419103D

 54 58  0  0  1  0  0  0  0  0999 V2000
  192.4110  176.0440  143.7780 O   0  0  0  0  0  0  0  0  0  0  0  0
  194.5320  176.9710  144.0130 O   0  0  0  0  0  1  0  0  0  0  0  0
  194.1620  174.2380  145.1680 C   0  0  1  0  0  3  0  0  0  0  0  0
  193.7750  175.9510  143.4120 C   0  0  1  0  0  3  0  0  0  0  0  0
  194.3140  174.6310  143.7660 N   0  0  0  0  0  0  0  0  0  0  0  0
  192.6440  174.3400  146.9890 F   0  0  0  0  0  0  0  0  0  0  0  0
  192.7130  174.4420  145.6090 C   0  0  1  0  0  3  0  0  0  0  0  0
  192.2870  175.8550  145.1790 C   0  0  2  0  0  3  0  0  0  0  0  0
  195.2970  173.8180  141.7250 C   0  0  0  0  0  0  0  0  0  0  0  0
  194.5470  173.6510  142.7760 N   0  0  0  0  0  0  0  0  0  0  0  0
  196.1080  175.0330  141.3860 C   0  0  2  0  0  3  0  0  0  0  0  0
  196.6670  174.5820  140.0720 C   0  0  0  0  0  0  0  0  0  0  0  0
  197.2370  175.1900  142.3910 C   0  0  0  0  0  1  0  0  0  0  0  0
  195.4510  172.8290  140.7660 O   0  0  0  0  0  0  0  0  0  0  0  0
  196.2700  173.2520  139.7520 N   0  0  0  0  0  2  0  0  0  0  0  0
  197.4210  175.3360  139.2780 C   0  0  0  0  0  3  0  0  0  0  0  0
  197.9410  174.8310  137.9740 C   0  0  0  0  0  2  0  0  0  0  0  0
  196.0030  175.5170  136.1500 C   0  0  0  0  0  0  0  0  0  0  0  0
  197.0860  176.2800  135.7850 O   0  0  0  0  0  0  0  0  0  0  0  0
  197.1580  175.4230  136.8560 C   0  0  0  0  0  0  0  0  0  0  0  0
  193.8420  175.1730  137.2570 C   0  0  0  0  0  1  0  0  0  0  0  0
  194.5870  175.1100  135.9390 C   0  0  0  0  0  3  0  0  0  0  0  0
  194.5330  173.6960  135.3960 C   0  0  0  0  0  1  0  0  0  0  0  0
  197.0190  173.7510  145.7430 C   0  0  0  0  0  1  0  0  0  0  0  0
  196.0770  172.6400  145.7120 N   0  0  0  0  0  0  0  0  0  0  0  0
  194.6820  172.8530  145.4540 C   0  0  0  0  0  0  0  0  0  0  0  0
  193.8910  171.8720  145.4240 O   0  0  0  0  0  0  0  0  0  0  0  0
  196.5900  171.2970  145.9420 C   0  0  0  0  0  1  0  0  0  0  0  0
  190.9070  176.7640  146.9210 O   0  0  0  0  0  1  0  0  0  0  0  0
  190.8700  176.1720  145.6550 C   0  0  1  0  0  3  0  0  0  0  0  0
  190.0730  177.0220  144.6610 C   0  0  2  0  0  3  0  0  0  0  0  0
  190.4530  178.3680  144.7260 O   0  0  0  0  0  1  0  0  0  0  0  0
  188.6000  176.8910  144.8950 C   0  0  0  0  0  0  0  0  0  0  0  0
  188.1350  177.0670  146.0150 O   0  0  0  0  0  0  0  0  0  0  0  0
  187.7120  176.5480  143.7310 C   0  0  1  0  0  3  0  0  0  0  0  0
  186.9470  177.2430  140.8220 O   0  0  0  0  0  1  0  0  0  0  0  0
  187.8370  177.5910  141.8460 C   0  0  1  0  0  3  0  0  0  0  0  0
  187.0600  177.7960  143.1370 C   0  0  0  0  0  2  0  0  0  0  0  0
  188.5200  176.3550  142.4560 C   0  0  2  0  0  3  0  0  0  0  0  0
  188.1320  175.1600  141.8300 O   0  0  0  0  0  0  0  0  0  0  0  0
  189.0530  172.9390  141.5090 C   0  0  2  0  0  0  0  0  0  0  0  0
  189.4080  173.7790  140.2940 C   0  0  1  0  0  0  0  0  0  0  0  0
  188.3450  174.0930  139.4330 O   0  0  0  0  0  1  0  0  0  0  0  0
  187.7190  172.5770  141.6570 F   0  0  0  0  0  0  0  0  0  0  0  0
  189.3280  174.4390  141.6770 C   0  0  1  0  0  3  0  0  0  0  0  0
  190.4040  170.8910  141.6470 C   0  0  0  0  0  3  0  0  0  0  0  0
  190.1040  172.0850  142.1440 C   0  0  0  0  0  3  0  0  0  0  0  0
  191.3780  170.1090  142.2630 O   0  0  0  0  0  0  0  0  0  0  0  0
  193.6430  170.0370  142.7190 O   0  0  0  0  0  1  0  0  0  0  0  0
  193.0320  170.3070  140.5300 O   0  0  0  0  0  0  0  0  0  0  0  0
  192.7160  170.1470  141.8720 C   0  0  0  0  0  0  0  0  0  0  0  0
  190.8150  173.7360  139.7100 C   0  0  0  0  0  2  0  0  0  0  0  0
  190.8300  172.9480  138.4110 C   0  0  0  0  0  2  0  0  0  0  0  0
  190.5110  173.8000  137.3570 O   0  0  0  0  0  1  0  0  0  0  0  0
  1  8  1  0  0  0  0
  3 26  1  6  0  0  0
  3  7  1  0  0  0  0
  4  5  1  0  0  0  0
  4  1  1  0  0  0  0
  4  2  1  1  0  0  0
  5  3  1  0  0  0  0
  7  6  1  1  0  0  0
  8  7  1  0  0  0  0
  8 30  1  6  0  0  0
  9 10  2  0  0  0  0
 10  5  1  0  0  0  0
 11  9  1  0  0  0  0
 11 13  1  1  0  0  0
 12 11  1  0  0  0  0
 14  9  1  0  0  0  0
 15 12  1  0  0  0  0
 15 14  1  0  0  0  0
 16 12  2  0  0  0  0
 17 16  1  0  0  0  0
 18 20  2  0  0  0  0
 19 18  1  0  0  0  0
 19 20  1  0  0  0  0
 20 17  1  0  0  0  0
 22 18  1  0  0  0  0
 22 21  1  0  0  0  0
 23 22  1  0  0  0  0
 25 24  1  0  0  0  0
 25 28  1  0  0  0  0
 26 25  1  0  0  0  0
 27 26  2  0  0  0  0
 30 29  1  1  0  0  0
 31 32  1  1  0  0  0
 31 33  1  0  0  0  0
 31 30  1  0  0  0  0
 33 34  2  0  0  0  0
 35 33  1  1  0  0  0
 37 36  1  6  0  0  0
 37 39  1  0  0  0  0
 37 38  1  0  0  0  0
 38 35  1  0  0  0  0
 39 40  1  6  0  0  0
 39 35  1  0  0  0  0
 41 44  1  1  0  0  0
 41 45  1  0  0  0  0
 41 47  1  0  0  0  0
 42 43  1  6  0  0  0
 42 41  1  0  0  0  0
 42 45  1  0  0  0  0
 45 40  1  6  0  0  0
 46 47  2  0  0  0  0
 46 48  1  0  0  0  0
 50 51  2  0  0  0  0
 51 48  1  0  0  0  0
 51 49  1  0  0  0  0
 52 42  1  0  0  0  0
 53 52  1  0  0  0  0
 54 53  1  0  0  0  0
M  END
>  <MODEL>
9

>  <REMARK>
 VINA RESULT:      -6.2      2.998      9.160
  Name = 
  16 active torsions:
  status: ('A' for Active; 'I' for Inactive)
    1  A    between atoms: O_1  and  C_31
    2  A    between atoms: O_1  and  C_48
    3  A    between atoms: C_2  and  C_15
    4  A    between atoms: C_2  and  C_45
    5  A    between atoms: C_6  and  C_37
    6  A    between atoms: C_7  and  C_36
    7  A    between atoms: N_11  and  N_41
    8  A    between atoms: C_13  and  C_21
    9  A    between atoms: C_13  and  C_54
   10  A    between atoms: C_14  and  C_43
   11  A    between atoms: C_15  and  C_20
   12  A    between atoms: C_17  and  C_43
   13  A    between atoms: C_23  and  C_26
   14  A    between atoms: O_29  and  C_47
   15  A    between atoms: O_29  and  C_53
   16  A    between atoms: C_45  and  C_52
                            x       y       z     vdW  Elec       q    Type
                         _______ _______ _______ _____ _____    ______ ____

>  <TORSDO>
F 16

$$$$
