=
 OpenBabel11062422023D

 34 38  0  0  1  0  0  0  0  0999 V2000
  194.8490  176.2130  144.0320 C   0  0  1  0  0  3  0  0  0  0  0  0
  189.7450  177.3750  146.5240 C   0  0  0  0  0  0  0  0  0  0  0  0
  193.0560  174.2300  143.6600 C   0  0  0  0  0  2  0  0  0  0  0  0
  188.9950  178.0850  147.4000 F   0  0  0  0  0  0  0  0  0  0  0  0
  194.5340  177.3160  146.1210 O   0  0  0  0  0  0  0  0  0  0  0  0
  190.7750  175.0810  142.3110 S   0  0  0  0  0  0  0  0  0  0  0  0
  189.4780  177.4320  145.2570 N   0  0  0  0  0  0  0  0  0  0  0  0
  191.6090  175.8650  146.2430 C   0  0  0  0  0  0  0  0  0  0  0  0
  194.8970  176.7520  141.2360 C   0  0  0  0  0  2  0  0  0  0  0  0
  197.0060  176.1280  140.3380 O   0  0  0  0  0  0  0  0  0  0  0  0
  190.2560  176.6770  144.3250 C   0  0  0  0  0  0  0  0  0  0  0  0
  193.9320  175.0680  146.1080 N   0  0  0  0  0  2  0  0  0  0  0  0
  194.4620  176.2350  145.4790 C   0  0  0  0  0  0  0  0  0  0  0  0
  189.7950  176.3200  143.1380 C   0  0  0  0  0  0  0  0  0  0  0  0
  191.5470  176.0520  144.7290 C   0  0  2  0  0  3  0  0  0  0  0  0
  196.3320  176.0720  143.8750 C   0  0  0  0  0  3  0  0  0  0  0  0
  190.7950  176.5260  147.0160 N   0  0  0  0  0  0  0  0  0  0  0  0
  196.9650  176.1090  142.6950 C   0  0  0  0  0  3  0  0  0  0  0  0
  192.7240  175.1100  146.9200 C   0  0  0  0  0  2  0  0  0  0  0  0
  194.1160  175.2060  143.1130 C   0  0  1  0  0  3  0  0  0  0  0  0
  196.3220  176.3080  141.3790 C   0  0  0  0  0  0  0  0  0  0  0  0
  193.9020  175.6750  141.6710 C   0  0  0  0  0  2  0  0  0  0  0  0
  191.6390  174.7740  143.8920 C   0  0  2  0  0  3  0  0  0  0  0  0
  188.4190  176.6640  142.6710 C   0  0  0  0  0  2  0  0  0  0  0  0
  188.4800  177.6970  141.7340 O   0  0  0  0  0  0  0  0  0  0  0  0
  184.9450  178.2640  140.6940 C   0  0  0  0  0  2  0  0  0  0  0  0
  186.3490  177.6640  140.6430 C   0  0  0  0  0  2  0  0  0  0  0  0
  183.1100  178.1270  142.2130 O   0  0  0  0  0  0  0  0  0  0  0  0
  187.2090  178.2730  141.7490 C   0  0  1  0  0  3  0  0  0  0  0  0
  185.2400  178.0330  143.2540 C   0  0  0  0  0  0  0  0  0  0  0  0
  184.3600  178.1290  142.0700 C   0  0  0  0  0  0  0  0  0  0  0  0
  186.5720  178.0640  143.0960 C   0  0  0  0  0  3  0  0  0  0  0  0
  184.6620  177.8820  144.5200 O   0  0  0  0  0  0  0  0  0  0  0  0
  184.3960  178.9780  145.3870 C   0  0  0  0  0  1  0  0  0  0  0  0
  1 16  1  1  0  0  0
  1 13  1  0  0  0  0
  2 17  1  0  0  0  0
  2  4  1  0  0  0  0
  6 14  1  0  0  0  0
  6 23  1  0  0  0  0
  7  2  2  0  0  0  0
  8 19  1  0  0  0  0
  8 17  2  0  0  0  0
  9 21  1  0  0  0  0
  9 22  1  0  0  0  0
 10 21  2  0  0  0  0
 11  7  1  0  0  0  0
 12 19  1  0  0  0  0
 13 12  1  0  0  0  0
 13  5  2  0  0  0  0
 14 11  2  0  0  0  0
 15 11  1  1  0  0  0
 15  8  1  0  0  0  0
 18 16  2  0  0  0  0
 20 22  1  6  0  0  0
 20  3  1  0  0  0  0
 20  1  1  0  0  0  0
 21 18  1  0  0  0  0
 23  3  1  6  0  0  0
 23 15  1  0  0  0  0
 24 14  1  0  0  0  0
 25 24  1  0  0  0  0
 26 31  1  0  0  0  0
 27 26  1  0  0  0  0
 27 29  1  0  0  0  0
 29 25  1  1  0  0  0
 29 32  1  0  0  0  0
 30 33  1  0  0  0  0
 31 28  2  0  0  0  0
 31 30  1  0  0  0  0
 32 30  2  0  0  0  0
 33 34  1  0  0  0  0
M  END
>  <MODEL>
1

>  <REMARK>
 VINA RESULT:      -8.6      0.000      0.000
  Name = 
  4 active torsions:
  status: ('A' for Active; 'I' for Inactive)
    1  A    between atoms: C_6  and  O_12
    2  A    between atoms: C_6  and  C_21
    3  A    between atoms: O_12  and  C_15
    4  A    between atoms: C_20  and  O_26
                            x       y       z     vdW  Elec       q    Type
                         _______ _______ _______ _____ _____    ______ ____

>  <TORSDO>
F 4

$$$$
=
 OpenBabel11062422023D

 34 38  0  0  1  0  0  0  0  0999 V2000
  191.5130  174.9800  145.5120 C   0  0  1  0  0  3  0  0  0  0  0  0
  188.7820  173.4530  140.6320 C   0  0  0  0  0  0  0  0  0  0  0  0
  191.8730  176.7800  143.5330 C   0  0  0  0  0  2  0  0  0  0  0  0
  188.1680  172.5180  139.8670 F   0  0  0  0  0  0  0  0  0  0  0  0
  191.2990  172.7620  144.6660 O   0  0  0  0  0  0  0  0  0  0  0  0
  189.4820  177.8790  142.6290 S   0  0  0  0  0  0  0  0  0  0  0  0
  188.1170  174.4910  141.0330 N   0  0  0  0  0  0  0  0  0  0  0  0
  190.8260  174.1170  141.7310 C   0  0  0  0  0  0  0  0  0  0  0  0
  190.0880  176.9010  147.0580 C   0  0  0  0  0  2  0  0  0  0  0  0
  191.3740  177.5080  148.9610 O   0  0  0  0  0  0  0  0  0  0  0  0
  188.7590  175.4880  141.8300 C   0  0  0  0  0  0  0  0  0  0  0  0
  192.6450  174.1630  143.3870 N   0  0  0  0  0  2  0  0  0  0  0  0
  191.8270  173.8960  144.5260 C   0  0  0  0  0  0  0  0  0  0  0  0
  188.3280  176.7380  141.8890 C   0  0  0  0  0  0  0  0  0  0  0  0
  190.0850  175.2350  142.4600 C   0  0  2  0  0  3  0  0  0  0  0  0
  192.3730  174.8610  146.7320 C   0  0  0  0  0  3  0  0  0  0  0  0
  190.1760  173.3060  140.9460 N   0  0  0  0  0  0  0  0  0  0  0  0
  192.2500  175.6440  147.8120 C   0  0  0  0  0  3  0  0  0  0  0  0
  192.2570  173.7560  142.0440 C   0  0  0  0  0  2  0  0  0  0  0  0
  191.5200  176.4390  144.9930 C   0  0  1  0  0  3  0  0  0  0  0  0
  191.2550  176.7240  147.9830 C   0  0  0  0  0  0  0  0  0  0  0  0
  190.5110  177.3750  145.6660 C   0  0  0  0  0  2  0  0  0  0  0  0
  190.7770  176.6000  142.4730 C   0  0  2  0  0  3  0  0  0  0  0  0
  187.1410  177.2180  141.1200 C   0  0  0  0  0  2  0  0  0  0  0  0
  185.9680  176.7770  141.7350 O   0  0  0  0  0  0  0  0  0  0  0  0
  184.1830  179.2270  143.9070 C   0  0  0  0  0  2  0  0  0  0  0  0
  184.4070  178.3150  142.7020 C   0  0  0  0  0  2  0  0  0  0  0  0
  183.8410  178.8780  146.2430 O   0  0  0  0  0  0  0  0  0  0  0  0
  185.7770  177.6450  142.8110 C   0  0  1  0  0  3  0  0  0  0  0  0
  185.2830  177.2920  145.2260 C   0  0  0  0  0  0  0  0  0  0  0  0
  184.3980  178.4750  145.1890 C   0  0  0  0  0  0  0  0  0  0  0  0
  185.8970  176.8850  144.1040 C   0  0  0  0  0  3  0  0  0  0  0  0
  185.4410  176.5990  146.4330 O   0  0  0  0  0  0  0  0  0  0  0  0
  186.3700  176.9900  147.4360 C   0  0  0  0  0  1  0  0  0  0  0  0
  1 16  1  1  0  0  0
  2 17  1  0  0  0  0
  2  7  2  0  0  0  0
  4  2  1  0  0  0  0
  7 11  1  0  0  0  0
  8 19  1  0  0  0  0
  9 21  1  0  0  0  0
 11 14  2  0  0  0  0
 11 15  1  0  0  0  0
 12 13  1  0  0  0  0
 13  5  2  0  0  0  0
 13  1  1  0  0  0  0
 14  6  1  0  0  0  0
 15  8  1  6  0  0  0
 15 23  1  0  0  0  0
 16 18  2  0  0  0  0
 17  8  2  0  0  0  0
 18 21  1  0  0  0  0
 19 12  1  0  0  0  0
 20  3  1  6  0  0  0
 20  1  1  0  0  0  0
 20 22  1  0  0  0  0
 21 10  2  0  0  0  0
 22  9  1  0  0  0  0
 23  6  1  0  0  0  0
 23  3  1  1  0  0  0
 24 25  1  0  0  0  0
 24 14  1  0  0  0  0
 26 31  1  0  0  0  0
 27 29  1  0  0  0  0
 27 26  1  0  0  0  0
 29 25  1  6  0  0  0
 29 32  1  0  0  0  0
 30 33  1  0  0  0  0
 31 30  1  0  0  0  0
 31 28  2  0  0  0  0
 32 30  2  0  0  0  0
 33 34  1  0  0  0  0
M  END
>  <MODEL>
2

>  <REMARK>
 VINA RESULT:      -8.4      3.397      4.912
  Name = 
  4 active torsions:
  status: ('A' for Active; 'I' for Inactive)
    1  A    between atoms: C_6  and  O_12
    2  A    between atoms: C_6  and  C_21
    3  A    between atoms: O_12  and  C_15
    4  A    between atoms: C_20  and  O_26
                            x       y       z     vdW  Elec       q    Type
                         _______ _______ _______ _____ _____    ______ ____

>  <TORSDO>
F 4

$$$$
=
 OpenBabel11062422023D

 34 38  0  0  1  0  0  0  0  0999 V2000
  187.6370  176.7400  146.2470 C   0  0  1  0  0  3  0  0  0  0  0  0
  190.7300  172.3800  144.0040 C   0  0  0  0  0  0  0  0  0  0  0  0
  189.0120  177.4880  144.0480 C   0  0  0  0  0  2  0  0  0  0  0  0
  191.2970  171.1560  144.1180 F   0  0  0  0  0  0  0  0  0  0  0  0
  188.7900  175.0620  147.4880 O   0  0  0  0  0  0  0  0  0  0  0  0
  188.3060  176.0260  141.7880 S   0  0  0  0  0  0  0  0  0  0  0  0
  189.8080  172.5800  143.1150 N   0  0  0  0  0  0  0  0  0  0  0  0
  190.6600  174.6440  144.8410 C   0  0  0  0  0  0  0  0  0  0  0  0
  185.1650  177.1870  144.9070 C   0  0  0  0  0  2  0  0  0  0  0  0
  184.0650  179.0630  145.8630 O   0  0  0  0  0  0  0  0  0  0  0  0
  189.2120  173.8720  142.9780 C   0  0  0  0  0  0  0  0  0  0  0  0
  190.1700  176.5380  146.3330 N   0  0  0  0  0  2  0  0  0  0  0  0
  188.8840  176.0790  146.7500 C   0  0  0  0  0  0  0  0  0  0  0  0
  188.6370  174.2740  141.8570 C   0  0  0  0  0  0  0  0  0  0  0  0
  189.4070  174.9230  144.0150 C   0  0  2  0  0  3  0  0  0  0  0  0
  187.0760  177.6790  147.2710 C   0  0  0  0  0  3  0  0  0  0  0  0
  191.1950  173.4570  144.8340 N   0  0  0  0  0  0  0  0  0  0  0  0
  185.9210  178.3400  147.1250 C   0  0  0  0  0  3  0  0  0  0  0  0
  191.1970  175.6240  145.8530 C   0  0  0  0  0  2  0  0  0  0  0  0
  187.7070  177.4360  144.8650 C   0  0  1  0  0  3  0  0  0  0  0  0
  185.0160  178.2440  145.9590 C   0  0  0  0  0  0  0  0  0  0  0  0
  186.4140  177.3890  144.0460 C   0  0  0  0  0  2  0  0  0  0  0  0
  189.3970  176.2420  143.2380 C   0  0  2  0  0  3  0  0  0  0  0  0
  188.5700  173.4200  140.6340 C   0  0  0  0  0  2  0  0  0  0  0  0
  188.5460  174.2260  139.4940 O   0  0  0  0  0  0  0  0  0  0  0  0
  189.4800  172.8620  136.1510 C   0  0  0  0  0  2  0  0  0  0  0  0
  189.4430  173.8650  137.3020 C   0  0  0  0  0  2  0  0  0  0  0  0
  190.3890  170.6760  135.8520 O   0  0  0  0  0  0  0  0  0  0  0  0
  188.5490  173.3320  138.4210 C   0  0  1  0  0  3  0  0  0  0  0  0
  189.6070  171.1090  138.0500 C   0  0  0  0  0  0  0  0  0  0  0  0
  189.8670  171.4990  136.6480 C   0  0  0  0  0  0  0  0  0  0  0  0
  189.0250  171.9820  138.8860 C   0  0  0  0  0  3  0  0  0  0  0  0
  190.0040  169.8390  138.4870 O   0  0  0  0  0  0  0  0  0  0  0  0
  190.7930  169.6320  139.6530 C   0  0  0  0  0  1  0  0  0  0  0  0
  1 13  1  0  0  0  0
  1 16  1  1  0  0  0
  2  4  1  0  0  0  0
  2 17  1  0  0  0  0
  3 20  1  0  0  0  0
  6 14  1  0  0  0  0
  6 23  1  0  0  0  0
  7  2  2  0  0  0  0
  8 19  1  0  0  0  0
  9 21  1  0  0  0  0
 10 21  2  0  0  0  0
 11  7  1  0  0  0  0
 12 13  1  0  0  0  0
 13  5  2  0  0  0  0
 14 11  2  0  0  0  0
 15 11  1  6  0  0  0
 15  8  1  0  0  0  0
 17  8  2  0  0  0  0
 18 16  2  0  0  0  0
 19 12  1  0  0  0  0
 20 22  1  6  0  0  0
 20  1  1  0  0  0  0
 21 18  1  0  0  0  0
 22  9  1  0  0  0  0
 23 15  1  0  0  0  0
 23  3  1  1  0  0  0
 24 14  1  0  0  0  0
 25 24  1  0  0  0  0
 26 31  1  0  0  0  0
 26 27  1  0  0  0  0
 27 29  1  0  0  0  0
 28 31  2  0  0  0  0
 29 32  1  0  0  0  0
 29 25  1  1  0  0  0
 30 33  1  0  0  0  0
 30 32  2  0  0  0  0
 31 30  1  0  0  0  0
 33 34  1  0  0  0  0
M  END
>  <MODEL>
3

>  <REMARK>
 VINA RESULT:      -8.1      4.565      7.784
  Name = 
  4 active torsions:
  status: ('A' for Active; 'I' for Inactive)
    1  A    between atoms: C_6  and  O_12
    2  A    between atoms: C_6  and  C_21
    3  A    between atoms: O_12  and  C_15
    4  A    between atoms: C_20  and  O_26
                            x       y       z     vdW  Elec       q    Type
                         _______ _______ _______ _____ _____    ______ ____

>  <TORSDO>
F 4

$$$$
=
 OpenBabel11062422023D

 34 38  0  0  1  0  0  0  0  0999 V2000
  187.6380  176.7270  146.2640 C   0  0  1  0  0  3  0  0  0  0  0  0
  190.7690  172.3570  144.0950 C   0  0  0  0  0  0  0  0  0  0  0  0
  189.0400  177.4620  144.0780 C   0  0  0  0  0  2  0  0  0  0  0  0
  191.3370  171.1340  144.2270 F   0  0  0  0  0  0  0  0  0  0  0  0
  188.7780  175.0620  147.5320 O   0  0  0  0  0  0  0  0  0  0  0  0
  188.3670  175.9800  141.8200 S   0  0  0  0  0  0  0  0  0  0  0  0
  189.8580  172.5470  143.1920 N   0  0  0  0  0  0  0  0  0  0  0  0
  190.6840  174.6270  144.9140 C   0  0  0  0  0  0  0  0  0  0  0  0
  185.1830  177.1580  144.8880 C   0  0  0  0  0  2  0  0  0  0  0  0
  184.0670  179.0390  145.8150 O   0  0  0  0  0  0  0  0  0  0  0  0
  189.2610  173.8370  143.0380 C   0  0  0  0  0  0  0  0  0  0  0  0
  190.1700  176.5310  146.3840 N   0  0  0  0  0  2  0  0  0  0  0  0
  188.8800  176.0730  146.7890 C   0  0  0  0  0  0  0  0  0  0  0  0
  188.7000  174.2300  141.9060 C   0  0  0  0  0  0  0  0  0  0  0  0
  189.4400  174.8970  144.0690 C   0  0  2  0  0  3  0  0  0  0  0  0
  187.0620  177.6730  147.2730 C   0  0  0  0  0  3  0  0  0  0  0  0
  191.2210  173.4410  144.9230 N   0  0  0  0  0  0  0  0  0  0  0  0
  185.9070  178.3300  147.1060 C   0  0  0  0  0  3  0  0  0  0  0  0
  191.2060  175.6160  145.9250 C   0  0  0  0  0  2  0  0  0  0  0  0
  187.7240  177.4120  144.8780 C   0  0  1  0  0  3  0  0  0  0  0  0
  185.0180  178.2230  145.9300 C   0  0  0  0  0  0  0  0  0  0  0  0
  186.4420  177.3570  144.0420 C   0  0  0  0  0  2  0  0  0  0  0  0
  189.4380  176.2100  143.2820 C   0  0  2  0  0  3  0  0  0  0  0  0
  188.6510  173.3660  140.6890 C   0  0  0  0  0  2  0  0  0  0  0  0
  188.6980  174.1600  139.5420 O   0  0  0  0  0  0  0  0  0  0  0  0
  190.0430  171.2000  137.7160 C   0  0  0  0  0  2  0  0  0  0  0  0
  189.1900  171.9620  138.7290 C   0  0  0  0  0  2  0  0  0  0  0  0
  190.1140  171.0700  135.3340 O   0  0  0  0  0  0  0  0  0  0  0  0
  189.5060  173.4550  138.6480 C   0  0  1  0  0  3  0  0  0  0  0  0
  189.5040  173.2040  136.1710 C   0  0  0  0  0  0  0  0  0  0  0  0
  189.8870  171.7870  136.3430 C   0  0  0  0  0  0  0  0  0  0  0  0
  189.2900  173.9710  137.2520 C   0  0  0  0  0  3  0  0  0  0  0  0
  189.3410  173.7130  134.8760 O   0  0  0  0  0  0  0  0  0  0  0  0
  189.1980  175.1010  134.6010 C   0  0  0  0  0  1  0  0  0  0  0  0
  1 13  1  0  0  0  0
  1 16  1  1  0  0  0
  2  4  1  0  0  0  0
  2 17  1  0  0  0  0
  3 20  1  0  0  0  0
  6 14  1  0  0  0  0
  6 23  1  0  0  0  0
  7  2  2  0  0  0  0
  8 17  2  0  0  0  0
  8 19  1  0  0  0  0
  9 21  1  0  0  0  0
 10 21  2  0  0  0  0
 11  7  1  0  0  0  0
 12 13  1  0  0  0  0
 13  5  2  0  0  0  0
 14 11  2  0  0  0  0
 15 11  1  6  0  0  0
 15  8  1  0  0  0  0
 18 16  2  0  0  0  0
 19 12  1  0  0  0  0
 20 22  1  6  0  0  0
 20  1  1  0  0  0  0
 21 18  1  0  0  0  0
 22  9  1  0  0  0  0
 23 15  1  0  0  0  0
 23  3  1  1  0  0  0
 24 14  1  0  0  0  0
 25 24  1  0  0  0  0
 26 27  1  0  0  0  0
 28 31  2  0  0  0  0
 29 27  1  0  0  0  0
 29 25  1  1  0  0  0
 30 31  1  0  0  0  0
 30 32  2  0  0  0  0
 31 26  1  0  0  0  0
 32 29  1  0  0  0  0
 33 30  1  0  0  0  0
 34 33  1  0  0  0  0
M  END
>  <MODEL>
4

>  <REMARK>
 VINA RESULT:      -7.9      4.544      7.801
  Name = 
  4 active torsions:
  status: ('A' for Active; 'I' for Inactive)
    1  A    between atoms: C_6  and  O_12
    2  A    between atoms: C_6  and  C_21
    3  A    between atoms: O_12  and  C_15
    4  A    between atoms: C_20  and  O_26
                            x       y       z     vdW  Elec       q    Type
                         _______ _______ _______ _____ _____    ______ ____

>  <TORSDO>
F 4

$$$$
=
 OpenBabel11062422023D

 34 38  0  0  1  0  0  0  0  0999 V2000
  193.1720  175.6640  145.5420 C   0  0  1  0  0  3  0  0  0  0  0  0
  187.6490  177.3900  145.8930 C   0  0  0  0  0  0  0  0  0  0  0  0
  191.4580  173.8030  144.6020 C   0  0  0  0  0  2  0  0  0  0  0  0
  186.7010  178.2180  146.3960 F   0  0  0  0  0  0  0  0  0  0  0  0
  192.2160  176.9360  147.3170 O   0  0  0  0  0  0  0  0  0  0  0  0
  189.9340  174.7260  142.4640 S   0  0  0  0  0  0  0  0  0  0  0  0
  187.8760  177.3770  144.6160 N   0  0  0  0  0  0  0  0  0  0  0  0
  189.3260  175.7260  146.3890 C   0  0  0  0  0  0  0  0  0  0  0  0
  194.3030  175.9950  142.9500 C   0  0  0  0  0  2  0  0  0  0  0  0
  196.5220  175.1470  142.9330 O   0  0  0  0  0  0  0  0  0  0  0  0
  188.8650  176.4990  144.0740 C   0  0  0  0  0  0  0  0  0  0  0  0
  191.4440  174.7460  147.1660 N   0  0  0  0  0  2  0  0  0  0  0  0
  192.2810  175.8210  146.7370 C   0  0  0  0  0  0  0  0  0  0  0  0
  188.8430  176.0930  142.8150 C   0  0  0  0  0  0  0  0  0  0  0  0
  189.8480  175.8080  144.9560 C   0  0  2  0  0  3  0  0  0  0  0  0
  194.5860  175.3980  145.9580 C   0  0  0  0  0  3  0  0  0  0  0  0
  188.3530  176.5010  146.7740 N   0  0  0  0  0  0  0  0  0  0  0  0
  195.6110  175.3020  145.1020 C   0  0  0  0  0  3  0  0  0  0  0  0
  190.0320  174.9380  147.4630 C   0  0  0  0  0  2  0  0  0  0  0  0
  192.7350  174.6520  144.4550 C   0  0  1  0  0  3  0  0  0  0  0  0
  195.5230  175.4550  143.6340 C   0  0  0  0  0  0  0  0  0  0  0  0
  193.1170  175.0310  143.0210 C   0  0  0  0  0  2  0  0  0  0  0  0
  190.1170  174.4690  144.2640 C   0  0  2  0  0  3  0  0  0  0  0  0
  187.7780  176.5070  141.8540 C   0  0  0  0  0  2  0  0  0  0  0  0
  188.0050  177.8180  141.4310 O   0  0  0  0  0  0  0  0  0  0  0  0
  184.5230  178.2410  140.1640 C   0  0  0  0  0  2  0  0  0  0  0  0
  185.9280  177.6480  140.2500 C   0  0  0  0  0  2  0  0  0  0  0  0
  182.6170  178.2700  141.5990 O   0  0  0  0  0  0  0  0  0  0  0  0
  186.7340  178.3850  141.3180 C   0  0  1  0  0  3  0  0  0  0  0  0
  184.6950  178.3080  142.7440 C   0  0  0  0  0  0  0  0  0  0  0  0
  183.8730  178.2620  141.5170 C   0  0  0  0  0  0  0  0  0  0  0  0
  186.0330  178.3280  142.6490 C   0  0  0  0  0  3  0  0  0  0  0  0
  184.0560  178.3010  143.9910 O   0  0  0  0  0  0  0  0  0  0  0  0
  184.1340  179.3850  144.9080 C   0  0  0  0  0  1  0  0  0  0  0  0
  1 16  1  1  0  0  0
  1 13  1  0  0  0  0
  2  4  1  0  0  0  0
  2 17  1  0  0  0  0
  6 14  1  0  0  0  0
  6 23  1  0  0  0  0
  7  2  2  0  0  0  0
  8 17  2  0  0  0  0
  8 19  1  0  0  0  0
  9 22  1  0  0  0  0
  9 21  1  0  0  0  0
 10 21  2  0  0  0  0
 11  7  1  0  0  0  0
 12 19  1  0  0  0  0
 13 12  1  0  0  0  0
 13  5  2  0  0  0  0
 14 11  2  0  0  0  0
 15 11  1  6  0  0  0
 15  8  1  0  0  0  0
 18 16  2  0  0  0  0
 20 22  1  6  0  0  0
 20  3  1  0  0  0  0
 20  1  1  0  0  0  0
 21 18  1  0  0  0  0
 23  3  1  6  0  0  0
 23 15  1  0  0  0  0
 24 14  1  0  0  0  0
 25 24  1  0  0  0  0
 26 27  1  0  0  0  0
 26 31  1  0  0  0  0
 27 29  1  0  0  0  0
 29 25  1  1  0  0  0
 29 32  1  0  0  0  0
 30 33  1  0  0  0  0
 31 28  2  0  0  0  0
 31 30  1  0  0  0  0
 32 30  2  0  0  0  0
 33 34  1  0  0  0  0
M  END
>  <MODEL>
5

>  <REMARK>
 VINA RESULT:      -7.9      1.469      1.878
  Name = 
  4 active torsions:
  status: ('A' for Active; 'I' for Inactive)
    1  A    between atoms: C_6  and  O_12
    2  A    between atoms: C_6  and  C_21
    3  A    between atoms: O_12  and  C_15
    4  A    between atoms: C_20  and  O_26
                            x       y       z     vdW  Elec       q    Type
                         _______ _______ _______ _____ _____    ______ ____

>  <TORSDO>
F 4

$$$$
=
 OpenBabel11062422023D

 34 38  0  0  1  0  0  0  0  0999 V2000
  188.1590  176.2350  145.8470 C   0  0  1  0  0  3  0  0  0  0  0  0
  193.3510  173.6640  145.6510 C   0  0  0  0  0  0  0  0  0  0  0  0
  190.0980  177.9110  145.0000 C   0  0  0  0  0  2  0  0  0  0  0  0
  194.1790  172.6500  146.0000 F   0  0  0  0  0  0  0  0  0  0  0  0
  188.9870  174.6370  147.4110 O   0  0  0  0  0  0  0  0  0  0  0  0
  191.3530  177.0200  142.6820 S   0  0  0  0  0  0  0  0  0  0  0  0
  193.0680  173.8580  144.4010 N   0  0  0  0  0  0  0  0  0  0  0  0
  191.9840  175.4940  146.4290 C   0  0  0  0  0  0  0  0  0  0  0  0
  186.8670  176.3800  143.3140 C   0  0  0  0  0  2  0  0  0  0  0  0
  184.8110  177.5500  143.5320 O   0  0  0  0  0  0  0  0  0  0  0  0
  192.2050  174.9320  144.0210 C   0  0  0  0  0  0  0  0  0  0  0  0
  190.0860  176.6880  147.4430 N   0  0  0  0  0  2  0  0  0  0  0  0
  189.0710  175.8090  146.9580 C   0  0  0  0  0  0  0  0  0  0  0  0
  192.2300  175.4720  142.8130 C   0  0  0  0  0  0  0  0  0  0  0  0
  191.3870  175.6580  145.0330 C   0  0  2  0  0  3  0  0  0  0  0  0
  186.8270  176.6620  146.3810 C   0  0  0  0  0  3  0  0  0  0  0  0
  192.8390  174.5420  146.6660 N   0  0  0  0  0  0  0  0  0  0  0  0
  185.7890  177.0110  145.6080 C   0  0  0  0  0  3  0  0  0  0  0  0
  191.4630  176.2510  147.6250 C   0  0  0  0  0  2  0  0  0  0  0  0
  188.6970  177.2870  144.8470 C   0  0  1  0  0  3  0  0  0  0  0  0
  185.7810  177.0160  144.1300 C   0  0  0  0  0  0  0  0  0  0  0  0
  188.1920  177.1380  143.4090 C   0  0  0  0  0  2  0  0  0  0  0  0
  191.3000  177.0930  144.5070 C   0  0  2  0  0  3  0  0  0  0  0  0
  193.1690  175.0150  141.7460 C   0  0  0  0  0  2  0  0  0  0  0  0
  192.7670  173.7690  141.2620 O   0  0  0  0  0  0  0  0  0  0  0  0
  191.0820  173.5370  137.9440 C   0  0  0  0  0  2  0  0  0  0  0  0
  192.1430  173.2580  139.0070 C   0  0  0  0  0  2  0  0  0  0  0  0
  188.7650  173.0190  137.7000 O   0  0  0  0  0  0  0  0  0  0  0  0
  191.8240  174.0530  140.2730 C   0  0  1  0  0  3  0  0  0  0  0  0
  189.4430  173.4040  139.9410 C   0  0  0  0  0  0  0  0  0  0  0  0
  189.7060  173.2920  138.4910 C   0  0  0  0  0  0  0  0  0  0  0  0
  190.4450  173.7240  140.7760 C   0  0  0  0  0  3  0  0  0  0  0  0
  188.1530  173.1450  140.4210 O   0  0  0  0  0  0  0  0  0  0  0  0
  187.8770  172.8560  141.7860 C   0  0  0  0  0  1  0  0  0  0  0  0
  1 16  1  1  0  0  0
  1 13  1  0  0  0  0
  2  4  1  0  0  0  0
  2 17  1  0  0  0  0
  6 14  1  0  0  0  0
  6 23  1  0  0  0  0
  7  2  2  0  0  0  0
  8 17  2  0  0  0  0
  8 19  1  0  0  0  0
  9 22  1  0  0  0  0
  9 21  1  0  0  0  0
 10 21  2  0  0  0  0
 11  7  1  0  0  0  0
 12 19  1  0  0  0  0
 13  5  2  0  0  0  0
 13 12  1  0  0  0  0
 14 11  2  0  0  0  0
 15 11  1  6  0  0  0
 15  8  1  0  0  0  0
 18 16  2  0  0  0  0
 20 22  1  6  0  0  0
 20  3  1  0  0  0  0
 20  1  1  0  0  0  0
 21 18  1  0  0  0  0
 23  3  1  6  0  0  0
 23 15  1  0  0  0  0
 24 14  1  0  0  0  0
 25 24  1  0  0  0  0
 26 31  1  0  0  0  0
 26 27  1  0  0  0  0
 27 29  1  0  0  0  0
 28 31  2  0  0  0  0
 29 32  1  0  0  0  0
 29 25  1  1  0  0  0
 30 33  1  0  0  0  0
 30 32  2  0  0  0  0
 31 30  1  0  0  0  0
 33 34  1  0  0  0  0
M  END
>  <MODEL>
6

>  <REMARK>
 VINA RESULT:      -7.8      3.286      6.723
  Name = 
  4 active torsions:
  status: ('A' for Active; 'I' for Inactive)
    1  A    between atoms: C_6  and  O_12
    2  A    between atoms: C_6  and  C_21
    3  A    between atoms: O_12  and  C_15
    4  A    between atoms: C_20  and  O_26
                            x       y       z     vdW  Elec       q    Type
                         _______ _______ _______ _____ _____    ______ ____

>  <TORSDO>
F 4

$$$$
=
 OpenBabel11062422023D

 34 38  0  0  1  0  0  0  0  0999 V2000
  191.7530  173.9610  140.9010 C   0  0  1  0  0  3  0  0  0  0  0  0
  193.8720  176.5190  145.6520 C   0  0  0  0  0  0  0  0  0  0  0  0
  191.4650  172.4260  143.1020 C   0  0  0  0  0  2  0  0  0  0  0  0
  194.6440  177.4660  146.2370 F   0  0  0  0  0  0  0  0  0  0  0  0
  193.7200  175.3040  141.0050 O   0  0  0  0  0  0  0  0  0  0  0  0
  189.9330  173.6520  145.0760 S   0  0  0  0  0  0  0  0  0  0  0  0
  192.5930  176.5150  145.8610 N   0  0  0  0  0  0  0  0  0  0  0  0
  193.8190  174.5960  144.1930 C   0  0  0  0  0  0  0  0  0  0  0  0
  188.9270  174.2020  140.6460 C   0  0  0  0  0  2  0  0  0  0  0  0
  188.1960  173.0180  138.7200 O   0  0  0  0  0  0  0  0  0  0  0  0
  191.7720  175.5120  145.2580 C   0  0  0  0  0  0  0  0  0  0  0  0
  193.8720  173.2680  142.1230 N   0  0  0  0  0  2  0  0  0  0  0  0
  193.1720  174.2130  141.3130 C   0  0  0  0  0  0  0  0  0  0  0  0
  190.5980  175.1600  145.7570 C   0  0  0  0  0  0  0  0  0  0  0  0
  192.2930  174.6450  144.1650 C   0  0  2  0  0  3  0  0  0  0  0  0
  191.6850  173.4620  139.4900 C   0  0  0  0  0  3  0  0  0  0  0  0
  194.4890  175.5000  144.8490 N   0  0  0  0  0  0  0  0  0  0  0  0
  190.5400  173.2360  138.8320 C   0  0  0  0  0  3  0  0  0  0  0  0
  194.6150  173.6690  143.3090 C   0  0  0  0  0  2  0  0  0  0  0  0
  190.8890  173.0690  141.8260 C   0  0  1  0  0  3  0  0  0  0  0  0
  189.1800  173.4530  139.3710 C   0  0  0  0  0  0  0  0  0  0  0  0
  189.4030  173.4340  141.8800 C   0  0  0  0  0  2  0  0  0  0  0  0
  191.5760  173.3060  144.3560 C   0  0  2  0  0  3  0  0  0  0  0  0
  190.0340  175.7700  146.9980 C   0  0  0  0  0  2  0  0  0  0  0  0
  189.4810  177.0180  146.7040 O   0  0  0  0  0  0  0  0  0  0  0  0
  185.7860  176.8450  146.2290 C   0  0  0  0  0  2  0  0  0  0  0  0
  187.1010  177.1120  146.9590 C   0  0  0  0  0  2  0  0  0  0  0  0
  184.6750  177.8150  144.3530 O   0  0  0  0  0  0  0  0  0  0  0  0
  188.2770  176.7350  146.0580 C   0  0  1  0  0  3  0  0  0  0  0  0
  187.0420  177.8230  144.1890 C   0  0  0  0  0  0  0  0  0  0  0  0
  185.7760  177.5250  144.8900 C   0  0  0  0  0  0  0  0  0  0  0  0
  188.2110  177.4850  144.7550 C   0  0  0  0  0  3  0  0  0  0  0  0
  186.9970  178.4810  142.9530 O   0  0  0  0  0  0  0  0  0  0  0  0
  187.6750  178.0070  141.7970 C   0  0  0  0  0  1  0  0  0  0  0  0
  1 16  1  6  0  0  0
  1 13  1  0  0  0  0
  1 20  1  0  0  0  0
  2  7  2  0  0  0  0
  2  4  1  0  0  0  0
  5 13  2  0  0  0  0
  6 14  1  0  0  0  0
  8 17  2  0  0  0  0
  9 22  1  0  0  0  0
 10 21  2  0  0  0  0
 11 14  2  0  0  0  0
 11  7  1  0  0  0  0
 12 19  1  0  0  0  0
 13 12  1  0  0  0  0
 14 24  1  0  0  0  0
 15  8  1  1  0  0  0
 15 23  1  0  0  0  0
 15 11  1  0  0  0  0
 17  2  1  0  0  0  0
 18 21  1  0  0  0  0
 18 16  2  0  0  0  0
 19  8  1  0  0  0  0
 20 22  1  1  0  0  0
 20  3  1  0  0  0  0
 21  9  1  0  0  0  0
 23  3  1  6  0  0  0
 23  6  1  0  0  0  0
 25 24  1  0  0  0  0
 26 27  1  0  0  0  0
 28 31  2  0  0  0  0
 29 25  1  1  0  0  0
 29 27  1  0  0  0  0
 30 32  2  0  0  0  0
 30 31  1  0  0  0  0
 31 26  1  0  0  0  0
 32 29  1  0  0  0  0
 33 30  1  0  0  0  0
 34 33  1  0  0  0  0
M  END
>  <MODEL>
7

>  <REMARK>
 VINA RESULT:      -7.7      2.915      4.847
  Name = 
  4 active torsions:
  status: ('A' for Active; 'I' for Inactive)
    1  A    between atoms: C_6  and  O_12
    2  A    between atoms: C_6  and  C_21
    3  A    between atoms: O_12  and  C_15
    4  A    between atoms: C_20  and  O_26
                            x       y       z     vdW  Elec       q    Type
                         _______ _______ _______ _____ _____    ______ ____

>  <TORSDO>
F 4

$$$$
=
 OpenBabel11062422023D

 34 38  0  0  1  0  0  0  0  0999 V2000
  192.4040  172.3030  142.3340 C   0  0  1  0  0  3  0  0  0  0  0  0
  191.1030  177.7820  143.7080 C   0  0  0  0  0  0  0  0  0  0  0  0
  190.0440  172.4980  143.6290 C   0  0  0  0  0  2  0  0  0  0  0  0
  191.4730  179.0730  143.8870 F   0  0  0  0  0  0  0  0  0  0  0  0
  193.9520  173.9680  143.0510 O   0  0  0  0  0  0  0  0  0  0  0  0
  188.2040  174.0910  142.2780 S   0  0  0  0  0  0  0  0  0  0  0  0
  190.2260  177.4870  142.8000 N   0  0  0  0  0  0  0  0  0  0  0  0
  191.4040  175.4940  144.4150 C   0  0  0  0  0  0  0  0  0  0  0  0
  191.0870  171.3770  139.9850 C   0  0  0  0  0  2  0  0  0  0  0  0
  191.6300  169.0940  139.6130 O   0  0  0  0  0  0  0  0  0  0  0  0
  189.8200  176.1290  142.6110 C   0  0  0  0  0  0  0  0  0  0  0  0
  192.4410  173.2790  144.6820 N   0  0  0  0  0  2  0  0  0  0  0  0
  192.9990  173.2080  143.3690 C   0  0  0  0  0  0  0  0  0  0  0  0
  188.6580  175.8030  142.0690 C   0  0  0  0  0  0  0  0  0  0  0  0
  190.5820  175.0050  143.2240 C   0  0  2  0  0  3  0  0  0  0  0  0
  193.2060  171.0450  142.1950 C   0  0  0  0  0  3  0  0  0  0  0  0
  191.6490  176.7640  144.5620 N   0  0  0  0  0  0  0  0  0  0  0  0
  192.9550  170.0950  141.2860 C   0  0  0  0  0  3  0  0  0  0  0  0
  192.1460  174.5500  145.3280 C   0  0  0  0  0  2  0  0  0  0  0  0
  190.8980  171.9640  142.4640 C   0  0  1  0  0  3  0  0  0  0  0  0
  191.8760  170.1350  140.2750 C   0  0  0  0  0  0  0  0  0  0  0  0
  190.1590  171.7640  141.1380 C   0  0  0  0  0  2  0  0  0  0  0  0
  189.5260  173.9400  143.5310 C   0  0  2  0  0  3  0  0  0  0  0  0
  187.6650  176.8230  141.6180 C   0  0  0  0  0  2  0  0  0  0  0  0
  186.3880  176.4660  142.0530 O   0  0  0  0  0  0  0  0  0  0  0  0
  184.2780  179.0430  143.7310 C   0  0  0  0  0  2  0  0  0  0  0  0
  184.6700  178.0170  142.6690 C   0  0  0  0  0  2  0  0  0  0  0  0
  183.6960  178.9350  146.0430 O   0  0  0  0  0  0  0  0  0  0  0  0
  186.0450  177.4360  142.9970 C   0  0  1  0  0  3  0  0  0  0  0  0
  185.3030  177.3240  145.3710 C   0  0  0  0  0  0  0  0  0  0  0  0
  184.3810  178.4490  145.1060 C   0  0  0  0  0  0  0  0  0  0  0  0
  186.0520  176.8290  144.3740 C   0  0  0  0  0  3  0  0  0  0  0  0
  185.3550  176.7770  146.6590 O   0  0  0  0  0  0  0  0  0  0  0  0
  186.3830  177.0880  147.5930 C   0  0  0  0  0  1  0  0  0  0  0  0
  1 16  1  1  0  0  0
  1 20  1  0  0  0  0
  1 13  1  0  0  0  0
  2  4  1  0  0  0  0
  2 17  1  0  0  0  0
  5 13  2  0  0  0  0
  6 23  1  0  0  0  0
  7  2  2  0  0  0  0
  8 17  2  0  0  0  0
  8 19  1  0  0  0  0
  9 21  1  0  0  0  0
  9 22  1  0  0  0  0
 10 21  2  0  0  0  0
 11  7  1  0  0  0  0
 12 19  1  0  0  0  0
 13 12  1  0  0  0  0
 14  6  1  0  0  0  0
 14 11  2  0  0  0  0
 15 11  1  1  0  0  0
 15 23  1  0  0  0  0
 15  8  1  0  0  0  0
 18 16  2  0  0  0  0
 20 22  1  6  0  0  0
 20  3  1  0  0  0  0
 21 18  1  0  0  0  0
 23  3  1  6  0  0  0
 24 25  1  0  0  0  0
 24 14  1  0  0  0  0
 26 31  1  0  0  0  0
 27 29  1  0  0  0  0
 27 26  1  0  0  0  0
 29 25  1  6  0  0  0
 29 32  1  0  0  0  0
 30 33  1  0  0  0  0
 31 30  1  0  0  0  0
 31 28  2  0  0  0  0
 32 30  2  0  0  0  0
 33 34  1  0  0  0  0
M  END
>  <MODEL>
8

>  <REMARK>
 VINA RESULT:      -7.7      3.143      4.058
  Name = 
  4 active torsions:
  status: ('A' for Active; 'I' for Inactive)
    1  A    between atoms: C_6  and  O_12
    2  A    between atoms: C_6  and  C_21
    3  A    between atoms: O_12  and  C_15
    4  A    between atoms: C_20  and  O_26
                            x       y       z     vdW  Elec       q    Type
                         _______ _______ _______ _____ _____    ______ ____

>  <TORSDO>
F 4

$$$$
=
 OpenBabel11062422023D

 34 38  0  0  1  0  0  0  0  0999 V2000
  190.5830  172.4740  140.1890 C   0  0  1  0  0  3  0  0  0  0  0  0
  191.0540  176.1220  144.6700 C   0  0  0  0  0  0  0  0  0  0  0  0
  188.1960  172.9990  141.3340 C   0  0  0  0  0  2  0  0  0  0  0  0
  191.8060  176.7450  145.6090 F   0  0  0  0  0  0  0  0  0  0  0  0
  192.3590  172.5120  141.7780 O   0  0  0  0  0  0  0  0  0  0  0  0
  187.5430  175.7030  141.2690 S   0  0  0  0  0  0  0  0  0  0  0  0
  190.4300  176.8250  143.7770 N   0  0  0  0  0  0  0  0  0  0  0  0
  190.2760  174.0070  143.8030 C   0  0  0  0  0  0  0  0  0  0  0  0
  189.7520  173.7390  137.7760 C   0  0  0  0  0  2  0  0  0  0  0  0
  189.4990  172.1100  136.0660 O   0  0  0  0  0  0  0  0  0  0  0  0
  189.6260  176.1780  142.7890 C   0  0  0  0  0  0  0  0  0  0  0  0
  190.3020  171.8420  142.6350 N   0  0  0  0  0  2  0  0  0  0  0  0
  191.1460  172.2550  141.5600 C   0  0  0  0  0  0  0  0  0  0  0  0
  188.6340  176.7930  142.1660 C   0  0  0  0  0  0  0  0  0  0  0  0
  189.7110  174.7070  142.5690 C   0  0  2  0  0  3  0  0  0  0  0  0
  190.8700  171.3050  139.2970 C   0  0  0  0  0  3  0  0  0  0  0  0
  190.9180  174.6920  144.7060 N   0  0  0  0  0  0  0  0  0  0  0  0
  190.5600  171.2650  137.9950 C   0  0  0  0  0  3  0  0  0  0  0  0
  190.3230  172.5050  143.9310 C   0  0  0  0  0  2  0  0  0  0  0  0
  189.0900  172.8710  140.0860 C   0  0  1  0  0  3  0  0  0  0  0  0
  189.9090  172.3510  137.2310 C   0  0  0  0  0  0  0  0  0  0  0  0
  188.7430  173.8060  138.9240 C   0  0  0  0  0  2  0  0  0  0  0  0
  188.2970  174.2930  142.1530 C   0  0  2  0  0  3  0  0  0  0  0  0
  188.2600  178.2100  142.4480 C   0  0  0  0  0  2  0  0  0  0  0  0
  186.9390  178.4390  142.0590 O   0  0  0  0  0  0  0  0  0  0  0  0
  184.1170  178.8750  144.4570 C   0  0  0  0  0  2  0  0  0  0  0  0
  184.8140  178.4590  143.1630 C   0  0  0  0  0  2  0  0  0  0  0  0
  184.2300  178.1660  146.7330 O   0  0  0  0  0  0  0  0  0  0  0  0
  186.2890  178.8560  143.2210 C   0  0  1  0  0  3  0  0  0  0  0  0
  186.2960  178.0360  145.5730 C   0  0  0  0  0  0  0  0  0  0  0  0
  184.8510  178.3350  145.6510 C   0  0  0  0  0  0  0  0  0  0  0  0
  186.9570  178.2460  144.4240 C   0  0  0  0  0  3  0  0  0  0  0  0
  186.9430  177.5100  146.6980 O   0  0  0  0  0  0  0  0  0  0  0  0
  187.6230  176.2600  146.6870 C   0  0  0  0  0  1  0  0  0  0  0  0
  1 16  1  6  0  0  0
  1 13  1  0  0  0  0
  2 17  1  0  0  0  0
  2  4  1  0  0  0  0
  6 23  1  0  0  0  0
  6 14  1  0  0  0  0
  7  2  2  0  0  0  0
  8 19  1  0  0  0  0
  8 17  2  0  0  0  0
  9 22  1  0  0  0  0
 10 21  2  0  0  0  0
 11  7  1  0  0  0  0
 12 19  1  0  0  0  0
 13  5  2  0  0  0  0
 13 12  1  0  0  0  0
 14 24  1  0  0  0  0
 14 11  2  0  0  0  0
 15 11  1  1  0  0  0
 15  8  1  0  0  0  0
 18 16  2  0  0  0  0
 20 22  1  1  0  0  0
 20  1  1  0  0  0  0
 20  3  1  0  0  0  0
 21  9  1  0  0  0  0
 21 18  1  0  0  0  0
 23  3  1  6  0  0  0
 23 15  1  0  0  0  0
 25 24  1  0  0  0  0
 26 31  1  0  0  0  0
 27 29  1  0  0  0  0
 27 26  1  0  0  0  0
 29 25  1  6  0  0  0
 29 32  1  0  0  0  0
 30 31  1  0  0  0  0
 30 33  1  0  0  0  0
 31 28  2  0  0  0  0
 32 30  2  0  0  0  0
 34 33  1  0  0  0  0
M  END
>  <MODEL>
9

>  <REMARK>
 VINA RESULT:      -7.7      3.743      5.042
  Name = 
  4 active torsions:
  status: ('A' for Active; 'I' for Inactive)
    1  A    between atoms: C_6  and  O_12
    2  A    between atoms: C_6  and  C_21
    3  A    between atoms: O_12  and  C_15
    4  A    between atoms: C_20  and  O_26
                            x       y       z     vdW  Elec       q    Type
                         _______ _______ _______ _____ _____    ______ ____

>  <TORSDO>
F 4

$$$$
