=
 OpenBabel11062420433D

 45 49  0  0  1  0  0  0  0  0999 V2000
  184.6650  178.9160  144.7870 C   0  0  0  0  0  3  0  0  0  0  0  0
  185.3130  177.7660  142.9910 C   0  0  0  0  0  0  0  0  0  0  0  0
  184.0920  178.3780  142.7600 C   0  0  0  0  0  0  0  0  0  0  0  0
  183.7010  179.0730  143.8530 N   0  0  0  0  0  0  0  0  0  0  0  0
  185.6700  178.1180  144.2770 C   0  0  1  0  0  3  0  0  0  0  0  0
  181.8650  178.2370  141.5940 N   0  0  0  0  0  2  0  0  0  0  0  0
  183.8790  178.4170  140.3770 N   0  0  0  0  0  2  0  0  0  0  0  0
  183.2890  178.3150  141.5250 C   0  0  0  0  0  0  0  0  0  0  0  0
  179.7250  177.9230  140.5190 C   0  0  0  0  0  0  0  0  0  0  0  0
  181.0360  178.1700  140.4330 C   0  0  0  0  0  3  0  0  0  0  0  0
  179.0720  177.7130  141.8450 C   0  0  0  0  0  2  0  0  0  0  0  0
  178.3640  178.9150  142.2380 N   0  0  0  0  0  1  0  0  0  0  0  0
  178.9330  177.8520  139.3710 O   0  0  0  0  0  0  0  0  0  0  0  0
  178.4850  176.6460  138.8750 N   0  0  0  0  0  2  0  0  0  0  0  0
  178.6680  176.6860  137.4840 N   0  0  0  0  0  2  0  0  0  0  0  0
  179.4000  176.4140  134.7930 C   0  0  0  0  0  2  0  0  0  0  0  0
  179.9320  175.5580  135.6690 C   0  0  0  0  0  0  0  0  0  0  0  0
  179.6060  175.6210  137.1490 C   0  0  2  0  0  3  0  0  0  0  0  0
  182.1060  174.8920  134.6610 C   0  0  0  0  0  1  0  0  0  0  0  0
  179.6640  173.0440  136.9640 C   0  0  0  0  0  2  0  0  0  0  0  0
  180.9820  173.3550  136.2540 C   0  0  0  0  0  2  0  0  0  0  0  0
  180.7590  174.4030  135.1620 C   0  0  1  0  0  3  0  0  0  0  0  0
  179.0750  174.2740  137.6730 C   0  0  0  0  0  2  0  0  0  0  0  0
  186.1310  176.9550  142.0350 C   0  0  0  0  0  2  0  0  0  0  0  0
  187.1280  177.8450  141.3150 C   0  0  0  0  0  1  0  0  0  0  0  0
  186.9180  177.7350  145.0000 C   0  0  0  0  0  2  0  0  0  0  0  0
  186.7220  176.4090  145.7170 C   0  0  0  0  0  2  0  0  0  0  0  0
  187.6030  176.3270  146.9560 C   0  0  0  0  0  2  0  0  0  0  0  0
  189.8100  177.3820  146.8140 N   0  0  0  0  0  0  0  0  0  0  0  0
  189.7850  175.3450  145.8640 C   0  0  0  0  0  0  0  0  0  0  0  0
  191.0960  177.1510  146.3010 N   0  0  0  0  0  2  0  0  0  0  0  0
  191.1690  175.8460  145.6450 C   0  0  1  0  0  3  0  0  0  0  0  0
  189.3220  174.2420  145.4680 O   0  0  0  0  0  0  0  0  0  0  0  0
  189.0510  176.3670  146.5850 C   0  0  0  0  0  0  0  0  0  0  0  0
  192.1780  174.9620  146.3720 C   0  0  1  0  0  3  0  0  0  0  0  0
  192.6510  173.8490  145.4490 C   0  0  0  0  0  2  0  0  0  0  0  0
  193.6100  174.9730  145.8080 C   0  0  1  0  0  3  0  0  0  0  0  0
  193.9200  175.9140  144.6180 C   0  0  1  0  0  3  0  0  0  0  0  0
  194.7000  177.4190  146.0540 C   0  0  0  0  0  1  0  0  0  0  0  0
  194.9980  176.7830  144.8440 O   0  0  0  0  0  0  0  0  0  0  0  0
  194.1420  175.1390  143.4060 N   0  0  0  0  0  2  0  0  0  0  0  0
  192.8040  174.7770  141.4930 C   0  0  0  0  0  2  0  0  0  0  0  0
  193.3840  175.7730  142.3420 C   0  0  2  0  0  3  0  0  0  0  0  0
  194.0730  175.4790  141.0110 C   0  0  0  0  0  0  0  0  0  0  0  0
  194.9650  175.6520  140.1990 O   0  0  0  0  0  0  0  0  0  0  0  0
  2  5  1  0  0  0  0
  3  2  2  0  0  0  0
  3  4  1  0  0  0  0
  4  1  2  0  0  0  0
  5  1  1  0  0  0  0
  5 26  1  6  0  0  0
  7  8  2  0  0  0  0
  8  6  1  0  0  0  0
  8  3  1  0  0  0  0
  9 11  1  0  0  0  0
 10  9  2  0  0  0  0
 10  6  1  0  0  0  0
 11 12  1  0  0  0  0
 13  9  1  0  0  0  0
 14 13  1  0  0  0  0
 15 14  1  0  0  0  0
 16 17  2  0  0  0  0
 17 18  1  0  0  0  0
 18 15  1  6  0  0  0
 18 23  1  0  0  0  0
 20 23  1  0  0  0  0
 21 20  1  0  0  0  0
 22 19  1  1  0  0  0
 22 17  1  0  0  0  0
 22 21  1  0  0  0  0
 24  2  1  0  0  0  0
 25 24  1  0  0  0  0
 26 27  1  0  0  0  0
 27 28  1  0  0  0  0
 30 34  1  0  0  0  0
 31 29  1  0  0  0  0
 32 30  1  1  0  0  0
 32 31  1  0  0  0  0
 32 35  1  0  0  0  0
 33 30  2  0  0  0  0
 34 29  2  0  0  0  0
 34 28  1  0  0  0  0
 35 36  1  6  0  0  0
 36 37  1  0  0  0  0
 37 38  1  6  0  0  0
 37 35  1  0  0  0  0
 38 41  1  6  0  0  0
 38 40  1  0  0  0  0
 40 39  1  0  0  0  0
 42 43  1  0  0  0  0
 43 41  1  1  0  0  0
 44 42  1  0  0  0  0
 44 43  1  0  0  0  0
 45 44  2  0  0  0  0
M  END
>  <MODEL>
1

>  <REMARK>
 VINA RESULT:      -6.9      0.000      0.000
  Name = 
  17 active torsions:
  status: ('A' for Active; 'I' for Inactive)
    1  A    between atoms: C_2  and  C_34
    2  A    between atoms: C_7  and  C_12
    3  A    between atoms: C_7  and  O_29
    4  A    between atoms: N_8  and  O_29
    5  A    between atoms: N_8  and  N_33
    6  A    between atoms: C_10  and  N_39
    7  A    between atoms: N_11  and  C_19
    8  A    between atoms: C_13  and  O_18
    9  A    between atoms: C_13  and  N_39
   10  A    between atoms: C_13  and  C_45
   11  A    between atoms: C_14  and  C_16
   12  A    between atoms: C_17  and  N_33
   13  A    between atoms: C_22  and  C_25
   14  A    between atoms: C_27  and  C_36
   15  A    between atoms: C_27  and  C_37
   16  A    between atoms: C_36  and  C_44
   17  A    between atoms: C_37  and  C_38
                            x       y       z     vdW  Elec       q    Type
                         _______ _______ _______ _____ _____    ______ ____

>  <TORSDO>
F 17

$$$$
=
 OpenBabel11062420433D

 45 49  0  0  1  0  0  0  0  0999 V2000
  191.2920  174.0850  145.2100 C   0  0  0  0  0  3  0  0  0  0  0  0
  193.3740  174.8510  145.4240 C   0  0  0  0  0  0  0  0  0  0  0  0
  193.1940  174.2780  144.1750 C   0  0  0  0  0  0  0  0  0  0  0  0
  191.9300  173.8120  144.0500 N   0  0  0  0  0  0  0  0  0  0  0  0
  192.1600  174.7280  146.0700 C   0  0  1  0  0  3  0  0  0  0  0  0
  194.2230  175.1140  142.0350 N   0  0  0  0  0  2  0  0  0  0  0  0
  195.1070  173.2460  143.1760 N   0  0  0  0  0  2  0  0  0  0  0  0
  194.1970  174.1630  143.1010 C   0  0  0  0  0  0  0  0  0  0  0  0
  196.2520  175.8350  140.9400 C   0  0  0  0  0  0  0  0  0  0  0  0
  195.1690  175.0520  140.9660 C   0  0  0  0  0  3  0  0  0  0  0  0
  196.5180  176.8090  142.0400 C   0  0  0  0  0  2  0  0  0  0  0  0
  197.4550  176.2350  142.9860 N   0  0  0  0  0  1  0  0  0  0  0  0
  197.1600  175.7670  139.8810 O   0  0  0  0  0  0  0  0  0  0  0  0
  197.2060  174.6770  139.0380 N   0  0  0  0  0  2  0  0  0  0  0  0
  196.6240  175.0790  137.8250 N   0  0  0  0  0  2  0  0  0  0  0  0
  193.8950  175.4360  137.3020 C   0  0  0  0  0  2  0  0  0  0  0  0
  194.4180  174.2300  137.0650 C   0  0  0  0  0  0  0  0  0  0  0  0
  195.8850  173.9320  137.3090 C   0  0  2  0  0  3  0  0  0  0  0  0
  192.9910  173.2650  135.2700 C   0  0  0  0  0  1  0  0  0  0  0  0
  194.9750  171.6550  138.1260 C   0  0  0  0  0  2  0  0  0  0  0  0
  194.2180  171.7430  136.8010 C   0  0  0  0  0  2  0  0  0  0  0  0
  193.5040  173.0910  136.6890 C   0  0  1  0  0  3  0  0  0  0  0  0
  196.0720  172.7260  138.2470 C   0  0  0  0  0  2  0  0  0  0  0  0
  194.5930  175.5380  145.9530 C   0  0  0  0  0  2  0  0  0  0  0  0
  194.5240  177.0270  145.6610 C   0  0  0  0  0  1  0  0  0  0  0  0
  191.8170  175.2110  147.4390 C   0  0  0  0  0  2  0  0  0  0  0  0
  190.3430  175.5760  147.5120 C   0  0  0  0  0  2  0  0  0  0  0  0
  190.1410  177.0640  147.2640 C   0  0  0  0  0  2  0  0  0  0  0  0
  190.2340  177.7350  144.9090 N   0  0  0  0  0  0  0  0  0  0  0  0
  188.1510  177.1800  145.5480 C   0  0  0  0  0  0  0  0  0  0  0  0
  189.3980  177.9230  143.7980 N   0  0  0  0  0  2  0  0  0  0  0  0
  188.0110  177.5990  144.1280 C   0  0  1  0  0  3  0  0  0  0  0  0
  187.2190  176.8090  146.3100 O   0  0  0  0  0  0  0  0  0  0  0  0
  189.5490  177.3050  145.9130 C   0  0  0  0  0  0  0  0  0  0  0  0
  187.5380  176.4290  143.2700 C   0  0  1  0  0  3  0  0  0  0  0  0
  186.1830  175.9420  143.7580 C   0  0  0  0  0  2  0  0  0  0  0  0
  186.2720  176.6790  142.4310 C   0  0  1  0  0  3  0  0  0  0  0  0
  185.6350  178.0890  142.4720 C   0  0  1  0  0  3  0  0  0  0  0  0
  185.7950  177.7240  140.2880 C   0  0  0  0  0  1  0  0  0  0  0  0
  185.6130  178.7410  141.2300 O   0  0  0  0  0  0  0  0  0  0  0  0
  184.2910  178.0200  143.0280 N   0  0  0  0  0  2  0  0  0  0  0  0
  185.3520  179.6270  144.3970 C   0  0  0  0  0  2  0  0  0  0  0  0
  184.1000  179.2040  143.8470 C   0  0  2  0  0  3  0  0  0  0  0  0
  184.4000  178.8450  145.3010 C   0  0  0  0  0  0  0  0  0  0  0  0
  184.1120  178.3160  146.3610 O   0  0  0  0  0  0  0  0  0  0  0  0
  1  5  1  0  0  0  0
  2 24  1  0  0  0  0
  2  5  1  0  0  0  0
  3  2  2  0  0  0  0
  4  3  1  0  0  0  0
  4  1  2  0  0  0  0
  5 26  1  6  0  0  0
  6  8  1  0  0  0  0
  8  7  2  0  0  0  0
  8  3  1  0  0  0  0
  9 10  2  0  0  0  0
  9 11  1  0  0  0  0
 10  6  1  0  0  0  0
 11 12  1  0  0  0  0
 13  9  1  0  0  0  0
 14 13  1  0  0  0  0
 15 14  1  0  0  0  0
 17 16  2  0  0  0  0
 17 18  1  0  0  0  0
 18 15  1  1  0  0  0
 18 23  1  0  0  0  0
 20 23  1  0  0  0  0
 21 20  1  0  0  0  0
 22 19  1  6  0  0  0
 22 21  1  0  0  0  0
 22 17  1  0  0  0  0
 25 24  1  0  0  0  0
 26 27  1  0  0  0  0
 28 27  1  0  0  0  0
 29 34  2  0  0  0  0
 30 34  1  0  0  0  0
 30 33  2  0  0  0  0
 31 29  1  0  0  0  0
 32 31  1  6  0  0  0
 32 30  1  0  0  0  0
 34 28  1  0  0  0  0
 35 36  1  1  0  0  0
 35 32  1  0  0  0  0
 37 38  1  1  0  0  0
 37 35  1  0  0  0  0
 37 36  1  0  0  0  0
 38 40  1  6  0  0  0
 38 41  1  0  0  0  0
 39 40  1  0  0  0  0
 42 44  1  0  0  0  0
 43 41  1  6  0  0  0
 43 42  1  0  0  0  0
 43 44  1  0  0  0  0
 44 45  2  0  0  0  0
M  END
>  <MODEL>
2

>  <REMARK>
 VINA RESULT:      -6.9      4.471     11.581
  Name = 
  17 active torsions:
  status: ('A' for Active; 'I' for Inactive)
    1  A    between atoms: C_2  and  C_34
    2  A    between atoms: C_7  and  C_12
    3  A    between atoms: C_7  and  O_29
    4  A    between atoms: N_8  and  O_29
    5  A    between atoms: N_8  and  N_33
    6  A    between atoms: C_10  and  N_39
    7  A    between atoms: N_11  and  C_19
    8  A    between atoms: C_13  and  O_18
    9  A    between atoms: C_13  and  N_39
   10  A    between atoms: C_13  and  C_45
   11  A    between atoms: C_14  and  C_16
   12  A    between atoms: C_17  and  N_33
   13  A    between atoms: C_22  and  C_25
   14  A    between atoms: C_27  and  C_36
   15  A    between atoms: C_27  and  C_37
   16  A    between atoms: C_36  and  C_44
   17  A    between atoms: C_37  and  C_38
                            x       y       z     vdW  Elec       q    Type
                         _______ _______ _______ _____ _____    ______ ____

>  <TORSDO>
F 17

$$$$
=
 OpenBabel11062420433D

 45 49  0  0  1  0  0  0  0  0999 V2000
  189.0110  173.7900  137.5340 C   0  0  0  0  0  3  0  0  0  0  0  0
  189.9490  173.1760  139.4600 C   0  0  0  0  0  0  0  0  0  0  0  0
  188.7240  173.7830  139.6880 C   0  0  0  0  0  0  0  0  0  0  0  0
  188.1600  174.1570  138.5170 N   0  0  0  0  0  2  0  0  0  0  0  0
  190.1180  173.1810  138.0900 C   0  0  0  0  0  0  0  0  0  0  0  0
  187.8820  175.3480  141.4720 N   0  0  0  0  0  2  0  0  0  0  0  0
  187.6230  173.0090  141.6670 N   0  0  0  0  0  2  0  0  0  0  0  0
  188.0820  174.0160  140.9950 C   0  0  0  0  0  0  0  0  0  0  0  0
  186.7630  176.8410  143.0050 C   0  0  0  0  0  0  0  0  0  0  0  0
  187.2690  175.6350  142.7300 C   0  0  0  0  0  3  0  0  0  0  0  0
  186.8160  177.9410  141.9970 C   0  0  0  0  0  2  0  0  0  0  0  0
  186.1240  179.1070  142.5080 N   0  0  0  0  0  1  0  0  0  0  0  0
  186.1760  177.1050  144.2450 O   0  0  0  0  0  0  0  0  0  0  0  0
  186.8530  176.8880  145.4260 N   0  0  0  0  0  2  0  0  0  0  0  0
  188.0640  177.5930  145.3340 N   0  0  0  0  0  2  0  0  0  0  0  0
  190.4670  176.7170  144.1890 C   0  0  0  0  0  2  0  0  0  0  0  0
  190.2780  176.4800  145.4900 C   0  0  0  0  0  0  0  0  0  0  0  0
  189.0160  176.9160  146.2080 C   0  0  2  0  0  3  0  0  0  0  0  0
  192.5700  176.3840  146.4530 C   0  0  0  0  0  1  0  0  0  0  0  0
  189.2920  174.6570  147.4330 C   0  0  0  0  0  2  0  0  0  0  0  0
  190.7210  175.1800  147.5900 C   0  0  0  0  0  2  0  0  0  0  0  0
  191.2730  175.6250  146.2350 C   0  0  1  0  0  3  0  0  0  0  0  0
  188.3260  175.7350  146.9160 C   0  0  0  0  0  2  0  0  0  0  0  0
  190.8730  172.5640  140.4650 C   0  0  0  0  0  2  0  0  0  0  0  0
  190.5560  171.0890  140.6370 C   0  0  0  0  0  1  0  0  0  0  0  0
  191.2700  172.6200  137.3250 C   0  0  0  0  0  2  0  0  0  0  0  0
  192.2550  173.7230  136.9770 C   0  0  0  0  0  2  0  0  0  0  0  0
  193.6630  173.3510  137.4200 C   0  0  0  0  0  2  0  0  0  0  0  0
  194.2620  175.2780  138.8110 N   0  0  0  0  0  0  0  0  0  0  0  0
  194.1950  173.3700  139.9960 C   0  0  0  0  0  0  0  0  0  0  0  0
  194.6150  175.6000  140.1300 N   0  0  0  0  0  2  0  0  0  0  0  0
  194.6140  174.4080  140.9760 C   0  0  1  0  0  3  0  0  0  0  0  0
  194.0530  172.1390  140.2300 O   0  0  0  0  0  0  0  0  0  0  0  0
  194.0110  174.0180  138.7120 C   0  0  0  0  0  0  0  0  0  0  0  0
  193.5670  174.5580  142.0750 C   0  0  1  0  0  3  0  0  0  0  0  0
  193.5070  173.2900  142.9120 C   0  0  0  0  0  2  0  0  0  0  0  0
  194.1020  174.5510  143.5180 C   0  0  1  0  0  3  0  0  0  0  0  0
  195.6330  174.4640  143.7300 C   0  0  1  0  0  3  0  0  0  0  0  0
  195.6200  176.5950  144.3540 C   0  0  0  0  0  1  0  0  0  0  0  0
  196.1240  175.3390  144.7100 O   0  0  0  0  0  0  0  0  0  0  0  0
  196.0230  173.0950  144.0370 N   0  0  0  0  0  2  0  0  0  0  0  0
  196.9390  172.0900  145.9690 C   0  0  0  0  0  2  0  0  0  0  0  0
  195.8820  172.9160  145.4710 C   0  0  2  0  0  3  0  0  0  0  0  0
  195.5700  171.4470  145.7510 C   0  0  0  0  0  0  0  0  0  0  0  0
  194.8150  170.4900  145.7640 O   0  0  0  0  0  0  0  0  0  0  0  0
  1  5  2  0  0  0  0
  1  4  1  0  0  0  0
  2  3  2  0  0  0  0
  2 24  1  0  0  0  0
  3  8  1  0  0  0  0
  4  3  1  0  0  0  0
  5  2  1  0  0  0  0
  6 10  1  0  0  0  0
  8  6  1  0  0  0  0
  8  7  2  0  0  0  0
  9 13  1  0  0  0  0
 10  9  2  0  0  0  0
 11 12  1  0  0  0  0
 11  9  1  0  0  0  0
 13 14  1  0  0  0  0
 15 14  1  0  0  0  0
 16 17  2  0  0  0  0
 17 18  1  0  0  0  0
 17 22  1  0  0  0  0
 18 15  1  6  0  0  0
 18 23  1  0  0  0  0
 20 21  1  0  0  0  0
 22 19  1  1  0  0  0
 22 21  1  0  0  0  0
 23 20  1  0  0  0  0
 24 25  1  0  0  0  0
 26  5  1  0  0  0  0
 27 26  1  0  0  0  0
 27 28  1  0  0  0  0
 28 34  1  0  0  0  0
 29 31  1  0  0  0  0
 30 33  2  0  0  0  0
 31 32  1  0  0  0  0
 32 30  1  6  0  0  0
 32 35  1  0  0  0  0
 34 29  2  0  0  0  0
 34 30  1  0  0  0  0
 35 36  1  1  0  0  0
 35 37  1  0  0  0  0
 36 37  1  0  0  0  0
 37 38  1  6  0  0  0
 38 41  1  1  0  0  0
 38 40  1  0  0  0  0
 39 40  1  0  0  0  0
 43 41  1  6  0  0  0
 43 44  1  0  0  0  0
 43 42  1  0  0  0  0
 44 45  2  0  0  0  0
 44 42  1  0  0  0  0
M  END
>  <MODEL>
3

>  <REMARK>
 VINA RESULT:      -6.6      5.330      9.186
  Name = 
  17 active torsions:
  status: ('A' for Active; 'I' for Inactive)
    1  A    between atoms: C_2  and  C_34
    2  A    between atoms: C_7  and  C_12
    3  A    between atoms: C_7  and  O_29
    4  A    between atoms: N_8  and  O_29
    5  A    between atoms: N_8  and  N_33
    6  A    between atoms: C_10  and  N_39
    7  A    between atoms: N_11  and  C_19
    8  A    between atoms: C_13  and  O_18
    9  A    between atoms: C_13  and  N_39
   10  A    between atoms: C_13  and  C_45
   11  A    between atoms: C_14  and  C_16
   12  A    between atoms: C_17  and  N_33
   13  A    between atoms: C_22  and  C_25
   14  A    between atoms: C_27  and  C_36
   15  A    between atoms: C_27  and  C_37
   16  A    between atoms: C_36  and  C_44
   17  A    between atoms: C_37  and  C_38
                            x       y       z     vdW  Elec       q    Type
                         _______ _______ _______ _____ _____    ______ ____

>  <TORSDO>
F 17

$$$$
=
 OpenBabel11062420433D

 45 49  0  0  1  0  0  0  0  0999 V2000
  189.0720  173.7800  137.7040 C   0  0  0  0  0  3  0  0  0  0  0  0
  190.2060  173.6270  139.6160 C   0  0  0  0  0  0  0  0  0  0  0  0
  188.8910  173.9870  139.8590 C   0  0  0  0  0  0  0  0  0  0  0  0
  188.2070  174.0820  138.6960 N   0  0  0  0  0  2  0  0  0  0  0  0
  190.3090  173.4930  138.2460 C   0  0  0  0  0  0  0  0  0  0  0  0
  187.9940  175.5830  141.5880 N   0  0  0  0  0  2  0  0  0  0  0  0
  187.9060  173.2460  141.9110 N   0  0  0  0  0  2  0  0  0  0  0  0
  188.2720  174.2450  141.1730 C   0  0  0  0  0  0  0  0  0  0  0  0
  186.7230  177.0300  143.0460 C   0  0  0  0  0  0  0  0  0  0  0  0
  187.4000  175.8940  142.8490 C   0  0  0  0  0  3  0  0  0  0  0  0
  186.5560  178.0210  141.9420 C   0  0  0  0  0  2  0  0  0  0  0  0
  185.1880  178.4970  141.9140 N   0  0  0  0  0  1  0  0  0  0  0  0
  186.1580  177.3200  144.2890 O   0  0  0  0  0  0  0  0  0  0  0  0
  186.7380  176.8930  145.4650 N   0  0  0  0  0  2  0  0  0  0  0  0
  187.8000  177.7700  145.7350 N   0  0  0  0  0  2  0  0  0  0  0  0
  190.3170  177.3270  144.5860 C   0  0  0  0  0  2  0  0  0  0  0  0
  190.0990  176.8380  145.8100 C   0  0  0  0  0  0  0  0  0  0  0  0
  188.7740  177.0250  146.5240 C   0  0  2  0  0  3  0  0  0  0  0  0
  192.3500  176.7570  146.8670 C   0  0  0  0  0  1  0  0  0  0  0  0
  189.2110  174.6090  147.3310 C   0  0  0  0  0  2  0  0  0  0  0  0
  190.5770  175.2120  147.6610 C   0  0  0  0  0  2  0  0  0  0  0  0
  191.1390  175.9460  146.4430 C   0  0  1  0  0  3  0  0  0  0  0  0
  188.1700  175.6800  146.9650 C   0  0  0  0  0  2  0  0  0  0  0  0
  191.2860  173.3560  140.6160 C   0  0  0  0  0  2  0  0  0  0  0  0
  191.3270  171.8750  140.9530 C   0  0  0  0  0  1  0  0  0  0  0  0
  191.5190  173.0930  137.4700 C   0  0  0  0  0  2  0  0  0  0  0  0
  192.5150  174.2400  137.4250 C   0  0  0  0  0  2  0  0  0  0  0  0
  193.9390  173.7160  137.3080 C   0  0  0  0  0  2  0  0  0  0  0  0
  194.5350  171.9990  138.9520 N   0  0  0  0  0  0  0  0  0  0  0  0
  194.8260  174.0770  139.7580 C   0  0  0  0  0  0  0  0  0  0  0  0
  194.9830  171.8690  140.2750 N   0  0  0  0  0  2  0  0  0  0  0  0
  195.1850  173.1800  140.8890 C   0  0  1  0  0  3  0  0  0  0  0  0
  194.8230  175.3370  139.7800 O   0  0  0  0  0  0  0  0  0  0  0  0
  194.4460  173.2440  138.6330 C   0  0  0  0  0  0  0  0  0  0  0  0
  196.6540  173.3520  141.2620 C   0  0  1  0  0  3  0  0  0  0  0  0
  196.8490  174.6590  142.0150 C   0  0  0  0  0  2  0  0  0  0  0  0
  196.9710  173.3450  142.7680 C   0  0  1  0  0  3  0  0  0  0  0  0
  195.8070  173.0980  143.7590 C   0  0  1  0  0  3  0  0  0  0  0  0
  197.1480  172.2560  145.3160 C   0  0  0  0  0  1  0  0  0  0  0  0
  195.9880  171.9780  144.5840 O   0  0  0  0  0  0  0  0  0  0  0  0
  195.5710  174.2860  144.5660 N   0  0  0  0  0  2  0  0  0  0  0  0
  193.4430  173.7300  143.7020 C   0  0  0  0  0  2  0  0  0  0  0  0
  194.1370  174.3990  144.7610 C   0  0  2  0  0  3  0  0  0  0  0  0
  193.5570  175.2530  143.6340 C   0  0  0  0  0  0  0  0  0  0  0  0
  193.3610  176.3240  143.0870 O   0  0  0  0  0  0  0  0  0  0  0  0
  1  5  2  0  0  0  0
  1  4  1  0  0  0  0
  2  3  2  0  0  0  0
  2 24  1  0  0  0  0
  3  8  1  0  0  0  0
  4  3  1  0  0  0  0
  5  2  1  0  0  0  0
  6 10  1  0  0  0  0
  8  6  1  0  0  0  0
  8  7  2  0  0  0  0
  9 13  1  0  0  0  0
 10  9  2  0  0  0  0
 11  9  1  0  0  0  0
 12 11  1  0  0  0  0
 13 14  1  0  0  0  0
 14 15  1  0  0  0  0
 16 17  2  0  0  0  0
 17 22  1  0  0  0  0
 17 18  1  0  0  0  0
 18 15  1  6  0  0  0
 18 23  1  0  0  0  0
 20 21  1  0  0  0  0
 22 19  1  1  0  0  0
 22 21  1  0  0  0  0
 23 20  1  0  0  0  0
 24 25  1  0  0  0  0
 26  5  1  0  0  0  0
 27 26  1  0  0  0  0
 28 27  1  0  0  0  0
 28 34  1  0  0  0  0
 29 31  1  0  0  0  0
 30 33  2  0  0  0  0
 31 32  1  0  0  0  0
 32 30  1  6  0  0  0
 32 35  1  0  0  0  0
 34 29  2  0  0  0  0
 34 30  1  0  0  0  0
 35 36  1  1  0  0  0
 35 37  1  0  0  0  0
 36 37  1  0  0  0  0
 37 38  1  1  0  0  0
 38 41  1  1  0  0  0
 38 40  1  0  0  0  0
 40 39  1  0  0  0  0
 42 43  1  0  0  0  0
 43 41  1  6  0  0  0
 44 42  1  0  0  0  0
 44 43  1  0  0  0  0
 45 44  2  0  0  0  0
M  END
>  <MODEL>
4

>  <REMARK>
 VINA RESULT:      -6.5      5.124      9.240
  Name = 
  17 active torsions:
  status: ('A' for Active; 'I' for Inactive)
    1  A    between atoms: C_2  and  C_34
    2  A    between atoms: C_7  and  C_12
    3  A    between atoms: C_7  and  O_29
    4  A    between atoms: N_8  and  O_29
    5  A    between atoms: N_8  and  N_33
    6  A    between atoms: C_10  and  N_39
    7  A    between atoms: N_11  and  C_19
    8  A    between atoms: C_13  and  O_18
    9  A    between atoms: C_13  and  N_39
   10  A    between atoms: C_13  and  C_45
   11  A    between atoms: C_14  and  C_16
   12  A    between atoms: C_17  and  N_33
   13  A    between atoms: C_22  and  C_25
   14  A    between atoms: C_27  and  C_36
   15  A    between atoms: C_27  and  C_37
   16  A    between atoms: C_36  and  C_44
   17  A    between atoms: C_37  and  C_38
                            x       y       z     vdW  Elec       q    Type
                         _______ _______ _______ _____ _____    ______ ____

>  <TORSDO>
F 17

$$$$
=
 OpenBabel11062420433D

 45 49  0  0  1  0  0  0  0  0999 V2000
  184.3730  178.8310  144.9420 C   0  0  0  0  0  3  0  0  0  0  0  0
  185.1700  177.7890  143.1400 C   0  0  0  0  0  0  0  0  0  0  0  0
  183.9160  178.3170  142.8800 C   0  0  0  0  0  0  0  0  0  0  0  0
  183.4340  178.9460  143.9770 N   0  0  0  0  0  0  0  0  0  0  0  0
  185.4530  178.1260  144.4490 C   0  0  1  0  0  3  0  0  0  0  0  0
  181.7380  178.2120  141.6210 N   0  0  0  0  0  2  0  0  0  0  0  0
  183.8090  178.2690  140.4900 N   0  0  0  0  0  2  0  0  0  0  0  0
  183.1660  178.2350  141.6130 C   0  0  0  0  0  0  0  0  0  0  0  0
  179.6290  177.9940  140.4640 C   0  0  0  0  0  0  0  0  0  0  0  0
  180.9590  178.1300  140.4270 C   0  0  0  0  0  3  0  0  0  0  0  0
  178.9030  177.9300  141.7670 C   0  0  0  0  0  2  0  0  0  0  0  0
  177.8010  176.9940  141.6660 N   0  0  0  0  0  1  0  0  0  0  0  0
  178.8860  177.9050  139.2850 O   0  0  0  0  0  0  0  0  0  0  0  0
  178.4160  176.6970  138.8160 N   0  0  0  0  0  2  0  0  0  0  0  0
  179.1610  176.3910  137.6660 N   0  0  0  0  0  2  0  0  0  0  0  0
  181.4130  174.8070  137.1470 C   0  0  0  0  0  2  0  0  0  0  0  0
  180.2170  174.2140  137.1080 C   0  0  0  0  0  0  0  0  0  0  0  0
  178.9350  174.9790  137.3790 C   0  0  2  0  0  3  0  0  0  0  0  0
  180.6710  171.8380  137.6860 C   0  0  0  0  0  1  0  0  0  0  0  0
  178.0000  173.4860  135.4870 C   0  0  0  0  0  2  0  0  0  0  0  0
  178.6690  172.3990  136.3290 C   0  0  0  0  0  2  0  0  0  0  0  0
  180.1170  172.7850  136.6370 C   0  0  1  0  0  3  0  0  0  0  0  0
  177.9310  174.8360  136.2200 C   0  0  0  0  0  2  0  0  0  0  0  0
  186.0810  177.0720  142.1930 C   0  0  0  0  0  2  0  0  0  0  0  0
  187.1550  178.0170  141.6830 C   0  0  0  0  0  1  0  0  0  0  0  0
  186.6980  177.8130  145.2080 C   0  0  0  0  0  2  0  0  0  0  0  0
  186.4920  176.5730  146.0650 C   0  0  0  0  0  2  0  0  0  0  0  0
  187.7560  176.2370  146.8430 C   0  0  0  0  0  2  0  0  0  0  0  0
  188.8420  174.7950  145.1850 N   0  0  0  0  0  0  0  0  0  0  0  0
  190.1360  176.5400  145.7630 C   0  0  0  0  0  0  0  0  0  0  0  0
  190.0450  174.6700  144.4740 N   0  0  0  0  0  2  0  0  0  0  0  0
  190.9610  175.7610  144.8010 C   0  0  1  0  0  3  0  0  0  0  0  0
  190.4850  177.5930  146.3610 O   0  0  0  0  0  0  0  0  0  0  0  0
  188.8670  175.8550  145.9180 C   0  0  0  0  0  0  0  0  0  0  0  0
  191.2450  176.5870  143.5500 C   0  0  1  0  0  3  0  0  0  0  0  0
  192.5120  177.4060  143.7450 C   0  0  0  0  0  2  0  0  0  0  0  0
  192.5320  176.2270  142.7850 C   0  0  1  0  0  3  0  0  0  0  0  0
  193.3780  175.0370  143.2980 C   0  0  1  0  0  3  0  0  0  0  0  0
  193.1450  174.5370  141.1470 C   0  0  0  0  0  1  0  0  0  0  0  0
  193.9120  174.2360  142.2770 O   0  0  0  0  0  0  0  0  0  0  0  0
  194.4400  175.5120  144.1730 N   0  0  0  0  0  2  0  0  0  0  0  0
  195.6890  174.8340  146.0600 C   0  0  0  0  0  2  0  0  0  0  0  0
  194.8860  174.3800  144.9660 C   0  0  2  0  0  3  0  0  0  0  0  0
  196.4040  174.2620  144.8360 C   0  0  0  0  0  0  0  0  0  0  0  0
  197.4120  173.9650  144.2190 O   0  0  0  0  0  0  0  0  0  0  0  0
  2  5  1  0  0  0  0
  3  2  2  0  0  0  0
  3  4  1  0  0  0  0
  4  1  2  0  0  0  0
  5  1  1  0  0  0  0
  5 26  1  6  0  0  0
  7  8  2  0  0  0  0
  8  6  1  0  0  0  0
  8  3  1  0  0  0  0
  9 11  1  0  0  0  0
 10  9  2  0  0  0  0
 10  6  1  0  0  0  0
 12 11  1  0  0  0  0
 13  9  1  0  0  0  0
 14 13  1  0  0  0  0
 15 14  1  0  0  0  0
 17 16  2  0  0  0  0
 17 18  1  0  0  0  0
 18 15  1  6  0  0  0
 20 23  1  0  0  0  0
 20 21  1  0  0  0  0
 21 22  1  0  0  0  0
 22 17  1  0  0  0  0
 22 19  1  1  0  0  0
 23 18  1  0  0  0  0
 24  2  1  0  0  0  0
 25 24  1  0  0  0  0
 26 27  1  0  0  0  0
 27 28  1  0  0  0  0
 29 34  2  0  0  0  0
 30 34  1  0  0  0  0
 30 33  2  0  0  0  0
 31 29  1  0  0  0  0
 32 31  1  6  0  0  0
 32 30  1  0  0  0  0
 34 28  1  0  0  0  0
 35 36  1  1  0  0  0
 35 32  1  0  0  0  0
 37 38  1  1  0  0  0
 37 35  1  0  0  0  0
 37 36  1  0  0  0  0
 38 40  1  6  0  0  0
 38 41  1  0  0  0  0
 39 40  1  0  0  0  0
 43 41  1  6  0  0  0
 43 42  1  0  0  0  0
 44 43  1  0  0  0  0
 44 42  1  0  0  0  0
 45 44  2  0  0  0  0
M  END
>  <MODEL>
5

>  <REMARK>
 VINA RESULT:      -6.5      1.606      2.492
  Name = 
  17 active torsions:
  status: ('A' for Active; 'I' for Inactive)
    1  A    between atoms: C_2  and  C_34
    2  A    between atoms: C_7  and  C_12
    3  A    between atoms: C_7  and  O_29
    4  A    between atoms: N_8  and  O_29
    5  A    between atoms: N_8  and  N_33
    6  A    between atoms: C_10  and  N_39
    7  A    between atoms: N_11  and  C_19
    8  A    between atoms: C_13  and  O_18
    9  A    between atoms: C_13  and  N_39
   10  A    between atoms: C_13  and  C_45
   11  A    between atoms: C_14  and  C_16
   12  A    between atoms: C_17  and  N_33
   13  A    between atoms: C_22  and  C_25
   14  A    between atoms: C_27  and  C_36
   15  A    between atoms: C_27  and  C_37
   16  A    between atoms: C_36  and  C_44
   17  A    between atoms: C_37  and  C_38
                            x       y       z     vdW  Elec       q    Type
                         _______ _______ _______ _____ _____    ______ ____

>  <TORSDO>
F 17

$$$$
=
 OpenBabel11062420433D

 45 49  0  0  1  0  0  0  0  0999 V2000
  192.0800  173.5410  136.1350 C   0  0  0  0  0  3  0  0  0  0  0  0
  191.1220  172.2110  137.6440 C   0  0  0  0  0  0  0  0  0  0  0  0
  190.4470  173.4180  137.5640 C   0  0  0  0  0  0  0  0  0  0  0  0
  191.0330  174.2240  136.6490 N   0  0  0  0  0  0  0  0  0  0  0  0
  192.1520  172.2970  136.7290 C   0  0  1  0  0  3  0  0  0  0  0  0
  189.3730  174.1020  139.7360 N   0  0  0  0  0  2  0  0  0  0  0  0
  188.1330  174.0040  137.7290 N   0  0  0  0  0  2  0  0  0  0  0  0
  189.2600  173.8220  138.3400 C   0  0  0  0  0  0  0  0  0  0  0  0
  188.4130  174.9090  141.8000 C   0  0  0  0  0  0  0  0  0  0  0  0
  188.2580  174.4940  140.5390 C   0  0  0  0  0  3  0  0  0  0  0  0
  189.7690  174.9840  142.4200 C   0  0  0  0  0  2  0  0  0  0  0  0
  189.9500  173.8780  143.3380 N   0  0  0  0  0  1  0  0  0  0  0  0
  187.3090  175.2780  142.5720 O   0  0  0  0  0  0  0  0  0  0  0  0
  186.6140  176.4440  142.3290 N   0  0  0  0  0  2  0  0  0  0  0  0
  187.2620  177.4600  143.0500 N   0  0  0  0  0  2  0  0  0  0  0  0
  185.7350  179.5020  144.2120 C   0  0  0  0  0  2  0  0  0  0  0  0
  186.0610  178.4570  144.9800 C   0  0  0  0  0  0  0  0  0  0  0  0
  186.8800  177.2970  144.4480 C   0  0  2  0  0  3  0  0  0  0  0  0
  184.2460  178.3320  146.6770 C   0  0  0  0  0  1  0  0  0  0  0  0
  187.9540  177.3700  146.7970 C   0  0  0  0  0  2  0  0  0  0  0  0
  186.4830  177.4000  147.2160 C   0  0  0  0  0  2  0  0  0  0  0  0
  185.7390  178.4970  146.4530 C   0  0  1  0  0  3  0  0  0  0  0  0
  188.1330  177.0440  145.3060 C   0  0  0  0  0  2  0  0  0  0  0  0
  190.7770  171.0180  138.4800 C   0  0  0  0  0  2  0  0  0  0  0  0
  189.8460  170.0950  137.7140 C   0  0  0  0  0  1  0  0  0  0  0  0
  193.1610  171.2450  136.4100 C   0  0  0  0  0  2  0  0  0  0  0  0
  194.1340  171.0840  137.5670 C   0  0  0  0  0  2  0  0  0  0  0  0
  194.9480  172.3530  137.7700 C   0  0  0  0  0  2  0  0  0  0  0  0
  195.8540  172.1340  140.0370 N   0  0  0  0  0  0  0  0  0  0  0  0
  194.1940  173.6460  139.9340 C   0  0  0  0  0  0  0  0  0  0  0  0
  195.6640  172.6270  141.3370 N   0  0  0  0  0  2  0  0  0  0  0  0
  194.5840  173.6110  141.3690 C   0  0  1  0  0  3  0  0  0  0  0  0
  193.2750  174.3450  139.4290 O   0  0  0  0  0  0  0  0  0  0  0  0
  195.0360  172.7050  139.2210 C   0  0  0  0  0  0  0  0  0  0  0  0
  195.1360  174.9650  141.8050 C   0  0  1  0  0  3  0  0  0  0  0  0
  193.9990  175.8620  142.2730 C   0  0  0  0  0  2  0  0  0  0  0  0
  194.9770  175.3070  143.2970 C   0  0  1  0  0  3  0  0  0  0  0  0
  194.3470  174.2420  144.2280 C   0  0  1  0  0  3  0  0  0  0  0  0
  196.4730  174.2180  144.8690 C   0  0  0  0  0  1  0  0  0  0  0  0
  195.1920  173.8200  145.2650 O   0  0  0  0  0  0  0  0  0  0  0  0
  193.0870  174.7280  144.7710 N   0  0  0  0  0  2  0  0  0  0  0  0
  192.1900  175.6140  146.7690 C   0  0  0  0  0  2  0  0  0  0  0  0
  193.2440  174.8220  146.2110 C   0  0  2  0  0  3  0  0  0  0  0  0
  193.5550  176.2740  146.5730 C   0  0  0  0  0  0  0  0  0  0  0  0
  194.3060  177.2310  146.6340 O   0  0  0  0  0  0  0  0  0  0  0  0
  1  4  2  0  0  0  0
  1  5  1  0  0  0  0
  2 24  1  0  0  0  0
  3  2  2  0  0  0  0
  3  8  1  0  0  0  0
  4  3  1  0  0  0  0
  5 26  1  6  0  0  0
  5  2  1  0  0  0  0
  6 10  1  0  0  0  0
  7  8  2  0  0  0  0
  8  6  1  0  0  0  0
  9 11  1  0  0  0  0
  9 13  1  0  0  0  0
 10  9  2  0  0  0  0
 11 12  1  0  0  0  0
 14 13  1  0  0  0  0
 14 15  1  0  0  0  0
 16 17  2  0  0  0  0
 17 22  1  0  0  0  0
 18 15  1  6  0  0  0
 18 17  1  0  0  0  0
 18 23  1  0  0  0  0
 20 21  1  0  0  0  0
 22 19  1  6  0  0  0
 22 21  1  0  0  0  0
 23 20  1  0  0  0  0
 25 24  1  0  0  0  0
 26 27  1  0  0  0  0
 27 28  1  0  0  0  0
 28 34  1  0  0  0  0
 29 31  1  0  0  0  0
 31 32  1  0  0  0  0
 32 30  1  6  0  0  0
 32 35  1  0  0  0  0
 33 30  2  0  0  0  0
 34 30  1  0  0  0  0
 34 29  2  0  0  0  0
 35 36  1  6  0  0  0
 35 37  1  0  0  0  0
 36 37  1  0  0  0  0
 37 38  1  1  0  0  0
 38 41  1  1  0  0  0
 38 40  1  0  0  0  0
 39 40  1  0  0  0  0
 43 41  1  6  0  0  0
 43 44  1  0  0  0  0
 43 42  1  0  0  0  0
 44 45  2  0  0  0  0
 44 42  1  0  0  0  0
M  END
>  <MODEL>
6

>  <REMARK>
 VINA RESULT:      -6.5      5.489      9.363
  Name = 
  17 active torsions:
  status: ('A' for Active; 'I' for Inactive)
    1  A    between atoms: C_2  and  C_34
    2  A    between atoms: C_7  and  C_12
    3  A    between atoms: C_7  and  O_29
    4  A    between atoms: N_8  and  O_29
    5  A    between atoms: N_8  and  N_33
    6  A    between atoms: C_10  and  N_39
    7  A    between atoms: N_11  and  C_19
    8  A    between atoms: C_13  and  O_18
    9  A    between atoms: C_13  and  N_39
   10  A    between atoms: C_13  and  C_45
   11  A    between atoms: C_14  and  C_16
   12  A    between atoms: C_17  and  N_33
   13  A    between atoms: C_22  and  C_25
   14  A    between atoms: C_27  and  C_36
   15  A    between atoms: C_27  and  C_37
   16  A    between atoms: C_36  and  C_44
   17  A    between atoms: C_37  and  C_38
                            x       y       z     vdW  Elec       q    Type
                         _______ _______ _______ _____ _____    ______ ____

>  <TORSDO>
F 17

$$$$
=
 OpenBabel11062420433D

 45 49  0  0  1  0  0  0  0  0999 V2000
  196.7210  173.3670  145.1800 C   0  0  0  0  0  3  0  0  0  0  0  0
  194.8030  173.8640  144.1620 C   0  0  0  0  0  0  0  0  0  0  0  0
  194.9320  174.5900  145.3350 C   0  0  0  0  0  0  0  0  0  0  0  0
  196.0960  174.2830  145.9510 N   0  0  0  0  0  2  0  0  0  0  0  0
  195.9460  173.0960  144.0700 C   0  0  0  0  0  0  0  0  0  0  0  0
  192.5780  175.2580  145.9260 N   0  0  0  0  0  2  0  0  0  0  0  0
  194.4100  176.6690  146.3990 N   0  0  0  0  0  2  0  0  0  0  0  0
  193.9710  175.5670  145.8820 C   0  0  0  0  0  0  0  0  0  0  0  0
  190.5900  176.6100  145.6890 C   0  0  0  0  0  0  0  0  0  0  0  0
  191.6010  176.1650  146.4410 C   0  0  0  0  0  3  0  0  0  0  0  0
  190.4390  176.1660  144.2710 C   0  0  0  0  0  2  0  0  0  0  0  0
  191.0760  177.1250  143.3890 N   0  0  0  0  0  1  0  0  0  0  0  0
  189.6500  177.5030  146.2070 O   0  0  0  0  0  0  0  0  0  0  0  0
  188.5440  177.0660  146.9040 N   0  0  0  0  0  2  0  0  0  0  0  0
  187.7500  176.3490  145.9950 N   0  0  0  0  0  2  0  0  0  0  0  0
  187.2540  178.3000  144.0460 C   0  0  0  0  0  2  0  0  0  0  0  0
  186.2710  178.0190  144.9060 C   0  0  0  0  0  0  0  0  0  0  0  0
  186.4340  176.9770  145.9950 C   0  0  2  0  0  3  0  0  0  0  0  0
  184.1790  178.5510  143.6680 C   0  0  0  0  0  1  0  0  0  0  0  0
  185.0640  178.6630  147.3950 C   0  0  0  0  0  2  0  0  0  0  0  0
  184.1770  178.6250  146.1500 C   0  0  0  0  0  2  0  0  0  0  0  0
  185.0190  178.8610  144.8950 C   0  0  1  0  0  3  0  0  0  0  0  0
  186.1330  177.5580  147.3890 C   0  0  0  0  0  2  0  0  0  0  0  0
  193.7030  173.9400  143.1490 C   0  0  0  0  0  2  0  0  0  0  0  0
  193.8850  175.1650  142.2700 C   0  0  0  0  0  1  0  0  0  0  0  0
  196.3090  172.1520  142.9730 C   0  0  0  0  0  2  0  0  0  0  0  0
  196.6780  172.9250  141.7180 C   0  0  0  0  0  2  0  0  0  0  0  0
  196.3720  172.1090  140.4700 C   0  0  0  0  0  2  0  0  0  0  0  0
  194.7560  173.3680  139.1240 N   0  0  0  0  0  0  0  0  0  0  0  0
  193.7660  171.7660  140.3520 C   0  0  0  0  0  0  0  0  0  0  0  0
  193.3780  173.4490  138.8740 N   0  0  0  0  0  2  0  0  0  0  0  0
  192.6470  172.4480  139.6480 C   0  0  1  0  0  3  0  0  0  0  0  0
  193.6610  170.8150  141.1720 O   0  0  0  0  0  0  0  0  0  0  0  0
  195.0020  172.4140  139.9550 C   0  0  0  0  0  0  0  0  0  0  0  0
  191.9430  171.4800  138.7020 C   0  0  1  0  0  3  0  0  0  0  0  0
  190.7450  170.8520  139.3990 C   0  0  0  0  0  2  0  0  0  0  0  0
  190.5110  171.8650  138.2900 C   0  0  1  0  0  3  0  0  0  0  0  0
  189.9390  173.2100  138.8020 C   0  0  1  0  0  3  0  0  0  0  0  0
  189.6360  173.4240  136.6130 C   0  0  0  0  0  1  0  0  0  0  0  0
  189.7410  174.1660  137.7940 O   0  0  0  0  0  0  0  0  0  0  0  0
  188.7010  172.9860  139.5340 N   0  0  0  0  0  2  0  0  0  0  0  0
  190.0350  173.9350  141.2380 C   0  0  0  0  0  2  0  0  0  0  0  0
  188.7150  173.8680  140.6880 C   0  0  2  0  0  3  0  0  0  0  0  0
  189.0140  173.0360  141.9340 C   0  0  0  0  0  0  0  0  0  0  0  0
  188.6920  172.2420  142.8010 O   0  0  0  0  0  0  0  0  0  0  0  0
  1  4  1  0  0  0  0
  2  3  2  0  0  0  0
  3  8  1  0  0  0  0
  3  4  1  0  0  0  0
  5  2  1  0  0  0  0
  5  1  2  0  0  0  0
  6 10  1  0  0  0  0
  8  6  1  0  0  0  0
  8  7  2  0  0  0  0
  9 13  1  0  0  0  0
  9 10  2  0  0  0  0
 11  9  1  0  0  0  0
 12 11  1  0  0  0  0
 13 14  1  0  0  0  0
 15 14  1  0  0  0  0
 16 17  2  0  0  0  0
 17 18  1  0  0  0  0
 18 15  1  1  0  0  0
 18 23  1  0  0  0  0
 21 20  1  0  0  0  0
 22 19  1  6  0  0  0
 22 17  1  0  0  0  0
 22 21  1  0  0  0  0
 23 20  1  0  0  0  0
 24  2  1  0  0  0  0
 25 24  1  0  0  0  0
 26  5  1  0  0  0  0
 27 26  1  0  0  0  0
 28 27  1  0  0  0  0
 29 34  2  0  0  0  0
 30 33  2  0  0  0  0
 31 29  1  0  0  0  0
 32 31  1  6  0  0  0
 32 30  1  0  0  0  0
 34 30  1  0  0  0  0
 34 28  1  0  0  0  0
 35 36  1  1  0  0  0
 35 32  1  0  0  0  0
 37 35  1  0  0  0  0
 37 38  1  1  0  0  0
 37 36  1  0  0  0  0
 38 40  1  6  0  0  0
 38 41  1  0  0  0  0
 39 40  1  0  0  0  0
 42 44  1  0  0  0  0
 43 41  1  6  0  0  0
 43 42  1  0  0  0  0
 43 44  1  0  0  0  0
 44 45  2  0  0  0  0
M  END
>  <MODEL>
7

>  <REMARK>
 VINA RESULT:      -6.4      5.768     10.468
  Name = 
  17 active torsions:
  status: ('A' for Active; 'I' for Inactive)
    1  A    between atoms: C_2  and  C_34
    2  A    between atoms: C_7  and  C_12
    3  A    between atoms: C_7  and  O_29
    4  A    between atoms: N_8  and  O_29
    5  A    between atoms: N_8  and  N_33
    6  A    between atoms: C_10  and  N_39
    7  A    between atoms: N_11  and  C_19
    8  A    between atoms: C_13  and  O_18
    9  A    between atoms: C_13  and  N_39
   10  A    between atoms: C_13  and  C_45
   11  A    between atoms: C_14  and  C_16
   12  A    between atoms: C_17  and  N_33
   13  A    between atoms: C_22  and  C_25
   14  A    between atoms: C_27  and  C_36
   15  A    between atoms: C_27  and  C_37
   16  A    between atoms: C_36  and  C_44
   17  A    between atoms: C_37  and  C_38
                            x       y       z     vdW  Elec       q    Type
                         _______ _______ _______ _____ _____    ______ ____

>  <TORSDO>
F 17

$$$$
=
 OpenBabel11062420433D

 45 49  0  0  1  0  0  0  0  0999 V2000
  185.7690  179.3650  145.1050 C   0  0  0  0  0  3  0  0  0  0  0  0
  186.0150  177.7350  143.6060 C   0  0  0  0  0  0  0  0  0  0  0  0
  184.9670  178.5670  143.2500 C   0  0  0  0  0  0  0  0  0  0  0  0
  184.8190  179.5530  144.1630 N   0  0  0  0  0  0  0  0  0  0  0  0
  186.5210  178.2530  144.7810 C   0  0  1  0  0  3  0  0  0  0  0  0
  182.6810  178.4350  142.2020 N   0  0  0  0  0  2  0  0  0  0  0  0
  184.6390  178.4260  140.8840 N   0  0  0  0  0  2  0  0  0  0  0  0
  184.1020  178.4420  142.0610 C   0  0  0  0  0  0  0  0  0  0  0  0
  180.5010  178.6390  141.1830 C   0  0  0  0  0  0  0  0  0  0  0  0
  181.7940  178.3140  141.0890 C   0  0  0  0  0  3  0  0  0  0  0  0
  179.9320  179.1500  142.4660 C   0  0  0  0  0  2  0  0  0  0  0  0
  178.7170  178.4270  142.7850 N   0  0  0  0  0  1  0  0  0  0  0  0
  179.6470  178.5040  140.0860 O   0  0  0  0  0  0  0  0  0  0  0  0
  178.7050  179.4630  139.7810 N   0  0  0  0  0  2  0  0  0  0  0  0
  179.2640  180.7040  140.1250 N   0  0  0  0  0  2  0  0  0  0  0  0
  177.9590  183.1470  140.5480 C   0  0  0  0  0  2  0  0  0  0  0  0
  178.3730  182.8720  139.3080 C   0  0  0  0  0  0  0  0  0  0  0  0
  179.0930  181.5800  138.9720 C   0  0  2  0  0  3  0  0  0  0  0  0
  178.7600  185.0960  138.2630 C   0  0  0  0  0  1  0  0  0  0  0  0
  177.6960  181.7180  136.8020 C   0  0  0  0  0  2  0  0  0  0  0  0
  178.2380  183.1470  136.8170 C   0  0  0  0  0  2  0  0  0  0  0  0
  177.9830  183.7950  138.1790 C   0  0  1  0  0  3  0  0  0  0  0  0
  178.3910  180.8150  137.8350 C   0  0  0  0  0  2  0  0  0  0  0  0
  186.5570  176.5620  142.8500 C   0  0  0  0  0  2  0  0  0  0  0  0
  187.7550  176.9840  142.0170 C   0  0  0  0  0  1  0  0  0  0  0  0
  187.6790  177.7360  145.5670 C   0  0  0  0  0  2  0  0  0  0  0  0
  187.5710  176.2290  145.7300 C   0  0  0  0  0  2  0  0  0  0  0  0
  188.3130  175.7640  146.9740 C   0  0  0  0  0  2  0  0  0  0  0  0
  190.6790  175.6880  147.6110 N   0  0  0  0  0  0  0  0  0  0  0  0
  190.3910  175.4200  145.3980 C   0  0  0  0  0  0  0  0  0  0  0  0
  191.9550  175.5580  147.0420 N   0  0  0  0  0  2  0  0  0  0  0  0
  191.8650  175.3940  145.5920 C   0  0  1  0  0  3  0  0  0  0  0  0
  189.7830  175.3270  144.2980 O   0  0  0  0  0  0  0  0  0  0  0  0
  189.7740  175.6040  146.6970 C   0  0  0  0  0  0  0  0  0  0  0  0
  192.4330  174.0350  145.1930 C   0  0  1  0  0  3  0  0  0  0  0  0
  192.5250  173.9370  143.6770 C   0  0  0  0  0  2  0  0  0  0  0  0
  193.8030  174.0600  144.4910 C   0  0  1  0  0  3  0  0  0  0  0  0
  194.5100  175.4260  144.3150 C   0  0  1  0  0  3  0  0  0  0  0  0
  195.9510  174.5460  145.7580 C   0  0  0  0  0  1  0  0  0  0  0  0
  195.8690  175.4130  144.6630 O   0  0  0  0  0  0  0  0  0  0  0  0
  194.3440  175.9080  142.9520 N   0  0  0  0  0  2  0  0  0  0  0  0
  196.0830  176.7240  141.5760 C   0  0  0  0  0  2  0  0  0  0  0  0
  195.5500  175.5620  142.2210 C   0  0  2  0  0  3  0  0  0  0  0  0
  195.2830  175.7380  140.7270 C   0  0  0  0  0  0  0  0  0  0  0  0
  194.7870  175.3800  139.6730 O   0  0  0  0  0  0  0  0  0  0  0  0
  2  5  1  0  0  0  0
  3  2  2  0  0  0  0
  3  4  1  0  0  0  0
  4  1  2  0  0  0  0
  5  1  1  0  0  0  0
  5 26  1  6  0  0  0
  7  8  2  0  0  0  0
  8  6  1  0  0  0  0
  8  3  1  0  0  0  0
  9 11  1  0  0  0  0
 10  9  2  0  0  0  0
 10  6  1  0  0  0  0
 11 12  1  0  0  0  0
 13  9  1  0  0  0  0
 14 13  1  0  0  0  0
 14 15  1  0  0  0  0
 17 16  2  0  0  0  0
 18 17  1  0  0  0  0
 18 15  1  1  0  0  0
 20 21  1  0  0  0  0
 20 23  1  0  0  0  0
 21 22  1  0  0  0  0
 22 19  1  6  0  0  0
 22 17  1  0  0  0  0
 23 18  1  0  0  0  0
 24  2  1  0  0  0  0
 25 24  1  0  0  0  0
 26 27  1  0  0  0  0
 27 28  1  0  0  0  0
 30 34  1  0  0  0  0
 31 29  1  0  0  0  0
 32 30  1  1  0  0  0
 32 31  1  0  0  0  0
 33 30  2  0  0  0  0
 34 28  1  0  0  0  0
 34 29  2  0  0  0  0
 35 36  1  6  0  0  0
 35 32  1  0  0  0  0
 36 37  1  0  0  0  0
 37 38  1  6  0  0  0
 37 35  1  0  0  0  0
 38 41  1  6  0  0  0
 38 40  1  0  0  0  0
 40 39  1  0  0  0  0
 42 43  1  0  0  0  0
 43 41  1  1  0  0  0
 44 42  1  0  0  0  0
 44 43  1  0  0  0  0
 45 44  2  0  0  0  0
M  END
>  <MODEL>
8

>  <REMARK>
 VINA RESULT:      -6.4      3.016      4.107
  Name = 
  17 active torsions:
  status: ('A' for Active; 'I' for Inactive)
    1  A    between atoms: C_2  and  C_34
    2  A    between atoms: C_7  and  C_12
    3  A    between atoms: C_7  and  O_29
    4  A    between atoms: N_8  and  O_29
    5  A    between atoms: N_8  and  N_33
    6  A    between atoms: C_10  and  N_39
    7  A    between atoms: N_11  and  C_19
    8  A    between atoms: C_13  and  O_18
    9  A    between atoms: C_13  and  N_39
   10  A    between atoms: C_13  and  C_45
   11  A    between atoms: C_14  and  C_16
   12  A    between atoms: C_17  and  N_33
   13  A    between atoms: C_22  and  C_25
   14  A    between atoms: C_27  and  C_36
   15  A    between atoms: C_27  and  C_37
   16  A    between atoms: C_36  and  C_44
   17  A    between atoms: C_37  and  C_38
                            x       y       z     vdW  Elec       q    Type
                         _______ _______ _______ _____ _____    ______ ____

>  <TORSDO>
F 17

$$$$
=
 OpenBabel11062420433D

 45 49  0  0  1  0  0  0  0  0999 V2000
  187.4980  177.0550  145.5500 C   0  0  0  0  0  3  0  0  0  0  0  0
  189.2910  176.7960  144.2520 C   0  0  0  0  0  0  0  0  0  0  0  0
  188.1310  176.7260  143.4970 C   0  0  0  0  0  0  0  0  0  0  0  0
  187.0450  176.8800  144.2890 N   0  0  0  0  0  0  0  0  0  0  0  0
  188.8780  177.0110  145.5510 C   0  0  1  0  0  3  0  0  0  0  0  0
  188.0790  175.1900  141.5020 N   0  0  0  0  0  2  0  0  0  0  0  0
  187.8230  177.5250  141.2620 N   0  0  0  0  0  2  0  0  0  0  0  0
  188.0340  176.5130  142.0410 C   0  0  0  0  0  0  0  0  0  0  0  0
  188.3810  173.7520  139.5860 C   0  0  0  0  0  0  0  0  0  0  0  0
  187.9930  174.9230  140.1020 C   0  0  0  0  0  3  0  0  0  0  0  0
  188.9180  172.6700  140.4630 C   0  0  0  0  0  2  0  0  0  0  0  0
  190.3660  172.6680  140.4070 N   0  0  0  0  0  1  0  0  0  0  0  0
  188.2990  173.5130  138.2120 O   0  0  0  0  0  0  0  0  0  0  0  0
  188.2060  174.5450  137.3030 N   0  0  0  0  0  2  0  0  0  0  0  0
  189.3780  174.5120  136.5310 N   0  0  0  0  0  2  0  0  0  0  0  0
  192.0200  173.8460  137.1870 C   0  0  0  0  0  2  0  0  0  0  0  0
  191.2140  172.8590  136.7840 C   0  0  0  0  0  0  0  0  0  0  0  0
  189.7660  173.1110  136.4100 C   0  0  2  0  0  3  0  0  0  0  0  0
  192.1280  170.8150  137.8670 C   0  0  0  0  0  1  0  0  0  0  0  0
  190.2510  171.3610  134.5710 C   0  0  0  0  0  2  0  0  0  0  0  0
  190.8190  170.5980  135.7700 C   0  0  0  0  0  2  0  0  0  0  0  0
  191.7920  171.4860  136.5480 C   0  0  1  0  0  3  0  0  0  0  0  0
  189.4470  172.6020  134.9920 C   0  0  0  0  0  2  0  0  0  0  0  0
  190.7070  176.7360  143.7710 C   0  0  0  0  0  2  0  0  0  0  0  0
  191.1920  178.1270  143.4000 C   0  0  0  0  0  1  0  0  0  0  0  0
  189.7450  177.1860  146.7530 C   0  0  0  0  0  2  0  0  0  0  0  0
  190.2440  175.8350  147.2400 C   0  0  0  0  0  2  0  0  0  0  0  0
  191.5640  175.9820  147.9830 C   0  0  0  0  0  2  0  0  0  0  0  0
  193.6270  176.8100  146.9510 N   0  0  0  0  0  0  0  0  0  0  0  0
  192.9590  174.8580  146.0570 C   0  0  0  0  0  0  0  0  0  0  0  0
  194.5450  176.4830  145.9420 N   0  0  0  0  0  2  0  0  0  0  0  0
  194.1780  175.2270  145.2890 C   0  0  1  0  0  3  0  0  0  0  0  0
  192.2410  173.8400  145.8690 O   0  0  0  0  0  0  0  0  0  0  0  0
  192.7210  175.8970  147.0410 C   0  0  0  0  0  0  0  0  0  0  0  0
  195.2800  174.1940  145.5070 C   0  0  1  0  0  3  0  0  0  0  0  0
  195.0820  173.0180  144.5620 C   0  0  0  0  0  2  0  0  0  0  0  0
  196.2390  173.9750  144.3230 C   0  0  1  0  0  3  0  0  0  0  0  0
  196.0560  174.8530  143.0610 C   0  0  1  0  0  3  0  0  0  0  0  0
  196.9510  176.8840  143.1350 C   0  0  0  0  0  1  0  0  0  0  0  0
  197.2010  175.5780  142.7000 O   0  0  0  0  0  0  0  0  0  0  0  0
  195.6010  174.0390  141.9430 N   0  0  0  0  0  2  0  0  0  0  0  0
  193.7650  173.8490  140.4680 C   0  0  0  0  0  2  0  0  0  0  0  0
  194.4910  174.7390  141.3220 C   0  0  2  0  0  3  0  0  0  0  0  0
  194.7470  174.8230  139.8180 C   0  0  0  0  0  0  0  0  0  0  0  0
  195.3180  175.2890  138.8470 O   0  0  0  0  0  0  0  0  0  0  0  0
  1  5  1  0  0  0  0
  2  5  1  0  0  0  0
  3  2  2  0  0  0  0
  3  4  1  0  0  0  0
  4  1  2  0  0  0  0
  5 26  1  6  0  0  0
  6  8  1  0  0  0  0
  7  8  2  0  0  0  0
  8  3  1  0  0  0  0
  9 10  2  0  0  0  0
  9 11  1  0  0  0  0
 10  6  1  0  0  0  0
 12 11  1  0  0  0  0
 13  9  1  0  0  0  0
 14 13  1  0  0  0  0
 15 14  1  0  0  0  0
 17 16  2  0  0  0  0
 18 15  1  6  0  0  0
 18 17  1  0  0  0  0
 20 23  1  0  0  0  0
 20 21  1  0  0  0  0
 21 22  1  0  0  0  0
 22 17  1  0  0  0  0
 22 19  1  1  0  0  0
 23 18  1  0  0  0  0
 24  2  1  0  0  0  0
 25 24  1  0  0  0  0
 26 27  1  0  0  0  0
 27 28  1  0  0  0  0
 29 34  2  0  0  0  0
 30 34  1  0  0  0  0
 31 29  1  0  0  0  0
 32 35  1  0  0  0  0
 32 31  1  1  0  0  0
 32 30  1  0  0  0  0
 33 30  2  0  0  0  0
 34 28  1  0  0  0  0
 35 36  1  6  0  0  0
 37 38  1  6  0  0  0
 37 36  1  0  0  0  0
 37 35  1  0  0  0  0
 38 41  1  6  0  0  0
 40 38  1  0  0  0  0
 40 39  1  0  0  0  0
 42 43  1  0  0  0  0
 43 41  1  1  0  0  0
 44 42  1  0  0  0  0
 44 43  1  0  0  0  0
 45 44  2  0  0  0  0
M  END
>  <MODEL>
9

>  <REMARK>
 VINA RESULT:      -6.4      5.687      7.021
  Name = 
  17 active torsions:
  status: ('A' for Active; 'I' for Inactive)
    1  A    between atoms: C_2  and  C_34
    2  A    between atoms: C_7  and  C_12
    3  A    between atoms: C_7  and  O_29
    4  A    between atoms: N_8  and  O_29
    5  A    between atoms: N_8  and  N_33
    6  A    between atoms: C_10  and  N_39
    7  A    between atoms: N_11  and  C_19
    8  A    between atoms: C_13  and  O_18
    9  A    between atoms: C_13  and  N_39
   10  A    between atoms: C_13  and  C_45
   11  A    between atoms: C_14  and  C_16
   12  A    between atoms: C_17  and  N_33
   13  A    between atoms: C_22  and  C_25
   14  A    between atoms: C_27  and  C_36
   15  A    between atoms: C_27  and  C_37
   16  A    between atoms: C_36  and  C_44
   17  A    between atoms: C_37  and  C_38
                            x       y       z     vdW  Elec       q    Type
                         _______ _______ _______ _____ _____    ______ ____

>  <TORSDO>
F 17

$$$$
