=
 OpenBabel11072408423D

 65 71  0  0  1  0  0  0  0  0999 V2000
  195.9070  172.4360  140.3190 N   0  0  0  0  0  2  0  0  0  0  0  0
  189.3380  175.0890  141.5070 C   0  0  0  0  0  2  0  0  0  0  0  0
  194.5690  170.2940  140.5650 C   0  0  0  0  0  2  0  0  0  0  0  0
  191.6040  170.0070  140.2080 C   0  0  0  0  0  2  0  0  0  0  0  0
  193.8950  169.3320  139.6960 N   0  0  0  0  0  2  0  0  0  0  0  0
  189.7050  172.6570  141.9250 C   0  0  0  0  0  0  0  0  0  0  0  0
  189.8420  176.7070  143.4540 C   0  0  2  0  0  3  0  0  0  0  0  0
  194.3890  173.3180  141.6320 C   0  0  0  0  0  2  0  0  0  0  0  0
  196.0310  170.7570  138.7160 O   0  0  0  0  0  0  0  0  0  0  0  0
  195.6790  172.7780  141.6140 O   0  0  0  0  0  0  0  0  0  0  0  0
  190.0970  173.8400  141.0700 C   0  0  0  0  0  2  0  0  0  0  0  0
  194.0280  176.9430  144.7080 N   0  0  0  0  0  0  0  0  0  0  0  0
  196.3720  176.1560  144.4430 C   0  0  0  0  0  2  0  0  0  0  0  0
  192.2140  176.0320  143.5060 N   0  0  0  0  0  2  0  0  0  0  0  0
  193.8850  173.5180  143.0630 C   0  0  2  0  0  0  0  0  0  0  0  0
  195.3690  176.9600  145.1280 N   0  0  0  0  0  2  0  0  0  0  0  0
  190.1900  171.0630  139.7280 S   0  0  0  0  0  0  0  0  0  0  0  0
  192.6880  169.9300  139.1170 C   0  0  1  0  0  3  0  0  0  0  0  0
  189.1900  172.8740  143.3290 C   0  0  0  0  0  2  0  0  0  0  0  0
  189.5120  175.3170  142.9800 C   0  0  0  0  0  0  0  0  0  0  0  0
  195.7540  174.9020  143.9020 C   0  0  0  0  0  3  0  0  0  0  0  0
  189.6830  171.4190  141.4170 C   0  0  0  0  0  3  0  0  0  0  0  0
  192.5050  173.5520  143.0040 F   0  0  0  0  0  0  0  0  0  0  0  0
  193.5680  175.9840  143.9610 C   0  0  0  0  0  0  0  0  0  0  0  0
  195.5250  171.1590  139.7990 C   0  0  0  0  0  0  0  0  0  0  0  0
  194.4420  174.8220  143.6230 C   0  0  0  0  0  0  0  0  0  0  0  0
  189.4630  174.2740  143.8280 C   0  0  0  0  0  3  0  0  0  0  0  0
  191.1940  176.8240  144.1740 C   0  0  0  0  0  2  0  0  0  0  0  0
  187.2330  178.0580  142.3440 C   0  0  0  0  0  2  0  0  0  0  0  0
  185.0790  177.7330  143.3990 C   0  0  1  0  0  3  0  0  0  0  0  0
  188.5730  176.7890  145.6210 C   0  0  0  0  0  0  0  0  0  0  0  0
  188.6410  177.3430  144.1910 C   0  0  2  0  0  3  0  0  0  0  0  0
  185.7330  178.2270  142.1160 C   0  0  0  0  0  2  0  0  0  0  0  0
  186.2610  177.5390  144.3170 C   0  0  1  0  0  3  0  0  0  0  0  0
  186.0900  176.4940  145.4030 C   0  0  0  0  0  2  0  0  0  0  0  0
  187.3850  176.4440  146.1750 C   0  0  0  0  0  3  0  0  0  0  0  0
  187.3680  177.1410  143.4680 N   0  0  1  0  0  0  0  0  0  0  0  0
  184.1410  178.9360  145.4590 C   0  0  0  0  0  2  0  0  0  0  0  0
  184.1320  178.7870  143.9550 C   0  0  0  0  0  0  0  0  0  0  0  0
  182.9180  179.0380  143.3420 F   0  0  0  0  0  0  0  0  0  0  0  0
  184.7980  179.9910  144.5760 C   0  0  0  0  0  2  0  0  0  0  0  0
  189.7950  177.9010  147.5300 C   0  0  0  0  0  1  0  0  0  0  0  0
  189.8200  176.8040  146.4750 C   0  0  1  0  0  3  0  0  0  0  0  0
  191.6060  175.0480  147.2420 C   0  0  0  0  0  1  0  0  0  0  0  0
  190.1820  175.4700  147.0710 C   0  0  0  0  0  0  0  0  0  0  0  0
  189.2900  174.6930  147.3790 O   0  0  0  0  0  0  0  0  0  0  0  0
  193.9290  172.6070  145.2830 F   0  0  0  0  0  0  0  0  0  0  0  0
  193.5990  171.1840  143.5690 F   0  0  0  0  0  0  0  0  0  0  0  0
  194.2600  172.3340  143.9670 C   0  0  0  0  0  3  0  0  0  0  0  0
  192.2640  169.0590  137.9080 C   0  0  1  0  0  3  0  0  0  0  0  0
  190.8260  168.5490  137.9710 C   0  0  0  0  0  1  0  0  0  0  0  0
  193.9900  170.1620  134.7240 O   0  0  0  0  0  0  0  0  0  0  0  0
  192.4930  169.7570  136.6340 N   0  0  0  0  0  0  0  0  0  0  0  0
  194.3510  168.4140  136.1530 O   0  0  0  0  0  1  0  0  0  0  0  0
  193.6530  169.4180  135.8500 C   0  0  0  0  0  0  0  0  0  0  0  0
  190.4680  170.5890  135.5070 C   0  0  0  0  0  3  0  0  0  0  0  0
  191.6430  170.8520  136.2260 C   0  0  0  0  0  0  0  0  0  0  0  0
  189.6230  171.6290  135.1150 C   0  0  0  0  0  3  0  0  0  0  0  0
  191.1330  173.2290  136.1200 C   0  0  0  0  0  3  0  0  0  0  0  0
  189.9480  172.9550  135.4310 C   0  0  0  0  0  0  0  0  0  0  0  0
  191.9860  172.1900  136.5160 C   0  0  0  0  0  0  0  0  0  0  0  0
  193.2670  172.5360  137.2090 C   0  0  0  0  0  2  0  0  0  0  0  0
  192.9990  173.2740  138.3630 O   0  0  0  0  0  1  0  0  0  0  0  0
  189.1070  174.0080  135.0690 O   0  0  0  0  0  0  0  0  0  0  0  0
  189.1140  175.1720  135.7380 O   0  0  0  0  0  1  0  0  0  0  0  0
  1 10  1  0  0  0  0
  2 20  1  0  0  0  0
  5  3  1  0  0  0  0
  6 19  1  0  0  0  0
  7 28  1  1  0  0  0
  7 32  1  0  0  0  0
  8 15  1  0  0  0  0
  9 25  2  0  0  0  0
 10  8  1  0  0  0  0
 11  2  1  0  0  0  0
 11  6  1  0  0  0  0
 12 16  1  0  0  0  0
 13 16  1  0  0  0  0
 14 24  1  0  0  0  0
 14 28  1  0  0  0  0
 15 23  1  6  0  0  0
 15 26  1  0  0  0  0
 15 49  1  0  0  0  0
 17  4  1  0  0  0  0
 17 22  1  0  0  0  0
 18 50  1  6  0  0  0
 18  5  1  0  0  0  0
 18  4  1  0  0  0  0
 19 27  1  0  0  0  0
 20  7  1  0  0  0  0
 20 27  2  0  0  0  0
 21 13  1  0  0  0  0
 22  6  2  0  0  0  0
 24 12  2  0  0  0  0
 25  1  1  0  0  0  0
 25  3  1  0  0  0  0
 26 21  2  0  0  0  0
 26 24  1  0  0  0  0
 30 33  1  6  0  0  0
 30 39  1  0  0  0  0
 30 34  1  0  0  0  0
 31 36  2  0  0  0  0
 31 43  1  0  0  0  0
 32 31  1  1  0  0  0
 33 29  1  0  0  0  0
 34 35  1  1  0  0  0
 35 36  1  0  0  0  0
 37 29  1  6  0  0  0
 37 32  1  0  0  0  0
 37 34  1  0  0  0  0
 39 41  1  0  0  0  0
 39 38  1  0  0  0  0
 40 39  1  0  0  0  0
 41 38  1  0  0  0  0
 43 45  1  0  0  0  0
 43 42  1  1  0  0  0
 45 44  1  0  0  0  0
 45 46  2  0  0  0  0
 48 49  1  0  0  0  0
 49 47  1  0  0  0  0
 50 51  1  1  0  0  0
 52 55  2  0  0  0  0
 53 50  1  0  0  0  0
 55 54  1  0  0  0  0
 55 53  1  0  0  0  0
 56 57  1  0  0  0  0
 57 61  2  0  0  0  0
 57 53  1  0  0  0  0
 58 60  1  0  0  0  0
 58 56  2  0  0  0  0
 59 61  1  0  0  0  0
 60 59  2  0  0  0  0
 61 62  1  0  0  0  0
 62 63  1  0  0  0  0
 64 60  1  0  0  0  0
 64 65  1  0  0  0  0
M  END
>  <MODEL>
1

>  <REMARK>
 VINA RESULT:      -8.7      0.000      0.000
  Name = 
  10 active torsions:
  status: ('A' for Active; 'I' for Inactive)
    1  A    between atoms: C_4  and  C_42
    2  A    between atoms: O_6  and  C_38
    3  A    between atoms: C_11  and  N_18
    4  A    between atoms: C_12  and  C_45
    5  A    between atoms: N_18  and  C_37
    6  A    between atoms: C_20  and  C_39
    7  A    between atoms: C_25  and  C_60
    8  A    between atoms: C_30  and  C_37
    9  A    between atoms: C_31  and  C_50
   10  A    between atoms: C_36  and  C_50
                            x       y       z     vdW  Elec       q    Type
                         _______ _______ _______ _____ _____    ______ ____

>  <TORSDO>
F 10

$$$$
=
 OpenBabel11072408423D

 65 71  0  0  1  0  0  0  0  0999 V2000
  196.1600  172.6370  140.5340 N   0  0  0  0  0  2  0  0  0  0  0  0
  189.5350  175.0600  141.8890 C   0  0  0  0  0  2  0  0  0  0  0  0
  194.9340  170.4550  140.9460 C   0  0  0  0  0  2  0  0  0  0  0  0
  191.9720  170.0220  140.7410 C   0  0  0  0  0  2  0  0  0  0  0  0
  194.2670  169.4210  140.1580 N   0  0  0  0  0  2  0  0  0  0  0  0
  190.0310  172.6720  142.4110 C   0  0  0  0  0  0  0  0  0  0  0  0
  190.0490  176.7970  143.7290 C   0  0  2  0  0  3  0  0  0  0  0  0
  194.6620  173.5200  141.8690 C   0  0  0  0  0  2  0  0  0  0  0  0
  196.2910  170.8850  139.0110 O   0  0  0  0  0  0  0  0  0  0  0  0
  195.9740  173.0350  141.8190 O   0  0  0  0  0  0  0  0  0  0  0  0
  190.3310  173.8240  141.4810 C   0  0  0  0  0  2  0  0  0  0  0  0
  194.2710  177.2790  144.7750 N   0  0  0  0  0  0  0  0  0  0  0  0
  196.6350  176.5820  144.4420 C   0  0  0  0  0  2  0  0  0  0  0  0
  192.4500  176.2300  143.7050 N   0  0  0  0  0  2  0  0  0  0  0  0
  194.2130  173.7710  143.3110 C   0  0  2  0  0  0  0  0  0  0  0  0
  195.6270  177.3770  145.1320 N   0  0  0  0  0  2  0  0  0  0  0  0
  190.4920  170.9890  140.2750 S   0  0  0  0  0  0  0  0  0  0  0  0
  193.0100  169.9350  139.6060 C   0  0  1  0  0  3  0  0  0  0  0  0
  189.5690  172.9380  143.8240 C   0  0  0  0  0  2  0  0  0  0  0  0
  189.7640  175.3720  143.3400 C   0  0  0  0  0  0  0  0  0  0  0  0
  196.0520  175.2760  143.9930 C   0  0  0  0  0  3  0  0  0  0  0  0
  190.0440  171.4090  141.9660 C   0  0  0  0  0  3  0  0  0  0  0  0
  192.8330  173.7420  143.3140 F   0  0  0  0  0  0  0  0  0  0  0  0
  193.8230  176.2640  144.0990 C   0  0  0  0  0  0  0  0  0  0  0  0
  195.8150  171.3210  140.0950 C   0  0  0  0  0  0  0  0  0  0  0  0
  194.7340  175.1260  143.7780 C   0  0  0  0  0  0  0  0  0  0  0  0
  189.7990  174.3720  144.2400 C   0  0  0  0  0  3  0  0  0  0  0  0
  191.4250  177.0090  144.3800 C   0  0  0  0  0  2  0  0  0  0  0  0
  187.3750  178.0570  142.6690 C   0  0  0  0  0  2  0  0  0  0  0  0
  185.2620  177.6980  143.7950 C   0  0  1  0  0  3  0  0  0  0  0  0
  188.8420  176.8920  145.9310 C   0  0  0  0  0  0  0  0  0  0  0  0
  188.8540  177.4170  144.4880 C   0  0  2  0  0  3  0  0  0  0  0  0
  185.8650  178.1820  142.4830 C   0  0  0  0  0  2  0  0  0  0  0  0
  186.4750  177.5550  144.6810 C   0  0  1  0  0  3  0  0  0  0  0  0
  186.3630  176.5290  145.7920 C   0  0  0  0  0  2  0  0  0  0  0  0
  187.6810  176.5290  146.5270 C   0  0  0  0  0  3  0  0  0  0  0  0
  187.5660  177.1680  143.8070 N   0  0  1  0  0  0  0  0  0  0  0  0
  183.7330  178.4240  145.7200 C   0  0  0  0  0  2  0  0  0  0  0  0
  184.3040  178.7390  144.3570 C   0  0  0  0  0  0  0  0  0  0  0  0
  183.4720  179.4590  143.5170 F   0  0  0  0  0  0  0  0  0  0  0  0
  184.8060  179.4950  145.5630 C   0  0  0  0  0  2  0  0  0  0  0  0
  190.0640  178.0320  147.8230 C   0  0  0  0  0  1  0  0  0  0  0  0
  190.1130  176.9570  146.7470 C   0  0  1  0  0  3  0  0  0  0  0  0
  191.9960  175.2120  147.2680 C   0  0  0  0  0  1  0  0  0  0  0  0
  190.5620  175.6330  147.3060 C   0  0  0  0  0  0  0  0  0  0  0  0
  189.7270  174.8630  147.7590 O   0  0  0  0  0  0  0  0  0  0  0  0
  195.3760  173.1840  145.3270 F   0  0  0  0  0  0  0  0  0  0  0  0
  193.6010  171.9300  144.7330 F   0  0  0  0  0  0  0  0  0  0  0  0
  194.6810  172.6520  144.2530 C   0  0  0  0  0  3  0  0  0  0  0  0
  192.5730  168.9860  138.4640 C   0  0  1  0  0  3  0  0  0  0  0  0
  191.3070  168.1860  138.7570 C   0  0  0  0  0  1  0  0  0  0  0  0
  190.9990  170.2660  135.2670 O   0  0  0  0  0  0  0  0  0  0  0  0
  192.4280  169.7070  137.1900 N   0  0  0  0  0  0  0  0  0  0  0  0
  190.1200  169.3110  137.1480 O   0  0  0  0  0  1  0  0  0  0  0  0
  191.1410  169.7340  136.5440 C   0  0  0  0  0  0  0  0  0  0  0  0
  194.3890  169.4710  135.7190 C   0  0  0  0  0  3  0  0  0  0  0  0
  193.5780  170.2800  136.5280 C   0  0  0  0  0  0  0  0  0  0  0  0
  195.4960  170.0050  135.0580 C   0  0  0  0  0  3  0  0  0  0  0  0
  195.0300  172.1690  136.0320 C   0  0  0  0  0  3  0  0  0  0  0  0
  195.8150  171.3620  135.2030 C   0  0  0  0  0  0  0  0  0  0  0  0
  193.9170  171.6390  136.7000 C   0  0  0  0  0  0  0  0  0  0  0  0
  193.1360  172.5300  137.6140 C   0  0  0  0  0  2  0  0  0  0  0  0
  193.4370  173.8660  137.3480 O   0  0  0  0  0  1  0  0  0  0  0  0
  196.9030  171.9220  134.5340 O   0  0  0  0  0  0  0  0  0  0  0  0
  197.6390  172.8990  135.0870 O   0  0  0  0  0  1  0  0  0  0  0  0
  1 10  1  0  0  0  0
  2 20  1  0  0  0  0
  5  3  1  0  0  0  0
  6 19  1  0  0  0  0
  7 28  1  1  0  0  0
  7 32  1  0  0  0  0
  8 15  1  0  0  0  0
  9 25  2  0  0  0  0
 10  8  1  0  0  0  0
 11  2  1  0  0  0  0
 11  6  1  0  0  0  0
 12 16  1  0  0  0  0
 13 16  1  0  0  0  0
 14 24  1  0  0  0  0
 14 28  1  0  0  0  0
 15 23  1  1  0  0  0
 15 26  1  0  0  0  0
 15 49  1  0  0  0  0
 17  4  1  0  0  0  0
 17 22  1  0  0  0  0
 18 50  1  6  0  0  0
 18  5  1  0  0  0  0
 18  4  1  0  0  0  0
 19 27  1  0  0  0  0
 20  7  1  0  0  0  0
 20 27  2  0  0  0  0
 21 13  1  0  0  0  0
 22  6  2  0  0  0  0
 24 12  2  0  0  0  0
 25  1  1  0  0  0  0
 25  3  1  0  0  0  0
 26 21  2  0  0  0  0
 26 24  1  0  0  0  0
 30 33  1  6  0  0  0
 30 39  1  0  0  0  0
 30 34  1  0  0  0  0
 31 36  2  0  0  0  0
 31 43  1  0  0  0  0
 32 31  1  1  0  0  0
 33 29  1  0  0  0  0
 34 35  1  1  0  0  0
 35 36  1  0  0  0  0
 37 29  1  6  0  0  0
 37 32  1  0  0  0  0
 37 34  1  0  0  0  0
 39 41  1  0  0  0  0
 39 38  1  0  0  0  0
 40 39  1  0  0  0  0
 41 38  1  0  0  0  0
 43 45  1  0  0  0  0
 43 42  1  1  0  0  0
 44 45  1  0  0  0  0
 45 46  2  0  0  0  0
 49 48  1  0  0  0  0
 49 47  1  0  0  0  0
 50 51  1  1  0  0  0
 52 55  2  0  0  0  0
 53 50  1  0  0  0  0
 55 54  1  0  0  0  0
 55 53  1  0  0  0  0
 56 57  1  0  0  0  0
 57 61  2  0  0  0  0
 57 53  1  0  0  0  0
 58 60  1  0  0  0  0
 58 56  2  0  0  0  0
 59 61  1  0  0  0  0
 60 59  2  0  0  0  0
 61 62  1  0  0  0  0
 63 62  1  0  0  0  0
 64 65  1  0  0  0  0
 64 60  1  0  0  0  0
M  END
>  <MODEL>
2

>  <REMARK>
 VINA RESULT:      -6.6      1.351      2.202
  Name = 
  10 active torsions:
  status: ('A' for Active; 'I' for Inactive)
    1  A    between atoms: C_4  and  C_42
    2  A    between atoms: O_6  and  C_38
    3  A    between atoms: C_11  and  N_18
    4  A    between atoms: C_12  and  C_45
    5  A    between atoms: N_18  and  C_37
    6  A    between atoms: C_20  and  C_39
    7  A    between atoms: C_25  and  C_60
    8  A    between atoms: C_30  and  C_37
    9  A    between atoms: C_31  and  C_50
   10  A    between atoms: C_36  and  C_50
                            x       y       z     vdW  Elec       q    Type
                         _______ _______ _______ _____ _____    ______ ____

>  <TORSDO>
F 10

$$$$
