=
 OpenBabel11062420013D

 42 45  0  0  1  0  0  0  0  0999 V2000
  190.0680  177.5380  145.7690 C   0  0  0  0  0  3  0  0  0  0  0  0
  186.5310  176.9020  144.6100 C   0  0  1  0  0  3  0  0  0  0  0  0
  190.1610  177.6790  144.4440 C   0  0  0  0  0  0  0  0  0  0  0  0
  186.6340  176.6270  147.0830 N   0  0  0  0  0  0  0  0  0  0  0  0
  187.9980  177.1990  144.7280 C   0  0  0  0  0  0  0  0  0  0  0  0
  188.0400  176.9440  147.1290 C   0  0  0  0  0  3  0  0  0  0  0  0
  188.8680  177.4680  143.7680 C   0  0  0  0  0  3  0  0  0  0  0  0
  188.6730  177.2140  145.9950 C   0  0  0  0  0  0  0  0  0  0  0  0
  185.9340  176.5980  145.9760 C   0  0  0  0  0  3  0  0  0  0  0  0
  185.2400  180.3090  143.8670 O   0  0  0  0  0  1  0  0  0  0  0  0
  185.7930  178.0320  143.9570 C   0  0  0  0  0  0  0  0  0  0  0  0
  185.9040  179.2400  144.4270 N   0  0  0  0  0  0  0  0  0  0  0  0
  182.9280  178.0530  141.7470 C   0  0  1  0  0  3  0  0  0  0  0  0
  183.5170  178.6080  140.4450 C   0  0  0  0  0  2  0  0  0  0  0  0
  183.7320  178.4680  142.8260 O   0  0  0  0  0  0  0  0  0  0  0  0
  184.9260  177.7160  142.7700 C   0  0  1  0  0  3  0  0  0  0  0  0
  184.9820  178.2810  140.3700 C   0  0  0  0  0  3  0  0  0  0  0  0
  187.0140  177.6160  141.3530 O   0  0  0  0  0  1  0  0  0  0  0  0
  185.6600  177.9090  141.4570 C   0  0  0  0  0  0  0  0  0  0  0  0
  181.5120  178.5580  141.9490 C   0  0  0  0  0  2  0  0  0  0  0  0
  180.1550  180.1340  140.6060 C   0  0  0  0  0  1  0  0  0  0  0  0
  180.8300  178.7740  140.6090 C   0  0  0  0  0  2  0  0  0  0  0  0
  191.4140  178.0640  143.7360 C   0  0  0  0  0  2  0  0  0  0  0  0
  192.1670  176.8260  143.2740 C   0  0  0  0  0  2  0  0  0  0  0  0
  194.6580  175.3950  146.3990 N   0  0  0  0  0  0  0  0  0  0  0  0
  194.7580  176.6600  145.9790 N   0  0  0  0  0  0  0  0  0  0  0  0
  192.9290  174.9660  144.8140 C   0  0  0  0  0  0  0  0  0  0  0  0
  193.0380  176.2940  144.3690 C   0  0  0  0  0  0  0  0  0  0  0  0
  193.9730  177.1360  144.9780 C   0  0  0  0  0  3  0  0  0  0  0  0
  193.7660  174.5300  145.8430 C   0  0  0  0  0  3  0  0  0  0  0  0
  191.9790  174.0000  144.1760 C   0  0  0  0  0  2  0  0  0  0  0  0
  190.7430  173.8420  145.0450 C   0  0  0  0  0  2  0  0  0  0  0  0
  189.4980  173.6700  144.1900 C   0  0  0  0  0  2  0  0  0  0  0  0
  189.2990  172.2680  143.8540 N   0  0  0  0  0  2  0  0  0  0  0  0
  189.1340  172.2040  142.5100 O   0  0  0  0  0  0  0  0  0  0  0  0
  190.2010  171.4210  142.0600 C   0  0  0  0  0  2  0  0  0  0  0  0
  190.5790  171.8280  140.7190 N   0  0  0  0  0  0  0  0  0  0  0  0
  192.0230  171.9760  140.7280 C   0  0  0  0  0  1  0  0  0  0  0  0
  190.0280  173.1540  140.4950 C   0  0  0  0  0  2  0  0  0  0  0  0
  189.6440  173.7520  138.2210 O   0  0  0  0  0  0  0  0  0  0  0  0
  187.9600  172.5660  139.2330 O   0  0  0  0  0  1  0  0  0  0  0  0
  189.2150  173.1650  139.2480 C   0  0  0  0  0  0  0  0  0  0  0  0
  1  8  1  0  0  0  0
  2 11  1  1  0  0  0
  2  5  1  0  0  0  0
  2  9  1  0  0  0  0
  3  1  2  0  0  0  0
  4  6  1  0  0  0  0
  5  8  1  0  0  0  0
  7  3  1  0  0  0  0
  7  5  2  0  0  0  0
  8  6  2  0  0  0  0
  9  4  2  0  0  0  0
 10 12  1  0  0  0  0
 11 12  2  0  0  0  0
 13 20  1  1  0  0  0
 13 15  1  0  0  0  0
 14 13  1  0  0  0  0
 16 15  1  0  0  0  0
 16 11  1  1  0  0  0
 17 14  1  0  0  0  0
 17 19  2  0  0  0  0
 18 19  1  0  0  0  0
 19 16  1  0  0  0  0
 21 22  1  0  0  0  0
 22 20  1  0  0  0  0
 23  3  1  0  0  0  0
 24 23  1  0  0  0  0
 24 28  1  0  0  0  0
 26 25  1  0  0  0  0
 27 30  1  0  0  0  0
 28 27  2  0  0  0  0
 28 29  1  0  0  0  0
 29 26  2  0  0  0  0
 30 25  2  0  0  0  0
 31 27  1  0  0  0  0
 31 32  1  0  0  0  0
 33 32  1  0  0  0  0
 34 33  1  0  0  0  0
 35 34  1  0  0  0  0
 36 35  1  0  0  0  0
 37 38  1  0  0  0  0
 37 36  1  0  0  0  0
 39 37  1  0  0  0  0
 40 42  2  0  0  0  0
 41 42  1  0  0  0  0
 42 39  1  0  0  0  0
M  END
>  <MODEL>
1

>  <REMARK>
 VINA RESULT:      -7.0      0.000      0.000
  Name = 
  16 active torsions:
  status: ('A' for Active; 'I' for Inactive)
    1  A    between atoms: C_1  and  C_23
    2  A    between atoms: C_1  and  N_26
    3  A    between atoms: O_4  and  C_19
    4  A    between atoms: O_4  and  N_26
    5  A    between atoms: C_5  and  N_25
    6  A    between atoms: C_5  and  C_39
    7  A    between atoms: C_7  and  C_9
    8  A    between atoms: C_8  and  C_28
    9  A    between atoms: C_9  and  C_27
   10  A    between atoms: C_10  and  C_36
   11  A    between atoms: C_18  and  C_31
   12  A    between atoms: C_19  and  N_25
   13  A    between atoms: C_22  and  C_28
   14  A    between atoms: C_23  and  C_31
   15  A    between atoms: C_24  and  C_41
   16  A    between atoms: C_36  and  C_41
                            x       y       z     vdW  Elec       q    Type
                         _______ _______ _______ _____ _____    ______ ____

>  <TORSDO>
F 16

$$$$
=
 OpenBabel11062420013D

 42 45  0  0  1  0  0  0  0  0999 V2000
  191.1870  173.8720  145.7880 C   0  0  0  0  0  3  0  0  0  0  0  0
  194.1800  175.8470  144.6070 C   0  0  1  0  0  3  0  0  0  0  0  0
  191.4740  173.3010  144.6160 C   0  0  0  0  0  0  0  0  0  0  0  0
  193.4020  176.7790  146.7800 N   0  0  0  0  0  0  0  0  0  0  0  0
  193.0370  174.8880  144.7750 C   0  0  0  0  0  0  0  0  0  0  0  0
  192.3360  175.8160  146.8920 C   0  0  0  0  0  3  0  0  0  0  0  0
  192.6360  173.9260  143.9590 C   0  0  0  0  0  3  0  0  0  0  0  0
  192.1780  174.9210  145.9250 C   0  0  0  0  0  0  0  0  0  0  0  0
  194.2390  176.8210  145.7730 C   0  0  0  0  0  3  0  0  0  0  0  0
  197.2740  173.9580  145.4350 O   0  0  0  0  0  1  0  0  0  0  0  0
  195.4860  175.1230  144.4640 C   0  0  0  0  0  0  0  0  0  0  0  0
  196.0720  174.6240  145.5130 N   0  0  0  0  0  0  0  0  0  0  0  0
  195.8430  174.2020  140.9830 C   0  0  1  0  0  3  0  0  0  0  0  0
  195.9310  175.5650  140.2870 C   0  0  0  0  0  2  0  0  0  0  0  0
  195.1850  174.3610  142.2180 O   0  0  0  0  0  0  0  0  0  0  0  0
  196.0850  175.0120  143.0900 C   0  0  1  0  0  3  0  0  0  0  0  0
  196.4950  176.5850  141.2350 C   0  0  0  0  0  3  0  0  0  0  0  0
  197.0560  177.3240  143.3980 O   0  0  0  0  0  1  0  0  0  0  0  0
  196.5300  176.3580  142.5490 C   0  0  0  0  0  0  0  0  0  0  0  0
  195.0760  173.2140  140.1260 C   0  0  0  0  0  2  0  0  0  0  0  0
  192.8930  172.1950  140.6920 C   0  0  0  0  0  1  0  0  0  0  0  0
  193.5820  173.4670  140.2330 C   0  0  0  0  0  2  0  0  0  0  0  0
  190.7420  172.1260  144.0630 C   0  0  0  0  0  2  0  0  0  0  0  0
  189.2800  172.4720  143.8270 C   0  0  0  0  0  2  0  0  0  0  0  0
  188.7650  174.2690  140.0170 N   0  0  0  0  0  0  0  0  0  0  0  0
  189.1360  172.9890  140.1160 N   0  0  0  0  0  0  0  0  0  0  0  0
  188.7020  174.4760  142.3910 C   0  0  0  0  0  0  0  0  0  0  0  0
  189.0970  173.1320  142.4960 C   0  0  0  0  0  0  0  0  0  0  0  0
  189.3100  172.3960  141.3270 C   0  0  0  0  0  3  0  0  0  0  0  0
  188.5440  175.0340  141.1210 C   0  0  0  0  0  3  0  0  0  0  0  0
  188.5000  175.3320  143.6030 C   0  0  0  0  0  2  0  0  0  0  0  0
  189.5230  176.4550  143.6180 C   0  0  0  0  0  2  0  0  0  0  0  0
  189.4160  177.2670  144.8980 C   0  0  0  0  0  2  0  0  0  0  0  0
  188.5820  176.5790  145.8720 N   0  0  0  0  0  2  0  0  0  0  0  0
  187.8360  177.5250  146.4920 O   0  0  0  0  0  0  0  0  0  0  0  0
  186.5860  177.4530  145.8700 C   0  0  0  0  0  2  0  0  0  0  0  0
  185.8760  178.7070  146.0460 N   0  0  0  0  0  0  0  0  0  0  0  0
  185.5000  178.7730  147.4460 C   0  0  0  0  0  1  0  0  0  0  0  0
  184.6390  178.6150  145.2880 C   0  0  0  0  0  2  0  0  0  0  0  0
  184.4060  177.7790  143.0690 O   0  0  0  0  0  0  0  0  0  0  0  0
  185.8250  179.5660  143.3130 O   0  0  0  0  0  1  0  0  0  0  0  0
  184.9330  178.6340  143.8280 C   0  0  0  0  0  0  0  0  0  0  0  0
  1  8  1  0  0  0  0
  2 11  1  1  0  0  0
  2  5  1  0  0  0  0
  2  9  1  0  0  0  0
  3  1  2  0  0  0  0
  4  6  1  0  0  0  0
  5  8  1  0  0  0  0
  7  3  1  0  0  0  0
  7  5  2  0  0  0  0
  8  6  2  0  0  0  0
  9  4  2  0  0  0  0
 10 12  1  0  0  0  0
 11 12  2  0  0  0  0
 13 20  1  6  0  0  0
 13 15  1  0  0  0  0
 14 13  1  0  0  0  0
 14 17  1  0  0  0  0
 15 16  1  0  0  0  0
 16 11  1  1  0  0  0
 17 19  2  0  0  0  0
 19 16  1  0  0  0  0
 19 18  1  0  0  0  0
 20 22  1  0  0  0  0
 22 21  1  0  0  0  0
 23  3  1  0  0  0  0
 24 23  1  0  0  0  0
 25 26  2  0  0  0  0
 25 30  1  0  0  0  0
 26 29  1  0  0  0  0
 27 28  1  0  0  0  0
 27 31  1  0  0  0  0
 28 24  1  0  0  0  0
 29 28  2  0  0  0  0
 30 27  2  0  0  0  0
 31 32  1  0  0  0  0
 32 33  1  0  0  0  0
 33 34  1  0  0  0  0
 34 35  1  0  0  0  0
 36 37  1  0  0  0  0
 36 35  1  0  0  0  0
 37 38  1  0  0  0  0
 39 37  1  0  0  0  0
 40 42  2  0  0  0  0
 41 42  1  0  0  0  0
 42 39  1  0  0  0  0
M  END
>  <MODEL>
2

>  <REMARK>
 VINA RESULT:      -6.7      3.180      9.015
  Name = 
  16 active torsions:
  status: ('A' for Active; 'I' for Inactive)
    1  A    between atoms: C_1  and  C_23
    2  A    between atoms: C_1  and  N_26
    3  A    between atoms: O_4  and  C_19
    4  A    between atoms: O_4  and  N_26
    5  A    between atoms: C_5  and  N_25
    6  A    between atoms: C_5  and  C_39
    7  A    between atoms: C_7  and  C_9
    8  A    between atoms: C_8  and  C_28
    9  A    between atoms: C_9  and  C_27
   10  A    between atoms: C_10  and  C_36
   11  A    between atoms: C_18  and  C_31
   12  A    between atoms: C_19  and  N_25
   13  A    between atoms: C_22  and  C_28
   14  A    between atoms: C_23  and  C_31
   15  A    between atoms: C_24  and  C_41
   16  A    between atoms: C_36  and  C_41
                            x       y       z     vdW  Elec       q    Type
                         _______ _______ _______ _____ _____    ______ ____

>  <TORSDO>
F 16

$$$$
=
 OpenBabel11062420013D

 42 45  0  0  1  0  0  0  0  0999 V2000
  188.8570  174.1080  141.6130 C   0  0  0  0  0  3  0  0  0  0  0  0
  192.4670  173.7990  142.6770 C   0  0  0  0  0  0  0  0  0  0  0  0
  188.9480  174.9910  142.6110 C   0  0  1  0  0  3  0  0  0  0  0  0
  192.0220  172.1760  140.8420 N   0  0  0  0  0  0  0  0  0  0  0  0
  191.0190  174.1610  142.5100 C   0  0  0  0  0  0  0  0  0  0  0  0
  190.6460  172.5870  140.7170 C   0  0  0  0  0  3  0  0  0  0  0  0
  190.3020  175.0400  143.1910 C   0  0  0  0  0  3  0  0  0  0  0  0
  190.1860  173.5360  141.5220 C   0  0  0  0  0  0  0  0  0  0  0  0
  192.8580  172.6950  141.7070 C   0  0  0  0  0  3  0  0  0  0  0  0
  194.3960  176.5510  141.0870 O   0  0  0  0  0  1  0  0  0  0  0  0
  193.3550  174.9930  142.4970 C   0  0  0  0  0  0  0  0  0  0  0  0
  193.5810  175.4620  141.3040 N   0  0  0  0  0  0  0  0  0  0  0  0
  193.6680  176.2180  145.8870 C   0  0  1  0  0  3  0  0  0  0  0  0
  194.7970  175.3480  146.4520 C   0  0  0  0  0  2  0  0  0  0  0  0
  193.0690  175.5440  144.8050 O   0  0  0  0  0  0  0  0  0  0  0  0
  193.9740  175.6040  143.7230 C   0  0  1  0  0  3  0  0  0  0  0  0
  195.7020  174.9040  145.3380 C   0  0  0  0  0  3  0  0  0  0  0  0
  196.1730  174.5540  143.0580 O   0  0  0  0  0  1  0  0  0  0  0  0
  195.3110  174.9750  144.0640 C   0  0  0  0  0  0  0  0  0  0  0  0
  192.6240  176.4930  146.9520 C   0  0  0  0  0  2  0  0  0  0  0  0
  190.4700  175.3030  147.2210 C   0  0  0  0  0  1  0  0  0  0  0  0
  191.9730  175.1970  147.4040 C   0  0  0  0  0  2  0  0  0  0  0  0
  187.8260  175.8690  143.0470 C   0  0  0  0  0  2  0  0  0  0  0  0
  188.3580  177.2060  143.5430 C   0  0  0  0  0  2  0  0  0  0  0  0
  186.0600  178.6440  146.8080 N   0  0  0  0  0  0  0  0  0  0  0  0
  187.1130  177.8490  147.0210 N   0  0  0  0  0  0  0  0  0  0  0  0
  186.4220  178.5620  144.4540 C   0  0  0  0  0  0  0  0  0  0  0  0
  187.5260  177.7210  144.6760 C   0  0  0  0  0  0  0  0  0  0  0  0
  187.8590  177.3750  145.9890 C   0  0  0  0  0  3  0  0  0  0  0  0
  185.6890  179.0140  145.5520 C   0  0  0  0  0  3  0  0  0  0  0  0
  185.9870  178.9350  143.0710 C   0  0  0  0  0  2  0  0  0  0  0  0
  184.9730  177.9260  142.5590 C   0  0  0  0  0  2  0  0  0  0  0  0
  183.5600  178.4730  142.6740 C   0  0  0  0  0  2  0  0  0  0  0  0
  182.7830  178.1330  141.4910 N   0  0  0  0  0  2  0  0  0  0  0  0
  181.5310  178.6130  141.6880 O   0  0  0  0  0  0  0  0  0  0  0  0
  180.8530  178.3290  140.5000 C   0  0  0  0  0  2  0  0  0  0  0  0
  179.4370  178.1510  140.7720 N   0  0  0  0  0  0  0  0  0  0  0  0
  178.7300  179.0330  139.8610 C   0  0  0  0  0  1  0  0  0  0  0  0
  179.1850  178.6520  142.1130 C   0  0  0  0  0  2  0  0  0  0  0  0
  177.9460  176.6270  142.3200 O   0  0  0  0  0  0  0  0  0  0  0  0
  178.1030  177.8950  144.2270 O   0  0  0  0  0  1  0  0  0  0  0  0
  178.3910  177.6580  142.8880 C   0  0  0  0  0  0  0  0  0  0  0  0
  1  3  1  0  0  0  0
  3 23  1  6  0  0  0
  3  7  1  0  0  0  0
  4  9  1  0  0  0  0
  5  2  1  0  0  0  0
  5  7  2  0  0  0  0
  6  4  2  0  0  0  0
  6  8  1  0  0  0  0
  8  1  2  0  0  0  0
  8  5  1  0  0  0  0
  9  2  2  0  0  0  0
 10 12  1  0  0  0  0
 11  2  1  0  0  0  0
 12 11  2  0  0  0  0
 13 14  1  0  0  0  0
 13 20  1  1  0  0  0
 15 13  1  0  0  0  0
 16 11  1  6  0  0  0
 16 19  1  0  0  0  0
 16 15  1  0  0  0  0
 17 14  1  0  0  0  0
 18 19  1  0  0  0  0
 19 17  2  0  0  0  0
 20 22  1  0  0  0  0
 21 22  1  0  0  0  0
 23 24  1  0  0  0  0
 24 28  1  0  0  0  0
 25 26  1  0  0  0  0
 27 28  2  0  0  0  0
 27 30  1  0  0  0  0
 28 29  1  0  0  0  0
 29 26  2  0  0  0  0
 30 25  2  0  0  0  0
 31 27  1  0  0  0  0
 32 33  1  0  0  0  0
 32 31  1  0  0  0  0
 34 35  1  0  0  0  0
 34 33  1  0  0  0  0
 36 37  1  0  0  0  0
 36 35  1  0  0  0  0
 37 39  1  0  0  0  0
 38 37  1  0  0  0  0
 39 42  1  0  0  0  0
 40 42  2  0  0  0  0
 42 41  1  0  0  0  0
M  END
>  <MODEL>
3

>  <REMARK>
 VINA RESULT:      -6.6      3.109      9.644
  Name = 
  16 active torsions:
  status: ('A' for Active; 'I' for Inactive)
    1  A    between atoms: C_1  and  C_23
    2  A    between atoms: C_1  and  N_26
    3  A    between atoms: O_4  and  C_19
    4  A    between atoms: O_4  and  N_26
    5  A    between atoms: C_5  and  N_25
    6  A    between atoms: C_5  and  C_39
    7  A    between atoms: C_7  and  C_9
    8  A    between atoms: C_8  and  C_28
    9  A    between atoms: C_9  and  C_27
   10  A    between atoms: C_10  and  C_36
   11  A    between atoms: C_18  and  C_31
   12  A    between atoms: C_19  and  N_25
   13  A    between atoms: C_22  and  C_28
   14  A    between atoms: C_23  and  C_31
   15  A    between atoms: C_24  and  C_41
   16  A    between atoms: C_36  and  C_41
                            x       y       z     vdW  Elec       q    Type
                         _______ _______ _______ _____ _____    ______ ____

>  <TORSDO>
F 16

$$$$
=
 OpenBabel11062420013D

 42 45  0  0  1  0  0  0  0  0999 V2000
  193.1740  176.0490  146.7290 C   0  0  0  0  0  3  0  0  0  0  0  0
  189.9980  175.2140  144.8650 C   0  0  1  0  0  3  0  0  0  0  0  0
  193.5460  176.1500  145.4500 C   0  0  0  0  0  0  0  0  0  0  0  0
  189.5750  175.0240  147.3120 N   0  0  0  0  0  0  0  0  0  0  0  0
  191.3930  175.5820  145.2830 C   0  0  0  0  0  0  0  0  0  0  0  0
  190.9240  175.4060  147.6450 C   0  0  0  0  0  3  0  0  0  0  0  0
  192.4380  175.8600  144.5220 C   0  0  0  0  0  3  0  0  0  0  0  0
  191.7770  175.6690  146.6630 C   0  0  0  0  0  0  0  0  0  0  0  0
  189.1320  174.9270  146.0830 C   0  0  0  0  0  3  0  0  0  0  0  0
  189.5950  178.0030  142.4390 O   0  0  0  0  0  1  0  0  0  0  0  0
  189.3760  176.2870  144.0230 C   0  0  0  0  0  0  0  0  0  0  0  0
  190.1180  177.0010  143.2270 N   0  0  0  0  0  0  0  0  0  0  0  0
  186.2410  177.9790  144.6520 C   0  0  1  0  0  3  0  0  0  0  0  0
  185.5360  177.8890  143.2940 C   0  0  0  0  0  2  0  0  0  0  0  0
  187.6300  177.8620  144.4550 O   0  0  0  0  0  0  0  0  0  0  0  0
  187.8940  176.5100  144.1440 C   0  0  1  0  0  3  0  0  0  0  0  0
  186.0200  176.6760  142.5500 C   0  0  0  0  0  3  0  0  0  0  0  0
  187.5640  174.9350  142.1970 O   0  0  0  0  0  1  0  0  0  0  0  0
  187.1440  176.0520  142.9090 C   0  0  0  0  0  0  0  0  0  0  0  0
  185.9360  179.3050  145.3230 C   0  0  0  0  0  2  0  0  0  0  0  0
  184.3620  178.2230  146.8980 C   0  0  0  0  0  1  0  0  0  0  0  0
  185.6010  179.0930  146.7890 C   0  0  0  0  0  2  0  0  0  0  0  0
  194.9070  176.5700  145.0120 C   0  0  0  0  0  2  0  0  0  0  0  0
  195.4710  175.5810  144.0030 C   0  0  0  0  0  2  0  0  0  0  0  0
  196.3770  171.9040  145.9210 N   0  0  0  0  0  0  0  0  0  0  0  0
  196.9960  173.0300  146.2890 N   0  0  0  0  0  0  0  0  0  0  0  0
  195.1210  173.0870  144.2760 C   0  0  0  0  0  0  0  0  0  0  0  0
  195.7760  174.2690  144.6590 C   0  0  0  0  0  0  0  0  0  0  0  0
  196.7230  174.2160  145.6850 C   0  0  0  0  0  3  0  0  0  0  0  0
  195.4460  171.8960  144.9280 C   0  0  0  0  0  3  0  0  0  0  0  0
  194.1290  173.0680  143.1550 C   0  0  0  0  0  2  0  0  0  0  0  0
  192.8900  172.2960  143.5770 C   0  0  0  0  0  2  0  0  0  0  0  0
  191.7670  172.4830  142.5690 C   0  0  0  0  0  2  0  0  0  0  0  0
  191.9510  173.7200  141.8230 N   0  0  0  0  0  2  0  0  0  0  0  0
  190.7220  174.1210  141.4150 O   0  0  0  0  0  0  0  0  0  0  0  0
  190.1810  173.0030  140.7740 C   0  0  0  0  0  2  0  0  0  0  0  0
  189.6250  173.3930  139.4890 N   0  0  0  0  0  0  0  0  0  0  0  0
  188.3090  172.7880  139.4120 C   0  0  0  0  0  1  0  0  0  0  0  0
  190.4330  172.7640  138.4580 C   0  0  0  0  0  2  0  0  0  0  0  0
  192.3950  174.1070  138.2940 O   0  0  0  0  0  1  0  0  0  0  0  0
  190.8430  174.4080  136.6300 O   0  0  0  0  0  0  0  0  0  0  0  0
  191.2890  173.7820  137.7880 C   0  0  0  0  0  0  0  0  0  0  0  0
  2 11  1  1  0  0  0
  2  5  1  0  0  0  0
  2  9  1  0  0  0  0
  3  1  2  0  0  0  0
  4  6  1  0  0  0  0
  5  8  1  0  0  0  0
  7  5  2  0  0  0  0
  7  3  1  0  0  0  0
  8  1  1  0  0  0  0
  8  6  2  0  0  0  0
  9  4  2  0  0  0  0
 10 12  1  0  0  0  0
 12 11  2  0  0  0  0
 13 20  1  6  0  0  0
 14 13  1  0  0  0  0
 15 13  1  0  0  0  0
 16 11  1  6  0  0  0
 16 15  1  0  0  0  0
 17 19  2  0  0  0  0
 17 14  1  0  0  0  0
 18 19  1  0  0  0  0
 19 16  1  0  0  0  0
 20 22  1  0  0  0  0
 22 21  1  0  0  0  0
 23  3  1  0  0  0  0
 24 28  1  0  0  0  0
 24 23  1  0  0  0  0
 25 26  1  0  0  0  0
 27 28  2  0  0  0  0
 27 30  1  0  0  0  0
 28 29  1  0  0  0  0
 29 26  2  0  0  0  0
 30 25  2  0  0  0  0
 31 32  1  0  0  0  0
 31 27  1  0  0  0  0
 33 32  1  0  0  0  0
 34 33  1  0  0  0  0
 35 34  1  0  0  0  0
 36 35  1  0  0  0  0
 37 36  1  0  0  0  0
 38 37  1  0  0  0  0
 39 37  1  0  0  0  0
 41 42  2  0  0  0  0
 42 40  1  0  0  0  0
 42 39  1  0  0  0  0
M  END
>  <MODEL>
4

>  <REMARK>
 VINA RESULT:      -6.6      2.806      3.921
  Name = 
  16 active torsions:
  status: ('A' for Active; 'I' for Inactive)
    1  A    between atoms: C_1  and  C_23
    2  A    between atoms: C_1  and  N_26
    3  A    between atoms: O_4  and  C_19
    4  A    between atoms: O_4  and  N_26
    5  A    between atoms: C_5  and  N_25
    6  A    between atoms: C_5  and  C_39
    7  A    between atoms: C_7  and  C_9
    8  A    between atoms: C_8  and  C_28
    9  A    between atoms: C_9  and  C_27
   10  A    between atoms: C_10  and  C_36
   11  A    between atoms: C_18  and  C_31
   12  A    between atoms: C_19  and  N_25
   13  A    between atoms: C_22  and  C_28
   14  A    between atoms: C_23  and  C_31
   15  A    between atoms: C_24  and  C_41
   16  A    between atoms: C_36  and  C_41
                            x       y       z     vdW  Elec       q    Type
                         _______ _______ _______ _____ _____    ______ ____

>  <TORSDO>
F 16

$$$$
=
 OpenBabel11062420013D

 42 45  0  0  1  0  0  0  0  0999 V2000
  192.9640  175.7500  146.8150 C   0  0  0  0  0  3  0  0  0  0  0  0
  194.2090  173.2240  144.2990 C   0  0  0  0  0  0  0  0  0  0  0  0
  191.8600  175.0590  146.5180 C   0  0  1  0  0  3  0  0  0  0  0  0
  196.0990  174.7020  144.9660 N   0  0  0  0  0  0  0  0  0  0  0  0
  193.4060  174.0690  145.2470 C   0  0  0  0  0  0  0  0  0  0  0  0
  195.2770  175.4590  145.8760 C   0  0  0  0  0  3  0  0  0  0  0  0
  192.1160  173.9950  145.5310 C   0  0  0  0  0  3  0  0  0  0  0  0
  193.9940  175.1420  145.9960 C   0  0  0  0  0  0  0  0  0  0  0  0
  195.6520  173.7010  144.2480 C   0  0  0  0  0  3  0  0  0  0  0  0
  194.6220  170.0540  146.1980 O   0  0  0  0  0  1  0  0  0  0  0  0
  194.1510  171.7740  144.6750 C   0  0  0  0  0  0  0  0  0  0  0  0
  194.6440  171.3750  145.8110 N   0  0  0  0  0  0  0  0  0  0  0  0
  191.7300  170.3570  142.3890 C   0  0  1  0  0  3  0  0  0  0  0  0
  192.5150  170.2880  141.0750 C   0  0  0  0  0  2  0  0  0  0  0  0
  192.3070  171.3410  143.2160 O   0  0  0  0  0  0  0  0  0  0  0  0
  193.5260  170.8160  143.6990 C   0  0  1  0  0  3  0  0  0  0  0  0
  193.9840  170.1590  141.3660 C   0  0  0  0  0  3  0  0  0  0  0  0
  195.8370  170.3180  142.8080 O   0  0  0  0  0  1  0  0  0  0  0  0
  194.4730  170.4470  142.5730 C   0  0  0  0  0  0  0  0  0  0  0  0
  190.2780  170.7090  142.1250 C   0  0  0  0  0  2  0  0  0  0  0  0
  189.2130  172.9430  142.0730 C   0  0  0  0  0  1  0  0  0  0  0  0
  189.8590  171.9010  142.9680 C   0  0  0  0  0  2  0  0  0  0  0  0
  190.5360  175.2960  147.1590 C   0  0  0  0  0  2  0  0  0  0  0  0
  189.4110  174.8430  146.2400 C   0  0  0  0  0  2  0  0  0  0  0  0
  186.8070  178.0820  145.3800 N   0  0  0  0  0  0  0  0  0  0  0  0
  186.6690  177.3850  146.5110 N   0  0  0  0  0  0  0  0  0  0  0  0
  188.6510  176.7220  144.7220 C   0  0  0  0  0  0  0  0  0  0  0  0
  188.5020  175.9860  145.9090 C   0  0  0  0  0  0  0  0  0  0  0  0
  187.4900  176.3420  146.8040 C   0  0  0  0  0  3  0  0  0  0  0  0
  187.7750  177.7800  144.4720 C   0  0  0  0  0  3  0  0  0  0  0  0
  189.6870  176.3650  143.7020 C   0  0  0  0  0  2  0  0  0  0  0  0
  190.8700  177.3120  143.8140 C   0  0  0  0  0  2  0  0  0  0  0  0
  192.0670  176.7760  143.0460 C   0  0  0  0  0  2  0  0  0  0  0  0
  191.6940  175.6020  142.2730 N   0  0  0  0  0  2  0  0  0  0  0  0
  192.8400  175.0720  141.7800 O   0  0  0  0  0  0  0  0  0  0  0  0
  193.7970  176.0740  141.9600 C   0  0  0  0  0  2  0  0  0  0  0  0
  195.0800  175.6290  141.4430 N   0  0  0  0  0  0  0  0  0  0  0  0
  196.0030  176.7320  141.6330 C   0  0  0  0  0  1  0  0  0  0  0  0
  194.9320  175.4540  140.0080 C   0  0  0  0  0  2  0  0  0  0  0  0
  196.3000  173.5250  140.3060 O   0  0  0  0  0  1  0  0  0  0  0  0
  194.9870  173.5300  138.4230 O   0  0  0  0  0  0  0  0  0  0  0  0
  195.4370  174.1120  139.6030 C   0  0  0  0  0  0  0  0  0  0  0  0
  2 11  1  0  0  0  0
  2  5  1  0  0  0  0
  3  1  1  0  0  0  0
  3 23  1  1  0  0  0
  4  6  2  0  0  0  0
  5  7  2  0  0  0  0
  5  8  1  0  0  0  0
  6  8  1  0  0  0  0
  7  3  1  0  0  0  0
  8  1  2  0  0  0  0
  9  2  2  0  0  0  0
  9  4  1  0  0  0  0
 11 12  2  0  0  0  0
 12 10  1  0  0  0  0
 13 20  1  6  0  0  0
 13 15  1  0  0  0  0
 14 17  1  0  0  0  0
 14 13  1  0  0  0  0
 15 16  1  0  0  0  0
 16 11  1  1  0  0  0
 17 19  2  0  0  0  0
 19 18  1  0  0  0  0
 19 16  1  0  0  0  0
 20 22  1  0  0  0  0
 21 22  1  0  0  0  0
 24 23  1  0  0  0  0
 25 26  1  0  0  0  0
 26 29  2  0  0  0  0
 27 28  2  0  0  0  0
 28 24  1  0  0  0  0
 28 29  1  0  0  0  0
 30 27  1  0  0  0  0
 30 25  2  0  0  0  0
 31 32  1  0  0  0  0
 31 27  1  0  0  0  0
 33 32  1  0  0  0  0
 34 33  1  0  0  0  0
 35 36  1  0  0  0  0
 35 34  1  0  0  0  0
 37 38  1  0  0  0  0
 37 36  1  0  0  0  0
 39 37  1  0  0  0  0
 41 42  2  0  0  0  0
 42 39  1  0  0  0  0
 42 40  1  0  0  0  0
M  END
>  <MODEL>
5

>  <REMARK>
 VINA RESULT:      -6.5      4.105      8.369
  Name = 
  16 active torsions:
  status: ('A' for Active; 'I' for Inactive)
    1  A    between atoms: C_1  and  C_23
    2  A    between atoms: C_1  and  N_26
    3  A    between atoms: O_4  and  C_19
    4  A    between atoms: O_4  and  N_26
    5  A    between atoms: C_5  and  N_25
    6  A    between atoms: C_5  and  C_39
    7  A    between atoms: C_7  and  C_9
    8  A    between atoms: C_8  and  C_28
    9  A    between atoms: C_9  and  C_27
   10  A    between atoms: C_10  and  C_36
   11  A    between atoms: C_18  and  C_31
   12  A    between atoms: C_19  and  N_25
   13  A    between atoms: C_22  and  C_28
   14  A    between atoms: C_23  and  C_31
   15  A    between atoms: C_24  and  C_41
   16  A    between atoms: C_36  and  C_41
                            x       y       z     vdW  Elec       q    Type
                         _______ _______ _______ _____ _____    ______ ____

>  <TORSDO>
F 16

$$$$
=
 OpenBabel11062420013D

 42 45  0  0  1  0  0  0  0  0999 V2000
  193.6760  170.2450  142.9590 C   0  0  0  0  0  3  0  0  0  0  0  0
  194.0380  173.2860  145.1690 C   0  0  0  0  0  0  0  0  0  0  0  0
  192.4180  170.6770  143.0770 C   0  0  0  0  0  0  0  0  0  0  0  0
  196.2770  172.2450  144.8520 N   0  0  0  0  0  0  0  0  0  0  0  0
  193.5540  172.1620  144.2990 C   0  0  0  0  0  0  0  0  0  0  0  0
  195.7510  171.2040  144.0050 C   0  0  0  0  0  3  0  0  0  0  0  0
  192.3170  171.8830  143.9170 C   0  0  0  0  0  3  0  0  0  0  0  0
  194.4490  171.1820  143.7520 C   0  0  1  0  0  3  0  0  0  0  0  0
  195.5390  173.1860  145.3880 C   0  0  0  0  0  3  0  0  0  0  0  0
  193.9700  176.2490  142.9240 O   0  0  0  0  0  1  0  0  0  0  0  0
  193.6820  174.6220  144.5870 C   0  0  0  0  0  0  0  0  0  0  0  0
  194.2570  175.0280  143.4920 N   0  0  0  0  0  0  0  0  0  0  0  0
  190.6080  175.5300  146.2630 C   0  0  1  0  0  3  0  0  0  0  0  0
  191.0980  175.9430  147.6560 C   0  0  0  0  0  2  0  0  0  0  0  0
  191.5570  174.6690  145.6810 O   0  0  0  0  0  0  0  0  0  0  0  0
  192.6670  175.4600  145.3130 C   0  0  1  0  0  3  0  0  0  0  0  0
  192.5110  176.4450  147.5680 C   0  0  0  0  0  3  0  0  0  0  0  0
  194.5730  176.6630  146.4540 O   0  0  0  0  0  1  0  0  0  0  0  0
  193.2690  176.1860  146.5010 C   0  0  0  0  0  0  0  0  0  0  0  0
  189.2710  174.8190  146.3580 C   0  0  0  0  0  2  0  0  0  0  0  0
  187.7620  176.7760  146.4930 C   0  0  0  0  0  1  0  0  0  0  0  0
  188.3220  175.5900  147.2580 C   0  0  0  0  0  2  0  0  0  0  0  0
  191.2570  170.0480  142.3870 C   0  0  0  0  0  2  0  0  0  0  0  0
  190.0730  171.0030  142.3570 C   0  0  0  0  0  2  0  0  0  0  0  0
  190.0640  173.1920  138.7210 N   0  0  0  0  0  0  0  0  0  0  0  0
  190.5560  171.9500  138.7610 N   0  0  0  0  0  0  0  0  0  0  0  0
  189.5420  173.1030  141.0450 C   0  0  0  0  0  0  0  0  0  0  0  0
  190.0640  171.7990  141.0890 C   0  0  0  0  0  0  0  0  0  0  0  0
  190.5710  171.2340  139.9160 C   0  0  0  0  0  3  0  0  0  0  0  0
  189.5570  173.7930  139.8320 C   0  0  0  0  0  3  0  0  0  0  0  0
  189.0230  173.7820  142.2740 C   0  0  0  0  0  2  0  0  0  0  0  0
  189.8430  175.0290  142.5590 C   0  0  0  0  0  2  0  0  0  0  0  0
  188.9560  176.2630  142.5960 C   0  0  0  0  0  2  0  0  0  0  0  0
  187.5530  175.8820  142.6580 N   0  0  0  0  0  2  0  0  0  0  0  0
  186.8310  177.0300  142.6560 O   0  0  0  0  0  0  0  0  0  0  0  0
  185.8080  176.8040  143.5810 C   0  0  0  0  0  2  0  0  0  0  0  0
  184.8320  177.8780  143.5080 N   0  0  0  0  0  0  0  0  0  0  0  0
  184.7660  178.2770  142.1140 C   0  0  0  0  0  1  0  0  0  0  0  0
  185.3770  179.0100  144.2380 C   0  0  0  0  0  2  0  0  0  0  0  0
  183.6880  178.6620  145.8820 O   0  0  0  0  0  0  0  0  0  0  0  0
  185.7050  179.4170  146.6750 O   0  0  0  0  0  1  0  0  0  0  0  0
  184.8750  179.0030  145.6400 C   0  0  0  0  0  0  0  0  0  0  0  0
  1  3  2  0  0  0  0
  2  9  2  0  0  0  0
  3  7  1  0  0  0  0
  4  9  1  0  0  0  0
  5  2  1  0  0  0  0
  6  4  2  0  0  0  0
  7  5  2  0  0  0  0
  8  1  1  1  0  0  0
  8  6  1  0  0  0  0
  8  5  1  0  0  0  0
 10 12  1  0  0  0  0
 11  2  1  0  0  0  0
 12 11  2  0  0  0  0
 13 20  1  1  0  0  0
 13 14  1  0  0  0  0
 15 13  1  0  0  0  0
 16 11  1  1  0  0  0
 16 15  1  0  0  0  0
 16 19  1  0  0  0  0
 17 14  1  0  0  0  0
 18 19  1  0  0  0  0
 19 17  2  0  0  0  0
 20 22  1  0  0  0  0
 21 22  1  0  0  0  0
 23  3  1  0  0  0  0
 24 23  1  0  0  0  0
 25 26  2  0  0  0  0
 25 30  1  0  0  0  0
 26 29  1  0  0  0  0
 27 28  1  0  0  0  0
 27 31  1  0  0  0  0
 28 24  1  0  0  0  0
 29 28  2  0  0  0  0
 30 27  2  0  0  0  0
 31 32  1  0  0  0  0
 32 33  1  0  0  0  0
 33 34  1  0  0  0  0
 35 34  1  0  0  0  0
 35 36  1  0  0  0  0
 37 36  1  0  0  0  0
 37 39  1  0  0  0  0
 38 37  1  0  0  0  0
 39 42  1  0  0  0  0
 42 40  2  0  0  0  0
 42 41  1  0  0  0  0
M  END
>  <MODEL>
6

>  <REMARK>
 VINA RESULT:      -6.3      2.802      8.546
  Name = 
  16 active torsions:
  status: ('A' for Active; 'I' for Inactive)
    1  A    between atoms: C_1  and  C_23
    2  A    between atoms: C_1  and  N_26
    3  A    between atoms: O_4  and  C_19
    4  A    between atoms: O_4  and  N_26
    5  A    between atoms: C_5  and  N_25
    6  A    between atoms: C_5  and  C_39
    7  A    between atoms: C_7  and  C_9
    8  A    between atoms: C_8  and  C_28
    9  A    between atoms: C_9  and  C_27
   10  A    between atoms: C_10  and  C_36
   11  A    between atoms: C_18  and  C_31
   12  A    between atoms: C_19  and  N_25
   13  A    between atoms: C_22  and  C_28
   14  A    between atoms: C_23  and  C_31
   15  A    between atoms: C_24  and  C_41
   16  A    between atoms: C_36  and  C_41
                            x       y       z     vdW  Elec       q    Type
                         _______ _______ _______ _____ _____    ______ ____

>  <TORSDO>
F 16

$$$$
=
 OpenBabel11062420013D

 42 45  0  0  1  0  0  0  0  0999 V2000
  190.2700  171.2910  142.3800 C   0  0  0  0  0  3  0  0  0  0  0  0
  193.9010  171.2670  143.4150 C   0  0  0  0  0  0  0  0  0  0  0  0
  190.4410  172.5160  142.8860 C   0  0  1  0  0  3  0  0  0  0  0  0
  193.3080  169.0330  142.4880 N   0  0  0  0  0  0  0  0  0  0  0  0
  192.4660  171.6050  143.1280 C   0  0  0  0  0  0  0  0  0  0  0  0
  191.9490  169.4290  142.2170 C   0  0  0  0  0  3  0  0  0  0  0  0
  191.8180  172.7350  143.3640 C   0  0  0  0  0  3  0  0  0  0  0  0
  191.5660  170.6600  142.5290 C   0  0  0  0  0  0  0  0  0  0  0  0
  194.2010  169.8290  143.0240 C   0  0  0  0  0  3  0  0  0  0  0  0
  195.7620  173.0360  140.7260 O   0  0  0  0  0  1  0  0  0  0  0  0
  194.8360  172.2060  142.7140 C   0  0  0  0  0  0  0  0  0  0  0  0
  194.9130  172.1990  141.4150 N   0  0  0  0  0  0  0  0  0  0  0  0
  195.6840  174.7750  145.1170 C   0  0  1  0  0  3  0  0  0  0  0  0
  196.5230  174.0050  146.1440 C   0  0  0  0  0  2  0  0  0  0  0  0
  194.8520  173.8670  144.4330 O   0  0  0  0  0  0  0  0  0  0  0  0
  195.6750  173.1270  143.5560 C   0  0  1  0  0  3  0  0  0  0  0  0
  197.1910  172.8350  145.4790 C   0  0  0  0  0  3  0  0  0  0  0  0
  197.4130  171.3010  143.7080 O   0  0  0  0  0  1  0  0  0  0  0  0
  196.7740  172.3870  144.2930 C   0  0  0  0  0  0  0  0  0  0  0  0
  194.8290  175.8220  145.8050 C   0  0  0  0  0  2  0  0  0  0  0  0
  192.6920  174.9560  146.7030 C   0  0  0  0  0  1  0  0  0  0  0  0
  193.3600  175.5940  145.4980 C   0  0  0  0  0  2  0  0  0  0  0  0
  189.3800  173.5610  142.9070 C   0  0  0  0  0  2  0  0  0  0  0  0
  189.3420  174.2540  144.2610 C   0  0  0  0  0  2  0  0  0  0  0  0
  190.4400  178.3290  143.8140 N   0  0  0  0  0  0  0  0  0  0  0  0
  190.4680  177.5030  142.7650 N   0  0  0  0  0  0  0  0  0  0  0  0
  189.6960  176.5650  145.2350 C   0  0  0  0  0  0  0  0  0  0  0  0
  189.7310  175.6940  144.1330 C   0  0  0  0  0  0  0  0  0  0  0  0
  190.1240  176.1940  142.8880 C   0  0  0  0  0  3  0  0  0  0  0  0
  190.0650  177.8990  145.0500 C   0  0  0  0  0  3  0  0  0  0  0  0
  189.3260  176.0840  146.6030 C   0  0  0  0  0  2  0  0  0  0  0  0
  187.8140  176.0410  146.7430 C   0  0  0  0  0  2  0  0  0  0  0  0
  187.2370  177.4460  146.8190 C   0  0  0  0  0  2  0  0  0  0  0  0
  185.8120  177.3980  147.1110 N   0  0  0  0  0  2  0  0  0  0  0  0
  185.1940  176.9510  145.9910 O   0  0  0  0  0  0  0  0  0  0  0  0
  185.4170  177.9520  145.0420 C   0  0  0  0  0  2  0  0  0  0  0  0
  185.1250  177.4440  143.7130 N   0  0  0  0  0  0  0  0  0  0  0  0
  186.1630  176.4770  143.4070 C   0  0  0  0  0  1  0  0  0  0  0  0
  185.2960  178.5460  142.7800 C   0  0  0  0  0  2  0  0  0  0  0  0
  185.0760  178.4050  140.4110 O   0  0  0  0  0  0  0  0  0  0  0  0
  183.1740  177.9530  141.6140 O   0  0  0  0  0  1  0  0  0  0  0  0
  184.5220  178.2840  141.5350 C   0  0  0  0  0  0  0  0  0  0  0  0
  1  8  2  0  0  0  0
  1  3  1  0  0  0  0
  3 23  1  6  0  0  0
  3  7  1  0  0  0  0
  4  9  1  0  0  0  0
  5  7  2  0  0  0  0
  5  2  1  0  0  0  0
  6  4  2  0  0  0  0
  6  8  1  0  0  0  0
  8  5  1  0  0  0  0
  9  2  2  0  0  0  0
 10 12  1  0  0  0  0
 11  2  1  0  0  0  0
 12 11  2  0  0  0  0
 13 20  1  1  0  0  0
 13 14  1  0  0  0  0
 15 13  1  0  0  0  0
 16 11  1  1  0  0  0
 16 19  1  0  0  0  0
 16 15  1  0  0  0  0
 17 14  1  0  0  0  0
 18 19  1  0  0  0  0
 19 17  2  0  0  0  0
 22 20  1  0  0  0  0
 22 21  1  0  0  0  0
 23 24  1  0  0  0  0
 25 30  1  0  0  0  0
 26 29  1  0  0  0  0
 26 25  2  0  0  0  0
 27 31  1  0  0  0  0
 28 24  1  0  0  0  0
 28 27  1  0  0  0  0
 29 28  2  0  0  0  0
 30 27  2  0  0  0  0
 31 32  1  0  0  0  0
 32 33  1  0  0  0  0
 33 34  1  0  0  0  0
 35 34  1  0  0  0  0
 36 35  1  0  0  0  0
 37 36  1  0  0  0  0
 38 37  1  0  0  0  0
 39 37  1  0  0  0  0
 40 42  2  0  0  0  0
 42 41  1  0  0  0  0
 42 39  1  0  0  0  0
M  END
>  <MODEL>
7

>  <REMARK>
 VINA RESULT:      -6.3      3.112      9.344
  Name = 
  16 active torsions:
  status: ('A' for Active; 'I' for Inactive)
    1  A    between atoms: C_1  and  C_23
    2  A    between atoms: C_1  and  N_26
    3  A    between atoms: O_4  and  C_19
    4  A    between atoms: O_4  and  N_26
    5  A    between atoms: C_5  and  N_25
    6  A    between atoms: C_5  and  C_39
    7  A    between atoms: C_7  and  C_9
    8  A    between atoms: C_8  and  C_28
    9  A    between atoms: C_9  and  C_27
   10  A    between atoms: C_10  and  C_36
   11  A    between atoms: C_18  and  C_31
   12  A    between atoms: C_19  and  N_25
   13  A    between atoms: C_22  and  C_28
   14  A    between atoms: C_23  and  C_31
   15  A    between atoms: C_24  and  C_41
   16  A    between atoms: C_36  and  C_41
                            x       y       z     vdW  Elec       q    Type
                         _______ _______ _______ _____ _____    ______ ____

>  <TORSDO>
F 16

$$$$
=
 OpenBabel11062420013D

 42 45  0  0  1  0  0  0  0  0999 V2000
  191.7010  177.4920  144.9220 C   0  0  0  0  0  3  0  0  0  0  0  0
  194.0900  175.5270  142.7560 C   0  0  1  0  0  3  0  0  0  0  0  0
  190.9650  177.2200  143.8410 C   0  0  0  0  0  0  0  0  0  0  0  0
  195.2670  176.2210  144.8370 N   0  0  0  0  0  0  0  0  0  0  0  0
  192.9180  176.2550  143.3500 C   0  0  0  0  0  0  0  0  0  0  0  0
  194.0990  176.8830  145.3610 C   0  0  0  0  0  3  0  0  0  0  0  0
  191.7130  176.4420  142.8370 C   0  0  0  0  0  3  0  0  0  0  0  0
  192.9870  176.8890  144.6360 C   0  0  0  0  0  0  0  0  0  0  0  0
  195.2960  175.6100  143.6780 C   0  0  0  0  0  3  0  0  0  0  0  0
  194.4200  171.9600  141.7590 O   0  0  0  0  0  1  0  0  0  0  0  0
  193.7530  174.0960  142.4610 C   0  0  0  0  0  0  0  0  0  0  0  0
  194.6810  173.2810  142.0500 N   0  0  0  0  0  0  0  0  0  0  0  0
  190.4970  172.7330  141.6660 C   0  0  1  0  0  3  0  0  0  0  0  0
  190.3830  171.5550  142.6410 C   0  0  0  0  0  2  0  0  0  0  0  0
  191.8590  173.0310  141.4650 O   0  0  0  0  0  0  0  0  0  0  0  0
  192.3280  173.6540  142.6420 C   0  0  1  0  0  3  0  0  0  0  0  0
  191.2110  171.8270  143.8650 C   0  0  0  0  0  3  0  0  0  0  0  0
  192.9010  172.9950  145.0120 O   0  0  0  0  0  1  0  0  0  0  0  0
  192.1530  172.7720  143.8630 C   0  0  0  0  0  0  0  0  0  0  0  0
  189.8540  172.3890  140.3370 C   0  0  0  0  0  2  0  0  0  0  0  0
  188.5670  174.4600  140.7610 C   0  0  0  0  0  1  0  0  0  0  0  0
  188.4880  173.0430  140.2230 C   0  0  0  0  0  2  0  0  0  0  0  0
  189.5330  177.6050  143.6940 C   0  0  0  0  0  2  0  0  0  0  0  0
  188.6400  176.3760  143.7770 C   0  0  0  0  0  2  0  0  0  0  0  0
  188.9420  174.5550  147.5990 N   0  0  0  0  0  0  0  0  0  0  0  0
  189.6190  174.0600  146.5590 N   0  0  0  0  0  0  0  0  0  0  0  0
  188.0160  176.2720  146.2290 C   0  0  0  0  0  0  0  0  0  0  0  0
  188.7230  175.7480  145.1340 C   0  0  0  0  0  0  0  0  0  0  0  0
  189.5330  174.6260  145.3260 C   0  0  0  0  0  3  0  0  0  0  0  0
  188.1380  175.6460  147.4710 C   0  0  0  0  0  3  0  0  0  0  0  0
  187.0980  177.4460  146.0820 C   0  0  0  0  0  2  0  0  0  0  0  0
  185.7660  177.1460  146.7470 C   0  0  0  0  0  2  0  0  0  0  0  0
  184.7180  178.1720  146.3460 C   0  0  0  0  0  2  0  0  0  0  0  0
  185.3220  179.2410  145.5650 N   0  0  0  0  0  2  0  0  0  0  0  0
  184.6100  179.3420  144.4160 O   0  0  0  0  0  0  0  0  0  0  0  0
  185.5720  179.3220  143.4020 C   0  0  0  0  0  2  0  0  0  0  0  0
  185.0260  178.6790  142.2190 N   0  0  0  0  0  0  0  0  0  0  0  0
  183.6680  178.2910  142.5530 C   0  0  0  0  0  1  0  0  0  0  0  0
  185.7710  177.4490  142.0110 C   0  0  0  0  0  2  0  0  0  0  0  0
  187.7610  177.9160  140.7860 O   0  0  0  0  0  1  0  0  0  0  0  0
  185.9580  177.2470  139.5340 O   0  0  0  0  0  0  0  0  0  0  0  0
  186.5610  177.5380  140.7520 C   0  0  0  0  0  0  0  0  0  0  0  0
  2 11  1  1  0  0  0
  2  5  1  0  0  0  0
  2  9  1  0  0  0  0
  3  1  2  0  0  0  0
  4  6  1  0  0  0  0
  5  8  1  0  0  0  0
  7  5  2  0  0  0  0
  7  3  1  0  0  0  0
  8  1  1  0  0  0  0
  8  6  2  0  0  0  0
  9  4  2  0  0  0  0
 10 12  1  0  0  0  0
 12 11  2  0  0  0  0
 13 20  1  6  0  0  0
 13 14  1  0  0  0  0
 14 17  1  0  0  0  0
 15 13  1  0  0  0  0
 15 16  1  0  0  0  0
 16 11  1  6  0  0  0
 16 19  1  0  0  0  0
 19 17  2  0  0  0  0
 19 18  1  0  0  0  0
 22 20  1  0  0  0  0
 22 21  1  0  0  0  0
 23 24  1  0  0  0  0
 23  3  1  0  0  0  0
 24 28  1  0  0  0  0
 26 25  2  0  0  0  0
 27 30  2  0  0  0  0
 28 29  2  0  0  0  0
 28 27  1  0  0  0  0
 29 26  1  0  0  0  0
 30 25  1  0  0  0  0
 31 27  1  0  0  0  0
 31 32  1  0  0  0  0
 33 32  1  0  0  0  0
 34 33  1  0  0  0  0
 35 34  1  0  0  0  0
 36 35  1  0  0  0  0
 37 38  1  0  0  0  0
 37 36  1  0  0  0  0
 39 37  1  0  0  0  0
 41 42  2  0  0  0  0
 42 40  1  0  0  0  0
 42 39  1  0  0  0  0
M  END
>  <MODEL>
8

>  <REMARK>
 VINA RESULT:      -6.2      2.111      7.645
  Name = 
  16 active torsions:
  status: ('A' for Active; 'I' for Inactive)
    1  A    between atoms: C_1  and  C_23
    2  A    between atoms: C_1  and  N_26
    3  A    between atoms: O_4  and  C_19
    4  A    between atoms: O_4  and  N_26
    5  A    between atoms: C_5  and  N_25
    6  A    between atoms: C_5  and  C_39
    7  A    between atoms: C_7  and  C_9
    8  A    between atoms: C_8  and  C_28
    9  A    between atoms: C_9  and  C_27
   10  A    between atoms: C_10  and  C_36
   11  A    between atoms: C_18  and  C_31
   12  A    between atoms: C_19  and  N_25
   13  A    between atoms: C_22  and  C_28
   14  A    between atoms: C_23  and  C_31
   15  A    between atoms: C_24  and  C_41
   16  A    between atoms: C_36  and  C_41
                            x       y       z     vdW  Elec       q    Type
                         _______ _______ _______ _____ _____    ______ ____

>  <TORSDO>
F 16

$$$$
=
 OpenBabel11062420013D

 42 45  0  0  1  0  0  0  0  0999 V2000
  189.7470  172.1900  140.6070 C   0  0  0  0  0  3  0  0  0  0  0  0
  189.5540  174.0920  143.8620 C   0  0  0  0  0  0  0  0  0  0  0  0
  189.0600  173.2840  140.2690 C   0  0  0  0  0  0  0  0  0  0  0  0
  190.7500  171.9430  144.2500 N   0  0  0  0  0  0  0  0  0  0  0  0
  189.4490  173.6090  142.4440 C   0  0  0  0  0  0  0  0  0  0  0  0
  190.6350  171.5490  142.8690 C   0  0  0  0  0  3  0  0  0  0  0  0
  188.8600  174.1930  141.4130 C   0  0  0  0  0  3  0  0  0  0  0  0
  190.0110  172.3580  142.0220 C   0  0  1  0  0  3  0  0  0  0  0  0
  190.2770  173.0690  144.7250 C   0  0  0  0  0  3  0  0  0  0  0  0
  192.1010  176.7720  143.4660 O   0  0  0  0  0  1  0  0  0  0  0  0
  190.2440  175.4220  143.9390 C   0  0  0  0  0  0  0  0  0  0  0  0
  191.4240  175.5740  143.4140 N   0  0  0  0  0  0  0  0  0  0  0  0
  187.5550  177.5810  145.0330 C   0  0  1  0  0  3  0  0  0  0  0  0
  187.5890  177.4090  146.5560 C   0  0  0  0  0  2  0  0  0  0  0  0
  188.1430  176.4520  144.4320 O   0  0  0  0  0  0  0  0  0  0  0  0
  189.5360  176.5440  144.6470 C   0  0  1  0  0  3  0  0  0  0  0  0
  188.9800  177.0490  146.9960 C   0  0  0  0  0  3  0  0  0  0  0  0
  191.1600  176.2740  146.5620 O   0  0  0  0  0  1  0  0  0  0  0  0
  189.8830  176.6000  146.1220 C   0  0  0  0  0  0  0  0  0  0  0  0
  186.1260  177.7250  144.5460 C   0  0  0  0  0  2  0  0  0  0  0  0
  185.2230  180.0120  144.2610 C   0  0  0  0  0  1  0  0  0  0  0  0
  185.4380  178.8820  145.2500 C   0  0  0  0  0  2  0  0  0  0  0  0
  188.6020  173.5820  138.8830 C   0  0  0  0  0  2  0  0  0  0  0  0
  189.4740  172.8600  137.8670 C   0  0  0  0  0  2  0  0  0  0  0  0
  191.7470  175.6530  135.6200 N   0  0  0  0  0  0  0  0  0  0  0  0
  190.4680  175.4180  135.3120 N   0  0  0  0  0  0  0  0  0  0  0  0
  191.6430  174.0860  137.4140 C   0  0  0  0  0  0  0  0  0  0  0  0
  190.3000  173.8350  137.0860 C   0  0  0  0  0  0  0  0  0  0  0  0
  189.7240  174.5250  136.0170 C   0  0  0  0  0  3  0  0  0  0  0  0
  192.3600  175.0100  136.6520 C   0  0  0  0  0  3  0  0  0  0  0  0
  192.3320  173.3490  138.5200 C   0  0  0  0  0  2  0  0  0  0  0  0
  193.6690  174.0050  138.8220 C   0  0  0  0  0  2  0  0  0  0  0  0
  193.6550  174.6540  140.1970 C   0  0  0  0  0  2  0  0  0  0  0  0
  194.6880  175.6760  140.2890 N   0  0  0  0  0  2  0  0  0  0  0  0
  194.5210  176.2990  141.4820 O   0  0  0  0  0  0  0  0  0  0  0  0
  195.1420  175.4570  142.4090 C   0  0  0  0  0  2  0  0  0  0  0  0
  195.6350  176.2380  143.5300 N   0  0  0  0  0  0  0  0  0  0  0  0
  196.9440  176.7310  143.1410 C   0  0  0  0  0  1  0  0  0  0  0  0
  195.8500  175.3210  144.6370 C   0  0  0  0  0  2  0  0  0  0  0  0
  194.5660  176.3520  146.3590 O   0  0  0  0  0  1  0  0  0  0  0  0
  193.7860  174.3250  145.6170 O   0  0  0  0  0  0  0  0  0  0  0  0
  194.6950  175.3760  145.5760 C   0  0  0  0  0  0  0  0  0  0  0  0
  2 11  1  0  0  0  0
  2  9  2  0  0  0  0
  3  1  2  0  0  0  0
  3  7  1  0  0  0  0
  4  9  1  0  0  0  0
  5  2  1  0  0  0  0
  6  4  2  0  0  0  0
  7  5  2  0  0  0  0
  8  1  1  1  0  0  0
  8  5  1  0  0  0  0
  8  6  1  0  0  0  0
 12 10  1  0  0  0  0
 12 11  2  0  0  0  0
 13 20  1  6  0  0  0
 13 14  1  0  0  0  0
 14 17  1  0  0  0  0
 15 16  1  0  0  0  0
 15 13  1  0  0  0  0
 16 11  1  1  0  0  0
 16 19  1  0  0  0  0
 19 18  1  0  0  0  0
 19 17  2  0  0  0  0
 20 22  1  0  0  0  0
 21 22  1  0  0  0  0
 23  3  1  0  0  0  0
 24 23  1  0  0  0  0
 25 30  1  0  0  0  0
 26 25  2  0  0  0  0
 26 29  1  0  0  0  0
 27 31  1  0  0  0  0
 28 27  1  0  0  0  0
 28 24  1  0  0  0  0
 29 28  2  0  0  0  0
 30 27  2  0  0  0  0
 31 32  1  0  0  0  0
 32 33  1  0  0  0  0
 33 34  1  0  0  0  0
 34 35  1  0  0  0  0
 35 36  1  0  0  0  0
 36 37  1  0  0  0  0
 37 39  1  0  0  0  0
 38 37  1  0  0  0  0
 39 42  1  0  0  0  0
 42 41  2  0  0  0  0
 42 40  1  0  0  0  0
M  END
>  <MODEL>
9

>  <REMARK>
 VINA RESULT:      -6.2      3.436      7.233
  Name = 
  16 active torsions:
  status: ('A' for Active; 'I' for Inactive)
    1  A    between atoms: C_1  and  C_23
    2  A    between atoms: C_1  and  N_26
    3  A    between atoms: O_4  and  C_19
    4  A    between atoms: O_4  and  N_26
    5  A    between atoms: C_5  and  N_25
    6  A    between atoms: C_5  and  C_39
    7  A    between atoms: C_7  and  C_9
    8  A    between atoms: C_8  and  C_28
    9  A    between atoms: C_9  and  C_27
   10  A    between atoms: C_10  and  C_36
   11  A    between atoms: C_18  and  C_31
   12  A    between atoms: C_19  and  N_25
   13  A    between atoms: C_22  and  C_28
   14  A    between atoms: C_23  and  C_31
   15  A    between atoms: C_24  and  C_41
   16  A    between atoms: C_36  and  C_41
                            x       y       z     vdW  Elec       q    Type
                         _______ _______ _______ _____ _____    ______ ____

>  <TORSDO>
F 16

$$$$
