=
 OpenBabel11062419313D

 40 43  0  0  1  0  0  0  0  0999 V2000
  194.2970  176.2620  144.1150 C   0  0  0  0  0  0  0  0  0  0  0  0
  192.0410  176.8220  143.3600 N   0  0  0  0  0  0  0  0  0  0  0  0
  193.8260  176.4500  145.4500 N   0  0  0  0  0  2  0  0  0  0  0  0
  195.5630  176.1990  143.8740 N   0  0  0  0  0  2  0  0  0  0  0  0
  191.5990  176.9280  144.5840 C   0  0  0  0  0  0  0  0  0  0  0  0
  193.3020  176.1660  142.9970 C   0  0  2  0  0  3  0  0  0  0  0  0
  192.3970  176.3810  145.7360 C   0  0  0  0  0  2  0  0  0  0  0  0
  192.4020  172.5050  143.2530 C   0  0  0  0  0  2  0  0  0  0  0  0
  193.0690  174.7740  142.6230 N   0  0  0  0  0  0  0  0  0  0  0  0
  192.7250  174.4870  141.2620 C   0  0  0  0  0  3  0  0  0  0  0  0
  192.6270  172.0790  141.8050 C   0  0  0  0  0  2  0  0  0  0  0  0
  193.3060  173.6870  143.5760 C   0  0  0  0  0  2  0  0  0  0  0  0
  192.4810  173.2340  140.8520 C   0  0  0  0  0  0  0  0  0  0  0  0
  192.1560  172.9510  139.4830 N   0  0  0  0  0  2  0  0  0  0  0  0
  188.2430  174.0090  138.1150 C   0  0  0  0  0  2  0  0  0  0  0  0
  189.2780  173.5860  137.0730 C   0  0  2  0  0  3  0  0  0  0  0  0
  190.6860  173.7040  137.6550 C   0  0  0  0  0  2  0  0  0  0  0  0
  188.3580  173.1300  139.3570 C   0  0  0  0  0  2  0  0  0  0  0  0
  190.8110  172.8540  138.9210 C   0  0  2  0  0  3  0  0  0  0  0  0
  189.7560  173.2450  139.9560 C   0  0  0  0  0  2  0  0  0  0  0  0
  190.4500  174.9190  135.7520 C   0  0  0  0  0  1  0  0  0  0  0  0
  189.1680  174.4020  135.9460 O   0  0  0  0  0  0  0  0  0  0  0  0
  190.3640  177.5250  144.8480 O   0  0  0  0  0  0  0  0  0  0  0  0
  189.7320  177.4660  146.1240 C   0  0  0  0  0  2  0  0  0  0  0  0
  188.3370  176.8620  146.0110 C   0  0  0  0  0  2  0  0  0  0  0  0
  187.3960  177.4320  147.0650 C   0  0  0  0  0  2  0  0  0  0  0  0
  185.1770  176.6550  146.3950 C   0  0  0  0  0  2  0  0  0  0  0  0
  186.0290  177.6720  146.5060 C   0  0  0  0  0  0  0  0  0  0  0  0
  185.5700  179.0710  146.2340 C   0  0  0  0  0  2  0  0  0  0  0  0
  185.7570  179.4390  144.7700 C   0  0  0  0  0  2  0  0  0  0  0  0
  184.4190  179.4480  144.0550 C   0  0  0  0  0  2  0  0  0  0  0  0
  184.3240  178.2330  143.1330 C   0  0  0  0  0  2  0  0  0  0  0  0
  183.9890  178.2640  140.7860 C   0  0  0  0  0  1  0  0  0  0  0  0
  184.9910  178.4310  141.8370 N   0  0  0  0  0  0  0  0  0  0  0  0
  188.5450  177.5040  142.2130 N   0  0  0  0  0  2  0  0  0  0  0  0
  187.2640  175.4320  142.5590 C   0  0  0  0  0  2  0  0  0  0  0  0
  188.4930  176.0760  141.9090 C   0  0  0  0  0  2  0  0  0  0  0  0
  186.0880  177.4670  141.6430 C   0  0  2  0  0  3  0  0  0  0  0  0
  186.1360  176.4420  142.7840 C   0  0  0  0  0  2  0  0  0  0  0  0
  187.4520  178.1910  141.5150 C   0  0  0  0  0  2  0  0  0  0  0  0
  1  3  1  0  0  0  0
  2  5  2  0  0  0  0
  3  7  1  0  0  0  0
  4  1  2  0  0  0  0
  5 23  1  0  0  0  0
  5  7  1  0  0  0  0
  6  9  1  1  0  0  0
  6  2  1  0  0  0  0
  6  1  1  0  0  0  0
  8 12  1  0  0  0  0
  9 12  1  0  0  0  0
 10  9  1  0  0  0  0
 11  8  1  0  0  0  0
 13 10  2  0  0  0  0
 13 11  1  0  0  0  0
 14 13  1  0  0  0  0
 15 18  1  0  0  0  0
 16 22  1  6  0  0  0
 16 17  1  0  0  0  0
 16 15  1  0  0  0  0
 17 19  1  0  0  0  0
 18 20  1  0  0  0  0
 19 14  1  1  0  0  0
 19 20  1  0  0  0  0
 21 22  1  0  0  0  0
 23 24  1  0  0  0  0
 25 24  1  0  0  0  0
 25 26  1  0  0  0  0
 27 28  2  0  0  0  0
 28 26  1  0  0  0  0
 29 28  1  0  0  0  0
 30 29  1  0  0  0  0
 31 30  1  0  0  0  0
 32 31  1  0  0  0  0
 33 34  1  0  0  0  0
 34 32  1  0  0  0  0
 36 39  1  0  0  0  0
 37 35  1  0  0  0  0
 37 36  1  0  0  0  0
 38 34  1  1  0  0  0
 38 39  1  0  0  0  0
 40 38  1  0  0  0  0
 40 35  1  0  0  0  0
M  END
>  <MODEL>
1

>  <REMARK>
 VINA RESULT:      -6.7      0.000      0.000
  Name = 
  15 active torsions:
  status: ('A' for Active; 'I' for Inactive)
    1  A    between atoms: C_2  and  C_12
    2  A    between atoms: C_2  and  C_39
    3  A    between atoms: O_4  and  C_11
    4  A    between atoms: O_4  and  C_24
    5  A    between atoms: N_9  and  C_29
    6  A    between atoms: N_10  and  C_19
    7  A    between atoms: N_10  and  C_25
    8  A    between atoms: C_11  and  C_30
    9  A    between atoms: C_12  and  C_37
   10  A    between atoms: C_15  and  O_33
   11  A    between atoms: C_19  and  C_37
   12  A    between atoms: C_27  and  C_30
   13  A    between atoms: C_27  and  C_39
   14  A    between atoms: C_32  and  N_40
   15  A    between atoms: C_35  and  N_40
                            x       y       z     vdW  Elec       q    Type
                         _______ _______ _______ _____ _____    ______ ____

>  <TORSDO>
F 15

$$$$
=
 OpenBabel11062419313D

 40 43  0  0  1  0  0  0  0  0999 V2000
  189.1780  173.7310  142.2650 C   0  0  0  0  0  0  0  0  0  0  0  0
  191.4460  173.5180  143.1500 N   0  0  0  0  0  0  0  0  0  0  0  0
  188.8770  172.5000  142.9210 N   0  0  0  0  0  2  0  0  0  0  0  0
  188.3760  174.2070  141.3730 N   0  0  0  0  0  2  0  0  0  0  0  0
  191.1470  172.4270  143.8020 C   0  0  0  0  0  0  0  0  0  0  0  0
  190.4500  174.4480  142.6070 C   0  0  2  0  0  3  0  0  0  0  0  0
  189.7120  172.0360  144.0240 C   0  0  0  0  0  2  0  0  0  0  0  0
  190.4430  177.8960  144.1550 C   0  0  0  0  0  2  0  0  0  0  0  0
  190.1980  175.5380  143.5460 N   0  0  0  0  0  0  0  0  0  0  0  0
  189.0470  175.4490  144.3950 C   0  0  0  0  0  3  0  0  0  0  0  0
  189.6530  177.6080  145.4290 C   0  0  0  0  0  2  0  0  0  0  0  0
  191.1630  176.6280  143.7120 C   0  0  0  0  0  2  0  0  0  0  0  0
  188.7460  176.4190  145.2690 C   0  0  0  0  0  0  0  0  0  0  0  0
  187.6020  176.3140  146.1300 N   0  0  0  0  0  2  0  0  0  0  0  0
  184.2830  178.9150  145.4040 C   0  0  0  0  0  2  0  0  0  0  0  0
  184.8230  178.0950  144.2330 C   0  0  2  0  0  3  0  0  0  0  0  0
  186.2400  177.6130  144.5400 C   0  0  0  0  0  2  0  0  0  0  0  0
  184.2710  178.0710  146.6750 C   0  0  0  0  0  2  0  0  0  0  0  0
  186.2530  176.7910  145.8290 C   0  0  2  0  0  3  0  0  0  0  0  0
  185.6820  177.5890  147.0010 C   0  0  0  0  0  2  0  0  0  0  0  0
  184.1230  178.1400  142.1350 C   0  0  0  0  0  1  0  0  0  0  0  0
  184.8360  178.8800  143.0800 O   0  0  0  0  0  0  0  0  0  0  0  0
  192.1520  171.6130  144.3310 O   0  0  0  0  0  0  0  0  0  0  0  0
  192.5180  170.3620  143.7560 C   0  0  0  0  0  2  0  0  0  0  0  0
  193.3690  169.5480  144.7250 C   0  0  0  0  0  2  0  0  0  0  0  0
  194.8350  169.9540  144.6550 C   0  0  0  0  0  2  0  0  0  0  0  0
  194.9710  169.1260  146.9520 C   0  0  0  0  0  2  0  0  0  0  0  0
  195.4790  169.9120  146.0040 C   0  0  0  0  0  0  0  0  0  0  0  0
  196.7820  170.6160  146.2310 C   0  0  0  0  0  2  0  0  0  0  0  0
  196.9380  171.8030  145.2930 C   0  0  0  0  0  2  0  0  0  0  0  0
  196.6140  173.0950  146.0200 C   0  0  0  0  0  2  0  0  0  0  0  0
  196.7740  174.2750  145.0620 C   0  0  0  0  0  2  0  0  0  0  0  0
  194.5030  174.6090  145.6530 C   0  0  0  0  0  1  0  0  0  0  0  0
  195.7170  175.2880  145.2040 N   0  0  0  0  0  0  0  0  0  0  0  0
  196.8000  176.2520  141.8090 N   0  0  0  0  0  2  0  0  0  0  0  0
  194.3780  175.8450  141.6570 C   0  0  0  0  0  2  0  0  0  0  0  0
  195.5470  176.7490  141.2480 C   0  0  0  0  0  2  0  0  0  0  0  0
  195.4630  175.9830  143.9310 C   0  0  2  0  0  3  0  0  0  0  0  0
  194.6570  175.1030  142.9670 C   0  0  0  0  0  2  0  0  0  0  0  0
  196.7880  176.4320  143.2650 C   0  0  0  0  0  2  0  0  0  0  0  0
  1  6  1  0  0  0  0
  1  3  1  0  0  0  0
  2  5  2  0  0  0  0
  3  7  1  0  0  0  0
  4  1  2  0  0  0  0
  5  7  1  0  0  0  0
  5 23  1  0  0  0  0
  6  2  1  0  0  0  0
  6  9  1  1  0  0  0
  8 11  1  0  0  0  0
  9 12  1  0  0  0  0
  9 10  1  0  0  0  0
 10 13  2  0  0  0  0
 12  8  1  0  0  0  0
 13 11  1  0  0  0  0
 13 14  1  0  0  0  0
 15 18  1  0  0  0  0
 16 22  1  6  0  0  0
 16 17  1  0  0  0  0
 16 15  1  0  0  0  0
 17 19  1  0  0  0  0
 18 20  1  0  0  0  0
 19 14  1  1  0  0  0
 19 20  1  0  0  0  0
 21 22  1  0  0  0  0
 24 23  1  0  0  0  0
 24 25  1  0  0  0  0
 26 25  1  0  0  0  0
 26 28  1  0  0  0  0
 28 29  1  0  0  0  0
 28 27  2  0  0  0  0
 30 31  1  0  0  0  0
 30 29  1  0  0  0  0
 32 34  1  0  0  0  0
 32 31  1  0  0  0  0
 34 33  1  0  0  0  0
 35 40  1  0  0  0  0
 36 39  1  0  0  0  0
 37 36  1  0  0  0  0
 37 35  1  0  0  0  0
 38 34  1  1  0  0  0
 39 38  1  0  0  0  0
 40 38  1  0  0  0  0
M  END
>  <MODEL>
2

>  <REMARK>
 VINA RESULT:      -6.4      3.248      9.016
  Name = 
  15 active torsions:
  status: ('A' for Active; 'I' for Inactive)
    1  A    between atoms: C_2  and  C_12
    2  A    between atoms: C_2  and  C_39
    3  A    between atoms: O_4  and  C_11
    4  A    between atoms: O_4  and  C_24
    5  A    between atoms: N_9  and  C_29
    6  A    between atoms: N_10  and  C_19
    7  A    between atoms: N_10  and  C_25
    8  A    between atoms: C_11  and  C_30
    9  A    between atoms: C_12  and  C_37
   10  A    between atoms: C_15  and  O_33
   11  A    between atoms: C_19  and  C_37
   12  A    between atoms: C_27  and  C_30
   13  A    between atoms: C_27  and  C_39
   14  A    between atoms: C_32  and  N_40
   15  A    between atoms: C_35  and  N_40
                            x       y       z     vdW  Elec       q    Type
                         _______ _______ _______ _____ _____    ______ ____

>  <TORSDO>
F 15

$$$$
=
 OpenBabel11062419313D

 40 43  0  0  1  0  0  0  0  0999 V2000
  191.0170  177.0190  143.0730 C   0  0  0  0  0  0  0  0  0  0  0  0
  192.7620  176.9390  144.7830 N   0  0  0  0  0  0  0  0  0  0  0  0
  191.7690  176.0440  142.3520 N   0  0  0  0  0  2  0  0  0  0  0  0
  190.0630  177.6650  142.4920 N   0  0  0  0  0  2  0  0  0  0  0  0
  193.4120  175.9990  144.1510 C   0  0  0  0  0  0  0  0  0  0  0  0
  191.3680  177.3000  144.5040 C   0  0  2  0  0  3  0  0  0  0  0  0
  192.7520  175.2180  143.0480 C   0  0  0  0  0  2  0  0  0  0  0  0
  190.1130  174.9250  147.1620 C   0  0  0  0  0  2  0  0  0  0  0  0
  190.4640  176.5990  145.4110 N   0  0  0  0  0  0  0  0  0  0  0  0
  189.2650  177.2670  145.8240 C   0  0  0  0  0  3  0  0  0  0  0  0
  188.6300  175.2870  147.1560 C   0  0  0  0  0  2  0  0  0  0  0  0
  190.7040  175.2030  145.7860 C   0  0  0  0  0  2  0  0  0  0  0  0
  188.3980  176.6900  146.6670 C   0  0  0  0  0  0  0  0  0  0  0  0
  187.1890  177.3570  147.0610 N   0  0  0  0  0  2  0  0  0  0  0  0
  184.2980  178.8570  144.2860 C   0  0  0  0  0  2  0  0  0  0  0  0
  185.0260  177.5600  143.9350 C   0  0  2  0  0  3  0  0  0  0  0  0
  186.3040  177.4350  144.7630 C   0  0  0  0  0  2  0  0  0  0  0  0
  183.9480  178.8760  145.7720 C   0  0  0  0  0  2  0  0  0  0  0  0
  185.9760  177.4850  146.2560 C   0  0  2  0  0  3  0  0  0  0  0  0
  185.2160  178.7630  146.6130 C   0  0  0  0  0  2  0  0  0  0  0  0
  186.2100  178.6420  142.4110 C   0  0  0  0  0  1  0  0  0  0  0  0
  185.3470  177.5580  142.5770 O   0  0  0  0  0  0  0  0  0  0  0  0
  194.7250  175.6780  144.5040 O   0  0  0  0  0  0  0  0  0  0  0  0
  195.1570  175.5610  145.8570 C   0  0  0  0  0  2  0  0  0  0  0  0
  195.9920  174.3000  146.0540 C   0  0  0  0  0  2  0  0  0  0  0  0
  195.8830  173.3670  144.8550 C   0  0  0  0  0  2  0  0  0  0  0  0
  195.8290  171.0980  145.7640 C   0  0  0  0  0  2  0  0  0  0  0  0
  195.1600  172.1060  145.2060 C   0  0  0  0  0  0  0  0  0  0  0  0
  193.6690  172.0430  145.0870 C   0  0  0  0  0  2  0  0  0  0  0  0
  193.2300  170.8340  144.2750 C   0  0  0  0  0  2  0  0  0  0  0  0
  192.7970  171.2620  142.8860 C   0  0  0  0  0  2  0  0  0  0  0  0
  191.2840  171.1010  142.7480 C   0  0  0  0  0  2  0  0  0  0  0  0
  189.6520  172.1840  144.0830 C   0  0  0  0  0  1  0  0  0  0  0  0
  190.5440  172.3570  142.9380 N   0  0  0  0  0  0  0  0  0  0  0  0
  188.6290  174.8270  140.9710 N   0  0  0  0  0  2  0  0  0  0  0  0
  189.8510  173.4570  139.3330 C   0  0  0  0  0  2  0  0  0  0  0  0
  188.5250  174.1380  139.6870 C   0  0  0  0  0  2  0  0  0  0  0  0
  189.7610  172.7080  141.7400 C   0  0  2  0  0  3  0  0  0  0  0  0
  190.6750  173.1190  140.5790 C   0  0  0  0  0  2  0  0  0  0  0  0
  188.7440  173.8360  142.0480 C   0  0  0  0  0  2  0  0  0  0  0  0
  1  6  1  0  0  0  0
  3  7  1  0  0  0  0
  3  1  1  0  0  0  0
  4  1  2  0  0  0  0
  5 23  1  0  0  0  0
  5  2  2  0  0  0  0
  6  2  1  0  0  0  0
  6  9  1  1  0  0  0
  7  5  1  0  0  0  0
  9 12  1  0  0  0  0
  9 10  1  0  0  0  0
 10 13  2  0  0  0  0
 11  8  1  0  0  0  0
 12  8  1  0  0  0  0
 13 14  1  0  0  0  0
 13 11  1  0  0  0  0
 15 18  1  0  0  0  0
 16 22  1  6  0  0  0
 16 15  1  0  0  0  0
 16 17  1  0  0  0  0
 17 19  1  0  0  0  0
 18 20  1  0  0  0  0
 19 20  1  0  0  0  0
 19 14  1  1  0  0  0
 21 22  1  0  0  0  0
 23 24  1  0  0  0  0
 24 25  1  0  0  0  0
 26 28  1  0  0  0  0
 26 25  1  0  0  0  0
 28 27  2  0  0  0  0
 29 28  1  0  0  0  0
 30 29  1  0  0  0  0
 31 30  1  0  0  0  0
 32 31  1  0  0  0  0
 32 34  1  0  0  0  0
 34 33  1  0  0  0  0
 35 40  1  0  0  0  0
 36 37  1  0  0  0  0
 36 39  1  0  0  0  0
 37 35  1  0  0  0  0
 38 40  1  0  0  0  0
 38 34  1  1  0  0  0
 39 38  1  0  0  0  0
M  END
>  <MODEL>
3

>  <REMARK>
 VINA RESULT:      -6.4      2.428      7.609
  Name = 
  15 active torsions:
  status: ('A' for Active; 'I' for Inactive)
    1  A    between atoms: C_2  and  C_12
    2  A    between atoms: C_2  and  C_39
    3  A    between atoms: O_4  and  C_11
    4  A    between atoms: O_4  and  C_24
    5  A    between atoms: N_9  and  C_29
    6  A    between atoms: N_10  and  C_19
    7  A    between atoms: N_10  and  C_25
    8  A    between atoms: C_11  and  C_30
    9  A    between atoms: C_12  and  C_37
   10  A    between atoms: C_15  and  O_33
   11  A    between atoms: C_19  and  C_37
   12  A    between atoms: C_27  and  C_30
   13  A    between atoms: C_27  and  C_39
   14  A    between atoms: C_32  and  N_40
   15  A    between atoms: C_35  and  N_40
                            x       y       z     vdW  Elec       q    Type
                         _______ _______ _______ _____ _____    ______ ____

>  <TORSDO>
F 15

$$$$
=
 OpenBabel11062419313D

 40 43  0  0  1  0  0  0  0  0999 V2000
  185.6170  178.1830  142.1170 C   0  0  0  0  0  0  0  0  0  0  0  0
  185.5120  176.8460  144.1600 N   0  0  0  0  0  0  0  0  0  0  0  0
  185.2760  179.3140  142.9170 N   0  0  0  0  0  2  0  0  0  0  0  0
  185.5420  178.2490  140.8300 N   0  0  0  0  0  2  0  0  0  0  0  0
  185.2660  177.8950  144.8980 C   0  0  0  0  0  0  0  0  0  0  0  0
  186.0370  176.9110  142.7920 C   0  0  2  0  0  3  0  0  0  0  0  0
  185.4940  179.2810  144.3600 C   0  0  0  0  0  2  0  0  0  0  0  0
  189.6990  177.7450  143.2080 C   0  0  0  0  0  2  0  0  0  0  0  0
  187.4910  176.7750  142.7920 N   0  0  0  0  0  0  0  0  0  0  0  0
  188.0490  175.4640  142.9440 C   0  0  0  0  0  3  0  0  0  0  0  0
  190.3200  176.4200  142.7720 C   0  0  0  0  0  2  0  0  0  0  0  0
  188.3560  177.9240  142.5130 C   0  0  0  0  0  2  0  0  0  0  0  0
  189.3740  175.2670  142.9690 C   0  0  0  0  0  0  0  0  0  0  0  0
  189.9260  173.9480  143.1030 N   0  0  0  0  0  2  0  0  0  0  0  0
  191.9490  171.0640  140.6740 C   0  0  0  0  0  2  0  0  0  0  0  0
  191.2660  172.2400  139.9760 C   0  0  2  0  0  3  0  0  0  0  0  0
  190.2340  172.8750  140.9070 C   0  0  0  0  0  2  0  0  0  0  0  0
  192.6370  171.5400  141.9510 C   0  0  0  0  0  2  0  0  0  0  0  0
  190.9010  173.3290  142.2060 C   0  0  2  0  0  3  0  0  0  0  0  0
  191.6180  172.1680  142.8960 C   0  0  0  0  0  2  0  0  0  0  0  0
  189.2750  172.0190  139.0360 C   0  0  0  0  0  1  0  0  0  0  0  0
  190.6340  171.7900  138.8150 O   0  0  0  0  0  0  0  0  0  0  0  0
  184.8110  177.7540  146.2110 O   0  0  0  0  0  0  0  0  0  0  0  0
  185.5670  177.1020  147.2270 C   0  0  0  0  0  2  0  0  0  0  0  0
  187.0580  177.3750  147.0540 C   0  0  0  0  0  2  0  0  0  0  0  0
  187.8150  176.1100  146.6730 C   0  0  0  0  0  2  0  0  0  0  0  0
  189.7740  177.5490  146.9370 C   0  0  0  0  0  2  0  0  0  0  0  0
  189.2950  176.3310  146.6910 C   0  0  0  0  0  0  0  0  0  0  0  0
  190.2250  175.1610  146.6000 C   0  0  0  0  0  2  0  0  0  0  0  0
  191.3830  175.2990  147.5770 C   0  0  0  0  0  2  0  0  0  0  0  0
  192.6960  174.9890  146.8840 C   0  0  0  0  0  2  0  0  0  0  0  0
  193.0500  176.1260  145.9260 C   0  0  0  0  0  2  0  0  0  0  0  0
  194.7740  177.7460  145.7800 C   0  0  0  0  0  1  0  0  0  0  0  0
  194.4990  176.3110  145.7520 N   0  0  0  0  0  0  0  0  0  0  0  0
  195.4750  173.3810  143.7280 N   0  0  0  0  0  2  0  0  0  0  0  0
  194.2950  174.9000  142.1940 C   0  0  0  0  0  2  0  0  0  0  0  0
  195.4910  173.9620  142.3880 C   0  0  0  0  0  2  0  0  0  0  0  0
  194.9660  175.7350  144.4790 C   0  0  2  0  0  3  0  0  0  0  0  0
  193.7940  175.4760  143.5220 C   0  0  0  0  0  2  0  0  0  0  0  0
  195.7630  174.4270  144.7160 C   0  0  0  0  0  2  0  0  0  0  0  0
  1  6  1  0  0  0  0
  1  3  1  0  0  0  0
  2  5  2  0  0  0  0
  3  7  1  0  0  0  0
  4  1  2  0  0  0  0
  5 23  1  0  0  0  0
  6  9  1  1  0  0  0
  6  2  1  0  0  0  0
  7  5  1  0  0  0  0
  9 10  1  0  0  0  0
 10 13  2  0  0  0  0
 11 13  1  0  0  0  0
 11  8  1  0  0  0  0
 12  9  1  0  0  0  0
 12  8  1  0  0  0  0
 13 14  1  0  0  0  0
 15 18  1  0  0  0  0
 16 22  1  6  0  0  0
 16 15  1  0  0  0  0
 16 17  1  0  0  0  0
 17 19  1  0  0  0  0
 18 20  1  0  0  0  0
 19 20  1  0  0  0  0
 19 14  1  1  0  0  0
 22 21  1  0  0  0  0
 23 24  1  0  0  0  0
 25 24  1  0  0  0  0
 26 28  1  0  0  0  0
 26 25  1  0  0  0  0
 28 27  2  0  0  0  0
 29 28  1  0  0  0  0
 29 30  1  0  0  0  0
 31 30  1  0  0  0  0
 32 31  1  0  0  0  0
 34 33  1  0  0  0  0
 34 32  1  0  0  0  0
 35 40  1  0  0  0  0
 36 37  1  0  0  0  0
 36 39  1  0  0  0  0
 37 35  1  0  0  0  0
 38 40  1  0  0  0  0
 38 34  1  1  0  0  0
 39 38  1  0  0  0  0
M  END
>  <MODEL>
4

>  <REMARK>
 VINA RESULT:      -6.4      2.139      6.823
  Name = 
  15 active torsions:
  status: ('A' for Active; 'I' for Inactive)
    1  A    between atoms: C_2  and  C_12
    2  A    between atoms: C_2  and  C_39
    3  A    between atoms: O_4  and  C_11
    4  A    between atoms: O_4  and  C_24
    5  A    between atoms: N_9  and  C_29
    6  A    between atoms: N_10  and  C_19
    7  A    between atoms: N_10  and  C_25
    8  A    between atoms: C_11  and  C_30
    9  A    between atoms: C_12  and  C_37
   10  A    between atoms: C_15  and  O_33
   11  A    between atoms: C_19  and  C_37
   12  A    between atoms: C_27  and  C_30
   13  A    between atoms: C_27  and  C_39
   14  A    between atoms: C_32  and  N_40
   15  A    between atoms: C_35  and  N_40
                            x       y       z     vdW  Elec       q    Type
                         _______ _______ _______ _____ _____    ______ ____

>  <TORSDO>
F 15

$$$$
=
 OpenBabel11062419313D

 40 43  0  0  1  0  0  0  0  0999 V2000
  184.0820  178.9410  143.4830 C   0  0  0  0  0  0  0  0  0  0  0  0
  186.4630  179.0940  142.9510 N   0  0  0  0  0  0  0  0  0  0  0  0
  183.9960  177.9100  142.5000 N   0  0  0  0  0  2  0  0  0  0  0  0
  183.0110  179.4960  143.9420 N   0  0  0  0  0  2  0  0  0  0  0  0
  186.3910  178.1060  142.1010 C   0  0  0  0  0  0  0  0  0  0  0  0
  185.4340  179.3890  143.9550 C   0  0  2  0  0  3  0  0  0  0  0  0
  185.1970  177.1920  142.0870 C   0  0  0  0  0  2  0  0  0  0  0  0
  185.1360  178.1740  147.5200 C   0  0  0  0  0  2  0  0  0  0  0  0
  185.7720  178.7710  145.2340 N   0  0  0  0  0  0  0  0  0  0  0  0
  186.7500  177.7230  145.2430 C   0  0  0  0  0  3  0  0  0  0  0  0
  186.5110  177.5330  147.6930 C   0  0  0  0  0  2  0  0  0  0  0  0
  185.2290  179.2920  146.4900 C   0  0  0  0  0  2  0  0  0  0  0  0
  187.0960  177.1000  146.3770 C   0  0  0  0  0  0  0  0  0  0  0  0
  188.0900  176.0640  146.3820 N   0  0  0  0  0  2  0  0  0  0  0  0
  192.3250  175.4780  146.5690 C   0  0  0  0  0  2  0  0  0  0  0  0
  191.8040  176.7510  145.9040 C   0  0  2  0  0  3  0  0  0  0  0  0
  190.3380  176.5770  145.5120 C   0  0  0  0  0  2  0  0  0  0  0  0
  191.4980  175.1590  147.8120 C   0  0  0  0  0  2  0  0  0  0  0  0
  189.4980  176.2250  146.7410 C   0  0  2  0  0  3  0  0  0  0  0  0
  190.0310  174.9710  147.4360 C   0  0  0  0  0  2  0  0  0  0  0  0
  191.6410  177.4870  143.8250 C   0  0  0  0  0  1  0  0  0  0  0  0
  192.5630  177.0280  144.7660 O   0  0  0  0  0  0  0  0  0  0  0  0
  187.4340  177.8590  141.2040 O   0  0  0  0  0  0  0  0  0  0  0  0
  187.8690  176.5450  140.8650 C   0  0  0  0  0  2  0  0  0  0  0  0
  188.8060  175.9910  141.9340 C   0  0  0  0  0  2  0  0  0  0  0  0
  188.1300  174.9030  142.7570 C   0  0  0  0  0  2  0  0  0  0  0  0
  188.8280  172.6610  142.0730 C   0  0  0  0  0  2  0  0  0  0  0  0
  189.0050  173.6960  142.8920 C   0  0  0  0  0  0  0  0  0  0  0  0
  190.1750  173.7240  143.8270 C   0  0  0  0  0  2  0  0  0  0  0  0
  190.3600  172.3830  144.5200 C   0  0  0  0  0  2  0  0  0  0  0  0
  191.7750  171.8750  144.3130 C   0  0  0  0  0  2  0  0  0  0  0  0
  192.5920  172.9280  143.5660 C   0  0  0  0  0  2  0  0  0  0  0  0
  194.0990  172.4460  145.3310 C   0  0  0  0  0  1  0  0  0  0  0  0
  194.0070  172.9590  143.9660 N   0  0  0  0  0  0  0  0  0  0  0  0
  196.8870  175.2670  144.0920 N   0  0  0  0  0  2  0  0  0  0  0  0
  195.3520  176.1920  142.4060 C   0  0  0  0  0  2  0  0  0  0  0  0
  196.2800  176.4960  143.5870 C   0  0  0  0  0  2  0  0  0  0  0  0
  194.5540  174.3260  143.9060 C   0  0  2  0  0  3  0  0  0  0  0  0
  194.8070  174.7610  142.4560 C   0  0  0  0  0  2  0  0  0  0  0  0
  195.8570  174.4440  144.7370 C   0  0  0  0  0  2  0  0  0  0  0  0
  1  4  2  0  0  0  0
  1  6  1  0  0  0  0
  2  6  1  0  0  0  0
  3  1  1  0  0  0  0
  5  2  2  0  0  0  0
  6  9  1  1  0  0  0
  7  5  1  0  0  0  0
  7  3  1  0  0  0  0
  8 11  1  0  0  0  0
  9 10  1  0  0  0  0
  9 12  1  0  0  0  0
 10 13  2  0  0  0  0
 12  8  1  0  0  0  0
 13 14  1  0  0  0  0
 13 11  1  0  0  0  0
 15 18  1  0  0  0  0
 16 22  1  6  0  0  0
 16 15  1  0  0  0  0
 17 16  1  0  0  0  0
 17 19  1  0  0  0  0
 19 14  1  6  0  0  0
 19 20  1  0  0  0  0
 20 18  1  0  0  0  0
 21 22  1  0  0  0  0
 23  5  1  0  0  0  0
 24 23  1  0  0  0  0
 24 25  1  0  0  0  0
 25 26  1  0  0  0  0
 26 28  1  0  0  0  0
 27 28  2  0  0  0  0
 28 29  1  0  0  0  0
 29 30  1  0  0  0  0
 31 30  1  0  0  0  0
 32 34  1  0  0  0  0
 32 31  1  0  0  0  0
 34 33  1  0  0  0  0
 35 40  1  0  0  0  0
 36 39  1  0  0  0  0
 36 37  1  0  0  0  0
 37 35  1  0  0  0  0
 38 34  1  6  0  0  0
 38 40  1  0  0  0  0
 39 38  1  0  0  0  0
M  END
>  <MODEL>
5

>  <REMARK>
 VINA RESULT:      -6.4      2.721      8.796
  Name = 
  15 active torsions:
  status: ('A' for Active; 'I' for Inactive)
    1  A    between atoms: C_2  and  C_12
    2  A    between atoms: C_2  and  C_39
    3  A    between atoms: O_4  and  C_11
    4  A    between atoms: O_4  and  C_24
    5  A    between atoms: N_9  and  C_29
    6  A    between atoms: N_10  and  C_19
    7  A    between atoms: N_10  and  C_25
    8  A    between atoms: C_11  and  C_30
    9  A    between atoms: C_12  and  C_37
   10  A    between atoms: C_15  and  O_33
   11  A    between atoms: C_19  and  C_37
   12  A    between atoms: C_27  and  C_30
   13  A    between atoms: C_27  and  C_39
   14  A    between atoms: C_32  and  N_40
   15  A    between atoms: C_35  and  N_40
                            x       y       z     vdW  Elec       q    Type
                         _______ _______ _______ _____ _____    ______ ____

>  <TORSDO>
F 15

$$$$
=
 OpenBabel11062419313D

 40 43  0  0  1  0  0  0  0  0999 V2000
  190.4430  175.5900  147.5040 C   0  0  0  0  0  0  0  0  0  0  0  0
  189.3510  177.7210  147.0130 N   0  0  0  0  0  0  0  0  0  0  0  0
  189.1470  174.9940  147.4760 N   0  0  0  0  0  2  0  0  0  0  0  0
  191.4450  174.9470  148.0010 N   0  0  0  0  0  2  0  0  0  0  0  0
  188.1760  177.1590  146.9220 C   0  0  0  0  0  0  0  0  0  0  0  0
  190.6180  176.9830  146.9740 C   0  0  2  0  0  3  0  0  0  0  0  0
  188.0480  175.6660  146.7900 C   0  0  0  0  0  2  0  0  0  0  0  0
  191.3630  178.0010  143.4120 C   0  0  0  0  0  2  0  0  0  0  0  0
  191.1590  176.9610  145.6180 N   0  0  0  0  0  0  0  0  0  0  0  0
  192.3880  176.2590  145.3900 C   0  0  0  0  0  3  0  0  0  0  0  0
  192.2660  176.8440  142.9930 C   0  0  0  0  0  2  0  0  0  0  0  0
  190.4050  177.5240  144.4960 C   0  0  0  0  0  2  0  0  0  0  0  0
  192.9500  176.2120  144.1740 C   0  0  0  0  0  0  0  0  0  0  0  0
  194.1710  175.4920  143.9480 N   0  0  0  0  0  2  0  0  0  0  0  0
  197.7320  175.5220  141.5750 C   0  0  0  0  0  2  0  0  0  0  0  0
  196.4300  175.9870  140.9240 C   0  0  2  0  0  3  0  0  0  0  0  0
  195.2320  175.4780  141.7240 C   0  0  0  0  0  2  0  0  0  0  0  0
  197.8170  176.0420  143.0080 C   0  0  0  0  0  2  0  0  0  0  0  0
  195.3170  175.9630  143.1730 C   0  0  2  0  0  3  0  0  0  0  0  0
  196.6320  175.5340  143.8240 C   0  0  0  0  0  2  0  0  0  0  0  0
  195.0010  175.2830  139.3880 C   0  0  0  0  0  1  0  0  0  0  0  0
  196.3600  175.4990  139.6180 O   0  0  0  0  0  0  0  0  0  0  0  0
  187.0130  177.9330  146.9200 O   0  0  0  0  0  0  0  0  0  0  0  0
  185.7600  177.4510  147.4000 C   0  0  0  0  0  2  0  0  0  0  0  0
  184.6070  178.0400  146.5950 C   0  0  0  0  0  2  0  0  0  0  0  0
  185.1100  178.8030  145.3770 C   0  0  0  0  0  2  0  0  0  0  0  0
  184.0980  178.5180  143.1690 C   0  0  0  0  0  2  0  0  0  0  0  0
  184.8940  178.0260  144.1170 C   0  0  0  0  0  0  0  0  0  0  0  0
  185.6980  176.7890  143.8550 C   0  0  0  0  0  2  0  0  0  0  0  0
  187.0520  177.1280  143.2500 C   0  0  0  0  0  2  0  0  0  0  0  0
  187.1220  176.6440  141.8140 C   0  0  0  0  0  2  0  0  0  0  0  0
  188.4000  175.8320  141.6100 C   0  0  0  0  0  2  0  0  0  0  0  0
  189.3170  174.3240  143.1930 C   0  0  0  0  0  1  0  0  0  0  0  0
  188.3120  174.4630  142.1410 N   0  0  0  0  0  0  0  0  0  0  0  0
  189.6070  173.5670  138.8020 N   0  0  0  0  0  2  0  0  0  0  0  0
  190.0670  171.6300  140.2480 C   0  0  0  0  0  2  0  0  0  0  0  0
  189.5810  172.1090  138.8760 C   0  0  0  0  0  2  0  0  0  0  0  0
  188.5460  173.4600  141.0880 C   0  0  2  0  0  3  0  0  0  0  0  0
  189.8470  172.6850  141.3360 C   0  0  0  0  0  2  0  0  0  0  0  0
  188.5730  174.1190  139.6850 C   0  0  0  0  0  2  0  0  0  0  0  0
  1  4  2  0  0  0  0
  3  1  1  0  0  0  0
  5  2  2  0  0  0  0
  6  9  1  6  0  0  0
  6  2  1  0  0  0  0
  6  1  1  0  0  0  0
  7  5  1  0  0  0  0
  7  3  1  0  0  0  0
  8 12  1  0  0  0  0
 10  9  1  0  0  0  0
 11  8  1  0  0  0  0
 11 13  1  0  0  0  0
 12  9  1  0  0  0  0
 13 10  2  0  0  0  0
 14 13  1  0  0  0  0
 15 18  1  0  0  0  0
 16 22  1  6  0  0  0
 16 15  1  0  0  0  0
 16 17  1  0  0  0  0
 17 19  1  0  0  0  0
 18 20  1  0  0  0  0
 19 20  1  0  0  0  0
 19 14  1  1  0  0  0
 21 22  1  0  0  0  0
 23  5  1  0  0  0  0
 23 24  1  0  0  0  0
 25 24  1  0  0  0  0
 26 25  1  0  0  0  0
 27 28  2  0  0  0  0
 28 26  1  0  0  0  0
 29 28  1  0  0  0  0
 30 29  1  0  0  0  0
 31 30  1  0  0  0  0
 32 31  1  0  0  0  0
 32 34  1  0  0  0  0
 34 33  1  0  0  0  0
 35 37  1  0  0  0  0
 35 40  1  0  0  0  0
 36 39  1  0  0  0  0
 37 36  1  0  0  0  0
 38 39  1  0  0  0  0
 38 34  1  1  0  0  0
 40 38  1  0  0  0  0
M  END
>  <MODEL>
6

>  <REMARK>
 VINA RESULT:      -6.3      2.673      5.619
  Name = 
  15 active torsions:
  status: ('A' for Active; 'I' for Inactive)
    1  A    between atoms: C_2  and  C_12
    2  A    between atoms: C_2  and  C_39
    3  A    between atoms: O_4  and  C_11
    4  A    between atoms: O_4  and  C_24
    5  A    between atoms: N_9  and  C_29
    6  A    between atoms: N_10  and  C_19
    7  A    between atoms: N_10  and  C_25
    8  A    between atoms: C_11  and  C_30
    9  A    between atoms: C_12  and  C_37
   10  A    between atoms: C_15  and  O_33
   11  A    between atoms: C_19  and  C_37
   12  A    between atoms: C_27  and  C_30
   13  A    between atoms: C_27  and  C_39
   14  A    between atoms: C_32  and  N_40
   15  A    between atoms: C_35  and  N_40
                            x       y       z     vdW  Elec       q    Type
                         _______ _______ _______ _____ _____    ______ ____

>  <TORSDO>
F 15

$$$$
=
 OpenBabel11062419313D

 40 43  0  0  1  0  0  0  0  0999 V2000
  194.2490  176.8780  145.6600 C   0  0  0  0  0  0  0  0  0  0  0  0
  192.7530  175.9420  143.9690 N   0  0  0  0  0  0  0  0  0  0  0  0
  193.6740  175.9550  146.5850 N   0  0  0  0  0  2  0  0  0  0  0  0
  194.9630  177.8650  146.0840 N   0  0  0  0  0  2  0  0  0  0  0  0
  192.2780  175.0560  144.8020 C   0  0  0  0  0  0  0  0  0  0  0  0
  193.9900  176.6980  144.1940 C   0  0  2  0  0  3  0  0  0  0  0  0
  192.9850  174.7650  146.0960 C   0  0  0  0  0  2  0  0  0  0  0  0
  196.8480  176.0510  141.8080 C   0  0  0  0  0  2  0  0  0  0  0  0
  195.1190  176.0430  143.5400 N   0  0  0  0  0  0  0  0  0  0  0  0
  195.9090  175.1260  144.3090 C   0  0  0  0  0  3  0  0  0  0  0  0
  197.3230  174.6980  142.3310 C   0  0  0  0  0  2  0  0  0  0  0  0
  195.3630  176.2130  142.1060 C   0  0  0  0  0  2  0  0  0  0  0  0
  196.9690  174.5010  143.7790 C   0  0  0  0  0  0  0  0  0  0  0  0
  197.7440  173.5700  144.5490 N   0  0  0  0  0  2  0  0  0  0  0  0
  195.5890  169.9310  145.2040 C   0  0  0  0  0  2  0  0  0  0  0  0
  196.2370  170.1470  143.8370 C   0  0  2  0  0  3  0  0  0  0  0  0
  196.5360  171.6310  143.6260 C   0  0  0  0  0  2  0  0  0  0  0  0
  196.5190  170.4270  146.3090 C   0  0  0  0  0  2  0  0  0  0  0  0
  197.4410  172.1530  144.7430 C   0  0  2  0  0  3  0  0  0  0  0  0
  196.8190  171.9110  146.1190 C   0  0  0  0  0  2  0  0  0  0  0  0
  195.9480  168.5120  142.3750 C   0  0  0  0  0  1  0  0  0  0  0  0
  195.3750  169.6980  142.8350 O   0  0  0  0  0  0  0  0  0  0  0  0
  191.1170  174.3410  144.4970 O   0  0  0  0  0  0  0  0  0  0  0  0
  190.2550  174.6860  143.4160 C   0  0  0  0  0  2  0  0  0  0  0  0
  188.9700  175.3260  143.9290 C   0  0  0  0  0  2  0  0  0  0  0  0
  189.0250  175.5580  145.4330 C   0  0  0  0  0  2  0  0  0  0  0  0
  189.8770  177.8370  145.1850 C   0  0  0  0  0  2  0  0  0  0  0  0
  189.0010  177.0170  145.7630 C   0  0  0  0  0  0  0  0  0  0  0  0
  187.8940  177.5730  146.6040 C   0  0  0  0  0  2  0  0  0  0  0  0
  186.6930  176.6400  146.6240 C   0  0  0  0  0  2  0  0  0  0  0  0
  185.5670  177.2130  145.7840 C   0  0  0  0  0  2  0  0  0  0  0  0
  185.8930  178.6580  145.4110 C   0  0  0  0  0  2  0  0  0  0  0  0
  183.8830  178.9680  144.1920 C   0  0  0  0  0  1  0  0  0  0  0  0
  185.3390  179.0630  144.1090 N   0  0  0  0  0  0  0  0  0  0  0  0
  185.6110  178.2850  140.5100 N   0  0  0  0  0  2  0  0  0  0  0  0
  187.7810  177.6810  141.4990 C   0  0  0  0  0  2  0  0  0  0  0  0
  186.6700  177.2790  140.5230 C   0  0  0  0  0  2  0  0  0  0  0  0
  185.8380  178.2040  143.0210 C   0  0  2  0  0  3  0  0  0  0  0  0
  187.2650  178.5950  142.6130 C   0  0  0  0  0  2  0  0  0  0  0  0
  184.8960  178.2560  141.7920 C   0  0  0  0  0  2  0  0  0  0  0  0
  1  4  2  0  0  0  0
  1  3  1  0  0  0  0
  2  6  1  0  0  0  0
  2  5  2  0  0  0  0
  5  7  1  0  0  0  0
  6  9  1  1  0  0  0
  6  1  1  0  0  0  0
  7  3  1  0  0  0  0
  8 12  1  0  0  0  0
  8 11  1  0  0  0  0
  9 10  1  0  0  0  0
 11 13  1  0  0  0  0
 12  9  1  0  0  0  0
 13 10  2  0  0  0  0
 13 14  1  0  0  0  0
 15 18  1  0  0  0  0
 16 22  1  6  0  0  0
 16 15  1  0  0  0  0
 17 16  1  0  0  0  0
 17 19  1  0  0  0  0
 19 14  1  6  0  0  0
 19 20  1  0  0  0  0
 20 18  1  0  0  0  0
 21 22  1  0  0  0  0
 23  5  1  0  0  0  0
 24 25  1  0  0  0  0
 24 23  1  0  0  0  0
 25 26  1  0  0  0  0
 26 28  1  0  0  0  0
 27 28  2  0  0  0  0
 28 29  1  0  0  0  0
 29 30  1  0  0  0  0
 31 30  1  0  0  0  0
 32 31  1  0  0  0  0
 34 33  1  0  0  0  0
 34 32  1  0  0  0  0
 35 37  1  0  0  0  0
 35 40  1  0  0  0  0
 36 39  1  0  0  0  0
 37 36  1  0  0  0  0
 38 34  1  1  0  0  0
 39 38  1  0  0  0  0
 40 38  1  0  0  0  0
M  END
>  <MODEL>
7

>  <REMARK>
 VINA RESULT:      -6.1      3.206      5.478
  Name = 
  15 active torsions:
  status: ('A' for Active; 'I' for Inactive)
    1  A    between atoms: C_2  and  C_12
    2  A    between atoms: C_2  and  C_39
    3  A    between atoms: O_4  and  C_11
    4  A    between atoms: O_4  and  C_24
    5  A    between atoms: N_9  and  C_29
    6  A    between atoms: N_10  and  C_19
    7  A    between atoms: N_10  and  C_25
    8  A    between atoms: C_11  and  C_30
    9  A    between atoms: C_12  and  C_37
   10  A    between atoms: C_15  and  O_33
   11  A    between atoms: C_19  and  C_37
   12  A    between atoms: C_27  and  C_30
   13  A    between atoms: C_27  and  C_39
   14  A    between atoms: C_32  and  N_40
   15  A    between atoms: C_35  and  N_40
                            x       y       z     vdW  Elec       q    Type
                         _______ _______ _______ _____ _____    ______ ____

>  <TORSDO>
F 15

$$$$
=
 OpenBabel11062419313D

 40 43  0  0  1  0  0  0  0  0999 V2000
  186.5540  177.9170  145.4140 C   0  0  0  0  0  0  0  0  0  0  0  0
  188.0880  177.3590  143.5950 N   0  0  0  0  0  0  0  0  0  0  0  0
  185.5770  177.1160  144.7480 N   0  0  0  0  0  2  0  0  0  0  0  0
  186.2020  178.7200  146.3610 N   0  0  0  0  0  2  0  0  0  0  0  0
  187.2130  176.5760  143.0250 C   0  0  0  0  0  0  0  0  0  0  0  0
  187.9870  177.8300  144.9810 C   0  0  2  0  0  3  0  0  0  0  0  0
  185.9960  176.1110  143.7770 C   0  0  0  0  0  2  0  0  0  0  0  0
  188.9020  174.9200  147.2120 C   0  0  0  0  0  2  0  0  0  0  0  0
  188.7520  176.9650  145.8750 N   0  0  0  0  0  0  0  0  0  0  0  0
  190.1820  177.0120  145.8040 C   0  0  0  0  0  3  0  0  0  0  0  0
  190.3180  175.3300  147.6080 C   0  0  0  0  0  2  0  0  0  0  0  0
  188.0840  176.1680  146.9070 C   0  0  0  0  0  2  0  0  0  0  0  0
  190.9470  176.2350  146.5830 C   0  0  0  0  0  0  0  0  0  0  0  0
  192.3790  176.3010  146.5210 N   0  0  0  0  0  2  0  0  0  0  0  0
  194.9020  173.4490  144.5680 C   0  0  0  0  0  2  0  0  0  0  0  0
  195.5560  174.4670  145.5000 C   0  0  2  0  0  3  0  0  0  0  0  0
  194.6190  175.6530  145.7230 C   0  0  0  0  0  2  0  0  0  0  0  0
  193.5870  172.9560  145.1680 C   0  0  0  0  0  2  0  0  0  0  0  0
  193.2830  175.1740  146.2940 C   0  0  2  0  0  3  0  0  0  0  0  0
  192.6360  174.1280  145.3860 C   0  0  0  0  0  2  0  0  0  0  0  0
  197.6610  173.8790  145.1560 C   0  0  0  0  0  1  0  0  0  0  0  0
  196.7520  174.9160  144.9380 O   0  0  0  0  0  0  0  0  0  0  0  0
  187.4010  176.1300  141.7150 O   0  0  0  0  0  0  0  0  0  0  0  0
  188.5250  175.3500  141.3150 C   0  0  0  0  0  2  0  0  0  0  0  0
  189.1340  174.6230  142.5090 C   0  0  0  0  0  2  0  0  0  0  0  0
  188.8210  173.1330  142.4730 C   0  0  0  0  0  2  0  0  0  0  0  0
  189.6510  172.3250  144.6260 C   0  0  0  0  0  2  0  0  0  0  0  0
  189.7900  172.3500  143.3020 C   0  0  0  0  0  0  0  0  0  0  0  0
  190.8000  171.4680  142.6350 C   0  0  0  0  0  2  0  0  0  0  0  0
  190.4640  171.2560  141.1660 C   0  0  0  0  0  2  0  0  0  0  0  0
  191.7120  170.8800  140.3900 C   0  0  0  0  0  2  0  0  0  0  0  0
  192.2790  172.1200  139.7020 C   0  0  0  0  0  2  0  0  0  0  0  0
  194.2420  171.1650  140.6260 C   0  0  0  0  0  1  0  0  0  0  0  0
  193.6860  172.3840  140.0420 N   0  0  0  0  0  0  0  0  0  0  0  0
  194.7820  175.8210  140.8270 N   0  0  0  0  0  2  0  0  0  0  0  0
  192.6650  175.4920  142.0370 C   0  0  0  0  0  2  0  0  0  0  0  0
  194.0920  176.0500  142.0930 C   0  0  0  0  0  2  0  0  0  0  0  0
  193.8100  173.4990  140.9960 C   0  0  2  0  0  3  0  0  0  0  0  0
  192.5340  174.3510  141.0250 C   0  0  0  0  0  2  0  0  0  0  0  0
  195.0380  174.3850  140.6640 C   0  0  0  0  0  2  0  0  0  0  0  0
  1  4  2  0  0  0  0
  2  6  1  0  0  0  0
  3  1  1  0  0  0  0
  5  2  2  0  0  0  0
  5  7  1  0  0  0  0
  6  1  1  0  0  0  0
  6  9  1  1  0  0  0
  7  3  1  0  0  0  0
  8 11  1  0  0  0  0
  9 12  1  0  0  0  0
 10  9  1  0  0  0  0
 10 13  2  0  0  0  0
 12  8  1  0  0  0  0
 13 11  1  0  0  0  0
 14 13  1  0  0  0  0
 15 18  1  0  0  0  0
 15 16  1  0  0  0  0
 16 22  1  6  0  0  0
 16 17  1  0  0  0  0
 17 19  1  0  0  0  0
 18 20  1  0  0  0  0
 19 14  1  6  0  0  0
 20 19  1  0  0  0  0
 22 21  1  0  0  0  0
 23  5  1  0  0  0  0
 24 23  1  0  0  0  0
 24 25  1  0  0  0  0
 26 25  1  0  0  0  0
 26 28  1  0  0  0  0
 28 27  2  0  0  0  0
 29 28  1  0  0  0  0
 30 29  1  0  0  0  0
 31 30  1  0  0  0  0
 32 34  1  0  0  0  0
 32 31  1  0  0  0  0
 34 33  1  0  0  0  0
 35 37  1  0  0  0  0
 36 37  1  0  0  0  0
 38 34  1  6  0  0  0
 38 39  1  0  0  0  0
 39 36  1  0  0  0  0
 40 35  1  0  0  0  0
 40 38  1  0  0  0  0
M  END
>  <MODEL>
8

>  <REMARK>
 VINA RESULT:      -6.1      2.630      8.074
  Name = 
  15 active torsions:
  status: ('A' for Active; 'I' for Inactive)
    1  A    between atoms: C_2  and  C_12
    2  A    between atoms: C_2  and  C_39
    3  A    between atoms: O_4  and  C_11
    4  A    between atoms: O_4  and  C_24
    5  A    between atoms: N_9  and  C_29
    6  A    between atoms: N_10  and  C_19
    7  A    between atoms: N_10  and  C_25
    8  A    between atoms: C_11  and  C_30
    9  A    between atoms: C_12  and  C_37
   10  A    between atoms: C_15  and  O_33
   11  A    between atoms: C_19  and  C_37
   12  A    between atoms: C_27  and  C_30
   13  A    between atoms: C_27  and  C_39
   14  A    between atoms: C_32  and  N_40
   15  A    between atoms: C_35  and  N_40
                            x       y       z     vdW  Elec       q    Type
                         _______ _______ _______ _____ _____    ______ ____

>  <TORSDO>
F 15

$$$$
=
 OpenBabel11062419313D

 40 43  0  0  1  0  0  0  0  0999 V2000
  190.1400  171.6140  139.4170 C   0  0  0  0  0  0  0  0  0  0  0  0
  189.6590  173.1830  141.2290 N   0  0  0  0  0  0  0  0  0  0  0  0
  189.2780  172.4000  138.5960 N   0  0  0  0  0  2  0  0  0  0  0  0
  190.5050  170.4360  139.0390 N   0  0  0  0  0  2  0  0  0  0  0  0
  188.9240  173.9350  140.4550 C   0  0  0  0  0  0  0  0  0  0  0  0
  190.5950  172.1660  140.7360 C   0  0  2  0  0  3  0  0  0  0  0  0
  188.9810  173.7820  138.9600 C   0  0  0  0  0  2  0  0  0  0  0  0
  193.4340  174.5410  139.9720 C   0  0  0  0  0  2  0  0  0  0  0  0
  191.9440  172.7160  140.6350 N   0  0  0  0  0  0  0  0  0  0  0  0
  192.9320  172.2630  141.5710 C   0  0  0  0  0  3  0  0  0  0  0  0
  194.6100  173.7160  140.4880 C   0  0  0  0  0  2  0  0  0  0  0  0
  192.3170  173.6040  139.5310 C   0  0  0  0  0  2  0  0  0  0  0  0
  194.1850  172.7360  141.5470 C   0  0  0  0  0  0  0  0  0  0  0  0
  195.1740  172.2650  142.4740 N   0  0  0  0  0  2  0  0  0  0  0  0
  196.4560  174.1040  146.1190 C   0  0  0  0  0  2  0  0  0  0  0  0
  195.0760  174.4720  145.5740 C   0  0  2  0  0  3  0  0  0  0  0  0
  194.9840  174.1130  144.0920 C   0  0  0  0  0  2  0  0  0  0  0  0
  196.7110  172.6100  145.9380 C   0  0  0  0  0  2  0  0  0  0  0  0
  195.2690  172.6240  143.8880 C   0  0  2  0  0  3  0  0  0  0  0  0
  196.6330  172.2370  144.4600 C   0  0  0  0  0  2  0  0  0  0  0  0
  195.3190  176.4200  144.5550 C   0  0  0  0  0  1  0  0  0  0  0  0
  194.8590  175.8410  145.7380 O   0  0  0  0  0  0  0  0  0  0  0  0
  188.0890  174.9150  140.9960 O   0  0  0  0  0  0  0  0  0  0  0  0
  187.8180  175.0190  142.3920 C   0  0  0  0  0  2  0  0  0  0  0  0
  187.3880  176.4350  142.7580 C   0  0  0  0  0  2  0  0  0  0  0  0
  186.0930  176.4340  143.5590 C   0  0  0  0  0  2  0  0  0  0  0  0
  186.1060  178.6750  144.5370 C   0  0  0  0  0  2  0  0  0  0  0  0
  186.1740  177.3590  144.7320 C   0  0  0  0  0  0  0  0  0  0  0  0
  186.1600  176.8040  146.1230 C   0  0  0  0  0  2  0  0  0  0  0  0
  187.4600  177.1090  146.8520 C   0  0  0  0  0  2  0  0  0  0  0  0
  188.1860  175.8210  147.1920 C   0  0  0  0  0  2  0  0  0  0  0  0
  188.9390  175.3180  145.9620 C   0  0  0  0  0  2  0  0  0  0  0  0
  190.6790  175.5910  147.5480 C   0  0  0  0  0  1  0  0  0  0  0  0
  190.3760  175.1130  146.2010 N   0  0  0  0  0  0  0  0  0  0  0  0
  191.4220  175.6840  142.7060 N   0  0  0  0  0  2  0  0  0  0  0  0
  191.3910  177.9000  143.7740 C   0  0  0  0  0  2  0  0  0  0  0  0
  192.1400  176.9490  142.8350 C   0  0  0  0  0  2  0  0  0  0  0  0
  191.1950  175.8370  145.2140 C   0  0  2  0  0  3  0  0  0  0  0  0
  190.5190  177.1450  144.7810 C   0  0  0  0  0  2  0  0  0  0  0  0
  191.4920  174.9520  143.9770 C   0  0  0  0  0  2  0  0  0  0  0  0
  1  6  1  0  0  0  0
  3  7  1  0  0  0  0
  3  1  1  0  0  0  0
  4  1  2  0  0  0  0
  5 23  1  0  0  0  0
  5  2  2  0  0  0  0
  6  9  1  6  0  0  0
  6  2  1  0  0  0  0
  7  5  1  0  0  0  0
  8 11  1  0  0  0  0
  9 10  1  0  0  0  0
 11 13  1  0  0  0  0
 12  8  1  0  0  0  0
 12  9  1  0  0  0  0
 13 10  2  0  0  0  0
 13 14  1  0  0  0  0
 16 22  1  6  0  0  0
 16 15  1  0  0  0  0
 17 16  1  0  0  0  0
 18 15  1  0  0  0  0
 19 14  1  6  0  0  0
 19 17  1  0  0  0  0
 19 20  1  0  0  0  0
 20 18  1  0  0  0  0
 21 22  1  0  0  0  0
 23 24  1  0  0  0  0
 24 25  1  0  0  0  0
 25 26  1  0  0  0  0
 26 28  1  0  0  0  0
 27 28  2  0  0  0  0
 28 29  1  0  0  0  0
 29 30  1  0  0  0  0
 30 31  1  0  0  0  0
 32 34  1  0  0  0  0
 32 31  1  0  0  0  0
 34 33  1  0  0  0  0
 35 37  1  0  0  0  0
 35 40  1  0  0  0  0
 36 39  1  0  0  0  0
 37 36  1  0  0  0  0
 38 34  1  1  0  0  0
 39 38  1  0  0  0  0
 40 38  1  0  0  0  0
M  END
>  <MODEL>
9

>  <REMARK>
 VINA RESULT:      -6.1      2.460      6.522
  Name = 
  15 active torsions:
  status: ('A' for Active; 'I' for Inactive)
    1  A    between atoms: C_2  and  C_12
    2  A    between atoms: C_2  and  C_39
    3  A    between atoms: O_4  and  C_11
    4  A    between atoms: O_4  and  C_24
    5  A    between atoms: N_9  and  C_29
    6  A    between atoms: N_10  and  C_19
    7  A    between atoms: N_10  and  C_25
    8  A    between atoms: C_11  and  C_30
    9  A    between atoms: C_12  and  C_37
   10  A    between atoms: C_15  and  O_33
   11  A    between atoms: C_19  and  C_37
   12  A    between atoms: C_27  and  C_30
   13  A    between atoms: C_27  and  C_39
   14  A    between atoms: C_32  and  N_40
   15  A    between atoms: C_35  and  N_40
                            x       y       z     vdW  Elec       q    Type
                         _______ _______ _______ _____ _____    ______ ____

>  <TORSDO>
F 15

$$$$
