=
 OpenBabel11062421383D

 52 57  0  0  1  0  0  0  0  0999 V2000
  194.5260  176.1380  144.9620 C   0  0  0  0  0  0  0  0  0  0  0  0
  195.1860  174.8630  144.8760 C   0  0  0  0  0  0  0  0  0  0  0  0
  193.1270  176.0400  144.4510 C   0  0  1  0  0  3  0  0  0  0  0  0
  195.0600  177.1920  145.3940 O   0  0  0  0  0  0  0  0  0  0  0  0
  193.0950  174.6170  143.8610 C   0  0  2  0  0  3  0  0  0  0  0  0
  196.4580  174.5650  145.4440 N   0  0  0  0  0  1  0  0  0  0  0  0
  194.3900  173.9790  144.3030 C   0  0  0  0  0  0  0  0  0  0  0  0
  193.0520  174.6980  142.3450 C   0  0  0  0  0  1  0  0  0  0  0  0
  194.0940  171.8020  145.3970 C   0  0  0  0  0  2  0  0  0  0  0  0
  194.7290  172.5170  144.2180 C   0  0  1  0  0  3  0  0  0  0  0  0
  193.5020  171.6420  144.0090 C   0  0  1  0  0  3  0  0  0  0  0  0
  193.8390  170.2890  143.3320 C   0  0  0  0  0  0  0  0  0  0  0  0
  192.6280  169.3810  143.4840 C   0  0  0  0  0  1  0  0  0  0  0  0
  195.0150  169.5400  143.9760 C   0  0  0  0  0  1  0  0  0  0  0  0
  195.3030  170.6280  141.4490 O   0  0  0  0  0  0  0  0  0  0  0  0
  194.1130  170.5190  141.8550 C   0  0  0  0  0  0  0  0  0  0  0  0
  193.0240  170.6420  140.8630 C   0  0  0  0  0  0  0  0  0  0  0  0
  192.2440  171.6310  140.9200 O   0  0  0  0  0  0  0  0  0  0  0  0
  192.8580  169.6610  139.8370 N   0  0  0  0  0  2  0  0  0  0  0  0
  190.3540  169.9730  139.0460 O   0  0  0  0  0  0  0  0  0  0  0  0
  191.7580  169.8630  138.5170 S   0  0  0  0  0  0  0  0  0  0  0  0
  191.8570  168.6940  137.5770 O   0  0  0  0  0  0  0  0  0  0  0  0
  192.1740  171.3490  137.6370 C   0  0  0  0  0  2  0  0  0  0  0  0
  191.4770  173.6860  138.0490 C   0  0  2  0  0  3  0  0  0  0  0  0
  191.0680  172.2900  137.7290 N   0  0  0  0  0  0  0  0  0  0  0  0
  191.2850  173.2770  136.6600 C   0  0  0  0  0  2  0  0  0  0  0  0
  193.2650  173.9360  138.3840 S   0  0  0  0  0  0  0  0  0  0  0  0
  193.3660  175.2890  137.1830 C   0  0  0  0  0  1  0  0  0  0  0  0
  192.6740  176.6190  146.7610 O   0  0  0  0  0  1  0  0  0  0  0  0
  192.1080  176.1120  145.5920 C   0  0  1  0  0  3  0  0  0  0  0  0
  190.8780  176.9320  145.1800 C   0  0  1  0  0  3  0  0  0  0  0  0
  190.9360  177.2680  143.7610 N   0  0  0  0  0  0  0  0  0  0  0  0
  189.8980  178.2360  143.4990 C   0  0  2  0  0  3  0  0  0  0  0  0
  189.6030  178.2430  142.1380 O   0  0  0  0  0  1  0  0  0  0  0  0
  191.1840  178.6280  143.6820 O   0  0  0  0  0  0  0  0  0  0  0  0
  189.5490  176.2620  145.5920 C   0  0  2  0  0  3  0  0  0  0  0  0
  188.8660  176.8730  146.8330 C   0  0  1  0  0  3  0  0  0  0  0  0
  189.6930  177.8130  147.4560 O   0  0  0  0  0  1  0  0  0  0  0  0
  185.7770  176.7500  144.9530 C   0  0  0  0  0  2  0  0  0  0  0  0
  187.1810  177.3230  145.0240 C   0  0  0  0  0  2  0  0  0  0  0  0
  185.1870  176.8580  146.3450 C   0  0  1  0  0  3  0  0  0  0  0  0
  187.5130  177.5020  146.4900 C   0  0  1  0  0  3  0  0  0  0  0  0
  186.3710  176.8930  147.2830 C   0  0  0  0  0  2  0  0  0  0  0  0
  184.4710  178.0520  146.4550 O   0  0  0  0  0  1  0  0  0  0  0  0
  189.7980  174.7760  145.7990 C   0  0  0  0  0  2  0  0  0  0  0  0
  188.6610  173.7440  142.3110 C   0  0  0  0  0  0  0  0  0  0  0  0
  189.7490  172.5440  144.6820 C   0  0  0  0  0  2  0  0  0  0  0  0
  189.7070  171.8100  143.3710 C   0  0  0  0  0  3  0  0  0  0  0  0
  188.7220  174.5470  143.5780 C   0  0  0  0  0  2  0  0  0  0  0  0
  189.1750  172.3640  142.2800 C   0  0  0  0  0  3  0  0  0  0  0  0
  188.1420  174.2420  141.2790 O   0  0  0  0  0  0  0  0  0  0  0  0
  189.8630  174.0570  144.4680 C   0  0  1  0  0  3  0  0  0  0  0  0
  1  4  2  0  0  0  0
  2  1  1  0  0  0  0
  2  6  1  0  0  0  0
  3  1  1  0  0  0  0
  3 30  1  1  0  0  0
  5  8  1  6  0  0  0
  5  7  1  0  0  0  0
  5  3  1  0  0  0  0
  7  2  2  0  0  0  0
 10  7  1  1  0  0  0
 10  9  1  0  0  0  0
 11 12  1  6  0  0  0
 11 10  1  0  0  0  0
 11  9  1  0  0  0  0
 12 13  1  0  0  0  0
 12 14  1  0  0  0  0
 15 16  2  0  0  0  0
 16 12  1  0  0  0  0
 17 18  2  0  0  0  0
 17 16  1  0  0  0  0
 19 17  1  0  0  0  0
 21 20  2  0  0  0  0
 21 19  1  0  0  0  0
 22 21  2  0  0  0  0
 23 25  1  0  0  0  0
 23 21  1  0  0  0  0
 24 27  1  6  0  0  0
 25 24  1  0  0  0  0
 26 25  1  0  0  0  0
 26 24  1  0  0  0  0
 28 27  1  0  0  0  0
 30 29  1  1  0  0  0
 31 30  1  6  0  0  0
 31 36  1  0  0  0  0
 32 31  1  0  0  0  0
 33 34  1  6  0  0  0
 33 35  1  0  0  0  0
 33 32  1  0  0  0  0
 35 32  1  0  0  0  0
 36 45  1  1  0  0  0
 36 37  1  0  0  0  0
 37 38  1  6  0  0  0
 39 40  1  0  0  0  0
 39 41  1  0  0  0  0
 40 42  1  0  0  0  0
 41 44  1  6  0  0  0
 41 43  1  0  0  0  0
 42 37  1  1  0  0  0
 42 43  1  0  0  0  0
 46 49  1  0  0  0  0
 48 47  1  0  0  0  0
 49 52  1  0  0  0  0
 50 46  1  0  0  0  0
 50 48  2  0  0  0  0
 51 46  2  0  0  0  0
 52 47  1  0  0  0  0
 52 45  1  1  0  0  0
M  END
>  <MODEL>
1

>  <REMARK>
 VINA RESULT:      -6.6      0.000      0.000
  Name = 
  16 active torsions:
  status: ('A' for Active; 'I' for Inactive)
    1  A    between atoms: N_1  and  C_11
    2  A    between atoms: C_3  and  C_20
    3  A    between atoms: C_9  and  C_29
    4  A    between atoms: C_9  and  C_52
    5  A    between atoms: C_11  and  C_42
    6  A    between atoms: C_11  and  C_52
    7  A    between atoms: C_12  and  C_45
    8  A    between atoms: C_16  and  C_42
    9  A    between atoms: C_20  and  C_23
   10  A    between atoms: C_21  and  S_46
   11  A    between atoms: C_23  and  C_34
   12  A    between atoms: S_28  and  C_43
   13  A    between atoms: S_28  and  N_47
   14  A    between atoms: N_35  and  C_43
   15  A    between atoms: C_37  and  C_48
   16  A    between atoms: C_37  and  C_52
                            x       y       z     vdW  Elec       q    Type
                         _______ _______ _______ _____ _____    ______ ____

>  <TORSDO>
F 16

$$$$
=
 OpenBabel11062421383D

 52 57  0  0  1  0  0  0  0  0999 V2000
  190.9940  172.2270  141.4200 C   0  0  0  0  0  0  0  0  0  0  0  0
  189.9840  172.7030  142.3270 C   0  0  0  0  0  0  0  0  0  0  0  0
  192.3330  172.7710  141.7930 C   0  0  1  0  0  3  0  0  0  0  0  0
  190.7750  171.4690  140.4390 O   0  0  0  0  0  0  0  0  0  0  0  0
  191.9750  173.7860  142.8970 C   0  0  2  0  0  3  0  0  0  0  0  0
  188.6380  172.2330  142.3660 N   0  0  0  0  0  1  0  0  0  0  0  0
  190.5140  173.5440  143.1940 C   0  0  0  0  0  0  0  0  0  0  0  0
  192.1660  175.1960  142.3680 C   0  0  0  0  0  1  0  0  0  0  0  0
  189.6870  173.0130  145.4430 C   0  0  0  0  0  2  0  0  0  0  0  0
  189.7510  174.0860  144.3710 C   0  0  1  0  0  3  0  0  0  0  0  0
  190.6100  174.2050  145.6210 C   0  0  1  0  0  3  0  0  0  0  0  0
  190.0770  175.2700  146.6140 C   0  0  0  0  0  0  0  0  0  0  0  0
  191.0640  175.3610  147.7680 C   0  0  0  0  0  1  0  0  0  0  0  0
  188.7200  174.9210  147.2420 C   0  0  0  0  0  1  0  0  0  0  0  0
  191.0590  177.2280  145.6090 O   0  0  0  0  0  0  0  0  0  0  0  0
  189.9970  176.6150  145.9130 C   0  0  0  0  0  0  0  0  0  0  0  0
  188.7060  177.2560  145.5840 C   0  0  0  0  0  0  0  0  0  0  0  0
  188.6450  178.0680  144.6220 O   0  0  0  0  0  0  0  0  0  0  0  0
  187.5300  176.9510  146.3370 N   0  0  0  0  0  2  0  0  0  0  0  0
  185.8370  178.9680  146.0850 O   0  0  0  0  0  0  0  0  0  0  0  0
  185.9530  177.4840  145.8650 S   0  0  0  0  0  0  0  0  0  0  0  0
  184.9020  176.7690  146.6690 O   0  0  0  0  0  0  0  0  0  0  0  0
  185.7090  177.1230  144.1430 C   0  0  0  0  0  2  0  0  0  0  0  0
  185.8850  178.5390  142.1230 C   0  0  2  0  0  3  0  0  0  0  0  0
  185.2580  178.3240  143.4570 N   0  0  0  0  0  0  0  0  0  0  0  0
  184.5920  177.8650  142.2290 C   0  0  0  0  0  2  0  0  0  0  0  0
  187.1810  177.3290  141.6470 S   0  0  0  0  0  0  0  0  0  0  0  0
  186.6240  177.3120  139.9230 C   0  0  0  0  0  1  0  0  0  0  0  0
  192.7350  170.4080  142.1530 O   0  0  0  0  0  1  0  0  0  0  0  0
  193.2260  171.6880  142.4050 C   0  0  1  0  0  3  0  0  0  0  0  0
  194.6720  171.8260  141.9130 C   0  0  1  0  0  3  0  0  0  0  0  0
  194.7360  172.6900  140.7380 N   0  0  0  0  0  0  0  0  0  0  0  0
  195.8220  172.2230  139.9120 C   0  0  2  0  0  3  0  0  0  0  0  0
  196.2220  173.2420  139.0520 O   0  0  0  0  0  1  0  0  0  0  0  0
  194.5390  171.8780  139.6330 O   0  0  0  0  0  0  0  0  0  0  0  0
  195.6470  172.2510  143.0340 C   0  0  2  0  0  3  0  0  0  0  0  0
  196.6430  171.1620  143.4820 C   0  0  1  0  0  3  0  0  0  0  0  0
  197.9410  171.6720  143.5820 O   0  0  0  0  0  1  0  0  0  0  0  0
  196.2250  168.1700  145.4720 C   0  0  0  0  0  2  0  0  0  0  0  0
  195.5420  169.1830  144.5710 C   0  0  0  0  0  2  0  0  0  0  0  0
  197.1030  168.9520  146.4270 C   0  0  1  0  0  3  0  0  0  0  0  0
  196.2250  170.5140  144.8050 C   0  0  1  0  0  3  0  0  0  0  0  0
  197.4050  170.2540  145.7230 C   0  0  0  0  0  2  0  0  0  0  0  0
  196.3960  169.2110  147.6040 O   0  0  0  0  0  1  0  0  0  0  0  0
  194.8340  172.7500  144.2190 C   0  0  0  0  0  2  0  0  0  0  0  0
  194.5710  176.1900  145.8390 C   0  0  0  0  0  0  0  0  0  0  0  0
  195.4890  175.0110  143.3870 C   0  0  0  0  0  2  0  0  0  0  0  0
  195.8390  176.4230  143.7670 C   0  0  0  0  0  3  0  0  0  0  0  0
  194.2310  174.7580  145.5410 C   0  0  0  0  0  2  0  0  0  0  0  0
  195.3860  176.9730  144.8940 C   0  0  0  0  0  3  0  0  0  0  0  0
  194.1340  176.7320  146.8870 O   0  0  0  0  0  0  0  0  0  0  0  0
  195.2860  174.1370  144.6280 C   0  0  1  0  0  3  0  0  0  0  0  0
  1  3  1  0  0  0  0
  1  2  1  0  0  0  0
  2  6  1  0  0  0  0
  2  7  2  0  0  0  0
  3 30  1  1  0  0  0
  3  5  1  0  0  0  0
  4  1  2  0  0  0  0
  5  8  1  6  0  0  0
  5  7  1  0  0  0  0
  9 11  1  0  0  0  0
 10  7  1  6  0  0  0
 10  9  1  0  0  0  0
 10 11  1  0  0  0  0
 11 12  1  1  0  0  0
 12 14  1  0  0  0  0
 12 13  1  0  0  0  0
 15 16  2  0  0  0  0
 16 12  1  0  0  0  0
 17 16  1  0  0  0  0
 17 19  1  0  0  0  0
 18 17  2  0  0  0  0
 21 20  2  0  0  0  0
 21 19  1  0  0  0  0
 21 22  2  0  0  0  0
 23 21  1  0  0  0  0
 24 27  1  1  0  0  0
 24 26  1  0  0  0  0
 24 25  1  0  0  0  0
 25 23  1  0  0  0  0
 26 25  1  0  0  0  0
 28 27  1  0  0  0  0
 30 29  1  6  0  0  0
 31 30  1  1  0  0  0
 31 36  1  0  0  0  0
 32 31  1  0  0  0  0
 33 34  1  6  0  0  0
 33 32  1  0  0  0  0
 35 33  1  0  0  0  0
 35 32  1  0  0  0  0
 36 37  1  0  0  0  0
 36 45  1  1  0  0  0
 37 38  1  1  0  0  0
 39 41  1  0  0  0  0
 40 42  1  0  0  0  0
 40 39  1  0  0  0  0
 41 44  1  1  0  0  0
 42 37  1  6  0  0  0
 42 43  1  0  0  0  0
 43 41  1  0  0  0  0
 46 51  2  0  0  0  0
 47 48  1  0  0  0  0
 47 52  1  0  0  0  0
 48 50  2  0  0  0  0
 49 46  1  0  0  0  0
 50 46  1  0  0  0  0
 52 45  1  6  0  0  0
 52 49  1  0  0  0  0
M  END
>  <MODEL>
2

>  <REMARK>
 VINA RESULT:      -6.4      3.117      8.859
  Name = 
  16 active torsions:
  status: ('A' for Active; 'I' for Inactive)
    1  A    between atoms: N_1  and  C_11
    2  A    between atoms: C_3  and  C_20
    3  A    between atoms: C_9  and  C_29
    4  A    between atoms: C_9  and  C_52
    5  A    between atoms: C_11  and  C_42
    6  A    between atoms: C_11  and  C_52
    7  A    between atoms: C_12  and  C_45
    8  A    between atoms: C_16  and  C_42
    9  A    between atoms: C_20  and  C_23
   10  A    between atoms: C_21  and  S_46
   11  A    between atoms: C_23  and  C_34
   12  A    between atoms: S_28  and  C_43
   13  A    between atoms: S_28  and  N_47
   14  A    between atoms: N_35  and  C_43
   15  A    between atoms: C_37  and  C_48
   16  A    between atoms: C_37  and  C_52
                            x       y       z     vdW  Elec       q    Type
                         _______ _______ _______ _____ _____    ______ ____

>  <TORSDO>
F 16

$$$$
=
 OpenBabel11062421383D

 52 57  0  0  1  0  0  0  0  0999 V2000
  190.1760  175.0540  146.0580 C   0  0  0  0  0  0  0  0  0  0  0  0
  190.9770  174.2240  145.1980 C   0  0  0  0  0  0  0  0  0  0  0  0
  190.7540  176.4270  146.1490 C   0  0  1  0  0  3  0  0  0  0  0  0
  189.1400  174.6690  146.6610 O   0  0  0  0  0  0  0  0  0  0  0  0
  192.0990  176.2630  145.4140 C   0  0  2  0  0  3  0  0  0  0  0  0
  190.6090  172.9210  144.7510 N   0  0  0  0  0  1  0  0  0  0  0  0
  192.0390  174.8910  144.7860 C   0  0  0  0  0  0  0  0  0  0  0  0
  193.2350  176.3190  146.4200 C   0  0  0  0  0  1  0  0  0  0  0  0
  192.5050  174.8060  142.3790 C   0  0  0  0  0  2  0  0  0  0  0  0
  192.9820  174.3520  143.7470 C   0  0  1  0  0  3  0  0  0  0  0  0
  193.7260  175.4530  143.0050 C   0  0  1  0  0  3  0  0  0  0  0  0
  195.0730  174.9690  142.4090 C   0  0  0  0  0  0  0  0  0  0  0  0
  194.8880  173.5290  141.9570 C   0  0  0  0  0  1  0  0  0  0  0  0
  196.2350  174.9540  143.4120 C   0  0  0  0  0  1  0  0  0  0  0  0
  195.7030  177.0520  141.3740 O   0  0  0  0  0  0  0  0  0  0  0  0
  195.4300  175.8310  141.2090 C   0  0  0  0  0  0  0  0  0  0  0  0
  195.4530  175.2920  139.8330 C   0  0  0  0  0  0  0  0  0  0  0  0
  196.5340  174.8490  139.3590 O   0  0  0  0  0  0  0  0  0  0  0  0
  194.2610  175.2580  139.0440 N   0  0  0  0  0  2  0  0  0  0  0  0
  194.7630  173.0610  137.6590 O   0  0  0  0  0  0  0  0  0  0  0  0
  194.1680  174.4360  137.5240 S   0  0  0  0  0  0  0  0  0  0  0  0
  194.9120  175.2100  136.4710 O   0  0  0  0  0  0  0  0  0  0  0  0
  192.4640  174.2960  137.0430 C   0  0  0  0  0  2  0  0  0  0  0  0
  191.7630  172.6700  135.3160 C   0  0  2  0  0  3  0  0  0  0  0  0
  192.3860  173.9870  135.6240 N   0  0  0  0  0  0  0  0  0  0  0  0
  190.9540  173.8870  135.3070 C   0  0  0  0  0  2  0  0  0  0  0  0
  191.3210  171.6380  136.7690 S   0  0  0  0  0  0  0  0  0  0  0  0
  189.6050  171.4730  136.2120 C   0  0  0  0  0  1  0  0  0  0  0  0
  190.6180  178.0250  144.3320 O   0  0  0  0  0  1  0  0  0  0  0  0
  189.9060  177.4440  145.3800 C   0  0  1  0  0  3  0  0  0  0  0  0
  188.6070  176.8050  144.8720 C   0  0  1  0  0  3  0  0  0  0  0  0
  187.4440  177.4980  145.4170 N   0  0  0  0  0  0  0  0  0  0  0  0
  186.7720  176.5860  146.3100 C   0  0  2  0  0  3  0  0  0  0  0  0
  185.4540  177.0000  146.4890 O   0  0  0  0  0  1  0  0  0  0  0  0
  187.6100  177.5380  146.7910 O   0  0  0  0  0  0  0  0  0  0  0  0
  188.5690  176.6730  143.3330 C   0  0  2  0  0  3  0  0  0  0  0  0
  187.8920  177.8440  142.5930 C   0  0  1  0  0  3  0  0  0  0  0  0
  188.7500  178.4090  141.6440 O   0  0  0  0  0  1  0  0  0  0  0  0
  184.3630  178.4300  142.0500 C   0  0  0  0  0  2  0  0  0  0  0  0
  185.3980  177.6600  142.8500 C   0  0  0  0  0  2  0  0  0  0  0  0
  184.8080  178.3920  140.6020 C   0  0  1  0  0  3  0  0  0  0  0  0
  186.5780  177.4190  141.9310 C   0  0  1  0  0  3  0  0  0  0  0  0
  186.3030  178.1780  140.6450 C   0  0  0  0  0  2  0  0  0  0  0  0
  184.2000  177.3120  139.9570 O   0  0  0  0  0  1  0  0  0  0  0  0
  187.8950  175.3570  142.9760 C   0  0  0  0  0  2  0  0  0  0  0  0
  189.0850  173.8430  139.6870 C   0  0  0  0  0  0  0  0  0  0  0  0
  188.6800  173.0530  142.4180 C   0  0  0  0  0  2  0  0  0  0  0  0
  189.4660  172.2060  141.4560 C   0  0  0  0  0  3  0  0  0  0  0  0
  188.3340  174.7570  140.6110 C   0  0  0  0  0  2  0  0  0  0  0  0
  189.6270  172.5660  140.1820 C   0  0  0  0  0  3  0  0  0  0  0  0
  189.2270  174.1560  138.4760 O   0  0  0  0  0  0  0  0  0  0  0  0
  188.7780  174.5390  142.0560 C   0  0  1  0  0  3  0  0  0  0  0  0
  1  3  1  0  0  0  0
  1  4  2  0  0  0  0
  2  1  1  0  0  0  0
  3 30  1  6  0  0  0
  5  3  1  0  0  0  0
  5  8  1  1  0  0  0
  6  2  1  0  0  0  0
  7  2  2  0  0  0  0
  7  5  1  0  0  0  0
  9 11  1  0  0  0  0
  9 10  1  0  0  0  0
 10  7  1  1  0  0  0
 11 12  1  6  0  0  0
 11 10  1  0  0  0  0
 12 14  1  0  0  0  0
 13 12  1  0  0  0  0
 16 15  2  0  0  0  0
 16 12  1  0  0  0  0
 17 16  1  0  0  0  0
 18 17  2  0  0  0  0
 19 17  1  0  0  0  0
 21 20  2  0  0  0  0
 21 19  1  0  0  0  0
 22 21  2  0  0  0  0
 23 21  1  0  0  0  0
 24 25  1  0  0  0  0
 24 27  1  1  0  0  0
 25 23  1  0  0  0  0
 26 24  1  0  0  0  0
 26 25  1  0  0  0  0
 28 27  1  0  0  0  0
 30 29  1  6  0  0  0
 31 36  1  6  0  0  0
 31 30  1  0  0  0  0
 31 32  1  0  0  0  0
 32 33  1  0  0  0  0
 32 35  1  0  0  0  0
 33 34  1  1  0  0  0
 33 35  1  0  0  0  0
 36 45  1  1  0  0  0
 37 38  1  6  0  0  0
 37 36  1  0  0  0  0
 39 40  1  0  0  0  0
 41 44  1  6  0  0  0
 41 43  1  0  0  0  0
 41 39  1  0  0  0  0
 42 37  1  1  0  0  0
 42 40  1  0  0  0  0
 43 42  1  0  0  0  0
 46 50  1  0  0  0  0
 46 49  1  0  0  0  0
 48 47  1  0  0  0  0
 49 52  1  0  0  0  0
 50 48  2  0  0  0  0
 51 46  2  0  0  0  0
 52 47  1  0  0  0  0
 52 45  1  1  0  0  0
M  END
>  <MODEL>
3

>  <REMARK>
 VINA RESULT:      -6.4      2.770      4.470
  Name = 
  16 active torsions:
  status: ('A' for Active; 'I' for Inactive)
    1  A    between atoms: N_1  and  C_11
    2  A    between atoms: C_3  and  C_20
    3  A    between atoms: C_9  and  C_29
    4  A    between atoms: C_9  and  C_52
    5  A    between atoms: C_11  and  C_42
    6  A    between atoms: C_11  and  C_52
    7  A    between atoms: C_12  and  C_45
    8  A    between atoms: C_16  and  C_42
    9  A    between atoms: C_20  and  C_23
   10  A    between atoms: C_21  and  S_46
   11  A    between atoms: C_23  and  C_34
   12  A    between atoms: S_28  and  C_43
   13  A    between atoms: S_28  and  N_47
   14  A    between atoms: N_35  and  C_43
   15  A    between atoms: C_37  and  C_48
   16  A    between atoms: C_37  and  C_52
                            x       y       z     vdW  Elec       q    Type
                         _______ _______ _______ _____ _____    ______ ____

>  <TORSDO>
F 16

$$$$
=
 OpenBabel11062421383D

 52 57  0  0  1  0  0  0  0  0999 V2000
  191.3870  172.5920  143.4070 C   0  0  0  0  0  0  0  0  0  0  0  0
  191.7990  171.9720  142.1750 C   0  0  0  0  0  0  0  0  0  0  0  0
  190.9420  173.9950  143.1650 C   0  0  1  0  0  3  0  0  0  0  0  0
  191.4140  172.0310  144.5330 O   0  0  0  0  0  0  0  0  0  0  0  0
  191.3280  174.2100  141.6880 C   0  0  2  0  0  3  0  0  0  0  0  0
  192.1040  170.5880  142.0220 N   0  0  0  0  0  1  0  0  0  0  0  0
  191.7330  172.8440  141.1860 C   0  0  0  0  0  0  0  0  0  0  0  0
  192.5100  175.1590  141.6070 C   0  0  0  0  0  1  0  0  0  0  0  0
  190.5840  172.2630  139.0970 C   0  0  0  0  0  2  0  0  0  0  0  0
  191.9420  172.4570  139.7480 C   0  0  1  0  0  3  0  0  0  0  0  0
  191.4040  173.4990  138.7780 C   0  0  1  0  0  3  0  0  0  0  0  0
  192.1070  173.4500  137.3970 C   0  0  0  0  0  0  0  0  0  0  0  0
  191.0460  173.6610  136.3290 C   0  0  0  0  0  1  0  0  0  0  0  0
  192.7710  172.1030  137.0770 C   0  0  0  0  0  1  0  0  0  0  0  0
  192.7930  175.6970  136.8610 O   0  0  0  0  0  0  0  0  0  0  0  0
  193.1330  174.5690  137.3140 C   0  0  0  0  0  0  0  0  0  0  0  0
  194.5380  174.3800  137.7310 C   0  0  0  0  0  0  0  0  0  0  0  0
  195.4340  174.2650  136.8510 O   0  0  0  0  0  0  0  0  0  0  0  0
  194.8880  174.3410  139.1160 N   0  0  0  0  0  2  0  0  0  0  0  0
  197.2310  175.5690  139.1250 O   0  0  0  0  0  0  0  0  0  0  0  0
  196.5290  174.3540  139.6680 S   0  0  0  0  0  0  0  0  0  0  0  0
  197.2390  173.1100  139.2110 O   0  0  0  0  0  0  0  0  0  0  0  0
  196.5450  174.4100  141.4430 C   0  0  0  0  0  2  0  0  0  0  0  0
  196.6620  172.9570  143.4410 C   0  0  2  0  0  3  0  0  0  0  0  0
  196.4520  173.0570  141.9700 N   0  0  0  0  0  0  0  0  0  0  0  0
  195.3100  173.0590  142.8970 C   0  0  0  0  0  2  0  0  0  0  0  0
  197.1120  174.5210  144.2910 S   0  0  0  0  0  0  0  0  0  0  0  0
  196.5770  173.8770  145.8970 C   0  0  0  0  0  1  0  0  0  0  0  0
  188.9670  173.7270  144.5450 O   0  0  0  0  0  1  0  0  0  0  0  0
  189.4220  174.1300  143.2900 C   0  0  1  0  0  3  0  0  0  0  0  0
  188.9690  175.5620  142.9780 C   0  0  1  0  0  3  0  0  0  0  0  0
  187.8000  175.5540  142.1050 N   0  0  0  0  0  0  0  0  0  0  0  0
  188.0370  176.5060  141.0480 C   0  0  2  0  0  3  0  0  0  0  0  0
  186.8230  176.8760  140.4750 O   0  0  0  0  0  1  0  0  0  0  0  0
  188.2420  175.1790  140.8470 O   0  0  0  0  0  0  0  0  0  0  0  0
  188.7710  176.4160  144.2500 C   0  0  2  0  0  3  0  0  0  0  0  0
  187.3340  176.9300  144.4760 C   0  0  1  0  0  3  0  0  0  0  0  0
  186.4510  175.8750  144.7250 O   0  0  0  0  0  1  0  0  0  0  0  0
  185.3330  178.8890  146.7670 C   0  0  0  0  0  2  0  0  0  0  0  0
  186.0750  178.8780  145.4430 C   0  0  0  0  0  2  0  0  0  0  0  0
  186.2320  178.2090  147.7800 C   0  0  1  0  0  3  0  0  0  0  0  0
  187.2660  177.9570  145.6100 C   0  0  1  0  0  3  0  0  0  0  0  0
  187.1370  177.3070  146.9750 C   0  0  0  0  0  2  0  0  0  0  0  0
  187.0000  179.1720  148.4400 O   0  0  0  0  0  1  0  0  0  0  0  0
  189.7510  177.5780  144.2100 C   0  0  0  0  0  2  0  0  0  0  0  0
  193.2710  176.7360  145.4070 C   0  0  0  0  0  0  0  0  0  0  0  0
  190.5460  176.1730  146.1150 C   0  0  0  0  0  2  0  0  0  0  0  0
  191.6860  175.8720  147.0480 C   0  0  0  0  0  3  0  0  0  0  0  0
  192.1740  177.1070  144.4520 C   0  0  0  0  0  2  0  0  0  0  0  0
  192.9510  176.1110  146.7020 C   0  0  0  0  0  3  0  0  0  0  0  0
  194.4720  176.9340  145.0860 O   0  0  0  0  0  0  0  0  0  0  0  0
  190.8710  177.3640  145.2080 C   0  0  1  0  0  3  0  0  0  0  0  0
  1  4  2  0  0  0  0
  2  1  1  0  0  0  0
  3 30  1  6  0  0  0
  3  1  1  0  0  0  0
  5  8  1  1  0  0  0
  5  3  1  0  0  0  0
  6  2  1  0  0  0  0
  7  5  1  0  0  0  0
  7  2  2  0  0  0  0
  9 10  1  0  0  0  0
 10  7  1  1  0  0  0
 11 12  1  6  0  0  0
 11  9  1  0  0  0  0
 11 10  1  0  0  0  0
 13 12  1  0  0  0  0
 14 12  1  0  0  0  0
 15 16  2  0  0  0  0
 16 12  1  0  0  0  0
 16 17  1  0  0  0  0
 17 19  1  0  0  0  0
 18 17  2  0  0  0  0
 19 21  1  0  0  0  0
 20 21  2  0  0  0  0
 21 23  1  0  0  0  0
 22 21  2  0  0  0  0
 23 25  1  0  0  0  0
 24 27  1  1  0  0  0
 25 26  1  0  0  0  0
 25 24  1  0  0  0  0
 26 24  1  0  0  0  0
 27 28  1  0  0  0  0
 30 29  1  1  0  0  0
 31 30  1  1  0  0  0
 31 36  1  0  0  0  0
 32 31  1  0  0  0  0
 33 34  1  6  0  0  0
 33 32  1  0  0  0  0
 35 33  1  0  0  0  0
 35 32  1  0  0  0  0
 36 45  1  6  0  0  0
 36 37  1  0  0  0  0
 37 38  1  1  0  0  0
 39 41  1  0  0  0  0
 40 42  1  0  0  0  0
 40 39  1  0  0  0  0
 41 44  1  6  0  0  0
 42 37  1  6  0  0  0
 42 43  1  0  0  0  0
 43 41  1  0  0  0  0
 46 50  1  0  0  0  0
 47 48  1  0  0  0  0
 49 52  1  0  0  0  0
 49 46  1  0  0  0  0
 50 48  2  0  0  0  0
 51 46  2  0  0  0  0
 52 45  1  6  0  0  0
 52 47  1  0  0  0  0
M  END
>  <MODEL>
4

>  <REMARK>
 VINA RESULT:      -6.3      2.757      5.529
  Name = 
  16 active torsions:
  status: ('A' for Active; 'I' for Inactive)
    1  A    between atoms: N_1  and  C_11
    2  A    between atoms: C_3  and  C_20
    3  A    between atoms: C_9  and  C_29
    4  A    between atoms: C_9  and  C_52
    5  A    between atoms: C_11  and  C_42
    6  A    between atoms: C_11  and  C_52
    7  A    between atoms: C_12  and  C_45
    8  A    between atoms: C_16  and  C_42
    9  A    between atoms: C_20  and  C_23
   10  A    between atoms: C_21  and  S_46
   11  A    between atoms: C_23  and  C_34
   12  A    between atoms: S_28  and  C_43
   13  A    between atoms: S_28  and  N_47
   14  A    between atoms: N_35  and  C_43
   15  A    between atoms: C_37  and  C_48
   16  A    between atoms: C_37  and  C_52
                            x       y       z     vdW  Elec       q    Type
                         _______ _______ _______ _____ _____    ______ ____

>  <TORSDO>
F 16

$$$$
=
 OpenBabel11062421383D

 52 57  0  0  1  0  0  0  0  0999 V2000
  190.1460  173.0020  141.0860 C   0  0  0  0  0  0  0  0  0  0  0  0
  189.5420  173.1020  142.3880 C   0  0  0  0  0  0  0  0  0  0  0  0
  191.5220  173.5800  141.1000 C   0  0  1  0  0  3  0  0  0  0  0  0
  189.5840  172.5080  140.0730 O   0  0  0  0  0  0  0  0  0  0  0  0
  191.5910  174.2210  142.5000 C   0  0  2  0  0  3  0  0  0  0  0  0
  188.3130  172.4860  142.7650 N   0  0  0  0  0  1  0  0  0  0  0  0
  190.3490  173.7420  143.2130 C   0  0  0  0  0  0  0  0  0  0  0  0
  191.5570  175.7330  142.3660 C   0  0  0  0  0  1  0  0  0  0  0  0
  191.3860  173.7230  145.4370 C   0  0  0  0  0  2  0  0  0  0  0  0
  190.0740  173.8630  144.6860 C   0  0  1  0  0  3  0  0  0  0  0  0
  190.7340  175.0870  145.3060 C   0  0  1  0  0  3  0  0  0  0  0  0
  190.0140  175.5680  146.5920 C   0  0  0  0  0  0  0  0  0  0  0  0
  191.0750  175.7990  147.6570 C   0  0  0  0  0  1  0  0  0  0  0  0
  189.0330  174.5450  147.1830 C   0  0  0  0  0  1  0  0  0  0  0  0
  188.7630  177.5180  147.2550 O   0  0  0  0  0  0  0  0  0  0  0  0
  189.2950  176.8760  146.3070 C   0  0  0  0  0  0  0  0  0  0  0  0
  189.1740  177.4250  144.9400 C   0  0  0  0  0  0  0  0  0  0  0  0
  190.0270  178.2570  144.5300 O   0  0  0  0  0  0  0  0  0  0  0  0
  188.1090  177.0110  144.0800 N   0  0  0  0  0  2  0  0  0  0  0  0
  188.0430  176.1840  141.5690 O   0  0  0  0  0  0  0  0  0  0  0  0
  188.0410  177.4350  142.4040 S   0  0  0  0  0  0  0  0  0  0  0  0
  189.2220  178.2910  142.0380 O   0  0  0  0  0  0  0  0  0  0  0  0
  186.5480  178.3480  142.0960 C   0  0  0  0  0  2  0  0  0  0  0  0
  184.4500  177.9150  143.3310 C   0  0  2  0  0  3  0  0  0  0  0  0
  185.4010  177.4710  142.2740 N   0  0  0  0  0  0  0  0  0  0  0  0
  184.2190  178.2770  141.9350 C   0  0  0  0  0  2  0  0  0  0  0  0
  184.9540  179.4000  144.2850 S   0  0  0  0  0  0  0  0  0  0  0  0
  184.2640  178.7290  145.8190 C   0  0  0  0  0  1  0  0  0  0  0  0
  192.9510  172.2150  139.6980 O   0  0  0  0  0  1  0  0  0  0  0  0
  192.5900  172.4860  141.0170 C   0  0  1  0  0  3  0  0  0  0  0  0
  193.8200  172.8540  141.8560 C   0  0  1  0  0  3  0  0  0  0  0  0
  194.4180  171.6600  142.4440 N   0  0  0  0  0  0  0  0  0  0  0  0
  193.9910  171.5900  143.8200 C   0  0  2  0  0  3  0  0  0  0  0  0
  194.8640  170.7750  144.5360 O   0  0  0  0  0  1  0  0  0  0  0  0
  193.3730  170.8530  142.8630 O   0  0  0  0  0  0  0  0  0  0  0  0
  194.8350  173.7220  141.0800 C   0  0  2  0  0  3  0  0  0  0  0  0
  196.1190  172.9910  140.6390 C   0  0  1  0  0  3  0  0  0  0  0  0
  195.8250  171.7460  140.0730 O   0  0  0  0  0  1  0  0  0  0  0  0
  197.7720  173.2930  137.4340 C   0  0  0  0  0  2  0  0  0  0  0  0
  197.9410  172.9720  138.9080 C   0  0  0  0  0  2  0  0  0  0  0  0
  196.8960  174.5270  137.3510 C   0  0  1  0  0  3  0  0  0  0  0  0
  196.9510  173.8310  139.6660 C   0  0  1  0  0  3  0  0  0  0  0  0
  196.0950  174.5400  138.6320 C   0  0  0  0  0  2  0  0  0  0  0  0
  197.7020  175.6670  137.2940 O   0  0  0  0  0  1  0  0  0  0  0  0
  195.1790  174.9380  141.9270 C   0  0  0  0  0  2  0  0  0  0  0  0
  194.9480  175.4400  145.6980 C   0  0  0  0  0  0  0  0  0  0  0  0
  196.7110  174.2450  143.7730 C   0  0  0  0  0  2  0  0  0  0  0  0
  196.8390  173.9670  145.2440 C   0  0  0  0  0  3  0  0  0  0  0  0
  194.7360  175.7180  144.2380 C   0  0  0  0  0  2  0  0  0  0  0  0
  196.0340  174.5460  146.1360 C   0  0  0  0  0  3  0  0  0  0  0  0
  194.2120  175.9970  146.5540 O   0  0  0  0  0  0  0  0  0  0  0  0
  195.2610  174.5600  143.3920 C   0  0  1  0  0  3  0  0  0  0  0  0
  1  3  1  0  0  0  0
  1  2  1  0  0  0  0
  2  6  1  0  0  0  0
  2  7  2  0  0  0  0
  3 30  1  1  0  0  0
  3  5  1  0  0  0  0
  4  1  2  0  0  0  0
  5  8  1  6  0  0  0
  5  7  1  0  0  0  0
 10  7  1  6  0  0  0
 10 11  1  0  0  0  0
 10  9  1  0  0  0  0
 11  9  1  0  0  0  0
 11 12  1  1  0  0  0
 12 14  1  0  0  0  0
 12 13  1  0  0  0  0
 16 12  1  0  0  0  0
 16 15  2  0  0  0  0
 17 16  1  0  0  0  0
 18 17  2  0  0  0  0
 19 17  1  0  0  0  0
 20 21  2  0  0  0  0
 21 19  1  0  0  0  0
 22 21  2  0  0  0  0
 23 25  1  0  0  0  0
 23 21  1  0  0  0  0
 24 27  1  1  0  0  0
 25 24  1  0  0  0  0
 26 25  1  0  0  0  0
 26 24  1  0  0  0  0
 27 28  1  0  0  0  0
 30 29  1  6  0  0  0
 31 30  1  6  0  0  0
 31 32  1  0  0  0  0
 32 35  1  0  0  0  0
 32 33  1  0  0  0  0
 33 34  1  1  0  0  0
 35 33  1  0  0  0  0
 36 31  1  0  0  0  0
 36 45  1  1  0  0  0
 37 38  1  6  0  0  0
 37 36  1  0  0  0  0
 39 40  1  0  0  0  0
 40 42  1  0  0  0  0
 41 44  1  1  0  0  0
 41 39  1  0  0  0  0
 41 43  1  0  0  0  0
 42 37  1  1  0  0  0
 43 42  1  0  0  0  0
 46 50  1  0  0  0  0
 46 51  2  0  0  0  0
 47 48  1  0  0  0  0
 48 50  2  0  0  0  0
 49 46  1  0  0  0  0
 52 45  1  6  0  0  0
 52 47  1  0  0  0  0
 52 49  1  0  0  0  0
M  END
>  <MODEL>
5

>  <REMARK>
 VINA RESULT:      -6.2      3.306      8.995
  Name = 
  16 active torsions:
  status: ('A' for Active; 'I' for Inactive)
    1  A    between atoms: N_1  and  C_11
    2  A    between atoms: C_3  and  C_20
    3  A    between atoms: C_9  and  C_29
    4  A    between atoms: C_9  and  C_52
    5  A    between atoms: C_11  and  C_42
    6  A    between atoms: C_11  and  C_52
    7  A    between atoms: C_12  and  C_45
    8  A    between atoms: C_16  and  C_42
    9  A    between atoms: C_20  and  C_23
   10  A    between atoms: C_21  and  S_46
   11  A    between atoms: C_23  and  C_34
   12  A    between atoms: S_28  and  C_43
   13  A    between atoms: S_28  and  N_47
   14  A    between atoms: N_35  and  C_43
   15  A    between atoms: C_37  and  C_48
   16  A    between atoms: C_37  and  C_52
                            x       y       z     vdW  Elec       q    Type
                         _______ _______ _______ _____ _____    ______ ____

>  <TORSDO>
F 16

$$$$
=
 OpenBabel11062421383D

 52 57  0  0  1  0  0  0  0  0999 V2000
  191.5690  174.0860  144.2750 C   0  0  0  0  0  0  0  0  0  0  0  0
  190.3880  174.2820  145.0730 C   0  0  0  0  0  0  0  0  0  0  0  0
  192.4050  175.3230  144.2630 C   0  0  1  0  0  3  0  0  0  0  0  0
  191.8490  173.0240  143.6620 O   0  0  0  0  0  0  0  0  0  0  0  0
  191.4900  176.3420  144.9700 C   0  0  2  0  0  3  0  0  0  0  0  0
  189.4750  173.2520  145.4430 N   0  0  0  0  0  1  0  0  0  0  0  0
  190.3400  175.5260  145.5130 C   0  0  0  0  0  0  0  0  0  0  0  0
  190.9740  177.3480  143.9570 C   0  0  0  0  0  1  0  0  0  0  0  0
  189.6540  177.4180  146.9180 C   0  0  0  0  0  2  0  0  0  0  0  0
  189.3140  175.9960  146.5070 C   0  0  1  0  0  3  0  0  0  0  0  0
  188.4850  177.1600  145.9850 C   0  0  1  0  0  3  0  0  0  0  0  0
  187.0980  177.2620  146.6690 C   0  0  0  0  0  0  0  0  0  0  0  0
  187.0930  178.5200  147.5230 C   0  0  0  0  0  1  0  0  0  0  0  0
  186.7810  176.1010  147.6230 C   0  0  0  0  0  1  0  0  0  0  0  0
  184.8190  177.1140  145.9020 O   0  0  0  0  0  0  0  0  0  0  0  0
  186.0180  177.3720  145.6060 C   0  0  0  0  0  0  0  0  0  0  0  0
  186.3240  177.7560  144.2110 C   0  0  0  0  0  0  0  0  0  0  0  0
  186.3290  178.9760  143.8930 O   0  0  0  0  0  0  0  0  0  0  0  0
  186.6260  176.7610  143.2310 N   0  0  0  0  0  2  0  0  0  0  0  0
  188.3250  178.1600  141.7640 O   0  0  0  0  0  0  0  0  0  0  0  0
  187.2140  177.1520  141.6510 S   0  0  0  0  0  0  0  0  0  0  0  0
  186.1030  177.7140  140.8090 O   0  0  0  0  0  0  0  0  0  0  0  0
  187.8350  175.6760  140.8800 C   0  0  0  0  0  2  0  0  0  0  0  0
  188.8200  173.4730  141.4200 C   0  0  2  0  0  3  0  0  0  0  0  0
  188.5030  174.8550  141.8770 N   0  0  0  0  0  0  0  0  0  0  0  0
  189.8230  174.5300  141.3170 C   0  0  0  0  0  2  0  0  0  0  0  0
  188.2100  173.0270  139.7470 S   0  0  0  0  0  0  0  0  0  0  0  0
  189.8910  173.0020  139.0710 C   0  0  0  0  0  1  0  0  0  0  0  0
  193.4890  174.2330  146.1370 O   0  0  0  0  0  1  0  0  0  0  0  0
  193.6730  175.1500  145.1020 C   0  0  1  0  0  3  0  0  0  0  0  0
  194.8650  174.7510  144.2230 C   0  0  1  0  0  3  0  0  0  0  0  0
  195.9840  175.6650  144.4260 N   0  0  0  0  0  0  0  0  0  0  0  0
  195.9930  176.5960  143.3250 C   0  0  2  0  0  3  0  0  0  0  0  0
  197.2580  177.1690  143.2130 O   0  0  0  0  0  1  0  0  0  0  0  0
  195.4490  176.9380  144.5200 O   0  0  0  0  0  0  0  0  0  0  0  0
  195.2560  173.2650  144.3860 C   0  0  2  0  0  3  0  0  0  0  0  0
  196.5830  173.0160  145.1320 C   0  0  1  0  0  3  0  0  0  0  0  0
  196.8090  173.9940  146.1060 O   0  0  0  0  0  1  0  0  0  0  0  0
  195.4250  169.5880  145.1670 C   0  0  0  0  0  2  0  0  0  0  0  0
  195.2630  170.9730  145.7670 C   0  0  0  0  0  2  0  0  0  0  0  0
  196.9140  169.3200  145.0750 C   0  0  1  0  0  3  0  0  0  0  0  0
  196.6320  171.6210  145.7620 C   0  0  1  0  0  3  0  0  0  0  0  0
  197.5660  170.6820  145.0210 C   0  0  0  0  0  2  0  0  0  0  0  0
  197.3370  168.6460  146.2240 O   0  0  0  0  0  1  0  0  0  0  0  0
  195.2910  172.6200  143.0090 C   0  0  0  0  0  2  0  0  0  0  0  0
  194.1660  174.3010  139.7780 C   0  0  0  0  0  0  0  0  0  0  0  0
  196.6000  173.7070  141.1820 C   0  0  0  0  0  2  0  0  0  0  0  0
  196.5640  174.6760  140.0330 C   0  0  0  0  0  3  0  0  0  0  0  0
  194.1270  173.3630  140.9500 C   0  0  0  0  0  2  0  0  0  0  0  0
  195.4350  174.9260  139.3680 C   0  0  0  0  0  3  0  0  0  0  0  0
  193.1150  174.5310  139.1260 O   0  0  0  0  0  0  0  0  0  0  0  0
  195.2600  173.6770  141.9250 C   0  0  1  0  0  3  0  0  0  0  0  0
  1  2  1  0  0  0  0
  2  6  1  0  0  0  0
  2  7  2  0  0  0  0
  3  1  1  0  0  0  0
  3  5  1  0  0  0  0
  3 30  1  1  0  0  0
  4  1  2  0  0  0  0
  5  8  1  6  0  0  0
  5  7  1  0  0  0  0
 10  7  1  6  0  0  0
 10  9  1  0  0  0  0
 11 10  1  0  0  0  0
 11 12  1  1  0  0  0
 11  9  1  0  0  0  0
 12 13  1  0  0  0  0
 12 14  1  0  0  0  0
 16 15  2  0  0  0  0
 16 12  1  0  0  0  0
 17 16  1  0  0  0  0
 18 17  2  0  0  0  0
 19 17  1  0  0  0  0
 21 20  2  0  0  0  0
 21 19  1  0  0  0  0
 22 21  2  0  0  0  0
 23 21  1  0  0  0  0
 23 25  1  0  0  0  0
 24 27  1  6  0  0  0
 24 25  1  0  0  0  0
 26 24  1  0  0  0  0
 26 25  1  0  0  0  0
 28 27  1  0  0  0  0
 30 29  1  1  0  0  0
 31 36  1  1  0  0  0
 31 32  1  0  0  0  0
 31 30  1  0  0  0  0
 32 35  1  0  0  0  0
 33 34  1  1  0  0  0
 33 32  1  0  0  0  0
 33 35  1  0  0  0  0
 36 45  1  6  0  0  0
 36 37  1  0  0  0  0
 37 38  1  1  0  0  0
 39 40  1  0  0  0  0
 41 39  1  0  0  0  0
 41 44  1  1  0  0  0
 42 37  1  6  0  0  0
 42 40  1  0  0  0  0
 43 41  1  0  0  0  0
 43 42  1  0  0  0  0
 46 49  1  0  0  0  0
 47 52  1  0  0  0  0
 48 47  1  0  0  0  0
 49 52  1  0  0  0  0
 50 46  1  0  0  0  0
 50 48  2  0  0  0  0
 51 46  2  0  0  0  0
 52 45  1  1  0  0  0
M  END
>  <MODEL>
6

>  <REMARK>
 VINA RESULT:      -6.2      2.866      8.161
  Name = 
  16 active torsions:
  status: ('A' for Active; 'I' for Inactive)
    1  A    between atoms: N_1  and  C_11
    2  A    between atoms: C_3  and  C_20
    3  A    between atoms: C_9  and  C_29
    4  A    between atoms: C_9  and  C_52
    5  A    between atoms: C_11  and  C_42
    6  A    between atoms: C_11  and  C_52
    7  A    between atoms: C_12  and  C_45
    8  A    between atoms: C_16  and  C_42
    9  A    between atoms: C_20  and  C_23
   10  A    between atoms: C_21  and  S_46
   11  A    between atoms: C_23  and  C_34
   12  A    between atoms: S_28  and  C_43
   13  A    between atoms: S_28  and  N_47
   14  A    between atoms: N_35  and  C_43
   15  A    between atoms: C_37  and  C_48
   16  A    between atoms: C_37  and  C_52
                            x       y       z     vdW  Elec       q    Type
                         _______ _______ _______ _____ _____    ______ ____

>  <TORSDO>
F 16

$$$$
=
 OpenBabel11062421383D

 52 57  0  0  1  0  0  0  0  0999 V2000
  189.7850  172.6890  141.5160 C   0  0  0  0  0  0  0  0  0  0  0  0
  190.5360  171.4620  141.4890 C   0  0  0  0  0  0  0  0  0  0  0  0
  189.9760  173.3920  142.8190 C   0  0  1  0  0  3  0  0  0  0  0  0
  189.0580  173.1030  140.5760 O   0  0  0  0  0  0  0  0  0  0  0  0
  190.7560  172.3470  143.6410 C   0  0  2  0  0  3  0  0  0  0  0  0
  190.7210  170.6460  140.3350 N   0  0  0  0  0  1  0  0  0  0  0  0
  191.1280  171.2670  142.6530 C   0  0  0  0  0  0  0  0  0  0  0  0
  189.8530  171.7730  144.7170 C   0  0  0  0  0  1  0  0  0  0  0  0
  193.4450  170.5570  142.2710 C   0  0  0  0  0  2  0  0  0  0  0  0
  192.1160  170.1580  142.8860 C   0  0  1  0  0  3  0  0  0  0  0  0
  193.2720  170.5830  143.7790 C   0  0  1  0  0  3  0  0  0  0  0  0
  193.9350  169.3870  144.5100 C   0  0  0  0  0  0  0  0  0  0  0  0
  194.9460  168.7650  143.5590 C   0  0  0  0  0  1  0  0  0  0  0  0
  192.9590  168.2630  144.8870 C   0  0  0  0  0  1  0  0  0  0  0  0
  194.4530  169.3300  146.8620 O   0  0  0  0  0  0  0  0  0  0  0  0
  194.6540  169.8910  145.7490 C   0  0  0  0  0  0  0  0  0  0  0  0
  195.5810  171.0420  145.7080 C   0  0  0  0  0  0  0  0  0  0  0  0
  196.8210  170.8350  145.6100 O   0  0  0  0  0  0  0  0  0  0  0  0
  195.0820  172.3810  145.7630 N   0  0  0  0  0  2  0  0  0  0  0  0
  197.1940  173.7900  146.5040 O   0  0  0  0  0  0  0  0  0  0  0  0
  196.0840  173.7650  145.4880 S   0  0  0  0  0  0  0  0  0  0  0  0
  195.2690  175.0240  145.5950 O   0  0  0  0  0  0  0  0  0  0  0  0
  196.7810  173.6630  143.8570 C   0  0  0  0  0  2  0  0  0  0  0  0
  195.8140  174.1620  141.6360 C   0  0  2  0  0  3  0  0  0  0  0  0
  195.7260  173.3750  142.8990 N   0  0  0  0  0  0  0  0  0  0  0  0
  196.3960  172.8240  141.7110 C   0  0  0  0  0  2  0  0  0  0  0  0
  197.1500  175.4190  141.5720 S   0  0  0  0  0  0  0  0  0  0  0  0
  195.9590  176.7690  141.3670 C   0  0  0  0  0  1  0  0  0  0  0  0
  191.1280  174.9100  141.3210 O   0  0  0  0  0  1  0  0  0  0  0  0
  190.8540  174.6360  142.6610 C   0  0  1  0  0  3  0  0  0  0  0  0
  190.2180  175.8490  143.3490 C   0  0  1  0  0  3  0  0  0  0  0  0
  190.7420  177.0920  142.7900 N   0  0  0  0  0  0  0  0  0  0  0  0
  191.3570  177.8290  143.8660 C   0  0  2  0  0  3  0  0  0  0  0  0
  191.4520  179.1730  143.5130 O   0  0  0  0  0  1  0  0  0  0  0  0
  192.1090  177.0870  143.0150 O   0  0  0  0  0  0  0  0  0  0  0  0
  188.6740  175.7910  143.3560 C   0  0  2  0  0  3  0  0  0  0  0  0
  187.9730  176.9140  142.5660 C   0  0  1  0  0  3  0  0  0  0  0  0
  187.7750  176.5490  141.2310 O   0  0  0  0  0  1  0  0  0  0  0  0
  185.6540  179.5290  143.5030 C   0  0  0  0  0  2  0  0  0  0  0  0
  186.7770  178.6210  143.9710 C   0  0  0  0  0  2  0  0  0  0  0  0
  184.7070  178.6710  142.6870 C   0  0  1  0  0  3  0  0  0  0  0  0
  186.6430  177.3210  143.2070 C   0  0  1  0  0  3  0  0  0  0  0  0
  185.5410  177.5180  142.1820 C   0  0  0  0  0  2  0  0  0  0  0  0
  183.6910  178.1860  143.5140 O   0  0  0  0  0  1  0  0  0  0  0  0
  188.1970  175.7780  144.8000 C   0  0  0  0  0  2  0  0  0  0  0  0
  190.7440  175.6830  147.6340 C   0  0  0  0  0  0  0  0  0  0  0  0
  188.7190  177.4340  146.5950 C   0  0  0  0  0  2  0  0  0  0  0  0
  189.7400  177.9070  147.5920 C   0  0  0  0  0  3  0  0  0  0  0  0
  189.7850  175.1640  146.6020 C   0  0  0  0  0  2  0  0  0  0  0  0
  190.6610  177.0810  148.0910 C   0  0  0  0  0  3  0  0  0  0  0  0
  191.6050  174.9120  148.1320 O   0  0  0  0  0  0  0  0  0  0  0  0
  189.2770  176.3050  145.7220 C   0  0  1  0  0  3  0  0  0  0  0  0
  1  3  1  0  0  0  0
  2  1  1  0  0  0  0
  2  7  2  0  0  0  0
  3 30  1  6  0  0  0
  3  5  1  0  0  0  0
  4  1  2  0  0  0  0
  5  8  1  1  0  0  0
  6  2  1  0  0  0  0
  7  5  1  0  0  0  0
  9 10  1  0  0  0  0
  9 11  1  0  0  0  0
 10  7  1  6  0  0  0
 10 11  1  0  0  0  0
 11 12  1  1  0  0  0
 12 14  1  0  0  0  0
 12 16  1  0  0  0  0
 13 12  1  0  0  0  0
 16 15  2  0  0  0  0
 17 16  1  0  0  0  0
 17 19  1  0  0  0  0
 18 17  2  0  0  0  0
 21 22  2  0  0  0  0
 21 19  1  0  0  0  0
 21 20  2  0  0  0  0
 23 21  1  0  0  0  0
 24 27  1  1  0  0  0
 24 26  1  0  0  0  0
 24 25  1  0  0  0  0
 25 23  1  0  0  0  0
 26 25  1  0  0  0  0
 28 27  1  0  0  0  0
 30 29  1  6  0  0  0
 31 30  1  6  0  0  0
 31 36  1  0  0  0  0
 32 35  1  0  0  0  0
 32 31  1  0  0  0  0
 32 33  1  0  0  0  0
 33 34  1  6  0  0  0
 35 33  1  0  0  0  0
 36 45  1  1  0  0  0
 37 38  1  6  0  0  0
 37 36  1  0  0  0  0
 39 40  1  0  0  0  0
 41 39  1  0  0  0  0
 41 44  1  1  0  0  0
 42 37  1  6  0  0  0
 42 40  1  0  0  0  0
 43 41  1  0  0  0  0
 43 42  1  0  0  0  0
 46 50  1  0  0  0  0
 46 51  2  0  0  0  0
 47 48  1  0  0  0  0
 48 50  2  0  0  0  0
 49 46  1  0  0  0  0
 52 45  1  6  0  0  0
 52 47  1  0  0  0  0
 52 49  1  0  0  0  0
M  END
>  <MODEL>
7

>  <REMARK>
 VINA RESULT:      -6.2      2.891      5.490
  Name = 
  16 active torsions:
  status: ('A' for Active; 'I' for Inactive)
    1  A    between atoms: N_1  and  C_11
    2  A    between atoms: C_3  and  C_20
    3  A    between atoms: C_9  and  C_29
    4  A    between atoms: C_9  and  C_52
    5  A    between atoms: C_11  and  C_42
    6  A    between atoms: C_11  and  C_52
    7  A    between atoms: C_12  and  C_45
    8  A    between atoms: C_16  and  C_42
    9  A    between atoms: C_20  and  C_23
   10  A    between atoms: C_21  and  S_46
   11  A    between atoms: C_23  and  C_34
   12  A    between atoms: S_28  and  C_43
   13  A    between atoms: S_28  and  N_47
   14  A    between atoms: N_35  and  C_43
   15  A    between atoms: C_37  and  C_48
   16  A    between atoms: C_37  and  C_52
                            x       y       z     vdW  Elec       q    Type
                         _______ _______ _______ _____ _____    ______ ____

>  <TORSDO>
F 16

$$$$
=
 OpenBabel11062421383D

 52 57  0  0  1  0  0  0  0  0999 V2000
  188.7840  172.9610  141.6310 C   0  0  0  0  0  0  0  0  0  0  0  0
  189.5520  172.4990  140.5050 C   0  0  0  0  0  0  0  0  0  0  0  0
  189.6730  173.2180  142.8020 C   0  0  1  0  0  3  0  0  0  0  0  0
  187.5350  173.1140  141.6300 O   0  0  0  0  0  0  0  0  0  0  0  0
  191.0240  172.6610  142.3130 C   0  0  2  0  0  3  0  0  0  0  0  0
  189.0430  172.3380  139.1840 N   0  0  0  0  0  1  0  0  0  0  0  0
  190.8200  172.3640  140.8470 C   0  0  0  0  0  0  0  0  0  0  0  0
  191.3420  171.3770  143.0590 C   0  0  0  0  0  1  0  0  0  0  0  0
  192.3740  173.3570  139.2280 C   0  0  0  0  0  2  0  0  0  0  0  0
  191.9000  172.0550  139.8490 C   0  0  1  0  0  3  0  0  0  0  0  0
  193.2470  172.6430  140.2430 C   0  0  1  0  0  3  0  0  0  0  0  0
  194.4410  171.8770  139.6190 C   0  0  0  0  0  0  0  0  0  0  0  0
  195.2340  172.8630  138.7750 C   0  0  0  0  0  1  0  0  0  0  0  0
  194.0320  170.7400  138.6720 C   0  0  0  0  0  1  0  0  0  0  0  0
  195.9500  170.2520  140.5610 O   0  0  0  0  0  0  0  0  0  0  0  0
  195.3290  171.3380  140.7280 C   0  0  0  0  0  0  0  0  0  0  0  0
  195.4800  172.0340  142.0230 C   0  0  0  0  0  0  0  0  0  0  0  0
  196.0960  173.1330  142.0660 O   0  0  0  0  0  0  0  0  0  0  0  0
  194.9240  171.4800  143.2180 N   0  0  0  0  0  2  0  0  0  0  0  0
  196.2630  172.6850  145.1540 O   0  0  0  0  0  0  0  0  0  0  0  0
  194.8650  172.3480  144.7130 S   0  0  0  0  0  0  0  0  0  0  0  0
  194.1870  171.5190  145.7680 O   0  0  0  0  0  0  0  0  0  0  0  0
  193.9440  173.8490  144.4770 C   0  0  0  0  0  2  0  0  0  0  0  0
  194.5840  176.1630  143.8850 C   0  0  2  0  0  3  0  0  0  0  0  0
  194.7950  174.9900  144.7780 N   0  0  0  0  0  0  0  0  0  0  0  0
  193.8880  176.0810  145.1670 C   0  0  0  0  0  2  0  0  0  0  0  0
  193.3910  175.9160  142.5120 S   0  0  0  0  0  0  0  0  0  0  0  0
  194.6720  176.1970  141.2620 C   0  0  0  0  0  1  0  0  0  0  0  0
  189.5890  175.4730  141.9180 O   0  0  0  0  0  1  0  0  0  0  0  0
  189.8360  174.7180  143.0640 C   0  0  1  0  0  3  0  0  0  0  0  0
  188.9420  175.1740  144.2230 C   0  0  1  0  0  3  0  0  0  0  0  0
  189.7410  175.4540  145.4110 N   0  0  0  0  0  0  0  0  0  0  0  0
  189.4210  174.4540  146.3990 C   0  0  2  0  0  3  0  0  0  0  0  0
  189.7770  174.9180  147.6620 O   0  0  0  0  0  1  0  0  0  0  0  0
  190.5340  174.3400  145.6320 O   0  0  0  0  0  0  0  0  0  0  0  0
  188.0060  176.3400  143.8320 C   0  0  2  0  0  3  0  0  0  0  0  0
  188.0070  177.5350  144.8070 C   0  0  1  0  0  3  0  0  0  0  0  0
  188.0650  178.7510  144.1200 O   0  0  0  0  0  1  0  0  0  0  0  0
  186.5440  178.3690  148.0100 C   0  0  0  0  0  2  0  0  0  0  0  0
  187.2130  177.2890  147.1790 C   0  0  0  0  0  2  0  0  0  0  0  0
  185.5220  179.0410  147.1150 C   0  0  1  0  0  3  0  0  0  0  0  0
  186.7940  177.5120  145.7410 C   0  0  1  0  0  3  0  0  0  0  0  0
  186.0070  178.8090  145.7040 C   0  0  0  0  0  2  0  0  0  0  0  0
  184.2790  178.4290  147.2880 O   0  0  0  0  0  1  0  0  0  0  0  0
  186.5970  175.7940  143.6610 C   0  0  0  0  0  2  0  0  0  0  0  0
  186.4360  177.5320  140.2730 C   0  0  0  0  0  0  0  0  0  0  0  0
  185.0660  177.5660  142.7960 C   0  0  0  0  0  2  0  0  0  0  0  0
  184.4910  178.2250  141.5730 C   0  0  0  0  0  3  0  0  0  0  0  0
  187.0390  176.8120  141.4440 C   0  0  0  0  0  2  0  0  0  0  0  0
  185.1450  178.2280  140.4110 C   0  0  0  0  0  3  0  0  0  0  0  0
  187.0500  177.5640  139.1750 O   0  0  0  0  0  0  0  0  0  0  0  0
  185.9490  176.3720  142.4200 C   0  0  1  0  0  3  0  0  0  0  0  0
  1  3  1  0  0  0  0
  2  7  2  0  0  0  0
  2  1  1  0  0  0  0
  3 30  1  6  0  0  0
  4  1  2  0  0  0  0
  5  3  1  0  0  0  0
  5  8  1  1  0  0  0
  6  2  1  0  0  0  0
  7  5  1  0  0  0  0
  9 10  1  0  0  0  0
  9 11  1  0  0  0  0
 10 11  1  0  0  0  0
 10  7  1  1  0  0  0
 11 12  1  6  0  0  0
 12 16  1  0  0  0  0
 13 12  1  0  0  0  0
 14 12  1  0  0  0  0
 15 16  2  0  0  0  0
 16 17  1  0  0  0  0
 17 18  2  0  0  0  0
 17 19  1  0  0  0  0
 19 21  1  0  0  0  0
 21 20  2  0  0  0  0
 21 22  2  0  0  0  0
 23 21  1  0  0  0  0
 23 25  1  0  0  0  0
 24 27  1  6  0  0  0
 24 25  1  0  0  0  0
 24 26  1  0  0  0  0
 25 26  1  0  0  0  0
 28 27  1  0  0  0  0
 30 29  1  6  0  0  0
 31 30  1  6  0  0  0
 31 32  1  0  0  0  0
 32 35  1  0  0  0  0
 32 33  1  0  0  0  0
 33 34  1  1  0  0  0
 35 33  1  0  0  0  0
 36 45  1  1  0  0  0
 36 31  1  0  0  0  0
 36 37  1  0  0  0  0
 37 38  1  6  0  0  0
 40 39  1  0  0  0  0
 41 44  1  6  0  0  0
 41 39  1  0  0  0  0
 42 37  1  6  0  0  0
 42 40  1  0  0  0  0
 43 42  1  0  0  0  0
 43 41  1  0  0  0  0
 46 50  1  0  0  0  0
 46 49  1  0  0  0  0
 48 47  1  0  0  0  0
 49 52  1  0  0  0  0
 50 48  2  0  0  0  0
 51 46  2  0  0  0  0
 52 47  1  0  0  0  0
 52 45  1  1  0  0  0
M  END
>  <MODEL>
8

>  <REMARK>
 VINA RESULT:      -6.1      2.673      5.534
  Name = 
  16 active torsions:
  status: ('A' for Active; 'I' for Inactive)
    1  A    between atoms: N_1  and  C_11
    2  A    between atoms: C_3  and  C_20
    3  A    between atoms: C_9  and  C_29
    4  A    between atoms: C_9  and  C_52
    5  A    between atoms: C_11  and  C_42
    6  A    between atoms: C_11  and  C_52
    7  A    between atoms: C_12  and  C_45
    8  A    between atoms: C_16  and  C_42
    9  A    between atoms: C_20  and  C_23
   10  A    between atoms: C_21  and  S_46
   11  A    between atoms: C_23  and  C_34
   12  A    between atoms: S_28  and  C_43
   13  A    between atoms: S_28  and  N_47
   14  A    between atoms: N_35  and  C_43
   15  A    between atoms: C_37  and  C_48
   16  A    between atoms: C_37  and  C_52
                            x       y       z     vdW  Elec       q    Type
                         _______ _______ _______ _____ _____    ______ ____

>  <TORSDO>
F 16

$$$$
=
 OpenBabel11062421383D

 52 57  0  0  1  0  0  0  0  0999 V2000
  190.5890  172.1140  142.2930 C   0  0  0  0  0  0  0  0  0  0  0  0
  190.2750  172.5880  143.6140 C   0  0  0  0  0  0  0  0  0  0  0  0
  191.7470  172.8670  141.7270 C   0  0  1  0  0  3  0  0  0  0  0  0
  189.9640  171.2010  141.6930 O   0  0  0  0  0  0  0  0  0  0  0  0
  191.9550  173.9790  142.7740 C   0  0  2  0  0  3  0  0  0  0  0  0
  189.3500  171.9660  144.5030 N   0  0  0  0  0  1  0  0  0  0  0  0
  191.0560  173.6050  143.9280 C   0  0  0  0  0  0  0  0  0  0  0  0
  191.5170  175.3110  142.1910 C   0  0  0  0  0  1  0  0  0  0  0  0
  191.6850  175.6030  145.2060 C   0  0  0  0  0  2  0  0  0  0  0  0
  191.0830  174.2120  145.3030 C   0  0  1  0  0  3  0  0  0  0  0  0
  190.1910  175.4400  145.4180 C   0  0  1  0  0  3  0  0  0  0  0  0
  189.7280  175.7090  146.8720 C   0  0  0  0  0  0  0  0  0  0  0  0
  190.9710  175.9000  147.7270 C   0  0  0  0  0  1  0  0  0  0  0  0
  188.9480  174.5490  147.5090 C   0  0  0  0  0  1  0  0  0  0  0  0
  189.2850  177.9660  147.5910 O   0  0  0  0  0  0  0  0  0  0  0  0
  188.8940  176.9790  146.9080 C   0  0  0  0  0  0  0  0  0  0  0  0
  187.6130  177.1000  146.1800 C   0  0  0  0  0  0  0  0  0  0  0  0
  186.6420  176.3660  146.5100 O   0  0  0  0  0  0  0  0  0  0  0  0
  187.4640  178.0460  145.1190 N   0  0  0  0  0  2  0  0  0  0  0  0
  185.8300  179.8770  144.1320 O   0  0  0  0  0  0  0  0  0  0  0  0
  185.9370  178.3980  144.3860 S   0  0  0  0  0  0  0  0  0  0  0  0
  184.8160  177.9550  145.2850 O   0  0  0  0  0  0  0  0  0  0  0  0
  185.8190  177.5250  142.8430 C   0  0  0  0  0  2  0  0  0  0  0  0
  187.8250  177.0660  141.4720 C   0  0  2  0  0  3  0  0  0  0  0  0
  186.8020  178.0560  141.9120 N   0  0  0  0  0  0  0  0  0  0  0  0
  186.6300  177.2970  140.6640 C   0  0  0  0  0  2  0  0  0  0  0  0
  187.7300  175.4140  142.2670 S   0  0  0  0  0  0  0  0  0  0  0  0
  188.2310  174.5780  140.7400 C   0  0  0  0  0  1  0  0  0  0  0  0
  192.7490  170.6840  142.0560 O   0  0  0  0  0  1  0  0  0  0  0  0
  193.0110  172.0030  141.6850 C   0  0  1  0  0  3  0  0  0  0  0  0
  193.6710  172.0610  140.3020 C   0  0  1  0  0  3  0  0  0  0  0  0
  192.6800  172.3520  139.2700 N   0  0  0  0  0  0  0  0  0  0  0  0
  193.0320  171.5880  138.0980 C   0  0  2  0  0  3  0  0  0  0  0  0
  192.4320  172.1550  136.9770 O   0  0  0  0  0  1  0  0  0  0  0  0
  192.0710  171.1500  138.9490 O   0  0  0  0  0  0  0  0  0  0  0  0
  194.8880  173.0110  140.2600 C   0  0  2  0  0  3  0  0  0  0  0  0
  195.7350  173.0460  141.5490 C   0  0  1  0  0  3  0  0  0  0  0  0
  197.0380  172.5990  141.3120 O   0  0  0  0  0  1  0  0  0  0  0  0
  196.2840  175.1220  144.4610 C   0  0  0  0  0  2  0  0  0  0  0  0
  195.2540  174.4060  143.6070 C   0  0  0  0  0  2  0  0  0  0  0  0
  197.2390  175.8140  143.5090 C   0  0  1  0  0  3  0  0  0  0  0  0
  195.7590  174.4410  142.1800 C   0  0  1  0  0  3  0  0  0  0  0  0
  197.1550  175.0380  142.2160 C   0  0  0  0  0  2  0  0  0  0  0  0
  196.8110  177.1260  143.2940 O   0  0  0  0  0  1  0  0  0  0  0  0
  194.4000  174.4070  139.9060 C   0  0  0  0  0  2  0  0  0  0  0  0
  194.7320  175.6480  136.3170 C   0  0  0  0  0  0  0  0  0  0  0  0
  196.0530  173.8460  138.1210 C   0  0  0  0  0  2  0  0  0  0  0  0
  196.6910  174.2870  136.8330 C   0  0  0  0  0  3  0  0  0  0  0  0
  194.0640  175.2860  137.6120 C   0  0  0  0  0  2  0  0  0  0  0  0
  196.0600  175.1030  135.9870 C   0  0  0  0  0  3  0  0  0  0  0  0
  194.1410  176.3980  135.4970 O   0  0  0  0  0  0  0  0  0  0  0  0
  195.1060  174.9190  138.6670 C   0  0  1  0  0  3  0  0  0  0  0  0
  1  2  1  0  0  0  0
  2  7  2  0  0  0  0
  2  6  1  0  0  0  0
  3 30  1  1  0  0  0
  3  1  1  0  0  0  0
  3  5  1  0  0  0  0
  4  1  2  0  0  0  0
  5  8  1  6  0  0  0
  5  7  1  0  0  0  0
  9 10  1  0  0  0  0
  9 11  1  0  0  0  0
 10  7  1  6  0  0  0
 10 11  1  0  0  0  0
 11 12  1  1  0  0  0
 12 16  1  0  0  0  0
 12 14  1  0  0  0  0
 12 13  1  0  0  0  0
 16 15  2  0  0  0  0
 17 18  2  0  0  0  0
 17 16  1  0  0  0  0
 19 17  1  0  0  0  0
 20 21  2  0  0  0  0
 21 19  1  0  0  0  0
 21 22  2  0  0  0  0
 23 21  1  0  0  0  0
 24 25  1  0  0  0  0
 24 27  1  1  0  0  0
 25 23  1  0  0  0  0
 26 24  1  0  0  0  0
 26 25  1  0  0  0  0
 28 27  1  0  0  0  0
 30 29  1  6  0  0  0
 31 36  1  1  0  0  0
 31 30  1  0  0  0  0
 32 31  1  0  0  0  0
 33 34  1  6  0  0  0
 33 35  1  0  0  0  0
 33 32  1  0  0  0  0
 35 32  1  0  0  0  0
 36 45  1  1  0  0  0
 36 37  1  0  0  0  0
 37 38  1  6  0  0  0
 40 39  1  0  0  0  0
 41 44  1  6  0  0  0
 41 39  1  0  0  0  0
 42 37  1  1  0  0  0
 42 43  1  0  0  0  0
 42 40  1  0  0  0  0
 43 41  1  0  0  0  0
 46 49  1  0  0  0  0
 47 52  1  0  0  0  0
 48 47  1  0  0  0  0
 49 52  1  0  0  0  0
 50 46  1  0  0  0  0
 50 48  2  0  0  0  0
 51 46  2  0  0  0  0
 52 45  1  1  0  0  0
M  END
>  <MODEL>
9

>  <REMARK>
 VINA RESULT:      -6.1      3.137      8.692
  Name = 
  16 active torsions:
  status: ('A' for Active; 'I' for Inactive)
    1  A    between atoms: N_1  and  C_11
    2  A    between atoms: C_3  and  C_20
    3  A    between atoms: C_9  and  C_29
    4  A    between atoms: C_9  and  C_52
    5  A    between atoms: C_11  and  C_42
    6  A    between atoms: C_11  and  C_52
    7  A    between atoms: C_12  and  C_45
    8  A    between atoms: C_16  and  C_42
    9  A    between atoms: C_20  and  C_23
   10  A    between atoms: C_21  and  S_46
   11  A    between atoms: C_23  and  C_34
   12  A    between atoms: S_28  and  C_43
   13  A    between atoms: S_28  and  N_47
   14  A    between atoms: N_35  and  C_43
   15  A    between atoms: C_37  and  C_48
   16  A    between atoms: C_37  and  C_52
                            x       y       z     vdW  Elec       q    Type
                         _______ _______ _______ _____ _____    ______ ____

>  <TORSDO>
F 16

$$$$
