=
 OpenBabel11062420063D

 35 37  0  0  1  0  0  0  0  0999 V2000
  186.7910  176.4120  144.0800 C   0  0  0  0  0  2  0  0  0  0  0  0
  188.5890  177.9710  144.4010 O   0  0  0  0  0  0  0  0  0  0  0  0
  187.5090  177.0720  141.7590 C   0  0  0  0  0  0  0  0  0  0  0  0
  187.0590  175.9480  142.6440 C   0  0  1  0  0  3  0  0  0  0  0  0
  188.0920  176.7320  144.8300 C   0  0  1  0  0  3  0  0  0  0  0  0
  186.8720  177.3000  140.6970 O   0  0  0  0  0  0  0  0  0  0  0  0
  188.6590  177.8680  142.0730 N   0  0  0  0  0  2  0  0  0  0  0  0
  189.4140  177.6950  143.3070 C   0  0  0  0  0  2  0  0  0  0  0  0
  187.8690  176.7670  146.3440 C   0  0  2  0  0  3  0  0  0  0  0  0
  188.4970  175.6050  146.9610 N   0  0  0  0  0  2  0  0  0  0  0  0
  191.1090  175.8390  147.9410 C   0  0  0  0  0  1  0  0  0  0  0  0
  189.5160  173.5950  146.0030 C   0  0  0  0  0  2  0  0  0  0  0  0
  190.1890  172.1870  144.0270 N   0  0  0  0  0  1  0  0  0  0  0  0
  193.3970  175.7860  145.2610 Cl  0  0  0  0  0  0  0  0  0  0  0  0
  192.0940  174.7750  145.9260 C   0  0  1  0  0  3  0  0  0  0  0  0
  190.9380  175.6570  146.4410 C   0  0  1  0  0  3  0  0  0  0  0  0
  189.5370  175.1180  146.0630 C   0  0  2  0  0  3  0  0  0  0  0  0
  190.5260  173.1750  144.9940 C   0  0  0  0  0  0  0  0  0  0  0  0
  191.6800  173.7700  144.9410 N   0  0  0  0  0  0  0  0  0  0  0  0
  186.3840  176.7540  146.6770 C   0  0  0  0  0  2  0  0  0  0  0  0
  186.0130  178.0230  147.4170 C   0  0  0  0  0  2  0  0  0  0  0  0
  185.9660  179.1080  146.5040 O   0  0  0  0  0  0  0  0  0  0  0  0
  183.7860  178.8590  145.7890 O   0  0  0  0  0  0  0  0  0  0  0  0
  184.9680  179.2110  145.5380 C   0  0  0  0  0  0  0  0  0  0  0  0
  185.3000  179.7560  144.1990 C   0  0  0  0  0  1  0  0  0  0  0  0
  188.0130  174.8950  142.6150 O   0  0  0  0  0  0  0  0  0  0  0  0
  189.4370  173.9550  140.9610 C   0  0  0  0  0  0  0  0  0  0  0  0
  188.5090  172.5770  138.9660 C   0  0  0  0  0  1  0  0  0  0  0  0
  193.1920  173.4800  139.4930 O   0  0  0  0  0  0  0  0  0  0  0  0
  190.8790  173.0560  139.2190 C   0  0  0  0  0  3  0  0  0  0  0  0
  192.0230  173.6550  139.9250 C   0  0  0  0  0  0  0  0  0  0  0  0
  191.8040  174.4050  141.1300 N   0  0  0  0  0  0  0  0  0  0  0  0
  189.6480  173.1900  139.7100 C   0  0  0  0  0  0  0  0  0  0  0  0
  190.6150  174.5480  141.6300 C   0  0  0  0  0  3  0  0  0  0  0  0
  188.2140  174.1410  141.4630 C   0  0  0  0  0  3  0  0  0  0  0  0
  1  5  1  0  0  0  0
  2  5  1  0  0  0  0
  3  7  1  0  0  0  0
  3  4  1  0  0  0  0
  4 26  1  1  0  0  0
  4  1  1  0  0  0  0
  5  9  1  1  0  0  0
  6  3  2  0  0  0  0
  7  8  1  0  0  0  0
  8  2  1  0  0  0  0
  9 20  1  6  0  0  0
  9 10  1  0  0  0  0
 12 17  1  0  0  0  0
 13 18  1  0  0  0  0
 15 14  1  6  0  0  0
 15 16  1  0  0  0  0
 16 11  1  1  0  0  0
 17 16  1  0  0  0  0
 17 10  1  1  0  0  0
 18 12  1  0  0  0  0
 19 18  2  0  0  0  0
 19 15  1  0  0  0  0
 20 21  1  0  0  0  0
 22 21  1  0  0  0  0
 24 23  2  0  0  0  0
 24 22  1  0  0  0  0
 25 24  1  0  0  0  0
 27 35  2  0  0  0  0
 27 34  1  0  0  0  0
 28 33  1  0  0  0  0
 29 31  2  0  0  0  0
 30 33  2  0  0  0  0
 30 31  1  0  0  0  0
 31 32  1  0  0  0  0
 32 34  2  0  0  0  0
 33 27  1  0  0  0  0
 35 26  1  0  0  0  0
M  END
>  <MODEL>
1

>  <REMARK>
 VINA RESULT:      -7.2      0.000      0.000
  Name = 
  9 active torsions:
  status: ('A' for Active; 'I' for Inactive)
    1  A    between atoms: N_6  and  C_23
    2  A    between atoms: N_6  and  C_24
    3  A    between atoms: C_10  and  O_30
    4  A    between atoms: C_15  and  O_35
    5  A    between atoms: C_16  and  C_24
    6  A    between atoms: C_22  and  C_24
    7  A    between atoms: C_22  and  C_28
    8  A    between atoms: C_28  and  O_30
    9  A    between atoms: C_34  and  O_35
                            x       y       z     vdW  Elec       q    Type
                         _______ _______ _______ _____ _____    ______ ____

>  <TORSDO>
F 9

$$$$
=
 OpenBabel11062420063D

 35 37  0  0  1  0  0  0  0  0999 V2000
  189.6500  175.4140  142.7200 C   0  0  0  0  0  2  0  0  0  0  0  0
  189.9440  173.0320  142.7340 O   0  0  0  0  0  0  0  0  0  0  0  0
  188.3170  174.5770  140.7550 C   0  0  0  0  0  0  0  0  0  0  0  0
  188.3610  175.5450  141.9000 C   0  0  1  0  0  3  0  0  0  0  0  0
  189.6650  174.1290  143.5600 C   0  0  1  0  0  3  0  0  0  0  0  0
  188.1340  175.0220  139.5920 O   0  0  0  0  0  0  0  0  0  0  0  0
  188.4430  173.1640  140.9540 N   0  0  0  0  0  2  0  0  0  0  0  0
  188.7070  172.5810  142.2630 C   0  0  0  0  0  2  0  0  0  0  0  0
  190.7070  174.2060  144.6780 C   0  0  2  0  0  3  0  0  0  0  0  0
  191.9070  173.4800  144.2830 N   0  0  0  0  0  2  0  0  0  0  0  0
  194.4520  172.6870  143.4230 C   0  0  0  0  0  1  0  0  0  0  0  0
  193.2340  175.4240  144.9570 C   0  0  0  0  0  2  0  0  0  0  0  0
  194.1180  176.9910  146.7190 N   0  0  0  0  0  1  0  0  0  0  0  0
  196.7080  172.7820  146.1280 Cl  0  0  0  0  0  0  0  0  0  0  0  0
  195.5880  173.8750  145.2820 C   0  0  1  0  0  3  0  0  0  0  0  0
  194.3060  173.1200  144.8730 C   0  0  1  0  0  3  0  0  0  0  0  0
  193.0100  173.9260  145.1270 C   0  0  2  0  0  3  0  0  0  0  0  0
  194.2950  175.8270  145.9210 C   0  0  0  0  0  0  0  0  0  0  0  0
  195.3370  175.0710  146.0940 N   0  0  0  0  0  0  0  0  0  0  0  0
  190.1720  173.5990  145.9670 C   0  0  0  0  0  2  0  0  0  0  0  0
  189.3840  174.6390  146.7360 C   0  0  0  0  0  2  0  0  0  0  0  0
  190.2370  175.2870  147.6670 O   0  0  0  0  0  0  0  0  0  0  0  0
  191.2610  177.2150  148.4190 O   0  0  0  0  0  0  0  0  0  0  0  0
  190.5680  176.6350  147.5430 C   0  0  0  0  0  0  0  0  0  0  0  0
  190.1090  177.3930  146.3530 C   0  0  0  0  0  1  0  0  0  0  0  0
  187.2120  175.3810  142.7200 O   0  0  0  0  0  0  0  0  0  0  0  0
  185.9240  176.9720  143.9260 C   0  0  0  0  0  0  0  0  0  0  0  0
  184.0590  178.3780  142.7910 C   0  0  0  0  0  1  0  0  0  0  0  0
  185.0520  178.7470  147.4710 O   0  0  0  0  0  0  0  0  0  0  0  0
  184.5450  178.5470  145.1680 C   0  0  0  0  0  3  0  0  0  0  0  0
  185.2950  178.1730  146.3780 C   0  0  0  0  0  0  0  0  0  0  0  0
  186.3310  177.1820  146.2970 N   0  0  0  0  0  0  0  0  0  0  0  0
  184.8430  177.9840  143.9980 C   0  0  0  0  0  0  0  0  0  0  0  0
  186.6430  176.6210  145.1690 C   0  0  0  0  0  3  0  0  0  0  0  0
  186.2260  176.3610  142.7780 C   0  0  0  0  0  3  0  0  0  0  0  0
  1  5  1  0  0  0  0
  2  5  1  0  0  0  0
  3  7  1  0  0  0  0
  3  4  1  0  0  0  0
  4  1  1  0  0  0  0
  4 26  1  1  0  0  0
  5  9  1  1  0  0  0
  6  3  2  0  0  0  0
  7  8  1  0  0  0  0
  8  2  1  0  0  0  0
  9 20  1  1  0  0  0
 10  9  1  0  0  0  0
 12 17  1  0  0  0  0
 12 18  1  0  0  0  0
 15 19  1  0  0  0  0
 15 14  1  1  0  0  0
 16 11  1  6  0  0  0
 16 17  1  0  0  0  0
 16 15  1  0  0  0  0
 17 10  1  6  0  0  0
 18 19  2  0  0  0  0
 18 13  1  0  0  0  0
 20 21  1  0  0  0  0
 21 22  1  0  0  0  0
 24 22  1  0  0  0  0
 24 23  2  0  0  0  0
 25 24  1  0  0  0  0
 26 35  1  0  0  0  0
 27 33  1  0  0  0  0
 27 34  1  0  0  0  0
 28 33  1  0  0  0  0
 30 31  1  0  0  0  0
 31 29  2  0  0  0  0
 32 31  1  0  0  0  0
 33 30  2  0  0  0  0
 34 32  2  0  0  0  0
 35 27  2  0  0  0  0
M  END
>  <MODEL>
2

>  <REMARK>
 VINA RESULT:      -7.2      2.528      5.950
  Name = 
  9 active torsions:
  status: ('A' for Active; 'I' for Inactive)
    1  A    between atoms: N_6  and  C_23
    2  A    between atoms: N_6  and  C_24
    3  A    between atoms: C_10  and  O_30
    4  A    between atoms: C_15  and  O_35
    5  A    between atoms: C_16  and  C_24
    6  A    between atoms: C_22  and  C_24
    7  A    between atoms: C_22  and  C_28
    8  A    between atoms: C_28  and  O_30
    9  A    between atoms: C_34  and  O_35
                            x       y       z     vdW  Elec       q    Type
                         _______ _______ _______ _____ _____    ______ ____

>  <TORSDO>
F 9

$$$$
=
 OpenBabel11062420063D

 35 37  0  0  1  0  0  0  0  0999 V2000
  190.1190  175.2820  142.0770 C   0  0  0  0  0  2  0  0  0  0  0  0
  190.6840  173.5670  143.6590 O   0  0  0  0  0  0  0  0  0  0  0  0
  188.5310  173.3900  141.5880 C   0  0  0  0  0  0  0  0  0  0  0  0
  188.6880  174.8770  141.7050 C   0  0  1  0  0  3  0  0  0  0  0  0
  190.4480  174.9430  143.5380 C   0  0  1  0  0  3  0  0  0  0  0  0
  188.0730  172.9110  140.5180 O   0  0  0  0  0  0  0  0  0  0  0  0
  188.8570  172.5080  142.6690 N   0  0  0  0  0  2  0  0  0  0  0  0
  189.4390  172.9850  143.9170 C   0  0  0  0  0  2  0  0  0  0  0  0
  191.6740  175.7170  144.0280 C   0  0  2  0  0  3  0  0  0  0  0  0
  192.3900  174.9270  145.0210 N   0  0  0  0  0  2  0  0  0  0  0  0
  193.9560  172.6620  145.5330 C   0  0  0  0  0  1  0  0  0  0  0  0
  194.1200  175.1810  143.3070 C   0  0  0  0  0  2  0  0  0  0  0  0
  196.0060  176.4690  142.2450 N   0  0  0  0  0  1  0  0  0  0  0  0
  197.2930  173.6290  146.1250 Cl  0  0  0  0  0  0  0  0  0  0  0  0
  196.0540  173.8060  144.8610 C   0  0  1  0  0  3  0  0  0  0  0  0
  194.6630  174.0090  145.4970 C   0  0  1  0  0  3  0  0  0  0  0  0
  193.8210  175.1040  144.7990 C   0  0  2  0  0  3  0  0  0  0  0  0
  195.5730  175.4670  143.1580 C   0  0  0  0  0  0  0  0  0  0  0  0
  196.4360  174.8660  143.9220 N   0  0  0  0  0  0  0  0  0  0  0  0
  191.2670  177.0410  144.6590 C   0  0  0  0  0  2  0  0  0  0  0  0
  189.9500  176.8790  145.3900 C   0  0  0  0  0  2  0  0  0  0  0  0
  190.1880  176.8260  146.7880 O   0  0  0  0  0  0  0  0  0  0  0  0
  191.1920  175.3450  148.2470 O   0  0  0  0  0  0  0  0  0  0  0  0
  190.2330  175.6170  147.4790 C   0  0  0  0  0  0  0  0  0  0  0  0
  189.1270  174.6410  147.3180 C   0  0  0  0  0  1  0  0  0  0  0  0
  187.7490  175.3920  142.6400 O   0  0  0  0  0  0  0  0  0  0  0  0
  186.0410  176.9630  143.1500 C   0  0  0  0  0  0  0  0  0  0  0  0
  184.6770  178.1650  141.2960 C   0  0  0  0  0  1  0  0  0  0  0  0
  183.8400  178.8900  145.9650 O   0  0  0  0  0  0  0  0  0  0  0  0
  184.2360  178.5130  143.6610 C   0  0  0  0  0  3  0  0  0  0  0  0
  184.4960  178.2680  145.0900 C   0  0  0  0  0  0  0  0  0  0  0  0
  185.5270  177.3480  145.4780 N   0  0  0  0  0  0  0  0  0  0  0  0
  184.9710  177.9010  142.7350 C   0  0  0  0  0  0  0  0  0  0  0  0
  186.2590  176.7400  144.5950 C   0  0  0  0  0  3  0  0  0  0  0  0
  186.7730  176.3040  142.2490 C   0  0  0  0  0  3  0  0  0  0  0  0
  1  5  1  0  0  0  0
  2  8  1  0  0  0  0
  3  4  1  0  0  0  0
  3  7  1  0  0  0  0
  4  1  1  0  0  0  0
  4 26  1  1  0  0  0
  5  2  1  0  0  0  0
  5  9  1  6  0  0  0
  6  3  2  0  0  0  0
  7  8  1  0  0  0  0
  9 20  1  1  0  0  0
  9 10  1  0  0  0  0
 12 17  1  0  0  0  0
 13 18  1  0  0  0  0
 15 16  1  0  0  0  0
 15 14  1  1  0  0  0
 16 11  1  6  0  0  0
 17 10  1  6  0  0  0
 17 16  1  0  0  0  0
 18 12  1  0  0  0  0
 18 19  2  0  0  0  0
 19 15  1  0  0  0  0
 20 21  1  0  0  0  0
 21 22  1  0  0  0  0
 22 24  1  0  0  0  0
 24 23  2  0  0  0  0
 25 24  1  0  0  0  0
 27 34  1  0  0  0  0
 28 33  1  0  0  0  0
 30 31  1  0  0  0  0
 31 32  1  0  0  0  0
 31 29  2  0  0  0  0
 33 27  1  0  0  0  0
 33 30  2  0  0  0  0
 34 32  2  0  0  0  0
 35 26  1  0  0  0  0
 35 27  2  0  0  0  0
M  END
>  <MODEL>
3

>  <REMARK>
 VINA RESULT:      -7.2      2.732      6.006
  Name = 
  9 active torsions:
  status: ('A' for Active; 'I' for Inactive)
    1  A    between atoms: N_6  and  C_23
    2  A    between atoms: N_6  and  C_24
    3  A    between atoms: C_10  and  O_30
    4  A    between atoms: C_15  and  O_35
    5  A    between atoms: C_16  and  C_24
    6  A    between atoms: C_22  and  C_24
    7  A    between atoms: C_22  and  C_28
    8  A    between atoms: C_28  and  O_30
    9  A    between atoms: C_34  and  O_35
                            x       y       z     vdW  Elec       q    Type
                         _______ _______ _______ _____ _____    ______ ____

>  <TORSDO>
F 9

$$$$
=
 OpenBabel11062420063D

 35 37  0  0  1  0  0  0  0  0999 V2000
  190.2370  173.0550  144.9680 C   0  0  0  0  0  2  0  0  0  0  0  0
  188.9140  174.3520  143.4420 O   0  0  0  0  0  0  0  0  0  0  0  0
  190.8150  172.1700  142.6830 C   0  0  0  0  0  0  0  0  0  0  0  0
  191.3420  172.5440  144.0360 C   0  0  1  0  0  3  0  0  0  0  0  0
  189.7480  174.4530  144.5630 C   0  0  1  0  0  3  0  0  0  0  0  0
  191.0390  171.0110  142.2440 O   0  0  0  0  0  0  0  0  0  0  0  0
  190.0950  173.1020  141.8670 N   0  0  0  0  0  2  0  0  0  0  0  0
  189.7540  174.4420  142.3280 C   0  0  0  0  0  2  0  0  0  0  0  0
  188.9900  175.1310  145.7070 C   0  0  2  0  0  3  0  0  0  0  0  0
  189.0050  176.5760  145.5190 N   0  0  0  0  0  2  0  0  0  0  0  0
  187.5310  178.1160  147.3350 C   0  0  0  0  0  1  0  0  0  0  0  0
  187.8210  178.0700  143.9820 C   0  0  0  0  0  2  0  0  0  0  0  0
  186.2250  178.4620  142.0740 N   0  0  0  0  0  1  0  0  0  0  0  0
  184.1020  177.9330  146.5450 Cl  0  0  0  0  0  0  0  0  0  0  0  0
  185.6330  178.3840  145.7590 C   0  0  1  0  0  3  0  0  0  0  0  0
  186.7660  177.4390  146.2080 C   0  0  1  0  0  3  0  0  0  0  0  0
  187.6880  176.9900  145.0490 C   0  0  2  0  0  3  0  0  0  0  0  0
  186.4530  178.3650  143.4750 C   0  0  0  0  0  0  0  0  0  0  0  0
  185.4560  178.4480  144.3040 N   0  0  0  0  0  0  0  0  0  0  0  0
  189.6250  174.8070  147.0510 C   0  0  0  0  0  2  0  0  0  0  0  0
  190.5520  175.9310  147.4650 C   0  0  0  0  0  2  0  0  0  0  0  0
  191.8950  175.5650  147.1850 O   0  0  0  0  0  0  0  0  0  0  0  0
  192.2360  176.8160  145.2750 O   0  0  0  0  0  0  0  0  0  0  0  0
  192.6980  176.3240  146.3370 C   0  0  0  0  0  0  0  0  0  0  0  0
  194.1170  176.5660  146.6980 C   0  0  0  0  0  1  0  0  0  0  0  0
  192.3850  173.5010  143.9030 O   0  0  0  0  0  0  0  0  0  0  0  0
  194.6810  174.0500  144.1660 C   0  0  0  0  0  0  0  0  0  0  0  0
  196.2480  172.7020  145.7380 C   0  0  0  0  0  1  0  0  0  0  0  0
  197.8250  176.3870  143.1010 O   0  0  0  0  0  0  0  0  0  0  0  0
  197.0530  174.5530  144.3830 C   0  0  0  0  0  3  0  0  0  0  0  0
  196.8610  175.6380  143.4070 C   0  0  0  0  0  0  0  0  0  0  0  0
  195.5630  175.8630  142.8370 N   0  0  0  0  0  0  0  0  0  0  0  0
  196.0190  173.7990  144.7530 C   0  0  0  0  0  0  0  0  0  0  0  0
  194.5390  175.1440  143.1820 C   0  0  0  0  0  3  0  0  0  0  0  0
  193.6300  173.2910  144.4860 C   0  0  0  0  0  3  0  0  0  0  0  0
  2  5  1  0  0  0  0
  3  4  1  0  0  0  0
  4 26  1  6  0  0  0
  4  1  1  0  0  0  0
  5  1  1  0  0  0  0
  5  9  1  1  0  0  0
  6  3  2  0  0  0  0
  7  8  1  0  0  0  0
  7  3  1  0  0  0  0
  8  2  1  0  0  0  0
  9 20  1  1  0  0  0
 10  9  1  0  0  0  0
 12 17  1  0  0  0  0
 13 18  1  0  0  0  0
 15 16  1  0  0  0  0
 15 14  1  1  0  0  0
 16 11  1  1  0  0  0
 17 10  1  1  0  0  0
 17 16  1  0  0  0  0
 18 12  1  0  0  0  0
 18 19  2  0  0  0  0
 19 15  1  0  0  0  0
 20 21  1  0  0  0  0
 22 21  1  0  0  0  0
 23 24  2  0  0  0  0
 24 25  1  0  0  0  0
 24 22  1  0  0  0  0
 26 35  1  0  0  0  0
 27 35  2  0  0  0  0
 27 33  1  0  0  0  0
 29 31  2  0  0  0  0
 30 33  2  0  0  0  0
 31 30  1  0  0  0  0
 32 34  2  0  0  0  0
 32 31  1  0  0  0  0
 33 28  1  0  0  0  0
 34 27  1  0  0  0  0
M  END
>  <MODEL>
4

>  <REMARK>
 VINA RESULT:      -6.9      3.497      6.300
  Name = 
  9 active torsions:
  status: ('A' for Active; 'I' for Inactive)
    1  A    between atoms: N_6  and  C_23
    2  A    between atoms: N_6  and  C_24
    3  A    between atoms: C_10  and  O_30
    4  A    between atoms: C_15  and  O_35
    5  A    between atoms: C_16  and  C_24
    6  A    between atoms: C_22  and  C_24
    7  A    between atoms: C_22  and  C_28
    8  A    between atoms: C_28  and  O_30
    9  A    between atoms: C_34  and  O_35
                            x       y       z     vdW  Elec       q    Type
                         _______ _______ _______ _____ _____    ______ ____

>  <TORSDO>
F 9

$$$$
=
 OpenBabel11062420063D

 35 37  0  0  1  0  0  0  0  0999 V2000
  189.4850  174.0030  144.1380 C   0  0  0  0  0  2  0  0  0  0  0  0
  187.9100  174.5140  142.4000 O   0  0  0  0  0  0  0  0  0  0  0  0
  189.9320  172.3100  142.3300 C   0  0  0  0  0  0  0  0  0  0  0  0
  190.5440  173.2200  143.3530 C   0  0  1  0  0  3  0  0  0  0  0  0
  188.8300  175.0970  143.2810 C   0  0  1  0  0  3  0  0  0  0  0  0
  190.2250  171.0860  142.3560 O   0  0  0  0  0  0  0  0  0  0  0  0
  189.0550  172.8000  141.3090 N   0  0  0  0  0  2  0  0  0  0  0  0
  188.6320  174.1940  141.2460 C   0  0  0  0  0  2  0  0  0  0  0  0
  188.1180  176.1350  144.1510 C   0  0  2  0  0  3  0  0  0  0  0  0
  188.0450  177.4060  143.4410 N   0  0  0  0  0  2  0  0  0  0  0  0
  186.0740  179.3790  143.6910 C   0  0  0  0  0  1  0  0  0  0  0  0
  187.4560  177.7500  141.0900 C   0  0  0  0  0  2  0  0  0  0  0  0
  186.5870  176.9040  138.8830 N   0  0  0  0  0  1  0  0  0  0  0  0
  183.0970  178.2920  142.1500 Cl  0  0  0  0  0  0  0  0  0  0  0  0
  184.8080  178.5390  141.7280 C   0  0  1  0  0  3  0  0  0  0  0  0
  185.7160  178.1270  142.9050 C   0  0  1  0  0  3  0  0  0  0  0  0
  186.9630  177.3230  142.4670 C   0  0  2  0  0  3  0  0  0  0  0  0
  186.3370  177.5400  140.1310 C   0  0  0  0  0  0  0  0  0  0  0  0
  185.1230  177.8570  140.4690 N   0  0  0  0  0  0  0  0  0  0  0  0
  188.8610  176.3510  145.4620 C   0  0  0  0  0  2  0  0  0  0  0  0
  187.8950  176.2410  146.6240 C   0  0  0  0  0  2  0  0  0  0  0  0
  187.5420  177.5400  147.0720 O   0  0  0  0  0  0  0  0  0  0  0  0
  185.9130  179.1020  147.5580 O   0  0  0  0  0  0  0  0  0  0  0  0
  186.2190  177.9770  147.0840 C   0  0  0  0  0  0  0  0  0  0  0  0
  185.1580  177.1090  146.5160 C   0  0  0  0  0  1  0  0  0  0  0  0
  191.4740  174.0970  142.7310 O   0  0  0  0  0  0  0  0  0  0  0  0
  193.3710  175.0070  143.8320 C   0  0  0  0  0  0  0  0  0  0  0  0
  195.7240  173.9260  143.6430 C   0  0  0  0  0  1  0  0  0  0  0  0
  194.9500  177.9450  146.1480 O   0  0  0  0  0  0  0  0  0  0  0  0
  195.3370  175.9760  144.8910 C   0  0  0  0  0  3  0  0  0  0  0  0
  194.4710  177.0520  145.4010 C   0  0  0  0  0  0  0  0  0  0  0  0
  193.0730  177.0570  145.0740 N   0  0  0  0  0  0  0  0  0  0  0  0
  194.8190  174.9970  144.1500 C   0  0  0  0  0  0  0  0  0  0  0  0
  192.5430  176.1140  144.3570 C   0  0  0  0  0  3  0  0  0  0  0  0
  192.8240  174.0630  143.0630 C   0  0  0  0  0  3  0  0  0  0  0  0
  2  5  1  0  0  0  0
  3  6  2  0  0  0  0
  3  4  1  0  0  0  0
  4 26  1  6  0  0  0
  4  1  1  0  0  0  0
  5  1  1  0  0  0  0
  5  9  1  1  0  0  0
  7  3  1  0  0  0  0
  8  7  1  0  0  0  0
  8  2  1  0  0  0  0
  9 20  1  1  0  0  0
 10  9  1  0  0  0  0
 12 17  1  0  0  0  0
 13 18  1  0  0  0  0
 15 14  1  1  0  0  0
 15 16  1  0  0  0  0
 16 11  1  6  0  0  0
 17 16  1  0  0  0  0
 17 10  1  1  0  0  0
 18 19  2  0  0  0  0
 18 12  1  0  0  0  0
 19 15  1  0  0  0  0
 20 21  1  0  0  0  0
 21 22  1  0  0  0  0
 22 24  1  0  0  0  0
 24 23  2  0  0  0  0
 25 24  1  0  0  0  0
 26 35  1  0  0  0  0
 27 33  1  0  0  0  0
 27 34  1  0  0  0  0
 28 33  1  0  0  0  0
 30 31  1  0  0  0  0
 31 29  2  0  0  0  0
 32 31  1  0  0  0  0
 33 30  2  0  0  0  0
 34 32  2  0  0  0  0
 35 27  2  0  0  0  0
M  END
>  <MODEL>
5

>  <REMARK>
 VINA RESULT:      -6.9      3.245      5.923
  Name = 
  9 active torsions:
  status: ('A' for Active; 'I' for Inactive)
    1  A    between atoms: N_6  and  C_23
    2  A    between atoms: N_6  and  C_24
    3  A    between atoms: C_10  and  O_30
    4  A    between atoms: C_15  and  O_35
    5  A    between atoms: C_16  and  C_24
    6  A    between atoms: C_22  and  C_24
    7  A    between atoms: C_22  and  C_28
    8  A    between atoms: C_28  and  O_30
    9  A    between atoms: C_34  and  O_35
                            x       y       z     vdW  Elec       q    Type
                         _______ _______ _______ _____ _____    ______ ____

>  <TORSDO>
F 9

$$$$
=
 OpenBabel11062420063D

 35 37  0  0  1  0  0  0  0  0999 V2000
  189.8780  175.7470  142.4550 C   0  0  0  0  0  2  0  0  0  0  0  0
  190.2420  173.3750  142.5270 O   0  0  0  0  0  0  0  0  0  0  0  0
  188.2730  174.7860  140.7700 C   0  0  0  0  0  0  0  0  0  0  0  0
  188.4720  175.8100  141.8490 C   0  0  1  0  0  3  0  0  0  0  0  0
  190.0660  174.5040  143.3380 C   0  0  1  0  0  3  0  0  0  0  0  0
  187.8930  175.1700  139.6330 O   0  0  0  0  0  0  0  0  0  0  0  0
  188.4720  173.3880  141.0090 N   0  0  0  0  0  2  0  0  0  0  0  0
  188.9590  172.8740  142.2830 C   0  0  0  0  0  2  0  0  0  0  0  0
  191.2710  174.6580  144.2690 C   0  0  2  0  0  3  0  0  0  0  0  0
  192.4230  173.9690  143.7000 N   0  0  0  0  0  2  0  0  0  0  0  0
  193.8810  174.9110  141.5030 C   0  0  0  0  0  1  0  0  0  0  0  0
  193.2430  176.0980  144.5870 C   0  0  0  0  0  2  0  0  0  0  0  0
  194.5660  177.4290  146.2670 N   0  0  0  0  0  1  0  0  0  0  0  0
  197.2030  175.5750  142.4740 Cl  0  0  0  0  0  0  0  0  0  0  0  0
  195.5530  176.0480  142.9420 C   0  0  1  0  0  3  0  0  0  0  0  0
  194.5990  174.8400  142.8420 C   0  0  1  0  0  3  0  0  0  0  0  0
  193.6210  174.7280  144.0360 C   0  0  2  0  0  3  0  0  0  0  0  0
  194.5030  176.7720  145.0060 C   0  0  0  0  0  0  0  0  0  0  0  0
  195.5650  176.6870  144.2620 N   0  0  0  0  0  0  0  0  0  0  0  0
  190.9800  174.0710  145.6420 C   0  0  0  0  0  2  0  0  0  0  0  0
  189.6130  174.5220  146.1140 C   0  0  0  0  0  2  0  0  0  0  0  0
  189.7530  175.3160  147.2820 O   0  0  0  0  0  0  0  0  0  0  0  0
  190.0630  177.4490  146.4540 O   0  0  0  0  0  0  0  0  0  0  0  0
  190.4100  176.5450  147.2580 C   0  0  0  0  0  0  0  0  0  0  0  0
  191.5230  176.7960  148.2050 C   0  0  0  0  0  1  0  0  0  0  0  0
  187.4740  175.6600  142.8500 O   0  0  0  0  0  0  0  0  0  0  0  0
  186.0040  177.0730  144.0690 C   0  0  0  0  0  0  0  0  0  0  0  0
  184.0100  178.2910  142.9350 C   0  0  0  0  0  1  0  0  0  0  0  0
  184.8970  178.6630  147.6360 O   0  0  0  0  0  0  0  0  0  0  0  0
  184.4440  178.4600  145.3210 C   0  0  0  0  0  3  0  0  0  0  0  0
  185.2160  178.1440  146.5350 C   0  0  0  0  0  0  0  0  0  0  0  0
  186.3550  177.2750  146.4500 N   0  0  0  0  0  0  0  0  0  0  0  0
  184.8180  177.9590  144.1450 C   0  0  0  0  0  0  0  0  0  0  0  0
  186.7410  176.7760  145.3150 C   0  0  0  0  0  3  0  0  0  0  0  0
  186.3860  176.5240  142.9130 C   0  0  0  0  0  3  0  0  0  0  0  0
  1  5  1  0  0  0  0
  2  5  1  0  0  0  0
  3  7  1  0  0  0  0
  3  4  1  0  0  0  0
  4  1  1  0  0  0  0
  4 26  1  1  0  0  0
  5  9  1  1  0  0  0
  6  3  2  0  0  0  0
  7  8  1  0  0  0  0
  8  2  1  0  0  0  0
  9 20  1  1  0  0  0
 10  9  1  0  0  0  0
 12 18  1  0  0  0  0
 15 14  1  1  0  0  0
 15 19  1  0  0  0  0
 16 11  1  6  0  0  0
 16 15  1  0  0  0  0
 16 17  1  0  0  0  0
 17 10  1  6  0  0  0
 17 12  1  0  0  0  0
 18 13  1  0  0  0  0
 19 18  2  0  0  0  0
 20 21  1  0  0  0  0
 21 22  1  0  0  0  0
 23 24  2  0  0  0  0
 24 22  1  0  0  0  0
 24 25  1  0  0  0  0
 26 35  1  0  0  0  0
 27 33  1  0  0  0  0
 27 34  1  0  0  0  0
 28 33  1  0  0  0  0
 30 31  1  0  0  0  0
 31 29  2  0  0  0  0
 32 31  1  0  0  0  0
 33 30  2  0  0  0  0
 34 32  2  0  0  0  0
 35 27  2  0  0  0  0
M  END
>  <MODEL>
6

>  <REMARK>
 VINA RESULT:      -6.9      2.588      6.140
  Name = 
  9 active torsions:
  status: ('A' for Active; 'I' for Inactive)
    1  A    between atoms: N_6  and  C_23
    2  A    between atoms: N_6  and  C_24
    3  A    between atoms: C_10  and  O_30
    4  A    between atoms: C_15  and  O_35
    5  A    between atoms: C_16  and  C_24
    6  A    between atoms: C_22  and  C_24
    7  A    between atoms: C_22  and  C_28
    8  A    between atoms: C_28  and  O_30
    9  A    between atoms: C_34  and  O_35
                            x       y       z     vdW  Elec       q    Type
                         _______ _______ _______ _____ _____    ______ ____

>  <TORSDO>
F 9

$$$$
=
 OpenBabel11062420063D

 35 37  0  0  1  0  0  0  0  0999 V2000
  191.9630  176.7450  144.1820 C   0  0  0  0  0  2  0  0  0  0  0  0
  191.1380  176.2510  146.3820 O   0  0  0  0  0  0  0  0  0  0  0  0
  193.9560  176.9890  145.7000 C   0  0  0  0  0  0  0  0  0  0  0  0
  193.4640  176.5000  144.3700 C   0  0  1  0  0  3  0  0  0  0  0  0
  191.1160  175.8050  145.0530 C   0  0  1  0  0  3  0  0  0  0  0  0
  194.9170  177.8030  145.7290 O   0  0  0  0  0  0  0  0  0  0  0  0
  193.3860  176.5320  146.9330 N   0  0  0  0  0  2  0  0  0  0  0  0
  192.2420  175.6310  146.9760 C   0  0  0  0  0  2  0  0  0  0  0  0
  189.6690  175.7400  144.5590 C   0  0  2  0  0  3  0  0  0  0  0  0
  188.7650  176.1440  145.6290 N   0  0  0  0  0  2  0  0  0  0  0  0
  187.3740  177.9080  147.3010 C   0  0  0  0  0  1  0  0  0  0  0  0
  188.0210  177.8130  143.9990 C   0  0  0  0  0  2  0  0  0  0  0  0
  186.7330  178.4640  141.9350 N   0  0  0  0  0  1  0  0  0  0  0  0
  184.0700  178.2970  146.1370 Cl  0  0  0  0  0  0  0  0  0  0  0  0
  185.7320  178.4870  145.5320 C   0  0  1  0  0  3  0  0  0  0  0  0
  186.6370  177.3670  146.0850 C   0  0  1  0  0  3  0  0  0  0  0  0
  187.5950  176.7700  145.0260 C   0  0  2  0  0  3  0  0  0  0  0  0
  186.7850  178.3310  143.3510 C   0  0  0  0  0  0  0  0  0  0  0  0
  185.7300  178.5780  144.0680 N   0  0  0  0  0  0  0  0  0  0  0  0
  189.3050  174.3300  144.1200 C   0  0  0  0  0  2  0  0  0  0  0  0
  190.1290  173.9400  142.9100 C   0  0  0  0  0  2  0  0  0  0  0  0
  189.8450  174.8240  141.8370 O   0  0  0  0  0  0  0  0  0  0  0  0
  187.8200  175.5130  140.9680 O   0  0  0  0  0  0  0  0  0  0  0  0
  188.7320  174.6480  141.0170 C   0  0  0  0  0  0  0  0  0  0  0  0
  188.6290  173.4290  140.1780 C   0  0  0  0  0  1  0  0  0  0  0  0
  193.7840  175.1240  144.2110 O   0  0  0  0  0  0  0  0  0  0  0  0
  195.2790  173.4310  144.9470 C   0  0  0  0  0  0  0  0  0  0  0  0
  197.8500  173.7910  144.9960 C   0  0  0  0  0  1  0  0  0  0  0  0
  195.8090  169.7110  146.4840 O   0  0  0  0  0  0  0  0  0  0  0  0
  196.8150  171.7330  145.7730 C   0  0  0  0  0  3  0  0  0  0  0  0
  195.6470  170.8780  146.0410 C   0  0  0  0  0  0  0  0  0  0  0  0
  194.3260  171.3650  145.7570 N   0  0  0  0  0  0  0  0  0  0  0  0
  196.6470  172.9450  145.2480 C   0  0  0  0  0  0  0  0  0  0  0  0
  194.1360  172.5410  145.2430 C   0  0  0  0  0  3  0  0  0  0  0  0
  195.0710  174.6540  144.4530 C   0  0  0  0  0  3  0  0  0  0  0  0
  1  4  1  0  0  0  0
  1  5  1  0  0  0  0
  2  8  1  0  0  0  0
  3  6  2  0  0  0  0
  3  7  1  0  0  0  0
  4 26  1  1  0  0  0
  4  3  1  0  0  0  0
  5  9  1  6  0  0  0
  5  2  1  0  0  0  0
  7  8  1  0  0  0  0
  9 20  1  1  0  0  0
  9 10  1  0  0  0  0
 12 17  1  0  0  0  0
 13 18  1  0  0  0  0
 15 16  1  0  0  0  0
 15 14  1  6  0  0  0
 16 11  1  1  0  0  0
 17 10  1  1  0  0  0
 17 16  1  0  0  0  0
 18 12  1  0  0  0  0
 18 19  2  0  0  0  0
 19 15  1  0  0  0  0
 21 20  1  0  0  0  0
 22 21  1  0  0  0  0
 23 24  2  0  0  0  0
 24 22  1  0  0  0  0
 25 24  1  0  0  0  0
 26 35  1  0  0  0  0
 27 34  1  0  0  0  0
 27 33  1  0  0  0  0
 28 33  1  0  0  0  0
 30 31  1  0  0  0  0
 31 29  2  0  0  0  0
 32 31  1  0  0  0  0
 33 30  2  0  0  0  0
 34 32  2  0  0  0  0
 35 27  2  0  0  0  0
M  END
>  <MODEL>
7

>  <REMARK>
 VINA RESULT:      -6.8      3.774      6.822
  Name = 
  9 active torsions:
  status: ('A' for Active; 'I' for Inactive)
    1  A    between atoms: N_6  and  C_23
    2  A    between atoms: N_6  and  C_24
    3  A    between atoms: C_10  and  O_30
    4  A    between atoms: C_15  and  O_35
    5  A    between atoms: C_16  and  C_24
    6  A    between atoms: C_22  and  C_24
    7  A    between atoms: C_22  and  C_28
    8  A    between atoms: C_28  and  O_30
    9  A    between atoms: C_34  and  O_35
                            x       y       z     vdW  Elec       q    Type
                         _______ _______ _______ _____ _____    ______ ____

>  <TORSDO>
F 9

$$$$
=
 OpenBabel11062420063D

 35 37  0  0  1  0  0  0  0  0999 V2000
  192.0970  177.1650  144.2570 C   0  0  0  0  0  2  0  0  0  0  0  0
  190.8060  176.7970  146.2470 O   0  0  0  0  0  0  0  0  0  0  0  0
  193.6380  175.9320  145.8210 C   0  0  0  0  0  0  0  0  0  0  0  0
  193.1730  176.0830  144.4020 C   0  0  1  0  0  3  0  0  0  0  0  0
  190.7520  176.7170  144.8490 C   0  0  1  0  0  3  0  0  0  0  0  0
  194.8680  176.0350  146.0690 O   0  0  0  0  0  0  0  0  0  0  0  0
  192.7280  175.6430  146.8880 N   0  0  0  0  0  2  0  0  0  0  0  0
  191.2870  175.5590  146.6850 C   0  0  0  0  0  2  0  0  0  0  0  0
  189.6000  177.5810  144.3310 C   0  0  2  0  0  3  0  0  0  0  0  0
  188.3390  176.8680  144.4950 N   0  0  0  0  0  2  0  0  0  0  0  0
  185.6640  176.4130  143.8050 C   0  0  0  0  0  1  0  0  0  0  0  0
  187.2290  177.4520  146.5970 C   0  0  0  0  0  2  0  0  0  0  0  0
  186.6690  179.1020  148.4160 N   0  0  0  0  0  1  0  0  0  0  0  0
  183.7730  179.3310  144.3740 Cl  0  0  0  0  0  0  0  0  0  0  0  0
  184.8430  178.2340  145.2770 C   0  0  1  0  0  3  0  0  0  0  0  0
  186.0150  177.7730  144.3860 C   0  0  1  0  0  3  0  0  0  0  0  0
  187.3800  177.7740  145.1150 C   0  0  2  0  0  3  0  0  0  0  0  0
  186.3230  178.4770  147.1850 C   0  0  0  0  0  0  0  0  0  0  0  0
  185.2660  178.8610  146.5340 N   0  0  0  0  0  0  0  0  0  0  0  0
  189.7850  177.9110  142.8570 C   0  0  0  0  0  2  0  0  0  0  0  0
  188.8000  177.1170  142.0250 C   0  0  0  0  0  2  0  0  0  0  0  0
  187.9600  178.0080  141.3060 O   0  0  0  0  0  0  0  0  0  0  0  0
  187.0610  176.5560  139.7530 O   0  0  0  0  0  0  0  0  0  0  0  0
  186.9110  177.5470  140.5140 C   0  0  0  0  0  0  0  0  0  0  0  0
  185.5930  178.2240  140.5810 C   0  0  0  0  0  1  0  0  0  0  0  0
  192.7150  174.8320  143.9060 O   0  0  0  0  0  0  0  0  0  0  0  0
  191.5900  174.1210  141.9380 C   0  0  0  0  0  0  0  0  0  0  0  0
  192.7960  173.9640  139.6430 C   0  0  0  0  0  1  0  0  0  0  0  0
  188.1920  172.7350  140.2030 O   0  0  0  0  0  0  0  0  0  0  0  0
  190.4700  173.3170  139.9320 C   0  0  0  0  0  3  0  0  0  0  0  0
  189.2570  173.1300  140.7440 C   0  0  0  0  0  0  0  0  0  0  0  0
  189.2830  173.4390  142.1460 N   0  0  0  0  0  0  0  0  0  0  0  0
  191.5810  173.7940  140.4920 C   0  0  0  0  0  0  0  0  0  0  0  0
  190.3510  173.9060  142.7150 C   0  0  0  0  0  3  0  0  0  0  0  0
  192.6960  174.5660  142.5410 C   0  0  0  0  0  3  0  0  0  0  0  0
  1  4  1  0  0  0  0
  1  5  1  0  0  0  0
  2  8  1  0  0  0  0
  3  6  2  0  0  0  0
  3  7  1  0  0  0  0
  4 26  1  1  0  0  0
  4  3  1  0  0  0  0
  5  9  1  6  0  0  0
  5  2  1  0  0  0  0
  8  7  1  0  0  0  0
  9 20  1  6  0  0  0
  9 10  1  0  0  0  0
 12 18  1  0  0  0  0
 15 14  1  6  0  0  0
 15 19  1  0  0  0  0
 16 11  1  1  0  0  0
 16 17  1  0  0  0  0
 16 15  1  0  0  0  0
 17 10  1  6  0  0  0
 17 12  1  0  0  0  0
 18 13  1  0  0  0  0
 19 18  2  0  0  0  0
 21 20  1  0  0  0  0
 22 21  1  0  0  0  0
 23 24  2  0  0  0  0
 24 25  1  0  0  0  0
 24 22  1  0  0  0  0
 27 35  2  0  0  0  0
 27 34  1  0  0  0  0
 28 33  1  0  0  0  0
 29 31  2  0  0  0  0
 30 33  2  0  0  0  0
 30 31  1  0  0  0  0
 31 32  1  0  0  0  0
 32 34  2  0  0  0  0
 33 27  1  0  0  0  0
 35 26  1  0  0  0  0
M  END
>  <MODEL>
8

>  <REMARK>
 VINA RESULT:      -6.8      2.972      5.651
  Name = 
  9 active torsions:
  status: ('A' for Active; 'I' for Inactive)
    1  A    between atoms: N_6  and  C_23
    2  A    between atoms: N_6  and  C_24
    3  A    between atoms: C_10  and  O_30
    4  A    between atoms: C_15  and  O_35
    5  A    between atoms: C_16  and  C_24
    6  A    between atoms: C_22  and  C_24
    7  A    between atoms: C_22  and  C_28
    8  A    between atoms: C_28  and  O_30
    9  A    between atoms: C_34  and  O_35
                            x       y       z     vdW  Elec       q    Type
                         _______ _______ _______ _____ _____    ______ ____

>  <TORSDO>
F 9

$$$$
=
 OpenBabel11062420063D

 35 37  0  0  1  0  0  0  0  0999 V2000
  190.6020  177.0610  143.8690 C   0  0  0  0  0  2  0  0  0  0  0  0
  190.1520  176.4960  146.1590 O   0  0  0  0  0  0  0  0  0  0  0  0
  192.8460  176.4910  144.8570 C   0  0  0  0  0  0  0  0  0  0  0  0
  191.9540  176.3700  143.6570 C   0  0  1  0  0  3  0  0  0  0  0  0
  189.7080  176.2830  144.8460 C   0  0  1  0  0  3  0  0  0  0  0  0
  193.9960  176.9810  144.7100 O   0  0  0  0  0  0  0  0  0  0  0  0
  192.4380  176.0350  146.1520 N   0  0  0  0  0  2  0  0  0  0  0  0
  191.1050  175.5040  146.4080 C   0  0  0  0  0  2  0  0  0  0  0  0
  188.2440  176.7100  144.7250 C   0  0  2  0  0  3  0  0  0  0  0  0
  188.1450  177.8900  143.8740 N   0  0  0  0  0  2  0  0  0  0  0  0
  186.0510  179.7440  143.7390 C   0  0  0  0  0  1  0  0  0  0  0  0
  187.7320  177.9230  141.4610 C   0  0  0  0  0  2  0  0  0  0  0  0
  187.0950  176.7730  139.3130 N   0  0  0  0  0  1  0  0  0  0  0  0
  183.2770  178.2930  142.1210 Cl  0  0  0  0  0  0  0  0  0  0  0  0
  184.9990  178.6030  141.8020 C   0  0  1  0  0  3  0  0  0  0  0  0
  185.8300  178.3890  143.0840 C   0  0  1  0  0  3  0  0  0  0  0  0
  187.1530  177.6240  142.8390 C   0  0  2  0  0  3  0  0  0  0  0  0
  186.7080  177.5300  140.4540 C   0  0  0  0  0  0  0  0  0  0  0  0
  185.4550  177.8030  140.6600 N   0  0  0  0  0  0  0  0  0  0  0  0
  187.6570  177.0420  146.0890 C   0  0  0  0  0  2  0  0  0  0  0  0
  186.2250  176.5560  146.1640 C   0  0  0  0  0  2  0  0  0  0  0  0
  185.5690  177.1760  147.2590 O   0  0  0  0  0  0  0  0  0  0  0  0
  185.4370  179.4130  147.8160 O   0  0  0  0  0  0  0  0  0  0  0  0
  184.9960  178.4410  147.1480 C   0  0  0  0  0  0  0  0  0  0  0  0
  183.8590  178.6500  146.2180 C   0  0  0  0  0  1  0  0  0  0  0  0
  191.7830  175.0010  143.3150 O   0  0  0  0  0  0  0  0  0  0  0  0
  190.9480  174.1010  141.2810 C   0  0  0  0  0  0  0  0  0  0  0  0
  192.5010  173.5810  139.2650 C   0  0  0  0  0  1  0  0  0  0  0  0
  187.7870  172.6870  139.1620 O   0  0  0  0  0  0  0  0  0  0  0  0
  190.1170  173.1050  139.2220 C   0  0  0  0  0  3  0  0  0  0  0  0
  188.7750  173.0910  139.8280 C   0  0  0  0  0  0  0  0  0  0  0  0
  188.5930  173.5780  141.1670 N   0  0  0  0  0  0  0  0  0  0  0  0
  191.1530  173.5890  139.9050 C   0  0  0  0  0  0  0  0  0  0  0  0
  189.5850  174.0580  141.8520 C   0  0  0  0  0  3  0  0  0  0  0  0
  191.9690  174.5610  142.0080 C   0  0  0  0  0  3  0  0  0  0  0  0
  1  5  1  0  0  0  0
  2  8  1  0  0  0  0
  3  7  1  0  0  0  0
  4 26  1  1  0  0  0
  4  1  1  0  0  0  0
  4  3  1  0  0  0  0
  5  9  1  1  0  0  0
  5  2  1  0  0  0  0
  6  3  2  0  0  0  0
  7  8  1  0  0  0  0
  9 20  1  1  0  0  0
 10  9  1  0  0  0  0
 12 17  1  0  0  0  0
 13 18  1  0  0  0  0
 15 14  1  1  0  0  0
 15 16  1  0  0  0  0
 16 11  1  6  0  0  0
 17 16  1  0  0  0  0
 17 10  1  1  0  0  0
 18 19  2  0  0  0  0
 18 12  1  0  0  0  0
 19 15  1  0  0  0  0
 20 21  1  0  0  0  0
 21 22  1  0  0  0  0
 24 22  1  0  0  0  0
 24 23  2  0  0  0  0
 25 24  1  0  0  0  0
 27 34  1  0  0  0  0
 27 35  2  0  0  0  0
 28 33  1  0  0  0  0
 29 31  2  0  0  0  0
 30 31  1  0  0  0  0
 30 33  2  0  0  0  0
 31 32  1  0  0  0  0
 32 34  2  0  0  0  0
 33 27  1  0  0  0  0
 35 26  1  0  0  0  0
M  END
>  <MODEL>
9

>  <REMARK>
 VINA RESULT:      -6.7      2.845      5.091
  Name = 
  9 active torsions:
  status: ('A' for Active; 'I' for Inactive)
    1  A    between atoms: N_6  and  C_23
    2  A    between atoms: N_6  and  C_24
    3  A    between atoms: C_10  and  O_30
    4  A    between atoms: C_15  and  O_35
    5  A    between atoms: C_16  and  C_24
    6  A    between atoms: C_22  and  C_24
    7  A    between atoms: C_22  and  C_28
    8  A    between atoms: C_28  and  O_30
    9  A    between atoms: C_34  and  O_35
                            x       y       z     vdW  Elec       q    Type
                         _______ _______ _______ _____ _____    ______ ____

>  <TORSDO>
F 9

$$$$
