=
 OpenBabel11062420253D

 49 55  0  0  1  0  0  0  0  0999 V2000
  190.3090  171.9090  137.9790 C   0  0  0  0  0  3  0  0  0  0  0  0
  193.8480  175.5650  143.3090 C   0  0  0  0  0  3  0  0  0  0  0  0
  188.0180  175.8620  140.9150 O   0  0  0  0  0  0  0  0  0  0  0  0
  192.8030  175.2420  142.4190 C   0  0  0  0  0  0  0  0  0  0  0  0
  191.9220  174.1680  140.3550 C   0  0  2  0  0  3  0  0  0  0  0  0
  190.7140  174.0920  141.1040 O   0  0  0  0  0  0  0  0  0  0  0  0
  187.8260  174.8900  141.8650 C   0  0  1  0  0  3  0  0  0  0  0  0
  191.2580  176.4560  143.9080 C   0  0  0  0  0  0  0  0  0  0  0  0
  192.0840  172.8560  139.6510 C   0  0  0  0  0  3  0  0  0  0  0  0
  193.0800  174.5290  141.2800 C   0  0  1  0  0  3  0  0  0  0  0  0
  191.1910  172.4220  138.8010 C   0  0  0  0  0  0  0  0  0  0  0  0
  191.4580  175.5840  142.7960 C   0  0  0  0  0  0  0  0  0  0  0  0
  188.1930  173.4260  139.7530 N   0  0  0  0  0  0  0  0  0  0  0  0
  192.3130  176.6970  144.7770 C   0  0  0  0  0  3  0  0  0  0  0  0
  188.5280  173.7080  138.3680 C   0  0  0  0  0  2  0  0  0  0  0  0
  193.5920  176.2240  144.5170 C   0  0  0  0  0  0  0  0  0  0  0  0
  190.4360  174.9140  142.1940 C   0  0  2  0  0  3  0  0  0  0  0  0
  189.0280  172.5030  137.7250 N   0  0  0  0  0  2  0  0  0  0  0  0
  188.0460  174.3930  140.5950 C   0  0  0  0  0  0  0  0  0  0  0  0
  189.0550  174.7890  142.8020 C   0  0  0  0  0  2  0  0  0  0  0  0
  190.0120  177.2380  144.1410 C   0  0  0  0  0  0  0  0  0  0  0  0
  189.4820  177.8690  143.1890 O   0  0  0  0  0  0  0  0  0  0  0  0
  189.4580  177.4340  145.5220 C   0  0  0  0  0  2  0  0  0  0  0  0
  185.2080  177.0130  146.5120 N   0  0  0  0  0  0  0  0  0  0  0  0
  186.4070  177.0960  146.0340 C   0  0  0  0  0  0  0  0  0  0  0  0
  187.4110  176.1210  146.3470 N   0  0  0  0  0  2  0  0  0  0  0  0
  189.5140  175.1450  146.2460 O   0  0  0  0  0  0  0  0  0  0  0  0
  188.8170  176.1840  146.0630 C   0  0  0  0  0  0  0  0  0  0  0  0
  185.2440  178.8870  145.2430 N   0  0  0  0  0  0  0  0  0  0  0  0
  184.5140  178.1440  146.0090 C   0  0  0  0  0  3  0  0  0  0  0  0
  186.5720  178.2930  145.1630 C   0  0  0  0  0  2  0  0  0  0  0  0
  194.6640  176.4460  145.5030 C   0  0  0  0  0  0  0  0  0  0  0  0
  194.9420  177.6290  145.8700 O   0  0  0  0  0  0  0  0  0  0  0  0
  195.3350  175.3540  146.0780 O   0  0  0  0  0  0  0  0  0  0  0  0
  196.4030  174.7090  145.3830 C   0  0  0  0  0  2  0  0  0  0  0  0
  197.1150  173.7590  146.3210 C   0  0  0  0  0  1  0  0  0  0  0  0
  194.8340  175.2530  139.6360 C   0  0  0  0  0  1  0  0  0  0  0  0
  194.5320  174.3650  140.8340 C   0  0  2  0  0  3  0  0  0  0  0  0
  194.8440  173.0450  140.4900 O   0  0  0  0  0  0  0  0  0  0  0  0
  195.2390  172.4350  141.6840 C   0  0  0  0  0  2  0  0  0  0  0  0
  194.5240  171.0920  141.8440 C   0  0  0  0  0  2  0  0  0  0  0  0
  194.5120  171.9020  144.2580 C   0  0  1  0  0  3  0  0  0  0  0  0
  193.4410  172.2890  145.2870 C   0  0  0  0  0  2  0  0  0  0  0  0
  195.4370  170.8990  144.9280 C   0  0  0  0  0  2  0  0  0  0  0  0
  191.7350  171.7180  143.4480 C   0  0  0  0  0  2  0  0  0  0  0  0
  194.0550  170.8050  143.2830 C   0  0  1  0  0  0  0  0  0  0  0  0
  192.5670  170.4410  143.4090 C   0  0  0  0  0  2  0  0  0  0  0  0
  194.9510  169.8010  143.9900 C   0  0  0  0  0  2  0  0  0  0  0  0
  192.0880  172.6170  144.6400 C   0  0  0  0  0  2  0  0  0  0  0  0
  1 11  2  0  0  0  0
  2 16  1  0  0  0  0
  3  7  1  0  0  0  0
  4 12  1  0  0  0  0
  4  2  2  0  0  0  0
  5  9  1  1  0  0  0
  5  6  1  0  0  0  0
  5 10  1  0  0  0  0
  6 17  1  0  0  0  0
  7 20  1  1  0  0  0
  8 21  1  0  0  0  0
  8 14  1  0  0  0  0
 10 38  1  6  0  0  0
 10  4  1  0  0  0  0
 11  9  2  0  0  0  0
 12  8  2  0  0  0  0
 13 19  2  0  0  0  0
 15 13  1  0  0  0  0
 16 14  2  0  0  0  0
 16 32  1  0  0  0  0
 17 12  1  0  0  0  0
 17 20  1  1  0  0  0
 18  1  1  0  0  0  0
 18 15  1  0  0  0  0
 19  3  1  0  0  0  0
 19  7  1  0  0  0  0
 21 23  1  0  0  0  0
 22 21  2  0  0  0  0
 23 28  1  0  0  0  0
 25 26  1  0  0  0  0
 25 24  2  0  0  0  0
 28 27  2  0  0  0  0
 28 26  1  0  0  0  0
 29 30  2  0  0  0  0
 30 24  1  0  0  0  0
 31 29  1  0  0  0  0
 31 25  1  0  0  0  0
 32 33  2  0  0  0  0
 32 34  1  0  0  0  0
 35 34  1  0  0  0  0
 35 36  1  0  0  0  0
 38 37  1  6  0  0  0
 39 38  1  0  0  0  0
 39 40  1  0  0  0  0
 40 41  1  0  0  0  0
 42 44  1  1  0  0  0
 42 43  1  0  0  0  0
 45 49  1  0  0  0  0
 46 41  1  6  0  0  0
 46 47  1  0  0  0  0
 46 48  1  0  0  0  0
 46 42  1  0  0  0  0
 47 45  1  0  0  0  0
 48 44  1  0  0  0  0
 49 43  1  0  0  0  0
M  END
>  <MODEL>
1

>  <REMARK>
 VINA RESULT:      -7.2      0.000      0.000
  Name = 
  11 active torsions:
  status: ('A' for Active; 'I' for Inactive)
    1  A    between atoms: C_6  and  O_13
    2  A    between atoms: C_12  and  C_21
    3  A    between atoms: O_13  and  C_23
    4  A    between atoms: C_17  and  C_39
    5  A    between atoms: C_21  and  C_48
    6  A    between atoms: C_23  and  C_28
    7  A    between atoms: C_24  and  C_32
    8  A    between atoms: C_24  and  C_47
    9  A    between atoms: C_36  and  C_48
   10  A    between atoms: C_39  and  O_45
   11  A    between atoms: O_45  and  C_47
                            x       y       z     vdW  Elec       q    Type
                         _______ _______ _______ _____ _____    ______ ____

>  <TORSDO>
F 11

$$$$
=
 OpenBabel11062420253D

 49 55  0  0  1  0  0  0  0  0999 V2000
  191.6080  173.4670  137.4340 C   0  0  0  0  0  3  0  0  0  0  0  0
  190.7360  174.6010  144.6630 C   0  0  0  0  0  3  0  0  0  0  0  0
  195.7310  174.5240  140.8080 O   0  0  0  0  0  0  0  0  0  0  0  0
  191.4200  174.4170  143.4430 C   0  0  0  0  0  0  0  0  0  0  0  0
  191.5410  173.6370  141.0830 C   0  0  2  0  0  3  0  0  0  0  0  0
  192.5080  174.6740  140.9600 O   0  0  0  0  0  0  0  0  0  0  0  0
  195.3570  175.8380  140.6720 C   0  0  1  0  0  3  0  0  0  0  0  0
  193.3890  175.4880  144.4680 C   0  0  0  0  0  0  0  0  0  0  0  0
  190.6710  173.7010  139.8650 C   0  0  0  0  0  3  0  0  0  0  0  0
  190.7850  173.7910  142.4000 C   0  0  1  0  0  3  0  0  0  0  0  0
  191.1660  173.5540  138.6640 C   0  0  0  0  0  0  0  0  0  0  0  0
  192.7300  174.9910  143.3030 C   0  0  0  0  0  0  0  0  0  0  0  0
  194.2230  174.8000  138.5800 N   0  0  0  0  0  0  0  0  0  0  0  0
  192.6520  175.6950  145.6260 C   0  0  0  0  0  3  0  0  0  0  0  0
  194.0920  173.4500  138.0610 C   0  0  0  0  0  2  0  0  0  0  0  0
  191.3240  175.3010  145.7230 C   0  0  0  0  0  0  0  0  0  0  0  0
  193.2030  175.2060  142.0440 C   0  0  2  0  0  3  0  0  0  0  0  0
  193.0020  173.3920  137.1000 N   0  0  0  0  0  2  0  0  0  0  0  0
  194.8890  175.0170  139.6640 C   0  0  0  0  0  0  0  0  0  0  0  0
  194.2860  176.2150  141.7250 C   0  0  0  0  0  2  0  0  0  0  0  0
  194.8610  175.6900  144.5710 C   0  0  0  0  0  0  0  0  0  0  0  0
  195.3270  176.8500  144.7190 O   0  0  0  0  0  0  0  0  0  0  0  0
  195.8230  174.5610  144.3360 C   0  0  0  0  0  2  0  0  0  0  0  0
  193.8120  170.6980  144.8350 N   0  0  0  0  0  0  0  0  0  0  0  0
  194.5420  171.7360  144.5860 C   0  0  0  0  0  0  0  0  0  0  0  0
  195.2780  172.4040  145.6190 N   0  0  0  0  0  2  0  0  0  0  0  0
  196.7130  174.0040  146.4950 O   0  0  0  0  0  0  0  0  0  0  0  0
  195.9590  173.6660  145.5380 C   0  0  0  0  0  0  0  0  0  0  0  0
  193.5920  171.0940  142.6170 N   0  0  0  0  0  0  0  0  0  0  0  0
  193.2300  170.3280  143.5950 C   0  0  0  0  0  3  0  0  0  0  0  0
  194.4960  172.1080  143.1440 C   0  0  0  0  0  2  0  0  0  0  0  0
  190.5640  175.6040  146.9470 C   0  0  0  0  0  0  0  0  0  0  0  0
  189.7870  174.7260  147.4350 O   0  0  0  0  0  0  0  0  0  0  0  0
  190.7380  176.8330  147.6050 O   0  0  0  0  0  0  0  0  0  0  0  0
  191.6330  176.9440  148.7110 C   0  0  0  0  0  2  0  0  0  0  0  0
  191.3040  178.1910  149.5040 C   0  0  0  0  0  1  0  0  0  0  0  0
  189.7110  171.5300  142.6030 C   0  0  0  0  0  1  0  0  0  0  0  0
  189.4840  173.0350  142.6600 C   0  0  2  0  0  3  0  0  0  0  0  0
  188.4780  173.3590  141.7440 O   0  0  0  0  0  0  0  0  0  0  0  0
  187.7710  174.4140  142.3300 C   0  0  0  0  0  2  0  0  0  0  0  0
  187.8000  175.6350  141.4080 C   0  0  0  0  0  2  0  0  0  0  0  0
  187.3180  176.7610  143.6400 C   0  0  1  0  0  3  0  0  0  0  0  0
  188.0310  177.7810  144.5390 C   0  0  0  0  0  2  0  0  0  0  0  0
  185.8950  177.2570  143.4390 C   0  0  0  0  0  2  0  0  0  0  0  0
  189.8670  177.8040  142.7370 C   0  0  0  0  0  2  0  0  0  0  0  0
  187.5870  176.9730  142.1420 C   0  0  1  0  0  0  0  0  0  0  0  0
  188.6530  178.0400  141.8460 C   0  0  0  0  0  2  0  0  0  0  0  0
  186.1760  177.5090  141.9630 C   0  0  0  0  0  2  0  0  0  0  0  0
  189.5310  177.8970  144.2310 C   0  0  0  0  0  2  0  0  0  0  0  0
  1 11  2  0  0  0  0
  2 16  1  0  0  0  0
  4  2  2  0  0  0  0
  5  9  1  6  0  0  0
  5 10  1  0  0  0  0
  6  5  1  0  0  0  0
  6 17  1  0  0  0  0
  7  3  1  0  0  0  0
  7 20  1  1  0  0  0
  8 21  1  0  0  0  0
  8 14  1  0  0  0  0
 10 38  1  1  0  0  0
 10  4  1  0  0  0  0
 11  9  2  0  0  0  0
 12  4  1  0  0  0  0
 12  8  2  0  0  0  0
 13 19  2  0  0  0  0
 14 16  2  0  0  0  0
 15 13  1  0  0  0  0
 16 32  1  0  0  0  0
 17 20  1  6  0  0  0
 17 12  1  0  0  0  0
 18  1  1  0  0  0  0
 18 15  1  0  0  0  0
 19  7  1  0  0  0  0
 19  3  1  0  0  0  0
 21 22  2  0  0  0  0
 23 21  1  0  0  0  0
 23 28  1  0  0  0  0
 25 24  2  0  0  0  0
 25 26  1  0  0  0  0
 28 26  1  0  0  0  0
 28 27  2  0  0  0  0
 29 31  1  0  0  0  0
 29 30  2  0  0  0  0
 30 24  1  0  0  0  0
 31 25  1  0  0  0  0
 32 33  2  0  0  0  0
 32 34  1  0  0  0  0
 34 35  1  0  0  0  0
 35 36  1  0  0  0  0
 38 37  1  6  0  0  0
 39 40  1  0  0  0  0
 39 38  1  0  0  0  0
 41 40  1  0  0  0  0
 42 44  1  6  0  0  0
 42 43  1  0  0  0  0
 45 49  1  0  0  0  0
 46 41  1  6  0  0  0
 46 42  1  0  0  0  0
 47 46  1  0  0  0  0
 47 45  1  0  0  0  0
 48 46  1  0  0  0  0
 48 44  1  0  0  0  0
 49 43  1  0  0  0  0
M  END
>  <MODEL>
2

>  <REMARK>
 VINA RESULT:      -7.2      3.209      6.885
  Name = 
  11 active torsions:
  status: ('A' for Active; 'I' for Inactive)
    1  A    between atoms: C_6  and  O_13
    2  A    between atoms: C_12  and  C_21
    3  A    between atoms: O_13  and  C_23
    4  A    between atoms: C_17  and  C_39
    5  A    between atoms: C_21  and  C_48
    6  A    between atoms: C_23  and  C_28
    7  A    between atoms: C_24  and  C_32
    8  A    between atoms: C_24  and  C_47
    9  A    between atoms: C_36  and  C_48
   10  A    between atoms: C_39  and  O_45
   11  A    between atoms: O_45  and  C_47
                            x       y       z     vdW  Elec       q    Type
                         _______ _______ _______ _____ _____    ______ ____

>  <TORSDO>
F 11

$$$$
=
 OpenBabel11062420253D

 49 55  0  0  1  0  0  0  0  0999 V2000
  190.1140  175.0480  147.5860 C   0  0  0  0  0  3  0  0  0  0  0  0
  190.4530  173.6970  140.3500 C   0  0  0  0  0  3  0  0  0  0  0  0
  194.3320  176.4780  144.4780 O   0  0  0  0  0  0  0  0  0  0  0  0
  190.8460  174.2150  141.6020 C   0  0  0  0  0  0  0  0  0  0  0  0
  190.3730  174.9070  143.9440 C   0  0  2  0  0  3  0  0  0  0  0  0
  191.7420  174.5750  144.1480 O   0  0  0  0  0  0  0  0  0  0  0  0
  194.7370  175.1740  144.6260 C   0  0  1  0  0  3  0  0  0  0  0  0
  193.1380  174.4190  140.7170 C   0  0  0  0  0  0  0  0  0  0  0  0
  189.6110  174.3620  145.1130 C   0  0  0  0  0  3  0  0  0  0  0  0
  189.9090  174.3760  142.5920 C   0  0  1  0  0  3  0  0  0  0  0  0
  189.8690  174.7440  146.3360 C   0  0  0  0  0  0  0  0  0  0  0  0
  192.2440  174.4570  141.8300 C   0  0  0  0  0  0  0  0  0  0  0  0
  193.0930  175.3920  146.6240 N   0  0  0  0  0  0  0  0  0  0  0  0
  192.7080  173.8520  139.5240 C   0  0  0  0  0  3  0  0  0  0  0  0
  192.2090  176.4400  147.1000 C   0  0  0  0  0  2  0  0  0  0  0  0
  191.3930  173.4480  139.3430 C   0  0  0  0  0  0  0  0  0  0  0  0
  192.6800  174.5270  143.1190 C   0  0  2  0  0  3  0  0  0  0  0  0
  191.2120  175.8760  147.9970 N   0  0  0  0  0  2  0  0  0  0  0  0
  193.8330  175.5890  145.5840 C   0  0  0  0  0  0  0  0  0  0  0  0
  194.1180  174.2790  143.5240 C   0  0  0  0  0  2  0  0  0  0  0  0
  194.4790  175.0650  140.7020 C   0  0  0  0  0  0  0  0  0  0  0  0
  194.5870  176.2930  140.9570 O   0  0  0  0  0  0  0  0  0  0  0  0
  195.6970  174.3260  140.2270 C   0  0  0  0  0  2  0  0  0  0  0  0
  197.9400  172.8460  143.6900 N   0  0  0  0  0  0  0  0  0  0  0  0
  197.3750  173.1440  142.5650 C   0  0  0  0  0  0  0  0  0  0  0  0
  197.6570  174.3740  141.8840 N   0  0  0  0  0  2  0  0  0  0  0  0
  197.4830  175.9300  140.1720 O   0  0  0  0  0  0  0  0  0  0  0  0
  196.9720  174.9300  140.7510 C   0  0  0  0  0  0  0  0  0  0  0  0
  196.5670  171.1130  143.2040 N   0  0  0  0  0  0  0  0  0  0  0  0
  197.4110  171.5840  144.0640 C   0  0  0  0  0  3  0  0  0  0  0  0
  196.4400  172.0740  142.1160 C   0  0  0  0  0  2  0  0  0  0  0  0
  191.0010  172.7890  138.0860 C   0  0  0  0  0  0  0  0  0  0  0  0
  191.8900  172.2390  137.3640 O   0  0  0  0  0  0  0  0  0  0  0  0
  189.6480  172.7160  137.7150 O   0  0  0  0  0  0  0  0  0  0  0  0
  189.0650  173.7260  136.8910 C   0  0  0  0  0  2  0  0  0  0  0  0
  188.0340  174.4950  137.6880 C   0  0  0  0  0  1  0  0  0  0  0  0
  188.0320  172.8610  141.8920 C   0  0  0  0  0  1  0  0  0  0  0  0
  188.4250  174.2910  142.2400 C   0  0  2  0  0  3  0  0  0  0  0  0
  188.0780  175.1130  141.1620 O   0  0  0  0  0  0  0  0  0  0  0  0
  187.7770  176.3550  141.7280 C   0  0  0  0  0  2  0  0  0  0  0  0
  186.6700  176.1960  142.7730 C   0  0  0  0  0  2  0  0  0  0  0  0
  184.9830  177.6880  143.9590 C   0  0  1  0  0  3  0  0  0  0  0  0
  184.7140  178.1150  145.4090 C   0  0  0  0  0  2  0  0  0  0  0  0
  185.0440  178.9560  143.1220 C   0  0  0  0  0  2  0  0  0  0  0  0
  186.7420  176.6530  146.0180 C   0  0  0  0  0  2  0  0  0  0  0  0
  186.4700  177.4390  143.6610 C   0  0  1  0  0  0  0  0  0  0  0  0
  187.3700  177.4860  144.9060 C   0  0  0  0  0  2  0  0  0  0  0  0
  186.5290  178.7310  142.8640 C   0  0  0  0  0  2  0  0  0  0  0  0
  185.3600  177.1720  146.4350 C   0  0  0  0  0  2  0  0  0  0  0  0
  1 18  1  0  0  0  0
  2  4  1  0  0  0  0
  3  7  1  0  0  0  0
  3 19  1  0  0  0  0
  4 12  2  0  0  0  0
  4 10  1  0  0  0  0
  5  6  1  0  0  0  0
  5  9  1  1  0  0  0
  7 20  1  6  0  0  0
  7 19  1  0  0  0  0
  8 12  1  0  0  0  0
  9 11  2  0  0  0  0
 10 38  1  6  0  0  0
 10  5  1  0  0  0  0
 11  1  2  0  0  0  0
 12 17  1  0  0  0  0
 13 15  1  0  0  0  0
 14  8  2  0  0  0  0
 15 18  1  0  0  0  0
 16 14  1  0  0  0  0
 16  2  2  0  0  0  0
 17 20  1  1  0  0  0
 17  6  1  0  0  0  0
 19 13  2  0  0  0  0
 21  8  1  0  0  0  0
 21 22  2  0  0  0  0
 23 21  1  0  0  0  0
 23 28  1  0  0  0  0
 24 30  1  0  0  0  0
 25 24  2  0  0  0  0
 26 25  1  0  0  0  0
 27 28  2  0  0  0  0
 28 26  1  0  0  0  0
 29 30  2  0  0  0  0
 31 25  1  0  0  0  0
 31 29  1  0  0  0  0
 32 16  1  0  0  0  0
 33 32  2  0  0  0  0
 34 32  1  0  0  0  0
 35 36  1  0  0  0  0
 35 34  1  0  0  0  0
 38 37  1  6  0  0  0
 39 40  1  0  0  0  0
 39 38  1  0  0  0  0
 40 41  1  0  0  0  0
 42 44  1  6  0  0  0
 42 43  1  0  0  0  0
 43 49  1  0  0  0  0
 45 49  1  0  0  0  0
 46 41  1  6  0  0  0
 46 42  1  0  0  0  0
 46 47  1  0  0  0  0
 47 45  1  0  0  0  0
 48 44  1  0  0  0  0
 48 46  1  0  0  0  0
M  END
>  <MODEL>
3

>  <REMARK>
 VINA RESULT:      -6.9      3.234      9.015
  Name = 
  11 active torsions:
  status: ('A' for Active; 'I' for Inactive)
    1  A    between atoms: C_6  and  O_13
    2  A    between atoms: C_12  and  C_21
    3  A    between atoms: O_13  and  C_23
    4  A    between atoms: C_17  and  C_39
    5  A    between atoms: C_21  and  C_48
    6  A    between atoms: C_23  and  C_28
    7  A    between atoms: C_24  and  C_32
    8  A    between atoms: C_24  and  C_47
    9  A    between atoms: C_36  and  C_48
   10  A    between atoms: C_39  and  O_45
   11  A    between atoms: O_45  and  C_47
                            x       y       z     vdW  Elec       q    Type
                         _______ _______ _______ _____ _____    ______ ____

>  <TORSDO>
F 11

$$$$
=
 OpenBabel11062420253D

 49 55  0  0  1  0  0  0  0  0999 V2000
  190.0700  175.0580  147.5690 C   0  0  0  0  0  3  0  0  0  0  0  0
  190.3740  173.7080  140.3310 C   0  0  0  0  0  3  0  0  0  0  0  0
  194.3090  176.4130  144.4560 O   0  0  0  0  0  0  0  0  0  0  0  0
  190.7780  174.2170  141.5830 C   0  0  0  0  0  0  0  0  0  0  0  0
  190.3220  174.9160  143.9260 C   0  0  2  0  0  3  0  0  0  0  0  0
  191.6850  174.5590  144.1280 O   0  0  0  0  0  0  0  0  0  0  0  0
  194.6910  175.1030  144.6020 C   0  0  1  0  0  3  0  0  0  0  0  0
  193.0730  174.3800  140.6940 C   0  0  0  0  0  0  0  0  0  0  0  0
  189.5510  174.3830  145.0960 C   0  0  0  0  0  3  0  0  0  0  0  0
  189.8460  174.3940  142.5740 C   0  0  1  0  0  3  0  0  0  0  0  0
  189.8180  174.7600  146.3180 C   0  0  0  0  0  0  0  0  0  0  0  0
  192.1810  174.4340  141.8090 C   0  0  0  0  0  0  0  0  0  0  0  0
  193.0540  175.3480  146.6020 N   0  0  0  0  0  0  0  0  0  0  0  0
  192.6310  173.8230  139.5020 C   0  0  0  0  0  3  0  0  0  0  0  0
  192.1900  176.4120  147.0810 C   0  0  0  0  0  2  0  0  0  0  0  0
  191.3080  173.4430  139.3220 C   0  0  0  0  0  0  0  0  0  0  0  0
  192.6200  174.4940  143.0970 C   0  0  2  0  0  3  0  0  0  0  0  0
  191.1840  175.8650  147.9790 N   0  0  0  0  0  2  0  0  0  0  0  0
  193.7960  175.5330  145.5620 C   0  0  0  0  0  0  0  0  0  0  0  0
  194.0540  174.2200  143.5000 C   0  0  0  0  0  2  0  0  0  0  0  0
  194.4260  175.0010  140.6780 C   0  0  0  0  0  0  0  0  0  0  0  0
  194.5450  176.2480  140.8070 O   0  0  0  0  0  0  0  0  0  0  0  0
  195.6500  174.1990  140.3450 C   0  0  0  0  0  2  0  0  0  0  0  0
  197.9230  175.5680  136.8560 N   0  0  0  0  0  0  0  0  0  0  0  0
  197.1390  175.3230  137.8550 C   0  0  0  0  0  0  0  0  0  0  0  0
  197.5860  175.4480  139.2110 N   0  0  0  0  0  2  0  0  0  0  0  0
  197.3720  175.3900  141.5210 O   0  0  0  0  0  0  0  0  0  0  0  0
  196.9070  175.0250  140.4040 C   0  0  0  0  0  0  0  0  0  0  0  0
  195.9400  174.9560  135.9530 N   0  0  0  0  0  0  0  0  0  0  0  0
  197.1520  175.3230  135.6900 C   0  0  0  0  0  3  0  0  0  0  0  0
  195.7810  174.9120  137.4010 C   0  0  0  0  0  2  0  0  0  0  0  0
  190.9020  172.7920  138.0650 C   0  0  0  0  0  0  0  0  0  0  0  0
  190.9690  173.4400  136.9740 O   0  0  0  0  0  0  0  0  0  0  0  0
  190.5010  171.4460  138.0610 O   0  0  0  0  0  0  0  0  0  0  0  0
  191.3750  170.4250  138.5410 C   0  0  0  0  0  2  0  0  0  0  0  0
  190.8420  169.8750  139.8460 C   0  0  0  0  0  1  0  0  0  0  0  0
  187.9340  172.9100  141.9060 C   0  0  0  0  0  1  0  0  0  0  0  0
  188.3610  174.3370  142.2240 C   0  0  2  0  0  3  0  0  0  0  0  0
  188.0320  175.1440  141.1300 O   0  0  0  0  0  0  0  0  0  0  0  0
  187.6550  176.3740  141.6780 C   0  0  0  0  0  2  0  0  0  0  0  0
  186.7280  176.1470  142.8750 C   0  0  0  0  0  2  0  0  0  0  0  0
  185.0230  177.7150  143.9320 C   0  0  1  0  0  3  0  0  0  0  0  0
  184.6680  178.1590  145.3580 C   0  0  0  0  0  2  0  0  0  0  0  0
  185.1980  178.9740  143.1000 C   0  0  0  0  0  2  0  0  0  0  0  0
  186.5820  176.6160  146.1150 C   0  0  0  0  0  2  0  0  0  0  0  0
  186.5160  177.4020  143.7440 C   0  0  1  0  0  0  0  0  0  0  0  0
  187.3240  177.4160  145.0510 C   0  0  0  0  0  2  0  0  0  0  0  0
  186.6870  178.6860  142.9510 C   0  0  0  0  0  2  0  0  0  0  0  0
  185.1960  177.1940  146.4290 C   0  0  0  0  0  2  0  0  0  0  0  0
  1 18  1  0  0  0  0
  2  4  1  0  0  0  0
  3  7  1  0  0  0  0
  3 19  1  0  0  0  0
  4 12  2  0  0  0  0
  4 10  1  0  0  0  0
  5  6  1  0  0  0  0
  5  9  1  1  0  0  0
  7 20  1  6  0  0  0
  7 19  1  0  0  0  0
  8 12  1  0  0  0  0
  9 11  2  0  0  0  0
 10 38  1  6  0  0  0
 10  5  1  0  0  0  0
 11  1  2  0  0  0  0
 12 17  1  0  0  0  0
 13 15  1  0  0  0  0
 14  8  2  0  0  0  0
 15 18  1  0  0  0  0
 16 14  1  0  0  0  0
 16  2  2  0  0  0  0
 17 20  1  1  0  0  0
 17  6  1  0  0  0  0
 19 13  2  0  0  0  0
 21  8  1  0  0  0  0
 21 22  2  0  0  0  0
 23 28  1  0  0  0  0
 23 21  1  0  0  0  0
 24 25  2  0  0  0  0
 25 26  1  0  0  0  0
 26 28  1  0  0  0  0
 28 27  2  0  0  0  0
 29 31  1  0  0  0  0
 30 29  2  0  0  0  0
 30 24  1  0  0  0  0
 31 25  1  0  0  0  0
 32 16  1  0  0  0  0
 33 32  2  0  0  0  0
 34 32  1  0  0  0  0
 34 35  1  0  0  0  0
 35 36  1  0  0  0  0
 38 37  1  6  0  0  0
 39 40  1  0  0  0  0
 39 38  1  0  0  0  0
 40 41  1  0  0  0  0
 42 44  1  6  0  0  0
 42 43  1  0  0  0  0
 43 49  1  0  0  0  0
 45 49  1  0  0  0  0
 46 41  1  6  0  0  0
 46 42  1  0  0  0  0
 46 47  1  0  0  0  0
 47 45  1  0  0  0  0
 48 44  1  0  0  0  0
 48 46  1  0  0  0  0
M  END
>  <MODEL>
4

>  <REMARK>
 VINA RESULT:      -6.9      3.113      9.139
  Name = 
  11 active torsions:
  status: ('A' for Active; 'I' for Inactive)
    1  A    between atoms: C_6  and  O_13
    2  A    between atoms: C_12  and  C_21
    3  A    between atoms: O_13  and  C_23
    4  A    between atoms: C_17  and  C_39
    5  A    between atoms: C_21  and  C_48
    6  A    between atoms: C_23  and  C_28
    7  A    between atoms: C_24  and  C_32
    8  A    between atoms: C_24  and  C_47
    9  A    between atoms: C_36  and  C_48
   10  A    between atoms: C_39  and  O_45
   11  A    between atoms: O_45  and  C_47
                            x       y       z     vdW  Elec       q    Type
                         _______ _______ _______ _____ _____    ______ ____

>  <TORSDO>
F 11

$$$$
=
 OpenBabel11062420253D

 49 55  0  0  1  0  0  0  0  0999 V2000
  196.5920  173.7150  146.1380 C   0  0  0  0  0  3  0  0  0  0  0  0
  190.8290  174.5730  141.6260 C   0  0  0  0  0  3  0  0  0  0  0  0
  194.4960  169.6760  143.1730 O   0  0  0  0  0  0  0  0  0  0  0  0
  191.9120  173.9210  142.2530 C   0  0  0  0  0  0  0  0  0  0  0  0
  194.0530  173.9310  143.5190 C   0  0  2  0  0  3  0  0  0  0  0  0
  193.5940  172.6690  143.9900 O   0  0  0  0  0  0  0  0  0  0  0  0
  193.5570  169.5830  144.1710 C   0  0  1  0  0  3  0  0  0  0  0  0
  190.8880  171.7690  141.6200 C   0  0  0  0  0  0  0  0  0  0  0  0
  194.6230  174.6590  144.6990 C   0  0  0  0  0  3  0  0  0  0  0  0
  192.9140  174.6670  142.8210 C   0  0  1  0  0  3  0  0  0  0  0  0
  195.6240  174.1730  145.3830 C   0  0  0  0  0  0  0  0  0  0  0  0
  191.8710  172.4890  142.3650 C   0  0  0  0  0  0  0  0  0  0  0  0
  195.4390  170.8770  145.4070 N   0  0  0  0  0  0  0  0  0  0  0  0
  189.8180  172.4620  141.0680 C   0  0  0  0  0  3  0  0  0  0  0  0
  196.7260  171.4190  145.0100 C   0  0  0  0  0  2  0  0  0  0  0  0
  189.7530  173.8480  141.1030 C   0  0  0  0  0  0  0  0  0  0  0  0
  192.6470  171.9000  143.3170 C   0  0  2  0  0  3  0  0  0  0  0  0
  197.1660  172.4090  145.9810 N   0  0  0  0  0  2  0  0  0  0  0  0
  194.7110  170.2400  144.5510 C   0  0  0  0  0  0  0  0  0  0  0  0
  192.3620  170.5260  143.8880 C   0  0  0  0  0  2  0  0  0  0  0  0
  190.9910  170.3230  141.2820 C   0  0  0  0  0  0  0  0  0  0  0  0
  190.4420  169.4650  142.0220 O   0  0  0  0  0  0  0  0  0  0  0  0
  191.8770  169.8420  140.1690 C   0  0  0  0  0  2  0  0  0  0  0  0
  191.1340  172.7970  137.0180 N   0  0  0  0  0  0  0  0  0  0  0  0
  191.5280  171.8970  137.8590 C   0  0  0  0  0  0  0  0  0  0  0  0
  190.9230  170.5970  137.9080 N   0  0  0  0  0  2  0  0  0  0  0  0
  190.6390  168.4260  138.6770 O   0  0  0  0  0  0  0  0  0  0  0  0
  191.1100  169.5780  138.9020 C   0  0  0  0  0  0  0  0  0  0  0  0
  192.7980  173.7530  138.2190 N   0  0  0  0  0  0  0  0  0  0  0  0
  191.9360  173.9400  137.2730 C   0  0  0  0  0  3  0  0  0  0  0  0
  192.6390  172.3930  138.7180 C   0  0  0  0  0  2  0  0  0  0  0  0
  188.5660  174.5330  140.5650 C   0  0  0  0  0  0  0  0  0  0  0  0
  188.1760  174.2780  139.3830 O   0  0  0  0  0  0  0  0  0  0  0  0
  187.8320  175.4190  141.3720 O   0  0  0  0  0  0  0  0  0  0  0  0
  187.4410  176.6990  140.8770 C   0  0  0  0  0  2  0  0  0  0  0  0
  188.1740  177.7820  141.6380 C   0  0  0  0  0  1  0  0  0  0  0  0
  194.4010  176.5190  142.0050 C   0  0  0  0  0  1  0  0  0  0  0  0
  193.0080  176.1590  142.5050 C   0  0  2  0  0  3  0  0  0  0  0  0
  192.7200  176.9640  143.6120 O   0  0  0  0  0  0  0  0  0  0  0  0
  191.4290  177.4520  143.3870 C   0  0  0  0  0  2  0  0  0  0  0  0
  190.8520  178.0170  144.6860 C   0  0  0  0  0  2  0  0  0  0  0  0
  189.5560  175.8270  144.6310 C   0  0  1  0  0  3  0  0  0  0  0  0
  189.6690  174.4600  145.3200 C   0  0  0  0  0  2  0  0  0  0  0  0
  188.1250  176.3060  144.8170 C   0  0  0  0  0  2  0  0  0  0  0  0
  191.7200  175.4450  146.5220 C   0  0  0  0  0  2  0  0  0  0  0  0
  190.0430  176.9940  145.5050 C   0  0  1  0  0  0  0  0  0  0  0  0
  190.7140  176.5520  146.8150 C   0  0  0  0  0  2  0  0  0  0  0  0
  188.6050  177.4360  145.7190 C   0  0  0  0  0  2  0  0  0  0  0  0
  191.0670  174.2030  145.9020 C   0  0  0  0  0  2  0  0  0  0  0  0
  2  4  1  0  0  0  0
  3  7  1  0  0  0  0
  3 19  1  0  0  0  0
  4 12  2  0  0  0  0
  4 10  1  0  0  0  0
  5  6  1  0  0  0  0
  5  9  1  1  0  0  0
  7 20  1  6  0  0  0
  7 19  1  0  0  0  0
  8 12  1  0  0  0  0
  9 11  2  0  0  0  0
 10 38  1  6  0  0  0
 10  5  1  0  0  0  0
 11  1  2  0  0  0  0
 12 17  1  0  0  0  0
 14 16  1  0  0  0  0
 14  8  2  0  0  0  0
 15 13  1  0  0  0  0
 15 18  1  0  0  0  0
 16  2  2  0  0  0  0
 17 20  1  1  0  0  0
 17  6  1  0  0  0  0
 18  1  1  0  0  0  0
 19 13  2  0  0  0  0
 21  8  1  0  0  0  0
 21 22  2  0  0  0  0
 23 21  1  0  0  0  0
 24 30  1  0  0  0  0
 24 25  2  0  0  0  0
 25 26  1  0  0  0  0
 25 31  1  0  0  0  0
 26 28  1  0  0  0  0
 27 28  2  0  0  0  0
 28 23  1  0  0  0  0
 29 31  1  0  0  0  0
 30 29  2  0  0  0  0
 32 16  1  0  0  0  0
 32 34  1  0  0  0  0
 33 32  2  0  0  0  0
 35 34  1  0  0  0  0
 35 36  1  0  0  0  0
 38 37  1  1  0  0  0
 38 39  1  0  0  0  0
 40 39  1  0  0  0  0
 40 41  1  0  0  0  0
 42 44  1  1  0  0  0
 42 43  1  0  0  0  0
 42 46  1  0  0  0  0
 43 49  1  0  0  0  0
 44 48  1  0  0  0  0
 45 47  1  0  0  0  0
 46 41  1  6  0  0  0
 46 48  1  0  0  0  0
 46 47  1  0  0  0  0
 49 45  1  0  0  0  0
M  END
>  <MODEL>
5

>  <REMARK>
 VINA RESULT:      -6.6      3.438      8.068
  Name = 
  11 active torsions:
  status: ('A' for Active; 'I' for Inactive)
    1  A    between atoms: C_6  and  O_13
    2  A    between atoms: C_12  and  C_21
    3  A    between atoms: O_13  and  C_23
    4  A    between atoms: C_17  and  C_39
    5  A    between atoms: C_21  and  C_48
    6  A    between atoms: C_23  and  C_28
    7  A    between atoms: C_24  and  C_32
    8  A    between atoms: C_24  and  C_47
    9  A    between atoms: C_36  and  C_48
   10  A    between atoms: C_39  and  O_45
   11  A    between atoms: O_45  and  C_47
                            x       y       z     vdW  Elec       q    Type
                         _______ _______ _______ _____ _____    ______ ____

>  <TORSDO>
F 11

$$$$
=
 OpenBabel11062420253D

 49 55  0  0  1  0  0  0  0  0999 V2000
  190.4200  176.7430  147.1600 C   0  0  0  0  0  3  0  0  0  0  0  0
  189.6490  173.7820  140.4570 C   0  0  0  0  0  3  0  0  0  0  0  0
  194.3240  173.8840  144.6940 O   0  0  0  0  0  0  0  0  0  0  0  0
  190.2970  174.1590  141.6520 C   0  0  0  0  0  0  0  0  0  0  0  0
  190.4890  175.5420  143.7100 C   0  0  2  0  0  3  0  0  0  0  0  0
  191.1700  174.4010  144.2200 O   0  0  0  0  0  0  0  0  0  0  0  0
  193.6380  172.7800  145.1370 C   0  0  1  0  0  3  0  0  0  0  0  0
  191.9970  172.4340  141.1870 C   0  0  0  0  0  0  0  0  0  0  0  0
  189.5730  176.0260  144.7920 C   0  0  0  0  0  3  0  0  0  0  0  0
  189.7830  175.1820  142.4070 C   0  0  1  0  0  3  0  0  0  0  0  0
  190.0290  176.4020  145.9570 C   0  0  0  0  0  0  0  0  0  0  0  0
  191.4220  173.3790  142.0910 C   0  0  0  0  0  0  0  0  0  0  0  0
  192.6880  174.6010  146.7260 N   0  0  0  0  0  0  0  0  0  0  0  0
  191.2880  172.0670  140.0520 C   0  0  0  0  0  3  0  0  0  0  0  0
  192.8620  176.0380  146.8410 C   0  0  0  0  0  2  0  0  0  0  0  0
  190.1010  172.6940  139.7000 C   0  0  0  0  0  0  0  0  0  0  0  0
  191.7690  173.4410  143.4070 C   0  0  2  0  0  3  0  0  0  0  0  0
  191.7720  176.6070  147.6200 N   0  0  0  0  0  2  0  0  0  0  0  0
  193.3330  173.9390  145.8240 C   0  0  0  0  0  0  0  0  0  0  0  0
  192.5590  172.3570  144.1090 C   0  0  0  0  0  2  0  0  0  0  0  0
  193.3800  171.8970  141.3120 C   0  0  0  0  0  0  0  0  0  0  0  0
  193.5610  170.6600  141.4650 O   0  0  0  0  0  0  0  0  0  0  0  0
  194.5670  172.8100  141.4280 C   0  0  0  0  0  2  0  0  0  0  0  0
  196.3910  176.7900  141.6340 N   0  0  0  0  0  0  0  0  0  0  0  0
  196.0370  175.5500  141.5440 C   0  0  0  0  0  0  0  0  0  0  0  0
  195.2850  175.0610  140.4240 N   0  0  0  0  0  2  0  0  0  0  0  0
  194.1990  173.4590  139.1460 O   0  0  0  0  0  0  0  0  0  0  0  0
  194.6560  173.7790  140.2800 C   0  0  0  0  0  0  0  0  0  0  0  0
  197.1780  175.7820  143.5010 N   0  0  0  0  0  0  0  0  0  0  0  0
  197.0890  176.9040  142.8640 C   0  0  0  0  0  3  0  0  0  0  0  0
  196.5020  174.7570  142.7160 C   0  0  0  0  0  2  0  0  0  0  0  0
  189.3500  172.2230  138.5250 C   0  0  0  0  0  0  0  0  0  0  0  0
  189.2330  170.9760  138.3150 O   0  0  0  0  0  0  0  0  0  0  0  0
  188.7170  173.1430  137.6720 O   0  0  0  0  0  0  0  0  0  0  0  0
  189.4860  174.0490  136.8810 C   0  0  0  0  0  2  0  0  0  0  0  0
  190.3270  173.2690  135.8940 C   0  0  0  0  0  1  0  0  0  0  0  0
  188.9900  177.5510  142.1520 C   0  0  0  0  0  1  0  0  0  0  0  0
  188.7170  176.0950  141.8040 C   0  0  2  0  0  3  0  0  0  0  0  0
  187.4250  175.7770  142.2390 O   0  0  0  0  0  0  0  0  0  0  0  0
  186.8370  177.0010  142.5720 C   0  0  0  0  0  2  0  0  0  0  0  0
  185.9170  176.8240  143.7830 C   0  0  0  0  0  2  0  0  0  0  0  0
  184.4130  178.1850  145.3210 C   0  0  1  0  0  3  0  0  0  0  0  0
  184.4640  178.6560  146.7810 C   0  0  0  0  0  2  0  0  0  0  0  0
  184.1140  179.4050  144.4660 C   0  0  0  0  0  2  0  0  0  0  0  0
  186.7370  177.4560  146.8920 C   0  0  0  0  0  2  0  0  0  0  0  0
  185.7980  178.0830  144.6630 C   0  0  1  0  0  0  0  0  0  0  0  0
  186.9670  178.2920  145.6380 C   0  0  0  0  0  2  0  0  0  0  0  0
  185.5040  179.3300  143.8460 C   0  0  0  0  0  2  0  0  0  0  0  0
  185.4510  177.8430  147.6320 C   0  0  0  0  0  2  0  0  0  0  0  0
  1 18  1  0  0  0  0
  2  4  1  0  0  0  0
  3  7  1  0  0  0  0
  3 19  1  0  0  0  0
  4 12  2  0  0  0  0
  4 10  1  0  0  0  0
  5  6  1  0  0  0  0
  5  9  1  1  0  0  0
  7 20  1  6  0  0  0
  7 19  1  0  0  0  0
  8 21  1  0  0  0  0
  8 12  1  0  0  0  0
  9 11  2  0  0  0  0
 10 38  1  6  0  0  0
 10  5  1  0  0  0  0
 11  1  2  0  0  0  0
 12 17  1  0  0  0  0
 13 15  1  0  0  0  0
 14  8  2  0  0  0  0
 15 18  1  0  0  0  0
 16 14  1  0  0  0  0
 16  2  2  0  0  0  0
 17 20  1  1  0  0  0
 17  6  1  0  0  0  0
 19 13  2  0  0  0  0
 21 23  1  0  0  0  0
 21 22  2  0  0  0  0
 24 30  1  0  0  0  0
 25 24  2  0  0  0  0
 25 31  1  0  0  0  0
 26 25  1  0  0  0  0
 27 28  2  0  0  0  0
 28 26  1  0  0  0  0
 28 23  1  0  0  0  0
 30 29  2  0  0  0  0
 31 29  1  0  0  0  0
 32 16  1  0  0  0  0
 33 32  2  0  0  0  0
 34 32  1  0  0  0  0
 35 34  1  0  0  0  0
 36 35  1  0  0  0  0
 38 37  1  1  0  0  0
 38 39  1  0  0  0  0
 39 40  1  0  0  0  0
 40 41  1  0  0  0  0
 42 44  1  6  0  0  0
 42 43  1  0  0  0  0
 43 49  1  0  0  0  0
 45 49  1  0  0  0  0
 46 41  1  6  0  0  0
 46 42  1  0  0  0  0
 46 47  1  0  0  0  0
 47 45  1  0  0  0  0
 48 44  1  0  0  0  0
 48 46  1  0  0  0  0
M  END
>  <MODEL>
6

>  <REMARK>
 VINA RESULT:      -6.6      3.039      9.060
  Name = 
  11 active torsions:
  status: ('A' for Active; 'I' for Inactive)
    1  A    between atoms: C_6  and  O_13
    2  A    between atoms: C_12  and  C_21
    3  A    between atoms: O_13  and  C_23
    4  A    between atoms: C_17  and  C_39
    5  A    between atoms: C_21  and  C_48
    6  A    between atoms: C_23  and  C_28
    7  A    between atoms: C_24  and  C_32
    8  A    between atoms: C_24  and  C_47
    9  A    between atoms: C_36  and  C_48
   10  A    between atoms: C_39  and  O_45
   11  A    between atoms: O_45  and  C_47
                            x       y       z     vdW  Elec       q    Type
                         _______ _______ _______ _____ _____    ______ ____

>  <TORSDO>
F 11

$$$$
=
 OpenBabel11062420253D

 49 55  0  0  1  0  0  0  0  0999 V2000
  189.4520  172.9520  137.5310 C   0  0  0  0  0  3  0  0  0  0  0  0
  191.7660  175.1080  144.1870 C   0  0  0  0  0  3  0  0  0  0  0  0
  194.6820  173.0250  138.9930 O   0  0  0  0  0  0  0  0  0  0  0  0
  191.8520  174.5810  142.8810 C   0  0  0  0  0  0  0  0  0  0  0  0
  190.8500  173.5440  140.8550 C   0  0  2  0  0  3  0  0  0  0  0  0
  191.9190  174.2010  140.1860 O   0  0  0  0  0  0  0  0  0  0  0  0
  194.6270  174.3660  138.7030 C   0  0  1  0  0  3  0  0  0  0  0  0
  194.2660  175.0850  142.9180 C   0  0  0  0  0  0  0  0  0  0  0  0
  189.6220  173.7410  140.0200 C   0  0  0  0  0  3  0  0  0  0  0  0
  190.7280  174.0750  142.2800 C   0  0  1  0  0  3  0  0  0  0  0  0
  189.5580  173.3120  138.7870 C   0  0  0  0  0  0  0  0  0  0  0  0
  193.1040  174.6940  142.1840 C   0  0  0  0  0  0  0  0  0  0  0  0
  192.5490  173.5110  137.4020 N   0  0  0  0  0  0  0  0  0  0  0  0
  194.1120  175.6420  144.1800 C   0  0  0  0  0  3  0  0  0  0  0  0
  191.8930  172.2220  137.2720 C   0  0  0  0  0  2  0  0  0  0  0  0
  192.8740  175.7010  144.8030 C   0  0  0  0  0  0  0  0  0  0  0  0
  193.0900  174.6050  140.8250 C   0  0  2  0  0  3  0  0  0  0  0  0
  190.5390  172.4040  136.7720 N   0  0  0  0  0  2  0  0  0  0  0  0
  193.6150  173.6280  138.1220 C   0  0  0  0  0  0  0  0  0  0  0  0
  194.1800  175.1780  139.9440 C   0  0  0  0  0  2  0  0  0  0  0  0
  195.6620  174.8210  142.4710 C   0  0  0  0  0  0  0  0  0  0  0  0
  196.3500  175.7540  141.9810 O   0  0  0  0  0  0  0  0  0  0  0  0
  196.2210  173.4280  142.4350 C   0  0  0  0  0  2  0  0  0  0  0  0
  193.3680  170.8360  144.5220 N   0  0  0  0  0  0  0  0  0  0  0  0
  194.2730  171.4350  143.8180 C   0  0  0  0  0  0  0  0  0  0  0  0
  195.4440  172.0000  144.4220 N   0  0  0  0  0  2  0  0  0  0  0  0
  197.4860  173.1020  144.4490 O   0  0  0  0  0  0  0  0  0  0  0  0
  196.4220  172.8570  143.8130 C   0  0  0  0  0  0  0  0  0  0  0  0
  192.6450  170.7530  142.3780 N   0  0  0  0  0  0  0  0  0  0  0  0
  192.3680  170.4320  143.6000 C   0  0  0  0  0  3  0  0  0  0  0  0
  193.9260  171.4470  142.3690 C   0  0  0  0  0  2  0  0  0  0  0  0
  192.7500  176.3640  146.1130 C   0  0  0  0  0  0  0  0  0  0  0  0
  193.7750  176.8870  146.6500 O   0  0  0  0  0  0  0  0  0  0  0  0
  191.4960  176.4700  146.7380 O   0  0  0  0  0  0  0  0  0  0  0  0
  191.0570  175.4740  147.6610 C   0  0  0  0  0  2  0  0  0  0  0  0
  189.7230  174.9200  147.2120 C   0  0  0  0  0  1  0  0  0  0  0  0
  189.2470  172.3060  143.2710 C   0  0  0  0  0  1  0  0  0  0  0  0
  189.4850  173.8020  143.1250 C   0  0  2  0  0  3  0  0  0  0  0  0
  188.3290  174.3780  142.5860 O   0  0  0  0  0  0  0  0  0  0  0  0
  188.1840  175.6020  143.2460 C   0  0  0  0  0  2  0  0  0  0  0  0
  186.7510  176.1130  143.0860 C   0  0  0  0  0  2  0  0  0  0  0  0
  184.9650  177.7440  143.8810 C   0  0  1  0  0  3  0  0  0  0  0  0
  184.4840  178.2790  145.2370 C   0  0  0  0  0  2  0  0  0  0  0  0
  185.2220  178.9480  142.9890 C   0  0  0  0  0  2  0  0  0  0  0  0
  186.3130  176.7880  146.2630 C   0  0  0  0  0  2  0  0  0  0  0  0
  186.4670  177.4200  143.8500 C   0  0  1  0  0  0  0  0  0  0  0  0
  187.1530  177.5180  145.2220 C   0  0  0  0  0  2  0  0  0  0  0  0
  186.7170  178.6510  142.9960 C   0  0  0  0  0  2  0  0  0  0  0  0
  184.9070  177.3850  146.4110 C   0  0  0  0  0  2  0  0  0  0  0  0
  1 11  2  0  0  0  0
  2 16  1  0  0  0  0
  4  2  2  0  0  0  0
  5  9  1  6  0  0  0
  5 10  1  0  0  0  0
  6 17  1  0  0  0  0
  6  5  1  0  0  0  0
  7  3  1  0  0  0  0
  7 20  1  1  0  0  0
  8 14  1  0  0  0  0
 10  4  1  0  0  0  0
 10 38  1  1  0  0  0
 11  9  2  0  0  0  0
 12  4  1  0  0  0  0
 12  8  2  0  0  0  0
 13 19  2  0  0  0  0
 14 16  2  0  0  0  0
 15 13  1  0  0  0  0
 16 32  1  0  0  0  0
 17 20  1  6  0  0  0
 17 12  1  0  0  0  0
 18 15  1  0  0  0  0
 18  1  1  0  0  0  0
 19  7  1  0  0  0  0
 19  3  1  0  0  0  0
 21  8  1  0  0  0  0
 22 21  2  0  0  0  0
 23 21  1  0  0  0  0
 23 28  1  0  0  0  0
 25 26  1  0  0  0  0
 25 24  2  0  0  0  0
 28 26  1  0  0  0  0
 28 27  2  0  0  0  0
 29 30  2  0  0  0  0
 30 24  1  0  0  0  0
 31 29  1  0  0  0  0
 31 25  1  0  0  0  0
 32 33  2  0  0  0  0
 32 34  1  0  0  0  0
 34 35  1  0  0  0  0
 36 35  1  0  0  0  0
 38 37  1  6  0  0  0
 39 38  1  0  0  0  0
 39 40  1  0  0  0  0
 41 40  1  0  0  0  0
 42 44  1  6  0  0  0
 42 43  1  0  0  0  0
 43 49  1  0  0  0  0
 44 48  1  0  0  0  0
 45 49  1  0  0  0  0
 46 41  1  6  0  0  0
 46 42  1  0  0  0  0
 46 47  1  0  0  0  0
 47 45  1  0  0  0  0
 48 46  1  0  0  0  0
M  END
>  <MODEL>
7

>  <REMARK>
 VINA RESULT:      -6.6      3.012      7.197
  Name = 
  11 active torsions:
  status: ('A' for Active; 'I' for Inactive)
    1  A    between atoms: C_6  and  O_13
    2  A    between atoms: C_12  and  C_21
    3  A    between atoms: O_13  and  C_23
    4  A    between atoms: C_17  and  C_39
    5  A    between atoms: C_21  and  C_48
    6  A    between atoms: C_23  and  C_28
    7  A    between atoms: C_24  and  C_32
    8  A    between atoms: C_24  and  C_47
    9  A    between atoms: C_36  and  C_48
   10  A    between atoms: C_39  and  O_45
   11  A    between atoms: O_45  and  C_47
                            x       y       z     vdW  Elec       q    Type
                         _______ _______ _______ _____ _____    ______ ____

>  <TORSDO>
F 11

$$$$
=
 OpenBabel11062420253D

 49 55  0  0  1  0  0  0  0  0999 V2000
  194.9200  175.2260  145.9610 C   0  0  0  0  0  3  0  0  0  0  0  0
  190.6370  172.7190  140.5130 C   0  0  0  0  0  3  0  0  0  0  0  0
  189.8040  176.8770  145.1850 O   0  0  0  0  0  0  0  0  0  0  0  0
  190.9840  173.4340  141.6780 C   0  0  0  0  0  0  0  0  0  0  0  0
  192.4420  173.8610  143.6480 C   0  0  2  0  0  3  0  0  0  0  0  0
  191.9860  175.2000  143.4930 O   0  0  0  0  0  0  0  0  0  0  0  0
  190.3370  177.7080  144.2320 C   0  0  1  0  0  3  0  0  0  0  0  0
  189.0240  174.8790  141.2850 C   0  0  0  0  0  0  0  0  0  0  0  0
  193.9130  173.9270  143.9250 C   0  0  0  0  0  3  0  0  0  0  0  0
  192.0750  173.0450  142.4120 C   0  0  1  0  0  3  0  0  0  0  0  0
  194.3840  174.5630  144.9660 C   0  0  0  0  0  0  0  0  0  0  0  0
  190.2360  174.6200  141.9960 C   0  0  0  0  0  0  0  0  0  0  0  0
  192.4580  177.1620  145.6260 N   0  0  0  0  0  0  0  0  0  0  0  0
  188.7630  174.1750  140.1170 C   0  0  0  0  0  3  0  0  0  0  0  0
  192.7320  176.2940  146.7570 C   0  0  0  0  0  2  0  0  0  0  0  0
  189.5770  173.1320  139.6980 C   0  0  0  0  0  0  0  0  0  0  0  0
  190.8100  175.5360  142.8250 C   0  0  2  0  0  3  0  0  0  0  0  0
  194.1630  176.0510  146.8590 N   0  0  0  0  0  2  0  0  0  0  0  0
  191.2610  177.2480  145.1490 C   0  0  0  0  0  0  0  0  0  0  0  0
  190.4050  176.9940  142.8590 C   0  0  0  0  0  2  0  0  0  0  0  0
  187.9440  175.7760  141.7780 C   0  0  0  0  0  0  0  0  0  0  0  0
  187.0470  175.3210  142.5360 O   0  0  0  0  0  0  0  0  0  0  0  0
  187.7960  177.1790  141.2630 C   0  0  0  0  0  2  0  0  0  0  0  0
  184.1050  178.6170  143.1400 N   0  0  0  0  0  0  0  0  0  0  0  0
  185.2440  178.3840  142.5720 C   0  0  0  0  0  0  0  0  0  0  0  0
  185.3270  177.8810  141.2320 N   0  0  0  0  0  2  0  0  0  0  0  0
  186.4060  177.1660  139.3060 O   0  0  0  0  0  0  0  0  0  0  0  0
  186.4900  177.3900  140.5470 C   0  0  0  0  0  0  0  0  0  0  0  0
  185.6840  179.1430  144.6740 N   0  0  0  0  0  0  0  0  0  0  0  0
  184.4130  179.0780  144.4460 C   0  0  0  0  0  3  0  0  0  0  0  0
  186.3850  178.6980  143.4760 C   0  0  0  0  0  2  0  0  0  0  0  0
  189.2980  172.4610  138.4180 C   0  0  0  0  0  0  0  0  0  0  0  0
  189.3160  171.1920  138.3580 O   0  0  0  0  0  0  0  0  0  0  0  0
  188.9550  173.2140  137.2820 O   0  0  0  0  0  0  0  0  0  0  0  0
  189.9080  174.0870  136.6750 C   0  0  0  0  0  2  0  0  0  0  0  0
  191.2490  173.3910  136.5900 C   0  0  0  0  0  1  0  0  0  0  0  0
  192.3820  170.7030  143.2670 C   0  0  0  0  0  1  0  0  0  0  0  0
  192.7090  171.6800  142.1460 C   0  0  2  0  0  3  0  0  0  0  0  0
  194.1000  171.7470  142.0170 O   0  0  0  0  0  0  0  0  0  0  0  0
  194.3330  172.0170  140.6650 C   0  0  0  0  0  2  0  0  0  0  0  0
  195.6980  172.6890  140.4960 C   0  0  0  0  0  2  0  0  0  0  0  0
  194.3540  174.8510  140.5420 C   0  0  1  0  0  3  0  0  0  0  0  0
  194.6030  176.2960  140.9980 C   0  0  0  0  0  2  0  0  0  0  0  0
  193.8160  174.9150  139.1220 C   0  0  0  0  0  2  0  0  0  0  0  0
  196.9580  175.4870  141.6460 C   0  0  0  0  0  2  0  0  0  0  0  0
  195.6170  174.1500  140.0160 C   0  0  1  0  0  0  0  0  0  0  0  0
  196.9080  174.9600  140.2160 C   0  0  0  0  0  2  0  0  0  0  0  0
  195.0880  174.2600  138.5960 C   0  0  0  0  0  2  0  0  0  0  0  0
  195.7820  176.4150  141.9750 C   0  0  0  0  0  2  0  0  0  0  0  0
  1 18  1  0  0  0  0
  2  4  1  0  0  0  0
  4 12  2  0  0  0  0
  4 10  1  0  0  0  0
  5  9  1  6  0  0  0
  6  5  1  0  0  0  0
  7 20  1  6  0  0  0
  7 19  1  0  0  0  0
  7  3  1  0  0  0  0
  8 21  1  0  0  0  0
  8 12  1  0  0  0  0
  9 11  2  0  0  0  0
 10 38  1  1  0  0  0
 10  5  1  0  0  0  0
 11  1  2  0  0  0  0
 12 17  1  0  0  0  0
 13 15  1  0  0  0  0
 14  8  2  0  0  0  0
 15 18  1  0  0  0  0
 16 14  1  0  0  0  0
 16  2  2  0  0  0  0
 17 20  1  6  0  0  0
 17  6  1  0  0  0  0
 19  3  1  0  0  0  0
 19 13  2  0  0  0  0
 21 22  2  0  0  0  0
 23 21  1  0  0  0  0
 24 30  1  0  0  0  0
 25 24  2  0  0  0  0
 25 31  1  0  0  0  0
 26 25  1  0  0  0  0
 27 28  2  0  0  0  0
 28 26  1  0  0  0  0
 28 23  1  0  0  0  0
 30 29  2  0  0  0  0
 31 29  1  0  0  0  0
 32 16  1  0  0  0  0
 33 32  2  0  0  0  0
 34 32  1  0  0  0  0
 35 34  1  0  0  0  0
 36 35  1  0  0  0  0
 38 37  1  1  0  0  0
 39 38  1  0  0  0  0
 40 39  1  0  0  0  0
 41 40  1  0  0  0  0
 42 44  1  6  0  0  0
 42 43  1  0  0  0  0
 43 49  1  0  0  0  0
 45 49  1  0  0  0  0
 46 47  1  0  0  0  0
 46 41  1  1  0  0  0
 46 42  1  0  0  0  0
 47 45  1  0  0  0  0
 48 44  1  0  0  0  0
 48 46  1  0  0  0  0
M  END
>  <MODEL>
8

>  <REMARK>
 VINA RESULT:      -6.5      2.419      6.223
  Name = 
  11 active torsions:
  status: ('A' for Active; 'I' for Inactive)
    1  A    between atoms: C_6  and  O_13
    2  A    between atoms: C_12  and  C_21
    3  A    between atoms: O_13  and  C_23
    4  A    between atoms: C_17  and  C_39
    5  A    between atoms: C_21  and  C_48
    6  A    between atoms: C_23  and  C_28
    7  A    between atoms: C_24  and  C_32
    8  A    between atoms: C_24  and  C_47
    9  A    between atoms: C_36  and  C_48
   10  A    between atoms: C_39  and  O_45
   11  A    between atoms: O_45  and  C_47
                            x       y       z     vdW  Elec       q    Type
                         _______ _______ _______ _____ _____    ______ ____

>  <TORSDO>
F 11

$$$$
=
 OpenBabel11062420253D

 49 55  0  0  1  0  0  0  0  0999 V2000
  190.1270  176.5220  147.2950 C   0  0  0  0  0  3  0  0  0  0  0  0
  189.8590  173.6490  140.5150 C   0  0  0  0  0  3  0  0  0  0  0  0
  194.5090  174.7120  144.6450 O   0  0  0  0  0  0  0  0  0  0  0  0
  190.4380  174.1320  141.7070 C   0  0  0  0  0  0  0  0  0  0  0  0
  190.3680  175.4650  143.8060 C   0  0  2  0  0  3  0  0  0  0  0  0
  191.3090  174.4990  144.2600 O   0  0  0  0  0  0  0  0  0  0  0  0
  194.1100  173.4680  145.0660 C   0  0  1  0  0  3  0  0  0  0  0  0
  192.4750  172.8610  141.1450 C   0  0  0  0  0  0  0  0  0  0  0  0
  189.3970  175.6930  144.9240 C   0  0  0  0  0  3  0  0  0  0  0  0
  189.7250  174.9880  142.5070 C   0  0  1  0  0  3  0  0  0  0  0  0
  189.7900  176.1330  146.0900 C   0  0  0  0  0  0  0  0  0  0  0  0
  191.7250  173.6210  142.0930 C   0  0  0  0  0  0  0  0  0  0  0  0
  192.8140  174.9750  146.7370 N   0  0  0  0  0  0  0  0  0  0  0  0
  191.8360  172.3710  140.0140 C   0  0  0  0  0  3  0  0  0  0  0  0
  192.6550  176.4090  146.8960 C   0  0  0  0  0  2  0  0  0  0  0  0
  190.5260  172.7170  139.7110 C   0  0  0  0  0  0  0  0  0  0  0  0
  192.0870  173.7260  143.4020 C   0  0  2  0  0  3  0  0  0  0  0  0
  191.4880  176.6890  147.7190 N   0  0  0  0  0  2  0  0  0  0  0  0
  193.5670  174.5050  145.7980 C   0  0  0  0  0  0  0  0  0  0  0  0
  193.1270  172.8350  144.0490 C   0  0  0  0  0  2  0  0  0  0  0  0
  193.9480  172.6550  141.2200 C   0  0  0  0  0  0  0  0  0  0  0  0
  194.7220  173.6470  141.1960 O   0  0  0  0  0  0  0  0  0  0  0  0
  194.5490  171.2800  141.1560 C   0  0  0  0  0  2  0  0  0  0  0  0
  195.1350  169.3710  145.0580 N   0  0  0  0  0  0  0  0  0  0  0  0
  194.9820  169.7520  143.8320 C   0  0  0  0  0  0  0  0  0  0  0  0
  195.9750  170.5380  143.1580 N   0  0  0  0  0  2  0  0  0  0  0  0
  196.9060  171.6850  141.3690 O   0  0  0  0  0  0  0  0  0  0  0  0
  195.8620  171.1970  141.8880 C   0  0  0  0  0  0  0  0  0  0  0  0
  193.1240  168.5640  144.4020 N   0  0  0  0  0  0  0  0  0  0  0  0
  193.9620  168.6430  145.3850 C   0  0  0  0  0  3  0  0  0  0  0  0
  193.6890  169.2780  143.2640 C   0  0  0  0  0  2  0  0  0  0  0  0
  189.8690  172.1170  138.5380 C   0  0  0  0  0  0  0  0  0  0  0  0
  189.8050  172.7730  137.4520 O   0  0  0  0  0  0  0  0  0  0  0  0
  189.3670  170.8070  138.5990 O   0  0  0  0  0  0  0  0  0  0  0  0
  190.0580  169.7330  137.9610 C   0  0  0  0  0  2  0  0  0  0  0  0
  190.4340  168.6910  138.9920 C   0  0  0  0  0  1  0  0  0  0  0  0
  188.5770  177.1630  142.0000 C   0  0  0  0  0  1  0  0  0  0  0  0
  188.4590  175.6450  141.9600 C   0  0  2  0  0  3  0  0  0  0  0  0
  187.3100  175.2780  142.6690 O   0  0  0  0  0  0  0  0  0  0  0  0
  186.5260  176.4330  142.7250 C   0  0  0  0  0  2  0  0  0  0  0  0
  185.7880  176.4970  144.0640 C   0  0  0  0  0  2  0  0  0  0  0  0
  184.4330  178.3310  145.1960 C   0  0  1  0  0  3  0  0  0  0  0  0
  184.4380  179.0210  146.5680 C   0  0  0  0  0  2  0  0  0  0  0  0
  184.4500  179.4280  144.1430 C   0  0  0  0  0  2  0  0  0  0  0  0
  186.4240  177.4820  147.1240 C   0  0  0  0  0  2  0  0  0  0  0  0
  185.8280  177.8850  144.7310 C   0  0  1  0  0  0  0  0  0  0  0  0
  186.9220  178.0480  145.7990 C   0  0  0  0  0  2  0  0  0  0  0  0
  185.8510  179.0120  143.7120 C   0  0  0  0  0  2  0  0  0  0  0  0
  185.1710  178.2020  147.6400 C   0  0  0  0  0  2  0  0  0  0  0  0
  1 18  1  0  0  0  0
  2  4  1  0  0  0  0
  3  7  1  0  0  0  0
  3 19  1  0  0  0  0
  4 12  2  0  0  0  0
  4 10  1  0  0  0  0
  5  6  1  0  0  0  0
  5  9  1  1  0  0  0
  7 20  1  6  0  0  0
  7 19  1  0  0  0  0
  8 21  1  0  0  0  0
  8 12  1  0  0  0  0
  9 11  2  0  0  0  0
 10 38  1  6  0  0  0
 10  5  1  0  0  0  0
 11  1  2  0  0  0  0
 12 17  1  0  0  0  0
 13 15  1  0  0  0  0
 14  8  2  0  0  0  0
 15 18  1  0  0  0  0
 16 14  1  0  0  0  0
 16  2  2  0  0  0  0
 17 20  1  1  0  0  0
 17  6  1  0  0  0  0
 19 13  2  0  0  0  0
 22 21  2  0  0  0  0
 23 21  1  0  0  0  0
 23 28  1  0  0  0  0
 24 30  1  0  0  0  0
 25 24  2  0  0  0  0
 26 25  1  0  0  0  0
 27 28  2  0  0  0  0
 28 26  1  0  0  0  0
 29 30  2  0  0  0  0
 31 25  1  0  0  0  0
 31 29  1  0  0  0  0
 32 34  1  0  0  0  0
 32 16  1  0  0  0  0
 33 32  2  0  0  0  0
 35 34  1  0  0  0  0
 35 36  1  0  0  0  0
 38 37  1  1  0  0  0
 38 39  1  0  0  0  0
 39 40  1  0  0  0  0
 40 41  1  0  0  0  0
 42 44  1  6  0  0  0
 42 43  1  0  0  0  0
 43 49  1  0  0  0  0
 45 49  1  0  0  0  0
 46 41  1  6  0  0  0
 46 42  1  0  0  0  0
 46 47  1  0  0  0  0
 47 45  1  0  0  0  0
 48 44  1  0  0  0  0
 48 46  1  0  0  0  0
M  END
>  <MODEL>
9

>  <REMARK>
 VINA RESULT:      -6.4      3.015      9.128
  Name = 
  11 active torsions:
  status: ('A' for Active; 'I' for Inactive)
    1  A    between atoms: C_6  and  O_13
    2  A    between atoms: C_12  and  C_21
    3  A    between atoms: O_13  and  C_23
    4  A    between atoms: C_17  and  C_39
    5  A    between atoms: C_21  and  C_48
    6  A    between atoms: C_23  and  C_28
    7  A    between atoms: C_24  and  C_32
    8  A    between atoms: C_24  and  C_47
    9  A    between atoms: C_36  and  C_48
   10  A    between atoms: C_39  and  O_45
   11  A    between atoms: O_45  and  C_47
                            x       y       z     vdW  Elec       q    Type
                         _______ _______ _______ _____ _____    ______ ____

>  <TORSDO>
F 11

$$$$
