=
 OpenBabel11062419233D

 38 41  0  0  1  0  0  0  0  0999 V2000
  193.9450  176.7720  146.7470 N   0  0  0  0  0  1  0  0  0  0  0  0
  190.6700  175.3550  143.5770 C   0  0  1  0  0  3  0  0  0  0  0  0
  190.4880  174.9500  146.0900 C   0  0  0  0  0  2  0  0  0  0  0  0
  194.1270  175.4890  144.7060 C   0  0  0  0  0  2  0  0  0  0  0  0
  190.7410  175.9840  144.9930 C   0  0  1  0  0  0  0  0  0  0  0  0
  188.8670  176.7000  146.4240 C   0  0  1  0  0  3  0  0  0  0  0  0
  193.8190  174.0570  144.2440 C   0  0  0  0  0  2  0  0  0  0  0  0
  193.1980  175.9470  145.8170 C   0  0  2  0  0  3  0  0  0  0  0  0
  189.6960  175.6660  147.1580 C   0  0  0  0  0  2  0  0  0  0  0  0
  191.9520  174.6410  143.1120 C   0  0  1  0  0  3  0  0  0  0  0  0
  192.4420  173.7880  144.1120 O   0  0  0  0  0  0  0  0  0  0  0  0
  192.0460  176.7690  145.2370 C   0  0  0  0  0  2  0  0  0  0  0  0
  189.6000  176.9860  145.1230 C   0  0  0  0  0  2  0  0  0  0  0  0
  191.6250  172.5700  141.8080 C   0  0  0  0  0  3  0  0  0  0  0  0
  191.7360  173.8990  141.8280 C   0  0  0  0  0  3  0  0  0  0  0  0
  191.4130  171.8020  140.5300 C   0  0  2  0  0  3  0  0  0  0  0  0
  189.1310  172.4930  139.7750 C   0  0  0  0  0  3  0  0  0  0  0  0
  188.7900  173.8130  137.7740 C   0  0  0  0  0  3  0  0  0  0  0  0
  191.0290  173.1770  138.4340 C   0  0  0  0  0  3  0  0  0  0  0  0
  190.1690  173.8290  137.5470 C   0  0  0  0  0  3  0  0  0  0  0  0
  188.2710  173.1450  138.8880 C   0  0  0  0  0  3  0  0  0  0  0  0
  190.5130  172.5040  139.5540 C   0  0  0  0  0  0  0  0  0  0  0  0
  190.5940  169.9960  141.8850 O   0  0  0  0  0  1  0  0  0  0  0  0
  191.0220  170.3740  140.7620 C   0  0  0  0  0  0  0  0  0  0  0  0
  191.1350  169.4570  139.7260 O   0  0  0  0  0  0  0  0  0  0  0  0
  188.7890  175.0820  142.4290 C   0  0  0  0  0  1  0  0  0  0  0  0
  189.5510  174.5180  143.4560 O   0  0  0  0  0  0  0  0  0  0  0  0
  187.5800  176.1660  146.1300 O   0  0  0  0  0  0  0  0  0  0  0  0
  185.2280  177.5510  143.6120 C   0  0  0  0  0  0  0  0  0  0  0  0
  184.7160  178.5090  145.7690 C   0  0  0  0  0  3  0  0  0  0  0  0
  184.9820  177.4370  142.2480 O   0  0  0  0  0  1  0  0  0  0  0  0
  186.2640  176.8170  144.1890 C   0  0  0  0  0  3  0  0  0  0  0  0
  184.4480  178.3950  144.4050 C   0  0  0  0  0  0  0  0  0  0  0  0
  185.7580  177.7880  146.3630 C   0  0  0  0  0  0  0  0  0  0  0  0
  186.5450  176.9210  145.5630 C   0  0  0  0  0  0  0  0  0  0  0  0
  183.4110  179.1300  143.8430 O   0  0  0  0  0  1  0  0  0  0  0  0
  185.9590  177.9720  147.7400 O   0  0  0  0  0  0  0  0  0  0  0  0
  186.7040  179.0350  148.3130 C   0  0  0  0  0  1  0  0  0  0  0  0
  2 27  1  1  0  0  0
  2  5  1  0  0  0  0
  3  9  1  0  0  0  0
  4  8  1  0  0  0  0
  5 13  1  1  0  0  0
  5 12  1  0  0  0  0
  5  3  1  0  0  0  0
  6 28  1  6  0  0  0
  6  9  1  0  0  0  0
  7  4  1  0  0  0  0
  8  1  1  1  0  0  0
 10 15  1  6  0  0  0
 10  2  1  0  0  0  0
 10 11  1  0  0  0  0
 11  7  1  0  0  0  0
 12  8  1  0  0  0  0
 13  6  1  0  0  0  0
 14 15  2  0  0  0  0
 16 24  1  0  0  0  0
 16 14  1  1  0  0  0
 18 21  1  0  0  0  0
 19 22  2  0  0  0  0
 20 18  2  0  0  0  0
 20 19  1  0  0  0  0
 21 17  2  0  0  0  0
 22 17  1  0  0  0  0
 22 16  1  0  0  0  0
 24 23  1  0  0  0  0
 25 24  2  0  0  0  0
 26 27  1  0  0  0  0
 29 32  2  0  0  0  0
 29 33  1  0  0  0  0
 30 34  1  0  0  0  0
 31 29  1  0  0  0  0
 32 35  1  0  0  0  0
 33 30  2  0  0  0  0
 34 37  1  0  0  0  0
 35 28  1  0  0  0  0
 35 34  2  0  0  0  0
 36 33  1  0  0  0  0
 37 38  1  0  0  0  0
M  END
>  <MODEL>
1

>  <REMARK>
 VINA RESULT:      -7.4      0.000      0.000
  Name = 
  8 active torsions:
  status: ('A' for Active; 'I' for Inactive)
    1  A    between atoms: C_4  and  C_18
    2  A    between atoms: C_4  and  C_23
    3  A    between atoms: C_4  and  C_37
    4  A    between atoms: C_6  and  O_28
    5  A    between atoms: O_8  and  C_25
    6  A    between atoms: C_19  and  O_32
    7  A    between atoms: C_20  and  C_31
    8  A    between atoms: C_26  and  O_32
                            x       y       z     vdW  Elec       q    Type
                         _______ _______ _______ _____ _____    ______ ____

>  <TORSDO>
F 8

$$$$
=
 OpenBabel11062419233D

 38 41  0  0  1  0  0  0  0  0999 V2000
  193.2040  175.6710  146.5170 N   0  0  0  0  0  1  0  0  0  0  0  0
  189.3240  175.1340  143.7900 C   0  0  1  0  0  3  0  0  0  0  0  0
  191.5590  176.0120  142.9270 C   0  0  0  0  0  2  0  0  0  0  0  0
  190.9280  176.4410  146.7820 C   0  0  0  0  0  2  0  0  0  0  0  0
  190.8560  174.9050  143.7120 C   0  0  1  0  0  0  0  0  0  0  0  0
  192.1480  173.9400  141.8490 C   0  0  1  0  0  3  0  0  0  0  0  0
  190.0330  177.5390  146.1890 C   0  0  0  0  0  2  0  0  0  0  0  0
  191.9780  175.9600  145.7960 C   0  0  2  0  0  3  0  0  0  0  0  0
  192.6630  175.3330  142.1520 C   0  0  0  0  0  2  0  0  0  0  0  0
  188.8610  176.1150  144.8820 C   0  0  1  0  0  3  0  0  0  0  0  0
  189.6320  177.2870  144.8620 O   0  0  0  0  0  0  0  0  0  0  0  0
  191.5010  174.6870  145.0960 C   0  0  0  0  0  2  0  0  0  0  0  0
  191.1040  173.6330  142.9110 C   0  0  0  0  0  2  0  0  0  0  0  0
  186.9820  177.6150  144.3220 C   0  0  0  0  0  3  0  0  0  0  0  0
  187.4010  176.4270  144.7610 C   0  0  0  0  0  3  0  0  0  0  0  0
  185.5210  177.9540  144.1970 C   0  0  2  0  0  3  0  0  0  0  0  0
  183.6730  178.1950  142.5290 C   0  0  0  0  0  3  0  0  0  0  0  0
  184.0770  178.0820  140.1440 C   0  0  0  0  0  3  0  0  0  0  0  0
  185.9170  177.8310  141.6950 C   0  0  0  0  0  3  0  0  0  0  0  0
  185.4390  177.8760  140.3830 C   0  0  0  0  0  3  0  0  0  0  0  0
  183.1940  178.2410  141.2170 C   0  0  0  0  0  3  0  0  0  0  0  0
  185.0350  177.9890  142.7760 C   0  0  0  0  0  0  0  0  0  0  0  0
  185.5600  180.3130  144.6490 O   0  0  0  0  0  0  0  0  0  0  0  0
  185.1320  179.1740  144.9770 C   0  0  0  0  0  0  0  0  0  0  0  0
  184.2930  179.0450  146.0740 O   0  0  0  0  0  1  0  0  0  0  0  0
  188.1010  174.3640  142.1030 C   0  0  0  0  0  1  0  0  0  0  0  0
  188.8070  175.4900  142.5350 O   0  0  0  0  0  0  0  0  0  0  0  0
  191.5310  173.9240  140.5650 O   0  0  0  0  0  0  0  0  0  0  0  0
  191.2550  170.3260  139.6900 C   0  0  0  0  0  0  0  0  0  0  0  0
  189.7520  171.5900  138.2830 C   0  0  0  0  0  3  0  0  0  0  0  0
  191.8130  169.1160  140.0850 O   0  0  0  0  0  1  0  0  0  0  0  0
  191.6610  171.5080  140.3100 C   0  0  0  0  0  3  0  0  0  0  0  0
  190.2930  170.3670  138.6780 C   0  0  0  0  0  0  0  0  0  0  0  0
  190.1550  172.7870  138.8860 C   0  0  0  0  0  0  0  0  0  0  0  0
  191.1230  172.7480  139.9230 C   0  0  0  0  0  0  0  0  0  0  0  0
  189.8780  169.1960  138.0540 O   0  0  0  0  0  1  0  0  0  0  0  0
  189.5630  173.9700  138.4190 O   0  0  0  0  0  0  0  0  0  0  0  0
  188.1650  174.2030  138.3550 C   0  0  0  0  0  1  0  0  0  0  0  0
  2 27  1  6  0  0  0
  2 10  1  0  0  0  0
  3  5  1  0  0  0  0
  5 13  1  6  0  0  0
  5  2  1  0  0  0  0
  5 12  1  0  0  0  0
  6 28  1  6  0  0  0
  6  9  1  0  0  0  0
  6 13  1  0  0  0  0
  7  4  1  0  0  0  0
  8  1  1  1  0  0  0
  8  4  1  0  0  0  0
  9  3  1  0  0  0  0
 10 15  1  6  0  0  0
 11 10  1  0  0  0  0
 11  7  1  0  0  0  0
 12  8  1  0  0  0  0
 14 15  2  0  0  0  0
 16 14  1  6  0  0  0
 16 24  1  0  0  0  0
 17 22  1  0  0  0  0
 18 20  2  0  0  0  0
 18 21  1  0  0  0  0
 19 22  2  0  0  0  0
 20 19  1  0  0  0  0
 21 17  2  0  0  0  0
 22 16  1  0  0  0  0
 23 24  2  0  0  0  0
 24 25  1  0  0  0  0
 26 27  1  0  0  0  0
 29 31  1  0  0  0  0
 29 32  1  0  0  0  0
 30 33  1  0  0  0  0
 30 34  2  0  0  0  0
 33 29  2  0  0  0  0
 34 35  1  0  0  0  0
 35 32  2  0  0  0  0
 35 28  1  0  0  0  0
 36 33  1  0  0  0  0
 37 34  1  0  0  0  0
 38 37  1  0  0  0  0
M  END
>  <MODEL>
2

>  <REMARK>
 VINA RESULT:      -7.3      1.938      7.890
  Name = 
  8 active torsions:
  status: ('A' for Active; 'I' for Inactive)
    1  A    between atoms: C_4  and  C_18
    2  A    between atoms: C_4  and  C_23
    3  A    between atoms: C_4  and  C_37
    4  A    between atoms: C_6  and  O_28
    5  A    between atoms: O_8  and  C_25
    6  A    between atoms: C_19  and  O_32
    7  A    between atoms: C_20  and  C_31
    8  A    between atoms: C_26  and  O_32
                            x       y       z     vdW  Elec       q    Type
                         _______ _______ _______ _____ _____    ______ ____

>  <TORSDO>
F 8

$$$$
=
 OpenBabel11062419233D

 38 41  0  0  1  0  0  0  0  0999 V2000
  195.0570  174.7580  145.7810 N   0  0  0  0  0  1  0  0  0  0  0  0
  190.6040  174.4450  144.0920 C   0  0  1  0  0  3  0  0  0  0  0  0
  192.5280  175.5520  142.8350 C   0  0  0  0  0  2  0  0  0  0  0  0
  192.9230  175.3660  146.7410 C   0  0  0  0  0  2  0  0  0  0  0  0
  192.0640  174.3070  143.5890 C   0  0  1  0  0  0  0  0  0  0  0  0
  192.8330  173.6980  141.3290 C   0  0  1  0  0  3  0  0  0  0  0  0
  191.8950  176.4950  146.5780 C   0  0  0  0  0  2  0  0  0  0  0  0
  193.6830  175.0910  145.4550 C   0  0  2  0  0  3  0  0  0  0  0  0
  193.3970  175.0530  141.7050 C   0  0  0  0  0  2  0  0  0  0  0  0
  190.4340  175.2270  145.4080 C   0  0  1  0  0  3  0  0  0  0  0  0
  191.1630  176.4250  145.3750 O   0  0  0  0  0  0  0  0  0  0  0  0
  193.0500  173.9150  144.7080 C   0  0  0  0  0  2  0  0  0  0  0  0
  192.1060  173.1830  142.5610 C   0  0  0  0  0  2  0  0  0  0  0  0
  188.4980  176.7210  145.7460 C   0  0  0  0  0  3  0  0  0  0  0  0
  188.9900  175.4820  145.7160 C   0  0  0  0  0  3  0  0  0  0  0  0
  187.0520  177.0020  146.0590 C   0  0  2  0  0  3  0  0  0  0  0  0
  185.9320  176.8070  143.8320 C   0  0  0  0  0  3  0  0  0  0  0  0
  184.8820  178.7050  142.7560 C   0  0  0  0  0  3  0  0  0  0  0  0
  185.9540  178.9770  144.9080 C   0  0  0  0  0  3  0  0  0  0  0  0
  185.2470  179.5200  143.8330 C   0  0  0  0  0  3  0  0  0  0  0  0
  185.2250  177.3490  142.7560 C   0  0  0  0  0  3  0  0  0  0  0  0
  186.3010  177.6160  144.9130 C   0  0  0  0  0  0  0  0  0  0  0  0
  187.7950  178.4450  147.8300 O   0  0  0  0  0  0  0  0  0  0  0  0
  186.8650  177.7470  147.3460 C   0  0  0  0  0  0  0  0  0  0  0  0
  185.6500  177.6650  148.0130 O   0  0  0  0  0  1  0  0  0  0  0  0
  188.9560  173.8910  142.7100 C   0  0  0  0  0  1  0  0  0  0  0  0
  189.7740  174.9600  143.0860 O   0  0  0  0  0  0  0  0  0  0  0  0
  191.9020  173.8450  140.2600 O   0  0  0  0  0  0  0  0  0  0  0  0
  191.5070  170.4800  138.7390 C   0  0  0  0  0  0  0  0  0  0  0  0
  189.4530  171.7180  138.4420 C   0  0  0  0  0  3  0  0  0  0  0  0
  192.2620  169.3270  138.5580 O   0  0  0  0  0  1  0  0  0  0  0  0
  192.0660  171.5750  139.3980 C   0  0  0  0  0  3  0  0  0  0  0  0
  190.1940  170.5500  138.2650 C   0  0  0  0  0  0  0  0  0  0  0  0
  190.0020  172.8300  139.0910 C   0  0  0  0  0  0  0  0  0  0  0  0
  191.3300  172.7590  139.5840 C   0  0  0  0  0  0  0  0  0  0  0  0
  189.6240  169.4640  137.6100 O   0  0  0  0  0  1  0  0  0  0  0  0
  189.1860  173.9640  139.2160 O   0  0  0  0  0  0  0  0  0  0  0  0
  188.1590  174.3260  138.3060 C   0  0  0  0  0  1  0  0  0  0  0  0
  2 27  1  6  0  0  0
  2 10  1  0  0  0  0
  3  5  1  0  0  0  0
  5 13  1  6  0  0  0
  5  2  1  0  0  0  0
  5 12  1  0  0  0  0
  6 28  1  6  0  0  0
  6  9  1  0  0  0  0
  6 13  1  0  0  0  0
  7  4  1  0  0  0  0
  8  1  1  1  0  0  0
  8  4  1  0  0  0  0
  9  3  1  0  0  0  0
 10 15  1  6  0  0  0
 11 10  1  0  0  0  0
 11  7  1  0  0  0  0
 12  8  1  0  0  0  0
 15 14  2  0  0  0  0
 16 14  1  6  0  0  0
 16 24  1  0  0  0  0
 17 22  1  0  0  0  0
 18 21  1  0  0  0  0
 18 20  2  0  0  0  0
 19 22  2  0  0  0  0
 20 19  1  0  0  0  0
 21 17  2  0  0  0  0
 22 16  1  0  0  0  0
 24 23  2  0  0  0  0
 24 25  1  0  0  0  0
 26 27  1  0  0  0  0
 29 32  1  0  0  0  0
 30 34  2  0  0  0  0
 31 29  1  0  0  0  0
 32 35  2  0  0  0  0
 33 30  1  0  0  0  0
 33 29  2  0  0  0  0
 34 37  1  0  0  0  0
 34 35  1  0  0  0  0
 35 28  1  0  0  0  0
 36 33  1  0  0  0  0
 38 37  1  0  0  0  0
M  END
>  <MODEL>
3

>  <REMARK>
 VINA RESULT:      -7.2      1.912      7.900
  Name = 
  8 active torsions:
  status: ('A' for Active; 'I' for Inactive)
    1  A    between atoms: C_4  and  C_18
    2  A    between atoms: C_4  and  C_23
    3  A    between atoms: C_4  and  C_37
    4  A    between atoms: C_6  and  O_28
    5  A    between atoms: O_8  and  C_25
    6  A    between atoms: C_19  and  O_32
    7  A    between atoms: C_20  and  C_31
    8  A    between atoms: C_26  and  O_32
                            x       y       z     vdW  Elec       q    Type
                         _______ _______ _______ _____ _____    ______ ____

>  <TORSDO>
F 8

$$$$
=
 OpenBabel11062419233D

 38 41  0  0  1  0  0  0  0  0999 V2000
  194.2230  173.5570  145.3950 N   0  0  0  0  0  1  0  0  0  0  0  0
  190.0530  174.5310  143.2880 C   0  0  1  0  0  3  0  0  0  0  0  0
  192.0540  173.5100  142.0790 C   0  0  0  0  0  2  0  0  0  0  0  0
  192.8860  175.5700  145.3200 C   0  0  0  0  0  2  0  0  0  0  0  0
  191.1350  173.4190  143.2950 C   0  0  1  0  0  0  0  0  0  0  0  0
  191.1220  171.2890  142.0580 C   0  0  1  0  0  3  0  0  0  0  0  0
  192.5790  176.6820  144.3060 C   0  0  0  0  0  2  0  0  0  0  0  0
  193.1880  174.2440  144.6450 C   0  0  2  0  0  3  0  0  0  0  0  0
  192.3550  172.0840  141.6810 C   0  0  0  0  0  2  0  0  0  0  0  0
  190.5150  175.9000  143.8180 C   0  0  1  0  0  3  0  0  0  0  0  0
  191.7430  176.2680  143.2490 O   0  0  0  0  0  0  0  0  0  0  0  0
  191.9330  173.3690  144.6140 C   0  0  0  0  0  2  0  0  0  0  0  0
  190.4320  172.0740  143.1620 C   0  0  0  0  0  2  0  0  0  0  0  0
  188.3120  176.9310  144.2420 C   0  0  0  0  0  3  0  0  0  0  0  0
  189.4770  176.9570  143.5940 C   0  0  0  0  0  3  0  0  0  0  0  0
  187.2510  177.9780  144.0290 C   0  0  2  0  0  3  0  0  0  0  0  0
  186.8220  177.8870  146.4910 C   0  0  0  0  0  3  0  0  0  0  0  0
  184.6680  178.4590  147.4380 C   0  0  0  0  0  3  0  0  0  0  0  0
  185.0020  178.5630  145.0440 C   0  0  0  0  0  3  0  0  0  0  0  0
  184.1720  178.7180  146.1570 C   0  0  0  0  0  3  0  0  0  0  0  0
  185.9930  178.0430  147.6050 C   0  0  0  0  0  3  0  0  0  0  0  0
  186.3330  178.1450  145.2060 C   0  0  0  0  0  0  0  0  0  0  0  0
  186.4030  178.7780  141.9300 O   0  0  0  0  0  0  0  0  0  0  0  0
  186.5160  177.8150  142.7330 C   0  0  0  0  0  0  0  0  0  0  0  0
  185.9520  176.5870  142.4170 O   0  0  0  0  0  1  0  0  0  0  0  0
  188.2510  173.9660  142.1190 C   0  0  0  0  0  1  0  0  0  0  0  0
  189.4660  174.6490  142.0190 O   0  0  0  0  0  0  0  0  0  0  0  0
  190.2500  171.1900  140.9360 O   0  0  0  0  0  0  0  0  0  0  0  0
  191.7210  169.5210  137.9620 C   0  0  0  0  0  0  0  0  0  0  0  0
  191.0150  171.7460  137.3400 C   0  0  0  0  0  3  0  0  0  0  0  0
  192.2980  168.2990  137.6370 O   0  0  0  0  0  1  0  0  0  0  0  0
  191.2790  169.7500  139.2650 C   0  0  0  0  0  3  0  0  0  0  0  0
  191.5830  170.5200  136.9950 C   0  0  0  0  0  0  0  0  0  0  0  0
  190.5750  171.9970  138.6450 C   0  0  0  0  0  0  0  0  0  0  0  0
  190.7030  170.9810  139.6260 C   0  0  0  0  0  0  0  0  0  0  0  0
  192.0170  170.3030  135.6920 O   0  0  0  0  0  1  0  0  0  0  0  0
  190.0240  173.2620  138.9020 O   0  0  0  0  0  0  0  0  0  0  0  0
  188.7770  173.7170  138.3990 C   0  0  0  0  0  1  0  0  0  0  0  0
  2 27  1  6  0  0  0
  2  5  1  0  0  0  0
  2 10  1  0  0  0  0
  5  3  1  6  0  0  0
  5 12  1  0  0  0  0
  6 28  1  6  0  0  0
  6 13  1  0  0  0  0
  7  4  1  0  0  0  0
  8  4  1  0  0  0  0
  8  1  1  1  0  0  0
  9  6  1  0  0  0  0
  9  3  1  0  0  0  0
 10 15  1  6  0  0  0
 11 10  1  0  0  0  0
 11  7  1  0  0  0  0
 12  8  1  0  0  0  0
 13  5  1  0  0  0  0
 15 14  2  0  0  0  0
 16 14  1  1  0  0  0
 16 22  1  0  0  0  0
 17 21  1  0  0  0  0
 18 21  2  0  0  0  0
 19 22  1  0  0  0  0
 19 20  2  0  0  0  0
 20 18  1  0  0  0  0
 22 17  2  0  0  0  0
 23 24  2  0  0  0  0
 24 16  1  0  0  0  0
 25 24  1  0  0  0  0
 27 26  1  0  0  0  0
 29 32  1  0  0  0  0
 30 34  2  0  0  0  0
 31 29  1  0  0  0  0
 32 35  2  0  0  0  0
 33 30  1  0  0  0  0
 33 29  2  0  0  0  0
 34 37  1  0  0  0  0
 34 35  1  0  0  0  0
 35 28  1  0  0  0  0
 36 33  1  0  0  0  0
 38 37  1  0  0  0  0
M  END
>  <MODEL>
4

>  <REMARK>
 VINA RESULT:      -7.1      1.999      8.411
  Name = 
  8 active torsions:
  status: ('A' for Active; 'I' for Inactive)
    1  A    between atoms: C_4  and  C_18
    2  A    between atoms: C_4  and  C_23
    3  A    between atoms: C_4  and  C_37
    4  A    between atoms: C_6  and  O_28
    5  A    between atoms: O_8  and  C_25
    6  A    between atoms: C_19  and  O_32
    7  A    between atoms: C_20  and  C_31
    8  A    between atoms: C_26  and  O_32
                            x       y       z     vdW  Elec       q    Type
                         _______ _______ _______ _____ _____    ______ ____

>  <TORSDO>
F 8

$$$$
=
 OpenBabel11062419233D

 38 41  0  0  1  0  0  0  0  0999 V2000
  189.4110  171.5340  139.3070 N   0  0  0  0  0  1  0  0  0  0  0  0
  191.8920  172.8510  143.1660 C   0  0  1  0  0  3  0  0  0  0  0  0
  190.6450  174.4820  141.6510 C   0  0  0  0  0  2  0  0  0  0  0  0
  191.6800  171.0690  140.0010 C   0  0  0  0  0  2  0  0  0  0  0  0
  190.5540  173.1880  142.4580 C   0  0  1  0  0  0  0  0  0  0  0  0
  188.8130  174.7700  143.1880 C   0  0  1  0  0  3  0  0  0  0  0  0
  193.0190  171.8180  140.0500 C   0  0  0  0  0  2  0  0  0  0  0  0
  190.4930  172.0030  140.1530 C   0  0  2  0  0  3  0  0  0  0  0  0
  189.3070  175.1640  141.8110 C   0  0  0  0  0  2  0  0  0  0  0  0
  192.9440  172.1540  142.2840 C   0  0  1  0  0  3  0  0  0  0  0  0
  193.0770  172.8090  141.0510 O   0  0  0  0  0  0  0  0  0  0  0  0
  190.0160  172.0190  141.6070 C   0  0  0  0  0  2  0  0  0  0  0  0
  189.5070  173.4610  143.5310 C   0  0  0  0  0  2  0  0  0  0  0  0
  194.4960  171.0810  143.8770 C   0  0  0  0  0  3  0  0  0  0  0  0
  194.2650  172.0440  142.9830 C   0  0  0  0  0  3  0  0  0  0  0  0
  195.8130  170.9540  144.5960 C   0  0  2  0  0  3  0  0  0  0  0  0
  194.5510  169.4040  146.0980 C   0  0  0  0  0  3  0  0  0  0  0  0
  195.6240  168.2390  147.9300 C   0  0  0  0  0  3  0  0  0  0  0  0
  196.9120  169.7300  146.5260 C   0  0  0  0  0  3  0  0  0  0  0  0
  196.8410  168.8450  147.6040 C   0  0  0  0  0  3  0  0  0  0  0  0
  194.4790  168.5180  147.1760 C   0  0  0  0  0  3  0  0  0  0  0  0
  195.7650  170.0140  145.7670 C   0  0  0  0  0  0  0  0  0  0  0  0
  197.5520  172.6060  144.4700 O   0  0  0  0  0  0  0  0  0  0  0  0
  196.4280  172.2790  144.9350 C   0  0  0  0  0  0  0  0  0  0  0  0
  195.7490  173.1520  145.7730 O   0  0  0  0  0  1  0  0  0  0  0  0
  192.2640  173.7570  145.1600 C   0  0  0  0  0  1  0  0  0  0  0  0
  192.4270  173.9870  143.7910 O   0  0  0  0  0  0  0  0  0  0  0  0
  189.1910  175.7640  144.1370 O   0  0  0  0  0  0  0  0  0  0  0  0
  186.6160  178.2900  145.0190 C   0  0  0  0  0  0  0  0  0  0  0  0
  187.0760  176.9320  146.9630 C   0  0  0  0  0  3  0  0  0  0  0  0
  185.9330  179.3350  144.4060 O   0  0  0  0  0  1  0  0  0  0  0  0
  187.5510  177.5560  144.2900 C   0  0  0  0  0  3  0  0  0  0  0  0
  186.3740  177.9740  146.3580 C   0  0  0  0  0  0  0  0  0  0  0  0
  188.0250  176.1910  146.2500 C   0  0  0  0  0  0  0  0  0  0  0  0
  188.2660  176.5020  144.8870 C   0  0  0  0  0  0  0  0  0  0  0  0
  185.4420  178.6970  147.0950 O   0  0  0  0  0  1  0  0  0  0  0  0
  188.6890  175.1670  146.9430 O   0  0  0  0  0  0  0  0  0  0  0  0
  189.9620  175.3000  147.5560 C   0  0  0  0  0  1  0  0  0  0  0  0
  2 27  1  6  0  0  0
  3  9  1  0  0  0  0
  3  5  1  0  0  0  0
  4  7  1  0  0  0  0
  4  8  1  0  0  0  0
  5 12  1  6  0  0  0
  5  2  1  0  0  0  0
  5 13  1  0  0  0  0
  6 13  1  0  0  0  0
  6 28  1  1  0  0  0
  7 11  1  0  0  0  0
  8  1  1  6  0  0  0
  8 12  1  0  0  0  0
  9  6  1  0  0  0  0
 10 15  1  1  0  0  0
 10  2  1  0  0  0  0
 11 10  1  0  0  0  0
 15 14  2  0  0  0  0
 16 14  1  1  0  0  0
 16 24  1  0  0  0  0
 16 22  1  0  0  0  0
 17 21  1  0  0  0  0
 19 20  2  0  0  0  0
 20 18  1  0  0  0  0
 21 18  2  0  0  0  0
 22 17  2  0  0  0  0
 22 19  1  0  0  0  0
 23 24  2  0  0  0  0
 24 25  1  0  0  0  0
 27 26  1  0  0  0  0
 28 35  1  0  0  0  0
 29 33  1  0  0  0  0
 31 29  1  0  0  0  0
 32 35  1  0  0  0  0
 32 29  2  0  0  0  0
 33 30  2  0  0  0  0
 33 36  1  0  0  0  0
 34 37  1  0  0  0  0
 34 30  1  0  0  0  0
 35 34  2  0  0  0  0
 37 38  1  0  0  0  0
M  END
>  <MODEL>
5

>  <REMARK>
 VINA RESULT:      -6.9      3.488      6.313
  Name = 
  8 active torsions:
  status: ('A' for Active; 'I' for Inactive)
    1  A    between atoms: C_4  and  C_18
    2  A    between atoms: C_4  and  C_23
    3  A    between atoms: C_4  and  C_37
    4  A    between atoms: C_6  and  O_28
    5  A    between atoms: O_8  and  C_25
    6  A    between atoms: C_19  and  O_32
    7  A    between atoms: C_20  and  C_31
    8  A    between atoms: C_26  and  O_32
                            x       y       z     vdW  Elec       q    Type
                         _______ _______ _______ _____ _____    ______ ____

>  <TORSDO>
F 8

$$$$
=
 OpenBabel11062419233D

 38 41  0  0  1  0  0  0  0  0999 V2000
  191.8160  177.2640  148.3610 N   0  0  0  0  0  1  0  0  0  0  0  0
  190.3890  175.7160  144.0780 C   0  0  1  0  0  3  0  0  0  0  0  0
  189.1050  175.2970  146.2420 C   0  0  0  0  0  2  0  0  0  0  0  0
  192.9520  175.9950  146.6450 C   0  0  0  0  0  2  0  0  0  0  0  0
  189.7850  176.3430  145.3610 C   0  0  1  0  0  0  0  0  0  0  0  0
  187.4410  176.9750  145.7780 C   0  0  1  0  0  3  0  0  0  0  0  0
  192.9430  174.5520  146.1190 C   0  0  0  0  0  2  0  0  0  0  0  0
  191.6030  176.4100  147.2080 C   0  0  2  0  0  3  0  0  0  0  0  0
  187.8870  175.9750  146.8250 C   0  0  0  0  0  2  0  0  0  0  0  0
  191.7700  175.0590  144.2540 C   0  0  1  0  0  3  0  0  0  0  0  0
  191.7870  174.2260  145.3820 O   0  0  0  0  0  0  0  0  0  0  0  0
  190.8070  177.1830  146.1550 C   0  0  0  0  0  2  0  0  0  0  0  0
  188.6710  177.2960  144.9440 C   0  0  0  0  0  2  0  0  0  0  0  0
  191.9370  173.0090  142.8890 C   0  0  0  0  0  3  0  0  0  0  0  0
  192.1870  174.3120  143.0240 C   0  0  0  0  0  3  0  0  0  0  0  0
  192.3510  172.2360  141.6650 C   0  0  2  0  0  3  0  0  0  0  0  0
  190.0290  172.1560  140.7420 C   0  0  0  0  0  3  0  0  0  0  0  0
  189.5570  172.6400  138.4160 C   0  0  0  0  0  3  0  0  0  0  0  0
  191.8330  172.7300  139.2320 C   0  0  0  0  0  3  0  0  0  0  0  0
  190.9190  172.8610  138.1850 C   0  0  0  0  0  3  0  0  0  0  0  0
  189.1120  172.2880  139.6950 C   0  0  0  0  0  3  0  0  0  0  0  0
  191.3920  172.3750  140.5170 C   0  0  0  0  0  0  0  0  0  0  0  0
  192.6650  170.3680  143.1430 O   0  0  0  0  0  1  0  0  0  0  0  0
  192.7010  170.8090  141.9630 C   0  0  0  0  0  0  0  0  0  0  0  0
  193.0730  169.9650  140.9260 O   0  0  0  0  0  0  0  0  0  0  0  0
  189.2140  175.3850  142.2210 C   0  0  0  0  0  1  0  0  0  0  0  0
  189.4790  174.8320  143.4770 O   0  0  0  0  0  0  0  0  0  0  0  0
  186.4480  176.3870  144.9430 O   0  0  0  0  0  0  0  0  0  0  0  0
  185.9260  177.4410  141.4210 C   0  0  0  0  0  0  0  0  0  0  0  0
  184.2520  178.4940  142.8080 C   0  0  0  0  0  3  0  0  0  0  0  0
  186.5050  177.2260  140.1750 O   0  0  0  0  0  1  0  0  0  0  0  0
  186.4630  176.8200  142.5480 C   0  0  0  0  0  3  0  0  0  0  0  0
  184.8140  178.2760  141.5500 C   0  0  0  0  0  0  0  0  0  0  0  0
  184.7830  177.8870  143.9510 C   0  0  0  0  0  0  0  0  0  0  0  0
  185.9060  177.0300  143.8220 C   0  0  0  0  0  0  0  0  0  0  0  0
  184.2670  178.9000  140.4340 O   0  0  0  0  0  1  0  0  0  0  0  0
  184.1580  178.1710  145.1750 O   0  0  0  0  0  0  0  0  0  0  0  0
  184.6800  179.0410  146.1670 C   0  0  0  0  0  1  0  0  0  0  0  0
  2 27  1  1  0  0  0
  2 10  1  0  0  0  0
  2  5  1  0  0  0  0
  3  9  1  0  0  0  0
  4  8  1  0  0  0  0
  5 13  1  6  0  0  0
  5 12  1  0  0  0  0
  5  3  1  0  0  0  0
  6 28  1  6  0  0  0
  6  9  1  0  0  0  0
  7  4  1  0  0  0  0
  8  1  1  1  0  0  0
 10 15  1  6  0  0  0
 10 11  1  0  0  0  0
 11  7  1  0  0  0  0
 12  8  1  0  0  0  0
 13  6  1  0  0  0  0
 14 15  2  0  0  0  0
 16 24  1  0  0  0  0
 16 14  1  1  0  0  0
 18 21  1  0  0  0  0
 19 22  2  0  0  0  0
 20 18  2  0  0  0  0
 20 19  1  0  0  0  0
 21 17  2  0  0  0  0
 22 17  1  0  0  0  0
 22 16  1  0  0  0  0
 24 23  1  0  0  0  0
 25 24  2  0  0  0  0
 26 27  1  0  0  0  0
 29 33  2  0  0  0  0
 29 32  1  0  0  0  0
 30 34  2  0  0  0  0
 31 29  1  0  0  0  0
 32 35  2  0  0  0  0
 33 30  1  0  0  0  0
 34 37  1  0  0  0  0
 35 34  1  0  0  0  0
 35 28  1  0  0  0  0
 36 33  1  0  0  0  0
 37 38  1  0  0  0  0
M  END
>  <MODEL>
6

>  <REMARK>
 VINA RESULT:      -6.8      1.553      1.975
  Name = 
  8 active torsions:
  status: ('A' for Active; 'I' for Inactive)
    1  A    between atoms: C_4  and  C_18
    2  A    between atoms: C_4  and  C_23
    3  A    between atoms: C_4  and  C_37
    4  A    between atoms: C_6  and  O_28
    5  A    between atoms: O_8  and  C_25
    6  A    between atoms: C_19  and  O_32
    7  A    between atoms: C_20  and  C_31
    8  A    between atoms: C_26  and  O_32
                            x       y       z     vdW  Elec       q    Type
                         _______ _______ _______ _____ _____    ______ ____

>  <TORSDO>
F 8

$$$$
=
 OpenBabel11062419233D

 38 41  0  0  1  0  0  0  0  0999 V2000
  188.3370  172.5610  138.8600 N   0  0  0  0  0  1  0  0  0  0  0  0
  189.5720  173.3170  143.4080 C   0  0  1  0  0  3  0  0  0  0  0  0
  189.5520  175.1350  141.6180 C   0  0  0  0  0  2  0  0  0  0  0  0
  189.9240  171.4490  140.3060 C   0  0  0  0  0  2  0  0  0  0  0  0
  188.7620  174.0070  142.2800 C   0  0  1  0  0  0  0  0  0  0  0  0
  187.4970  176.1180  142.4010 C   0  0  1  0  0  3  0  0  0  0  0  0
  191.3250  171.7300  140.8680 C   0  0  0  0  0  2  0  0  0  0  0  0
  189.1370  172.7240  140.0590 C   0  0  2  0  0  3  0  0  0  0  0  0
  188.5470  176.2200  141.3140 C   0  0  0  0  0  2  0  0  0  0  0  0
  190.5770  172.2500  142.9360 C   0  0  1  0  0  3  0  0  0  0  0  0
  191.3460  172.7270  141.8640 O   0  0  0  0  0  0  0  0  0  0  0  0
  188.2090  173.0090  141.2420 C   0  0  0  0  0  2  0  0  0  0  0  0
  187.5540  174.6870  142.9130 C   0  0  0  0  0  2  0  0  0  0  0  0
  192.7700  171.6640  143.9080 C   0  0  0  0  0  3  0  0  0  0  0  0
  191.4500  171.7790  144.0590 C   0  0  0  0  0  3  0  0  0  0  0  0
  193.6660  171.1870  145.0190 C   0  0  2  0  0  3  0  0  0  0  0  0
  194.4800  173.5070  145.4750 C   0  0  0  0  0  3  0  0  0  0  0  0
  196.8040  173.9760  145.9690 C   0  0  0  0  0  3  0  0  0  0  0  0
  196.0960  171.7040  145.5290 C   0  0  0  0  0  3  0  0  0  0  0  0
  197.1070  172.6170  145.8400 C   0  0  0  0  0  3  0  0  0  0  0  0
  195.4910  174.4210  145.7860 C   0  0  0  0  0  3  0  0  0  0  0  0
  194.7760  172.1450  145.3440 C   0  0  0  0  0  0  0  0  0  0  0  0
  194.5150  169.3770  143.6870 O   0  0  0  0  0  0  0  0  0  0  0  0
  194.1480  169.7810  144.8220 C   0  0  0  0  0  0  0  0  0  0  0  0
  194.1890  168.9140  145.9060 O   0  0  0  0  0  1  0  0  0  0  0  0
  189.6810  174.0230  145.5110 C   0  0  0  0  0  1  0  0  0  0  0  0
  190.1910  174.2670  144.2330 O   0  0  0  0  0  0  0  0  0  0  0  0
  187.8170  177.0110  143.4650 O   0  0  0  0  0  0  0  0  0  0  0  0
  186.1190  177.2290  146.7600 C   0  0  0  0  0  0  0  0  0  0  0  0
  184.9790  178.6750  145.1960 C   0  0  0  0  0  3  0  0  0  0  0  0
  186.2450  176.6820  148.0310 O   0  0  0  0  0  1  0  0  0  0  0  0
  187.0130  176.8560  145.7560 C   0  0  0  0  0  3  0  0  0  0  0  0
  185.1020  178.1450  146.4800 C   0  0  0  0  0  0  0  0  0  0  0  0
  185.8610  178.3050  144.1750 C   0  0  0  0  0  0  0  0  0  0  0  0
  186.9010  177.3840  144.4580 C   0  0  0  0  0  0  0  0  0  0  0  0
  184.2060  178.5260  147.4720 O   0  0  0  0  0  1  0  0  0  0  0  0
  185.6560  178.8830  142.9120 O   0  0  0  0  0  0  0  0  0  0  0  0
  184.7130  178.4240  141.9570 C   0  0  0  0  0  1  0  0  0  0  0  0
  2 27  1  6  0  0  0
  3  5  1  0  0  0  0
  4  7  1  0  0  0  0
  5 12  1  6  0  0  0
  5 13  1  0  0  0  0
  5  2  1  0  0  0  0
  6 13  1  0  0  0  0
  6 28  1  1  0  0  0
  7 11  1  0  0  0  0
  8  1  1  6  0  0  0
  8  4  1  0  0  0  0
  8 12  1  0  0  0  0
  9  3  1  0  0  0  0
  9  6  1  0  0  0  0
 10  2  1  0  0  0  0
 10 15  1  1  0  0  0
 11 10  1  0  0  0  0
 14 15  2  0  0  0  0
 16 14  1  6  0  0  0
 16 22  1  0  0  0  0
 17 21  1  0  0  0  0
 19 20  2  0  0  0  0
 20 18  1  0  0  0  0
 21 18  2  0  0  0  0
 22 17  2  0  0  0  0
 22 19  1  0  0  0  0
 23 24  2  0  0  0  0
 24 16  1  0  0  0  0
 24 25  1  0  0  0  0
 27 26  1  0  0  0  0
 28 35  1  0  0  0  0
 29 31  1  0  0  0  0
 30 33  2  0  0  0  0
 32 29  2  0  0  0  0
 33 29  1  0  0  0  0
 33 36  1  0  0  0  0
 34 35  2  0  0  0  0
 34 30  1  0  0  0  0
 35 32  1  0  0  0  0
 37 34  1  0  0  0  0
 38 37  1  0  0  0  0
M  END
>  <MODEL>
7

>  <REMARK>
 VINA RESULT:      -6.8      2.846      5.760
  Name = 
  8 active torsions:
  status: ('A' for Active; 'I' for Inactive)
    1  A    between atoms: C_4  and  C_18
    2  A    between atoms: C_4  and  C_23
    3  A    between atoms: C_4  and  C_37
    4  A    between atoms: C_6  and  O_28
    5  A    between atoms: O_8  and  C_25
    6  A    between atoms: C_19  and  O_32
    7  A    between atoms: C_20  and  C_31
    8  A    between atoms: C_26  and  O_32
                            x       y       z     vdW  Elec       q    Type
                         _______ _______ _______ _____ _____    ______ ____

>  <TORSDO>
F 8

$$$$
=
 OpenBabel11062419233D

 38 41  0  0  1  0  0  0  0  0999 V2000
  193.0270  175.7720  146.9350 N   0  0  0  0  0  1  0  0  0  0  0  0
  189.3650  175.3650  143.9020 C   0  0  1  0  0  3  0  0  0  0  0  0
  191.6110  176.4060  143.2880 C   0  0  0  0  0  2  0  0  0  0  0  0
  190.7070  176.4270  147.1130 C   0  0  0  0  0  2  0  0  0  0  0  0
  190.9070  175.2020  143.9110 C   0  0  1  0  0  0  0  0  0  0  0  0
  192.3610  174.4750  142.0600 C   0  0  1  0  0  3  0  0  0  0  0  0
  189.8070  177.5450  146.5660 C   0  0  0  0  0  2  0  0  0  0  0  0
  191.8400  176.0860  146.1620 C   0  0  2  0  0  3  0  0  0  0  0  0
  192.7930  175.8490  142.5310 C   0  0  0  0  0  2  0  0  0  0  0  0
  188.7880  176.2150  145.0490 C   0  0  1  0  0  3  0  0  0  0  0  0
  189.5070  177.4110  145.1960 O   0  0  0  0  0  0  0  0  0  0  0  0
  191.4670  174.8710  145.3100 C   0  0  0  0  0  2  0  0  0  0  0  0
  191.2640  174.0250  143.0110 C   0  0  0  0  0  2  0  0  0  0  0  0
  186.8870  177.6910  144.4960 C   0  0  0  0  0  3  0  0  0  0  0  0
  187.3260  176.4840  144.8560 C   0  0  0  0  0  3  0  0  0  0  0  0
  185.4240  177.9870  144.3010 C   0  0  2  0  0  3  0  0  0  0  0  0
  185.9840  177.8580  141.8670 C   0  0  0  0  0  3  0  0  0  0  0  0
  184.3010  178.1320  140.1490 C   0  0  0  0  0  3  0  0  0  0  0  0
  183.6800  178.2790  142.4830 C   0  0  0  0  0  3  0  0  0  0  0  0
  183.3250  178.3220  141.1320 C   0  0  0  0  0  3  0  0  0  0  0  0
  185.6300  177.9000  140.5160 C   0  0  0  0  0  3  0  0  0  0  0  0
  185.0140  178.0480  142.8570 C   0  0  0  0  0  0  0  0  0  0  0  0
  184.2010  179.0210  146.0900 O   0  0  0  0  0  1  0  0  0  0  0  0
  184.9540  179.1700  145.0920 C   0  0  0  0  0  0  0  0  0  0  0  0
  185.3520  180.4450  144.7160 O   0  0  0  0  0  0  0  0  0  0  0  0
  188.2190  174.7480  142.1020 C   0  0  0  0  0  1  0  0  0  0  0  0
  188.9170  175.8250  142.6550 O   0  0  0  0  0  0  0  0  0  0  0  0
  191.8320  174.5640  140.7400 O   0  0  0  0  0  0  0  0  0  0  0  0
  191.4110  171.4120  138.8230 C   0  0  0  0  0  0  0  0  0  0  0  0
  193.1270  172.7440  137.7680 C   0  0  0  0  0  3  0  0  0  0  0  0
  190.6390  170.2570  138.8800 O   0  0  0  0  0  1  0  0  0  0  0  0
  191.2450  172.4010  139.7920 C   0  0  0  0  0  3  0  0  0  0  0  0
  192.3510  171.5870  137.8040 C   0  0  0  0  0  0  0  0  0  0  0  0
  192.9820  173.7430  138.7380 C   0  0  0  0  0  0  0  0  0  0  0  0
  192.0210  173.5730  139.7670 C   0  0  0  0  0  0  0  0  0  0  0  0
  192.5240  170.6100  136.8300 O   0  0  0  0  0  1  0  0  0  0  0  0
  193.8120  174.8690  138.6270 O   0  0  0  0  0  0  0  0  0  0  0  0
  195.0410  175.0390  139.3150 C   0  0  0  0  0  1  0  0  0  0  0  0
  2 27  1  6  0  0  0
  2  5  1  0  0  0  0
  2 10  1  0  0  0  0
  3  5  1  0  0  0  0
  5 13  1  6  0  0  0
  5 12  1  0  0  0  0
  6 28  1  6  0  0  0
  6  9  1  0  0  0  0
  6 13  1  0  0  0  0
  7  4  1  0  0  0  0
  8  1  1  1  0  0  0
  8  4  1  0  0  0  0
  9  3  1  0  0  0  0
 10 15  1  6  0  0  0
 10 11  1  0  0  0  0
 11  7  1  0  0  0  0
 12  8  1  0  0  0  0
 14 15  2  0  0  0  0
 16 14  1  6  0  0  0
 16 24  1  0  0  0  0
 17 22  1  0  0  0  0
 18 21  1  0  0  0  0
 18 20  2  0  0  0  0
 19 22  2  0  0  0  0
 20 19  1  0  0  0  0
 21 17  2  0  0  0  0
 22 16  1  0  0  0  0
 24 23  1  0  0  0  0
 25 24  2  0  0  0  0
 26 27  1  0  0  0  0
 29 31  1  0  0  0  0
 29 32  1  0  0  0  0
 30 33  1  0  0  0  0
 30 34  2  0  0  0  0
 33 29  2  0  0  0  0
 34 35  1  0  0  0  0
 35 32  2  0  0  0  0
 35 28  1  0  0  0  0
 36 33  1  0  0  0  0
 37 34  1  0  0  0  0
 37 38  1  0  0  0  0
M  END
>  <MODEL>
8

>  <REMARK>
 VINA RESULT:      -6.8      2.192      8.199
  Name = 
  8 active torsions:
  status: ('A' for Active; 'I' for Inactive)
    1  A    between atoms: C_4  and  C_18
    2  A    between atoms: C_4  and  C_23
    3  A    between atoms: C_4  and  C_37
    4  A    between atoms: C_6  and  O_28
    5  A    between atoms: O_8  and  C_25
    6  A    between atoms: C_19  and  O_32
    7  A    between atoms: C_20  and  C_31
    8  A    between atoms: C_26  and  O_32
                            x       y       z     vdW  Elec       q    Type
                         _______ _______ _______ _____ _____    ______ ____

>  <TORSDO>
F 8

$$$$
=
 OpenBabel11062419233D

 38 41  0  0  1  0  0  0  0  0999 V2000
  194.6080  177.2480  146.6030 N   0  0  0  0  0  1  0  0  0  0  0  0
  191.5260  174.5640  144.1400 C   0  0  1  0  0  3  0  0  0  0  0  0
  191.2150  175.2010  146.5900 C   0  0  0  0  0  2  0  0  0  0  0  0
  194.9150  175.2570  145.2670 C   0  0  0  0  0  2  0  0  0  0  0  0
  191.5120  175.7120  145.1820 C   0  0  1  0  0  0  0  0  0  0  0  0
  189.5560  176.8820  146.1170 C   0  0  1  0  0  3  0  0  0  0  0  0
  194.6510  173.7510  145.4120 C   0  0  0  0  0  2  0  0  0  0  0  0
  193.9220  176.0930  146.0560 C   0  0  2  0  0  3  0  0  0  0  0  0
  190.3570  176.2600  147.2420 C   0  0  0  0  0  2  0  0  0  0  0  0
  192.8400  173.7660  144.0590 C   0  0  1  0  0  3  0  0  0  0  0  0
  193.2860  173.4060  145.3400 O   0  0  0  0  0  0  0  0  0  0  0  0
  192.7920  176.5720  145.1430 C   0  0  0  0  0  2  0  0  0  0  0  0
  190.3540  176.6430  144.8450 C   0  0  0  0  0  2  0  0  0  0  0  0
  192.6210  172.6820  141.8520 C   0  0  0  0  0  3  0  0  0  0  0  0
  192.7020  172.5620  143.1780 C   0  0  0  0  0  3  0  0  0  0  0  0
  192.4760  171.4880  140.9460 C   0  0  2  0  0  3  0  0  0  0  0  0
  191.1780  173.0190  139.4550 C   0  0  0  0  0  3  0  0  0  0  0  0
  190.7930  172.5100  137.1190 C   0  0  0  0  0  3  0  0  0  0  0  0
  192.0520  170.9720  138.4990 C   0  0  0  0  0  3  0  0  0  0  0  0
  191.5040  171.3140  137.2610 C   0  0  0  0  0  3  0  0  0  0  0  0
  190.6300  173.3630  138.2160 C   0  0  0  0  0  3  0  0  0  0  0  0
  191.8910  171.8240  139.6040 C   0  0  0  0  0  0  0  0  0  0  0  0
  192.4350  169.2840  141.9000 O   0  0  0  0  0  1  0  0  0  0  0  0
  191.7940  170.3280  141.6070 C   0  0  0  0  0  0  0  0  0  0  0  0
  190.4390  170.4070  141.8960 O   0  0  0  0  0  0  0  0  0  0  0  0
  189.6000  173.9520  143.2170 C   0  0  0  0  0  1  0  0  0  0  0  0
  190.4250  173.7120  144.3190 O   0  0  0  0  0  0  0  0  0  0  0  0
  188.2930  176.2320  146.0090 O   0  0  0  0  0  0  0  0  0  0  0  0
  185.1650  178.1530  146.5710 C   0  0  0  0  0  0  0  0  0  0  0  0
  185.4410  177.7870  144.1990 C   0  0  0  0  0  3  0  0  0  0  0  0
  184.4410  178.6700  147.6390 O   0  0  0  0  0  1  0  0  0  0  0  0
  186.3500  177.4580  146.8110 C   0  0  0  0  0  3  0  0  0  0  0  0
  184.7120  178.3230  145.2600 C   0  0  0  0  0  0  0  0  0  0  0  0
  186.6280  177.0790  144.4230 C   0  0  0  0  0  0  0  0  0  0  0  0
  187.0960  176.9140  145.7510 C   0  0  0  0  0  0  0  0  0  0  0  0
  183.5340  179.0150  145.0070 O   0  0  0  0  0  1  0  0  0  0  0  0
  187.2900  176.5690  143.2960 O   0  0  0  0  0  0  0  0  0  0  0  0
  187.7560  177.3520  142.2080 C   0  0  0  0  0  1  0  0  0  0  0  0
  2 27  1  1  0  0  0
  2  5  1  0  0  0  0
  3  9  1  0  0  0  0
  4  7  1  0  0  0  0
  4  8  1  0  0  0  0
  5 13  1  6  0  0  0
  5  3  1  0  0  0  0
  6 28  1  6  0  0  0
  6  9  1  0  0  0  0
  8  1  1  6  0  0  0
 10 15  1  6  0  0  0
 10  2  1  0  0  0  0
 10 11  1  0  0  0  0
 11  7  1  0  0  0  0
 12  5  1  0  0  0  0
 12  8  1  0  0  0  0
 13  6  1  0  0  0  0
 14 15  2  0  0  0  0
 16 24  1  0  0  0  0
 16 14  1  1  0  0  0
 17 22  1  0  0  0  0
 18 20  2  0  0  0  0
 18 21  1  0  0  0  0
 19 22  2  0  0  0  0
 20 19  1  0  0  0  0
 21 17  2  0  0  0  0
 22 16  1  0  0  0  0
 24 25  2  0  0  0  0
 24 23  1  0  0  0  0
 26 27  1  0  0  0  0
 29 32  1  0  0  0  0
 29 31  1  0  0  0  0
 30 34  2  0  0  0  0
 30 33  1  0  0  0  0
 33 29  2  0  0  0  0
 34 35  1  0  0  0  0
 35 28  1  0  0  0  0
 35 32  2  0  0  0  0
 36 33  1  0  0  0  0
 37 34  1  0  0  0  0
 38 37  1  0  0  0  0
M  END
>  <MODEL>
9

>  <REMARK>
 VINA RESULT:      -6.8      1.310      2.265
  Name = 
  8 active torsions:
  status: ('A' for Active; 'I' for Inactive)
    1  A    between atoms: C_4  and  C_18
    2  A    between atoms: C_4  and  C_23
    3  A    between atoms: C_4  and  C_37
    4  A    between atoms: C_6  and  O_28
    5  A    between atoms: O_8  and  C_25
    6  A    between atoms: C_19  and  O_32
    7  A    between atoms: C_20  and  C_31
    8  A    between atoms: C_26  and  O_32
                            x       y       z     vdW  Elec       q    Type
                         _______ _______ _______ _____ _____    ______ ____

>  <TORSDO>
F 8

$$$$
