=
 OpenBabel11062423043D

 57 62  0  0  1  0  0  0  0  0999 V2000
  190.3450  173.2790  143.5290 C   0  0  2  0  0  3  0  0  0  0  0  0
  189.5260  173.0860  144.7940 C   0  0  0  0  0  1  0  0  0  0  0  0
  189.0660  176.4210  142.1760 N   0  0  0  0  0  2  0  0  0  0  0  0
  188.2160  174.2300  142.6500 N   0  0  0  0  0  0  0  0  0  0  0  0
  187.8720  175.5780  142.1970 C   0  0  1  0  0  3  0  0  0  0  0  0
  189.6520  174.1330  142.4540 C   0  0  1  0  0  3  0  0  0  0  0  0
  187.5990  173.3130  141.7030 C   0  0  0  0  0  1  0  0  0  0  0  0
  190.1840  175.5420  142.4710 C   0  0  0  0  0  2  0  0  0  0  0  0
  186.7370  176.2310  143.0080 C   0  0  2  0  0  3  0  0  0  0  0  0
  186.5540  178.1210  140.6990 O   0  0  0  0  0  0  0  0  0  0  0  0
  186.6360  178.3920  143.6390 C   0  0  0  0  0  2  0  0  0  0  0  0
  185.9120  177.6140  142.1780 P   0  0  2  0  0  0  0  0  0  0  0  0
  184.4030  177.5320  142.2090 O   0  0  0  0  0  1  0  0  0  0  0  0
  187.2590  177.0910  144.1670 C   0  0  1  0  0  3  0  0  0  0  0  0
  186.7110  176.7600  145.5360 C   0  0  0  0  0  0  0  0  0  0  0  0
  187.5250  176.4990  146.6900 N   0  0  0  0  0  2  0  0  0  0  0  0
  185.4630  176.8400  145.7020 O   0  0  0  0  0  0  0  0  0  0  0  0
  188.8850  176.0770  146.6660 C   0  0  0  0  0  3  0  0  0  0  0  0
  189.8430  176.8770  147.1110 C   0  0  0  0  0  3  0  0  0  0  0  0
  191.2670  176.4310  147.1300 C   0  0  1  0  0  3  0  0  0  0  0  0
  191.4680  175.3100  148.1380 C   0  0  0  0  0  1  0  0  0  0  0  0
  191.6570  175.9460  145.7460 C   0  0  0  0  0  2  0  0  0  0  0  0
  193.7720  177.0950  146.2060 N   0  0  0  0  0  0  0  0  0  0  0  0
  193.0430  176.2830  145.4600 N   0  0  0  0  0  0  0  0  0  0  0  0
  194.9990  176.4560  144.5810 C   0  0  0  0  0  0  0  0  0  0  0  0
  193.7700  175.8510  144.4140 C   0  0  0  0  0  3  0  0  0  0  0  0
  194.9830  177.2200  145.6880 N   0  0  0  0  0  0  0  0  0  0  0  0
  197.0210  176.8350  142.8420 N   0  0  0  0  0  0  0  0  0  0  0  0
  196.1520  176.3070  143.7010 C   0  0  0  0  0  0  0  0  0  0  0  0
  197.1210  175.5220  143.1610 O   0  0  0  0  0  0  0  0  0  0  0  0
  190.8310  171.9670  143.0050 C   0  0  0  0  0  0  0  0  0  0  0  0
  189.9830  171.1050  142.6450 O   0  0  0  0  0  0  0  0  0  0  0  0
  192.1980  171.7070  142.8830 O   0  0  0  0  0  0  0  0  0  0  0  0
  192.6760  170.5360  142.2350 C   0  0  0  0  0  2  0  0  0  0  0  0
  193.4030  170.9000  140.9560 C   0  0  0  0  0  2  0  0  0  0  0  0
  194.1150  172.2250  141.1030 C   0  0  0  0  0  2  0  0  0  0  0  0
  193.9510  172.9670  139.9320 O   0  0  0  0  0  0  0  0  0  0  0  0
  196.1990  173.2620  139.3280 O   0  0  0  0  0  0  0  0  0  0  0  0
  195.2970  175.2090  137.5110 O   0  0  0  0  0  0  0  0  0  0  0  0
  193.1860  175.8840  136.9580 O   0  0  0  0  0  1  0  0  0  0  0  0
  194.9970  172.5570  139.0930 C   0  0  2  0  0  3  0  0  0  0  0  0
  195.0270  175.6140  140.2630 O   0  0  0  0  0  1  0  0  0  0  0  0
  194.6060  172.4850  137.6060 C   0  0  2  0  0  3  0  0  0  0  0  0
  197.3450  175.6010  139.0760 O   0  0  0  0  0  0  0  0  0  0  0  0
  193.5890  173.5410  137.1650 C   0  0  0  0  0  2  0  0  0  0  0  0
  195.9870  174.9360  139.0420 P   0  0  1  0  0  0  0  0  0  0  0  0
  193.9320  174.9430  137.6640 C   0  0  1  0  0  3  0  0  0  0  0  0
  194.0790  171.0990  137.2810 C   0  0  0  0  0  2  0  0  0  0  0  0
  192.6410  171.1500  136.7690 C   0  0  0  0  0  2  0  0  0  0  0  0
  192.1280  169.3230  138.1670 O   0  0  0  0  0  0  0  0  0  0  0  0
  191.7040  170.3230  137.6040 C   0  0  0  0  0  0  0  0  0  0  0  0
  189.7770  173.6040  138.4200 C   0  0  0  0  0  2  0  0  0  0  0  0
  190.2790  170.7770  137.8270 C   0  0  2  0  0  3  0  0  0  0  0  0
  190.6000  172.6580  139.2940 C   0  0  0  0  0  2  0  0  0  0  0  0
  189.8000  171.7470  136.7660 C   0  0  0  0  0  3  0  0  0  0  0  0
  189.6090  173.0460  137.0330 C   0  0  0  0  0  3  0  0  0  0  0  0
  190.0700  171.2960  139.1880 N   0  0  0  0  0  2  0  0  0  0  0  0
  1  2  1  1  0  0  0
  3  8  1  0  0  0  0
  5  3  1  1  0  0  0
  5  4  1  0  0  0  0
  6  8  1  0  0  0  0
  6  4  1  0  0  0  0
  6  1  1  1  0  0  0
  7  4  1  0  0  0  0
  9  5  1  6  0  0  0
  9 14  1  0  0  0  0
 11 14  1  0  0  0  0
 12 10  2  6  0  0  0
 12 13  1  0  0  0  0
 12  9  1  0  0  0  0
 12 11  1  0  0  0  0
 14 15  1  1  0  0  0
 15 17  2  0  0  0  0
 15 16  1  0  0  0  0
 18 16  1  0  0  0  0
 18 19  2  0  0  0  0
 19 20  1  0  0  0  0
 20 21  1  1  0  0  0
 22 20  1  0  0  0  0
 24 22  1  0  0  0  0
 24 23  1  0  0  0  0
 25 27  1  0  0  0  0
 26 25  2  0  0  0  0
 26 24  1  0  0  0  0
 27 23  2  0  0  0  0
 28 30  1  0  0  0  0
 28 29  2  0  0  0  0
 29 25  1  0  0  0  0
 30 29  1  0  0  0  0
 31  1  1  0  0  0  0
 32 31  2  0  0  0  0
 33 31  1  0  0  0  0
 34 33  1  0  0  0  0
 35 36  1  0  0  0  0
 35 34  1  0  0  0  0
 37 36  1  0  0  0  0
 39 47  1  0  0  0  0
 39 46  1  0  0  0  0
 41 38  1  0  0  0  0
 41 37  1  1  0  0  0
 43 48  1  1  0  0  0
 43 41  1  0  0  0  0
 45 43  1  0  0  0  0
 45 47  1  0  0  0  0
 46 44  2  1  0  0  0
 46 38  1  0  0  0  0
 46 42  1  0  0  0  0
 47 40  1  6  0  0  0
 49 48  1  0  0  0  0
 49 51  1  0  0  0  0
 51 50  2  0  0  0  0
 52 54  1  0  0  0  0
 53 51  1  6  0  0  0
 53 57  1  0  0  0  0
 55 56  2  0  0  0  0
 55 53  1  0  0  0  0
 56 52  1  0  0  0  0
 57 54  1  0  0  0  0
M  END
>  <MODEL>
1

>  <REMARK>
 VINA RESULT:      -6.2      0.000      0.000
  Name = 
  19 active torsions:
  status: ('A' for Active; 'I' for Inactive)
    1  A    between atoms: C_1  and  N_43
    2  A    between atoms: C_3  and  O_54
    3  A    between atoms: C_3  and  C_55
    4  A    between atoms: C_8  and  C_13
    5  A    between atoms: C_8  and  O_15
    6  A    between atoms: C_11  and  C_16
    7  A    between atoms: C_12  and  O_54
    8  A    between atoms: C_13  and  C_18
    9  A    between atoms: C_14  and  C_44
   10  A    between atoms: O_15  and  C_25
   11  A    between atoms: C_23  and  C_26
   12  A    between atoms: C_25  and  C_55
   13  A    between atoms: C_26  and  C_56
   14  A    between atoms: N_27  and  C_56
   15  A    between atoms: C_28  and  C_51
   16  A    between atoms: C_30  and  C_44
   17  A    between atoms: C_30  and  C_48
   18  A    between atoms: C_31  and  C_48
   19  A    between atoms: C_35  and  C_38
                            x       y       z     vdW  Elec       q    Type
                         _______ _______ _______ _____ _____    ______ ____

>  <TORSDO>
F 19

$$$$
=
 OpenBabel11062423043D

 57 62  0  0  1  0  0  0  0  0999 V2000
  194.6510  176.0820  145.0450 C   0  0  2  0  0  3  0  0  0  0  0  0
  194.8470  177.2200  146.0340 C   0  0  0  0  0  1  0  0  0  0  0  0
  196.4480  172.9330  145.4750 N   0  0  0  0  0  2  0  0  0  0  0  0
  194.2430  173.6320  144.8460 N   0  0  0  0  0  0  0  0  0  0  0  0
  195.1390  172.4860  145.0050 C   0  0  1  0  0  3  0  0  0  0  0  0
  194.8470  174.6820  145.6490 C   0  0  1  0  0  3  0  0  0  0  0  0
  192.9950  173.2670  145.5010 C   0  0  0  0  0  1  0  0  0  0  0  0
  196.3130  174.3510  145.7570 C   0  0  0  0  0  2  0  0  0  0  0  0
  195.2620  171.6190  143.7380 C   0  0  2  0  0  3  0  0  0  0  0  0
  196.1050  169.4660  145.6330 O   0  0  0  0  0  1  0  0  0  0  0  0
  197.1090  170.5190  143.0630 C   0  0  0  0  0  2  0  0  0  0  0  0
  195.7260  169.8940  144.0430 P   0  0  2  0  0  0  0  0  0  0  0  0
  194.8590  168.8910  143.3160 O   0  0  0  0  0  0  0  0  0  0  0  0
  196.5270  171.9340  142.9280 C   0  0  1  0  0  3  0  0  0  0  0  0
  196.3120  172.2810  141.4730 C   0  0  0  0  0  0  0  0  0  0  0  0
  195.0410  172.6350  140.9070 N   0  0  0  0  0  2  0  0  0  0  0  0
  197.3320  172.3860  140.7400 O   0  0  0  0  0  0  0  0  0  0  0  0
  193.7680  172.3020  141.4550 C   0  0  0  0  0  3  0  0  0  0  0  0
  192.9460  171.4990  140.7970 C   0  0  0  0  0  3  0  0  0  0  0  0
  191.6270  171.1100  141.3780 C   0  0  1  0  0  3  0  0  0  0  0  0
  191.7880  170.6410  142.8160 C   0  0  0  0  0  1  0  0  0  0  0  0
  190.6900  172.3030  141.3340 C   0  0  0  0  0  2  0  0  0  0  0  0
  189.6950  171.4380  139.2690 N   0  0  0  0  0  0  0  0  0  0  0  0
  190.1160  172.4510  140.0070 N   0  0  0  0  0  0  0  0  0  0  0  0
  189.3850  173.2190  138.1340 C   0  0  0  0  0  0  0  0  0  0  0  0
  189.9460  173.6040  139.3340 C   0  0  0  0  0  3  0  0  0  0  0  0
  189.2400  171.8820  138.1080 N   0  0  0  0  0  0  0  0  0  0  0  0
  189.2030  174.5660  135.8080 N   0  0  0  0  0  0  0  0  0  0  0  0
  189.0060  174.1080  137.0420 C   0  0  0  0  0  0  0  0  0  0  0  0
  188.1910  175.0780  136.5490 O   0  0  0  0  0  0  0  0  0  0  0  0
  195.4660  176.3030  143.8120 C   0  0  0  0  0  0  0  0  0  0  0  0
  196.4550  177.0840  143.8700 O   0  0  0  0  0  0  0  0  0  0  0  0
  195.1620  175.6350  142.6240 O   0  0  0  0  0  0  0  0  0  0  0  0
  194.1850  176.1330  141.7200 C   0  0  0  0  0  2  0  0  0  0  0  0
  192.8020  175.6670  142.1290 C   0  0  0  0  0  2  0  0  0  0  0  0
  191.9970  176.8130  142.7000 C   0  0  0  0  0  2  0  0  0  0  0  0
  191.3710  176.3950  143.8750 O   0  0  0  0  0  0  0  0  0  0  0  0
  189.8770  177.8410  144.9630 O   0  0  0  0  0  0  0  0  0  0  0  0
  188.9340  175.5800  146.3430 O   0  0  0  0  0  0  0  0  0  0  0  0
  189.4730  173.3690  146.1510 O   0  0  0  0  0  1  0  0  0  0  0  0
  190.1070  177.0030  143.8490 C   0  0  2  0  0  3  0  0  0  0  0  0
  191.5460  176.4890  146.7440 O   0  0  0  0  0  0  0  0  0  0  0  0
  188.9540  176.0230  143.5660 C   0  0  2  0  0  3  0  0  0  0  0  0
  189.4640  177.8320  147.5470 O   0  0  0  0  0  1  0  0  0  0  0  0
  189.1590  174.6190  144.1420 C   0  0  0  0  0  2  0  0  0  0  0  0
  189.9460  176.9460  146.4200 P   0  0  1  0  0  0  0  0  0  0  0  0
  189.6400  174.6340  145.5920 C   0  0  1  0  0  3  0  0  0  0  0  0
  188.7120  175.9330  142.0710 C   0  0  0  0  0  2  0  0  0  0  0  0
  187.2440  176.1720  141.7250 C   0  0  0  0  0  2  0  0  0  0  0  0
  187.2190  178.5040  142.0630 O   0  0  0  0  0  0  0  0  0  0  0  0
  186.7040  177.4300  142.3440 C   0  0  0  0  0  0  0  0  0  0  0  0
  185.3550  179.1250  145.5770 C   0  0  0  0  0  2  0  0  0  0  0  0
  185.4750  177.3810  143.2240 C   0  0  2  0  0  3  0  0  0  0  0  0
  186.3890  178.0200  145.3570 C   0  0  0  0  0  2  0  0  0  0  0  0
  184.6990  178.6810  143.2210 C   0  0  0  0  0  3  0  0  0  0  0  0
  184.6790  179.4940  144.2860 C   0  0  0  0  0  3  0  0  0  0  0  0
  185.7900  176.9260  144.5880 N   0  0  0  0  0  2  0  0  0  0  0  0
  1  2  1  1  0  0  0
  3  8  1  0  0  0  0
  4  5  1  0  0  0  0
  4  7  1  0  0  0  0
  4  6  1  0  0  0  0
  5  3  1  6  0  0  0
  6  1  1  6  0  0  0
  6  8  1  0  0  0  0
  9 12  1  0  0  0  0
  9  5  1  1  0  0  0
 11 12  1  0  0  0  0
 12 13  2  6  0  0  0
 12 10  1  0  0  0  0
 14 15  1  6  0  0  0
 14 11  1  0  0  0  0
 14  9  1  0  0  0  0
 16 18  1  0  0  0  0
 16 15  1  0  0  0  0
 17 15  2  0  0  0  0
 19 20  1  0  0  0  0
 19 18  2  0  0  0  0
 20 21  1  1  0  0  0
 22 20  1  0  0  0  0
 23 24  1  0  0  0  0
 24 22  1  0  0  0  0
 25 26  2  0  0  0  0
 26 24  1  0  0  0  0
 27 25  1  0  0  0  0
 27 23  2  0  0  0  0
 28 30  1  0  0  0  0
 28 29  2  0  0  0  0
 29 25  1  0  0  0  0
 30 29  1  0  0  0  0
 31 32  2  0  0  0  0
 31  1  1  0  0  0  0
 33 31  1  0  0  0  0
 34 35  1  0  0  0  0
 34 33  1  0  0  0  0
 35 36  1  0  0  0  0
 36 37  1  0  0  0  0
 38 46  1  0  0  0  0
 39 46  1  0  0  0  0
 41 37  1  1  0  0  0
 41 38  1  0  0  0  0
 43 48  1  6  0  0  0
 43 41  1  0  0  0  0
 43 45  1  0  0  0  0
 45 47  1  0  0  0  0
 46 42  2  1  0  0  0
 46 44  1  0  0  0  0
 47 40  1  1  0  0  0
 47 39  1  0  0  0  0
 49 48  1  0  0  0  0
 49 51  1  0  0  0  0
 50 51  2  0  0  0  0
 53 51  1  6  0  0  0
 53 57  1  0  0  0  0
 54 52  1  0  0  0  0
 55 53  1  0  0  0  0
 55 56  2  0  0  0  0
 56 52  1  0  0  0  0
 57 54  1  0  0  0  0
M  END
>  <MODEL>
2

>  <REMARK>
 VINA RESULT:      -6.0      3.104      9.265
  Name = 
  19 active torsions:
  status: ('A' for Active; 'I' for Inactive)
    1  A    between atoms: C_1  and  N_43
    2  A    between atoms: C_3  and  O_54
    3  A    between atoms: C_3  and  C_55
    4  A    between atoms: C_8  and  C_13
    5  A    between atoms: C_8  and  O_15
    6  A    between atoms: C_11  and  C_16
    7  A    between atoms: C_12  and  O_54
    8  A    between atoms: C_13  and  C_18
    9  A    between atoms: C_14  and  C_44
   10  A    between atoms: O_15  and  C_25
   11  A    between atoms: C_23  and  C_26
   12  A    between atoms: C_25  and  C_55
   13  A    between atoms: C_26  and  C_56
   14  A    between atoms: N_27  and  C_56
   15  A    between atoms: C_28  and  C_51
   16  A    between atoms: C_30  and  C_44
   17  A    between atoms: C_30  and  C_48
   18  A    between atoms: C_31  and  C_48
   19  A    between atoms: C_35  and  C_38
                            x       y       z     vdW  Elec       q    Type
                         _______ _______ _______ _____ _____    ______ ____

>  <TORSDO>
F 19

$$$$
=
 OpenBabel11062423043D

 57 62  0  0  1  0  0  0  0  0999 V2000
  190.4830  174.0890  143.4720 C   0  0  2  0  0  3  0  0  0  0  0  0
  189.6960  173.3080  144.5120 C   0  0  0  0  0  1  0  0  0  0  0  0
  188.6890  176.9600  142.1030 N   0  0  0  0  0  2  0  0  0  0  0  0
  188.1900  174.6950  142.7090 N   0  0  0  0  0  0  0  0  0  0  0  0
  187.6310  175.9600  142.2340 C   0  0  1  0  0  3  0  0  0  0  0  0
  189.6100  174.7900  142.4180 C   0  0  1  0  0  3  0  0  0  0  0  0
  187.6510  173.6600  141.8370 C   0  0  0  0  0  1  0  0  0  0  0  0
  189.9370  176.2590  142.3500 C   0  0  0  0  0  2  0  0  0  0  0  0
  186.4670  176.4840  143.0970 C   0  0  2  0  0  3  0  0  0  0  0  0
  186.0730  178.4470  140.8780 O   0  0  0  0  0  0  0  0  0  0  0  0
  186.2090  178.6010  143.8240 C   0  0  0  0  0  2  0  0  0  0  0  0
  185.5120  177.8290  142.3470 P   0  0  2  0  0  0  0  0  0  0  0  0
  184.0160  177.6210  142.4070 O   0  0  0  0  0  1  0  0  0  0  0  0
  186.9480  177.3350  144.2810 C   0  0  1  0  0  3  0  0  0  0  0  0
  186.4630  176.9040  145.6460 C   0  0  0  0  0  0  0  0  0  0  0  0
  187.3290  176.5930  146.7480 N   0  0  0  0  0  2  0  0  0  0  0  0
  185.2220  176.9390  145.8640 O   0  0  0  0  0  0  0  0  0  0  0  0
  188.6980  176.2100  146.6450 C   0  0  0  0  0  3  0  0  0  0  0  0
  189.6560  177.0370  147.0360 C   0  0  0  0  0  3  0  0  0  0  0  0
  191.0910  176.6330  146.9710 C   0  0  1  0  0  3  0  0  0  0  0  0
  191.3020  175.2840  147.6410 C   0  0  0  0  0  1  0  0  0  0  0  0
  191.5230  176.5520  145.5180 C   0  0  0  0  0  2  0  0  0  0  0  0
  193.7640  176.9830  146.4110 N   0  0  0  0  0  0  0  0  0  0  0  0
  192.9710  176.6340  145.4120 N   0  0  0  0  0  0  0  0  0  0  0  0
  195.0070  176.6160  144.7150 C   0  0  0  0  0  0  0  0  0  0  0  0
  193.7060  176.3930  144.3120 C   0  0  0  0  0  3  0  0  0  0  0  0
  195.0250  176.9820  146.0100 N   0  0  0  0  0  0  0  0  0  0  0  0
  197.1780  177.0500  143.1810 N   0  0  0  0  0  0  0  0  0  0  0  0
  196.1950  176.4870  143.8800 C   0  0  0  0  0  0  0  0  0  0  0  0
  197.1030  175.6990  143.2470 O   0  0  0  0  0  0  0  0  0  0  0  0
  191.5540  173.2400  142.8680 C   0  0  0  0  0  0  0  0  0  0  0  0
  192.7290  173.6960  142.8080 O   0  0  0  0  0  0  0  0  0  0  0  0
  191.2720  171.9520  142.4070 O   0  0  0  0  0  0  0  0  0  0  0  0
  191.9540  170.8150  142.9180 C   0  0  0  0  0  2  0  0  0  0  0  0
  193.0020  170.3400  141.9320 C   0  0  0  0  0  2  0  0  0  0  0  0
  194.1250  169.6230  142.6480 C   0  0  0  0  0  2  0  0  0  0  0  0
  194.9310  170.5610  143.2940 O   0  0  0  0  0  0  0  0  0  0  0  0
  196.2870  169.1010  144.5350 O   0  0  0  0  0  0  0  0  0  0  0  0
  197.0840  171.3510  146.0220 O   0  0  0  0  0  0  0  0  0  0  0  0
  196.5820  173.5660  145.7810 O   0  0  0  0  0  1  0  0  0  0  0  0
  196.1860  169.9450  143.4060 C   0  0  2  0  0  3  0  0  0  0  0  0
  194.4390  170.4560  146.1260 O   0  0  0  0  0  0  0  0  0  0  0  0
  197.3690  170.9190  143.2570 C   0  0  2  0  0  3  0  0  0  0  0  0
  196.4110  169.0980  147.1490 O   0  0  0  0  0  1  0  0  0  0  0  0
  197.1090  172.3220  143.8130 C   0  0  0  0  0  2  0  0  0  0  0  0
  196.0620  169.9910  145.9800 P   0  0  1  0  0  0  0  0  0  0  0  0
  196.4710  172.3040  145.2010 C   0  0  1  0  0  3  0  0  0  0  0  0
  197.7760  171.0130  141.7990 C   0  0  0  0  0  2  0  0  0  0  0  0
  197.3270  172.3320  141.1740 C   0  0  0  0  0  2  0  0  0  0  0  0
  195.9990  171.2050  139.5870 O   0  0  0  0  0  0  0  0  0  0  0  0
  196.0980  172.1770  140.3230 C   0  0  0  0  0  0  0  0  0  0  0  0
  194.4820  175.0620  138.2710 C   0  0  0  0  0  2  0  0  0  0  0  0
  194.9530  173.1580  140.4490 C   0  0  2  0  0  3  0  0  0  0  0  0
  195.7510  174.9980  139.1190 C   0  0  0  0  0  2  0  0  0  0  0  0
  193.8740  172.9360  139.4090 C   0  0  0  0  0  3  0  0  0  0  0  0
  193.6880  173.7890  138.3930 C   0  0  0  0  0  3  0  0  0  0  0  0
  195.4200  174.5530  140.4750 N   0  0  0  0  0  2  0  0  0  0  0  0
  1  2  1  6  0  0  0
  3  8  1  0  0  0  0
  5  3  1  1  0  0  0
  5  4  1  0  0  0  0
  6  4  1  0  0  0  0
  6  1  1  1  0  0  0
  7  4  1  0  0  0  0
  8  6  1  0  0  0  0
  9  5  1  6  0  0  0
  9 14  1  0  0  0  0
 11 14  1  0  0  0  0
 12 10  2  6  0  0  0
 12 13  1  0  0  0  0
 12  9  1  0  0  0  0
 12 11  1  0  0  0  0
 14 15  1  1  0  0  0
 15 17  2  0  0  0  0
 15 16  1  0  0  0  0
 18 16  1  0  0  0  0
 18 19  2  0  0  0  0
 20 19  1  0  0  0  0
 20 21  1  6  0  0  0
 22 20  1  0  0  0  0
 24 22  1  0  0  0  0
 24 23  1  0  0  0  0
 25 27  1  0  0  0  0
 26 25  2  0  0  0  0
 26 24  1  0  0  0  0
 27 23  2  0  0  0  0
 28 30  1  0  0  0  0
 28 29  2  0  0  0  0
 29 25  1  0  0  0  0
 30 29  1  0  0  0  0
 31  1  1  0  0  0  0
 32 31  2  0  0  0  0
 33 31  1  0  0  0  0
 33 34  1  0  0  0  0
 35 36  1  0  0  0  0
 35 34  1  0  0  0  0
 36 37  1  0  0  0  0
 38 46  1  0  0  0  0
 41 37  1  1  0  0  0
 41 38  1  0  0  0  0
 43 48  1  6  0  0  0
 43 41  1  0  0  0  0
 43 45  1  0  0  0  0
 45 47  1  0  0  0  0
 46 39  1  0  0  0  0
 46 42  2  1  0  0  0
 46 44  1  0  0  0  0
 47 40  1  1  0  0  0
 47 39  1  0  0  0  0
 49 48  1  0  0  0  0
 50 51  2  0  0  0  0
 51 49  1  0  0  0  0
 52 56  1  0  0  0  0
 52 54  1  0  0  0  0
 53 51  1  6  0  0  0
 53 57  1  0  0  0  0
 54 57  1  0  0  0  0
 55 53  1  0  0  0  0
 56 55  2  0  0  0  0
M  END
>  <MODEL>
3

>  <REMARK>
 VINA RESULT:      -5.9      2.527      4.242
  Name = 
  19 active torsions:
  status: ('A' for Active; 'I' for Inactive)
    1  A    between atoms: C_1  and  N_43
    2  A    between atoms: C_3  and  O_54
    3  A    between atoms: C_3  and  C_55
    4  A    between atoms: C_8  and  C_13
    5  A    between atoms: C_8  and  O_15
    6  A    between atoms: C_11  and  C_16
    7  A    between atoms: C_12  and  O_54
    8  A    between atoms: C_13  and  C_18
    9  A    between atoms: C_14  and  C_44
   10  A    between atoms: O_15  and  C_25
   11  A    between atoms: C_23  and  C_26
   12  A    between atoms: C_25  and  C_55
   13  A    between atoms: C_26  and  C_56
   14  A    between atoms: N_27  and  C_56
   15  A    between atoms: C_28  and  C_51
   16  A    between atoms: C_30  and  C_44
   17  A    between atoms: C_30  and  C_48
   18  A    between atoms: C_31  and  C_48
   19  A    between atoms: C_35  and  C_38
                            x       y       z     vdW  Elec       q    Type
                         _______ _______ _______ _____ _____    ______ ____

>  <TORSDO>
F 19

$$$$
=
 OpenBabel11062423043D

 57 62  0  0  1  0  0  0  0  0999 V2000
  189.0760  174.0240  142.1350 C   0  0  2  0  0  3  0  0  0  0  0  0
  187.5670  174.0930  141.9650 C   0  0  0  0  0  1  0  0  0  0  0  0
  189.9850  172.3380  139.0270 N   0  0  0  0  0  2  0  0  0  0  0  0
  191.1110  173.1890  140.9650 N   0  0  0  0  0  0  0  0  0  0  0  0
  191.2720  172.4570  139.7080 C   0  0  1  0  0  3  0  0  0  0  0  0
  189.8530  173.9000  140.8140 C   0  0  1  0  0  3  0  0  0  0  0  0
  192.1630  174.1940  140.9880 C   0  0  0  0  0  1  0  0  0  0  0  0
  189.0480  173.1390  139.7940 C   0  0  0  0  0  2  0  0  0  0  0  0
  191.9480  171.0830  139.8770 C   0  0  2  0  0  3  0  0  0  0  0  0
  192.0140  171.0610  136.8880 O   0  0  0  0  0  0  0  0  0  0  0  0
  191.2320  169.1390  138.9900 C   0  0  0  0  0  2  0  0  0  0  0  0
  192.4550  170.2920  138.3270 P   0  0  2  0  0  0  0  0  0  0  0  0
  193.8720  169.7660  138.3450 O   0  0  0  0  0  1  0  0  0  0  0  0
  190.9510  169.9760  140.2460 C   0  0  1  0  0  3  0  0  0  0  0  0
  191.2730  169.1840  141.4930 C   0  0  0  0  0  0  0  0  0  0  0  0
  192.2290  169.5920  142.4830 N   0  0  0  0  0  2  0  0  0  0  0  0
  190.5700  168.1660  141.7370 O   0  0  0  0  0  0  0  0  0  0  0  0
  193.3040  170.5040  142.2720 C   0  0  0  0  0  3  0  0  0  0  0  0
  194.2090  170.7010  143.2190 C   0  0  0  0  0  3  0  0  0  0  0  0
  195.3620  171.6230  142.9960 C   0  0  1  0  0  3  0  0  0  0  0  0
  196.4670  171.3590  144.0080 C   0  0  0  0  0  1  0  0  0  0  0  0
  195.9000  171.4200  141.5910 C   0  0  0  0  0  2  0  0  0  0  0  0
  196.2580  173.8250  141.2870 N   0  0  0  0  0  0  0  0  0  0  0  0
  195.8280  172.6600  140.8350 N   0  0  0  0  0  0  0  0  0  0  0  0
  195.4620  174.1590  139.3340 C   0  0  0  0  0  0  0  0  0  0  0  0
  195.3110  172.8130  139.6020 C   0  0  0  0  0  3  0  0  0  0  0  0
  196.0450  174.7680  140.3830 N   0  0  0  0  0  0  0  0  0  0  0  0
  195.3740  175.4390  136.9660 N   0  0  0  0  0  0  0  0  0  0  0  0
  195.0560  174.8390  138.1110 C   0  0  0  0  0  0  0  0  0  0  0  0
  194.0690  175.3240  137.3120 O   0  0  0  0  0  0  0  0  0  0  0  0
  189.4510  172.9760  143.1320 C   0  0  0  0  0  0  0  0  0  0  0  0
  189.1120  171.7810  142.9130 O   0  0  0  0  0  0  0  0  0  0  0  0
  190.1930  173.3020  144.2690 O   0  0  0  0  0  0  0  0  0  0  0  0
  189.6720  173.1070  145.5760 C   0  0  0  0  0  2  0  0  0  0  0  0
  190.0740  174.2530  146.4820 C   0  0  0  0  0  2  0  0  0  0  0  0
  188.8690  174.8130  147.2050 C   0  0  0  0  0  2  0  0  0  0  0  0
  188.1180  175.5840  146.3170 O   0  0  0  0  0  0  0  0  0  0  0  0
  188.4820  177.7220  147.2120 O   0  0  0  0  0  0  0  0  0  0  0  0
  186.3820  178.6030  145.5620 O   0  0  0  0  0  0  0  0  0  0  0  0
  185.1420  177.5010  143.9920 O   0  0  0  0  0  1  0  0  0  0  0  0
  188.8190  176.7930  146.2020 C   0  0  2  0  0  3  0  0  0  0  0  0
  185.8820  176.8110  147.6470 O   0  0  0  0  0  0  0  0  0  0  0  0
  188.7960  177.3890  144.7830 C   0  0  2  0  0  3  0  0  0  0  0  0
  186.5690  179.2860  148.0710 O   0  0  0  0  0  1  0  0  0  0  0  0
  187.5000  177.1340  144.0080 C   0  0  0  0  0  2  0  0  0  0  0  0
  186.8210  178.1260  147.1360 P   0  0  1  0  0  0  0  0  0  0  0  0
  186.2470  177.4150  144.8360 C   0  0  1  0  0  3  0  0  0  0  0  0
  189.9790  176.8670  143.9880 C   0  0  0  0  0  2  0  0  0  0  0  0
  191.2650  177.6090  144.3420 C   0  0  0  0  0  2  0  0  0  0  0  0
  192.4390  176.8360  146.2340 O   0  0  0  0  0  0  0  0  0  0  0  0
  192.2700  176.7260  145.0270 C   0  0  0  0  0  0  0  0  0  0  0  0
  195.8110  175.1220  144.8490 C   0  0  0  0  0  2  0  0  0  0  0  0
  192.9890  175.6440  144.2520 C   0  0  2  0  0  3  0  0  0  0  0  0
  195.2590  176.4420  144.3120 C   0  0  0  0  0  2  0  0  0  0  0  0
  193.4230  174.4870  145.1270 C   0  0  0  0  0  3  0  0  0  0  0  0
  194.7110  174.2750  145.4290 C   0  0  0  0  0  3  0  0  0  0  0  0
  194.1010  176.1830  143.4530 N   0  0  0  0  0  2  0  0  0  0  0  0
  1  2  1  6  0  0  0
  1 31  1  0  0  0  0
  3  8  1  0  0  0  0
  4  7  1  0  0  0  0
  5  3  1  1  0  0  0
  5  4  1  0  0  0  0
  6  4  1  0  0  0  0
  6  1  1  1  0  0  0
  8  6  1  0  0  0  0
  9  5  1  6  0  0  0
  9 14  1  0  0  0  0
 11 14  1  0  0  0  0
 12 10  2  6  0  0  0
 12 13  1  0  0  0  0
 12 11  1  0  0  0  0
 12  9  1  0  0  0  0
 14 15  1  1  0  0  0
 15 17  2  0  0  0  0
 15 16  1  0  0  0  0
 18 16  1  0  0  0  0
 18 19  2  0  0  0  0
 20 19  1  0  0  0  0
 20 21  1  1  0  0  0
 22 20  1  0  0  0  0
 24 23  1  0  0  0  0
 24 22  1  0  0  0  0
 25 26  2  0  0  0  0
 25 27  1  0  0  0  0
 26 24  1  0  0  0  0
 27 23  2  0  0  0  0
 28 30  1  0  0  0  0
 28 29  2  0  0  0  0
 29 25  1  0  0  0  0
 30 29  1  0  0  0  0
 31 33  1  0  0  0  0
 32 31  2  0  0  0  0
 33 34  1  0  0  0  0
 34 35  1  0  0  0  0
 35 36  1  0  0  0  0
 37 36  1  0  0  0  0
 39 46  1  0  0  0  0
 41 37  1  6  0  0  0
 41 38  1  0  0  0  0
 43 48  1  6  0  0  0
 43 41  1  0  0  0  0
 45 43  1  0  0  0  0
 45 47  1  0  0  0  0
 46 38  1  0  0  0  0
 46 42  2  1  0  0  0
 46 44  1  0  0  0  0
 47 40  1  6  0  0  0
 47 39  1  0  0  0  0
 48 49  1  0  0  0  0
 49 51  1  0  0  0  0
 51 50  2  0  0  0  0
 52 56  1  0  0  0  0
 53 51  1  1  0  0  0
 53 55  1  0  0  0  0
 54 52  1  0  0  0  0
 55 56  2  0  0  0  0
 57 53  1  0  0  0  0
 57 54  1  0  0  0  0
M  END
>  <MODEL>
4

>  <REMARK>
 VINA RESULT:      -5.8      2.634      8.537
  Name = 
  19 active torsions:
  status: ('A' for Active; 'I' for Inactive)
    1  A    between atoms: C_1  and  N_43
    2  A    between atoms: C_3  and  O_54
    3  A    between atoms: C_3  and  C_55
    4  A    between atoms: C_8  and  C_13
    5  A    between atoms: C_8  and  O_15
    6  A    between atoms: C_11  and  C_16
    7  A    between atoms: C_12  and  O_54
    8  A    between atoms: C_13  and  C_18
    9  A    between atoms: C_14  and  C_44
   10  A    between atoms: O_15  and  C_25
   11  A    between atoms: C_23  and  C_26
   12  A    between atoms: C_25  and  C_55
   13  A    between atoms: C_26  and  C_56
   14  A    between atoms: N_27  and  C_56
   15  A    between atoms: C_28  and  C_51
   16  A    between atoms: C_30  and  C_44
   17  A    between atoms: C_30  and  C_48
   18  A    between atoms: C_31  and  C_48
   19  A    between atoms: C_35  and  C_38
                            x       y       z     vdW  Elec       q    Type
                         _______ _______ _______ _____ _____    ______ ____

>  <TORSDO>
F 19

$$$$
=
 OpenBabel11062423043D

 57 62  0  0  1  0  0  0  0  0999 V2000
  190.8640  171.5260  141.6170 C   0  0  2  0  0  3  0  0  0  0  0  0
  191.4100  171.8600  142.9960 C   0  0  0  0  0  1  0  0  0  0  0  0
  193.7740  170.9490  139.4880 N   0  0  0  0  0  2  0  0  0  0  0  0
  191.4060  170.5970  139.3690 N   0  0  0  0  0  0  0  0  0  0  0  0
  192.6700  170.5060  138.6400 C   0  0  1  0  0  3  0  0  0  0  0  0
  191.7940  170.6430  140.7680 C   0  0  1  0  0  3  0  0  0  0  0  0
  190.7250  169.3270  139.1620 C   0  0  0  0  0  1  0  0  0  0  0  0
  193.2050  171.1680  140.8060 C   0  0  0  0  0  2  0  0  0  0  0  0
  192.6620  171.2550  137.2930 C   0  0  2  0  0  3  0  0  0  0  0  0
  193.8440  168.7350  136.2030 O   0  0  0  0  0  1  0  0  0  0  0  0
  194.4490  171.6160  135.9690 C   0  0  0  0  0  2  0  0  0  0  0  0
  193.2380  170.2780  135.8790 P   0  0  2  0  0  0  0  0  0  0  0  0
  192.3270  170.3520  134.6750 O   0  0  0  0  0  0  0  0  0  0  0  0
  193.7920  172.2870  137.1850 C   0  0  1  0  0  3  0  0  0  0  0  0
  193.3700  173.6980  136.8460 C   0  0  0  0  0  0  0  0  0  0  0  0
  194.0610  174.8750  137.2900 N   0  0  0  0  0  2  0  0  0  0  0  0
  192.4270  173.8450  136.0220 O   0  0  0  0  0  0  0  0  0  0  0  0
  194.9260  174.9530  138.4200 C   0  0  0  0  0  3  0  0  0  0  0  0
  194.4340  175.2090  139.6230 C   0  0  0  0  0  3  0  0  0  0  0  0
  195.3230  175.2530  140.8210 C   0  0  1  0  0  3  0  0  0  0  0  0
  196.6320  175.9570  140.4960 C   0  0  0  0  0  1  0  0  0  0  0  0
  194.6150  175.9890  141.9430 C   0  0  0  0  0  2  0  0  0  0  0  0
  194.6130  175.7200  144.3790 N   0  0  0  0  0  0  0  0  0  0  0  0
  194.6370  175.1990  143.1640 N   0  0  0  0  0  0  0  0  0  0  0  0
  194.7110  173.6000  144.6020 C   0  0  0  0  0  0  0  0  0  0  0  0
  194.7020  173.8580  143.2460 C   0  0  0  0  0  3  0  0  0  0  0  0
  194.6590  174.7580  145.2850 N   0  0  0  0  0  0  0  0  0  0  0  0
  195.4500  171.1690  145.4960 N   0  0  0  0  0  0  0  0  0  0  0  0
  194.7730  172.2820  145.2210 C   0  0  0  0  0  0  0  0  0  0  0  0
  194.1750  171.2940  145.9380 O   0  0  0  0  0  0  0  0  0  0  0  0
  190.4260  172.7640  140.9040 C   0  0  0  0  0  0  0  0  0  0  0  0
  191.2470  173.7140  140.7790 O   0  0  0  0  0  0  0  0  0  0  0  0
  189.1460  172.8590  140.3550 O   0  0  0  0  0  0  0  0  0  0  0  0
  188.2390  173.8760  140.7600 C   0  0  0  0  0  2  0  0  0  0  0  0
  188.0750  173.8680  142.2670 C   0  0  0  0  0  2  0  0  0  0  0  0
  188.0430  175.2780  142.8100 C   0  0  0  0  0  2  0  0  0  0  0  0
  188.6030  175.2910  144.0880 O   0  0  0  0  0  0  0  0  0  0  0  0
  189.3620  177.5070  143.9460 O   0  0  0  0  0  0  0  0  0  0  0  0
  191.1780  176.8550  145.9910 O   0  0  0  0  0  0  0  0  0  0  0  0
  191.4500  174.9390  147.2040 O   0  0  0  0  0  1  0  0  0  0  0  0
  188.4460  176.6090  144.5400 C   0  0  2  0  0  3  0  0  0  0  0  0
  191.3910  175.6500  143.4790 O   0  0  0  0  0  0  0  0  0  0  0  0
  188.3690  176.7330  146.0720 C   0  0  2  0  0  3  0  0  0  0  0  0
  191.8890  178.1770  143.8600 O   0  0  0  0  0  1  0  0  0  0  0  0
  189.2240  175.7180  146.8360 C   0  0  0  0  0  2  0  0  0  0  0  0
  190.9730  177.0640  144.3150 P   0  0  1  0  0  0  0  0  0  0  0  0
  190.6410  175.5950  146.2790 C   0  0  1  0  0  3  0  0  0  0  0  0
  186.9240  176.6270  146.5230 C   0  0  0  0  0  2  0  0  0  0  0  0
  185.9610  177.1170  145.4440 C   0  0  0  0  0  2  0  0  0  0  0  0
  185.8320  179.1090  146.6970 O   0  0  0  0  0  0  0  0  0  0  0  0
  185.5470  178.5480  145.6480 C   0  0  0  0  0  0  0  0  0  0  0  0
  185.3620  178.4820  141.7620 C   0  0  0  0  0  2  0  0  0  0  0  0
  184.8770  179.3140  144.5300 C   0  0  2  0  0  3  0  0  0  0  0  0
  186.4350  178.9890  142.7250 C   0  0  0  0  0  2  0  0  0  0  0  0
  183.8810  178.4740  143.7580 C   0  0  0  0  0  3  0  0  0  0  0  0
  184.1250  178.0630  142.5070 C   0  0  0  0  0  3  0  0  0  0  0  0
  185.8530  179.9690  143.6460 N   0  0  0  0  0  2  0  0  0  0  0  0
  1  2  1  1  0  0  0
  3  8  1  0  0  0  0
  4  6  1  0  0  0  0
  5  4  1  0  0  0  0
  5  3  1  1  0  0  0
  6  8  1  0  0  0  0
  6  1  1  1  0  0  0
  7  4  1  0  0  0  0
  9  5  1  1  0  0  0
 11 14  1  0  0  0  0
 12 13  2  6  0  0  0
 12 11  1  0  0  0  0
 12 10  1  0  0  0  0
 12  9  1  0  0  0  0
 14 15  1  6  0  0  0
 14  9  1  0  0  0  0
 15 16  1  0  0  0  0
 16 18  1  0  0  0  0
 17 15  2  0  0  0  0
 18 19  2  0  0  0  0
 19 20  1  0  0  0  0
 20 21  1  6  0  0  0
 20 22  1  0  0  0  0
 22 24  1  0  0  0  0
 23 27  2  0  0  0  0
 24 26  1  0  0  0  0
 24 23  1  0  0  0  0
 25 29  1  0  0  0  0
 25 27  1  0  0  0  0
 26 25  2  0  0  0  0
 28 30  1  0  0  0  0
 29 28  2  0  0  0  0
 29 30  1  0  0  0  0
 31  1  1  0  0  0  0
 32 31  2  0  0  0  0
 33 34  1  0  0  0  0
 33 31  1  0  0  0  0
 34 35  1  0  0  0  0
 35 36  1  0  0  0  0
 36 37  1  0  0  0  0
 38 46  1  0  0  0  0
 38 41  1  0  0  0  0
 39 47  1  0  0  0  0
 41 37  1  1  0  0  0
 41 43  1  0  0  0  0
 43 48  1  1  0  0  0
 43 45  1  0  0  0  0
 44 46  1  0  0  0  0
 46 42  2  6  0  0  0
 46 39  1  0  0  0  0
 47 45  1  0  0  0  0
 47 40  1  1  0  0  0
 49 51  1  0  0  0  0
 49 48  1  0  0  0  0
 51 50  2  0  0  0  0
 52 56  1  0  0  0  0
 52 54  1  0  0  0  0
 53 51  1  1  0  0  0
 54 57  1  0  0  0  0
 55 53  1  0  0  0  0
 56 55  2  0  0  0  0
 57 53  1  0  0  0  0
M  END
>  <MODEL>
5

>  <REMARK>
 VINA RESULT:      -5.7      3.001      8.742
  Name = 
  19 active torsions:
  status: ('A' for Active; 'I' for Inactive)
    1  A    between atoms: C_1  and  N_43
    2  A    between atoms: C_3  and  O_54
    3  A    between atoms: C_3  and  C_55
    4  A    between atoms: C_8  and  C_13
    5  A    between atoms: C_8  and  O_15
    6  A    between atoms: C_11  and  C_16
    7  A    between atoms: C_12  and  O_54
    8  A    between atoms: C_13  and  C_18
    9  A    between atoms: C_14  and  C_44
   10  A    between atoms: O_15  and  C_25
   11  A    between atoms: C_23  and  C_26
   12  A    between atoms: C_25  and  C_55
   13  A    between atoms: C_26  and  C_56
   14  A    between atoms: N_27  and  C_56
   15  A    between atoms: C_28  and  C_51
   16  A    between atoms: C_30  and  C_44
   17  A    between atoms: C_30  and  C_48
   18  A    between atoms: C_31  and  C_48
   19  A    between atoms: C_35  and  C_38
                            x       y       z     vdW  Elec       q    Type
                         _______ _______ _______ _____ _____    ______ ____

>  <TORSDO>
F 19

$$$$
=
 OpenBabel11062423043D

 57 62  0  0  1  0  0  0  0  0999 V2000
  192.3500  175.8780  146.8110 C   0  0  2  0  0  3  0  0  0  0  0  0
  193.6180  176.7160  146.8550 C   0  0  0  0  0  1  0  0  0  0  0  0
  191.9130  172.9630  144.6560 N   0  0  0  0  0  2  0  0  0  0  0  0
  193.3180  174.9030  144.7330 N   0  0  0  0  0  0  0  0  0  0  0  0
  193.0420  173.6490  144.0330 C   0  0  1  0  0  3  0  0  0  0  0  0
  192.0940  175.1940  145.4590 C   0  0  1  0  0  3  0  0  0  0  0  0
  193.4490  175.9230  143.7020 C   0  0  0  0  0  1  0  0  0  0  0  0
  191.3870  173.8780  145.6540 C   0  0  0  0  0  2  0  0  0  0  0  0
  194.2690  172.7230  143.9190 C   0  0  2  0  0  3  0  0  0  0  0  0
  192.2520  170.5160  143.9180 O   0  0  0  0  0  1  0  0  0  0  0  0
  194.7930  171.0440  145.3280 C   0  0  0  0  0  2  0  0  0  0  0  0
  193.8760  170.9600  143.7740 P   0  0  2  0  0  0  0  0  0  0  0  0
  194.6170  170.2600  142.6580 O   0  0  0  0  0  0  0  0  0  0  0  0
  195.0120  172.5620  145.2520 C   0  0  1  0  0  3  0  0  0  0  0  0
  196.4890  172.8830  145.2300 C   0  0  0  0  0  0  0  0  0  0  0  0
  197.1120  173.7460  144.2670 N   0  0  0  0  0  2  0  0  0  0  0  0
  197.1930  172.4650  146.1880 O   0  0  0  0  0  0  0  0  0  0  0  0
  196.5900  174.0670  142.9810 C   0  0  0  0  0  3  0  0  0  0  0  0
  197.3780  174.5800  142.0470 C   0  0  0  0  0  3  0  0  0  0  0  0
  196.8530  174.8830  140.6830 C   0  0  1  0  0  3  0  0  0  0  0  0
  197.9310  175.5220  139.8210 C   0  0  0  0  0  1  0  0  0  0  0  0
  196.3790  173.5960  140.0330 C   0  0  0  0  0  2  0  0  0  0  0  0
  194.2880  174.7960  139.5950 N   0  0  0  0  0  0  0  0  0  0  0  0
  194.9550  173.6650  139.7470 N   0  0  0  0  0  0  0  0  0  0  0  0
  192.8880  173.2010  139.3680 C   0  0  0  0  0  0  0  0  0  0  0  0
  194.1160  172.6210  139.6160 C   0  0  0  0  0  3  0  0  0  0  0  0
  193.0110  174.5410  139.3610 N   0  0  0  0  0  0  0  0  0  0  0  0
  190.7360  171.5900  139.5440 N   0  0  0  0  0  0  0  0  0  0  0  0
  191.6350  172.4890  139.1490 C   0  0  0  0  0  0  0  0  0  0  0  0
  190.5340  172.2610  138.3850 O   0  0  0  0  0  0  0  0  0  0  0  0
  191.1760  176.6650  147.2970 C   0  0  0  0  0  0  0  0  0  0  0  0
  191.2220  177.1750  148.4500 O   0  0  0  0  0  0  0  0  0  0  0  0
  190.0600  176.8630  146.4810 O   0  0  0  0  0  0  0  0  0  0  0  0
  189.8650  178.0790  145.7720 C   0  0  0  0  0  2  0  0  0  0  0  0
  189.1570  177.8160  144.4580 C   0  0  0  0  0  2  0  0  0  0  0  0
  190.1480  177.4240  143.3850 C   0  0  0  0  0  2  0  0  0  0  0  0
  189.4790  176.7330  142.3730 O   0  0  0  0  0  0  0  0  0  0  0  0
  188.5030  174.9760  143.5840 O   0  0  0  0  0  0  0  0  0  0  0  0
  187.8940  173.8070  141.1000 O   0  0  0  0  0  0  0  0  0  0  0  0
  188.1970  174.5660  138.9670 O   0  0  0  0  0  1  0  0  0  0  0  0
  188.3150  176.2400  142.9800 C   0  0  2  0  0  3  0  0  0  0  0  0
  190.5530  174.1070  141.9030 O   0  0  0  0  0  0  0  0  0  0  0  0
  187.0690  176.3120  142.0780 C   0  0  2  0  0  3  0  0  0  0  0  0
  188.9240  172.4450  143.0710 O   0  0  0  0  0  1  0  0  0  0  0  0
  187.3510  176.1010  140.5880 C   0  0  0  0  0  2  0  0  0  0  0  0
  188.9670  173.8090  142.4210 P   0  0  1  0  0  0  0  0  0  0  0  0
  188.2630  174.9060  140.3170 C   0  0  1  0  0  3  0  0  0  0  0  0
  186.3630  177.6390  142.2830 C   0  0  0  0  0  2  0  0  0  0  0  0
  185.2430  177.5260  143.3150 C   0  0  0  0  0  2  0  0  0  0  0  0
  185.5420  179.7870  143.9100 O   0  0  0  0  0  0  0  0  0  0  0  0
  185.2490  178.6640  144.2970 C   0  0  0  0  0  0  0  0  0  0  0  0
  186.7080  177.3210  147.6450 C   0  0  0  0  0  2  0  0  0  0  0  0
  184.7990  178.4420  145.7240 C   0  0  2  0  0  3  0  0  0  0  0  0
  186.2080  176.6070  146.3900 C   0  0  0  0  0  2  0  0  0  0  0  0
  185.5440  179.3120  146.7150 C   0  0  0  0  0  3  0  0  0  0  0  0
  186.4450  178.8000  147.5650 C   0  0  0  0  0  3  0  0  0  0  0  0
  184.8320  177.0200  146.0990 N   0  0  0  0  0  2  0  0  0  0  0  0
  1  2  1  6  0  0  0
  1 31  1  0  0  0  0
  3  8  1  0  0  0  0
  4  6  1  0  0  0  0
  5  3  1  1  0  0  0
  5  4  1  0  0  0  0
  6  8  1  0  0  0  0
  6  1  1  1  0  0  0
  7  4  1  0  0  0  0
  9  5  1  1  0  0  0
  9 14  1  0  0  0  0
 12 13  2  6  0  0  0
 12 10  1  0  0  0  0
 12  9  1  0  0  0  0
 12 11  1  0  0  0  0
 14 15  1  6  0  0  0
 14 11  1  0  0  0  0
 15 17  2  0  0  0  0
 16 15  1  0  0  0  0
 18 16  1  0  0  0  0
 19 18  2  0  0  0  0
 20 21  1  6  0  0  0
 20 19  1  0  0  0  0
 22 20  1  0  0  0  0
 23 24  1  0  0  0  0
 24 22  1  0  0  0  0
 25 26  2  0  0  0  0
 26 24  1  0  0  0  0
 27 25  1  0  0  0  0
 27 23  2  0  0  0  0
 29 25  1  0  0  0  0
 29 28  2  0  0  0  0
 30 29  1  0  0  0  0
 30 28  1  0  0  0  0
 31 32  2  0  0  0  0
 33 31  1  0  0  0  0
 34 33  1  0  0  0  0
 35 34  1  0  0  0  0
 36 35  1  0  0  0  0
 37 36  1  0  0  0  0
 39 46  1  0  0  0  0
 41 37  1  6  0  0  0
 41 38  1  0  0  0  0
 43 48  1  6  0  0  0
 43 41  1  0  0  0  0
 45 43  1  0  0  0  0
 46 42  2  6  0  0  0
 46 44  1  0  0  0  0
 46 38  1  0  0  0  0
 47 40  1  6  0  0  0
 47 45  1  0  0  0  0
 47 39  1  0  0  0  0
 48 49  1  0  0  0  0
 49 51  1  0  0  0  0
 50 51  2  0  0  0  0
 53 51  1  6  0  0  0
 53 57  1  0  0  0  0
 53 55  1  0  0  0  0
 54 52  1  0  0  0  0
 55 56  2  0  0  0  0
 56 52  1  0  0  0  0
 57 54  1  0  0  0  0
M  END
>  <MODEL>
6

>  <REMARK>
 VINA RESULT:      -5.5      3.082      8.879
  Name = 
  19 active torsions:
  status: ('A' for Active; 'I' for Inactive)
    1  A    between atoms: C_1  and  N_43
    2  A    between atoms: C_3  and  O_54
    3  A    between atoms: C_3  and  C_55
    4  A    between atoms: C_8  and  C_13
    5  A    between atoms: C_8  and  O_15
    6  A    between atoms: C_11  and  C_16
    7  A    between atoms: C_12  and  O_54
    8  A    between atoms: C_13  and  C_18
    9  A    between atoms: C_14  and  C_44
   10  A    between atoms: O_15  and  C_25
   11  A    between atoms: C_23  and  C_26
   12  A    between atoms: C_25  and  C_55
   13  A    between atoms: C_26  and  C_56
   14  A    between atoms: N_27  and  C_56
   15  A    between atoms: C_28  and  C_51
   16  A    between atoms: C_30  and  C_44
   17  A    between atoms: C_30  and  C_48
   18  A    between atoms: C_31  and  C_48
   19  A    between atoms: C_35  and  C_38
                            x       y       z     vdW  Elec       q    Type
                         _______ _______ _______ _____ _____    ______ ____

>  <TORSDO>
F 19

$$$$
=
 OpenBabel11062423043D

 57 62  0  0  1  0  0  0  0  0999 V2000
  187.8820  174.5560  140.8940 C   0  0  2  0  0  3  0  0  0  0  0  0
  188.5680  174.5160  139.5380 C   0  0  0  0  0  1  0  0  0  0  0  0
  189.2930  176.7930  143.4120 N   0  0  0  0  0  2  0  0  0  0  0  0
  187.1210  176.0080  142.7700 N   0  0  0  0  0  0  0  0  0  0  0  0
  187.8690  176.8080  143.7400 C   0  0  1  0  0  3  0  0  0  0  0  0
  188.0050  175.9050  141.6220 C   0  0  1  0  0  3  0  0  0  0  0  0
  185.9880  176.8250  142.3580 C   0  0  0  0  0  1  0  0  0  0  0  0
  189.4060  176.1050  142.1380 C   0  0  0  0  0  2  0  0  0  0  0  0
  187.6250  176.3920  145.2030 C   0  0  2  0  0  3  0  0  0  0  0  0
  185.9830  178.8860  145.3440 O   0  0  0  0  0  0  0  0  0  0  0  0
  188.0680  177.6410  147.0250 C   0  0  0  0  0  2  0  0  0  0  0  0
  186.5100  177.4830  146.1250 P   0  0  2  0  0  0  0  0  0  0  0  0
  185.4310  176.7490  146.8870 O   0  0  0  0  0  1  0  0  0  0  0  0
  188.8330  176.6760  146.1070 C   0  0  1  0  0  3  0  0  0  0  0  0
  189.3590  175.5000  146.8970 C   0  0  0  0  0  0  0  0  0  0  0  0
  190.7530  175.1950  147.0570 N   0  0  0  0  0  2  0  0  0  0  0  0
  188.5280  174.8190  147.5560 O   0  0  0  0  0  0  0  0  0  0  0  0
  191.8010  175.6270  146.1930 C   0  0  0  0  0  3  0  0  0  0  0  0
  193.0070  175.8800  146.6780 C   0  0  0  0  0  3  0  0  0  0  0  0
  194.1240  176.2950  145.7790 C   0  0  1  0  0  3  0  0  0  0  0  0
  194.6220  177.6850  146.1430 C   0  0  0  0  0  1  0  0  0  0  0  0
  195.2620  175.2980  145.9020 C   0  0  0  0  0  2  0  0  0  0  0  0
  196.8920  174.2450  144.4060 N   0  0  0  0  0  0  0  0  0  0  0  0
  195.8390  175.0210  144.5960 N   0  0  0  0  0  0  0  0  0  0  0  0
  196.2890  174.9710  142.4920 C   0  0  0  0  0  0  0  0  0  0  0  0
  195.4170  175.5110  143.4160 C   0  0  0  0  0  3  0  0  0  0  0  0
  197.1930  174.1960  143.1190 N   0  0  0  0  0  0  0  0  0  0  0  0
  195.6370  175.0760  139.8810 N   0  0  0  0  0  0  0  0  0  0  0  0
  196.2570  175.1970  141.0530 C   0  0  0  0  0  0  0  0  0  0  0  0
  196.8460  175.6850  139.9290 O   0  0  0  0  0  0  0  0  0  0  0  0
  188.3070  173.3990  141.7390 C   0  0  0  0  0  0  0  0  0  0  0  0
  187.4190  172.6540  142.2370 O   0  0  0  0  0  0  0  0  0  0  0  0
  189.6590  173.1240  141.9480 O   0  0  0  0  0  0  0  0  0  0  0  0
  190.1290  172.6050  143.1850 C   0  0  0  0  0  2  0  0  0  0  0  0
  190.4630  171.1330  143.0480 C   0  0  0  0  0  2  0  0  0  0  0  0
  191.9560  170.9330  142.9100 C   0  0  0  0  0  2  0  0  0  0  0  0
  192.3070  171.0090  141.5620 O   0  0  0  0  0  0  0  0  0  0  0  0
  192.6550  173.2030  140.8050 O   0  0  0  0  0  0  0  0  0  0  0  0
  193.5610  172.0660  138.3990 O   0  0  0  0  0  0  0  0  0  0  0  0
  193.8740  169.8860  137.7900 O   0  0  0  0  0  1  0  0  0  0  0  0
  193.2010  172.0870  141.4800 C   0  0  2  0  0  3  0  0  0  0  0  0
  190.8940  171.7770  139.1780 O   0  0  0  0  0  1  0  0  0  0  0  0
  194.6030  171.6930  140.9840 C   0  0  2  0  0  3  0  0  0  0  0  0
  191.8950  174.0700  138.4570 O   0  0  0  0  0  0  0  0  0  0  0  0
  194.6180  170.5570  139.9570 C   0  0  0  0  0  2  0  0  0  0  0  0
  192.2460  172.7970  139.1940 P   0  0  1  0  0  0  0  0  0  0  0  0
  193.5810  170.7420  138.8510 C   0  0  1  0  0  3  0  0  0  0  0  0
  195.4810  171.3260  142.1660 C   0  0  0  0  0  2  0  0  0  0  0  0
  195.5940  169.8120  142.3330 C   0  0  0  0  0  2  0  0  0  0  0  0
  197.1290  168.5870  143.6360 O   0  0  0  0  0  0  0  0  0  0  0  0
  196.2350  169.4230  143.6350 C   0  0  0  0  0  0  0  0  0  0  0  0
  195.4870  168.5340  147.3490 C   0  0  0  0  0  2  0  0  0  0  0  0
  195.8510  170.1280  144.9160 C   0  0  2  0  0  3  0  0  0  0  0  0
  194.6520  168.3940  146.0770 C   0  0  0  0  0  2  0  0  0  0  0  0
  196.9230  170.0350  145.9820 C   0  0  0  0  0  3  0  0  0  0  0  0
  196.7680  169.2740  147.0740 C   0  0  0  0  0  3  0  0  0  0  0  0
  194.5360  169.6940  145.4130 N   0  0  0  0  0  2  0  0  0  0  0  0
  1  2  1  6  0  0  0
  1 31  1  0  0  0  0
  4  5  1  0  0  0  0
  5  3  1  6  0  0  0
  6  1  1  1  0  0  0
  6  8  1  0  0  0  0
  6  4  1  0  0  0  0
  7  4  1  0  0  0  0
  8  3  1  0  0  0  0
  9  5  1  6  0  0  0
  9 14  1  0  0  0  0
  9 12  1  0  0  0  0
 12 10  2  6  0  0  0
 12 13  1  0  0  0  0
 12 11  1  0  0  0  0
 14 15  1  1  0  0  0
 14 11  1  0  0  0  0
 15 16  1  0  0  0  0
 15 17  2  0  0  0  0
 18 19  2  0  0  0  0
 18 16  1  0  0  0  0
 20 22  1  0  0  0  0
 20 21  1  1  0  0  0
 20 19  1  0  0  0  0
 23 24  1  0  0  0  0
 24 22  1  0  0  0  0
 25 27  1  0  0  0  0
 25 26  2  0  0  0  0
 26 24  1  0  0  0  0
 27 23  2  0  0  0  0
 28 30  1  0  0  0  0
 28 29  2  0  0  0  0
 29 25  1  0  0  0  0
 30 29  1  0  0  0  0
 31 33  1  0  0  0  0
 31 32  2  0  0  0  0
 33 34  1  0  0  0  0
 35 34  1  0  0  0  0
 36 35  1  0  0  0  0
 37 36  1  0  0  0  0
 38 41  1  0  0  0  0
 39 47  1  0  0  0  0
 39 46  1  0  0  0  0
 41 37  1  6  0  0  0
 42 46  1  0  0  0  0
 43 41  1  0  0  0  0
 43 48  1  1  0  0  0
 45 43  1  0  0  0  0
 46 44  2  6  0  0  0
 46 38  1  0  0  0  0
 47 40  1  6  0  0  0
 47 45  1  0  0  0  0
 48 49  1  0  0  0  0
 49 51  1  0  0  0  0
 51 50  2  0  0  0  0
 53 51  1  6  0  0  0
 53 57  1  0  0  0  0
 53 55  1  0  0  0  0
 54 52  1  0  0  0  0
 55 56  2  0  0  0  0
 56 52  1  0  0  0  0
 57 54  1  0  0  0  0
M  END
>  <MODEL>
7

>  <REMARK>
 VINA RESULT:      -5.5      2.848      5.117
  Name = 
  19 active torsions:
  status: ('A' for Active; 'I' for Inactive)
    1  A    between atoms: C_1  and  N_43
    2  A    between atoms: C_3  and  O_54
    3  A    between atoms: C_3  and  C_55
    4  A    between atoms: C_8  and  C_13
    5  A    between atoms: C_8  and  O_15
    6  A    between atoms: C_11  and  C_16
    7  A    between atoms: C_12  and  O_54
    8  A    between atoms: C_13  and  C_18
    9  A    between atoms: C_14  and  C_44
   10  A    between atoms: O_15  and  C_25
   11  A    between atoms: C_23  and  C_26
   12  A    between atoms: C_25  and  C_55
   13  A    between atoms: C_26  and  C_56
   14  A    between atoms: N_27  and  C_56
   15  A    between atoms: C_28  and  C_51
   16  A    between atoms: C_30  and  C_44
   17  A    between atoms: C_30  and  C_48
   18  A    between atoms: C_31  and  C_48
   19  A    between atoms: C_35  and  C_38
                            x       y       z     vdW  Elec       q    Type
                         _______ _______ _______ _____ _____    ______ ____

>  <TORSDO>
F 19

$$$$
=
 OpenBabel11062423043D

 57 62  0  0  1  0  0  0  0  0999 V2000
  193.0740  174.6850  146.2440 C   0  0  2  0  0  3  0  0  0  0  0  0
  194.3190  175.5360  146.4350 C   0  0  0  0  0  1  0  0  0  0  0  0
  193.5900  172.2190  143.6000 N   0  0  0  0  0  2  0  0  0  0  0  0
  193.9520  174.5680  143.9150 N   0  0  0  0  0  0  0  0  0  0  0  0
  194.1420  173.4360  143.0080 C   0  0  1  0  0  3  0  0  0  0  0  0
  192.8960  174.1410  144.8170 C   0  0  1  0  0  3  0  0  0  0  0  0
  193.4040  175.6480  143.1070 C   0  0  0  0  0  1  0  0  0  0  0  0
  192.9130  172.6340  144.8160 C   0  0  0  0  0  2  0  0  0  0  0  0
  195.6050  173.2340  142.5710 C   0  0  2  0  0  3  0  0  0  0  0  0
  196.1160  172.7680  145.4800 O   0  0  0  0  0  1  0  0  0  0  0  0
  197.3870  174.3720  143.3510 C   0  0  0  0  0  2  0  0  0  0  0  0
  196.7400  172.7800  143.9090 P   0  0  2  0  0  0  0  0  0  0  0  0
  197.6310  171.6040  143.5810 O   0  0  0  0  0  0  0  0  0  0  0  0
  196.3170  174.5580  142.2640 C   0  0  1  0  0  3  0  0  0  0  0  0
  196.9610  174.6640  140.9010 C   0  0  0  0  0  0  0  0  0  0  0  0
  196.4560  174.0240  139.7190 N   0  0  0  0  0  2  0  0  0  0  0  0
  197.9280  175.4620  140.7710 O   0  0  0  0  0  0  0  0  0  0  0  0
  195.5960  172.8880  139.6940 C   0  0  0  0  0  3  0  0  0  0  0  0
  195.9850  171.7680  139.1030 C   0  0  0  0  0  3  0  0  0  0  0  0
  195.1110  170.5580  139.1050 C   0  0  1  0  0  3  0  0  0  0  0  0
  195.9020  169.3220  139.5060 C   0  0  0  0  0  1  0  0  0  0  0  0
  193.9680  170.7670  140.0810 C   0  0  0  0  0  2  0  0  0  0  0  0
  191.5270  170.6060  139.9410 N   0  0  0  0  0  0  0  0  0  0  0  0
  192.6990  170.8320  139.3730 N   0  0  0  0  0  0  0  0  0  0  0  0
  191.1610  171.0330  137.8820 C   0  0  0  0  0  0  0  0  0  0  0  0
  192.5270  171.1050  138.0670 C   0  0  0  0  0  3  0  0  0  0  0  0
  190.5600  170.7220  139.0450 N   0  0  0  0  0  0  0  0  0  0  0  0
  189.3620  171.6340  135.9690 N   0  0  0  0  0  0  0  0  0  0  0  0
  190.4560  171.2520  136.6250 C   0  0  0  0  0  0  0  0  0  0  0  0
  190.4400  171.2080  135.2670 O   0  0  0  0  0  0  0  0  0  0  0  0
  191.8610  175.3960  146.7500 C   0  0  0  0  0  0  0  0  0  0  0  0
  191.8130  175.7200  147.9690 O   0  0  0  0  0  0  0  0  0  0  0  0
  190.8130  175.7270  145.8890 O   0  0  0  0  0  0  0  0  0  0  0  0
  190.7050  177.0220  145.3150 C   0  0  0  0  0  2  0  0  0  0  0  0
  189.6150  177.0420  144.2610 C   0  0  0  0  0  2  0  0  0  0  0  0
  190.2090  177.1770  142.8770 C   0  0  0  0  0  2  0  0  0  0  0  0
  189.9240  176.0270  142.1410 O   0  0  0  0  0  0  0  0  0  0  0  0
  188.9970  174.2330  143.3370 O   0  0  0  0  0  0  0  0  0  0  0  0
  188.4480  173.0530  140.8450 O   0  0  0  0  0  0  0  0  0  0  0  0
  188.7430  173.8300  138.7170 O   0  0  0  0  0  1  0  0  0  0  0  0
  188.7710  175.4920  142.7360 C   0  0  2  0  0  3  0  0  0  0  0  0
  191.0890  173.4400  141.6710 O   0  0  0  0  0  0  0  0  0  0  0  0
  187.5320  175.5250  141.8240 C   0  0  2  0  0  3  0  0  0  0  0  0
  189.5070  171.7200  142.8200 O   0  0  0  0  0  1  0  0  0  0  0  0
  187.8330  175.3300  140.3360 C   0  0  0  0  0  2  0  0  0  0  0  0
  189.5100  173.0870  142.1740 P   0  0  1  0  0  0  0  0  0  0  0  0
  188.7860  174.1670  140.0690 C   0  0  1  0  0  3  0  0  0  0  0  0
  186.7800  176.8280  142.0280 C   0  0  0  0  0  2  0  0  0  0  0  0
  185.7530  176.7140  143.1520 C   0  0  0  0  0  2  0  0  0  0  0  0
  184.0070  178.2520  142.7780 O   0  0  0  0  0  0  0  0  0  0  0  0
  185.0300  178.0070  143.4050 C   0  0  0  0  0  0  0  0  0  0  0  0
  185.2250  178.1180  147.2890 C   0  0  0  0  0  2  0  0  0  0  0  0
  185.5030  178.9460  144.4910 C   0  0  2  0  0  3  0  0  0  0  0  0
  184.0630  178.3270  146.3180 C   0  0  0  0  0  2  0  0  0  0  0  0
  186.6680  178.3870  145.2820 C   0  0  0  0  0  3  0  0  0  0  0  0
  186.5270  177.9740  146.5490 C   0  0  0  0  0  3  0  0  0  0  0  0
  184.4010  179.3850  145.3620 N   0  0  0  0  0  2  0  0  0  0  0  0
  1  2  1  6  0  0  0
  1 31  1  0  0  0  0
  3  8  1  0  0  0  0
  4  6  1  0  0  0  0
  5  3  1  1  0  0  0
  5  4  1  0  0  0  0
  6  1  1  1  0  0  0
  7  4  1  0  0  0  0
  8  6  1  0  0  0  0
  9  5  1  1  0  0  0
  9 12  1  0  0  0  0
 11 12  1  0  0  0  0
 12 13  2  6  0  0  0
 12 10  1  0  0  0  0
 14 15  1  6  0  0  0
 14  9  1  0  0  0  0
 14 11  1  0  0  0  0
 16 15  1  0  0  0  0
 17 15  2  0  0  0  0
 18 16  1  0  0  0  0
 19 20  1  0  0  0  0
 19 18  2  0  0  0  0
 20 21  1  1  0  0  0
 20 22  1  0  0  0  0
 24 23  1  0  0  0  0
 24 22  1  0  0  0  0
 25 26  2  0  0  0  0
 25 27  1  0  0  0  0
 26 24  1  0  0  0  0
 27 23  2  0  0  0  0
 28 29  2  0  0  0  0
 29 25  1  0  0  0  0
 30 28  1  0  0  0  0
 30 29  1  0  0  0  0
 31 32  2  0  0  0  0
 33 31  1  0  0  0  0
 34 33  1  0  0  0  0
 35 34  1  0  0  0  0
 36 35  1  0  0  0  0
 37 36  1  0  0  0  0
 39 46  1  0  0  0  0
 41 37  1  6  0  0  0
 41 38  1  0  0  0  0
 43 48  1  6  0  0  0
 43 41  1  0  0  0  0
 45 43  1  0  0  0  0
 46 42  2  6  0  0  0
 46 44  1  0  0  0  0
 46 38  1  0  0  0  0
 47 40  1  6  0  0  0
 47 45  1  0  0  0  0
 47 39  1  0  0  0  0
 48 49  1  0  0  0  0
 49 51  1  0  0  0  0
 50 51  2  0  0  0  0
 53 51  1  6  0  0  0
 53 55  1  0  0  0  0
 53 57  1  0  0  0  0
 54 52  1  0  0  0  0
 55 56  2  0  0  0  0
 56 52  1  0  0  0  0
 57 54  1  0  0  0  0
M  END
>  <MODEL>
8

>  <REMARK>
 VINA RESULT:      -5.4      2.848      9.329
  Name = 
  19 active torsions:
  status: ('A' for Active; 'I' for Inactive)
    1  A    between atoms: C_1  and  N_43
    2  A    between atoms: C_3  and  O_54
    3  A    between atoms: C_3  and  C_55
    4  A    between atoms: C_8  and  C_13
    5  A    between atoms: C_8  and  O_15
    6  A    between atoms: C_11  and  C_16
    7  A    between atoms: C_12  and  O_54
    8  A    between atoms: C_13  and  C_18
    9  A    between atoms: C_14  and  C_44
   10  A    between atoms: O_15  and  C_25
   11  A    between atoms: C_23  and  C_26
   12  A    between atoms: C_25  and  C_55
   13  A    between atoms: C_26  and  C_56
   14  A    between atoms: N_27  and  C_56
   15  A    between atoms: C_28  and  C_51
   16  A    between atoms: C_30  and  C_44
   17  A    between atoms: C_30  and  C_48
   18  A    between atoms: C_31  and  C_48
   19  A    between atoms: C_35  and  C_38
                            x       y       z     vdW  Elec       q    Type
                         _______ _______ _______ _____ _____    ______ ____

>  <TORSDO>
F 19

$$$$
=
 OpenBabel11062423043D

 57 62  0  0  1  0  0  0  0  0999 V2000
  191.0740  176.0490  142.1920 C   0  0  2  0  0  3  0  0  0  0  0  0
  192.0470  176.7620  143.1170 C   0  0  0  0  0  1  0  0  0  0  0  0
  188.3910  177.9100  143.8250 N   0  0  0  0  0  2  0  0  0  0  0  0
  188.9100  175.6190  143.3480 N   0  0  0  0  0  0  0  0  0  0  0  0
  187.9730  176.5230  144.0150 C   0  0  1  0  0  3  0  0  0  0  0  0
  189.6050  176.4570  142.3870 C   0  0  1  0  0  3  0  0  0  0  0  0
  188.0970  174.6850  142.5820 C   0  0  0  0  0  1  0  0  0  0  0  0
  189.5110  177.8700  142.9010 C   0  0  0  0  0  2  0  0  0  0  0  0
  187.7590  176.2000  145.5070 C   0  0  2  0  0  3  0  0  0  0  0  0
  186.1130  178.6950  145.5230 O   0  0  0  0  0  0  0  0  0  0  0  0
  188.2360  177.5630  147.2370 C   0  0  0  0  0  2  0  0  0  0  0  0
  186.6600  177.3460  146.3800 P   0  0  2  0  0  0  0  0  0  0  0  0
  185.5980  176.6590  147.2090 O   0  0  0  0  0  1  0  0  0  0  0  0
  188.9840  176.5430  146.3660 C   0  0  1  0  0  3  0  0  0  0  0  0
  189.5300  175.4200  147.2180 C   0  0  0  0  0  0  0  0  0  0  0  0
  190.8950  175.3270  147.6520 N   0  0  0  0  0  2  0  0  0  0  0  0
  188.7080  174.5820  147.6770 O   0  0  0  0  0  0  0  0  0  0  0  0
  192.0080  175.9660  147.0310 C   0  0  0  0  0  3  0  0  0  0  0  0
  192.9540  175.2460  146.4480 C   0  0  0  0  0  3  0  0  0  0  0  0
  194.1030  175.9040  145.7590 C   0  0  1  0  0  3  0  0  0  0  0  0
  194.5650  177.1300  146.5320 C   0  0  0  0  0  1  0  0  0  0  0  0
  195.2490  174.9150  145.6420 C   0  0  0  0  0  2  0  0  0  0  0  0
  197.2420  175.2610  144.2590 N   0  0  0  0  0  0  0  0  0  0  0  0
  195.9370  175.0820  144.3720 N   0  0  0  0  0  0  0  0  0  0  0  0
  196.4260  175.2950  142.2870 C   0  0  0  0  0  0  0  0  0  0  0  0
  195.3690  175.0980  143.1520 C   0  0  0  0  0  3  0  0  0  0  0  0
  197.5720  175.3960  142.9850 N   0  0  0  0  0  0  0  0  0  0  0  0
  195.6080  175.3590  139.7210 N   0  0  0  0  0  0  0  0  0  0  0  0
  196.3370  175.3890  140.8350 C   0  0  0  0  0  0  0  0  0  0  0  0
  196.9440  175.5680  139.6320 O   0  0  0  0  0  0  0  0  0  0  0  0
  191.2790  174.5700  142.2430 C   0  0  0  0  0  0  0  0  0  0  0  0
  191.0870  173.8930  141.1960 O   0  0  0  0  0  0  0  0  0  0  0  0
  191.7060  173.9470  143.4180 O   0  0  0  0  0  0  0  0  0  0  0  0
  192.4420  172.7310  143.3880 C   0  0  0  0  0  2  0  0  0  0  0  0
  191.5860  171.5840  143.8860 C   0  0  0  0  0  2  0  0  0  0  0  0
  192.3180  170.2680  143.7440 C   0  0  0  0  0  2  0  0  0  0  0  0
  193.6750  170.5180  143.5370 O   0  0  0  0  0  0  0  0  0  0  0  0
  194.7250  168.9770  144.9620 O   0  0  0  0  0  0  0  0  0  0  0  0
  197.1350  170.2910  144.3550 O   0  0  0  0  0  0  0  0  0  0  0  0
  197.5920  172.0030  142.9140 O   0  0  0  0  0  1  0  0  0  0  0  0
  194.2950  169.2640  143.6460 C   0  0  2  0  0  3  0  0  0  0  0  0
  195.1220  171.6180  145.7660 O   0  0  0  0  0  0  0  0  0  0  0  0
  195.3720  169.0110  142.5770 C   0  0  2  0  0  3  0  0  0  0  0  0
  196.4720  169.6420  146.7920 O   0  0  0  0  0  1  0  0  0  0  0  0
  196.1520  170.2590  142.1530 C   0  0  0  0  0  2  0  0  0  0  0  0
  195.8770  170.1270  145.4890 P   0  0  1  0  0  0  0  0  0  0  0  0
  196.6190  171.1010  143.3380 C   0  0  1  0  0  3  0  0  0  0  0  0
  194.7430  168.3610  141.3580 C   0  0  0  0  0  2  0  0  0  0  0  0
  194.2760  169.4030  140.3440 C   0  0  0  0  0  2  0  0  0  0  0  0
  192.1160  168.4720  140.4910 O   0  0  0  0  0  0  0  0  0  0  0  0
  192.7790  169.4680  140.2330 C   0  0  0  0  0  0  0  0  0  0  0  0
  190.6640  171.0170  137.3570 C   0  0  0  0  0  2  0  0  0  0  0  0
  192.0940  170.7760  139.9050 C   0  0  2  0  0  3  0  0  0  0  0  0
  192.1650  170.7620  137.4990 C   0  0  0  0  0  2  0  0  0  0  0  0
  190.5880  170.6410  139.8140 C   0  0  0  0  0  3  0  0  0  0  0  0
  189.9430  170.7140  138.6410 C   0  0  0  0  0  3  0  0  0  0  0  0
  192.6670  171.4150  138.7100 N   0  0  0  0  0  2  0  0  0  0  0  0
  1 31  1  0  0  0  0
  1  2  1  1  0  0  0
  4  5  1  0  0  0  0
  5  3  1  1  0  0  0
  6  1  1  1  0  0  0
  6  8  1  0  0  0  0
  6  4  1  0  0  0  0
  7  4  1  0  0  0  0
  8  3  1  0  0  0  0
  9  5  1  6  0  0  0
  9 14  1  0  0  0  0
  9 12  1  0  0  0  0
 12 10  2  6  0  0  0
 12 13  1  0  0  0  0
 12 11  1  0  0  0  0
 14 15  1  1  0  0  0
 14 11  1  0  0  0  0
 15 16  1  0  0  0  0
 15 17  2  0  0  0  0
 18 16  1  0  0  0  0
 19 18  2  0  0  0  0
 20 19  1  0  0  0  0
 20 21  1  1  0  0  0
 22 20  1  0  0  0  0
 23 24  1  0  0  0  0
 24 22  1  0  0  0  0
 25 27  1  0  0  0  0
 25 26  2  0  0  0  0
 26 24  1  0  0  0  0
 27 23  2  0  0  0  0
 28 29  2  0  0  0  0
 29 25  1  0  0  0  0
 30 28  1  0  0  0  0
 30 29  1  0  0  0  0
 31 33  1  0  0  0  0
 32 31  2  0  0  0  0
 34 33  1  0  0  0  0
 34 35  1  0  0  0  0
 36 35  1  0  0  0  0
 37 36  1  0  0  0  0
 38 46  1  0  0  0  0
 39 46  1  0  0  0  0
 41 37  1  1  0  0  0
 41 38  1  0  0  0  0
 43 48  1  6  0  0  0
 43 41  1  0  0  0  0
 45 43  1  0  0  0  0
 45 47  1  0  0  0  0
 46 42  2  1  0  0  0
 46 44  1  0  0  0  0
 47 40  1  6  0  0  0
 47 39  1  0  0  0  0
 49 48  1  0  0  0  0
 51 49  1  0  0  0  0
 51 50  2  0  0  0  0
 52 54  1  0  0  0  0
 52 56  1  0  0  0  0
 53 51  1  6  0  0  0
 54 57  1  0  0  0  0
 55 53  1  0  0  0  0
 56 55  2  0  0  0  0
 57 53  1  0  0  0  0
M  END
>  <MODEL>
9

>  <REMARK>
 VINA RESULT:      -5.4      2.714      4.432
  Name = 
  19 active torsions:
  status: ('A' for Active; 'I' for Inactive)
    1  A    between atoms: C_1  and  N_43
    2  A    between atoms: C_3  and  O_54
    3  A    between atoms: C_3  and  C_55
    4  A    between atoms: C_8  and  C_13
    5  A    between atoms: C_8  and  O_15
    6  A    between atoms: C_11  and  C_16
    7  A    between atoms: C_12  and  O_54
    8  A    between atoms: C_13  and  C_18
    9  A    between atoms: C_14  and  C_44
   10  A    between atoms: O_15  and  C_25
   11  A    between atoms: C_23  and  C_26
   12  A    between atoms: C_25  and  C_55
   13  A    between atoms: C_26  and  C_56
   14  A    between atoms: N_27  and  C_56
   15  A    between atoms: C_28  and  C_51
   16  A    between atoms: C_30  and  C_44
   17  A    between atoms: C_30  and  C_48
   18  A    between atoms: C_31  and  C_48
   19  A    between atoms: C_35  and  C_38
                            x       y       z     vdW  Elec       q    Type
                         _______ _______ _______ _____ _____    ______ ____

>  <TORSDO>
F 19

$$$$
