=
 OpenBabel11062418393D

 69 74  0  0  1  0  0  0  0  0999 V2000
  193.5540  173.2630  140.6220 C   0  0  0  0  0  2  0  0  0  0  0  0
  192.1820  172.8320  141.1670 C   0  0  1  0  0  3  0  0  0  0  0  0
  192.1980  170.3880  140.4800 C   0  0  0  0  0  2  0  0  0  0  0  0
  195.1340  171.2430  140.2100 C   0  0  2  0  0  3  0  0  0  0  0  0
  193.2820  169.6480  141.2390 C   0  0  0  0  0  2  0  0  0  0  0  0
  194.5240  170.5780  141.4530 C   0  0  1  0  0  3  0  0  0  0  0  0
  196.3790  171.8290  140.5660 O   0  0  0  0  0  1  0  0  0  0  0  0
  194.1620  172.3100  139.6300 C   0  0  2  0  0  3  0  0  0  0  0  0
  191.6870  171.5650  141.2490 C   0  0  0  0  0  2  0  0  0  0  0  0
  192.1230  174.0280  144.1130 C   0  0  1  0  0  0  0  0  0  0  0  0
  193.0780  173.0650  144.4230 F   0  0  0  0  0  0  0  0  0  0  0  0
  192.3140  175.2070  142.0340 C   0  0  0  0  0  2  0  0  0  0  0  0
  192.8630  175.1650  143.4190 C   0  0  0  0  0  2  0  0  0  0  0  0
  191.1650  173.4950  143.2330 O   0  0  0  0  0  0  0  0  0  0  0  0
  191.4930  173.9460  141.9310 C   0  0  2  0  0  3  0  0  0  0  0  0
  191.3550  176.0710  145.3530 C   0  0  0  0  0  2  0  0  0  0  0  0
  189.0440  175.6430  147.1930 C   0  0  0  0  0  0  0  0  0  0  0  0
  189.5120  174.2050  146.9070 C   0  0  0  0  0  2  0  0  0  0  0  0
  191.2250  176.5670  146.7480 C   0  0  0  0  0  2  0  0  0  0  0  0
  190.0440  174.0010  145.4730 C   0  0  0  0  0  2  0  0  0  0  0  0
  191.4460  174.5560  145.3980 C   0  0  1  0  0  3  0  0  0  0  0  0
  189.8660  176.6310  147.1910 N   0  0  0  0  0  0  0  0  0  0  0  0
  187.6790  175.8460  147.7390 C   0  0  0  0  0  2  0  0  0  0  0  0
  186.6730  178.1940  147.1260 C   0  0  0  0  0  0  0  0  0  0  0  0
  186.7120  178.8370  148.2130 O   0  0  0  0  0  0  0  0  0  0  0  0
  185.3780  176.2150  147.4100 O   0  0  0  0  0  1  0  0  0  0  0  0
  186.8240  177.6630  144.8910 C   0  0  1  0  0  3  0  0  0  0  0  0
  186.8280  178.7770  145.8690 N   0  0  0  0  0  2  0  0  0  0  0  0
  186.6390  176.6920  146.9970 C   0  0  2  0  0  0  0  0  0  0  0  0
  186.8300  176.4230  145.6030 O   0  0  0  0  0  0  0  0  0  0  0  0
  185.5500  177.6510  144.0020 C   0  0  1  0  0  3  0  0  0  0  0  0
  185.1020  180.3150  144.0230 O   0  0  0  0  0  1  0  0  0  0  0  0
  183.1830  178.8290  143.0690 O   0  0  0  0  0  0  0  0  0  0  0  0
  184.3800  179.0210  144.2500 P   0  0  0  0  0  0  0  0  0  0  0  0
  183.7830  179.0910  145.8590 O   0  0  0  0  0  1  0  0  0  0  0  0
  185.8690  177.5450  142.4820 C   0  0  2  0  0  3  0  0  0  0  0  0
  184.7860  178.0970  141.5630 C   0  0  0  0  0  1  0  0  0  0  0  0
  186.3880  176.2120  141.9820 C   0  0  0  0  0  2  0  0  0  0  0  0
  188.5900  175.4050  140.6400 O   0  0  0  0  0  0  0  0  0  0  0  0
  188.5320  177.7360  141.4530 O   0  0  0  0  0  0  0  0  0  0  0  0
  188.9880  175.8730  143.1530 F   0  0  0  0  0  0  0  0  0  0  0  0
  188.1720  176.3240  141.7610 S   0  0  0  0  0  0  0  0  0  0  0  0
  196.2280  173.3770  138.6280 O   0  0  0  0  0  1  0  0  0  0  0  0
  194.8170  173.2600  138.5940 C   0  0  1  0  0  3  0  0  0  0  0  0
  194.2500  173.2160  137.1200 C   0  0  2  0  0  3  0  0  0  0  0  0
  191.9110  175.7220  135.9110 O   0  0  0  0  0  1  0  0  0  0  0  0
  192.8960  174.7590  135.6360 C   0  0  2  0  0  3  0  0  0  0  0  0
  193.8230  174.6980  136.7320 C   0  0  1  0  0  0  0  0  0  0  0  0
  193.7180  175.6160  137.7870 O   0  0  0  0  0  1  0  0  0  0  0  0
  194.5100  175.5500  135.1930 P   0  0  2  0  0  0  0  0  0  0  0  0
  194.3520  177.0500  135.1870 O   0  0  0  0  0  0  0  0  0  0  0  0
  196.1530  175.1210  135.3700 O   0  0  0  0  0  1  0  0  0  0  0  0
  193.0610  172.2380  136.8640 C   0  0  0  0  0  2  0  0  0  0  0  0
  193.3230  171.0230  135.9010 C   0  0  2  0  0  0  0  0  0  0  0  0
  194.5890  170.3930  136.0450 O   0  0  0  0  0  0  0  0  0  0  0  0
  194.4460  171.2830  134.9630 C   0  0  0  0  0  2  0  0  0  0  0  0
  191.9270  170.1330  135.0950 S   0  0  0  0  0  0  0  0  0  0  0  0
  191.0670  169.1930  136.4090 C   0  0  1  0  0  3  0  0  0  0  0  0
  192.1650  168.6240  137.2790 C   0  0  0  0  0  1  0  0  0  0  0  0
  190.2590  170.1750  137.2800 C   0  0  0  0  0  2  0  0  0  0  0  0
  189.6810  171.1390  136.4580 O   0  0  0  0  0  0  0  0  0  0  0  0
  189.4230  172.1580  137.4150 C   0  0  0  0  0  2  0  0  0  0  0  0
  188.6110  174.1940  137.3180 C   0  0  0  0  0  1  0  0  0  0  0  0
  189.6670  173.4460  136.8930 O   0  0  0  0  0  0  0  0  0  0  0  0
  195.5620  169.9130  142.3500 C   0  0  0  0  0  2  0  0  0  0  0  0
  195.2040  169.6950  143.8300 C   0  0  0  0  0  2  0  0  0  0  0  0
  195.1560  170.9160  144.5860 O   0  0  0  0  0  0  0  0  0  0  0  0
  196.8330  171.9580  145.9080 C   0  0  0  0  0  1  0  0  0  0  0  0
  196.0670  170.6650  145.6160 C   0  0  0  0  0  2  0  0  0  0  0  0
  2  1  1  1  0  0  0
  2  9  1  0  0  0  0
  2 15  1  0  0  0  0
  3  5  1  0  0  0  0
  3  9  1  0  0  0  0
  4  7  1  1  0  0  0
  4  6  1  0  0  0  0
  5  6  1  0  0  0  0
  6 65  1  6  0  0  0
  8 44  1  6  0  0  0
  8  4  1  0  0  0  0
  8  1  1  0  0  0  0
 10 11  1  1  0  0  0
 10 21  1  0  0  0  0
 12 13  1  0  0  0  0
 13 10  1  0  0  0  0
 14 10  1  0  0  0  0
 15 12  1  1  0  0  0
 15 14  1  0  0  0  0
 16 19  1  0  0  0  0
 17 23  1  0  0  0  0
 18 17  1  0  0  0  0
 19 22  1  0  0  0  0
 20 18  1  0  0  0  0
 21 16  1  6  0  0  0
 21 20  1  0  0  0  0
 22 17  2  0  0  0  0
 24 25  2  0  0  0  0
 27 31  1  1  0  0  0
 27 30  1  0  0  0  0
 27 28  1  0  0  0  0
 28 24  1  0  0  0  0
 29 24  1  0  0  0  0
 29 26  1  1  0  0  0
 29 23  1  0  0  0  0
 30 29  1  0  0  0  0
 31 34  1  6  0  0  0
 32 34  1  0  0  0  0
 33 34  2  0  0  0  0
 34 35  1  0  0  0  0
 36 37  1  6  0  0  0
 36 31  1  0  0  0  0
 38 36  1  0  0  0  0
 39 42  2  0  0  0  0
 40 42  2  0  0  0  0
 42 38  1  0  0  0  0
 42 41  1  0  0  0  0
 44 43  1  6  0  0  0
 45 53  1  1  0  0  0
 45 44  1  0  0  0  0
 47 46  1  1  0  0  0
 47 48  1  0  0  0  0
 48 45  1  0  0  0  0
 48 49  1  1  0  0  0
 50 51  2  1  0  0  0
 50 52  1  0  0  0  0
 50 47  1  0  0  0  0
 50 48  1  0  0  0  0
 54 55  1  0  0  0  0
 54 53  1  1  0  0  0
 56 54  1  0  0  0  0
 56 55  1  0  0  0  0
 57 54  1  0  0  0  0
 57 58  1  0  0  0  0
 58 59  1  1  0  0  0
 58 60  1  0  0  0  0
 61 60  1  0  0  0  0
 61 62  1  0  0  0  0
 64 63  1  0  0  0  0
 64 62  1  0  0  0  0
 65 66  1  0  0  0  0
 66 67  1  0  0  0  0
 67 69  1  0  0  0  0
 69 68  1  0  0  0  0
M  END
>  <MODEL>
1

>  <REMARK>
 VINA RESULT:      -5.2      0.000      0.000
  Name = 
  24 active torsions:
  status: ('A' for Active; 'I' for Inactive)
    1  A    between atoms: C_3  and  C_11
    2  A    between atoms: C_3  and  O_48
    3  A    between atoms: C_5  and  C_60
    4  A    between atoms: C_5  and  S_67
    5  A    between atoms: C_8  and  C_49
    6  A    between atoms: C_9  and  C_14
    7  A    between atoms: C_9  and  S_67
    8  A    between atoms: C_11  and  C_39
    9  A    between atoms: C_13  and  C_21
   10  A    between atoms: C_13  and  C_29
   11  A    between atoms: C_13  and  C_60
   12  A    between atoms: C_14  and  O_16
   13  A    between atoms: O_16  and  C_46
   14  A    between atoms: C_21  and  C_65
   15  A    between atoms: C_22  and  C_58
   16  A    between atoms: C_25  and  C_30
   17  A    between atoms: C_25  and  S_59
   18  A    between atoms: C_26  and  C_62
   19  A    between atoms: C_30  and  C_33
   20  A    between atoms: C_33  and  P_36
   21  A    between atoms: C_33  and  C_50
   22  A    between atoms: C_35  and  O_48
   23  A    between atoms: C_46  and  O_61
   24  A    between atoms: C_62  and  C_63
                            x       y       z     vdW  Elec       q    Type
                         _______ _______ _______ _____ _____    ______ ____

>  <TORSDO>
F 24

$$$$
=
 OpenBabel11062418393D

 69 74  0  0  1  0  0  0  0  0999 V2000
  194.5060  172.8200  141.1760 C   0  0  0  0  0  2  0  0  0  0  0  0
  193.1990  172.5500  141.9380 C   0  0  1  0  0  3  0  0  0  0  0  0
  193.1510  170.0140  141.8200 C   0  0  0  0  0  2  0  0  0  0  0  0
  196.0420  170.7270  141.0700 C   0  0  2  0  0  3  0  0  0  0  0  0
  194.3090  169.4410  142.6130 C   0  0  0  0  0  2  0  0  0  0  0  0
  195.5640  170.3700  142.4860 C   0  0  1  0  0  3  0  0  0  0  0  0
  197.3150  171.3530  141.1590 O   0  0  0  0  0  1  0  0  0  0  0  0
  195.0120  171.6570  140.3660 C   0  0  2  0  0  3  0  0  0  0  0  0
  192.7190  171.3430  142.3530 C   0  0  0  0  0  2  0  0  0  0  0  0
  192.4670  173.8040  144.7680 C   0  0  1  0  0  0  0  0  0  0  0  0
  193.0020  172.6430  145.3160 F   0  0  0  0  0  0  0  0  0  0  0  0
  193.6100  174.8410  142.9340 C   0  0  0  0  0  2  0  0  0  0  0  0
  193.6460  174.7030  144.4170 C   0  0  0  0  0  2  0  0  0  0  0  0
  191.7520  173.5000  143.5950 O   0  0  0  0  0  0  0  0  0  0  0  0
  192.5890  173.8200  142.4980 C   0  0  2  0  0  3  0  0  0  0  0  0
  191.5760  176.0170  145.5480 C   0  0  0  0  0  2  0  0  0  0  0  0
  188.8870  175.9160  146.8410 C   0  0  0  0  0  0  0  0  0  0  0  0
  189.3120  174.4370  146.8420 C   0  0  0  0  0  2  0  0  0  0  0  0
  191.1680  176.6930  146.8070 C   0  0  0  0  0  2  0  0  0  0  0  0
  190.1380  174.0300  145.6040 C   0  0  0  0  0  2  0  0  0  0  0  0
  191.5540  174.5180  145.7910 C   0  0  1  0  0  3  0  0  0  0  0  0
  189.7510  176.8640  146.9140 N   0  0  0  0  0  0  0  0  0  0  0  0
  187.4510  176.2380  147.0290 C   0  0  0  0  0  2  0  0  0  0  0  0
  186.5340  178.2570  145.6200 C   0  0  0  0  0  0  0  0  0  0  0  0
  186.2770  179.1420  146.4850 O   0  0  0  0  0  0  0  0  0  0  0  0
  185.2900  176.2830  146.0970 O   0  0  0  0  0  1  0  0  0  0  0  0
  187.2560  177.2250  143.6930 C   0  0  1  0  0  3  0  0  0  0  0  0
  186.9720  178.5350  144.3260 N   0  0  0  0  0  2  0  0  0  0  0  0
  186.5930  176.7720  145.8770 C   0  0  2  0  0  0  0  0  0  0  0  0
  187.1350  176.1980  144.6800 O   0  0  0  0  0  0  0  0  0  0  0  0
  186.2430  176.8720  142.5690 C   0  0  1  0  0  3  0  0  0  0  0  0
  185.5870  179.4310  142.0040 O   0  0  0  0  0  1  0  0  0  0  0  0
  184.1670  177.5880  140.8250 O   0  0  0  0  0  0  0  0  0  0  0  0
  184.9410  178.0990  142.2410 P   0  0  0  0  0  0  0  0  0  0  0  0
  183.8920  178.3170  143.5830 O   0  0  0  0  0  1  0  0  0  0  0  0
  186.9320  176.5120  141.2200 C   0  0  2  0  0  3  0  0  0  0  0  0
  188.3500  175.9710  141.3520 C   0  0  0  0  0  1  0  0  0  0  0  0
  186.8350  177.5370  140.1080 C   0  0  0  0  0  2  0  0  0  0  0  0
  187.2880  177.5020  137.4430 O   0  0  0  0  0  0  0  0  0  0  0  0
  187.2990  175.3400  138.6380 O   0  0  0  0  0  0  0  0  0  0  0  0
  185.0370  176.4440  138.1550 F   0  0  0  0  0  0  0  0  0  0  0  0
  186.6510  176.6770  138.5350 S   0  0  0  0  0  0  0  0  0  0  0  0
  196.9400  172.2080  138.8210 O   0  0  0  0  0  1  0  0  0  0  0  0
  195.5540  172.3370  139.0830 C   0  0  1  0  0  3  0  0  0  0  0  0
  194.6770  172.2070  137.7750 C   0  0  2  0  0  3  0  0  0  0  0  0
  192.9490  174.9350  136.1060 O   0  0  0  0  0  1  0  0  0  0  0  0
  193.6650  173.7300  136.0220 C   0  0  2  0  0  3  0  0  0  0  0  0
  194.5980  173.6500  137.1120 C   0  0  1  0  0  0  0  0  0  0  0  0
  194.7590  174.7460  137.9750 O   0  0  0  0  0  1  0  0  0  0  0  0
  195.4010  174.0130  135.4420 P   0  0  2  0  0  0  0  0  0  0  0  0
  195.6030  175.4800  135.1510 O   0  0  0  0  0  0  0  0  0  0  0  0
  196.9010  173.2410  135.7020 O   0  0  0  0  0  1  0  0  0  0  0  0
  193.2390  171.6290  137.9600 C   0  0  0  0  0  2  0  0  0  0  0  0
  192.9280  170.2450  137.2840 C   0  0  2  0  0  0  0  0  0  0  0  0
  193.6570  169.1380  137.7980 O   0  0  0  0  0  0  0  0  0  0  0  0
  194.1130  169.6850  136.5820 C   0  0  0  0  0  2  0  0  0  0  0  0
  191.3650  169.9770  136.3470 S   0  0  0  0  0  0  0  0  0  0  0  0
  189.9960  170.0960  137.5540 C   0  0  1  0  0  3  0  0  0  0  0  0
  190.3240  169.0920  138.6360 C   0  0  0  0  0  1  0  0  0  0  0  0
  190.0230  171.4930  138.2060 C   0  0  0  0  0  2  0  0  0  0  0  0
  188.9170  171.6230  139.0430 O   0  0  0  0  0  0  0  0  0  0  0  0
  189.5550  172.0840  140.2260 C   0  0  0  0  0  2  0  0  0  0  0  0
  189.0490  172.1790  142.3590 C   0  0  0  0  0  1  0  0  0  0  0  0
  188.6330  172.6320  141.1430 O   0  0  0  0  0  0  0  0  0  0  0  0
  196.6910  169.9010  143.4000 C   0  0  0  0  0  2  0  0  0  0  0  0
  196.4790  170.0080  144.9200 C   0  0  0  0  0  2  0  0  0  0  0  0
  195.1260  169.7390  145.3230 O   0  0  0  0  0  0  0  0  0  0  0  0
  194.5690  168.9210  147.4820 C   0  0  0  0  0  1  0  0  0  0  0  0
  195.2790  168.6290  146.1580 C   0  0  0  0  0  2  0  0  0  0  0  0
  2  1  1  1  0  0  0
  2  9  1  0  0  0  0
  2 15  1  0  0  0  0
  3  9  1  0  0  0  0
  3  5  1  0  0  0  0
  4  7  1  1  0  0  0
  4  6  1  0  0  0  0
  6  5  1  0  0  0  0
  6 65  1  6  0  0  0
  8 44  1  6  0  0  0
  8  4  1  0  0  0  0
  8  1  1  0  0  0  0
 10 11  1  1  0  0  0
 10 21  1  0  0  0  0
 12 13  1  0  0  0  0
 13 10  1  0  0  0  0
 14 10  1  0  0  0  0
 15 12  1  1  0  0  0
 15 14  1  0  0  0  0
 16 19  1  0  0  0  0
 17 18  1  0  0  0  0
 17 22  2  0  0  0  0
 17 23  1  0  0  0  0
 19 22  1  0  0  0  0
 20 21  1  0  0  0  0
 20 18  1  0  0  0  0
 21 16  1  6  0  0  0
 24 29  1  0  0  0  0
 24 25  2  0  0  0  0
 27 31  1  6  0  0  0
 27 28  1  0  0  0  0
 27 30  1  0  0  0  0
 28 24  1  0  0  0  0
 29 26  1  1  0  0  0
 29 23  1  0  0  0  0
 30 29  1  0  0  0  0
 31 34  1  6  0  0  0
 32 34  1  0  0  0  0
 33 34  2  0  0  0  0
 34 35  1  0  0  0  0
 36 37  1  1  0  0  0
 36 31  1  0  0  0  0
 38 36  1  0  0  0  0
 39 42  2  0  0  0  0
 41 42  1  0  0  0  0
 42 40  2  0  0  0  0
 42 38  1  0  0  0  0
 44 43  1  6  0  0  0
 45 53  1  1  0  0  0
 45 44  1  0  0  0  0
 47 46  1  1  0  0  0
 47 48  1  0  0  0  0
 48 45  1  0  0  0  0
 48 49  1  1  0  0  0
 50 51  2  6  0  0  0
 50 52  1  0  0  0  0
 50 47  1  0  0  0  0
 50 48  1  0  0  0  0
 54 55  1  0  0  0  0
 54 53  1  1  0  0  0
 56 54  1  0  0  0  0
 56 55  1  0  0  0  0
 57 54  1  0  0  0  0
 57 58  1  0  0  0  0
 58 60  1  0  0  0  0
 58 59  1  1  0  0  0
 60 61  1  0  0  0  0
 61 62  1  0  0  0  0
 62 64  1  0  0  0  0
 64 63  1  0  0  0  0
 65 66  1  0  0  0  0
 66 67  1  0  0  0  0
 67 69  1  0  0  0  0
 69 68  1  0  0  0  0
M  END
>  <MODEL>
2

>  <REMARK>
 VINA RESULT:      -4.6      1.804      2.176
  Name = 
  24 active torsions:
  status: ('A' for Active; 'I' for Inactive)
    1  A    between atoms: C_3  and  C_11
    2  A    between atoms: C_3  and  O_48
    3  A    between atoms: C_5  and  C_60
    4  A    between atoms: C_5  and  S_67
    5  A    between atoms: C_8  and  C_49
    6  A    between atoms: C_9  and  C_14
    7  A    between atoms: C_9  and  S_67
    8  A    between atoms: C_11  and  C_39
    9  A    between atoms: C_13  and  C_21
   10  A    between atoms: C_13  and  C_29
   11  A    between atoms: C_13  and  C_60
   12  A    between atoms: C_14  and  O_16
   13  A    between atoms: O_16  and  C_46
   14  A    between atoms: C_21  and  C_65
   15  A    between atoms: C_22  and  C_58
   16  A    between atoms: C_25  and  C_30
   17  A    between atoms: C_25  and  S_59
   18  A    between atoms: C_26  and  C_62
   19  A    between atoms: C_30  and  C_33
   20  A    between atoms: C_33  and  P_36
   21  A    between atoms: C_33  and  C_50
   22  A    between atoms: C_35  and  O_48
   23  A    between atoms: C_46  and  O_61
   24  A    between atoms: C_62  and  C_63
                            x       y       z     vdW  Elec       q    Type
                         _______ _______ _______ _____ _____    ______ ____

>  <TORSDO>
F 24

$$$$
=
 OpenBabel11062418393D

 69 74  0  0  1  0  0  0  0  0999 V2000
  194.4620  172.7100  141.7180 C   0  0  0  0  0  2  0  0  0  0  0  0
  193.1460  172.3590  142.4320 C   0  0  1  0  0  3  0  0  0  0  0  0
  193.4290  169.8440  142.6350 C   0  0  0  0  0  2  0  0  0  0  0  0
  196.2540  170.8470  141.9690 C   0  0  2  0  0  3  0  0  0  0  0  0
  194.5890  169.5310  143.5600 C   0  0  0  0  0  2  0  0  0  0  0  0
  195.7220  170.5990  143.3880 C   0  0  1  0  0  3  0  0  0  0  0  0
  197.4270  171.6450  142.0500 O   0  0  0  0  0  1  0  0  0  0  0  0
  195.1690  171.5390  141.0940 C   0  0  2  0  0  3  0  0  0  0  0  0
  192.7940  171.1560  142.9680 C   0  0  0  0  0  2  0  0  0  0  0  0
  192.3410  174.0200  145.0210 C   0  0  1  0  0  0  0  0  0  0  0  0
  193.1110  173.1060  145.7330 F   0  0  0  0  0  0  0  0  0  0  0  0
  193.1750  174.8410  142.9290 C   0  0  0  0  0  2  0  0  0  0  0  0
  193.3120  175.0180  144.4010 C   0  0  0  0  0  2  0  0  0  0  0  0
  191.6350  173.3640  143.9970 O   0  0  0  0  0  0  0  0  0  0  0  0
  192.3400  173.5920  142.7890 C   0  0  2  0  0  3  0  0  0  0  0  0
  191.3060  176.2330  145.5980 C   0  0  0  0  0  2  0  0  0  0  0  0
  188.5990  176.0790  146.8460 C   0  0  0  0  0  0  0  0  0  0  0  0
  189.1090  174.6330  146.9790 C   0  0  0  0  0  2  0  0  0  0  0  0
  190.8310  176.9850  146.7880 C   0  0  0  0  0  2  0  0  0  0  0  0
  189.9840  174.1750  145.7940 C   0  0  0  0  0  2  0  0  0  0  0  0
  191.3660  174.7610  145.9640 C   0  0  1  0  0  3  0  0  0  0  0  0
  189.4050  177.0800  146.8550 N   0  0  0  0  0  0  0  0  0  0  0  0
  187.1430  176.3300  146.9820 C   0  0  0  0  0  2  0  0  0  0  0  0
  185.5720  178.2950  146.2260 C   0  0  0  0  0  0  0  0  0  0  0  0
  184.7460  178.4090  147.1750 O   0  0  0  0  0  0  0  0  0  0  0  0
  185.4760  176.0880  145.3370 O   0  0  0  0  0  1  0  0  0  0  0  0
  187.0500  178.8100  144.5370 C   0  0  1  0  0  3  0  0  0  0  0  0
  186.0200  179.3630  145.4490 N   0  0  0  0  0  2  0  0  0  0  0  0
  186.3500  177.0480  145.8850 C   0  0  2  0  0  0  0  0  0  0  0  0
  187.3100  177.4530  144.9010 O   0  0  0  0  0  0  0  0  0  0  0  0
  186.5830  178.7830  143.0550 C   0  0  1  0  0  3  0  0  0  0  0  0
  186.3000  176.1480  142.5280 O   0  0  0  0  0  1  0  0  0  0  0  0
  186.6950  177.7020  140.4700 O   0  0  0  0  0  0  0  0  0  0  0  0
  187.0920  177.3380  142.0750 P   0  0  0  0  0  0  0  0  0  0  0  0
  188.7410  176.9270  142.3210 O   0  0  0  0  0  1  0  0  0  0  0  0
  185.0460  178.9680  142.8970 C   0  0  2  0  0  3  0  0  0  0  0  0
  184.3740  179.7240  144.0360 C   0  0  0  0  0  1  0  0  0  0  0  0
  184.2460  177.7440  142.5020 C   0  0  0  0  0  2  0  0  0  0  0  0
  181.8070  178.5960  141.7080 O   0  0  0  0  0  0  0  0  0  0  0  0
  183.7580  179.2820  140.3580 O   0  0  0  0  0  0  0  0  0  0  0  0
  182.9040  176.8780  140.1160 F   0  0  0  0  0  0  0  0  0  0  0  0
  183.1430  178.1770  141.1450 S   0  0  0  0  0  0  0  0  0  0  0  0
  197.0220  171.7450  139.3800 O   0  0  0  0  0  1  0  0  0  0  0  0
  195.7150  172.1290  139.7680 C   0  0  1  0  0  3  0  0  0  0  0  0
  194.7160  172.1930  138.5450 C   0  0  2  0  0  3  0  0  0  0  0  0
  193.0380  175.1770  137.3240 O   0  0  0  0  0  1  0  0  0  0  0  0
  193.6650  173.9500  137.0540 C   0  0  2  0  0  3  0  0  0  0  0  0
  194.6760  173.7010  138.0430 C   0  0  1  0  0  0  0  0  0  0  0  0
  194.9780  174.6860  138.9960 O   0  0  0  0  0  1  0  0  0  0  0  0
  195.3620  174.1960  136.3550 P   0  0  2  0  0  0  0  0  0  0  0  0
  195.6340  175.6720  136.1990 O   0  0  0  0  0  0  0  0  0  0  0  0
  196.8240  173.3170  136.4010 O   0  0  0  0  0  1  0  0  0  0  0  0
  193.2640  171.6840  138.8090 C   0  0  0  0  0  2  0  0  0  0  0  0
  192.9170  170.2240  138.3430 C   0  0  2  0  0  0  0  0  0  0  0  0
  193.7060  169.1940  138.9250 O   0  0  0  0  0  0  0  0  0  0  0  0
  194.0440  169.5850  137.6140 C   0  0  0  0  0  2  0  0  0  0  0  0
  191.2820  169.8310  137.5910 S   0  0  0  0  0  0  0  0  0  0  0  0
  190.4320  171.4260  137.3070 C   0  0  1  0  0  3  0  0  0  0  0  0
  189.6890  171.2590  136.0010 C   0  0  0  0  0  1  0  0  0  0  0  0
  189.3740  171.6320  138.4100 C   0  0  0  0  0  2  0  0  0  0  0  0
  189.7420  172.7240  139.1920 O   0  0  0  0  0  0  0  0  0  0  0  0
  188.7570  173.6640  138.7850 C   0  0  0  0  0  2  0  0  0  0  0  0
  189.0100  174.0050  140.9380 C   0  0  0  0  0  1  0  0  0  0  0  0
  188.2890  174.4400  139.8670 O   0  0  0  0  0  0  0  0  0  0  0  0
  196.8280  170.3990  144.4180 C   0  0  0  0  0  2  0  0  0  0  0  0
  197.4760  171.6510  145.0350 C   0  0  0  0  0  2  0  0  0  0  0  0
  196.8780  172.0400  146.2830 O   0  0  0  0  0  0  0  0  0  0  0  0
  197.2480  173.8050  144.7370 C   0  0  0  0  0  1  0  0  0  0  0  0
  196.7660  173.4250  146.1400 C   0  0  0  0  0  2  0  0  0  0  0  0
  2  1  1  1  0  0  0
  2 15  1  0  0  0  0
  2  9  1  0  0  0  0
  3  9  1  0  0  0  0
  3  5  1  0  0  0  0
  4  7  1  1  0  0  0
  4  6  1  0  0  0  0
  6  5  1  0  0  0  0
  6 65  1  1  0  0  0
  8 44  1  6  0  0  0
  8  1  1  0  0  0  0
  8  4  1  0  0  0  0
 10 11  1  1  0  0  0
 10 21  1  0  0  0  0
 12 13  1  0  0  0  0
 13 10  1  0  0  0  0
 14 10  1  0  0  0  0
 15 12  1  1  0  0  0
 15 14  1  0  0  0  0
 16 19  1  0  0  0  0
 17 22  2  0  0  0  0
 17 18  1  0  0  0  0
 17 23  1  0  0  0  0
 19 22  1  0  0  0  0
 20 21  1  0  0  0  0
 20 18  1  0  0  0  0
 21 16  1  6  0  0  0
 24 25  2  0  0  0  0
 27 31  1  6  0  0  0
 27 30  1  0  0  0  0
 27 28  1  0  0  0  0
 28 24  1  0  0  0  0
 29 26  1  6  0  0  0
 29 24  1  0  0  0  0
 29 23  1  0  0  0  0
 30 29  1  0  0  0  0
 31 34  1  1  0  0  0
 33 34  2  0  0  0  0
 34 35  1  0  0  0  0
 34 32  1  0  0  0  0
 36 31  1  0  0  0  0
 36 37  1  1  0  0  0
 38 36  1  0  0  0  0
 40 42  2  0  0  0  0
 41 42  1  0  0  0  0
 42 39  2  0  0  0  0
 42 38  1  0  0  0  0
 44 43  1  6  0  0  0
 45 53  1  1  0  0  0
 45 44  1  0  0  0  0
 47 46  1  1  0  0  0
 47 48  1  0  0  0  0
 48 45  1  0  0  0  0
 48 49  1  1  0  0  0
 50 51  2  1  0  0  0
 50 52  1  0  0  0  0
 50 47  1  0  0  0  0
 50 48  1  0  0  0  0
 54 53  1  1  0  0  0
 54 55  1  0  0  0  0
 56 54  1  0  0  0  0
 56 55  1  0  0  0  0
 57 54  1  0  0  0  0
 58 59  1  6  0  0  0
 58 57  1  0  0  0  0
 58 60  1  0  0  0  0
 60 61  1  0  0  0  0
 62 61  1  0  0  0  0
 62 64  1  0  0  0  0
 64 63  1  0  0  0  0
 65 66  1  0  0  0  0
 66 67  1  0  0  0  0
 68 69  1  0  0  0  0
 69 67  1  0  0  0  0
M  END
>  <MODEL>
3

>  <REMARK>
 VINA RESULT:      -4.5      1.960      2.763
  Name = 
  24 active torsions:
  status: ('A' for Active; 'I' for Inactive)
    1  A    between atoms: C_3  and  C_11
    2  A    between atoms: C_3  and  O_48
    3  A    between atoms: C_5  and  C_60
    4  A    between atoms: C_5  and  S_67
    5  A    between atoms: C_8  and  C_49
    6  A    between atoms: C_9  and  C_14
    7  A    between atoms: C_9  and  S_67
    8  A    between atoms: C_11  and  C_39
    9  A    between atoms: C_13  and  C_21
   10  A    between atoms: C_13  and  C_29
   11  A    between atoms: C_13  and  C_60
   12  A    between atoms: C_14  and  O_16
   13  A    between atoms: O_16  and  C_46
   14  A    between atoms: C_21  and  C_65
   15  A    between atoms: C_22  and  C_58
   16  A    between atoms: C_25  and  C_30
   17  A    between atoms: C_25  and  S_59
   18  A    between atoms: C_26  and  C_62
   19  A    between atoms: C_30  and  C_33
   20  A    between atoms: C_33  and  P_36
   21  A    between atoms: C_33  and  C_50
   22  A    between atoms: C_35  and  O_48
   23  A    between atoms: C_46  and  O_61
   24  A    between atoms: C_62  and  C_63
                            x       y       z     vdW  Elec       q    Type
                         _______ _______ _______ _____ _____    ______ ____

>  <TORSDO>
F 24

$$$$
=
 OpenBabel11062418393D

 69 74  0  0  1  0  0  0  0  0999 V2000
  194.5200  170.9700  141.3490 C   0  0  0  0  0  2  0  0  0  0  0  0
  194.0210  172.3720  140.9620 C   0  0  1  0  0  3  0  0  0  0  0  0
  195.6550  172.9070  139.0940 C   0  0  0  0  0  2  0  0  0  0  0  0
  195.9440  169.8740  139.4740 C   0  0  2  0  0  3  0  0  0  0  0  0
  195.4270  171.9660  137.9280 C   0  0  0  0  0  2  0  0  0  0  0  0
  195.0180  170.5460  138.4490 C   0  0  1  0  0  3  0  0  0  0  0  0
  195.5510  168.5170  139.6290 O   0  0  0  0  0  1  0  0  0  0  0  0
  195.8910  170.6280  140.8340 C   0  0  2  0  0  3  0  0  0  0  0  0
  194.4050  173.1180  139.8880 C   0  0  0  0  0  2  0  0  0  0  0  0
  190.8640  172.3630  140.5760 C   0  0  1  0  0  0  0  0  0  0  0  0
  191.1110  171.7730  139.3400 F   0  0  0  0  0  0  0  0  0  0  0  0
  192.1310  171.6270  142.4730 C   0  0  0  0  0  2  0  0  0  0  0  0
  190.9710  171.2540  141.6160 C   0  0  0  0  0  2  0  0  0  0  0  0
  191.8340  173.3450  140.8460 O   0  0  0  0  0  0  0  0  0  0  0  0
  192.7780  172.7710  141.7330 C   0  0  2  0  0  3  0  0  0  0  0  0
  188.9830  173.1280  142.0500 C   0  0  0  0  0  2  0  0  0  0  0  0
  187.2800  175.2980  140.9090 C   0  0  0  0  0  0  0  0  0  0  0  0
  188.0470  174.7940  139.6740 C   0  0  0  0  0  2  0  0  0  0  0  0
  187.4980  173.1880  142.0520 C   0  0  0  0  0  2  0  0  0  0  0  0
  189.4920  174.3480  139.9830 C   0  0  0  0  0  2  0  0  0  0  0  0
  189.4460  172.9760  140.6120 C   0  0  1  0  0  3  0  0  0  0  0  0
  186.9930  174.5170  141.8880 N   0  0  0  0  0  0  0  0  0  0  0  0
  186.6320  176.6310  140.8420 C   0  0  0  0  0  2  0  0  0  0  0  0
  185.3400  178.3400  142.3620 C   0  0  0  0  0  0  0  0  0  0  0  0
  184.7030  179.0590  141.5400 O   0  0  0  0  0  0  0  0  0  0  0  0
  187.6720  178.4620  141.8940 O   0  0  0  0  0  1  0  0  0  0  0  0
  185.8710  177.0790  144.2120 C   0  0  1  0  0  3  0  0  0  0  0  0
  184.8780  178.0180  143.6370 N   0  0  0  0  0  2  0  0  0  0  0  0
  186.5970  177.5650  142.0560 C   0  0  2  0  0  0  0  0  0  0  0  0
  186.8220  176.7350  143.2020 O   0  0  0  0  0  0  0  0  0  0  0  0
  186.6820  177.7070  145.3800 C   0  0  1  0  0  3  0  0  0  0  0  0
  186.0290  176.5920  147.7530 O   0  0  0  0  0  1  0  0  0  0  0  0
  186.5550  179.1460  147.7830 O   0  0  0  0  0  1  0  0  0  0  0  0
  185.8180  177.8550  146.9730 P   0  0  0  0  0  0  0  0  0  0  0  0
  184.1190  178.0140  146.7860 O   0  0  0  0  0  0  0  0  0  0  0  0
  188.0460  176.9980  145.6240 C   0  0  2  0  0  3  0  0  0  0  0  0
  189.2650  177.7830  145.1550 C   0  0  0  0  0  1  0  0  0  0  0  0
  188.1430  175.5400  145.2230 C   0  0  0  0  0  2  0  0  0  0  0  0
  190.8210  175.1830  145.2010 O   0  0  0  0  0  0  0  0  0  0  0  0
  189.7000  175.3210  147.3970 O   0  0  0  0  0  0  0  0  0  0  0  0
  189.4830  173.1440  146.0620 F   0  0  0  0  0  0  0  0  0  0  0  0
  189.5960  174.8140  146.0000 S   0  0  0  0  0  0  0  0  0  0  0  0
  197.8020  169.2790  141.8040 O   0  0  0  0  0  1  0  0  0  0  0  0
  196.5190  169.8410  142.0130 C   0  0  1  0  0  3  0  0  0  0  0  0
  196.3590  170.4630  143.4570 C   0  0  2  0  0  3  0  0  0  0  0  0
  193.1980  169.3000  144.8240 O   0  0  0  0  0  1  0  0  0  0  0  0
  194.3380  170.1120  144.9430 C   0  0  2  0  0  3  0  0  0  0  0  0
  195.4520  169.4690  144.3040 C   0  0  1  0  0  0  0  0  0  0  0  0
  195.3110  168.1660  143.8010 O   0  0  0  0  0  1  0  0  0  0  0  0
  195.5260  169.4330  146.1910 P   0  0  2  0  0  0  0  0  0  0  0  0
  194.9450  168.1890  146.8150 O   0  0  0  0  0  1  0  0  0  0  0  0
  197.2210  169.4660  146.3850 O   0  0  0  0  0  0  0  0  0  0  0  0
  195.7710  171.9070  143.5290 C   0  0  0  0  0  2  0  0  0  0  0  0
  196.5560  172.9610  144.3910 C   0  0  2  0  0  0  0  0  0  0  0  0
  197.6960  173.5350  143.7640 O   0  0  0  0  0  0  0  0  0  0  0  0
  197.9390  172.5120  144.7020 C   0  0  0  0  0  2  0  0  0  0  0  0
  195.7540  173.8050  145.8180 S   0  0  0  0  0  0  0  0  0  0  0  0
  194.0670  174.2660  145.2830 C   0  0  1  0  0  3  0  0  0  0  0  0
  193.5560  175.2190  146.3400 C   0  0  0  0  0  1  0  0  0  0  0  0
  194.1590  175.0570  143.9620 C   0  0  0  0  0  2  0  0  0  0  0  0
  194.4020  176.3970  144.2540 O   0  0  0  0  0  0  0  0  0  0  0  0
  195.4160  176.6780  143.2990 C   0  0  0  0  0  2  0  0  0  0  0  0
  196.5410  176.0510  141.5220 C   0  0  0  0  0  1  0  0  0  0  0  0
  195.6510  175.5830  142.4410 O   0  0  0  0  0  0  0  0  0  0  0  0
  194.6290  169.6270  137.2970 C   0  0  0  0  0  2  0  0  0  0  0  0
  194.0860  170.2730  136.0100 C   0  0  0  0  0  2  0  0  0  0  0  0
  192.7830  169.7910  135.6420 O   0  0  0  0  0  0  0  0  0  0  0  0
  190.5890  170.0800  136.5040 C   0  0  0  0  0  1  0  0  0  0  0  0
  191.9400  170.7420  136.2230 C   0  0  0  0  0  2  0  0  0  0  0  0
  2  9  1  6  0  0  0
  2  1  1  0  0  0  0
  2 15  1  0  0  0  0
  3  9  1  0  0  0  0
  4  7  1  1  0  0  0
  4  8  1  0  0  0  0
  5  6  1  0  0  0  0
  5  3  1  0  0  0  0
  6 65  1  6  0  0  0
  6  4  1  0  0  0  0
  8  1  1  0  0  0  0
  8 44  1  1  0  0  0
 10 11  1  6  0  0  0
 10 21  1  0  0  0  0
 10 14  1  0  0  0  0
 10 13  1  0  0  0  0
 13 12  1  0  0  0  0
 14 15  1  0  0  0  0
 15 12  1  6  0  0  0
 16 19  1  0  0  0  0
 17 22  2  0  0  0  0
 18 20  1  0  0  0  0
 18 17  1  0  0  0  0
 21 20  1  1  0  0  0
 21 16  1  0  0  0  0
 22 19  1  0  0  0  0
 23 17  1  0  0  0  0
 23 29  1  0  0  0  0
 24 28  1  0  0  0  0
 25 24  2  0  0  0  0
 27 31  1  1  0  0  0
 28 27  1  0  0  0  0
 29 26  1  6  0  0  0
 29 24  1  0  0  0  0
 29 30  1  0  0  0  0
 30 27  1  0  0  0  0
 31 36  1  0  0  0  0
 31 34  1  1  0  0  0
 34 32  1  0  0  0  0
 34 33  1  0  0  0  0
 35 34  2  0  0  0  0
 36 37  1  6  0  0  0
 38 36  1  0  0  0  0
 38 42  1  0  0  0  0
 39 42  2  0  0  0  0
 42 41  1  0  0  0  0
 42 40  2  0  0  0  0
 44 43  1  6  0  0  0
 44 45  1  0  0  0  0
 45 53  1  6  0  0  0
 45 48  1  0  0  0  0
 47 46  1  1  0  0  0
 47 50  1  0  0  0  0
 48 49  1  6  0  0  0
 48 47  1  0  0  0  0
 48 50  1  0  0  0  0
 50 52  2  1  0  0  0
 50 51  1  0  0  0  0
 54 53  1  6  0  0  0
 54 56  1  0  0  0  0
 54 57  1  0  0  0  0
 55 54  1  0  0  0  0
 55 56  1  0  0  0  0
 58 57  1  0  0  0  0
 58 59  1  1  0  0  0
 60 61  1  0  0  0  0
 60 58  1  0  0  0  0
 62 61  1  0  0  0  0
 63 64  1  0  0  0  0
 64 62  1  0  0  0  0
 66 65  1  0  0  0  0
 67 66  1  0  0  0  0
 67 69  1  0  0  0  0
 69 68  1  0  0  0  0
M  END
>  <MODEL>
4

>  <REMARK>
 VINA RESULT:      -4.4      3.446      7.147
  Name = 
  24 active torsions:
  status: ('A' for Active; 'I' for Inactive)
    1  A    between atoms: C_3  and  C_11
    2  A    between atoms: C_3  and  O_48
    3  A    between atoms: C_5  and  C_60
    4  A    between atoms: C_5  and  S_67
    5  A    between atoms: C_8  and  C_49
    6  A    between atoms: C_9  and  C_14
    7  A    between atoms: C_9  and  S_67
    8  A    between atoms: C_11  and  C_39
    9  A    between atoms: C_13  and  C_21
   10  A    between atoms: C_13  and  C_29
   11  A    between atoms: C_13  and  C_60
   12  A    between atoms: C_14  and  O_16
   13  A    between atoms: O_16  and  C_46
   14  A    between atoms: C_21  and  C_65
   15  A    between atoms: C_22  and  C_58
   16  A    between atoms: C_25  and  C_30
   17  A    between atoms: C_25  and  S_59
   18  A    between atoms: C_26  and  C_62
   19  A    between atoms: C_30  and  C_33
   20  A    between atoms: C_33  and  P_36
   21  A    between atoms: C_33  and  C_50
   22  A    between atoms: C_35  and  O_48
   23  A    between atoms: C_46  and  O_61
   24  A    between atoms: C_62  and  C_63
                            x       y       z     vdW  Elec       q    Type
                         _______ _______ _______ _____ _____    ______ ____

>  <TORSDO>
F 24

$$$$
=
 OpenBabel11062418393D

 69 74  0  0  1  0  0  0  0  0999 V2000
  189.3310  175.0360  144.7340 C   0  0  0  0  0  2  0  0  0  0  0  0
  190.6650  175.7080  145.0980 C   0  0  1  0  0  3  0  0  0  0  0  0
  190.0740  178.1270  144.6020 C   0  0  0  0  0  2  0  0  0  0  0  0
  187.3490  176.7150  144.7100 C   0  0  2  0  0  3  0  0  0  0  0  0
  189.0050  178.6020  145.5660 C   0  0  0  0  0  2  0  0  0  0  0  0
  188.0130  177.4350  145.8940 C   0  0  1  0  0  3  0  0  0  0  0  0
  186.3130  175.8770  145.2040 O   0  0  0  0  0  1  0  0  0  0  0  0
  188.4020  175.8890  143.9150 C   0  0  2  0  0  3  0  0  0  0  0  0
  190.9160  177.0440  145.1990 C   0  0  0  0  0  2  0  0  0  0  0  0
  193.7700  175.0580  144.8740 C   0  0  1  0  0  0  0  0  0  0  0  0
  193.8390  176.1420  144.0050 F   0  0  0  0  0  0  0  0  0  0  0  0
  192.4320  175.2560  146.8530 C   0  0  0  0  0  2  0  0  0  0  0  0
  193.7580  175.6320  146.2860 C   0  0  0  0  0  2  0  0  0  0  0  0
  192.5810  174.3390  144.6570 O   0  0  0  0  0  0  0  0  0  0  0  0
  191.6670  174.7230  145.6680 C   0  0  2  0  0  3  0  0  0  0  0  0
  194.8280  172.8740  145.5180 C   0  0  0  0  0  2  0  0  0  0  0  0
  196.6780  171.7140  143.4830 C   0  0  0  0  0  0  0  0  0  0  0  0
  196.5180  173.1650  142.9970 C   0  0  0  0  0  2  0  0  0  0  0  0
  196.1740  172.2980  145.7660 C   0  0  0  0  0  2  0  0  0  0  0  0
  195.1110  173.7480  143.2420 C   0  0  0  0  0  2  0  0  0  0  0  0
  195.0010  174.1400  144.6970 C   0  0  1  0  0  3  0  0  0  0  0  0
  196.6000  171.4090  144.7290 N   0  0  0  0  0  0  0  0  0  0  0  0
  197.1940  170.7020  142.5280 C   0  0  0  0  0  2  0  0  0  0  0  0
  194.8570  169.6100  142.0290 C   0  0  0  0  0  0  0  0  0  0  0  0
  194.5530  169.0320  143.1110 O   0  0  0  0  0  0  0  0  0  0  0  0
  196.9310  168.7620  141.2210 O   0  0  0  0  0  1  0  0  0  0  0  0
  194.7100  170.8390  140.0880 C   0  0  1  0  0  3  0  0  0  0  0  0
  193.9270  170.1810  141.1610 N   0  0  0  0  0  2  0  0  0  0  0  0
  196.2570  169.9470  141.5790 C   0  0  2  0  0  0  0  0  0  0  0  0
  196.0980  170.7850  140.4280 O   0  0  0  0  0  0  0  0  0  0  0  0
  194.5680  170.1210  138.7170 C   0  0  1  0  0  3  0  0  0  0  0  0
  192.2800  168.9530  139.5550 O   0  0  0  0  0  1  0  0  0  0  0  0
  192.0300  170.8220  137.7530 O   0  0  0  0  0  1  0  0  0  0  0  0
  192.9140  169.4880  138.3050 P   0  0  0  0  0  0  0  0  0  0  0  0
  192.9700  168.1710  137.2050 O   0  0  0  0  0  0  0  0  0  0  0  0
  195.0770  170.9810  137.5230 C   0  0  2  0  0  3  0  0  0  0  0  0
  195.5360  170.1810  136.3110 C   0  0  0  0  0  1  0  0  0  0  0  0
  196.0510  172.0960  137.8480 C   0  0  0  0  0  2  0  0  0  0  0  0
  193.7700  173.5170  137.5620 O   0  0  0  0  0  0  0  0  0  0  0  0
  195.7420  174.6840  138.4840 O   0  0  0  0  0  0  0  0  0  0  0  0
  195.6750  174.2280  135.9630 F   0  0  0  0  0  0  0  0  0  0  0  0
  195.2690  173.6780  137.4920 S   0  0  0  0  0  0  0  0  0  0  0  0
  186.4150  174.5490  143.0980 O   0  0  0  0  0  1  0  0  0  0  0  0
  187.7820  174.8730  142.9210 C   0  0  1  0  0  3  0  0  0  0  0  0
  188.1750  175.0260  141.3990 C   0  0  2  0  0  3  0  0  0  0  0  0
  190.9420  173.7960  139.3870 O   0  0  0  0  0  1  0  0  0  0  0  0
  189.6550  173.6030  139.9150 C   0  0  2  0  0  3  0  0  0  0  0  0
  189.5550  174.2650  141.1860 C   0  0  1  0  0  0  0  0  0  0  0  0
  190.6920  174.8580  141.7550 O   0  0  0  0  0  1  0  0  0  0  0  0
  189.6720  172.3840  141.3090 P   0  0  2  0  0  0  0  0  0  0  0  0
  191.0720  171.8560  141.5000 O   0  0  0  0  0  0  0  0  0  0  0  0
  188.7460  172.1580  142.7250 O   0  0  0  0  0  1  0  0  0  0  0  0
  188.2860  176.4850  140.8550 C   0  0  0  0  0  2  0  0  0  0  0  0
  186.9860  177.1280  140.2500 C   0  0  2  0  0  0  0  0  0  0  0  0
  186.7400  178.4770  140.6260 O   0  0  0  0  0  0  0  0  0  0  0  0
  185.9970  177.4870  141.3000 C   0  0  0  0  0  2  0  0  0  0  0  0
  186.1890  176.4210  138.7470 S   0  0  0  0  0  0  0  0  0  0  0  0
  187.5350  175.9880  137.5860 C   0  0  1  0  0  3  0  0  0  0  0  0
  187.6830  174.4860  137.6850 C   0  0  0  0  0  1  0  0  0  0  0  0
  187.0790  176.3070  136.1490 C   0  0  0  0  0  2  0  0  0  0  0  0
  187.5920  177.5470  135.7760 O   0  0  0  0  0  0  0  0  0  0  0  0
  188.2760  177.1830  134.5840 C   0  0  0  0  0  2  0  0  0  0  0  0
  190.4080  176.6660  134.5150 C   0  0  0  0  0  1  0  0  0  0  0  0
  189.5710  177.7410  134.5290 O   0  0  0  0  0  0  0  0  0  0  0  0
  187.0250  177.8410  146.9810 C   0  0  0  0  0  2  0  0  0  0  0  0
  186.0000  178.9400  146.6520 C   0  0  0  0  0  2  0  0  0  0  0  0
  184.6380  178.5070  146.8000 O   0  0  0  0  0  0  0  0  0  0  0  0
  185.1010  179.5620  144.7230 C   0  0  0  0  0  1  0  0  0  0  0  0
  184.1290  178.6790  145.5100 C   0  0  0  0  0  2  0  0  0  0  0  0
  2  1  1  1  0  0  0
  2  9  1  0  0  0  0
  2 15  1  0  0  0  0
  3  9  1  0  0  0  0
  3  5  1  0  0  0  0
  4  7  1  1  0  0  0
  4  6  1  0  0  0  0
  5  6  1  0  0  0  0
  6 65  1  1  0  0  0
  8 44  1  6  0  0  0
  8  4  1  0  0  0  0
  8  1  1  0  0  0  0
 10 11  1  6  0  0  0
 10 13  1  0  0  0  0
 13 12  1  0  0  0  0
 14 10  1  0  0  0  0
 14 15  1  0  0  0  0
 15 12  1  1  0  0  0
 16 19  1  0  0  0  0
 17 22  2  0  0  0  0
 18 20  1  0  0  0  0
 18 17  1  0  0  0  0
 21 20  1  6  0  0  0
 21 10  1  0  0  0  0
 21 16  1  0  0  0  0
 22 19  1  0  0  0  0
 23 17  1  0  0  0  0
 24 25  2  0  0  0  0
 27 31  1  6  0  0  0
 27 30  1  0  0  0  0
 27 28  1  0  0  0  0
 28 24  1  0  0  0  0
 29 26  1  6  0  0  0
 29 24  1  0  0  0  0
 29 23  1  0  0  0  0
 30 29  1  0  0  0  0
 31 34  1  6  0  0  0
 33 34  1  0  0  0  0
 34 32  1  0  0  0  0
 35 34  2  0  0  0  0
 36 37  1  6  0  0  0
 36 38  1  0  0  0  0
 36 31  1  0  0  0  0
 41 42  1  0  0  0  0
 42 39  2  0  0  0  0
 42 38  1  0  0  0  0
 42 40  2  0  0  0  0
 44 43  1  6  0  0  0
 45 53  1  1  0  0  0
 45 44  1  0  0  0  0
 47 46  1  1  0  0  0
 47 48  1  0  0  0  0
 47 50  1  0  0  0  0
 48 50  1  0  0  0  0
 48 45  1  0  0  0  0
 48 49  1  1  0  0  0
 50 51  2  1  0  0  0
 50 52  1  0  0  0  0
 54 55  1  0  0  0  0
 54 53  1  1  0  0  0
 54 56  1  0  0  0  0
 55 56  1  0  0  0  0
 57 54  1  0  0  0  0
 58 59  1  6  0  0  0
 58 57  1  0  0  0  0
 60 58  1  0  0  0  0
 61 60  1  0  0  0  0
 62 61  1  0  0  0  0
 63 64  1  0  0  0  0
 64 62  1  0  0  0  0
 66 67  1  0  0  0  0
 66 65  1  0  0  0  0
 68 69  1  0  0  0  0
 69 67  1  0  0  0  0
M  END
>  <MODEL>
5

>  <REMARK>
 VINA RESULT:      -3.9      3.350      9.777
  Name = 
  24 active torsions:
  status: ('A' for Active; 'I' for Inactive)
    1  A    between atoms: C_3  and  C_11
    2  A    between atoms: C_3  and  O_48
    3  A    between atoms: C_5  and  C_60
    4  A    between atoms: C_5  and  S_67
    5  A    between atoms: C_8  and  C_49
    6  A    between atoms: C_9  and  C_14
    7  A    between atoms: C_9  and  S_67
    8  A    between atoms: C_11  and  C_39
    9  A    between atoms: C_13  and  C_21
   10  A    between atoms: C_13  and  C_29
   11  A    between atoms: C_13  and  C_60
   12  A    between atoms: C_14  and  O_16
   13  A    between atoms: O_16  and  C_46
   14  A    between atoms: C_21  and  C_65
   15  A    between atoms: C_22  and  C_58
   16  A    between atoms: C_25  and  C_30
   17  A    between atoms: C_25  and  S_59
   18  A    between atoms: C_26  and  C_62
   19  A    between atoms: C_30  and  C_33
   20  A    between atoms: C_33  and  P_36
   21  A    between atoms: C_33  and  C_50
   22  A    between atoms: C_35  and  O_48
   23  A    between atoms: C_46  and  O_61
   24  A    between atoms: C_62  and  C_63
                            x       y       z     vdW  Elec       q    Type
                         _______ _______ _______ _____ _____    ______ ____

>  <TORSDO>
F 24

$$$$
=
 OpenBabel11062418393D

 69 74  0  0  1  0  0  0  0  0999 V2000
  189.5840  174.8020  144.8520 C   0  0  0  0  0  2  0  0  0  0  0  0
  190.9180  175.4470  145.2590 C   0  0  1  0  0  3  0  0  0  0  0  0
  190.3290  177.8940  144.9310 C   0  0  0  0  0  2  0  0  0  0  0  0
  187.6030  176.4810  144.9450 C   0  0  2  0  0  3  0  0  0  0  0  0
  189.2610  178.3030  145.9260 C   0  0  0  0  0  2  0  0  0  0  0  0
  188.2690  177.1170  146.1740 C   0  0  1  0  0  3  0  0  0  0  0  0
  186.5660  175.6120  145.3820 O   0  0  0  0  0  1  0  0  0  0  0  0
  188.6540  175.7100  144.0940 C   0  0  2  0  0  3  0  0  0  0  0  0
  191.1700  176.7730  145.4510 C   0  0  0  0  0  2  0  0  0  0  0  0
  193.9480  174.6240  144.7530 C   0  0  1  0  0  0  0  0  0  0  0  0
  193.9860  175.6800  143.8480 F   0  0  0  0  0  0  0  0  0  0  0  0
  192.8260  174.9460  146.8470 C   0  0  0  0  0  2  0  0  0  0  0  0
  194.1050  175.2350  146.1410 C   0  0  0  0  0  2  0  0  0  0  0  0
  192.7090  173.9640  144.6760 O   0  0  0  0  0  0  0  0  0  0  0  0
  191.9200  174.4240  145.7590 C   0  0  2  0  0  3  0  0  0  0  0  0
  194.8210  172.3050  145.1580 C   0  0  0  0  0  2  0  0  0  0  0  0
  196.6110  171.2330  143.0230 C   0  0  0  0  0  0  0  0  0  0  0  0
  196.5730  172.7380  142.7010 C   0  0  0  0  0  2  0  0  0  0  0  0
  196.1140  171.6000  145.3530 C   0  0  0  0  0  2  0  0  0  0  0  0
  195.2110  173.4000  142.9980 C   0  0  0  0  0  2  0  0  0  0  0  0
  195.1070  173.6360  144.4860 C   0  0  1  0  0  3  0  0  0  0  0  0
  196.4870  170.8000  144.2270 N   0  0  0  0  0  0  0  0  0  0  0  0
  197.0630  170.2960  141.9660 C   0  0  0  0  0  2  0  0  0  0  0  0
  194.7460  170.2980  140.7270 C   0  0  0  0  0  0  0  0  0  0  0  0
  193.9440  169.8190  141.5780 O   0  0  0  0  0  0  0  0  0  0  0  0
  196.4910  168.7350  140.3000 O   0  0  0  0  0  1  0  0  0  0  0  0
  195.6480  171.6160  139.0680 C   0  0  1  0  0  3  0  0  0  0  0  0
  194.3970  171.2610  139.7810 N   0  0  0  0  0  2  0  0  0  0  0  0
  196.2360  170.0620  140.6970 C   0  0  2  0  0  0  0  0  0  0  0  0
  196.7480  170.9730  139.7160 O   0  0  0  0  0  0  0  0  0  0  0  0
  195.6580  171.1210  137.5950 C   0  0  1  0  0  3  0  0  0  0  0  0
  193.3410  172.1720  136.6850 O   0  0  0  0  0  1  0  0  0  0  0  0
  194.3490  170.2150  135.2870 O   0  0  0  0  0  0  0  0  0  0  0  0
  194.0340  170.8490  136.8240 P   0  0  0  0  0  0  0  0  0  0  0  0
  193.0010  169.8780  137.7930 O   0  0  0  0  0  1  0  0  0  0  0  0
  196.5040  172.0270  136.6540 C   0  0  2  0  0  3  0  0  0  0  0  0
  197.2690  171.2800  135.5690 C   0  0  0  0  0  1  0  0  0  0  0  0
  197.3720  173.0790  137.3150 C   0  0  0  0  0  2  0  0  0  0  0  0
  195.6360  175.1240  137.6400 O   0  0  0  0  0  0  0  0  0  0  0  0
  197.9390  175.6750  136.9410 O   0  0  0  0  0  0  0  0  0  0  0  0
  196.3410  174.7070  135.1870 F   0  0  0  0  0  0  0  0  0  0  0  0
  196.8140  174.7100  136.7930 S   0  0  0  0  0  0  0  0  0  0  0  0
  186.7010  174.3340  143.2550 O   0  0  0  0  0  1  0  0  0  0  0  0
  188.0320  174.7650  143.0340 C   0  0  1  0  0  3  0  0  0  0  0  0
  188.3140  175.1020  141.5170 C   0  0  2  0  0  3  0  0  0  0  0  0
  190.6810  173.8380  139.0640 O   0  0  0  0  0  1  0  0  0  0  0  0
  189.4300  173.7410  139.6950 C   0  0  2  0  0  3  0  0  0  0  0  0
  189.5400  174.2030  141.0510 C   0  0  1  0  0  0  0  0  0  0  0  0
  190.7990  174.5410  141.5730 O   0  0  0  0  0  1  0  0  0  0  0  0
  189.3830  172.3280  140.8920 P   0  0  2  0  0  0  0  0  0  0  0  0
  190.6990  171.5920  140.8540 O   0  0  0  0  0  0  0  0  0  0  0  0
  188.5600  172.0120  142.3530 O   0  0  0  0  0  1  0  0  0  0  0  0
  188.5980  176.6000  141.1810 C   0  0  0  0  0  2  0  0  0  0  0  0
  187.4730  177.6410  141.5270 C   0  0  2  0  0  0  0  0  0  0  0  0
  187.6790  178.9530  141.0210 O   0  0  0  0  0  0  0  0  0  0  0  0
  187.9760  178.7480  142.3830 C   0  0  0  0  0  2  0  0  0  0  0  0
  185.7860  177.0870  142.0170 S   0  0  0  0  0  0  0  0  0  0  0  0
  184.6140  178.3520  141.4080 C   0  0  1  0  0  3  0  0  0  0  0  0
  184.2430  177.9150  140.0080 C   0  0  0  0  0  1  0  0  0  0  0  0
  183.3280  178.2950  142.2580 C   0  0  0  0  0  2  0  0  0  0  0  0
  182.2270  178.2280  141.4080 O   0  0  0  0  0  0  0  0  0  0  0  0
  181.2970  179.0100  142.1460 C   0  0  0  0  0  2  0  0  0  0  0  0
  179.8470  178.7620  140.5170 C   0  0  0  0  0  1  0  0  0  0  0  0
  180.4170  179.7190  141.3010 O   0  0  0  0  0  0  0  0  0  0  0  0
  187.2820  177.4480  147.2880 C   0  0  0  0  0  2  0  0  0  0  0  0
  186.3210  178.6300  147.0740 C   0  0  0  0  0  2  0  0  0  0  0  0
  184.9400  178.2770  147.2580 O   0  0  0  0  0  0  0  0  0  0  0  0
  185.1790  179.3960  145.1760 C   0  0  0  0  0  1  0  0  0  0  0  0
  184.4520  178.2920  145.9480 C   0  0  0  0  0  2  0  0  0  0  0  0
  2  1  1  1  0  0  0
  2  9  1  0  0  0  0
  2 15  1  0  0  0  0
  3  9  1  0  0  0  0
  3  5  1  0  0  0  0
  4  7  1  1  0  0  0
  4  6  1  0  0  0  0
  5  6  1  0  0  0  0
  6 65  1  1  0  0  0
  8 44  1  6  0  0  0
  8  1  1  0  0  0  0
  8  4  1  0  0  0  0
 10 11  1  6  0  0  0
 10 13  1  0  0  0  0
 13 12  1  0  0  0  0
 14 10  1  0  0  0  0
 14 15  1  0  0  0  0
 15 12  1  1  0  0  0
 16 19  1  0  0  0  0
 17 22  2  0  0  0  0
 18 20  1  0  0  0  0
 18 17  1  0  0  0  0
 21 20  1  6  0  0  0
 21 10  1  0  0  0  0
 21 16  1  0  0  0  0
 22 19  1  0  0  0  0
 23 17  1  0  0  0  0
 24 25  2  0  0  0  0
 27 31  1  6  0  0  0
 27 30  1  0  0  0  0
 27 28  1  0  0  0  0
 28 24  1  0  0  0  0
 29 26  1  6  0  0  0
 29 24  1  0  0  0  0
 29 23  1  0  0  0  0
 30 29  1  0  0  0  0
 31 34  1  6  0  0  0
 32 34  1  0  0  0  0
 33 34  2  0  0  0  0
 34 35  1  0  0  0  0
 36 37  1  1  0  0  0
 36 38  1  0  0  0  0
 36 31  1  0  0  0  0
 41 42  1  0  0  0  0
 42 40  2  0  0  0  0
 42 38  1  0  0  0  0
 42 39  2  0  0  0  0
 44 43  1  6  0  0  0
 45 53  1  1  0  0  0
 45 44  1  0  0  0  0
 47 46  1  6  0  0  0
 47 50  1  0  0  0  0
 47 48  1  0  0  0  0
 48 45  1  0  0  0  0
 48 49  1  1  0  0  0
 50 51  2  1  0  0  0
 50 48  1  0  0  0  0
 50 52  1  0  0  0  0
 54 53  1  6  0  0  0
 54 57  1  0  0  0  0
 54 56  1  0  0  0  0
 55 54  1  0  0  0  0
 55 56  1  0  0  0  0
 58 59  1  6  0  0  0
 58 57  1  0  0  0  0
 58 60  1  0  0  0  0
 61 62  1  0  0  0  0
 61 60  1  0  0  0  0
 63 64  1  0  0  0  0
 64 62  1  0  0  0  0
 66 67  1  0  0  0  0
 66 65  1  0  0  0  0
 68 69  1  0  0  0  0
 69 67  1  0  0  0  0
M  END
>  <MODEL>
6

>  <REMARK>
 VINA RESULT:      -3.8      3.410     10.491
  Name = 
  24 active torsions:
  status: ('A' for Active; 'I' for Inactive)
    1  A    between atoms: C_3  and  C_11
    2  A    between atoms: C_3  and  O_48
    3  A    between atoms: C_5  and  C_60
    4  A    between atoms: C_5  and  S_67
    5  A    between atoms: C_8  and  C_49
    6  A    between atoms: C_9  and  C_14
    7  A    between atoms: C_9  and  S_67
    8  A    between atoms: C_11  and  C_39
    9  A    between atoms: C_13  and  C_21
   10  A    between atoms: C_13  and  C_29
   11  A    between atoms: C_13  and  C_60
   12  A    between atoms: C_14  and  O_16
   13  A    between atoms: O_16  and  C_46
   14  A    between atoms: C_21  and  C_65
   15  A    between atoms: C_22  and  C_58
   16  A    between atoms: C_25  and  C_30
   17  A    between atoms: C_25  and  S_59
   18  A    between atoms: C_26  and  C_62
   19  A    between atoms: C_30  and  C_33
   20  A    between atoms: C_33  and  P_36
   21  A    between atoms: C_33  and  C_50
   22  A    between atoms: C_35  and  O_48
   23  A    between atoms: C_46  and  O_61
   24  A    between atoms: C_62  and  C_63
                            x       y       z     vdW  Elec       q    Type
                         _______ _______ _______ _____ _____    ______ ____

>  <TORSDO>
F 24

$$$$
=
 OpenBabel11062418393D

 69 74  0  0  1  0  0  0  0  0999 V2000
  193.8670  172.0430  141.6590 C   0  0  0  0  0  2  0  0  0  0  0  0
  192.3680  172.1790  141.9740 C   0  0  1  0  0  3  0  0  0  0  0  0
  191.6130  169.8020  141.5000 C   0  0  0  0  0  2  0  0  0  0  0  0
  194.6680  169.5720  141.7070 C   0  0  2  0  0  3  0  0  0  0  0  0
  192.2420  168.8540  142.5020 C   0  0  0  0  0  2  0  0  0  0  0  0
  193.6890  169.3320  142.8660 C   0  0  1  0  0  3  0  0  0  0  0  0
  195.9750  169.7490  142.2390 O   0  0  0  0  0  1  0  0  0  0  0  0
  194.2330  170.8130  140.8750 C   0  0  2  0  0  3  0  0  0  0  0  0
  191.4490  171.1760  142.0650 C   0  0  0  0  0  2  0  0  0  0  0  0
  192.0540  173.6480  144.7780 C   0  0  1  0  0  0  0  0  0  0  0  0
  192.4280  172.4360  145.3490 F   0  0  0  0  0  0  0  0  0  0  0  0
  193.2210  174.4050  142.8260 C   0  0  0  0  0  2  0  0  0  0  0  0
  193.3380  174.3220  144.3080 C   0  0  0  0  0  2  0  0  0  0  0  0
  191.2180  173.4230  143.6700 O   0  0  0  0  0  0  0  0  0  0  0  0
  192.0170  173.5540  142.5070 C   0  0  2  0  0  3  0  0  0  0  0  0
  191.8350  175.9760  145.6890 C   0  0  0  0  0  2  0  0  0  0  0  0
  189.1760  176.6270  146.8790 C   0  0  0  0  0  0  0  0  0  0  0  0
  189.1310  175.0910  146.7840 C   0  0  0  0  0  2  0  0  0  0  0  0
  191.5830  176.6680  146.9800 C   0  0  0  0  0  2  0  0  0  0  0  0
  189.8610  174.5260  145.5480 C   0  0  0  0  0  2  0  0  0  0  0  0
  191.3470  174.5440  145.8190 C   0  0  1  0  0  3  0  0  0  0  0  0
  190.2810  177.2580  147.0510 N   0  0  0  0  0  0  0  0  0  0  0  0
  187.8970  177.3610  147.0410 C   0  0  0  0  0  2  0  0  0  0  0  0
  185.8030  178.5400  145.9800 C   0  0  0  0  0  0  0  0  0  0  0  0
  184.9870  178.6370  146.9400 O   0  0  0  0  0  0  0  0  0  0  0  0
  186.3690  176.2530  145.6340 O   0  0  0  0  0  1  0  0  0  0  0  0
  187.0450  179.0340  144.1060 C   0  0  1  0  0  3  0  0  0  0  0  0
  185.9030  179.4700  144.9450 N   0  0  0  0  0  2  0  0  0  0  0  0
  186.9170  177.5290  145.8750 C   0  0  2  0  0  0  0  0  0  0  0  0
  187.7040  177.9430  144.7510 O   0  0  0  0  0  0  0  0  0  0  0  0
  186.5990  178.5130  142.7120 C   0  0  1  0  0  3  0  0  0  0  0  0
  189.1290  178.6640  141.7750 O   0  0  0  0  0  1  0  0  0  0  0  0
  188.2280  176.2700  142.2870 O   0  0  0  0  0  1  0  0  0  0  0  0
  187.9030  177.8080  141.6580 P   0  0  0  0  0  0  0  0  0  0  0  0
  187.4800  177.8180  139.9940 O   0  0  0  0  0  0  0  0  0  0  0  0
  185.4250  177.4930  142.7900 C   0  0  2  0  0  3  0  0  0  0  0  0
  185.7180  176.1350  142.1660 C   0  0  0  0  0  1  0  0  0  0  0  0
  184.0530  177.9970  142.3920 C   0  0  0  0  0  2  0  0  0  0  0  0
  184.9160  177.1650  139.9700 O   0  0  0  0  0  0  0  0  0  0  0  0
  182.5890  177.9730  140.1440 O   0  0  0  0  0  0  0  0  0  0  0  0
  184.4740  179.7090  140.1260 F   0  0  0  0  0  0  0  0  0  0  0  0
  183.9910  178.1770  140.6010 S   0  0  0  0  0  0  0  0  0  0  0  0
  196.4480  170.4960  139.6890 O   0  0  0  0  0  1  0  0  0  0  0  0
  195.3260  171.3320  139.9050 C   0  0  1  0  0  3  0  0  0  0  0  0
  194.8330  172.0360  138.5790 C   0  0  2  0  0  3  0  0  0  0  0  0
  195.3200  175.4050  137.3020 O   0  0  0  0  0  1  0  0  0  0  0  0
  195.8610  174.1550  137.6450 C   0  0  2  0  0  3  0  0  0  0  0  0
  195.1140  173.5940  138.7360 C   0  0  1  0  0  0  0  0  0  0  0  0
  194.1100  174.3520  139.3580 O   0  0  0  0  0  1  0  0  0  0  0  0
  196.8180  174.2430  139.2270 P   0  0  2  0  0  0  0  0  0  0  0  0
  196.8230  175.6630  139.7360 O   0  0  0  0  0  0  0  0  0  0  0  0
  197.1570  173.1500  140.4940 O   0  0  0  0  0  1  0  0  0  0  0  0
  193.3400  171.8050  138.1850 C   0  0  0  0  0  2  0  0  0  0  0  0
  193.0300  171.5380  136.6670 C   0  0  2  0  0  0  0  0  0  0  0  0
  193.9950  172.0360  135.7500 O   0  0  0  0  0  0  0  0  0  0  0  0
  192.8210  172.7980  135.9070 C   0  0  0  0  0  2  0  0  0  0  0  0
  191.8610  170.2090  136.1580 S   0  0  0  0  0  0  0  0  0  0  0  0
  190.4190  170.3120  137.2790 C   0  0  1  0  0  3  0  0  0  0  0  0
  190.4520  169.0390  138.0950 C   0  0  0  0  0  1  0  0  0  0  0  0
  190.6280  171.4860  138.2570 C   0  0  0  0  0  2  0  0  0  0  0  0
  189.5340  172.3440  138.1740 O   0  0  0  0  0  0  0  0  0  0  0  0
  188.8600  172.0040  139.3780 C   0  0  0  0  0  2  0  0  0  0  0  0
  188.5430  174.1660  139.1770 C   0  0  0  0  0  1  0  0  0  0  0  0
  188.1140  173.0870  139.8890 O   0  0  0  0  0  0  0  0  0  0  0  0
  194.2810  168.4880  143.9880 C   0  0  0  0  0  2  0  0  0  0  0  0
  194.2290  169.0500  145.4200 C   0  0  0  0  0  2  0  0  0  0  0  0
  194.7690  170.3780  145.5250 O   0  0  0  0  0  0  0  0  0  0  0  0
  196.8080  171.4520  146.1010 C   0  0  0  0  0  1  0  0  0  0  0  0
  196.1290  170.1310  145.7310 C   0  0  0  0  0  2  0  0  0  0  0  0
  2  1  1  1  0  0  0
  2  9  1  0  0  0  0
  2 15  1  0  0  0  0
  3  9  1  0  0  0  0
  3  5  1  0  0  0  0
  4  7  1  1  0  0  0
  4  6  1  0  0  0  0
  5  6  1  0  0  0  0
  6 65  1  1  0  0  0
  8 44  1  6  0  0  0
  8  1  1  0  0  0  0
  8  4  1  0  0  0  0
 10 11  1  1  0  0  0
 10 21  1  0  0  0  0
 12 13  1  0  0  0  0
 13 10  1  0  0  0  0
 14 10  1  0  0  0  0
 15 12  1  1  0  0  0
 15 14  1  0  0  0  0
 16 21  1  0  0  0  0
 16 19  1  0  0  0  0
 17 23  1  0  0  0  0
 17 22  2  0  0  0  0
 18 17  1  0  0  0  0
 19 22  1  0  0  0  0
 20 18  1  0  0  0  0
 21 20  1  6  0  0  0
 24 25  2  0  0  0  0
 27 31  1  6  0  0  0
 27 30  1  0  0  0  0
 27 28  1  0  0  0  0
 28 24  1  0  0  0  0
 29 26  1  6  0  0  0
 29 24  1  0  0  0  0
 29 23  1  0  0  0  0
 30 29  1  0  0  0  0
 31 34  1  1  0  0  0
 31 36  1  0  0  0  0
 34 32  1  0  0  0  0
 34 33  1  0  0  0  0
 35 34  2  0  0  0  0
 36 37  1  6  0  0  0
 38 36  1  0  0  0  0
 39 42  2  0  0  0  0
 40 42  2  0  0  0  0
 41 42  1  0  0  0  0
 42 38  1  0  0  0  0
 44 43  1  6  0  0  0
 45 53  1  1  0  0  0
 45 48  1  0  0  0  0
 45 44  1  0  0  0  0
 47 46  1  1  0  0  0
 47 48  1  0  0  0  0
 47 50  1  0  0  0  0
 48 50  1  0  0  0  0
 48 49  1  1  0  0  0
 50 51  2  1  0  0  0
 50 52  1  0  0  0  0
 54 53  1  1  0  0  0
 55 56  1  0  0  0  0
 55 54  1  0  0  0  0
 56 54  1  0  0  0  0
 57 54  1  0  0  0  0
 57 58  1  0  0  0  0
 58 59  1  1  0  0  0
 58 60  1  0  0  0  0
 61 60  1  0  0  0  0
 61 62  1  0  0  0  0
 62 64  1  0  0  0  0
 63 64  1  0  0  0  0
 65 66  1  0  0  0  0
 66 67  1  0  0  0  0
 67 69  1  0  0  0  0
 69 68  1  0  0  0  0
M  END
>  <MODEL>
7

>  <REMARK>
 VINA RESULT:      -3.6      1.922      2.768
  Name = 
  24 active torsions:
  status: ('A' for Active; 'I' for Inactive)
    1  A    between atoms: C_3  and  C_11
    2  A    between atoms: C_3  and  O_48
    3  A    between atoms: C_5  and  C_60
    4  A    between atoms: C_5  and  S_67
    5  A    between atoms: C_8  and  C_49
    6  A    between atoms: C_9  and  C_14
    7  A    between atoms: C_9  and  S_67
    8  A    between atoms: C_11  and  C_39
    9  A    between atoms: C_13  and  C_21
   10  A    between atoms: C_13  and  C_29
   11  A    between atoms: C_13  and  C_60
   12  A    between atoms: C_14  and  O_16
   13  A    between atoms: O_16  and  C_46
   14  A    between atoms: C_21  and  C_65
   15  A    between atoms: C_22  and  C_58
   16  A    between atoms: C_25  and  C_30
   17  A    between atoms: C_25  and  S_59
   18  A    between atoms: C_26  and  C_62
   19  A    between atoms: C_30  and  C_33
   20  A    between atoms: C_33  and  P_36
   21  A    between atoms: C_33  and  C_50
   22  A    between atoms: C_35  and  O_48
   23  A    between atoms: C_46  and  O_61
   24  A    between atoms: C_62  and  C_63
                            x       y       z     vdW  Elec       q    Type
                         _______ _______ _______ _____ _____    ______ ____

>  <TORSDO>
F 24

$$$$
=
 OpenBabel11062418393D

 69 74  0  0  1  0  0  0  0  0999 V2000
  192.4040  171.5100  141.7480 C   0  0  0  0  0  2  0  0  0  0  0  0
  193.1430  171.5050  140.4000 C   0  0  1  0  0  3  0  0  0  0  0  0
  195.5170  171.8930  141.2120 C   0  0  0  0  0  2  0  0  0  0  0  0
  193.9990  171.0770  143.7530 C   0  0  2  0  0  3  0  0  0  0  0  0
  195.9800  170.7040  142.0300 C   0  0  0  0  0  2  0  0  0  0  0  0
  194.7850  170.1130  142.8520 C   0  0  1  0  0  3  0  0  0  0  0  0
  193.1360  170.3220  144.5930 O   0  0  0  0  0  1  0  0  0  0  0  0
  193.1900  172.0910  142.8920 C   0  0  2  0  0  3  0  0  0  0  0  0
  194.4910  171.5010  140.1970 C   0  0  0  0  0  2  0  0  0  0  0  0
  192.5690  172.5270  137.4430 C   0  0  1  0  0  0  0  0  0  0  0  0
  193.6040  173.4330  137.6550 F   0  0  0  0  0  0  0  0  0  0  0  0
  192.8400  170.2720  138.2100 C   0  0  0  0  0  2  0  0  0  0  0  0
  193.2210  171.1930  137.1020 C   0  0  0  0  0  2  0  0  0  0  0  0
  191.8050  172.3830  138.6160 O   0  0  0  0  0  0  0  0  0  0  0  0
  192.2200  171.1810  139.2410 C   0  0  2  0  0  3  0  0  0  0  0  0
  190.4600  172.0850  136.1550 C   0  0  0  0  0  2  0  0  0  0  0  0
  189.2290  174.4850  134.8770 C   0  0  0  0  0  0  0  0  0  0  0  0
  190.6420  174.9830  135.2270 C   0  0  0  0  0  2  0  0  0  0  0  0
  189.9400  172.1850  134.7670 C   0  0  0  0  0  2  0  0  0  0  0  0
  191.1990  174.3930  136.5390 C   0  0  0  0  0  2  0  0  0  0  0  0
  191.6770  172.9870  136.2680 C   0  0  1  0  0  3  0  0  0  0  0  0
  189.0000  173.2510  134.6000 N   0  0  0  0  0  0  0  0  0  0  0  0
  188.1750  175.4910  134.5950 C   0  0  0  0  0  2  0  0  0  0  0  0
  186.0220  176.4250  135.7740 C   0  0  0  0  0  0  0  0  0  0  0  0
  185.2790  176.7810  134.8170 O   0  0  0  0  0  0  0  0  0  0  0  0
  188.0960  177.5900  135.6570 O   0  0  0  0  0  1  0  0  0  0  0  0
  186.7430  175.5340  137.7710 C   0  0  1  0  0  3  0  0  0  0  0  0
  185.5470  175.9240  136.9860 N   0  0  0  0  0  2  0  0  0  0  0  0
  187.5240  176.3040  135.7190 C   0  0  2  0  0  0  0  0  0  0  0  0
  187.9010  175.6610  136.9430 O   0  0  0  0  0  0  0  0  0  0  0  0
  186.9800  176.4560  138.9990 C   0  0  1  0  0  3  0  0  0  0  0  0
  185.7130  178.8090  139.4010 O   0  0  0  0  0  1  0  0  0  0  0  0
  184.2090  176.7890  138.7250 O   0  0  0  0  0  0  0  0  0  0  0  0
  185.5240  177.3400  139.6370 P   0  0  0  0  0  0  0  0  0  0  0  0
  185.3360  177.1570  141.3340 O   0  0  0  0  0  1  0  0  0  0  0  0
  187.6700  175.7230  140.1860 C   0  0  2  0  0  3  0  0  0  0  0  0
  188.3480  176.6420  141.1950 C   0  0  0  0  0  1  0  0  0  0  0  0
  188.5490  174.5380  139.8420 C   0  0  0  0  0  2  0  0  0  0  0  0
  187.3490  173.3640  141.9600 O   0  0  0  0  0  0  0  0  0  0  0  0
  189.1920  172.1410  140.8620 O   0  0  0  0  0  0  0  0  0  0  0  0
  189.7890  174.1060  142.3950 F   0  0  0  0  0  0  0  0  0  0  0  0
  188.6970  173.4790  141.2910 S   0  0  0  0  0  0  0  0  0  0  0  0
  191.3550  172.1470  144.6360 O   0  0  0  0  0  1  0  0  0  0  0  0
  192.1160  172.8750  143.6890 C   0  0  1  0  0  3  0  0  0  0  0  0
  192.5160  174.3120  144.2100 C   0  0  2  0  0  3  0  0  0  0  0  0
  195.7260  176.0170  144.2250 O   0  0  0  0  0  1  0  0  0  0  0  0
  194.3700  176.0020  143.8590 C   0  0  2  0  0  3  0  0  0  0  0  0
  193.9540  174.6470  143.6220 C   0  0  1  0  0  0  0  0  0  0  0  0
  194.9010  173.6110  143.6520 O   0  0  0  0  0  1  0  0  0  0  0  0
  194.1610  175.6720  142.0490 P   0  0  2  0  0  0  0  0  0  0  0  0
  195.5170  175.5520  141.3990 O   0  0  0  0  0  1  0  0  0  0  0  0
  192.9660  174.9200  141.0900 O   0  0  0  0  0  0  0  0  0  0  0  0
  192.5180  174.5110  145.7590 C   0  0  0  0  0  2  0  0  0  0  0  0
  191.3580  175.3760  146.3740 C   0  0  2  0  0  0  0  0  0  0  0  0
  191.7340  176.6720  146.8200 O   0  0  0  0  0  0  0  0  0  0  0  0
  191.5880  175.6810  147.8110 C   0  0  0  0  0  2  0  0  0  0  0  0
  189.5940  174.9920  146.0120 S   0  0  0  0  0  0  0  0  0  0  0  0
  188.7790  176.5770  145.6000 C   0  0  1  0  0  3  0  0  0  0  0  0
  187.8270  176.2580  144.4690 C   0  0  0  0  0  1  0  0  0  0  0  0
  187.9240  177.0280  146.8010 C   0  0  0  0  0  2  0  0  0  0  0  0
  186.5950  176.6850  146.5640 O   0  0  0  0  0  0  0  0  0  0  0  0
  185.9430  177.6170  147.4160 C   0  0  0  0  0  2  0  0  0  0  0  0
  185.1140  179.0400  145.9650 C   0  0  0  0  0  1  0  0  0  0  0  0
  186.0610  178.9400  146.9390 O   0  0  0  0  0  0  0  0  0  0  0  0
  195.1860  168.8230  143.5580 C   0  0  0  0  0  2  0  0  0  0  0  0
  196.6560  168.6600  143.9840 C   0  0  0  0  0  2  0  0  0  0  0  0
  196.8780  168.9490  145.3740 O   0  0  0  0  0  0  0  0  0  0  0  0
  196.7780  171.2180  146.0690 C   0  0  0  0  0  1  0  0  0  0  0  0
  197.5830  170.1530  145.3190 C   0  0  0  0  0  2  0  0  0  0  0  0
  1  8  1  0  0  0  0
  2  9  1  1  0  0  0
  2  1  1  0  0  0  0
  3  5  1  0  0  0  0
  4  7  1  6  0  0  0
  5  6  1  0  0  0  0
  6 65  1  1  0  0  0
  6  4  1  0  0  0  0
  8 44  1  1  0  0  0
  8  4  1  0  0  0  0
  9  3  1  0  0  0  0
 10 11  1  1  0  0  0
 10 14  1  0  0  0  0
 13 10  1  0  0  0  0
 13 12  1  0  0  0  0
 14 15  1  0  0  0  0
 15 12  1  6  0  0  0
 15  2  1  0  0  0  0
 17 18  1  0  0  0  0
 18 20  1  0  0  0  0
 19 16  1  0  0  0  0
 21 16  1  1  0  0  0
 21 20  1  0  0  0  0
 21 10  1  0  0  0  0
 22 19  1  0  0  0  0
 22 17  2  0  0  0  0
 23 17  1  0  0  0  0
 23 29  1  0  0  0  0
 24 28  1  0  0  0  0
 25 24  2  0  0  0  0
 27 31  1  1  0  0  0
 28 27  1  0  0  0  0
 29 26  1  6  0  0  0
 29 24  1  0  0  0  0
 29 30  1  0  0  0  0
 30 27  1  0  0  0  0
 31 34  1  1  0  0  0
 31 36  1  0  0  0  0
 32 34  1  0  0  0  0
 33 34  2  0  0  0  0
 34 35  1  0  0  0  0
 36 37  1  6  0  0  0
 38 36  1  0  0  0  0
 38 42  1  0  0  0  0
 40 42  2  0  0  0  0
 42 39  2  0  0  0  0
 42 41  1  0  0  0  0
 44 45  1  0  0  0  0
 44 43  1  1  0  0  0
 45 53  1  1  0  0  0
 47 46  1  6  0  0  0
 48 49  1  1  0  0  0
 48 47  1  0  0  0  0
 48 45  1  0  0  0  0
 50 52  2  6  0  0  0
 50 48  1  0  0  0  0
 50 47  1  0  0  0  0
 51 50  1  0  0  0  0
 54 53  1  6  0  0  0
 54 55  1  0  0  0  0
 54 56  1  0  0  0  0
 55 56  1  0  0  0  0
 57 54  1  0  0  0  0
 58 59  1  6  0  0  0
 58 57  1  0  0  0  0
 58 60  1  0  0  0  0
 61 60  1  0  0  0  0
 61 62  1  0  0  0  0
 63 64  1  0  0  0  0
 64 62  1  0  0  0  0
 65 66  1  0  0  0  0
 66 67  1  0  0  0  0
 69 67  1  0  0  0  0
 69 68  1  0  0  0  0
M  END
>  <MODEL>
8

>  <REMARK>
 VINA RESULT:      -3.4      3.375      8.204
  Name = 
  24 active torsions:
  status: ('A' for Active; 'I' for Inactive)
    1  A    between atoms: C_3  and  C_11
    2  A    between atoms: C_3  and  O_48
    3  A    between atoms: C_5  and  C_60
    4  A    between atoms: C_5  and  S_67
    5  A    between atoms: C_8  and  C_49
    6  A    between atoms: C_9  and  C_14
    7  A    between atoms: C_9  and  S_67
    8  A    between atoms: C_11  and  C_39
    9  A    between atoms: C_13  and  C_21
   10  A    between atoms: C_13  and  C_29
   11  A    between atoms: C_13  and  C_60
   12  A    between atoms: C_14  and  O_16
   13  A    between atoms: O_16  and  C_46
   14  A    between atoms: C_21  and  C_65
   15  A    between atoms: C_22  and  C_58
   16  A    between atoms: C_25  and  C_30
   17  A    between atoms: C_25  and  S_59
   18  A    between atoms: C_26  and  C_62
   19  A    between atoms: C_30  and  C_33
   20  A    between atoms: C_33  and  P_36
   21  A    between atoms: C_33  and  C_50
   22  A    between atoms: C_35  and  O_48
   23  A    between atoms: C_46  and  O_61
   24  A    between atoms: C_62  and  C_63
                            x       y       z     vdW  Elec       q    Type
                         _______ _______ _______ _____ _____    ______ ____

>  <TORSDO>
F 24

$$$$
=
 OpenBabel11062418393D

 69 74  0  0  1  0  0  0  0  0999 V2000
  194.1410  174.7020  138.1980 C   0  0  0  0  0  2  0  0  0  0  0  0
  195.4740  175.0050  138.9000 C   0  0  1  0  0  3  0  0  0  0  0  0
  197.0900  174.1700  137.1300 C   0  0  0  0  0  2  0  0  0  0  0  0
  194.4190  174.3990  135.6330 C   0  0  2  0  0  3  0  0  0  0  0  0
  196.9820  175.0320  135.8870 C   0  0  0  0  0  2  0  0  0  0  0  0
  195.4990  175.4900  135.6740 C   0  0  1  0  0  3  0  0  0  0  0  0
  193.1990  174.9750  135.1840 O   0  0  0  0  0  1  0  0  0  0  0  0
  194.2450  173.7510  137.0370 C   0  0  2  0  0  3  0  0  0  0  0  0
  196.7250  174.9300  138.3650 C   0  0  0  0  0  2  0  0  0  0  0  0
  195.3030  174.3220  142.0020 C   0  0  1  0  0  0  0  0  0  0  0  0
  195.5330  173.0010  141.6280 F   0  0  0  0  0  0  0  0  0  0  0  0
  196.5660  176.0540  140.9290 C   0  0  0  0  0  2  0  0  0  0  0  0
  196.6590  175.0170  141.9940 C   0  0  0  0  0  2  0  0  0  0  0  0
  194.4570  174.9480  141.0700 O   0  0  0  0  0  0  0  0  0  0  0  0
  195.2760  175.7290  140.2180 C   0  0  2  0  0  3  0  0  0  0  0  0
  195.7630  174.7590  144.4300 C   0  0  0  0  0  2  0  0  0  0  0  0
  193.4410  175.7950  145.9930 C   0  0  0  0  0  0  0  0  0  0  0  0
  192.7710  175.2690  144.7110 C   0  0  0  0  0  2  0  0  0  0  0  0
  195.3150  174.2960  145.7690 C   0  0  0  0  0  2  0  0  0  0  0  0
  193.6290  175.4580  143.4430 C   0  0  0  0  0  2  0  0  0  0  0  0
  194.6930  174.3870  143.4200 C   0  0  1  0  0  3  0  0  0  0  0  0
  194.5170  175.2660  146.4550 N   0  0  0  0  0  0  0  0  0  0  0  0
  192.6850  176.7450  146.8460 C   0  0  0  0  0  2  0  0  0  0  0  0
  190.4510  177.5870  147.9430 C   0  0  0  0  0  0  0  0  0  0  0  0
  190.7850  177.8890  149.1240 O   0  0  0  0  0  0  0  0  0  0  0  0
  190.9590  175.2980  147.5270 O   0  0  0  0  0  1  0  0  0  0  0  0
  189.4680  177.6500  145.8630 C   0  0  1  0  0  3  0  0  0  0  0  0
  189.4570  178.2450  147.2210 N   0  0  0  0  0  2  0  0  0  0  0  0
  191.1730  176.6070  147.0520 C   0  0  2  0  0  0  0  0  0  0  0  0
  190.5800  176.7600  145.7560 O   0  0  0  0  0  0  0  0  0  0  0  0
  188.1990  176.8020  145.5710 C   0  0  1  0  0  3  0  0  0  0  0  0
  187.0680  176.4940  148.0050 O   0  0  0  0  0  1  0  0  0  0  0  0
  186.6230  178.7660  146.8040 O   0  0  0  0  0  1  0  0  0  0  0  0
  186.7710  177.0860  146.6600 P   0  0  0  0  0  0  0  0  0  0  0  0
  185.3520  176.2950  146.1020 O   0  0  0  0  0  0  0  0  0  0  0  0
  187.7210  176.9100  144.0940 C   0  0  2  0  0  3  0  0  0  0  0  0
  186.8560  175.7490  143.6170 C   0  0  0  0  0  1  0  0  0  0  0  0
  188.7660  177.2770  143.0600 C   0  0  0  0  0  2  0  0  0  0  0  0
  189.2960  174.6410  143.3290 O   0  0  0  0  0  0  0  0  0  0  0  0
  188.6750  175.4640  141.0850 O   0  0  0  0  0  0  0  0  0  0  0  0
  191.0450  175.9410  141.9350 F   0  0  0  0  0  0  0  0  0  0  0  0
  189.4270  175.7670  142.3340 S   0  0  0  0  0  0  0  0  0  0  0  0
  192.0910  172.8450  136.0630 O   0  0  0  0  0  1  0  0  0  0  0  0
  192.9640  172.8890  137.1770 C   0  0  1  0  0  3  0  0  0  0  0  0
  193.1180  171.4830  137.8810 C   0  0  2  0  0  3  0  0  0  0  0  0
  190.7360  168.7370  137.9080 O   0  0  0  0  0  1  0  0  0  0  0  0
  192.0620  169.1820  137.7830 C   0  0  2  0  0  3  0  0  0  0  0  0
  192.0720  170.4960  137.2010 C   0  0  1  0  0  0  0  0  0  0  0  0
  190.8740  171.0680  136.7470 O   0  0  0  0  0  1  0  0  0  0  0  0
  192.6300  169.1300  136.0220 P   0  0  2  0  0  0  0  0  0  0  0  0
  191.5310  168.5680  135.1540 O   0  0  0  0  0  1  0  0  0  0  0  0
  193.7330  170.0330  135.0830 O   0  0  0  0  0  0  0  0  0  0  0  0
  192.9360  171.4600  139.4310 C   0  0  0  0  0  2  0  0  0  0  0  0
  191.5630  171.9680  140.0030 C   0  0  2  0  0  0  0  0  0  0  0  0
  190.7070  172.6010  139.0610 O   0  0  0  0  0  0  0  0  0  0  0  0
  191.4340  173.4470  139.9210 C   0  0  0  0  0  2  0  0  0  0  0  0
  190.8800  171.2890  141.5730 S   0  0  0  0  0  0  0  0  0  0  0  0
  192.2990  170.6660  142.5440 C   0  0  1  0  0  3  0  0  0  0  0  0
  191.9250  170.8910  143.9920 C   0  0  0  0  0  1  0  0  0  0  0  0
  192.4190  169.1430  142.3360 C   0  0  0  0  0  2  0  0  0  0  0  0
  193.7650  168.8100  142.2010 O   0  0  0  0  0  0  0  0  0  0  0  0
  194.3650  170.0230  142.6350 C   0  0  0  0  0  2  0  0  0  0  0  0
  195.7590  170.8660  144.1050 C   0  0  0  0  0  1  0  0  0  0  0  0
  195.6050  169.8000  143.2710 O   0  0  0  0  0  0  0  0  0  0  0  0
  195.3910  176.4860  134.5250 C   0  0  0  0  0  2  0  0  0  0  0  0
  195.9950  177.8870  134.7240 C   0  0  0  0  0  2  0  0  0  0  0  0
  195.2090  178.7240  135.5890 O   0  0  0  0  0  0  0  0  0  0  0  0
  194.7810  180.9330  134.8290 C   0  0  0  0  0  1  0  0  0  0  0  0
  194.4360  179.4490  134.6790 C   0  0  0  0  0  2  0  0  0  0  0  0
  2  1  1  6  0  0  0
  2 15  1  0  0  0  0
  3  9  1  0  0  0  0
  4  7  1  1  0  0  0
  4  6  1  0  0  0  0
  4  8  1  0  0  0  0
  5  3  1  0  0  0  0
  6 65  1  6  0  0  0
  6  5  1  0  0  0  0
  8 44  1  6  0  0  0
  8  1  1  0  0  0  0
  9  2  1  0  0  0  0
 10 11  1  6  0  0  0
 10 21  1  0  0  0  0
 12 13  1  0  0  0  0
 13 10  1  0  0  0  0
 14 10  1  0  0  0  0
 15 12  1  1  0  0  0
 15 14  1  0  0  0  0
 16 19  1  0  0  0  0
 17 22  2  0  0  0  0
 17 23  1  0  0  0  0
 18 17  1  0  0  0  0
 19 22  1  0  0  0  0
 20 18  1  0  0  0  0
 21 20  1  6  0  0  0
 21 16  1  0  0  0  0
 23 29  1  0  0  0  0
 24 25  2  0  0  0  0
 27 31  1  1  0  0  0
 27 28  1  0  0  0  0
 28 24  1  0  0  0  0
 29 26  1  1  0  0  0
 29 24  1  0  0  0  0
 30 27  1  0  0  0  0
 30 29  1  0  0  0  0
 31 34  1  1  0  0  0
 34 33  1  0  0  0  0
 34 32  1  0  0  0  0
 35 34  2  0  0  0  0
 36 37  1  6  0  0  0
 36 31  1  0  0  0  0
 38 36  1  0  0  0  0
 40 42  2  0  0  0  0
 41 42  1  0  0  0  0
 42 38  1  0  0  0  0
 42 39  2  0  0  0  0
 44 43  1  6  0  0  0
 44 45  1  0  0  0  0
 45 53  1  1  0  0  0
 47 46  1  6  0  0  0
 48 49  1  6  0  0  0
 48 47  1  0  0  0  0
 48 45  1  0  0  0  0
 50 52  2  6  0  0  0
 50 48  1  0  0  0  0
 50 47  1  0  0  0  0
 51 50  1  0  0  0  0
 54 53  1  6  0  0  0
 54 57  1  0  0  0  0
 55 56  1  0  0  0  0
 55 54  1  0  0  0  0
 56 54  1  0  0  0  0
 57 58  1  0  0  0  0
 58 59  1  1  0  0  0
 60 58  1  0  0  0  0
 61 60  1  0  0  0  0
 61 62  1  0  0  0  0
 62 64  1  0  0  0  0
 64 63  1  0  0  0  0
 65 66  1  0  0  0  0
 66 67  1  0  0  0  0
 69 68  1  0  0  0  0
 69 67  1  0  0  0  0
M  END
>  <MODEL>
9

>  <REMARK>
 VINA RESULT:      -3.4      2.805      6.119
  Name = 
  24 active torsions:
  status: ('A' for Active; 'I' for Inactive)
    1  A    between atoms: C_3  and  C_11
    2  A    between atoms: C_3  and  O_48
    3  A    between atoms: C_5  and  C_60
    4  A    between atoms: C_5  and  S_67
    5  A    between atoms: C_8  and  C_49
    6  A    between atoms: C_9  and  C_14
    7  A    between atoms: C_9  and  S_67
    8  A    between atoms: C_11  and  C_39
    9  A    between atoms: C_13  and  C_21
   10  A    between atoms: C_13  and  C_29
   11  A    between atoms: C_13  and  C_60
   12  A    between atoms: C_14  and  O_16
   13  A    between atoms: O_16  and  C_46
   14  A    between atoms: C_21  and  C_65
   15  A    between atoms: C_22  and  C_58
   16  A    between atoms: C_25  and  C_30
   17  A    between atoms: C_25  and  S_59
   18  A    between atoms: C_26  and  C_62
   19  A    between atoms: C_30  and  C_33
   20  A    between atoms: C_33  and  P_36
   21  A    between atoms: C_33  and  C_50
   22  A    between atoms: C_35  and  O_48
   23  A    between atoms: C_46  and  O_61
   24  A    between atoms: C_62  and  C_63
                            x       y       z     vdW  Elec       q    Type
                         _______ _______ _______ _____ _____    ______ ____

>  <TORSDO>
F 24

$$$$
