=
 OpenBabel11062423083D

 57 64  0  0  1  0  0  0  0  0999 V2000
  190.9840  173.1600  137.6860 C   0  0  0  0  0  2  0  0  0  0  0  0
  190.8350  172.4900  140.0660 N   0  0  2  0  0  0  0  0  0  0  0  0
  192.2070  171.9440  139.8770 C   0  0  2  0  0  3  0  0  0  0  0  0
  189.2790  171.4740  138.3590 C   0  0  0  0  0  1  0  0  0  0  0  0
  192.0410  172.0890  137.3660 C   0  0  2  0  0  3  0  0  0  0  0  0
  188.6730  173.9140  141.2650 C   0  0  1  0  0  3  0  0  0  0  0  0
  192.3800  171.1880  138.5630 C   0  0  0  0  0  2  0  0  0  0  0  0
  190.0480  171.7630  141.0700 C   0  0  0  0  0  2  0  0  0  0  0  0
  189.0480  173.8520  139.0630 C   0  0  0  0  0  2  0  0  0  0  0  0
  190.0520  172.7210  138.8190 C   0  0  2  0  0  0  0  0  0  0  0  0
  189.3270  172.7390  142.0000 C   0  0  0  0  0  2  0  0  0  0  0  0
  188.1120  173.4970  140.0500 O   0  0  0  0  0  0  0  0  0  0  0  0
  186.3710  176.0710  143.1700 C   0  0  0  0  0  3  0  0  0  0  0  0
  185.8720  177.2970  143.5910 C   0  0  1  0  0  3  0  0  0  0  0  0
  187.3720  178.9250  142.3960 C   0  0  0  0  0  3  0  0  0  0  0  0
  187.4250  175.7610  142.3110 C   0  0  0  0  0  0  0  0  0  0  0  0
  184.4140  178.5630  144.7950 C   0  0  0  0  0  3  0  0  0  0  0  0
  185.3810  179.6960  144.0250 S   0  0  0  0  0  0  0  0  0  0  0  0
  188.2240  178.0860  141.6980 C   0  0  0  0  0  3  0  0  0  0  0  0
  187.6390  174.4900  142.1220 N   0  0  0  0  0  2  0  0  0  0  0  0
  184.8160  177.3160  144.4510 N   0  0  0  0  0  0  0  0  0  0  0  0
  186.3330  178.5620  143.2320 C   0  0  0  0  0  0  0  0  0  0  0  0
  188.2420  176.6980  141.6650 C   0  0  0  0  0  3  0  0  0  0  0  0
  193.6920  172.3570  135.6880 O   0  0  0  0  0  0  0  0  0  0  0  0
  193.2680  172.7160  136.7790 C   0  0  0  0  0  0  0  0  0  0  0  0
  193.9610  173.8070  137.5300 C   0  0  0  0  0  2  0  0  0  0  0  0
  195.3860  173.9700  137.0230 C   0  0  0  0  0  2  0  0  0  0  0  0
  196.1630  174.8770  137.9200 C   0  0  0  0  0  0  0  0  0  0  0  0
  195.8800  174.8910  139.3170 N   0  0  0  0  0  2  0  0  0  0  0  0
  197.0280  175.6570  137.4360 O   0  0  0  0  0  0  0  0  0  0  0  0
  194.5240  175.8970  141.4090 O   0  0  0  0  0  1  0  0  0  0  0  0
  196.6330  175.7160  140.2570 C   0  0  1  0  0  3  0  0  0  0  0  0
  195.7150  176.5750  141.1180 C   0  0  2  0  0  3  0  0  0  0  0  0
  197.4890  175.6510  142.5160 C   0  0  0  0  0  2  0  0  0  0  0  0
  197.4100  174.8520  141.2290 C   0  0  0  0  0  2  0  0  0  0  0  0
  196.4840  176.7860  142.4070 C   0  0  0  0  0  2  0  0  0  0  0  0
  192.6390  171.1400  140.9780 O   0  0  0  0  0  0  0  0  0  0  0  0
  194.3730  172.4910  142.0530 C   0  0  0  0  0  3  0  0  0  0  0  0
  193.2300  171.6790  142.1260 C   0  0  0  0  0  0  0  0  0  0  0  0
  194.3150  172.8190  144.4560 C   0  0  0  0  0  0  0  0  0  0  0  0
  194.9130  173.0530  143.2140 C   0  0  0  0  0  3  0  0  0  0  0  0
  192.6480  171.4230  143.3690 C   0  0  0  0  0  3  0  0  0  0  0  0
  193.1820  171.9940  144.5280 C   0  0  0  0  0  3  0  0  0  0  0  0
  194.8530  173.4290  145.5960 O   0  0  0  0  0  0  0  0  0  0  0  0
  195.5630  174.6650  145.5550 C   0  0  0  0  0  2  0  0  0  0  0  0
  194.9390  175.6670  146.5120 C   0  0  0  0  0  2  0  0  0  0  0  0
  190.8540  176.5000  145.4830 C   0  0  0  0  0  0  0  0  0  0  0  0
  188.7720  175.2160  146.8870 N   0  0  0  0  0  2  0  0  0  0  0  0
  192.4870  175.4620  146.9580 C   0  0  0  0  0  3  0  0  0  0  0  0
  193.5190  175.9090  146.1280 C   0  0  0  0  0  0  0  0  0  0  0  0
  190.0660  175.3020  147.5710 C   0  0  0  0  0  2  0  0  0  0  0  0
  191.8990  176.9400  144.6500 C   0  0  0  0  0  0  0  0  0  0  0  0
  191.1580  175.7330  146.6310 C   0  0  0  0  0  0  0  0  0  0  0  0
  189.4140  176.7710  145.1130 C   0  0  0  0  0  2  0  0  0  0  0  0
  193.2240  176.6460  144.9790 C   0  0  0  0  0  3  0  0  0  0  0  0
  188.4770  176.5220  146.2940 C   0  0  0  0  0  2  0  0  0  0  0  0
  191.5800  177.8720  143.1890 Cl  0  0  0  0  0  0  0  0  0  0  0  0
  1 10  1  0  0  0  0
  2  8  1  1  0  0  0
  3  2  1  0  0  0  0
  3 37  1  1  0  0  0
  5 25  1  1  0  0  0
  5  1  1  0  0  0  0
  5  7  1  0  0  0  0
  6 11  1  0  0  0  0
  6 20  1  1  0  0  0
  7  3  1  0  0  0  0
  8 11  1  0  0  0  0
  9 12  1  0  0  0  0
 10  4  1  6  0  0  0
 10  9  1  0  0  0  0
 10  2  1  0  0  0  0
 12  6  1  0  0  0  0
 14 13  1  1  0  0  0
 14 21  1  0  0  0  0
 15 22  2  0  0  0  0
 16 13  2  0  0  0  0
 18 17  1  0  0  0  0
 19 15  1  0  0  0  0
 20 16  1  0  0  0  0
 21 17  2  0  0  0  0
 22 14  1  0  0  0  0
 22 18  1  0  0  0  0
 23 19  2  0  0  0  0
 23 16  1  0  0  0  0
 24 25  2  0  0  0  0
 25 26  1  0  0  0  0
 27 26  1  0  0  0  0
 27 28  1  0  0  0  0
 28 29  1  0  0  0  0
 30 28  2  0  0  0  0
 32 29  1  6  0  0  0
 32 33  1  0  0  0  0
 32 35  1  0  0  0  0
 33 31  1  1  0  0  0
 33 36  1  0  0  0  0
 35 34  1  0  0  0  0
 36 34  1  0  0  0  0
 37 39  1  0  0  0  0
 38 39  2  0  0  0  0
 38 41  1  0  0  0  0
 39 42  1  0  0  0  0
 40 43  1  0  0  0  0
 40 44  1  0  0  0  0
 41 40  2  0  0  0  0
 42 43  2  0  0  0  0
 45 44  1  0  0  0  0
 45 46  1  0  0  0  0
 47 53  1  0  0  0  0
 48 51  1  0  0  0  0
 50 46  1  0  0  0  0
 50 49  1  0  0  0  0
 52 55  1  0  0  0  0
 52 47  2  0  0  0  0
 53 49  2  0  0  0  0
 53 51  1  0  0  0  0
 54 47  1  0  0  0  0
 54 56  1  0  0  0  0
 55 50  2  0  0  0  0
 56 48  1  0  0  0  0
 57 52  1  0  0  0  0
M  END
>  <MODEL>
1

>  <REMARK>
 VINA RESULT:      -8.2      0.000      0.000
  Name = 
  12 active torsions:
  status: ('A' for Active; 'I' for Inactive)
    1  A    between atoms: C_6  and  N_26
    2  A    between atoms: C_10  and  C_22
    3  A    between atoms: C_10  and  C_56
    4  A    between atoms: C_11  and  C_47
    5  A    between atoms: O_13  and  C_16
    6  A    between atoms: O_13  and  C_34
    7  A    between atoms: C_14  and  O_27
    8  A    between atoms: C_16  and  C_17
    9  A    between atoms: C_17  and  C_28
   10  A    between atoms: C_25  and  O_27
   11  A    between atoms: C_29  and  N_49
   12  A    between atoms: C_47  and  C_56
                            x       y       z     vdW  Elec       q    Type
                         _______ _______ _______ _____ _____    ______ ____

>  <TORSDO>
F 12

$$$$
=
 OpenBabel11062423083D

 57 64  0  0  1  0  0  0  0  0999 V2000
  193.7160  174.0060  146.1320 C   0  0  0  0  0  2  0  0  0  0  0  0
  193.1600  175.8300  144.5520 N   0  0  2  0  0  0  0  0  0  0  0  0
  194.2980  175.3160  143.7400 C   0  0  2  0  0  3  0  0  0  0  0  0
  193.9620  176.3670  146.8840 C   0  0  0  0  0  1  0  0  0  0  0  0
  195.1740  173.9190  145.6460 C   0  0  2  0  0  3  0  0  0  0  0  0
  190.5460  176.7900  145.1730 C   0  0  1  0  0  3  0  0  0  0  0  0
  195.5240  174.9630  144.5760 C   0  0  0  0  0  2  0  0  0  0  0  0
  192.9390  177.2740  144.4030 C   0  0  0  0  0  2  0  0  0  0  0  0
  191.7010  175.3980  146.4860 C   0  0  0  0  0  2  0  0  0  0  0  0
  193.1500  175.4200  145.9850 C   0  0  2  0  0  0  0  0  0  0  0  0
  191.4510  177.5760  144.2190 C   0  0  0  0  0  2  0  0  0  0  0  0
  191.1290  176.6810  146.4440 O   0  0  0  0  0  0  0  0  0  0  0  0
  187.1400  178.1230  144.7270 C   0  0  0  0  0  3  0  0  0  0  0  0
  185.9330  178.2610  144.0530 C   0  0  0  0  0  0  0  0  0  0  0  0
  186.2770  176.7990  142.0340 C   0  0  0  0  0  3  0  0  0  0  0  0
  188.2800  177.3830  144.4160 C   0  0  0  0  0  0  0  0  0  0  0  0
  183.8380  179.1240  143.8470 C   0  0  0  0  0  3  0  0  0  0  0  0
  184.0080  178.1650  142.4820 S   0  0  0  0  0  0  0  0  0  0  0  0
  187.5610  176.3210  142.2300 C   0  0  0  0  0  3  0  0  0  0  0  0
  189.2580  177.4720  145.2710 N   0  0  0  0  0  0  0  0  0  0  0  0
  184.9710  179.0630  144.5870 N   0  0  0  0  0  0  0  0  0  0  0  0
  185.5660  177.6600  142.8510 C   0  0  0  0  0  0  0  0  0  0  0  0
  188.4360  176.5810  143.2770 C   0  0  0  0  0  3  0  0  0  0  0  0
  196.5210  172.3010  144.5600 O   0  0  0  0  0  0  0  0  0  0  0  0
  195.4980  172.5290  145.1930 C   0  0  0  0  0  0  0  0  0  0  0  0
  194.5700  171.4120  145.5430 C   0  0  0  0  0  2  0  0  0  0  0  0
  194.5600  170.3690  144.4350 C   0  0  0  0  0  2  0  0  0  0  0  0
  193.5050  170.6840  143.4250 C   0  0  0  0  0  0  0  0  0  0  0  0
  192.3270  171.3720  143.8350 N   0  0  0  0  0  2  0  0  0  0  0  0
  193.6390  170.3010  142.2310 O   0  0  0  0  0  0  0  0  0  0  0  0
  190.0730  172.4060  144.8750 O   0  0  0  0  0  1  0  0  0  0  0  0
  191.2790  171.7540  142.8930 C   0  0  1  0  0  3  0  0  0  0  0  0
  189.9250  171.8980  143.5780 C   0  0  2  0  0  3  0  0  0  0  0  0
  190.2180  173.7300  141.9930 C   0  0  0  0  0  2  0  0  0  0  0  0
  191.5710  173.1100  142.2840 C   0  0  0  0  0  2  0  0  0  0  0  0
  189.1750  172.9120  142.7390 C   0  0  0  0  0  2  0  0  0  0  0  0
  194.6560  176.1950  142.6710 O   0  0  0  0  0  0  0  0  0  0  0  0
  196.1610  175.7270  140.7990 C   0  0  0  0  0  3  0  0  0  0  0  0
  194.8760  175.7490  141.3630 C   0  0  0  0  0  0  0  0  0  0  0  0
  195.2720  174.7480  138.7660 C   0  0  0  0  0  0  0  0  0  0  0  0
  196.3550  175.2320  139.5060 C   0  0  0  0  0  3  0  0  0  0  0  0
  193.7900  175.2900  140.6140 C   0  0  0  0  0  3  0  0  0  0  0  0
  193.9860  174.7860  139.3250 C   0  0  0  0  0  3  0  0  0  0  0  0
  195.5030  174.2200  137.4890 O   0  0  0  0  0  0  0  0  0  0  0  0
  194.6720  174.5060  136.3670 C   0  0  0  0  0  2  0  0  0  0  0  0
  194.0090  173.2380  135.8590 C   0  0  0  0  0  2  0  0  0  0  0  0
  190.6900  172.0890  138.3300 C   0  0  0  0  0  0  0  0  0  0  0  0
  188.5520  173.8870  138.7190 N   0  0  0  0  0  2  0  0  0  0  0  0
  191.7170  173.6500  136.7720 C   0  0  0  0  0  3  0  0  0  0  0  0
  192.8770  172.8700  136.7560 C   0  0  0  0  0  0  0  0  0  0  0  0
  189.3710  174.0950  137.5210 C   0  0  0  0  0  2  0  0  0  0  0  0
  191.8630  171.3140  138.3140 C   0  0  0  0  0  0  0  0  0  0  0  0
  190.6340  173.2790  137.5700 C   0  0  0  0  0  0  0  0  0  0  0  0
  189.5290  171.7020  139.2150 C   0  0  0  0  0  2  0  0  0  0  0  0
  192.9470  171.7050  137.5250 C   0  0  0  0  0  3  0  0  0  0  0  0
  188.2560  172.4580  138.8330 C   0  0  0  0  0  2  0  0  0  0  0  0
  192.0030  169.8370  139.2650 Cl  0  0  0  0  0  0  0  0  0  0  0  0
  2  8  1  1  0  0  0
  2 10  1  0  0  0  0
  3 37  1  6  0  0  0
  3  2  1  0  0  0  0
  3  7  1  0  0  0  0
  5 25  1  6  0  0  0
  5  1  1  0  0  0  0
  6 20  1  1  0  0  0
  6 12  1  0  0  0  0
  7  5  1  0  0  0  0
 10  1  1  0  0  0  0
 10  9  1  0  0  0  0
 10  4  1  1  0  0  0
 11  8  1  0  0  0  0
 11  6  1  0  0  0  0
 12  9  1  0  0  0  0
 14 21  1  0  0  0  0
 14 13  2  0  0  0  0
 15 19  1  0  0  0  0
 15 22  2  0  0  0  0
 16 13  1  0  0  0  0
 16 20  2  0  0  0  0
 17 21  2  0  0  0  0
 18 22  1  0  0  0  0
 18 17  1  0  0  0  0
 19 23  2  0  0  0  0
 22 14  1  0  0  0  0
 23 16  1  0  0  0  0
 24 25  2  0  0  0  0
 25 26  1  0  0  0  0
 27 26  1  0  0  0  0
 28 29  1  0  0  0  0
 28 27  1  0  0  0  0
 30 28  2  0  0  0  0
 32 33  1  0  0  0  0
 32 29  1  1  0  0  0
 33 31  1  1  0  0  0
 34 35  1  0  0  0  0
 34 36  1  0  0  0  0
 35 32  1  0  0  0  0
 36 33  1  0  0  0  0
 38 39  1  0  0  0  0
 39 37  1  0  0  0  0
 40 43  2  0  0  0  0
 40 41  1  0  0  0  0
 41 38  2  0  0  0  0
 42 39  2  0  0  0  0
 43 42  1  0  0  0  0
 44 40  1  0  0  0  0
 45 44  1  0  0  0  0
 46 45  1  0  0  0  0
 46 50  1  0  0  0  0
 47 54  1  0  0  0  0
 48 56  1  0  0  0  0
 49 53  1  0  0  0  0
 50 49  2  0  0  0  0
 50 55  1  0  0  0  0
 51 53  1  0  0  0  0
 51 48  1  0  0  0  0
 52 47  1  0  0  0  0
 52 57  1  0  0  0  0
 53 47  2  0  0  0  0
 55 52  2  0  0  0  0
 56 54  1  0  0  0  0
M  END
>  <MODEL>
2

>  <REMARK>
 VINA RESULT:      -7.6      2.264      7.152
  Name = 
  12 active torsions:
  status: ('A' for Active; 'I' for Inactive)
    1  A    between atoms: C_6  and  N_26
    2  A    between atoms: C_10  and  C_22
    3  A    between atoms: C_10  and  C_56
    4  A    between atoms: C_11  and  C_47
    5  A    between atoms: O_13  and  C_16
    6  A    between atoms: O_13  and  C_34
    7  A    between atoms: C_14  and  O_27
    8  A    between atoms: C_16  and  C_17
    9  A    between atoms: C_17  and  C_28
   10  A    between atoms: C_25  and  O_27
   11  A    between atoms: C_29  and  N_49
   12  A    between atoms: C_47  and  C_56
                            x       y       z     vdW  Elec       q    Type
                         _______ _______ _______ _____ _____    ______ ____

>  <TORSDO>
F 12

$$$$
=
 OpenBabel11062423083D

 57 64  0  0  1  0  0  0  0  0999 V2000
  193.8320  173.3130  145.7810 C   0  0  0  0  0  2  0  0  0  0  0  0
  193.4290  175.1700  144.1930 N   0  0  2  0  0  0  0  0  0  0  0  0
  194.4460  174.5010  143.3340 C   0  0  2  0  0  3  0  0  0  0  0  0
  194.4190  175.6330  146.4670 C   0  0  0  0  0  1  0  0  0  0  0  0
  195.2370  173.0310  145.2220 C   0  0  2  0  0  3  0  0  0  0  0  0
  190.9980  176.4690  144.9280 C   0  0  1  0  0  3  0  0  0  0  0  0
  195.6600  174.0050  144.1130 C   0  0  0  0  0  2  0  0  0  0  0  0
  193.3880  176.6280  144.0240 C   0  0  0  0  0  2  0  0  0  0  0  0
  192.0350  174.9590  146.2090 C   0  0  0  0  0  2  0  0  0  0  0  0
  193.4440  174.7860  145.6330 C   0  0  2  0  0  0  0  0  0  0  0  0
  191.9430  177.1170  143.9110 C   0  0  0  0  0  2  0  0  0  0  0  0
  191.6310  176.3050  146.1690 O   0  0  0  0  0  0  0  0  0  0  0  0
  187.7080  178.1170  144.7330 C   0  0  0  0  0  3  0  0  0  0  0  0
  186.4240  178.2830  144.2290 C   0  0  0  0  0  0  0  0  0  0  0  0
  186.2850  176.4540  142.5070 C   0  0  0  0  0  3  0  0  0  0  0  0
  188.7040  177.1970  144.4090 C   0  0  0  0  0  0  0  0  0  0  0  0
  184.4160  179.3510  144.1670 C   0  0  0  0  0  3  0  0  0  0  0  0
  184.2630  178.1510  143.0060 S   0  0  0  0  0  0  0  0  0  0  0  0
  187.5320  175.8620  142.6020 C   0  0  0  0  0  3  0  0  0  0  0  0
  189.8150  177.3140  145.0790 N   0  0  0  0  0  0  0  0  0  0  0  0
  185.6450  179.2820  144.7310 N   0  0  0  0  0  0  0  0  0  0  0  0
  185.8060  177.5280  143.2350 C   0  0  0  0  0  0  0  0  0  0  0  0
  188.5900  176.1930  143.4390 C   0  0  0  0  0  3  0  0  0  0  0  0
  196.4540  171.0810  144.6480 O   0  0  0  0  0  0  0  0  0  0  0  0
  195.3560  171.6040  144.7830 C   0  0  0  0  0  0  0  0  0  0  0  0
  194.1130  170.8120  144.5340 C   0  0  0  0  0  2  0  0  0  0  0  0
  194.2820  169.9450  143.2950 C   0  0  0  0  0  2  0  0  0  0  0  0
  193.2480  170.2820  142.2710 C   0  0  0  0  0  0  0  0  0  0  0  0
  192.5380  171.5140  142.3720 N   0  0  0  0  0  2  0  0  0  0  0  0
  192.9730  169.4600  141.3540 O   0  0  0  0  0  0  0  0  0  0  0  0
  189.9820  171.6690  143.1920 O   0  0  0  0  0  1  0  0  0  0  0  0
  191.5500  171.9280  141.3810 C   0  0  1  0  0  3  0  0  0  0  0  0
  190.1330  171.5600  141.8040 C   0  0  2  0  0  3  0  0  0  0  0  0
  190.1240  173.8050  140.8480 C   0  0  0  0  0  2  0  0  0  0  0  0
  191.5470  173.4350  141.2200 C   0  0  0  0  0  2  0  0  0  0  0  0
  189.2500  172.5940  141.1350 C   0  0  0  0  0  2  0  0  0  0  0  0
  194.8550  175.3100  142.2290 O   0  0  0  0  0  0  0  0  0  0  0  0
  195.1130  173.4160  140.7020 C   0  0  0  0  0  3  0  0  0  0  0  0
  195.2990  174.7710  141.0170 C   0  0  0  0  0  0  0  0  0  0  0  0
  196.1220  173.7660  138.5240 C   0  0  0  0  0  0  0  0  0  0  0  0
  195.5270  172.9180  139.4630 C   0  0  0  0  0  3  0  0  0  0  0  0
  195.9180  175.6130  140.0900 C   0  0  0  0  0  3  0  0  0  0  0  0
  196.3220  175.1160  138.8470 C   0  0  0  0  0  3  0  0  0  0  0  0
  196.4880  173.2470  137.2750 O   0  0  0  0  0  0  0  0  0  0  0  0
  195.5580  172.6400  136.3810 C   0  0  0  0  0  2  0  0  0  0  0  0
  194.2940  173.4780  136.2810 C   0  0  0  0  0  2  0  0  0  0  0  0
  190.9430  171.1940  137.6940 C   0  0  0  0  0  0  0  0  0  0  0  0
  191.1750  168.3970  137.9630 N   0  0  0  0  0  2  0  0  0  0  0  0
  193.2930  171.3280  137.0740 C   0  0  0  0  0  3  0  0  0  0  0  0
  193.1220  172.6700  136.7200 C   0  0  0  0  0  0  0  0  0  0  0  0
  192.4270  169.1600  137.9760 C   0  0  0  0  0  2  0  0  0  0  0  0
  190.7790  172.5430  137.3300 C   0  0  0  0  0  0  0  0  0  0  0  0
  192.2080  170.5830  137.5380 C   0  0  0  0  0  0  0  0  0  0  0  0
  189.7630  170.3810  138.1700 C   0  0  0  0  0  2  0  0  0  0  0  0
  191.8690  173.2730  136.8500 C   0  0  0  0  0  3  0  0  0  0  0  0
  190.2110  169.0760  138.8300 C   0  0  0  0  0  2  0  0  0  0  0  0
  189.2190  173.3510  137.4730 Cl  0  0  0  0  0  0  0  0  0  0  0  0
  2  8  1  1  0  0  0
  2 10  1  0  0  0  0
  3 37  1  6  0  0  0
  3  7  1  0  0  0  0
  3  2  1  0  0  0  0
  5 25  1  6  0  0  0
  5  1  1  0  0  0  0
  6 20  1  1  0  0  0
  6 12  1  0  0  0  0
  7  5  1  0  0  0  0
 10  1  1  0  0  0  0
 10  9  1  0  0  0  0
 10  4  1  1  0  0  0
 11  8  1  0  0  0  0
 11  6  1  0  0  0  0
 12  9  1  0  0  0  0
 14 21  1  0  0  0  0
 14 13  2  0  0  0  0
 15 19  1  0  0  0  0
 15 22  2  0  0  0  0
 16 13  1  0  0  0  0
 16 20  2  0  0  0  0
 17 21  2  0  0  0  0
 18 22  1  0  0  0  0
 18 17  1  0  0  0  0
 19 23  2  0  0  0  0
 22 14  1  0  0  0  0
 23 16  1  0  0  0  0
 24 25  2  0  0  0  0
 26 25  1  0  0  0  0
 27 26  1  0  0  0  0
 28 29  1  0  0  0  0
 28 27  1  0  0  0  0
 30 28  2  0  0  0  0
 32 33  1  0  0  0  0
 32 29  1  1  0  0  0
 33 31  1  1  0  0  0
 34 36  1  0  0  0  0
 34 35  1  0  0  0  0
 35 32  1  0  0  0  0
 36 33  1  0  0  0  0
 38 39  1  0  0  0  0
 39 37  1  0  0  0  0
 40 43  2  0  0  0  0
 40 41  1  0  0  0  0
 41 38  2  0  0  0  0
 42 39  2  0  0  0  0
 43 42  1  0  0  0  0
 44 40  1  0  0  0  0
 45 44  1  0  0  0  0
 46 45  1  0  0  0  0
 46 50  1  0  0  0  0
 47 54  1  0  0  0  0
 48 51  1  0  0  0  0
 48 56  1  0  0  0  0
 49 53  2  0  0  0  0
 50 55  2  0  0  0  0
 50 49  1  0  0  0  0
 52 57  1  0  0  0  0
 52 47  2  0  0  0  0
 53 47  1  0  0  0  0
 53 51  1  0  0  0  0
 54 56  1  0  0  0  0
 55 52  1  0  0  0  0
M  END
>  <MODEL>
3

>  <REMARK>
 VINA RESULT:      -7.4      2.210      7.248
  Name = 
  12 active torsions:
  status: ('A' for Active; 'I' for Inactive)
    1  A    between atoms: C_6  and  N_26
    2  A    between atoms: C_10  and  C_22
    3  A    between atoms: C_10  and  C_56
    4  A    between atoms: C_11  and  C_47
    5  A    between atoms: O_13  and  C_16
    6  A    between atoms: O_13  and  C_34
    7  A    between atoms: C_14  and  O_27
    8  A    between atoms: C_16  and  C_17
    9  A    between atoms: C_17  and  C_28
   10  A    between atoms: C_25  and  O_27
   11  A    between atoms: C_29  and  N_49
   12  A    between atoms: C_47  and  C_56
                            x       y       z     vdW  Elec       q    Type
                         _______ _______ _______ _____ _____    ______ ____

>  <TORSDO>
F 12

$$$$
=
 OpenBabel11062423083D

 57 64  0  0  1  0  0  0  0  0999 V2000
  188.0540  175.9860  144.1650 C   0  0  0  0  0  2  0  0  0  0  0  0
  190.4630  175.6450  143.7010 N   0  0  2  0  0  0  0  0  0  0  0  0
  190.6950  176.5670  144.8470 C   0  0  2  0  0  3  0  0  0  0  0  0
  188.9860  176.7750  141.9950 C   0  0  0  0  0  1  0  0  0  0  0  0
  188.2950  177.3380  144.8590 C   0  0  2  0  0  3  0  0  0  0  0  0
  190.7380  173.3550  142.0220 C   0  0  1  0  0  3  0  0  0  0  0  0
  189.7660  177.7770  144.8450 C   0  0  0  0  0  2  0  0  0  0  0  0
  191.5170  175.7030  142.6790 C   0  0  0  0  0  2  0  0  0  0  0  0
  188.7810  174.3380  142.4680 C   0  0  0  0  0  2  0  0  0  0  0  0
  189.1050  175.7010  143.0890 C   0  0  2  0  0  0  0  0  0  0  0  0
  191.9270  174.2950  142.2470 C   0  0  0  0  0  2  0  0  0  0  0  0
  189.6670  174.0330  141.4210 O   0  0  0  0  0  0  0  0  0  0  0  0
  191.8140  171.1220  139.2950 C   0  0  0  0  0  3  0  0  0  0  0  0
  192.1450  170.8320  137.9770 C   0  0  0  0  0  0  0  0  0  0  0  0
  191.8290  173.0570  136.8450 C   0  0  0  0  0  3  0  0  0  0  0  0
  191.4060  172.3130  139.8930 C   0  0  0  0  0  0  0  0  0  0  0  0
  192.8140  169.3940  136.3470 C   0  0  0  0  0  3  0  0  0  0  0  0
  192.6210  170.8490  135.5370 S   0  0  0  0  0  0  0  0  0  0  0  0
  191.4220  173.8670  137.8910 C   0  0  0  0  0  3  0  0  0  0  0  0
  191.1680  172.2460  141.1720 N   0  0  0  0  0  0  0  0  0  0  0  0
  192.5140  169.5610  137.6570 N   0  0  0  0  0  0  0  0  0  0  0  0
  192.1460  171.7120  136.8970 C   0  0  0  0  0  0  0  0  0  0  0  0
  191.2380  173.5340  139.2270 C   0  0  0  0  0  3  0  0  0  0  0  0
  188.3860  177.7530  147.1890 O   0  0  0  0  0  0  0  0  0  0  0  0
  187.7320  177.3290  146.2460 C   0  0  0  0  0  0  0  0  0  0  0  0
  186.3450  176.8180  146.4670 C   0  0  0  0  0  2  0  0  0  0  0  0
  185.3640  177.9780  146.5530 C   0  0  0  0  0  2  0  0  0  0  0  0
  185.2560  178.6750  145.2360 C   0  0  0  0  0  0  0  0  0  0  0  0
  184.6700  177.9950  144.1300 N   0  0  0  0  0  2  0  0  0  0  0  0
  185.7240  179.8380  145.0960 O   0  0  0  0  0  0  0  0  0  0  0  0
  185.7890  176.7760  142.0110 O   0  0  0  0  0  1  0  0  0  0  0  0
  184.4880  178.6320  142.8300 C   0  0  1  0  0  3  0  0  0  0  0  0
  185.5010  178.1310  141.8060 C   0  0  2  0  0  3  0  0  0  0  0  0
  183.3100  178.3020  140.7450 C   0  0  0  0  0  2  0  0  0  0  0  0
  183.1280  178.2980  142.2510 C   0  0  0  0  0  2  0  0  0  0  0  0
  184.8050  178.2860  140.4690 C   0  0  0  0  0  2  0  0  0  0  0  0
  192.0590  176.9810  144.9570 O   0  0  0  0  0  0  0  0  0  0  0  0
  192.8840  174.8410  145.8110 C   0  0  0  0  0  3  0  0  0  0  0  0
  193.1060  176.0860  145.2020 C   0  0  0  0  0  0  0  0  0  0  0  0
  195.2340  174.2870  145.5780 C   0  0  0  0  0  0  0  0  0  0  0  0
  193.9440  173.9500  146.0010 C   0  0  0  0  0  3  0  0  0  0  0  0
  194.3990  176.4340  144.8040 C   0  0  0  0  0  3  0  0  0  0  0  0
  195.4570  175.5390  144.9840 C   0  0  0  0  0  3  0  0  0  0  0  0
  196.2690  173.3570  145.7430 O   0  0  0  0  0  0  0  0  0  0  0  0
  196.9130  172.7090  144.6500 C   0  0  0  0  0  2  0  0  0  0  0  0
  195.9940  171.6670  144.0340 C   0  0  0  0  0  2  0  0  0  0  0  0
  195.3930  172.6750  139.9030 C   0  0  0  0  0  0  0  0  0  0  0  0
  194.4890  175.2550  139.2140 N   0  0  0  0  0  2  0  0  0  0  0  0
  195.5090  173.3410  142.2410 C   0  0  0  0  0  3  0  0  0  0  0  0
  195.7320  172.0100  142.6080 C   0  0  0  0  0  0  0  0  0  0  0  0
  195.1450  175.1190  140.5180 C   0  0  0  0  0  2  0  0  0  0  0  0
  195.6120  171.3370  140.2830 C   0  0  0  0  0  0  0  0  0  0  0  0
  195.3180  173.6740  140.8990 C   0  0  0  0  0  0  0  0  0  0  0  0
  195.1590  173.0300  138.4540 C   0  0  0  0  0  2  0  0  0  0  0  0
  195.7840  171.0140  141.6300 C   0  0  0  0  0  3  0  0  0  0  0  0
  195.2870  174.5350  138.2190 C   0  0  0  0  0  2  0  0  0  0  0  0
  195.6850  170.0430  139.0890 Cl  0  0  0  0  0  0  0  0  0  0  0  0
  1  5  1  0  0  0  0
  2  8  1  6  0  0  0
  2  3  1  0  0  0  0
  3 37  1  6  0  0  0
  5 25  1  1  0  0  0
  6 20  1  6  0  0  0
  6 11  1  0  0  0  0
  7  3  1  0  0  0  0
  7  5  1  0  0  0  0
  9 10  1  0  0  0  0
 10  4  1  6  0  0  0
 10  2  1  0  0  0  0
 10  1  1  0  0  0  0
 11  8  1  0  0  0  0
 12  6  1  0  0  0  0
 12  9  1  0  0  0  0
 13 16  1  0  0  0  0
 14 13  2  0  0  0  0
 15 22  2  0  0  0  0
 15 19  1  0  0  0  0
 16 20  2  0  0  0  0
 17 21  2  0  0  0  0
 18 17  1  0  0  0  0
 18 22  1  0  0  0  0
 19 23  2  0  0  0  0
 21 14  1  0  0  0  0
 22 14  1  0  0  0  0
 23 16  1  0  0  0  0
 25 26  1  0  0  0  0
 25 24  2  0  0  0  0
 26 27  1  0  0  0  0
 28 27  1  0  0  0  0
 29 28  1  0  0  0  0
 30 28  2  0  0  0  0
 32 29  1  1  0  0  0
 33 31  1  1  0  0  0
 33 32  1  0  0  0  0
 34 35  1  0  0  0  0
 35 32  1  0  0  0  0
 36 34  1  0  0  0  0
 36 33  1  0  0  0  0
 37 39  1  0  0  0  0
 38 41  1  0  0  0  0
 39 38  2  0  0  0  0
 40 44  1  0  0  0  0
 40 41  2  0  0  0  0
 42 43  2  0  0  0  0
 42 39  1  0  0  0  0
 43 40  1  0  0  0  0
 45 44  1  0  0  0  0
 46 45  1  0  0  0  0
 47 52  2  0  0  0  0
 47 53  1  0  0  0  0
 48 51  1  0  0  0  0
 49 50  1  0  0  0  0
 50 46  1  0  0  0  0
 51 53  1  0  0  0  0
 52 55  1  0  0  0  0
 53 49  2  0  0  0  0
 54 47  1  0  0  0  0
 55 50  2  0  0  0  0
 56 54  1  0  0  0  0
 56 48  1  0  0  0  0
 57 52  1  0  0  0  0
M  END
>  <MODEL>
4

>  <REMARK>
 VINA RESULT:      -6.9      3.389      9.041
  Name = 
  12 active torsions:
  status: ('A' for Active; 'I' for Inactive)
    1  A    between atoms: C_6  and  N_26
    2  A    between atoms: C_10  and  C_22
    3  A    between atoms: C_10  and  C_56
    4  A    between atoms: C_11  and  C_47
    5  A    between atoms: O_13  and  C_16
    6  A    between atoms: O_13  and  C_34
    7  A    between atoms: C_14  and  O_27
    8  A    between atoms: C_16  and  C_17
    9  A    between atoms: C_17  and  C_28
   10  A    between atoms: C_25  and  O_27
   11  A    between atoms: C_29  and  N_49
   12  A    between atoms: C_47  and  C_56
                            x       y       z     vdW  Elec       q    Type
                         _______ _______ _______ _____ _____    ______ ____

>  <TORSDO>
F 12

$$$$
=
 OpenBabel11062423083D

 57 64  0  0  1  0  0  0  0  0999 V2000
  193.2390  176.5160  144.8530 C   0  0  0  0  0  2  0  0  0  0  0  0
  193.9970  174.3030  144.0370 N   0  0  2  0  0  0  0  0  0  0  0  0
  192.9550  173.7420  144.9410 C   0  0  2  0  0  3  0  0  0  0  0  0
  195.5610  175.7760  145.3630 C   0  0  0  0  0  1  0  0  0  0  0  0
  192.6740  175.9310  146.1590 C   0  0  2  0  0  3  0  0  0  0  0  0
  195.5430  174.7000  141.6730 C   0  0  1  0  0  3  0  0  0  0  0  0
  192.9130  174.4220  146.3070 C   0  0  0  0  0  2  0  0  0  0  0  0
  195.1520  173.4150  143.8520 C   0  0  0  0  0  2  0  0  0  0  0  0
  194.9050  176.3570  143.0300 C   0  0  0  0  0  2  0  0  0  0  0  0
  194.4250  175.7010  144.3300 C   0  0  2  0  0  0  0  0  0  0  0  0
  195.5420  173.3380  142.3750 C   0  0  0  0  0  2  0  0  0  0  0  0
  196.0390  175.7020  142.5200 O   0  0  0  0  0  0  0  0  0  0  0  0
  196.9080  174.4400  138.2600 C   0  0  0  0  0  3  0  0  0  0  0  0
  196.8020  174.3240  136.8790 C   0  0  0  0  0  0  0  0  0  0  0  0
  194.3100  174.2490  136.5390 C   0  0  0  0  0  3  0  0  0  0  0  0
  195.9280  174.5020  139.2490 C   0  0  0  0  0  0  0  0  0  0  0  0
  197.7190  174.1680  134.8030 C   0  0  0  0  0  3  0  0  0  0  0  0
  196.0680  174.1140  134.5130 S   0  0  0  0  0  0  0  0  0  0  0  0
  193.8310  174.3430  137.8340 C   0  0  0  0  0  3  0  0  0  0  0  0
  196.3680  174.6100  140.4700 N   0  0  0  0  0  0  0  0  0  0  0  0
  197.9410  174.2830  136.1340 N   0  0  0  0  0  0  0  0  0  0  0  0
  195.6310  174.2420  136.1290 C   0  0  0  0  0  0  0  0  0  0  0  0
  194.5470  174.4540  139.0200 C   0  0  0  0  0  3  0  0  0  0  0  0
  190.6960  176.2760  147.4170 O   0  0  0  0  0  0  0  0  0  0  0  0
  191.2270  176.2820  146.3140 C   0  0  0  0  0  0  0  0  0  0  0  0
  190.4360  176.6650  145.1050 C   0  0  0  0  0  2  0  0  0  0  0  0
  189.5140  175.5260  144.6960 C   0  0  0  0  0  2  0  0  0  0  0  0
  188.1380  176.0350  144.4160 C   0  0  0  0  0  0  0  0  0  0  0  0
  187.5100  176.9040  145.3540 N   0  0  0  0  0  2  0  0  0  0  0  0
  187.5220  175.6580  143.3820 O   0  0  0  0  0  0  0  0  0  0  0  0
  185.8720  177.0850  147.4790 O   0  0  0  0  0  1  0  0  0  0  0  0
  186.1870  177.4770  145.1230 C   0  0  1  0  0  3  0  0  0  0  0  0
  185.2150  177.1300  146.2430 C   0  0  2  0  0  3  0  0  0  0  0  0
  184.9110  179.4690  145.6160 C   0  0  0  0  0  2  0  0  0  0  0  0
  186.2530  178.9910  145.0960 C   0  0  0  0  0  2  0  0  0  0  0  0
  184.2230  178.2760  146.2600 C   0  0  0  0  0  2  0  0  0  0  0  0
  193.0570  172.3250  145.0890 O   0  0  0  0  0  0  0  0  0  0  0  0
  193.1380  170.1550  143.9590 C   0  0  0  0  0  3  0  0  0  0  0  0
  192.5650  171.4250  144.1370 C   0  0  0  0  0  0  0  0  0  0  0  0
  191.4730  169.6200  142.2790 C   0  0  0  0  0  0  0  0  0  0  0  0
  192.5950  169.2610  143.0320 C   0  0  0  0  0  3  0  0  0  0  0  0
  191.4600  171.7930  143.3660 C   0  0  0  0  0  3  0  0  0  0  0  0
  190.9120  170.8950  142.4470 C   0  0  0  0  0  3  0  0  0  0  0  0
  190.9250  168.6870  141.3880 O   0  0  0  0  0  0  0  0  0  0  0  0
  190.7970  168.9310  139.9890 C   0  0  0  0  0  2  0  0  0  0  0  0
  192.0450  169.6110  139.4520 C   0  0  0  0  0  2  0  0  0  0  0  0
  191.0890  172.4150  136.3420 C   0  0  0  0  0  0  0  0  0  0  0  0
  188.9840  174.2520  136.7200 N   0  0  0  0  0  2  0  0  0  0  0  0
  190.7920  171.6090  138.6190 C   0  0  0  0  0  3  0  0  0  0  0  0
  191.6710  170.5530  138.3590 C   0  0  0  0  0  0  0  0  0  0  0  0
  189.5870  173.6920  137.9320 C   0  0  0  0  0  2  0  0  0  0  0  0
  191.9670  171.3450  136.0880 C   0  0  0  0  0  0  0  0  0  0  0  0
  190.4820  172.5250  137.6140 C   0  0  0  0  0  0  0  0  0  0  0  0
  190.7330  173.3900  135.2460 C   0  0  0  0  0  2  0  0  0  0  0  0
  192.2560  170.4240  137.0970 C   0  0  0  0  0  3  0  0  0  0  0  0
  190.0600  174.6420  135.8070 C   0  0  0  0  0  2  0  0  0  0  0  0
  192.7310  171.1370  134.5130 Cl  0  0  0  0  0  0  0  0  0  0  0  0
  1  5  1  0  0  0  0
  2  8  1  1  0  0  0
  2 10  1  0  0  0  0
  2  3  1  0  0  0  0
  3 37  1  1  0  0  0
  3  7  1  0  0  0  0
  5  7  1  0  0  0  0
  5 25  1  6  0  0  0
  6 20  1  6  0  0  0
  6 11  1  0  0  0  0
  6 12  1  0  0  0  0
  9 10  1  0  0  0  0
 10  1  1  0  0  0  0
 10  4  1  1  0  0  0
 11  8  1  0  0  0  0
 12  9  1  0  0  0  0
 13 16  1  0  0  0  0
 14 13  2  0  0  0  0
 15 19  1  0  0  0  0
 16 20  2  0  0  0  0
 17 21  2  0  0  0  0
 18 17  1  0  0  0  0
 18 22  1  0  0  0  0
 19 23  2  0  0  0  0
 21 14  1  0  0  0  0
 22 15  2  0  0  0  0
 22 14  1  0  0  0  0
 23 16  1  0  0  0  0
 25 24  2  0  0  0  0
 26 25  1  0  0  0  0
 27 26  1  0  0  0  0
 28 27  1  0  0  0  0
 28 29  1  0  0  0  0
 30 28  2  0  0  0  0
 32 29  1  1  0  0  0
 32 33  1  0  0  0  0
 33 36  1  0  0  0  0
 33 31  1  1  0  0  0
 34 36  1  0  0  0  0
 35 32  1  0  0  0  0
 35 34  1  0  0  0  0
 38 39  1  0  0  0  0
 39 37  1  0  0  0  0
 40 43  2  0  0  0  0
 40 41  1  0  0  0  0
 41 38  2  0  0  0  0
 42 39  2  0  0  0  0
 43 42  1  0  0  0  0
 44 40  1  0  0  0  0
 45 44  1  0  0  0  0
 46 45  1  0  0  0  0
 47 53  1  0  0  0  0
 48 51  1  0  0  0  0
 50 49  1  0  0  0  0
 50 46  1  0  0  0  0
 52 47  2  0  0  0  0
 52 55  1  0  0  0  0
 53 51  1  0  0  0  0
 53 49  2  0  0  0  0
 54 56  1  0  0  0  0
 54 47  1  0  0  0  0
 55 50  2  0  0  0  0
 56 48  1  0  0  0  0
 57 52  1  0  0  0  0
M  END
>  <MODEL>
5

>  <REMARK>
 VINA RESULT:      -6.6      3.441      9.796
  Name = 
  12 active torsions:
  status: ('A' for Active; 'I' for Inactive)
    1  A    between atoms: C_6  and  N_26
    2  A    between atoms: C_10  and  C_22
    3  A    between atoms: C_10  and  C_56
    4  A    between atoms: C_11  and  C_47
    5  A    between atoms: O_13  and  C_16
    6  A    between atoms: O_13  and  C_34
    7  A    between atoms: C_14  and  O_27
    8  A    between atoms: C_16  and  C_17
    9  A    between atoms: C_17  and  C_28
   10  A    between atoms: C_25  and  O_27
   11  A    between atoms: C_29  and  N_49
   12  A    between atoms: C_47  and  C_56
                            x       y       z     vdW  Elec       q    Type
                         _______ _______ _______ _____ _____    ______ ____

>  <TORSDO>
F 12

$$$$
=
 OpenBabel11062423083D

 57 64  0  0  1  0  0  0  0  0999 V2000
  191.9610  176.4830  145.0530 C   0  0  0  0  0  2  0  0  0  0  0  0
  193.4400  174.6750  144.2290 N   0  0  2  0  0  0  0  0  0  0  0  0
  192.8460  173.8510  145.3190 C   0  0  2  0  0  3  0  0  0  0  0  0
  194.4290  176.7810  145.2060 C   0  0  0  0  0  1  0  0  0  0  0  0
  191.8620  175.8710  146.4620 C   0  0  2  0  0  3  0  0  0  0  0  0
  194.3620  175.3870  141.6250 C   0  0  1  0  0  3  0  0  0  0  0  0
  192.7120  174.6050  146.6390 C   0  0  0  0  0  2  0  0  0  0  0  0
  194.8200  174.3000  143.8970 C   0  0  0  0  0  2  0  0  0  0  0  0
  193.2910  176.7960  142.9900 C   0  0  0  0  0  2  0  0  0  0  0  0
  193.2950  176.1510  144.3800 C   0  0  2  0  0  0  0  0  0  0  0  0
  195.0080  174.2210  142.3820 C   0  0  0  0  0  2  0  0  0  0  0  0
  194.5150  176.5900  142.3300 O   0  0  0  0  0  0  0  0  0  0  0  0
  195.2510  175.3100  138.0500 C   0  0  0  0  0  3  0  0  0  0  0  0
  195.0210  175.0080  136.7130 C   0  0  0  0  0  0  0  0  0  0  0  0
  192.7580  173.9120  136.7950 C   0  0  0  0  0  3  0  0  0  0  0  0
  194.4710  175.0880  139.1840 C   0  0  0  0  0  0  0  0  0  0  0  0
  195.6390  174.9980  134.5240 C   0  0  0  0  0  3  0  0  0  0  0  0
  194.1330  174.2600  134.5140 S   0  0  0  0  0  0  0  0  0  0  0  0
  192.4570  173.9520  138.1460 C   0  0  0  0  0  3  0  0  0  0  0  0
  194.9860  175.4980  140.3080 N   0  0  0  0  0  0  0  0  0  0  0  0
  195.9680  175.3390  135.7930 N   0  0  0  0  0  0  0  0  0  0  0  0
  193.8990  174.3840  136.1730 C   0  0  0  0  0  0  0  0  0  0  0  0
  193.2140  174.4700  139.1900 C   0  0  0  0  0  3  0  0  0  0  0  0
  190.1450  175.0320  147.8610 O   0  0  0  0  0  0  0  0  0  0  0  0
  190.4310  175.6360  146.8370 C   0  0  0  0  0  0  0  0  0  0  0  0
  189.3490  176.1720  145.9570 C   0  0  0  0  0  2  0  0  0  0  0  0
  188.4280  177.0860  146.7520 C   0  0  0  0  0  2  0  0  0  0  0  0
  187.0340  177.0250  146.2180 C   0  0  0  0  0  0  0  0  0  0  0  0
  186.7270  177.6770  144.9890 N   0  0  0  0  0  2  0  0  0  0  0  0
  186.1300  176.4410  146.8750 O   0  0  0  0  0  0  0  0  0  0  0  0
  185.5940  180.0180  144.3080 O   0  0  0  0  0  1  0  0  0  0  0  0
  185.4000  177.6180  144.3850 C   0  0  1  0  0  3  0  0  0  0  0  0
  184.6850  178.9620  144.4520 C   0  0  2  0  0  3  0  0  0  0  0  0
  184.3080  177.9650  142.2570 C   0  0  0  0  0  2  0  0  0  0  0  0
  185.4930  177.2810  142.9100 C   0  0  0  0  0  2  0  0  0  0  0  0
  183.7480  178.9590  143.2620 C   0  0  0  0  0  2  0  0  0  0  0  0
  193.5340  172.6140  145.5150 O   0  0  0  0  0  0  0  0  0  0  0  0
  194.6310  170.8650  144.2020 C   0  0  0  0  0  3  0  0  0  0  0  0
  193.4770  171.5600  144.5960 C   0  0  0  0  0  0  0  0  0  0  0  0
  193.2900  169.3850  142.8260 C   0  0  0  0  0  0  0  0  0  0  0  0
  194.5360  169.7850  143.3190 C   0  0  0  0  0  3  0  0  0  0  0  0
  192.2360  171.1770  144.0830 C   0  0  0  0  0  3  0  0  0  0  0  0
  192.1400  170.0910  143.2080 C   0  0  0  0  0  3  0  0  0  0  0  0
  193.2210  168.2740  141.9740 O   0  0  0  0  0  0  0  0  0  0  0  0
  192.4510  168.2600  140.7750 C   0  0  0  0  0  2  0  0  0  0  0  0
  192.9400  169.3330  139.8180 C   0  0  0  0  0  2  0  0  0  0  0  0
  189.7960  172.0590  138.7550 C   0  0  0  0  0  0  0  0  0  0  0  0
  188.5570  173.6090  140.7580 N   0  0  0  0  0  2  0  0  0  0  0  0
  191.3530  171.1760  140.4030 C   0  0  0  0  0  3  0  0  0  0  0  0
  191.8130  170.2440  139.4680 C   0  0  0  0  0  0  0  0  0  0  0  0
  189.9000  173.1050  141.0590 C   0  0  0  0  0  2  0  0  0  0  0  0
  190.2610  171.1130  137.8220 C   0  0  0  0  0  0  0  0  0  0  0  0
  190.3350  172.0660  140.0610 C   0  0  0  0  0  0  0  0  0  0  0  0
  188.6750  173.0040  138.3920 C   0  0  0  0  0  2  0  0  0  0  0  0
  191.2680  170.2150  138.1820 C   0  0  0  0  0  3  0  0  0  0  0  0
  188.5630  174.1500  139.3980 C   0  0  0  0  0  2  0  0  0  0  0  0
  189.6060  171.0350  136.1870 Cl  0  0  0  0  0  0  0  0  0  0  0  0
  1  5  1  0  0  0  0
  2  8  1  1  0  0  0
  2 10  1  0  0  0  0
  2  3  1  0  0  0  0
  3 37  1  1  0  0  0
  3  7  1  0  0  0  0
  5  7  1  0  0  0  0
  5 25  1  6  0  0  0
  6 20  1  6  0  0  0
  6 12  1  0  0  0  0
  6 11  1  0  0  0  0
  9 10  1  0  0  0  0
 10  1  1  0  0  0  0
 10  4  1  1  0  0  0
 11  8  1  0  0  0  0
 12  9  1  0  0  0  0
 13 16  1  0  0  0  0
 14 13  2  0  0  0  0
 15 19  1  0  0  0  0
 16 23  1  0  0  0  0
 16 20  2  0  0  0  0
 17 21  2  0  0  0  0
 18 17  1  0  0  0  0
 18 22  1  0  0  0  0
 19 23  2  0  0  0  0
 21 14  1  0  0  0  0
 22 14  1  0  0  0  0
 22 15  2  0  0  0  0
 25 24  2  0  0  0  0
 26 27  1  0  0  0  0
 26 25  1  0  0  0  0
 28 27  1  0  0  0  0
 28 30  2  0  0  0  0
 29 28  1  0  0  0  0
 32 33  1  0  0  0  0
 32 29  1  6  0  0  0
 33 31  1  6  0  0  0
 34 35  1  0  0  0  0
 34 36  1  0  0  0  0
 35 32  1  0  0  0  0
 36 33  1  0  0  0  0
 38 39  1  0  0  0  0
 39 37  1  0  0  0  0
 40 43  2  0  0  0  0
 40 41  1  0  0  0  0
 41 38  2  0  0  0  0
 42 39  2  0  0  0  0
 43 42  1  0  0  0  0
 44 40  1  0  0  0  0
 45 44  1  0  0  0  0
 46 45  1  0  0  0  0
 47 53  1  0  0  0  0
 48 51  1  0  0  0  0
 50 46  1  0  0  0  0
 50 49  1  0  0  0  0
 52 55  1  0  0  0  0
 52 47  2  0  0  0  0
 53 49  2  0  0  0  0
 53 51  1  0  0  0  0
 54 47  1  0  0  0  0
 54 56  1  0  0  0  0
 55 50  2  0  0  0  0
 56 48  1  0  0  0  0
 57 52  1  0  0  0  0
M  END
>  <MODEL>
6

>  <REMARK>
 VINA RESULT:      -6.6      3.307      9.261
  Name = 
  12 active torsions:
  status: ('A' for Active; 'I' for Inactive)
    1  A    between atoms: C_6  and  N_26
    2  A    between atoms: C_10  and  C_22
    3  A    between atoms: C_10  and  C_56
    4  A    between atoms: C_11  and  C_47
    5  A    between atoms: O_13  and  C_16
    6  A    between atoms: O_13  and  C_34
    7  A    between atoms: C_14  and  O_27
    8  A    between atoms: C_16  and  C_17
    9  A    between atoms: C_17  and  C_28
   10  A    between atoms: C_25  and  O_27
   11  A    between atoms: C_29  and  N_49
   12  A    between atoms: C_47  and  C_56
                            x       y       z     vdW  Elec       q    Type
                         _______ _______ _______ _____ _____    ______ ____

>  <TORSDO>
F 12

$$$$
=
 OpenBabel11062423083D

 57 64  0  0  1  0  0  0  0  0999 V2000
  195.9330  174.0180  144.7490 C   0  0  0  0  0  2  0  0  0  0  0  0
  194.6980  174.8060  142.7520 N   0  0  2  0  0  0  0  0  0  0  0  0
  195.5560  173.8560  141.9900 C   0  0  2  0  0  3  0  0  0  0  0  0
  196.1550  176.4000  144.0570 C   0  0  0  0  0  1  0  0  0  0  0  0
  197.1520  173.5750  143.9210 C   0  0  2  0  0  3  0  0  0  0  0  0
  192.3440  176.1580  143.6280 C   0  0  1  0  0  3  0  0  0  0  0  0
  197.0190  173.8860  142.4240 C   0  0  0  0  0  2  0  0  0  0  0  0
  194.2870  175.9790  141.9710 C   0  0  0  0  0  2  0  0  0  0  0  0
  194.0070  175.5530  144.9920 C   0  0  0  0  0  2  0  0  0  0  0  0
  195.2010  175.1960  144.1000 C   0  0  2  0  0  0  0  0  0  0  0  0
  192.7970  176.2630  142.1680 C   0  0  0  0  0  2  0  0  0  0  0  0
  193.3190  176.6730  144.4950 O   0  0  0  0  0  0  0  0  0  0  0  0
  189.0670  177.5030  144.6430 C   0  0  0  0  0  3  0  0  0  0  0  0
  187.9200  177.5350  145.4270 C   0  0  2  0  0  3  0  0  0  0  0  0
  188.3050  175.6230  147.0160 C   0  0  0  0  0  3  0  0  0  0  0  0
  190.1740  176.6560  144.6790 C   0  0  0  0  0  0  0  0  0  0  0  0
  185.9030  178.4210  145.9960 C   0  0  0  0  0  3  0  0  0  0  0  0
  186.1030  177.1600  147.0830 S   0  0  0  0  0  0  0  0  0  0  0  0
  189.5360  175.1400  146.6060 C   0  0  0  0  0  3  0  0  0  0  0  0
  191.0930  176.8970  143.7880 N   0  0  0  0  0  2  0  0  0  0  0  0
  186.9760  178.4830  145.1720 N   0  0  0  0  0  0  0  0  0  0  0  0
  187.5990  176.6860  146.4850 C   0  0  0  0  0  0  0  0  0  0  0  0
  190.3510  175.5970  145.5790 C   0  0  0  0  0  3  0  0  0  0  0  0
  197.9410  171.4360  143.2780 O   0  0  0  0  0  0  0  0  0  0  0  0
  197.4580  172.1290  144.1630 C   0  0  0  0  0  0  0  0  0  0  0  0
  197.1900  171.5420  145.5110 C   0  0  0  0  0  2  0  0  0  0  0  0
  196.7200  170.1020  145.3730 C   0  0  0  0  0  2  0  0  0  0  0  0
  195.2270  170.0350  145.3410 C   0  0  0  0  0  0  0  0  0  0  0  0
  194.5580  169.9470  144.0860 N   0  0  0  0  0  2  0  0  0  0  0  0
  194.5680  170.1060  146.4140 O   0  0  0  0  0  0  0  0  0  0  0  0
  193.1730  172.2290  143.7650 O   0  0  0  0  0  1  0  0  0  0  0  0
  193.1070  169.8300  143.9840 C   0  0  1  0  0  3  0  0  0  0  0  0
  192.4100  171.1590  144.2500 C   0  0  2  0  0  3  0  0  0  0  0  0
  191.3330  170.0570  142.3580 C   0  0  0  0  0  2  0  0  0  0  0  0
  192.6960  169.4310  142.5810 C   0  0  0  0  0  2  0  0  0  0  0  0
  191.1190  171.0820  143.4610 C   0  0  0  0  0  2  0  0  0  0  0  0
  195.4490  174.0260  140.5760 O   0  0  0  0  0  0  0  0  0  0  0  0
  193.8580  172.1880  140.2930 C   0  0  0  0  0  3  0  0  0  0  0  0
  194.7370  173.1420  139.7570 C   0  0  0  0  0  0  0  0  0  0  0  0
  193.2570  171.4610  138.0590 C   0  0  0  0  0  0  0  0  0  0  0  0
  193.1260  171.3500  139.4460 C   0  0  0  0  0  3  0  0  0  0  0  0
  194.8870  173.2350  138.3710 C   0  0  0  0  0  3  0  0  0  0  0  0
  194.1470  172.4040  137.5250 C   0  0  0  0  0  3  0  0  0  0  0  0
  192.4790  170.6360  137.2340 O   0  0  0  0  0  0  0  0  0  0  0  0
  191.0880  170.8520  137.0080 C   0  0  0  0  0  2  0  0  0  0  0  0
  190.8440  172.2690  136.5170 C   0  0  0  0  0  2  0  0  0  0  0  0
  188.5650  174.5310  139.3690 C   0  0  0  0  0  0  0  0  0  0  0  0
  188.9850  174.1230  142.1280 N   0  0  0  0  0  2  0  0  0  0  0  0
  190.3780  172.9870  138.8670 C   0  0  0  0  0  3  0  0  0  0  0  0
  190.0220  173.0100  137.5150 C   0  0  0  0  0  0  0  0  0  0  0  0
  190.0820  173.7370  141.2360 C   0  0  0  0  0  2  0  0  0  0  0  0
  188.2100  174.5430  138.0080 C   0  0  0  0  0  0  0  0  0  0  0  0
  189.6430  173.7230  139.7970 C   0  0  0  0  0  0  0  0  0  0  0  0
  187.7530  175.3060  140.3790 C   0  0  0  0  0  2  0  0  0  0  0  0
  188.9420  173.7870  137.0890 C   0  0  0  0  0  3  0  0  0  0  0  0
  188.4920  175.4370  141.7100 C   0  0  0  0  0  2  0  0  0  0  0  0
  186.8560  175.5060  137.4190 Cl  0  0  0  0  0  0  0  0  0  0  0  0
  2  8  1  6  0  0  0
  2 10  1  0  0  0  0
  3 37  1  6  0  0  0
  3  7  1  0  0  0  0
  3  2  1  0  0  0  0
  5 25  1  6  0  0  0
  5  1  1  0  0  0  0
  6 20  1  6  0  0  0
  6 12  1  0  0  0  0
  7  5  1  0  0  0  0
  8 11  1  0  0  0  0
 10  4  1  6  0  0  0
 10  1  1  0  0  0  0
 10  9  1  0  0  0  0
 11  6  1  0  0  0  0
 12  9  1  0  0  0  0
 13 16  2  0  0  0  0
 14 13  1  1  0  0  0
 14 22  1  0  0  0  0
 16 23  1  0  0  0  0
 17 18  1  0  0  0  0
 19 15  1  0  0  0  0
 20 16  1  0  0  0  0
 21 14  1  0  0  0  0
 21 17  2  0  0  0  0
 22 15  2  0  0  0  0
 22 18  1  0  0  0  0
 23 19  2  0  0  0  0
 24 25  2  0  0  0  0
 25 26  1  0  0  0  0
 27 26  1  0  0  0  0
 28 27  1  0  0  0  0
 28 30  2  0  0  0  0
 29 28  1  0  0  0  0
 32 29  1  6  0  0  0
 32 33  1  0  0  0  0
 33 31  1  6  0  0  0
 34 35  1  0  0  0  0
 34 36  1  0  0  0  0
 35 32  1  0  0  0  0
 36 33  1  0  0  0  0
 39 38  1  0  0  0  0
 39 37  1  0  0  0  0
 40 41  1  0  0  0  0
 41 38  2  0  0  0  0
 42 39  2  0  0  0  0
 43 40  2  0  0  0  0
 43 42  1  0  0  0  0
 44 40  1  0  0  0  0
 45 44  1  0  0  0  0
 46 45  1  0  0  0  0
 46 50  1  0  0  0  0
 47 53  1  0  0  0  0
 47 54  1  0  0  0  0
 49 53  2  0  0  0  0
 50 49  1  0  0  0  0
 51 48  1  0  0  0  0
 52 47  2  0  0  0  0
 53 51  1  0  0  0  0
 54 56  1  0  0  0  0
 55 50  2  0  0  0  0
 55 52  1  0  0  0  0
 56 48  1  0  0  0  0
 57 52  1  0  0  0  0
M  END
>  <MODEL>
7

>  <REMARK>
 VINA RESULT:      -6.6      2.485      6.964
  Name = 
  12 active torsions:
  status: ('A' for Active; 'I' for Inactive)
    1  A    between atoms: C_6  and  N_26
    2  A    between atoms: C_10  and  C_22
    3  A    between atoms: C_10  and  C_56
    4  A    between atoms: C_11  and  C_47
    5  A    between atoms: O_13  and  C_16
    6  A    between atoms: O_13  and  C_34
    7  A    between atoms: C_14  and  O_27
    8  A    between atoms: C_16  and  C_17
    9  A    between atoms: C_17  and  C_28
   10  A    between atoms: C_25  and  O_27
   11  A    between atoms: C_29  and  N_49
   12  A    between atoms: C_47  and  C_56
                            x       y       z     vdW  Elec       q    Type
                         _______ _______ _______ _____ _____    ______ ____

>  <TORSDO>
F 12

$$$$
=
 OpenBabel11062423083D

 57 64  0  0  1  0  0  0  0  0999 V2000
  187.8260  176.1430  144.4020 C   0  0  0  0  0  2  0  0  0  0  0  0
  189.7890  174.6330  144.3390 N   0  0  2  0  0  0  0  0  0  0  0  0
  189.9970  175.0340  145.7580 C   0  0  2  0  0  3  0  0  0  0  0  0
  189.7200  176.6920  142.8810 C   0  0  0  0  0  1  0  0  0  0  0  0
  188.4020  176.9760  145.5600 C   0  0  2  0  0  3  0  0  0  0  0  0
  189.5480  172.9430  142.0540 C   0  0  1  0  0  3  0  0  0  0  0  0
  189.8050  176.5290  145.9960 C   0  0  0  0  0  2  0  0  0  0  0  0
  191.0340  174.2990  143.6360 C   0  0  0  0  0  2  0  0  0  0  0  0
  188.2560  174.7300  142.4160 C   0  0  0  0  0  2  0  0  0  0  0  0
  188.9300  175.5420  143.5280 C   0  0  2  0  0  0  0  0  0  0  0  0
  190.8680  173.0120  142.8280 C   0  0  0  0  0  2  0  0  0  0  0  0
  189.2060  174.1980  141.5280 O   0  0  0  0  0  0  0  0  0  0  0  0
  190.3510  171.0640  138.9870 C   0  0  0  0  0  3  0  0  0  0  0  0
  190.9490  170.9030  137.7430 C   0  0  0  0  0  0  0  0  0  0  0  0
  192.1130  173.1110  137.4200 C   0  0  0  0  0  3  0  0  0  0  0  0
  190.3580  172.1420  139.8710 C   0  0  0  0  0  0  0  0  0  0  0  0
  191.4020  169.6810  135.8790 C   0  0  0  0  0  3  0  0  0  0  0  0
  192.2000  171.1310  135.6060 S   0  0  0  0  0  0  0  0  0  0  0  0
  191.7880  173.7900  138.5810 C   0  0  0  0  0  3  0  0  0  0  0  0
  189.6850  171.9690  140.9720 N   0  0  0  0  0  0  0  0  0  0  0  0
  190.7770  169.7270  137.0790 N   0  0  0  0  0  0  0  0  0  0  0  0
  191.7340  171.8300  137.0600 C   0  0  0  0  0  0  0  0  0  0  0  0
  191.0160  173.3590  139.6530 C   0  0  0  0  0  3  0  0  0  0  0  0
  187.3190  176.0410  147.4480 O   0  0  0  0  0  0  0  0  0  0  0  0
  187.4470  177.0110  146.7130 C   0  0  0  0  0  0  0  0  0  0  0  0
  186.6650  178.2570  146.9750 C   0  0  0  0  0  2  0  0  0  0  0  0
  185.2700  178.1380  146.3780 C   0  0  0  0  0  2  0  0  0  0  0  0
  185.2240  178.7600  145.0200 C   0  0  0  0  0  0  0  0  0  0  0  0
  184.4430  178.1470  143.9970 N   0  0  0  0  0  2  0  0  0  0  0  0
  185.9090  179.7890  144.7720 O   0  0  0  0  0  0  0  0  0  0  0  0
  185.7750  176.9260  142.0060 O   0  0  0  0  0  1  0  0  0  0  0  0
  184.3140  178.7260  142.6630 C   0  0  1  0  0  3  0  0  0  0  0  0
  185.4220  178.2530  141.7300 C   0  0  2  0  0  3  0  0  0  0  0  0
  183.3030  178.2520  140.5200 C   0  0  0  0  0  2  0  0  0  0  0  0
  183.0190  178.2890  142.0100 C   0  0  0  0  0  2  0  0  0  0  0  0
  184.8110  178.3170  140.3450 C   0  0  0  0  0  2  0  0  0  0  0  0
  191.2560  174.6020  146.2760 O   0  0  0  0  0  0  0  0  0  0  0  0
  193.6170  174.3130  145.7020 C   0  0  0  0  0  3  0  0  0  0  0  0
  192.4780  175.1220  145.8350 C   0  0  0  0  0  0  0  0  0  0  0  0
  194.8780  176.2000  144.8460 C   0  0  0  0  0  0  0  0  0  0  0  0
  194.8110  174.8520  145.2140 C   0  0  0  0  0  3  0  0  0  0  0  0
  192.5520  176.4740  145.4930 C   0  0  0  0  0  3  0  0  0  0  0  0
  193.7430  177.0110  144.9950 C   0  0  0  0  0  3  0  0  0  0  0  0
  196.0760  176.7030  144.3210 O   0  0  0  0  0  0  0  0  0  0  0  0
  196.6590  176.2190  143.1130 C   0  0  0  0  0  2  0  0  0  0  0  0
  195.7060  176.4170  141.9470 C   0  0  0  0  0  2  0  0  0  0  0  0
  195.0710  172.7530  139.7980 C   0  0  0  0  0  0  0  0  0  0  0  0
  194.4470  170.3960  141.2140 N   0  0  0  0  0  2  0  0  0  0  0  0
  195.0050  174.0180  141.8770 C   0  0  0  0  0  3  0  0  0  0  0  0
  195.5360  175.1300  141.2160 C   0  0  0  0  0  0  0  0  0  0  0  0
  194.1590  171.6620  141.8940 C   0  0  0  0  0  2  0  0  0  0  0  0
  195.6110  173.8750  139.1430 C   0  0  0  0  0  0  0  0  0  0  0  0
  194.7920  172.8260  141.1820 C   0  0  0  0  0  0  0  0  0  0  0  0
  194.8680  171.4560  139.0520 C   0  0  0  0  0  2  0  0  0  0  0  0
  195.8360  175.0570  139.8540 C   0  0  0  0  0  3  0  0  0  0  0  0
  193.9710  170.4960  139.8330 C   0  0  0  0  0  2  0  0  0  0  0  0
  196.0090  173.8350  137.4270 Cl  0  0  0  0  0  0  0  0  0  0  0  0
  1  5  1  0  0  0  0
  2  8  1  6  0  0  0
  2  3  1  0  0  0  0
  3  7  1  0  0  0  0
  3 37  1  6  0  0  0
  5  7  1  0  0  0  0
  5 25  1  1  0  0  0
  6 20  1  6  0  0  0
  6 11  1  0  0  0  0
  9 10  1  0  0  0  0
 10  4  1  6  0  0  0
 10  2  1  0  0  0  0
 10  1  1  0  0  0  0
 11  8  1  0  0  0  0
 12  6  1  0  0  0  0
 12  9  1  0  0  0  0
 13 16  1  0  0  0  0
 14 13  2  0  0  0  0
 15 19  1  0  0  0  0
 16 20  2  0  0  0  0
 17 21  2  0  0  0  0
 18 17  1  0  0  0  0
 18 22  1  0  0  0  0
 19 23  2  0  0  0  0
 21 14  1  0  0  0  0
 22 15  2  0  0  0  0
 22 14  1  0  0  0  0
 23 16  1  0  0  0  0
 25 26  1  0  0  0  0
 25 24  2  0  0  0  0
 27 26  1  0  0  0  0
 28 27  1  0  0  0  0
 29 28  1  0  0  0  0
 30 28  2  0  0  0  0
 32 29  1  1  0  0  0
 33 31  1  1  0  0  0
 33 32  1  0  0  0  0
 34 35  1  0  0  0  0
 35 32  1  0  0  0  0
 36 34  1  0  0  0  0
 36 33  1  0  0  0  0
 38 39  1  0  0  0  0
 39 37  1  0  0  0  0
 40 43  2  0  0  0  0
 40 41  1  0  0  0  0
 41 38  2  0  0  0  0
 42 39  2  0  0  0  0
 43 42  1  0  0  0  0
 44 40  1  0  0  0  0
 45 44  1  0  0  0  0
 46 45  1  0  0  0  0
 47 53  1  0  0  0  0
 48 51  1  0  0  0  0
 50 49  1  0  0  0  0
 50 46  1  0  0  0  0
 52 47  2  0  0  0  0
 52 55  1  0  0  0  0
 53 49  2  0  0  0  0
 53 51  1  0  0  0  0
 54 47  1  0  0  0  0
 54 56  1  0  0  0  0
 55 50  2  0  0  0  0
 56 48  1  0  0  0  0
 57 52  1  0  0  0  0
M  END
>  <MODEL>
8

>  <REMARK>
 VINA RESULT:      -6.5      3.322      8.913
  Name = 
  12 active torsions:
  status: ('A' for Active; 'I' for Inactive)
    1  A    between atoms: C_6  and  N_26
    2  A    between atoms: C_10  and  C_22
    3  A    between atoms: C_10  and  C_56
    4  A    between atoms: C_11  and  C_47
    5  A    between atoms: O_13  and  C_16
    6  A    between atoms: O_13  and  C_34
    7  A    between atoms: C_14  and  O_27
    8  A    between atoms: C_16  and  C_17
    9  A    between atoms: C_17  and  C_28
   10  A    between atoms: C_25  and  O_27
   11  A    between atoms: C_29  and  N_49
   12  A    between atoms: C_47  and  C_56
                            x       y       z     vdW  Elec       q    Type
                         _______ _______ _______ _____ _____    ______ ____

>  <TORSDO>
F 12

$$$$
=
 OpenBabel11062423083D

 57 64  0  0  1  0  0  0  0  0999 V2000
  190.2760  172.0470  138.6950 C   0  0  0  0  0  2  0  0  0  0  0  0
  191.2750  173.7490  140.1920 N   0  0  2  0  0  0  0  0  0  0  0  0
  192.3460  173.8570  139.1620 C   0  0  2  0  0  3  0  0  0  0  0  0
  191.0710  171.3510  140.9500 C   0  0  0  0  0  1  0  0  0  0  0  0
  191.6240  171.7260  138.0260 C   0  0  2  0  0  3  0  0  0  0  0  0
  189.2910  174.5670  142.0710 C   0  0  1  0  0  3  0  0  0  0  0  0
  192.8040  172.5040  138.6250 C   0  0  0  0  0  2  0  0  0  0  0  0
  191.7410  174.0360  141.5540 C   0  0  0  0  0  2  0  0  0  0  0  0
  189.0630  172.8060  140.7140 C   0  0  0  0  0  2  0  0  0  0  0  0
  190.4540  172.5060  140.1450 C   0  0  2  0  0  0  0  0  0  0  0  0
  190.7580  174.9570  142.2780 C   0  0  0  0  0  2  0  0  0  0  0  0
  189.1370  173.1730  142.0690 O   0  0  0  0  0  0  0  0  0  0  0  0
  186.9230  176.4590  144.1660 C   0  0  0  0  0  3  0  0  0  0  0  0
  185.9030  177.3800  144.3770 C   0  0  1  0  0  3  0  0  0  0  0  0
  185.4270  178.1930  142.0440 C   0  0  0  0  0  3  0  0  0  0  0  0
  187.5570  176.0520  142.9940 C   0  0  0  0  0  0  0  0  0  0  0  0
  184.4700  178.5090  145.7350 C   0  0  0  0  0  3  0  0  0  0  0  0
  184.1070  179.0900  144.2040 S   0  0  0  0  0  0  0  0  0  0  0  0
  186.3320  177.4700  141.2870 C   0  0  0  0  0  3  0  0  0  0  0  0
  188.4910  175.1570  143.1430 N   0  0  0  0  0  2  0  0  0  0  0  0
  185.4630  177.5930  145.6480 N   0  0  0  0  0  0  0  0  0  0  0  0
  185.2470  178.1440  143.4140 C   0  0  0  0  0  0  0  0  0  0  0  0
  187.2650  176.5310  141.7100 C   0  0  0  0  0  3  0  0  0  0  0  0
  192.0310  171.0870  135.7820 O   0  0  0  0  0  0  0  0  0  0  0  0
  191.5350  171.9080  136.5430 C   0  0  0  0  0  0  0  0  0  0  0  0
  190.8080  173.0930  135.9950 C   0  0  0  0  0  2  0  0  0  0  0  0
  191.6730  173.8120  134.9700 C   0  0  0  0  0  2  0  0  0  0  0  0
  192.6290  174.7400  135.6450 C   0  0  0  0  0  0  0  0  0  0  0  0
  193.9900  174.3490  135.8040 N   0  0  0  0  0  2  0  0  0  0  0  0
  192.2210  175.8380  136.1130 O   0  0  0  0  0  0  0  0  0  0  0  0
  196.3220  173.2210  136.5240 O   0  0  0  0  0  1  0  0  0  0  0  0
  194.9880  175.2250  136.4100 C   0  0  1  0  0  3  0  0  0  0  0  0
  196.0510  174.4360  137.1660 C   0  0  2  0  0  3  0  0  0  0  0  0
  197.1280  176.2300  135.9110 C   0  0  0  0  0  2  0  0  0  0  0  0
  195.7390  176.0020  135.3480 C   0  0  0  0  0  2  0  0  0  0  0  0
  197.2900  175.3060  137.1080 C   0  0  0  0  0  2  0  0  0  0  0  0
  193.4660  174.6250  139.6070 O   0  0  0  0  0  0  0  0  0  0  0  0
  195.3740  174.8890  141.1170 C   0  0  0  0  0  3  0  0  0  0  0  0
  194.5080  174.0790  140.3650 C   0  0  0  0  0  0  0  0  0  0  0  0
  196.5200  172.9200  141.9490 C   0  0  0  0  0  0  0  0  0  0  0  0
  196.3760  174.3100  141.9010 C   0  0  0  0  0  3  0  0  0  0  0  0
  194.6680  172.6920  140.3930 C   0  0  0  0  0  3  0  0  0  0  0  0
  195.6640  172.1130  141.1850 C   0  0  0  0  0  3  0  0  0  0  0  0
  197.5070  172.3670  142.7760 O   0  0  0  0  0  0  0  0  0  0  0  0
  197.2150  171.4550  143.8320 C   0  0  0  0  0  2  0  0  0  0  0  0
  197.1780  172.1810  145.1660 C   0  0  0  0  0  2  0  0  0  0  0  0
  193.3990  174.1960  145.4830 C   0  0  0  0  0  0  0  0  0  0  0  0
  193.2560  176.6970  146.7780 N   0  0  0  0  0  2  0  0  0  0  0  0
  195.8170  174.1940  145.7570 C   0  0  0  0  0  3  0  0  0  0  0  0
  195.8630  172.8640  145.3280 C   0  0  0  0  0  0  0  0  0  0  0  0
  194.5690  176.3050  146.2570 C   0  0  0  0  0  2  0  0  0  0  0  0
  193.4550  172.8560  145.0580 C   0  0  0  0  0  0  0  0  0  0  0  0
  194.5920  174.8550  145.8580 C   0  0  0  0  0  0  0  0  0  0  0  0
  192.0700  174.9010  145.6180 C   0  0  0  0  0  2  0  0  0  0  0  0
  194.6850  172.2000  144.9790 C   0  0  0  0  0  3  0  0  0  0  0  0
  192.2500  176.4130  145.7520 C   0  0  0  0  0  2  0  0  0  0  0  0
  191.9980  171.9720  144.6080 Cl  0  0  0  0  0  0  0  0  0  0  0  0
  1 10  1  0  0  0  0
  2  8  1  1  0  0  0
  3 37  1  1  0  0  0
  3  2  1  0  0  0  0
  5 25  1  6  0  0  0
  5  7  1  0  0  0  0
  5  1  1  0  0  0  0
  6 11  1  0  0  0  0
  6 20  1  1  0  0  0
  7  3  1  0  0  0  0
  8 11  1  0  0  0  0
  9 12  1  0  0  0  0
 10  2  1  0  0  0  0
 10  9  1  0  0  0  0
 10  4  1  1  0  0  0
 12  6  1  0  0  0  0
 14 13  1  1  0  0  0
 14 21  1  0  0  0  0
 15 22  2  0  0  0  0
 16 20  1  0  0  0  0
 16 13  2  0  0  0  0
 18 17  1  0  0  0  0
 19 23  2  0  0  0  0
 19 15  1  0  0  0  0
 21 17  2  0  0  0  0
 22 18  1  0  0  0  0
 22 14  1  0  0  0  0
 23 16  1  0  0  0  0
 24 25  2  0  0  0  0
 26 25  1  0  0  0  0
 27 28  1  0  0  0  0
 27 26  1  0  0  0  0
 28 29  1  0  0  0  0
 28 30  2  0  0  0  0
 32 29  1  6  0  0  0
 32 33  1  0  0  0  0
 33 31  1  6  0  0  0
 34 36  1  0  0  0  0
 35 34  1  0  0  0  0
 35 32  1  0  0  0  0
 36 33  1  0  0  0  0
 37 39  1  0  0  0  0
 38 41  1  0  0  0  0
 39 42  1  0  0  0  0
 39 38  2  0  0  0  0
 40 44  1  0  0  0  0
 41 40  2  0  0  0  0
 42 43  2  0  0  0  0
 43 40  1  0  0  0  0
 44 45  1  0  0  0  0
 45 46  1  0  0  0  0
 46 50  1  0  0  0  0
 47 54  1  0  0  0  0
 47 53  1  0  0  0  0
 49 53  2  0  0  0  0
 50 49  1  0  0  0  0
 51 48  1  0  0  0  0
 52 47  2  0  0  0  0
 53 51  1  0  0  0  0
 54 56  1  0  0  0  0
 55 52  1  0  0  0  0
 55 50  2  0  0  0  0
 56 48  1  0  0  0  0
 57 52  1  0  0  0  0
M  END
>  <MODEL>
9

>  <REMARK>
 VINA RESULT:      -6.3      2.148      3.477
  Name = 
  12 active torsions:
  status: ('A' for Active; 'I' for Inactive)
    1  A    between atoms: C_6  and  N_26
    2  A    between atoms: C_10  and  C_22
    3  A    between atoms: C_10  and  C_56
    4  A    between atoms: C_11  and  C_47
    5  A    between atoms: O_13  and  C_16
    6  A    between atoms: O_13  and  C_34
    7  A    between atoms: C_14  and  O_27
    8  A    between atoms: C_16  and  C_17
    9  A    between atoms: C_17  and  C_28
   10  A    between atoms: C_25  and  O_27
   11  A    between atoms: C_29  and  N_49
   12  A    between atoms: C_47  and  C_56
                            x       y       z     vdW  Elec       q    Type
                         _______ _______ _______ _____ _____    ______ ____

>  <TORSDO>
F 12

$$$$
