=
 OpenBabel11062420383D

 32 35  0  0  1  0  0  0  0  0999 V2000
  190.9860  175.8330  146.4210 N   0  0  0  0  0  0  0  0  0  0  0  0
  189.9060  173.9020  145.6590 O   0  0  0  0  0  0  0  0  0  0  0  0
  189.8590  174.9410  146.3730 C   0  0  0  0  0  0  0  0  0  0  0  0
  194.7910  176.1990  144.8370 C   0  0  0  0  0  2  0  0  0  0  0  0
  193.9160  177.2090  145.2730 O   0  0  0  0  0  0  0  0  0  0  0  0
  192.6300  176.8190  144.8540 C   0  0  0  0  0  2  0  0  0  0  0  0
  194.6120  174.9140  145.6620 C   0  0  1  0  0  3  0  0  0  0  0  0
  192.1550  175.5520  145.5890 C   0  0  1  0  0  3  0  0  0  0  0  0
  193.2760  174.9130  146.4190 C   0  0  0  0  0  2  0  0  0  0  0  0
  194.6880  173.7880  144.7930 O   0  0  0  0  0  0  0  0  0  0  0  0
  193.7630  169.0940  145.4810 O   0  0  0  0  0  1  0  0  0  0  0  0
  192.9750  171.6270  144.6770 F   0  0  0  0  0  0  0  0  0  0  0  0
  196.8360  171.0480  146.0970 C   0  0  0  0  0  3  0  0  0  0  0  0
  194.6480  170.1650  145.5510 C   0  0  0  0  0  0  0  0  0  0  0  0
  196.4270  172.3190  145.6890 C   0  0  0  0  0  3  0  0  0  0  0  0
  194.2360  171.4400  145.1400 C   0  0  0  0  0  0  0  0  0  0  0  0
  195.1220  172.5240  145.2090 C   0  0  0  0  0  0  0  0  0  0  0  0
  196.3680  168.7100  146.4380 O   0  0  0  0  0  1  0  0  0  0  0  0
  195.9500  169.9710  146.0290 C   0  0  0  0  0  0  0  0  0  0  0  0
  190.9250  177.0860  147.1740 C   0  0  0  0  0  2  0  0  0  0  0  0
  191.5090  176.8980  148.5610 C   0  0  0  0  0  1  0  0  0  0  0  0
  188.6110  175.2290  147.1490 C   0  0  0  0  0  2  0  0  0  0  0  0
  185.6880  177.4320  146.2260 C   0  0  0  0  0  0  0  0  0  0  0  0
  187.7060  176.1370  146.3850 C   0  0  0  0  0  0  0  0  0  0  0  0
  187.2390  177.4530  144.3810 C   0  0  0  0  0  3  0  0  0  0  0  0
  185.1000  178.6970  144.4440 O   0  0  0  0  0  0  0  0  0  0  0  0
  184.0170  178.8630  145.3610 C   0  0  0  0  0  2  0  0  0  0  0  0
  188.0750  176.5830  145.0990 C   0  0  0  0  0  3  0  0  0  0  0  0
  184.5480  178.8630  147.6920 F   0  0  0  0  0  0  0  0  0  0  0  0
  186.0470  177.8560  144.9800 C   0  0  0  0  0  0  0  0  0  0  0  0
  184.3800  178.0230  146.6060 C   0  0  2  0  0  3  0  0  0  0  0  0
  186.4980  176.5670  146.9610 C   0  0  0  0  0  3  0  0  0  0  0  0
  1 20  1  0  0  0  0
  2  3  2  0  0  0  0
  3  1  1  0  0  0  0
  3 22  1  0  0  0  0
  4  5  1  0  0  0  0
  4  7  1  0  0  0  0
  6  5  1  0  0  0  0
  6  8  1  0  0  0  0
  7 10  1  6  0  0  0
  7  9  1  0  0  0  0
  8  9  1  0  0  0  0
  8  1  1  1  0  0  0
 10 17  1  0  0  0  0
 11 14  1  0  0  0  0
 12 16  1  0  0  0  0
 14 19  2  0  0  0  0
 15 13  2  0  0  0  0
 16 17  2  0  0  0  0
 16 14  1  0  0  0  0
 17 15  1  0  0  0  0
 19 13  1  0  0  0  0
 19 18  1  0  0  0  0
 20 21  1  0  0  0  0
 23 31  1  0  0  0  0
 23 32  1  0  0  0  0
 24 32  2  0  0  0  0
 24 22  1  0  0  0  0
 25 30  1  0  0  0  0
 25 28  2  0  0  0  0
 26 30  1  0  0  0  0
 26 27  1  0  0  0  0
 27 31  1  0  0  0  0
 28 24  1  0  0  0  0
 30 23  2  0  0  0  0
 31 29  1  1  0  0  0
M  END
>  <MODEL>
1

>  <REMARK>
 VINA RESULT:      -7.9      0.000      0.000
  Name = 
  6 active torsions:
  status: ('A' for Active; 'I' for Inactive)
    1  A    between atoms: N_4  and  C_23
    2  A    between atoms: N_4  and  C_24
    3  A    between atoms: C_6  and  C_7
    4  A    between atoms: C_7  and  C_31
    5  A    between atoms: O_14  and  C_19
    6  A    between atoms: O_14  and  C_22
                            x       y       z     vdW  Elec       q    Type
                         _______ _______ _______ _____ _____    ______ ____

>  <TORSDO>
F 6

$$$$
=
 OpenBabel11062420383D

 32 35  0  0  1  0  0  0  0  0999 V2000
  189.0720  174.5360  142.5480 N   0  0  0  0  0  0  0  0  0  0  0  0
  189.7860  176.3200  143.8840 O   0  0  0  0  0  0  0  0  0  0  0  0
  189.0780  175.9270  142.9170 C   0  0  0  0  0  0  0  0  0  0  0  0
  191.3350  171.1970  143.4670 C   0  0  0  0  0  2  0  0  0  0  0  0
  190.2860  171.3240  142.5400 O   0  0  0  0  0  0  0  0  0  0  0  0
  189.3230  172.1480  143.1520 C   0  0  0  0  0  2  0  0  0  0  0  0
  192.1320  172.5060  143.5880 C   0  0  1  0  0  3  0  0  0  0  0  0
  189.8460  173.5840  143.3430 C   0  0  1  0  0  3  0  0  0  0  0  0
  191.3430  173.6990  143.0280 C   0  0  0  0  0  2  0  0  0  0  0  0
  192.4580  172.7290  144.9560 O   0  0  0  0  0  0  0  0  0  0  0  0
  191.9160  176.8490  147.4240 O   0  0  0  0  0  1  0  0  0  0  0  0
  190.9080  174.4590  146.4470 F   0  0  0  0  0  0  0  0  0  0  0  0
  194.8570  175.4830  145.6570 C   0  0  0  0  0  3  0  0  0  0  0  0
  192.7200  175.9970  146.6750 C   0  0  0  0  0  0  0  0  0  0  0  0
  194.3370  174.2820  145.1700 C   0  0  0  0  0  3  0  0  0  0  0  0
  192.1980  174.7910  146.1880 C   0  0  0  0  0  0  0  0  0  0  0  0
  193.0020  173.9280  145.4310 C   0  0  0  0  0  0  0  0  0  0  0  0
  194.5780  177.5350  146.8870 O   0  0  0  0  0  1  0  0  0  0  0  0
  194.0510  176.3410  146.4080 C   0  0  0  0  0  0  0  0  0  0  0  0
  188.1960  174.0410  141.4870 C   0  0  0  0  0  2  0  0  0  0  0  0
  188.9160  174.0650  140.1520 C   0  0  0  0  0  1  0  0  0  0  0  0
  188.2400  176.9260  142.1790 C   0  0  0  0  0  2  0  0  0  0  0  0
  185.8170  177.4040  145.0340 C   0  0  0  0  0  0  0  0  0  0  0  0
  187.2050  177.5190  143.0750 C   0  0  0  0  0  0  0  0  0  0  0  0
  185.7220  179.3740  143.6470 C   0  0  0  0  0  3  0  0  0  0  0  0
  184.3860  179.0250  145.7020 O   0  0  0  0  0  0  0  0  0  0  0  0
  184.2320  177.9980  146.6840 C   0  0  0  0  0  2  0  0  0  0  0  0
  186.6830  178.7990  142.7990 C   0  0  0  0  0  3  0  0  0  0  0  0
  186.1740  176.7240  147.2490 F   0  0  0  0  0  0  0  0  0  0  0  0
  185.3110  178.6410  144.7590 C   0  0  0  0  0  0  0  0  0  0  0  0
  185.2030  176.8680  146.2750 C   0  0  2  0  0  3  0  0  0  0  0  0
  186.7710  176.8090  144.2090 C   0  0  0  0  0  3  0  0  0  0  0  0
  1  3  1  0  0  0  0
  3  2  2  0  0  0  0
  4  7  1  0  0  0  0
  5  6  1  0  0  0  0
  5  4  1  0  0  0  0
  6  8  1  0  0  0  0
  7 10  1  1  0  0  0
  8  1  1  6  0  0  0
  9  8  1  0  0  0  0
  9  7  1  0  0  0  0
 10 17  1  0  0  0  0
 13 19  1  0  0  0  0
 14 11  1  0  0  0  0
 15 17  1  0  0  0  0
 15 13  2  0  0  0  0
 16 12  1  0  0  0  0
 16 14  1  0  0  0  0
 17 16  2  0  0  0  0
 19 14  2  0  0  0  0
 19 18  1  0  0  0  0
 20  1  1  0  0  0  0
 21 20  1  0  0  0  0
 22  3  1  0  0  0  0
 22 24  1  0  0  0  0
 23 31  1  0  0  0  0
 24 32  1  0  0  0  0
 25 30  2  0  0  0  0
 26 27  1  0  0  0  0
 28 24  2  0  0  0  0
 28 25  1  0  0  0  0
 30 23  1  0  0  0  0
 30 26  1  0  0  0  0
 31 27  1  0  0  0  0
 31 29  1  1  0  0  0
 32 23  2  0  0  0  0
M  END
>  <MODEL>
2

>  <REMARK>
 VINA RESULT:      -7.9      2.734      4.832
  Name = 
  6 active torsions:
  status: ('A' for Active; 'I' for Inactive)
    1  A    between atoms: N_4  and  C_23
    2  A    between atoms: N_4  and  C_24
    3  A    between atoms: C_6  and  C_7
    4  A    between atoms: C_7  and  C_31
    5  A    between atoms: O_14  and  C_19
    6  A    between atoms: O_14  and  C_22
                            x       y       z     vdW  Elec       q    Type
                         _______ _______ _______ _____ _____    ______ ____

>  <TORSDO>
F 6

$$$$
=
 OpenBabel11062420383D

 32 35  0  0  1  0  0  0  0  0999 V2000
  189.1620  174.6670  142.6800 N   0  0  0  0  0  0  0  0  0  0  0  0
  189.9640  176.5670  143.7870 O   0  0  0  0  0  0  0  0  0  0  0  0
  189.1810  176.0850  142.9230 C   0  0  0  0  0  0  0  0  0  0  0  0
  191.4400  171.3780  143.7350 C   0  0  0  0  0  2  0  0  0  0  0  0
  190.2740  171.4290  142.9510 O   0  0  0  0  0  0  0  0  0  0  0  0
  189.4290  172.3710  143.5680 C   0  0  0  0  0  2  0  0  0  0  0  0
  192.2810  172.6530  143.5640 C   0  0  1  0  0  3  0  0  0  0  0  0
  190.0140  173.7940  143.4860 C   0  0  1  0  0  3  0  0  0  0  0  0
  191.4540  173.7950  142.9580 C   0  0  0  0  0  2  0  0  0  0  0  0
  192.8030  173.0390  144.8310 O   0  0  0  0  0  0  0  0  0  0  0  0
  196.2200  176.3490  143.9730 O   0  0  0  0  0  1  0  0  0  0  0  0
  195.0920  173.8570  143.5220 F   0  0  0  0  0  0  0  0  0  0  0  0
  193.3030  176.4460  146.2360 C   0  0  0  0  0  3  0  0  0  0  0  0
  195.0660  175.9640  144.6460 C   0  0  0  0  0  0  0  0  0  0  0  0
  192.7450  175.1880  146.0000 C   0  0  0  0  0  3  0  0  0  0  0  0
  194.5060  174.7010  144.4090 C   0  0  0  0  0  0  0  0  0  0  0  0
  193.3440  174.3050  145.0860 C   0  0  0  0  0  0  0  0  0  0  0  0
  195.0100  178.0890  145.8040 O   0  0  0  0  0  1  0  0  0  0  0  0
  194.4620  176.8350  145.5610 C   0  0  0  0  0  0  0  0  0  0  0  0
  188.2050  174.0740  141.7470 C   0  0  0  0  0  2  0  0  0  0  0  0
  188.8000  174.0040  140.3530 C   0  0  0  0  0  1  0  0  0  0  0  0
  188.2700  177.0090  142.1760 C   0  0  0  0  0  2  0  0  0  0  0  0
  185.8540  177.4170  145.0470 C   0  0  0  0  0  0  0  0  0  0  0  0
  187.2230  177.5710  143.0780 C   0  0  0  0  0  0  0  0  0  0  0  0
  185.6860  179.3790  143.6570 C   0  0  0  0  0  3  0  0  0  0  0  0
  184.3780  178.9930  145.7230 O   0  0  0  0  0  0  0  0  0  0  0  0
  184.2630  177.9650  146.7080 C   0  0  0  0  0  2  0  0  0  0  0  0
  186.6590  178.8340  142.8030 C   0  0  0  0  0  3  0  0  0  0  0  0
  186.2490  176.7540  147.2610 F   0  0  0  0  0  0  0  0  0  0  0  0
  185.3070  178.6360  144.7740 C   0  0  0  0  0  0  0  0  0  0  0  0
  185.2670  176.8650  146.2940 C   0  0  2  0  0  3  0  0  0  0  0  0
  186.8200  176.8510  144.2160 C   0  0  0  0  0  3  0  0  0  0  0  0
  1  3  1  0  0  0  0
  3  2  2  0  0  0  0
  5  6  1  0  0  0  0
  5  4  1  0  0  0  0
  7  4  1  0  0  0  0
  7 10  1  1  0  0  0
  8  1  1  6  0  0  0
  8  6  1  0  0  0  0
  9  8  1  0  0  0  0
  9  7  1  0  0  0  0
 10 17  1  0  0  0  0
 11 14  1  0  0  0  0
 12 16  1  0  0  0  0
 14 19  1  0  0  0  0
 15 13  1  0  0  0  0
 16 14  2  0  0  0  0
 16 17  1  0  0  0  0
 17 15  2  0  0  0  0
 19 18  1  0  0  0  0
 19 13  2  0  0  0  0
 20  1  1  0  0  0  0
 21 20  1  0  0  0  0
 22  3  1  0  0  0  0
 22 24  1  0  0  0  0
 23 31  1  0  0  0  0
 24 32  1  0  0  0  0
 25 30  2  0  0  0  0
 26 27  1  0  0  0  0
 28 24  2  0  0  0  0
 28 25  1  0  0  0  0
 30 23  1  0  0  0  0
 30 26  1  0  0  0  0
 31 27  1  0  0  0  0
 31 29  1  1  0  0  0
 32 23  2  0  0  0  0
M  END
>  <MODEL>
3

>  <REMARK>
 VINA RESULT:      -7.8      2.807      4.846
  Name = 
  6 active torsions:
  status: ('A' for Active; 'I' for Inactive)
    1  A    between atoms: N_4  and  C_23
    2  A    between atoms: N_4  and  C_24
    3  A    between atoms: C_6  and  C_7
    4  A    between atoms: C_7  and  C_31
    5  A    between atoms: O_14  and  C_19
    6  A    between atoms: O_14  and  C_22
                            x       y       z     vdW  Elec       q    Type
                         _______ _______ _______ _____ _____    ______ ____

>  <TORSDO>
F 6

$$$$
=
 OpenBabel11062420383D

 32 35  0  0  1  0  0  0  0  0999 V2000
  190.9510  175.8290  146.2930 N   0  0  0  0  0  0  0  0  0  0  0  0
  189.8160  173.9200  145.5540 O   0  0  0  0  0  0  0  0  0  0  0  0
  189.8010  174.9650  146.2610 C   0  0  0  0  0  0  0  0  0  0  0  0
  194.7220  176.1330  144.6190 C   0  0  0  0  0  2  0  0  0  0  0  0
  193.8490  177.1600  145.0200 O   0  0  0  0  0  0  0  0  0  0  0  0
  192.5570  176.7420  144.6460 C   0  0  0  0  0  2  0  0  0  0  0  0
  194.5660  174.8910  145.5110 C   0  0  1  0  0  3  0  0  0  0  0  0
  192.1050  175.5120  145.4540 C   0  0  1  0  0  3  0  0  0  0  0  0
  193.2460  174.9210  146.2930 C   0  0  0  0  0  2  0  0  0  0  0  0
  194.6330  173.7230  144.6990 O   0  0  0  0  0  0  0  0  0  0  0  0
  193.7950  169.0390  145.5490 O   0  0  0  0  0  1  0  0  0  0  0  0
  192.9670  171.5230  144.6380 F   0  0  0  0  0  0  0  0  0  0  0  0
  196.8160  171.0800  146.1380 C   0  0  0  0  0  3  0  0  0  0  0  0
  194.6560  170.1300  145.5920 C   0  0  0  0  0  0  0  0  0  0  0  0
  196.3870  172.3260  145.6760 C   0  0  0  0  0  3  0  0  0  0  0  0
  194.2240  171.3810  145.1270 C   0  0  0  0  0  0  0  0  0  0  0  0
  195.0870  172.4850  145.1690 C   0  0  0  0  0  0  0  0  0  0  0  0
  196.3910  168.7470  146.5590 O   0  0  0  0  0  1  0  0  0  0  0  0
  195.9540  169.9830  146.0970 C   0  0  0  0  0  0  0  0  0  0  0  0
  190.9270  177.0880  147.0360 C   0  0  0  0  0  2  0  0  0  0  0  0
  191.5380  176.9020  148.4120 C   0  0  0  0  0  1  0  0  0  0  0  0
  188.5660  175.2910  147.0440 C   0  0  0  0  0  2  0  0  0  0  0  0
  187.0120  177.4940  144.4020 C   0  0  0  0  0  0  0  0  0  0  0  0
  187.7880  176.3800  146.3860 C   0  0  0  0  0  0  0  0  0  0  0  0
  186.3060  178.3140  146.5560 C   0  0  0  0  0  3  0  0  0  0  0  0
  185.6450  179.2970  144.3820 O   0  0  0  0  0  0  0  0  0  0  0  0
  185.9030  179.0410  143.0010 C   0  0  0  0  0  2  0  0  0  0  0  0
  187.0560  177.2960  147.1680 C   0  0  0  0  0  3  0  0  0  0  0  0
  186.1690  176.7570  142.3420 F   0  0  0  0  0  0  0  0  0  0  0  0
  186.3100  178.3810  145.1640 C   0  0  0  0  0  0  0  0  0  0  0  0
  186.8280  177.8030  142.9620 C   0  0  2  0  0  3  0  0  0  0  0  0
  187.7670  176.4750  144.9830 C   0  0  0  0  0  3  0  0  0  0  0  0
  1 20  1  0  0  0  0
  2  3  2  0  0  0  0
  3  1  1  0  0  0  0
  3 22  1  0  0  0  0
  4  5  1  0  0  0  0
  4  7  1  0  0  0  0
  6  5  1  0  0  0  0
  6  8  1  0  0  0  0
  7 10  1  6  0  0  0
  7  9  1  0  0  0  0
  8  9  1  0  0  0  0
  8  1  1  1  0  0  0
 10 17  1  0  0  0  0
 11 14  1  0  0  0  0
 12 16  1  0  0  0  0
 14 19  2  0  0  0  0
 15 13  2  0  0  0  0
 16 17  2  0  0  0  0
 16 14  1  0  0  0  0
 17 15  1  0  0  0  0
 19 13  1  0  0  0  0
 19 18  1  0  0  0  0
 20 21  1  0  0  0  0
 23 32  2  0  0  0  0
 23 30  1  0  0  0  0
 24 22  1  0  0  0  0
 24 28  2  0  0  0  0
 25 28  1  0  0  0  0
 26 30  1  0  0  0  0
 27 26  1  0  0  0  0
 30 25  2  0  0  0  0
 31 29  1  6  0  0  0
 31 27  1  0  0  0  0
 31 23  1  0  0  0  0
 32 24  1  0  0  0  0
M  END
>  <MODEL>
4

>  <REMARK>
 VINA RESULT:      -7.7      1.236      1.663
  Name = 
  6 active torsions:
  status: ('A' for Active; 'I' for Inactive)
    1  A    between atoms: N_4  and  C_23
    2  A    between atoms: N_4  and  C_24
    3  A    between atoms: C_6  and  C_7
    4  A    between atoms: C_7  and  C_31
    5  A    between atoms: O_14  and  C_19
    6  A    between atoms: O_14  and  C_22
                            x       y       z     vdW  Elec       q    Type
                         _______ _______ _______ _____ _____    ______ ____

>  <TORSDO>
F 6

$$$$
=
 OpenBabel11062420383D

 32 35  0  0  1  0  0  0  0  0999 V2000
  193.0870  175.1840  145.4590 N   0  0  0  0  0  0  0  0  0  0  0  0
  192.2060  173.8000  143.7900 O   0  0  0  0  0  0  0  0  0  0  0  0
  193.2290  174.2990  144.3330 C   0  0  0  0  0  0  0  0  0  0  0  0
  190.0810  176.9970  147.6490 C   0  0  0  0  0  2  0  0  0  0  0  0
  191.4340  176.8180  147.9870 O   0  0  0  0  0  0  0  0  0  0  0  0
  191.7830  175.5310  147.5340 C   0  0  0  0  0  2  0  0  0  0  0  0
  189.9070  177.1830  146.1330 C   0  0  1  0  0  3  0  0  0  0  0  0
  191.7530  175.4450  145.9970 C   0  0  1  0  0  3  0  0  0  0  0  0
  191.1430  176.7010  145.3610 C   0  0  0  0  0  2  0  0  0  0  0  0
  188.7500  176.4720  145.7070 O   0  0  0  0  0  0  0  0  0  0  0  0
  185.6150  179.3540  143.4210 O   0  0  0  0  0  1  0  0  0  0  0  0
  188.1150  178.1770  143.6310 F   0  0  0  0  0  0  0  0  0  0  0  0
  185.2300  177.3630  146.5070 C   0  0  0  0  0  3  0  0  0  0  0  0
  185.9060  178.4980  144.4770 C   0  0  0  0  0  0  0  0  0  0  0  0
  186.4930  176.7770  146.6020 C   0  0  0  0  0  3  0  0  0  0  0  0
  187.1750  177.9100  144.5710 C   0  0  0  0  0  0  0  0  0  0  0  0
  187.4760  177.0480  145.6350 C   0  0  0  0  0  0  0  0  0  0  0  0
  183.6740  178.8020  145.3630 O   0  0  0  0  0  1  0  0  0  0  0  0
  184.9340  178.2230  145.4480 C   0  0  0  0  0  0  0  0  0  0  0  0
  194.2590  175.7060  146.1590 C   0  0  0  0  0  2  0  0  0  0  0  0
  194.6050  177.0930  145.6490 C   0  0  0  0  0  1  0  0  0  0  0  0
  194.5800  173.9410  143.7960 C   0  0  0  0  0  2  0  0  0  0  0  0
  195.1110  170.7580  145.7530 C   0  0  0  0  0  0  0  0  0  0  0  0
  195.2180  172.8760  144.6230 C   0  0  0  0  0  0  0  0  0  0  0  0
  197.1840  171.9880  145.7690 C   0  0  0  0  0  3  0  0  0  0  0  0
  196.8310  169.7960  146.8650 O   0  0  0  0  0  0  0  0  0  0  0  0
  195.7540  168.8710  147.0250 C   0  0  0  0  0  2  0  0  0  0  0  0
  196.5700  172.9950  145.0060 C   0  0  0  0  0  3  0  0  0  0  0  0
  194.2150  168.6610  145.2070 F   0  0  0  0  0  0  0  0  0  0  0  0
  196.4170  170.8800  146.1260 C   0  0  0  0  0  0  0  0  0  0  0  0
  194.5530  169.4810  146.2680 C   0  0  2  0  0  3  0  0  0  0  0  0
  194.4750  171.7420  144.9970 C   0  0  0  0  0  3  0  0  0  0  0  0
  1 20  1  0  0  0  0
  2  3  2  0  0  0  0
  3  1  1  0  0  0  0
  4  5  1  0  0  0  0
  6  5  1  0  0  0  0
  7 10  1  6  0  0  0
  7  4  1  0  0  0  0
  8  1  1  6  0  0  0
  8  6  1  0  0  0  0
  9  8  1  0  0  0  0
  9  7  1  0  0  0  0
 11 14  1  0  0  0  0
 12 16  1  0  0  0  0
 13 15  1  0  0  0  0
 14 16  2  0  0  0  0
 14 19  1  0  0  0  0
 16 17  1  0  0  0  0
 17 10  1  0  0  0  0
 17 15  2  0  0  0  0
 18 19  1  0  0  0  0
 19 13  2  0  0  0  0
 21 20  1  0  0  0  0
 22  3  1  0  0  0  0
 22 24  1  0  0  0  0
 23 30  1  0  0  0  0
 23 31  1  0  0  0  0
 24 32  1  0  0  0  0
 24 28  2  0  0  0  0
 25 30  2  0  0  0  0
 26 27  1  0  0  0  0
 28 25  1  0  0  0  0
 30 26  1  0  0  0  0
 31 29  1  6  0  0  0
 31 27  1  0  0  0  0
 32 23  2  0  0  0  0
M  END
>  <MODEL>
5

>  <REMARK>
 VINA RESULT:      -7.5      1.934      9.788
  Name = 
  6 active torsions:
  status: ('A' for Active; 'I' for Inactive)
    1  A    between atoms: N_4  and  C_23
    2  A    between atoms: N_4  and  C_24
    3  A    between atoms: C_6  and  C_7
    4  A    between atoms: C_7  and  C_31
    5  A    between atoms: O_14  and  C_19
    6  A    between atoms: O_14  and  C_22
                            x       y       z     vdW  Elec       q    Type
                         _______ _______ _______ _____ _____    ______ ____

>  <TORSDO>
F 6

$$$$
=
 OpenBabel11062420383D

 32 35  0  0  1  0  0  0  0  0999 V2000
  189.7390  175.4710  142.7820 N   0  0  0  0  0  0  0  0  0  0  0  0
  189.9770  177.7980  142.7220 O   0  0  0  0  0  0  0  0  0  0  0  0
  189.2530  176.7930  142.4890 C   0  0  0  0  0  0  0  0  0  0  0  0
  193.6910  176.2450  143.7330 C   0  0  0  0  0  2  0  0  0  0  0  0
  193.0230  176.4390  142.5110 O   0  0  0  0  0  0  0  0  0  0  0  0
  192.1730  175.3290  142.3500 C   0  0  0  0  0  2  0  0  0  0  0  0
  192.7410  176.4510  144.9250 C   0  0  1  0  0  3  0  0  0  0  0  0
  191.0520  175.3160  143.4060 C   0  0  1  0  0  3  0  0  0  0  0  0
  191.2700  176.3790  144.4910 C   0  0  0  0  0  2  0  0  0  0  0  0
  193.0130  175.4640  145.9140 O   0  0  0  0  0  0  0  0  0  0  0  0
  194.5710  171.0120  144.8590 O   0  0  0  0  0  1  0  0  0  0  0  0
  192.5330  172.8780  145.0760 F   0  0  0  0  0  0  0  0  0  0  0  0
  196.4230  173.9850  146.0320 C   0  0  0  0  0  3  0  0  0  0  0  0
  194.8430  172.3080  145.2840 C   0  0  0  0  0  0  0  0  0  0  0  0
  195.3870  174.9150  146.1370 C   0  0  0  0  0  3  0  0  0  0  0  0
  193.8020  173.2420  145.3890 C   0  0  0  0  0  0  0  0  0  0  0  0
  194.0690  174.5500  145.8180 C   0  0  0  0  0  0  0  0  0  0  0  0
  197.1910  171.7640  145.5050 O   0  0  0  0  0  1  0  0  0  0  0  0
  196.1530  172.6830  145.6060 C   0  0  0  0  0  0  0  0  0  0  0  0
  188.8870  174.2970  142.6000 C   0  0  0  0  0  2  0  0  0  0  0  0
  189.3550  173.1610  143.4920 C   0  0  0  0  0  1  0  0  0  0  0  0
  187.8830  177.0040  141.9200 C   0  0  0  0  0  2  0  0  0  0  0  0
  185.8170  177.4300  145.0500 C   0  0  0  0  0  0  0  0  0  0  0  0
  186.9640  177.5810  142.9440 C   0  0  0  0  0  0  0  0  0  0  0  0
  185.5660  179.4270  143.7230 C   0  0  0  0  0  3  0  0  0  0  0  0
  184.4830  179.0410  145.9150 O   0  0  0  0  0  0  0  0  0  0  0  0
  184.4410  177.9960  146.8880 C   0  0  0  0  0  2  0  0  0  0  0  0
  186.4180  178.8680  142.7560 C   0  0  0  0  0  3  0  0  0  0  0  0
  186.4320  176.7060  147.1940 F   0  0  0  0  0  0  0  0  0  0  0  0
  185.2880  178.6730  144.8610 C   0  0  0  0  0  0  0  0  0  0  0  0
  185.3520  176.8720  146.3450 C   0  0  2  0  0  3  0  0  0  0  0  0
  186.6640  176.8500  144.1070 C   0  0  0  0  0  3  0  0  0  0  0  0
  3  2  2  0  0  0  0
  3  1  1  0  0  0  0
  4  7  1  0  0  0  0
  5  4  1  0  0  0  0
  6  5  1  0  0  0  0
  6  8  1  0  0  0  0
  7 10  1  1  0  0  0
  8  1  1  6  0  0  0
  8  9  1  0  0  0  0
  9  7  1  0  0  0  0
 11 14  1  0  0  0  0
 12 16  1  0  0  0  0
 13 15  1  0  0  0  0
 14 16  2  0  0  0  0
 14 19  1  0  0  0  0
 16 17  1  0  0  0  0
 17 10  1  0  0  0  0
 17 15  2  0  0  0  0
 18 19  1  0  0  0  0
 19 13  2  0  0  0  0
 20  1  1  0  0  0  0
 20 21  1  0  0  0  0
 22  3  1  0  0  0  0
 22 24  1  0  0  0  0
 23 31  1  0  0  0  0
 24 32  1  0  0  0  0
 25 30  2  0  0  0  0
 26 27  1  0  0  0  0
 28 24  2  0  0  0  0
 28 25  1  0  0  0  0
 30 23  1  0  0  0  0
 30 26  1  0  0  0  0
 31 27  1  0  0  0  0
 31 29  1  1  0  0  0
 32 23  2  0  0  0  0
M  END
>  <MODEL>
6

>  <REMARK>
 VINA RESULT:      -7.5      2.227      3.229
  Name = 
  6 active torsions:
  status: ('A' for Active; 'I' for Inactive)
    1  A    between atoms: N_4  and  C_23
    2  A    between atoms: N_4  and  C_24
    3  A    between atoms: C_6  and  C_7
    4  A    between atoms: C_7  and  C_31
    5  A    between atoms: O_14  and  C_19
    6  A    between atoms: O_14  and  C_22
                            x       y       z     vdW  Elec       q    Type
                         _______ _______ _______ _____ _____    ______ ____

>  <TORSDO>
F 6

$$$$
=
 OpenBabel11062420383D

 32 35  0  0  1  0  0  0  0  0999 V2000
  191.8420  176.3620  146.0610 N   0  0  0  0  0  0  0  0  0  0  0  0
  193.0260  177.1330  144.1950 O   0  0  0  0  0  0  0  0  0  0  0  0
  193.0570  176.7530  145.3970 C   0  0  0  0  0  0  0  0  0  0  0  0
  187.7760  176.2230  145.3110 C   0  0  0  0  0  2  0  0  0  0  0  0
  188.5120  175.5640  146.3110 O   0  0  0  0  0  0  0  0  0  0  0  0
  189.7130  175.1510  145.7040 C   0  0  0  0  0  2  0  0  0  0  0  0
  188.3960  177.5880  144.9730 C   0  0  1  0  0  3  0  0  0  0  0  0
  190.5890  176.3540  145.3080 C   0  0  1  0  0  3  0  0  0  0  0  0
  189.8460  177.6860  145.4680 C   0  0  0  0  0  2  0  0  0  0  0  0
  188.3400  177.7900  143.5650 O   0  0  0  0  0  0  0  0  0  0  0  0
  185.8030  177.2540  139.4860 O   0  0  0  0  0  1  0  0  0  0  0  0
  188.1380  176.9410  140.9460 F   0  0  0  0  0  0  0  0  0  0  0  0
  184.8410  178.7310  142.7320 C   0  0  0  0  0  3  0  0  0  0  0  0
  185.8750  177.6910  140.8050 C   0  0  0  0  0  0  0  0  0  0  0  0
  186.0240  178.5680  143.4560 C   0  0  0  0  0  3  0  0  0  0  0  0
  187.0630  177.5260  141.5310 C   0  0  0  0  0  0  0  0  0  0  0  0
  187.1440  177.9660  142.8600 C   0  0  0  0  0  0  0  0  0  0  0  0
  183.5830  178.4610  140.6950 O   0  0  0  0  0  1  0  0  0  0  0  0
  184.7650  178.2940  141.4080 C   0  0  0  0  0  0  0  0  0  0  0  0
  191.8640  175.8370  147.4260 C   0  0  0  0  0  2  0  0  0  0  0  0
  191.5050  176.9280  148.4170 C   0  0  0  0  0  1  0  0  0  0  0  0
  194.3760  176.7040  146.1060 C   0  0  0  0  0  2  0  0  0  0  0  0
  196.3380  173.5400  145.4820 C   0  0  0  0  0  0  0  0  0  0  0  0
  195.2820  175.6990  145.4780 C   0  0  0  0  0  0  0  0  0  0  0  0
  196.7370  175.0340  143.6320 C   0  0  0  0  0  3  0  0  0  0  0  0
  197.7150  172.7710  143.8600 O   0  0  0  0  0  0  0  0  0  0  0  0
  197.6680  171.7050  144.8100 C   0  0  0  0  0  2  0  0  0  0  0  0
  195.8970  175.9810  144.2410 C   0  0  0  0  0  3  0  0  0  0  0  0
  195.6060  171.3680  145.9730 F   0  0  0  0  0  0  0  0  0  0  0  0
  196.9340  173.8190  144.2880 C   0  0  0  0  0  0  0  0  0  0  0  0
  196.7240  172.1810  145.9370 C   0  0  2  0  0  3  0  0  0  0  0  0
  195.5000  174.4620  146.1090 C   0  0  0  0  0  3  0  0  0  0  0  0
  1 20  1  0  0  0  0
  2  3  2  0  0  0  0
  3  1  1  0  0  0  0
  3 22  1  0  0  0  0
  4  5  1  0  0  0  0
  6  5  1  0  0  0  0
  7 10  1  6  0  0  0
  7  4  1  0  0  0  0
  7  9  1  0  0  0  0
  8  9  1  0  0  0  0
  8  6  1  0  0  0  0
  8  1  1  1  0  0  0
 11 14  1  0  0  0  0
 12 16  1  0  0  0  0
 13 15  1  0  0  0  0
 14 19  1  0  0  0  0
 14 16  2  0  0  0  0
 16 17  1  0  0  0  0
 17 15  2  0  0  0  0
 17 10  1  0  0  0  0
 18 19  1  0  0  0  0
 19 13  2  0  0  0  0
 20 21  1  0  0  0  0
 23 31  1  0  0  0  0
 23 32  1  0  0  0  0
 24 22  1  0  0  0  0
 24 32  2  0  0  0  0
 25 28  2  0  0  0  0
 25 30  1  0  0  0  0
 26 30  1  0  0  0  0
 26 27  1  0  0  0  0
 27 31  1  0  0  0  0
 28 24  1  0  0  0  0
 30 23  2  0  0  0  0
 31 29  1  6  0  0  0
M  END
>  <MODEL>
7

>  <REMARK>
 VINA RESULT:      -7.5      2.718      9.889
  Name = 
  6 active torsions:
  status: ('A' for Active; 'I' for Inactive)
    1  A    between atoms: N_4  and  C_23
    2  A    between atoms: N_4  and  C_24
    3  A    between atoms: C_6  and  C_7
    4  A    between atoms: C_7  and  C_31
    5  A    between atoms: O_14  and  C_19
    6  A    between atoms: O_14  and  C_22
                            x       y       z     vdW  Elec       q    Type
                         _______ _______ _______ _____ _____    ______ ____

>  <TORSDO>
F 6

$$$$
=
 OpenBabel11062420383D

 32 35  0  0  1  0  0  0  0  0999 V2000
  192.1040  176.5570  145.7680 N   0  0  0  0  0  0  0  0  0  0  0  0
  193.3060  176.1920  143.7950 O   0  0  0  0  0  0  0  0  0  0  0  0
  193.3240  176.2990  145.0510 C   0  0  0  0  0  0  0  0  0  0  0  0
  188.1300  175.9150  144.8140 C   0  0  0  0  0  2  0  0  0  0  0  0
  189.0420  175.0400  145.4300 O   0  0  0  0  0  0  0  0  0  0  0  0
  190.2700  175.2280  144.7680 C   0  0  0  0  0  2  0  0  0  0  0  0
  188.4220  177.3770  145.1890 C   0  0  1  0  0  3  0  0  0  0  0  0
  190.8440  176.6330  145.0300 C   0  0  1  0  0  3  0  0  0  0  0  0
  189.8400  177.5410  145.7520 C   0  0  0  0  0  2  0  0  0  0  0  0
  188.2500  178.1960  144.0370 O   0  0  0  0  0  0  0  0  0  0  0  0
  186.0320  177.6800  139.7740 O   0  0  0  0  0  1  0  0  0  0  0  0
  188.3230  177.6450  141.3340 F   0  0  0  0  0  0  0  0  0  0  0  0
  184.6710  178.5490  143.0950 C   0  0  0  0  0  3  0  0  0  0  0  0
  185.9650  177.9620  141.1340 C   0  0  0  0  0  0  0  0  0  0  0  0
  185.8320  178.5280  143.8700 C   0  0  0  0  0  3  0  0  0  0  0  0
  187.1320  177.9400  141.9110 C   0  0  0  0  0  0  0  0  0  0  0  0
  187.0720  178.2250  143.2820 C   0  0  0  0  0  0  0  0  0  0  0  0
  183.5730  178.2920  140.9670 O   0  0  0  0  0  1  0  0  0  0  0  0
  184.7350  178.2670  141.7300 C   0  0  0  0  0  0  0  0  0  0  0  0
  192.0830  176.6000  147.2300 C   0  0  0  0  0  2  0  0  0  0  0  0
  191.6190  175.2690  147.7910 C   0  0  0  0  0  1  0  0  0  0  0  0
  194.6260  176.1370  145.7730 C   0  0  0  0  0  2  0  0  0  0  0  0
  194.6070  172.3830  145.3850 C   0  0  0  0  0  0  0  0  0  0  0  0
  195.0620  174.7100  145.7740 C   0  0  0  0  0  0  0  0  0  0  0  0
  196.8090  173.0380  146.1180 C   0  0  0  0  0  3  0  0  0  0  0  0
  196.1050  170.7090  145.6610 O   0  0  0  0  0  0  0  0  0  0  0  0
  194.9140  170.0430  145.2390 C   0  0  0  0  0  2  0  0  0  0  0  0
  196.3840  174.3770  146.1320 C   0  0  0  0  0  3  0  0  0  0  0  0
  193.5050  171.1970  143.6890 F   0  0  0  0  0  0  0  0  0  0  0  0
  195.8860  172.0650  145.7380 C   0  0  0  0  0  0  0  0  0  0  0  0
  193.8590  171.1520  145.0250 C   0  0  2  0  0  3  0  0  0  0  0  0
  194.1580  173.7030  145.3920 C   0  0  0  0  0  3  0  0  0  0  0  0
  1 20  1  0  0  0  0
  2  3  2  0  0  0  0
  3  1  1  0  0  0  0
  3 22  1  0  0  0  0
  4  7  1  0  0  0  0
  4  5  1  0  0  0  0
  6  8  1  0  0  0  0
  6  5  1  0  0  0  0
  7 10  1  6  0  0  0
  7  9  1  0  0  0  0
  8  9  1  0  0  0  0
  8  1  1  1  0  0  0
 11 14  1  0  0  0  0
 12 16  1  0  0  0  0
 13 15  1  0  0  0  0
 14 19  1  0  0  0  0
 14 16  2  0  0  0  0
 16 17  1  0  0  0  0
 17 15  2  0  0  0  0
 17 10  1  0  0  0  0
 18 19  1  0  0  0  0
 19 13  2  0  0  0  0
 20 21  1  0  0  0  0
 22 24  1  0  0  0  0
 23 32  2  0  0  0  0
 23 30  1  0  0  0  0
 24 28  2  0  0  0  0
 25 28  1  0  0  0  0
 26 30  1  0  0  0  0
 27 26  1  0  0  0  0
 30 25  2  0  0  0  0
 31 29  1  6  0  0  0
 31 27  1  0  0  0  0
 31 23  1  0  0  0  0
 32 24  1  0  0  0  0
M  END
>  <MODEL>
8

>  <REMARK>
 VINA RESULT:      -7.5      2.399      9.652
  Name = 
  6 active torsions:
  status: ('A' for Active; 'I' for Inactive)
    1  A    between atoms: N_4  and  C_23
    2  A    between atoms: N_4  and  C_24
    3  A    between atoms: C_6  and  C_7
    4  A    between atoms: C_7  and  C_31
    5  A    between atoms: O_14  and  C_19
    6  A    between atoms: O_14  and  C_22
                            x       y       z     vdW  Elec       q    Type
                         _______ _______ _______ _____ _____    ______ ____

>  <TORSDO>
F 6

$$$$
=
 OpenBabel11062420383D

 32 35  0  0  1  0  0  0  0  0999 V2000
  190.1910  176.3650  144.8760 N   0  0  0  0  0  0  0  0  0  0  0  0
  191.1030  174.3070  145.5160 O   0  0  0  0  0  0  0  0  0  0  0  0
  191.1900  175.5650  145.5320 C   0  0  0  0  0  0  0  0  0  0  0  0
  186.7180  175.8950  142.6780 C   0  0  0  0  0  2  0  0  0  0  0  0
  187.1080  176.9740  143.4910 O   0  0  0  0  0  0  0  0  0  0  0  0
  187.7290  176.4070  144.6200 C   0  0  0  0  0  2  0  0  0  0  0  0
  187.9340  175.2290  142.0160 C   0  0  1  0  0  3  0  0  0  0  0  0
  189.0480  175.7050  144.2480 C   0  0  1  0  0  3  0  0  0  0  0  0
  189.2400  175.6070  142.7290 C   0  0  0  0  0  2  0  0  0  0  0  0
  187.7570  173.8160  142.0290 O   0  0  0  0  0  0  0  0  0  0  0  0
  191.0790  170.3410  142.5250 O   0  0  0  0  0  1  0  0  0  0  0  0
  189.2720  172.1390  143.6140 F   0  0  0  0  0  0  0  0  0  0  0  0
  189.7260  171.9480  139.4880 C   0  0  0  0  0  3  0  0  0  0  0  0
  190.3290  171.1740  141.7020 C   0  0  0  0  0  0  0  0  0  0  0  0
  188.8190  172.8490  140.0490 C   0  0  0  0  0  3  0  0  0  0  0  0
  189.4180  172.0780  142.2660 C   0  0  0  0  0  0  0  0  0  0  0  0
  188.6600  172.9220  141.4430 C   0  0  0  0  0  0  0  0  0  0  0  0
  191.3820  170.2180  139.7430 O   0  0  0  0  0  1  0  0  0  0  0  0
  190.4810  171.1110  140.3110 C   0  0  0  0  0  0  0  0  0  0  0  0
  190.2230  177.8250  144.9540 C   0  0  0  0  0  2  0  0  0  0  0  0
  190.9430  178.4030  143.7500 C   0  0  0  0  0  1  0  0  0  0  0  0
  192.3380  176.2010  146.2550 C   0  0  0  0  0  2  0  0  0  0  0  0
  195.7530  174.7350  145.5970 C   0  0  0  0  0  0  0  0  0  0  0  0
  193.6340  175.8680  145.5960 C   0  0  0  0  0  0  0  0  0  0  0  0
  195.1260  176.0400  143.6690 C   0  0  0  0  0  3  0  0  0  0  0  0
  197.2520  174.7940  143.9020 O   0  0  0  0  0  0  0  0  0  0  0  0
  197.8770  173.9730  144.8910 C   0  0  0  0  0  2  0  0  0  0  0  0
  193.9160  176.3630  144.3060 C   0  0  0  0  0  3  0  0  0  0  0  0
  196.4530  172.5860  146.2200 F   0  0  0  0  0  0  0  0  0  0  0  0
  196.0230  175.2200  144.3510 C   0  0  0  0  0  0  0  0  0  0  0  0
  196.8810  173.8930  146.0700 C   0  0  2  0  0  3  0  0  0  0  0  0
  194.5610  175.0410  146.2530 C   0  0  0  0  0  3  0  0  0  0  0  0
  1 20  1  0  0  0  0
  1  3  1  0  0  0  0
  2  3  2  0  0  0  0
  3 22  1  0  0  0  0
  4  5  1  0  0  0  0
  5  6  1  0  0  0  0
  7 10  1  1  0  0  0
  7  4  1  0  0  0  0
  7  9  1  0  0  0  0
  8  6  1  0  0  0  0
  8  1  1  1  0  0  0
  9  8  1  0  0  0  0
 13 15  2  0  0  0  0
 13 19  1  0  0  0  0
 14 16  1  0  0  0  0
 14 11  1  0  0  0  0
 15 17  1  0  0  0  0
 16 12  1  0  0  0  0
 17 10  1  0  0  0  0
 17 16  2  0  0  0  0
 18 19  1  0  0  0  0
 19 14  2  0  0  0  0
 21 20  1  0  0  0  0
 23 31  1  0  0  0  0
 23 32  1  0  0  0  0
 24 32  2  0  0  0  0
 24 22  1  0  0  0  0
 25 28  2  0  0  0  0
 25 30  1  0  0  0  0
 26 30  1  0  0  0  0
 26 27  1  0  0  0  0
 27 31  1  0  0  0  0
 28 24  1  0  0  0  0
 30 23  2  0  0  0  0
 31 29  1  6  0  0  0
M  END
>  <MODEL>
9

>  <REMARK>
 VINA RESULT:      -7.4      3.514      7.877
  Name = 
  6 active torsions:
  status: ('A' for Active; 'I' for Inactive)
    1  A    between atoms: N_4  and  C_23
    2  A    between atoms: N_4  and  C_24
    3  A    between atoms: C_6  and  C_7
    4  A    between atoms: C_7  and  C_31
    5  A    between atoms: O_14  and  C_19
    6  A    between atoms: O_14  and  C_22
                            x       y       z     vdW  Elec       q    Type
                         _______ _______ _______ _____ _____    ______ ____

>  <TORSDO>
F 6

$$$$
