=
 OpenBabel11072409273D

 39 41  0  0  1  0  0  0  0  0999 V2000
  192.4840  175.9230  144.1010 C   0  0  2  0  0  3  0  0  0  0  0  0
  191.8810  173.9880  141.2040 C   0  0  0  0  0  0  0  0  0  0  0  0
  188.9880  174.8510  142.9280 C   0  0  0  0  0  2  0  0  0  0  0  0
  192.6750  174.5170  143.5370 C   0  0  2  0  0  3  0  0  0  0  0  0
  189.4390  172.2540  138.2440 N   0  0  0  0  0  1  0  0  0  0  0  0
  189.4240  172.4430  143.4830 C   0  0  0  0  0  1  0  0  0  0  0  0
  190.5810  173.5370  141.5460 C   0  0  0  0  0  0  0  0  0  0  0  0
  189.7700  172.9700  140.5500 C   0  0  0  0  0  3  0  0  0  0  0  0
  194.0600  174.4480  144.2000 C   0  0  2  0  0  3  0  0  0  0  0  0
  193.6170  174.2740  139.4950 N   0  0  0  0  0  1  0  0  0  0  0  0
  190.0380  176.5420  144.4180 C   0  0  0  0  0  2  0  0  0  0  0  0
  188.9200  175.5020  144.3050 C   0  0  1  0  0  3  0  0  0  0  0  0
  191.5020  173.2760  138.9440 N   0  0  0  0  0  0  0  0  0  0  0  0
  192.7710  174.5850  142.1140 O   0  0  0  0  0  0  0  0  0  0  0  0
  191.1040  174.8550  145.8290 O   0  0  0  0  0  1  0  0  0  0  0  0
  193.8840  175.8650  144.7320 C   0  0  2  0  0  3  0  0  0  0  0  0
  190.2540  172.8410  139.2500 C   0  0  0  0  0  0  0  0  0  0  0  0
  192.3130  173.8420  139.8750 C   0  0  0  0  0  0  0  0  0  0  0  0
  191.3130  176.0320  145.0960 C   0  0  1  0  0  3  0  0  0  0  0  0
  190.0120  173.7280  142.9190 C   0  0  1  0  0  3  0  0  0  0  0  0
  195.2050  174.3330  143.2270 C   0  0  0  0  0  0  0  0  0  0  0  0
  195.6090  173.2050  142.8310 O   0  0  0  0  0  0  0  0  0  0  0  0
  195.8490  175.4900  142.7990 O   0  0  0  0  0  0  0  0  0  0  0  0
  197.0460  175.8280  143.2950 O   0  0  0  0  0  1  0  0  0  0  0  0
  187.5460  176.1620  144.5300 C   0  0  1  0  0  3  0  0  0  0  0  0
  186.7500  177.1160  146.7450 C   0  0  0  0  0  1  0  0  0  0  0  0
  187.6150  177.3370  145.5120 C   0  0  0  0  0  2  0  0  0  0  0  0
  186.9140  176.6300  143.2200 C   0  0  0  0  0  2  0  0  0  0  0  0
  187.0680  178.0110  143.0670 O   0  0  0  0  0  0  0  0  0  0  0  0
  185.9490  178.4080  142.3350 C   0  0  0  0  0  2  0  0  0  0  0  0
  184.6850  178.1560  143.1400 C   0  0  1  0  0  3  0  0  0  0  0  0
  183.9100  178.8820  145.2960 O   0  0  0  0  0  1  0  0  0  0  0  0
  184.5990  179.1350  144.2720 C   0  0  0  0  0  0  0  0  0  0  0  0
  185.2960  180.3380  144.1960 O   0  0  0  0  0  0  0  0  0  0  0  0
  183.5640  178.2540  142.3080 O   0  0  0  0  0  0  0  0  0  0  0  0
  184.0830  178.2580  141.0100 C   0  0  0  0  0  1  0  0  0  0  0  0
  193.9230  175.8750  146.2590 C   0  0  0  0  0  2  0  0  0  0  0  0
  194.3910  177.2250  146.7770 C   0  0  0  0  0  2  0  0  0  0  0  0
  194.9410  177.9720  145.7350 O   0  0  0  0  0  1  0  0  0  0  0  0
  1 16  1  0  0  0  0
  1 19  1  0  0  0  0
  2  7  1  0  0  0  0
  2 14  1  0  0  0  0
  3 12  1  0  0  0  0
  4  1  1  0  0  0  0
  4  9  1  0  0  0  0
  5 17  1  0  0  0  0
  7 20  1  0  0  0  0
  8  7  2  0  0  0  0
  9 16  1  0  0  0  0
 10 18  1  0  0  0  0
 11 19  1  0  0  0  0
 12 11  1  0  0  0  0
 12 25  1  0  0  0  0
 13 17  2  0  0  0  0
 13 18  1  0  0  0  0
 14  4  1  0  0  0  0
 16 37  1  0  0  0  0
 17  8  1  0  0  0  0
 18  2  2  0  0  0  0
 19 15  1  0  0  0  0
 20  3  1  0  0  0  0
 20  6  1  0  0  0  0
 21  9  1  0  0  0  0
 22 21  2  0  0  0  0
 23 21  1  0  0  0  0
 23 24  1  0  0  0  0
 25 27  1  0  0  0  0
 27 26  1  0  0  0  0
 28 25  1  0  0  0  0
 29 28  1  0  0  0  0
 30 29  1  0  0  0  0
 30 31  1  0  0  0  0
 31 33  1  0  0  0  0
 33 32  1  0  0  0  0
 34 33  2  0  0  0  0
 35 31  1  0  0  0  0
 36 35  1  0  0  0  0
 37 38  1  0  0  0  0
 39 38  1  0  0  0  0
M  END
>  <MODEL>
1

>  <REMARK>
 VINA RESULT:      -6.6      0.000      0.000
  Name = 
  12 active torsions:
  status: ('A' for Active; 'I' for Inactive)
    1  A    between atoms: C_1  and  C_34
    2  A    between atoms: O_5  and  C_9
    3  A    between atoms: O_5  and  C_18
    4  A    between atoms: C_7  and  O_10
    5  A    between atoms: C_7  and  C_20
    6  A    between atoms: C_9  and  C_12
    7  A    between atoms: C_12  and  C_24
    8  A    between atoms: C_12  and  C_29
    9  A    between atoms: C_13  and  C_38
   10  A    between atoms: O_17  and  C_38
   11  A    between atoms: C_18  and  C_38
   12  A    between atoms: C_28  and  C_34
                            x       y       z     vdW  Elec       q    Type
                         _______ _______ _______ _____ _____    ______ ____

>  <TORSDO>
F 12

$$$$
=
 OpenBabel11072409273D

 39 41  0  0  1  0  0  0  0  0999 V2000
  191.4190  176.5370  145.3480 C   0  0  2  0  0  3  0  0  0  0  0  0
  192.6160  174.7960  142.5130 C   0  0  0  0  0  0  0  0  0  0  0  0
  189.2740  175.7200  142.2690 C   0  0  0  0  0  2  0  0  0  0  0  0
  191.8890  175.1550  144.9000 C   0  0  2  0  0  3  0  0  0  0  0  0
  192.3670  173.3580  138.5630 N   0  0  0  0  0  1  0  0  0  0  0  0
  189.2700  173.2660  142.7910 C   0  0  0  0  0  1  0  0  0  0  0  0
  191.3590  174.3980  141.9920 C   0  0  0  0  0  0  0  0  0  0  0  0
  191.2840  173.9300  140.6710 C   0  0  0  0  0  3  0  0  0  0  0  0
  192.6160  174.9760  146.2420 C   0  0  2  0  0  3  0  0  0  0  0  0
  195.0300  175.0780  142.1760 N   0  0  0  0  0  1  0  0  0  0  0  0
  189.2640  177.2690  144.2140 C   0  0  0  0  0  2  0  0  0  0  0  0
  188.4150  176.3000  143.3880 C   0  0  1  0  0  3  0  0  0  0  0  0
  193.6340  174.2270  140.4150 N   0  0  0  0  0  0  0  0  0  0  0  0
  192.8060  175.2940  143.8140 O   0  0  0  0  0  0  0  0  0  0  0  0
  189.2730  175.4540  145.8500 O   0  0  0  0  0  1  0  0  0  0  0  0
  192.1770  176.3690  146.6740 C   0  0  2  0  0  3  0  0  0  0  0  0
  192.4390  173.8450  139.8970 C   0  0  0  0  0  0  0  0  0  0  0  0
  193.7470  174.6980  141.6850 C   0  0  0  0  0  0  0  0  0  0  0  0
  189.8880  176.6560  145.4710 C   0  0  1  0  0  3  0  0  0  0  0  0
  190.0920  174.5460  142.7790 C   0  0  1  0  0  3  0  0  0  0  0  0
  194.1130  174.8510  146.1210 C   0  0  0  0  0  0  0  0  0  0  0  0
  194.8670  175.8380  146.3430 O   0  0  0  0  0  0  0  0  0  0  0  0
  194.6600  173.6380  145.7140 O   0  0  0  0  0  0  0  0  0  0  0  0
  195.9850  173.4420  145.7470 O   0  0  0  0  0  1  0  0  0  0  0  0
  187.1810  177.0190  142.8120 C   0  0  1  0  0  3  0  0  0  0  0  0
  186.0720  177.8870  140.6980 C   0  0  0  0  0  1  0  0  0  0  0  0
  187.1350  176.9660  141.2810 C   0  0  0  0  0  2  0  0  0  0  0  0
  185.8760  176.4640  143.3800 C   0  0  0  0  0  2  0  0  0  0  0  0
  185.8630  176.5660  144.7740 O   0  0  0  0  0  0  0  0  0  0  0  0
  184.9020  177.5410  145.0430 C   0  0  0  0  0  2  0  0  0  0  0  0
  185.4690  178.5840  145.9920 C   0  0  1  0  0  3  0  0  0  0  0  0
  187.4820  178.2890  147.2700 O   0  0  0  0  0  0  0  0  0  0  0  0
  186.3010  177.9140  147.0440 C   0  0  0  0  0  0  0  0  0  0  0  0
  185.7610  176.8680  147.7870 O   0  0  0  0  0  1  0  0  0  0  0  0
  186.2260  179.5160  145.2740 O   0  0  0  0  0  0  0  0  0  0  0  0
  185.3650  179.9870  144.2800 C   0  0  0  0  0  1  0  0  0  0  0  0
  191.3090  176.2950  147.9280 C   0  0  0  0  0  2  0  0  0  0  0  0
  191.6030  177.4620  148.8570 C   0  0  0  0  0  2  0  0  0  0  0  0
  190.5710  178.4000  148.7870 O   0  0  0  0  0  1  0  0  0  0  0  0
  1 19  1  0  0  0  0
  1 16  1  0  0  0  0
  2 14  1  0  0  0  0
  3 20  1  0  0  0  0
  3 12  1  0  0  0  0
  4  1  1  0  0  0  0
  4  9  1  0  0  0  0
  5 17  1  0  0  0  0
  7  2  1  0  0  0  0
  7 20  1  0  0  0  0
  8  7  2  0  0  0  0
  9 16  1  0  0  0  0
 11 19  1  0  0  0  0
 12 11  1  0  0  0  0
 13 18  1  0  0  0  0
 14  4  1  0  0  0  0
 16 37  1  0  0  0  0
 17 13  2  0  0  0  0
 17  8  1  0  0  0  0
 18 10  1  0  0  0  0
 18  2  2  0  0  0  0
 19 15  1  0  0  0  0
 20  6  1  0  0  0  0
 21  9  1  0  0  0  0
 21 22  2  0  0  0  0
 23 24  1  0  0  0  0
 23 21  1  0  0  0  0
 25 28  1  0  0  0  0
 25 12  1  0  0  0  0
 26 27  1  0  0  0  0
 27 25  1  0  0  0  0
 28 29  1  0  0  0  0
 29 30  1  0  0  0  0
 30 31  1  0  0  0  0
 31 33  1  0  0  0  0
 33 32  2  0  0  0  0
 33 34  1  0  0  0  0
 35 31  1  0  0  0  0
 36 35  1  0  0  0  0
 37 38  1  0  0  0  0
 39 38  1  0  0  0  0
M  END
>  <MODEL>
2

>  <REMARK>
 VINA RESULT:      -6.6      2.048      3.043
  Name = 
  12 active torsions:
  status: ('A' for Active; 'I' for Inactive)
    1  A    between atoms: C_1  and  C_34
    2  A    between atoms: O_5  and  C_9
    3  A    between atoms: O_5  and  C_18
    4  A    between atoms: C_7  and  O_10
    5  A    between atoms: C_7  and  C_20
    6  A    between atoms: C_9  and  C_12
    7  A    between atoms: C_12  and  C_24
    8  A    between atoms: C_12  and  C_29
    9  A    between atoms: C_13  and  C_38
   10  A    between atoms: O_17  and  C_38
   11  A    between atoms: C_18  and  C_38
   12  A    between atoms: C_28  and  C_34
                            x       y       z     vdW  Elec       q    Type
                         _______ _______ _______ _____ _____    ______ ____

>  <TORSDO>
F 12

$$$$
=
 OpenBabel11072409273D

 39 41  0  0  1  0  0  0  0  0999 V2000
  192.6200  175.9290  144.1300 C   0  0  2  0  0  3  0  0  0  0  0  0
  191.8230  174.0070  141.2720 C   0  0  0  0  0  0  0  0  0  0  0  0
  189.0370  175.0290  143.0820 C   0  0  0  0  0  2  0  0  0  0  0  0
  192.7210  174.5110  143.5720 C   0  0  2  0  0  3  0  0  0  0  0  0
  189.1980  172.3790  138.4090 N   0  0  0  0  0  1  0  0  0  0  0  0
  189.3680  172.6070  143.6440 C   0  0  0  0  0  1  0  0  0  0  0  0
  190.5140  173.6250  141.6600 C   0  0  0  0  0  0  0  0  0  0  0  0
  189.6430  173.0940  140.6970 C   0  0  0  0  0  3  0  0  0  0  0  0
  194.1220  174.3770  144.1900 C   0  0  2  0  0  3  0  0  0  0  0  0
  193.5140  174.1910  139.5040 N   0  0  0  0  0  1  0  0  0  0  0  0
  190.2210  176.6750  144.5220 C   0  0  0  0  0  2  0  0  0  0  0  0
  189.0480  175.6940  144.4550 C   0  0  1  0  0  3  0  0  0  0  0  0
  191.3340  173.2990  139.0320 N   0  0  0  0  0  0  0  0  0  0  0  0
  192.7730  174.5640  142.1470 O   0  0  0  0  0  0  0  0  0  0  0  0
  191.2460  174.9460  145.9110 O   0  0  0  0  0  1  0  0  0  0  0  0
  194.0360  175.8040  144.7150 C   0  0  2  0  0  3  0  0  0  0  0  0
  190.0750  172.9310  139.3830 C   0  0  0  0  0  0  0  0  0  0  0  0
  192.2030  173.8290  139.9310 C   0  0  0  0  0  0  0  0  0  0  0  0
  191.4900  176.1060  145.1620 C   0  0  1  0  0  3  0  0  0  0  0  0
  190.0010  173.8560  143.0500 C   0  0  1  0  0  3  0  0  0  0  0  0
  195.2260  174.1960  143.1810 C   0  0  0  0  0  0  0  0  0  0  0  0
  195.5640  173.0450  142.7880 O   0  0  0  0  0  0  0  0  0  0  0  0
  195.9070  175.3160  142.7150 O   0  0  0  0  0  0  0  0  0  0  0  0
  196.0260  175.5440  141.4000 O   0  0  0  0  0  1  0  0  0  0  0  0
  187.7180  176.4240  144.7180 C   0  0  1  0  0  3  0  0  0  0  0  0
  185.9020  176.8820  146.4350 C   0  0  0  0  0  1  0  0  0  0  0  0
  187.3360  176.4260  146.2030 C   0  0  0  0  0  2  0  0  0  0  0  0
  187.7400  177.8610  144.1980 C   0  0  0  0  0  2  0  0  0  0  0  0
  187.4020  177.8970  142.8420 O   0  0  0  0  0  0  0  0  0  0  0  0
  186.1400  177.3050  142.7810 C   0  0  0  0  0  2  0  0  0  0  0  0
  185.1060  178.3280  142.3390 C   0  0  1  0  0  3  0  0  0  0  0  0
  185.7430  177.7450  140.0970 O   0  0  0  0  0  0  0  0  0  0  0  0
  184.8510  178.1900  140.8690 C   0  0  0  0  0  0  0  0  0  0  0  0
  183.6120  178.5490  140.3470 O   0  0  0  0  0  1  0  0  0  0  0  0
  183.9260  178.1560  143.0700 O   0  0  0  0  0  0  0  0  0  0  0  0
  184.0500  179.0220  144.1590 C   0  0  0  0  0  1  0  0  0  0  0  0
  194.1260  175.8230  146.2390 C   0  0  0  0  0  2  0  0  0  0  0  0
  194.4220  177.2260  146.7440 C   0  0  0  0  0  2  0  0  0  0  0  0
  194.9830  177.9930  145.7220 O   0  0  0  0  0  1  0  0  0  0  0  0
  1 16  1  0  0  0  0
  1 19  1  0  0  0  0
  2  7  1  0  0  0  0
  2 14  1  0  0  0  0
  3 12  1  0  0  0  0
  4  1  1  0  0  0  0
  4  9  1  0  0  0  0
  5 17  1  0  0  0  0
  7 20  1  0  0  0  0
  8  7  2  0  0  0  0
  9 16  1  0  0  0  0
 10 18  1  0  0  0  0
 11 19  1  0  0  0  0
 12 11  1  0  0  0  0
 12 25  1  0  0  0  0
 13 17  2  0  0  0  0
 13 18  1  0  0  0  0
 14  4  1  0  0  0  0
 16 37  1  0  0  0  0
 17  8  1  0  0  0  0
 18  2  2  0  0  0  0
 19 15  1  0  0  0  0
 20  3  1  0  0  0  0
 20  6  1  0  0  0  0
 21  9  1  0  0  0  0
 22 21  2  0  0  0  0
 23 21  1  0  0  0  0
 24 23  1  0  0  0  0
 25 27  1  0  0  0  0
 27 26  1  0  0  0  0
 28 25  1  0  0  0  0
 29 28  1  0  0  0  0
 30 29  1  0  0  0  0
 31 30  1  0  0  0  0
 31 35  1  0  0  0  0
 32 33  2  0  0  0  0
 33 31  1  0  0  0  0
 34 33  1  0  0  0  0
 35 36  1  0  0  0  0
 37 38  1  0  0  0  0
 39 38  1  0  0  0  0
M  END
>  <MODEL>
3

>  <REMARK>
 VINA RESULT:      -6.5      0.795      1.518
  Name = 
  12 active torsions:
  status: ('A' for Active; 'I' for Inactive)
    1  A    between atoms: C_1  and  C_34
    2  A    between atoms: O_5  and  C_9
    3  A    between atoms: O_5  and  C_18
    4  A    between atoms: C_7  and  O_10
    5  A    between atoms: C_7  and  C_20
    6  A    between atoms: C_9  and  C_12
    7  A    between atoms: C_12  and  C_24
    8  A    between atoms: C_12  and  C_29
    9  A    between atoms: C_13  and  C_38
   10  A    between atoms: O_17  and  C_38
   11  A    between atoms: C_18  and  C_38
   12  A    between atoms: C_28  and  C_34
                            x       y       z     vdW  Elec       q    Type
                         _______ _______ _______ _____ _____    ______ ____

>  <TORSDO>
F 12

$$$$
=
 OpenBabel11072409273D

 39 41  0  0  1  0  0  0  0  0999 V2000
  191.7380  176.1020  144.7870 C   0  0  2  0  0  3  0  0  0  0  0  0
  194.2480  175.0430  142.5340 C   0  0  0  0  0  0  0  0  0  0  0  0
  191.0190  174.3520  141.4450 C   0  0  0  0  0  2  0  0  0  0  0  0
  192.8570  175.0750  144.6360 C   0  0  2  0  0  3  0  0  0  0  0  0
  195.6590  173.5830  138.8450 N   0  0  0  0  0  1  0  0  0  0  0  0
  191.9470  172.1710  142.2670 C   0  0  0  0  0  1  0  0  0  0  0  0
  193.4660  174.1110  141.8060 C   0  0  0  0  0  0  0  0  0  0  0  0
  193.9390  173.6380  140.5720 C   0  0  0  0  0  3  0  0  0  0  0  0
  193.2220  175.2660  146.1170 C   0  0  2  0  0  3  0  0  0  0  0  0
  196.2970  176.3810  142.7010 N   0  0  0  0  0  1  0  0  0  0  0  0
  189.8450  175.7620  143.1240 C   0  0  0  0  0  2  0  0  0  0  0  0
  189.7410  174.4990  142.2640 C   0  0  1  0  0  3  0  0  0  0  0  0
  195.9070  174.9620  140.8020 N   0  0  0  0  0  0  0  0  0  0  0  0
  193.8650  175.5960  143.7690 O   0  0  0  0  0  0  0  0  0  0  0  0
  190.2240  174.1740  144.9420 O   0  0  0  0  0  1  0  0  0  0  0  0
  192.1290  176.3180  146.2580 C   0  0  2  0  0  3  0  0  0  0  0  0
  195.1720  174.0720  140.0880 C   0  0  0  0  0  0  0  0  0  0  0  0
  195.4780  175.4530  141.9930 C   0  0  0  0  0  0  0  0  0  0  0  0
  190.3310  175.5180  144.5550 C   0  0  1  0  0  3  0  0  0  0  0  0
  192.1060  173.6840  142.2700 C   0  0  1  0  0  3  0  0  0  0  0  0
  194.6010  175.8300  146.3440 C   0  0  0  0  0  0  0  0  0  0  0  0
  195.6200  175.0870  146.3070 O   0  0  0  0  0  0  0  0  0  0  0  0
  194.7390  177.1820  146.6420 O   0  0  0  0  0  0  0  0  0  0  0  0
  195.0280  178.0670  145.6790 O   0  0  0  0  0  1  0  0  0  0  0  0
  188.5090  174.5740  141.3440 C   0  0  1  0  0  3  0  0  0  0  0  0
  188.3370  173.4860  139.0540 C   0  0  0  0  0  1  0  0  0  0  0  0
  188.2840  173.2740  140.5610 C   0  0  0  0  0  2  0  0  0  0  0  0
  187.2380  174.9280  142.1150 C   0  0  0  0  0  2  0  0  0  0  0  0
  186.8190  176.2250  141.8020 O   0  0  0  0  0  0  0  0  0  0  0  0
  186.1280  176.6520  142.9360 C   0  0  0  0  0  2  0  0  0  0  0  0
  186.5920  178.0430  143.3350 C   0  0  1  0  0  3  0  0  0  0  0  0
  185.5480  180.1200  143.9460 O   0  0  0  0  0  1  0  0  0  0  0  0
  185.4040  178.9310  143.5530 C   0  0  0  0  0  0  0  0  0  0  0  0
  184.1240  178.4400  143.3130 O   0  0  0  0  0  0  0  0  0  0  0  0
  187.3800  177.9680  144.4880 O   0  0  0  0  0  0  0  0  0  0  0  0
  186.7860  176.9690  145.2630 C   0  0  0  0  0  1  0  0  0  0  0  0
  191.0920  175.8800  147.2900 C   0  0  0  0  0  2  0  0  0  0  0  0
  190.6030  177.0690  148.1010 C   0  0  0  0  0  2  0  0  0  0  0  0
  191.6230  177.5310  148.9340 O   0  0  0  0  0  1  0  0  0  0  0  0
  1 16  1  0  0  0  0
  2 14  1  0  0  0  0
  3 12  1  0  0  0  0
  3 20  1  0  0  0  0
  4  1  1  0  0  0  0
  4  9  1  0  0  0  0
  5 17  1  0  0  0  0
  6 20  1  0  0  0  0
  7 20  1  0  0  0  0
  7  2  2  0  0  0  0
  8  7  1  0  0  0  0
  9 16  1  0  0  0  0
  9 21  1  0  0  0  0
 11 19  1  0  0  0  0
 12 11  1  0  0  0  0
 13 18  2  0  0  0  0
 14  4  1  0  0  0  0
 16 37  1  0  0  0  0
 17  8  2  0  0  0  0
 17 13  1  0  0  0  0
 18  2  1  0  0  0  0
 18 10  1  0  0  0  0
 19  1  1  0  0  0  0
 19 15  1  0  0  0  0
 21 23  1  0  0  0  0
 22 21  2  0  0  0  0
 24 23  1  0  0  0  0
 25 28  1  0  0  0  0
 25 12  1  0  0  0  0
 26 27  1  0  0  0  0
 27 25  1  0  0  0  0
 29 28  1  0  0  0  0
 29 30  1  0  0  0  0
 30 31  1  0  0  0  0
 31 33  1  0  0  0  0
 31 35  1  0  0  0  0
 33 32  1  0  0  0  0
 34 33  2  0  0  0  0
 35 36  1  0  0  0  0
 37 38  1  0  0  0  0
 38 39  1  0  0  0  0
M  END
>  <MODEL>
4

>  <REMARK>
 VINA RESULT:      -6.4      1.994      3.686
  Name = 
  12 active torsions:
  status: ('A' for Active; 'I' for Inactive)
    1  A    between atoms: C_1  and  C_34
    2  A    between atoms: O_5  and  C_9
    3  A    between atoms: O_5  and  C_18
    4  A    between atoms: C_7  and  O_10
    5  A    between atoms: C_7  and  C_20
    6  A    between atoms: C_9  and  C_12
    7  A    between atoms: C_12  and  C_24
    8  A    between atoms: C_12  and  C_29
    9  A    between atoms: C_13  and  C_38
   10  A    between atoms: O_17  and  C_38
   11  A    between atoms: C_18  and  C_38
   12  A    between atoms: C_28  and  C_34
                            x       y       z     vdW  Elec       q    Type
                         _______ _______ _______ _____ _____    ______ ____

>  <TORSDO>
F 12

$$$$
=
 OpenBabel11072409273D

 39 41  0  0  1  0  0  0  0  0999 V2000
  192.0490  176.2490  143.5400 C   0  0  2  0  0  3  0  0  0  0  0  0
  191.8260  174.0520  140.7790 C   0  0  0  0  0  0  0  0  0  0  0  0
  188.8110  175.5850  141.5840 C   0  0  0  0  0  2  0  0  0  0  0  0
  192.1070  174.7660  143.1800 C   0  0  2  0  0  3  0  0  0  0  0  0
  189.9060  172.3300  137.4500 N   0  0  0  0  0  1  0  0  0  0  0  0
  188.6410  173.2390  142.4560 C   0  0  0  0  0  1  0  0  0  0  0  0
  190.4210  173.8610  140.8040 C   0  0  0  0  0  0  0  0  0  0  0  0
  189.7880  173.2960  139.6850 C   0  0  0  0  0  3  0  0  0  0  0  0
  193.2490  174.5740  144.1910 C   0  0  2  0  0  3  0  0  0  0  0  0
  193.9500  173.8250  139.5740 N   0  0  0  0  0  1  0  0  0  0  0  0
  189.7600  177.2800  143.1370 C   0  0  0  0  0  2  0  0  0  0  0  0
  188.5300  176.4230  142.8270 C   0  0  1  0  0  3  0  0  0  0  0  0
  191.8870  173.1030  138.5750 N   0  0  0  0  0  0  0  0  0  0  0  0
  192.5600  174.6220  141.8340 O   0  0  0  0  0  0  0  0  0  0  0  0
  190.1130  175.6580  144.9300 O   0  0  0  0  0  1  0  0  0  0  0  0
  193.2150  176.0610  144.5230 C   0  0  2  0  0  3  0  0  0  0  0  0
  190.5430  172.9160  138.5780 C   0  0  0  0  0  0  0  0  0  0  0  0
  192.5360  173.6590  139.6320 C   0  0  0  0  0  0  0  0  0  0  0  0
  190.7110  176.6760  144.1740 C   0  0  1  0  0  3  0  0  0  0  0  0
  189.5780  174.3260  141.9520 C   0  0  1  0  0  3  0  0  0  0  0  0
  194.5550  174.1480  143.5720 C   0  0  0  0  0  0  0  0  0  0  0  0
  195.3440  174.9970  143.0720 O   0  0  0  0  0  0  0  0  0  0  0  0
  194.8680  172.7940  143.5140 O   0  0  0  0  0  0  0  0  0  0  0  0
  194.5450  172.0640  142.4390 O   0  0  0  0  0  1  0  0  0  0  0  0
  187.2910  177.3130  142.6170 C   0  0  1  0  0  3  0  0  0  0  0  0
  185.7240  177.7840  140.6730 C   0  0  0  0  0  1  0  0  0  0  0  0
  187.1640  177.8050  141.1700 C   0  0  0  0  0  2  0  0  0  0  0  0
  186.0010  176.6070  143.0290 C   0  0  0  0  0  2  0  0  0  0  0  0
  185.2540  177.4140  143.8930 O   0  0  0  0  0  0  0  0  0  0  0  0
  185.6500  177.0160  145.1700 C   0  0  0  0  0  2  0  0  0  0  0  0
  186.3830  178.1530  145.8650 C   0  0  1  0  0  3  0  0  0  0  0  0
  184.3210  178.3620  147.0810 O   0  0  0  0  0  0  0  0  0  0  0  0
  185.5200  178.7270  146.9470 C   0  0  0  0  0  0  0  0  0  0  0  0
  186.0500  179.6700  147.8230 O   0  0  0  0  0  1  0  0  0  0  0  0
  187.5960  177.6870  146.3850 O   0  0  0  0  0  0  0  0  0  0  0  0
  187.3130  176.4020  146.8540 C   0  0  0  0  0  1  0  0  0  0  0  0
  192.8790  176.2740  145.9980 C   0  0  0  0  0  2  0  0  0  0  0  0
  194.0060  177.0090  146.7060 C   0  0  0  0  0  2  0  0  0  0  0  0
  194.8720  177.5720  145.7680 O   0  0  0  0  0  1  0  0  0  0  0  0
  1 19  1  0  0  0  0
  1 16  1  0  0  0  0
  2  7  1  0  0  0  0
  2 14  1  0  0  0  0
  3 20  1  0  0  0  0
  3 12  1  0  0  0  0
  4  1  1  0  0  0  0
  4  9  1  0  0  0  0
  5 17  1  0  0  0  0
  7 20  1  0  0  0  0
  8  7  2  0  0  0  0
  9 16  1  0  0  0  0
 10 18  1  0  0  0  0
 11 19  1  0  0  0  0
 12 11  1  0  0  0  0
 13 17  2  0  0  0  0
 13 18  1  0  0  0  0
 14  4  1  0  0  0  0
 16 37  1  0  0  0  0
 17  8  1  0  0  0  0
 18  2  2  0  0  0  0
 19 15  1  0  0  0  0
 20  6  1  0  0  0  0
 21  9  1  0  0  0  0
 22 21  2  0  0  0  0
 23 21  1  0  0  0  0
 24 23  1  0  0  0  0
 25 12  1  0  0  0  0
 25 28  1  0  0  0  0
 26 27  1  0  0  0  0
 27 25  1  0  0  0  0
 28 29  1  0  0  0  0
 29 30  1  0  0  0  0
 30 31  1  0  0  0  0
 31 35  1  0  0  0  0
 31 33  1  0  0  0  0
 33 32  2  0  0  0  0
 33 34  1  0  0  0  0
 35 36  1  0  0  0  0
 37 38  1  0  0  0  0
 39 38  1  0  0  0  0
M  END
>  <MODEL>
5

>  <REMARK>
 VINA RESULT:      -6.3      1.400      2.547
  Name = 
  12 active torsions:
  status: ('A' for Active; 'I' for Inactive)
    1  A    between atoms: C_1  and  C_34
    2  A    between atoms: O_5  and  C_9
    3  A    between atoms: O_5  and  C_18
    4  A    between atoms: C_7  and  O_10
    5  A    between atoms: C_7  and  C_20
    6  A    between atoms: C_9  and  C_12
    7  A    between atoms: C_12  and  C_24
    8  A    between atoms: C_12  and  C_29
    9  A    between atoms: C_13  and  C_38
   10  A    between atoms: O_17  and  C_38
   11  A    between atoms: C_18  and  C_38
   12  A    between atoms: C_28  and  C_34
                            x       y       z     vdW  Elec       q    Type
                         _______ _______ _______ _____ _____    ______ ____

>  <TORSDO>
F 12

$$$$
=
 OpenBabel11072409273D

 39 41  0  0  1  0  0  0  0  0999 V2000
  191.6870  176.1480  143.4750 C   0  0  2  0  0  3  0  0  0  0  0  0
  191.3630  173.6550  140.9910 C   0  0  0  0  0  0  0  0  0  0  0  0
  188.5880  175.7330  141.2460 C   0  0  0  0  0  2  0  0  0  0  0  0
  191.5280  174.6400  143.3050 C   0  0  2  0  0  3  0  0  0  0  0  0
  189.5090  171.8110  137.6890 N   0  0  0  0  0  1  0  0  0  0  0  0
  187.9390  173.5850  142.3660 C   0  0  0  0  0  1  0  0  0  0  0  0
  189.9500  173.6890  140.8720 C   0  0  0  0  0  0  0  0  0  0  0  0
  189.3420  173.0820  139.7630 C   0  0  0  0  0  3  0  0  0  0  0  0
  192.5180  174.4130  144.4590 C   0  0  2  0  0  3  0  0  0  0  0  0
  193.5240  172.9370  140.0800 N   0  0  0  0  0  1  0  0  0  0  0  0
  189.6560  177.4580  142.6850 C   0  0  0  0  0  2  0  0  0  0  0  0
  188.3340  176.7680  142.3380 C   0  0  1  0  0  3  0  0  0  0  0  0
  191.4750  172.4140  138.9390 N   0  0  0  0  0  0  0  0  0  0  0  0
  192.0780  174.2430  142.0480 O   0  0  0  0  0  0  0  0  0  0  0  0
  189.5540  176.0620  144.6880 O   0  0  0  0  0  1  0  0  0  0  0  0
  192.7040  175.9180  144.6040 C   0  0  2  0  0  3  0  0  0  0  0  0
  190.1240  172.4390  138.8060 C   0  0  0  0  0  0  0  0  0  0  0  0
  192.1030  173.0020  139.9910 C   0  0  0  0  0  0  0  0  0  0  0  0
  190.3860  176.8610  143.8910 C   0  0  1  0  0  3  0  0  0  0  0  0
  189.0910  174.4330  141.8500 C   0  0  1  0  0  3  0  0  0  0  0  0
  193.7860  173.7090  144.0530 C   0  0  0  0  0  0  0  0  0  0  0  0
  194.7820  174.3580  143.6290 O   0  0  0  0  0  0  0  0  0  0  0  0
  193.8370  172.3190  144.1080 O   0  0  0  0  0  0  0  0  0  0  0  0
  192.7870  171.6150  144.5490 O   0  0  0  0  0  1  0  0  0  0  0  0
  187.2900  177.8020  141.8780 C   0  0  1  0  0  3  0  0  0  0  0  0
  185.3560  177.9150  140.2340 C   0  0  0  0  0  1  0  0  0  0  0  0
  186.8230  177.5610  140.4370 C   0  0  0  0  0  2  0  0  0  0  0  0
  186.0760  177.8440  142.8050 C   0  0  0  0  0  2  0  0  0  0  0  0
  186.3370  177.1470  143.9880 O   0  0  0  0  0  0  0  0  0  0  0  0
  185.9790  178.0350  145.0020 C   0  0  0  0  0  2  0  0  0  0  0  0
  185.3290  177.2800  146.1500 C   0  0  1  0  0  3  0  0  0  0  0  0
  186.2880  177.9330  148.2550 O   0  0  0  0  0  1  0  0  0  0  0  0
  186.3040  177.1350  147.2790 C   0  0  0  0  0  0  0  0  0  0  0  0
  187.2360  176.1010  147.2560 O   0  0  0  0  0  0  0  0  0  0  0  0
  184.1760  177.9540  146.5680 O   0  0  0  0  0  0  0  0  0  0  0  0
  184.0240  179.0010  145.6560 C   0  0  0  0  0  1  0  0  0  0  0  0
  192.2690  176.3820  145.9920 C   0  0  0  0  0  2  0  0  0  0  0  0
  193.4740  176.7750  146.8320 C   0  0  0  0  0  2  0  0  0  0  0  0
  194.5180  177.1890  146.0040 O   0  0  0  0  0  1  0  0  0  0  0  0
  1 19  1  0  0  0  0
  1 16  1  0  0  0  0
  2 14  1  0  0  0  0
  3 20  1  0  0  0  0
  3 12  1  0  0  0  0
  4  1  1  0  0  0  0
  4  9  1  0  0  0  0
  5 17  1  0  0  0  0
  7  2  1  0  0  0  0
  7 20  1  0  0  0  0
  8  7  2  0  0  0  0
  9 16  1  0  0  0  0
 11 19  1  0  0  0  0
 12 11  1  0  0  0  0
 13 18  1  0  0  0  0
 14  4  1  0  0  0  0
 16 37  1  0  0  0  0
 17 13  2  0  0  0  0
 17  8  1  0  0  0  0
 18 10  1  0  0  0  0
 18  2  2  0  0  0  0
 19 15  1  0  0  0  0
 20  6  1  0  0  0  0
 21 23  1  0  0  0  0
 21  9  1  0  0  0  0
 22 21  2  0  0  0  0
 23 24  1  0  0  0  0
 25 12  1  0  0  0  0
 25 28  1  0  0  0  0
 26 27  1  0  0  0  0
 27 25  1  0  0  0  0
 28 29  1  0  0  0  0
 29 30  1  0  0  0  0
 30 31  1  0  0  0  0
 31 35  1  0  0  0  0
 31 33  1  0  0  0  0
 33 32  1  0  0  0  0
 34 33  2  0  0  0  0
 36 35  1  0  0  0  0
 37 38  1  0  0  0  0
 39 38  1  0  0  0  0
M  END
>  <MODEL>
6

>  <REMARK>
 VINA RESULT:      -6.1      1.716      2.832
  Name = 
  12 active torsions:
  status: ('A' for Active; 'I' for Inactive)
    1  A    between atoms: C_1  and  C_34
    2  A    between atoms: O_5  and  C_9
    3  A    between atoms: O_5  and  C_18
    4  A    between atoms: C_7  and  O_10
    5  A    between atoms: C_7  and  C_20
    6  A    between atoms: C_9  and  C_12
    7  A    between atoms: C_12  and  C_24
    8  A    between atoms: C_12  and  C_29
    9  A    between atoms: C_13  and  C_38
   10  A    between atoms: O_17  and  C_38
   11  A    between atoms: C_18  and  C_38
   12  A    between atoms: C_28  and  C_34
                            x       y       z     vdW  Elec       q    Type
                         _______ _______ _______ _____ _____    ______ ____

>  <TORSDO>
F 12

$$$$
=
 OpenBabel11072409273D

 39 41  0  0  1  0  0  0  0  0999 V2000
  190.2340  173.4930  142.5640 C   0  0  2  0  0  3  0  0  0  0  0  0
  193.5860  172.8610  143.4920 C   0  0  0  0  0  0  0  0  0  0  0  0
  191.8600  174.8370  145.7730 C   0  0  0  0  0  2  0  0  0  0  0  0
  191.6710  173.8220  142.1650 C   0  0  2  0  0  3  0  0  0  0  0  0
  196.8520  172.8820  146.1510 N   0  0  0  0  0  1  0  0  0  0  0  0
  193.3420  176.4040  144.4910 C   0  0  0  0  0  1  0  0  0  0  0  0
  193.7320  173.9290  144.4130 C   0  0  0  0  0  0  0  0  0  0  0  0
  194.8170  173.9220  145.3030 C   0  0  0  0  0  3  0  0  0  0  0  0
  191.2770  173.7080  140.6840 C   0  0  2  0  0  3  0  0  0  0  0  0
  194.4400  170.7490  142.5820 N   0  0  0  0  0  1  0  0  0  0  0  0
  189.5920  174.4380  144.8360 C   0  0  0  0  0  2  0  0  0  0  0  0
  190.4770  175.4470  145.5710 C   0  0  1  0  0  3  0  0  0  0  0  0
  195.5900  171.8720  144.3690 N   0  0  0  0  0  0  0  0  0  0  0  0
  192.5310  172.7560  142.5690 O   0  0  0  0  0  0  0  0  0  0  0  0
  189.9630  175.9070  142.9180 O   0  0  0  0  0  1  0  0  0  0  0  0
  189.8530  173.3440  141.0830 C   0  0  2  0  0  3  0  0  0  0  0  0
  195.7440  172.8830  145.2600 C   0  0  0  0  0  0  0  0  0  0  0  0
  194.5460  171.8350  143.5000 C   0  0  0  0  0  0  0  0  0  0  0  0
  189.5280  174.6350  143.3180 C   0  0  1  0  0  3  0  0  0  0  0  0
  192.7110  175.0210  144.5270 C   0  0  1  0  0  3  0  0  0  0  0  0
  191.9740  172.5960  139.9440 C   0  0  0  0  0  0  0  0  0  0  0  0
  193.0750  172.7940  139.3600 O   0  0  0  0  0  0  0  0  0  0  0  0
  191.3660  171.3460  139.8710 O   0  0  0  0  0  0  0  0  0  0  0  0
  192.1010  170.2380  139.7150 O   0  0  0  0  0  1  0  0  0  0  0  0
  189.8480  175.8320  146.9220 C   0  0  1  0  0  3  0  0  0  0  0  0
  191.3650  177.1540  148.4740 C   0  0  0  0  0  1  0  0  0  0  0  0
  190.2890  177.2220  147.3990 C   0  0  0  0  0  2  0  0  0  0  0  0
  188.3220  175.7690  146.8840 C   0  0  0  0  0  2  0  0  0  0  0  0
  187.7890  177.0020  146.4980 O   0  0  0  0  0  0  0  0  0  0  0  0
  186.4090  176.7950  146.4780 C   0  0  0  0  0  2  0  0  0  0  0  0
  185.8370  177.2310  145.1390 C   0  0  1  0  0  3  0  0  0  0  0  0
  185.9100  179.6040  144.7660 O   0  0  0  0  0  0  0  0  0  0  0  0
  185.2870  178.6210  145.2500 C   0  0  0  0  0  0  0  0  0  0  0  0
  184.0690  178.8320  145.8910 O   0  0  0  0  0  1  0  0  0  0  0  0
  186.8290  177.1620  144.1540 O   0  0  0  0  0  0  0  0  0  0  0  0
  186.2550  176.4180  143.1210 C   0  0  0  0  0  1  0  0  0  0  0  0
  188.8640  174.3780  140.5470 C   0  0  0  0  0  2  0  0  0  0  0  0
  188.1910  173.8730  139.2800 C   0  0  0  0  0  2  0  0  0  0  0  0
  188.2330  172.4790  139.2400 O   0  0  0  0  0  1  0  0  0  0  0  0
  1 19  1  0  0  0  0
  2 18  2  0  0  0  0
  2  7  1  0  0  0  0
  4  1  1  0  0  0  0
  4 14  1  0  0  0  0
  6 20  1  0  0  0  0
  7 20  1  0  0  0  0
  7  8  2  0  0  0  0
  9 16  1  0  0  0  0
  9  4  1  0  0  0  0
 10 18  1  0  0  0  0
 11 12  1  0  0  0  0
 12  3  1  0  0  0  0
 12 25  1  0  0  0  0
 13 17  2  0  0  0  0
 14  2  1  0  0  0  0
 15 19  1  0  0  0  0
 16  1  1  0  0  0  0
 17  8  1  0  0  0  0
 17  5  1  0  0  0  0
 18 13  1  0  0  0  0
 19 11  1  0  0  0  0
 20  3  1  0  0  0  0
 21  9  1  0  0  0  0
 22 21  2  0  0  0  0
 23 21  1  0  0  0  0
 24 23  1  0  0  0  0
 25 27  1  0  0  0  0
 27 26  1  0  0  0  0
 28 25  1  0  0  0  0
 29 28  1  0  0  0  0
 30 29  1  0  0  0  0
 31 33  1  0  0  0  0
 31 30  1  0  0  0  0
 32 33  2  0  0  0  0
 33 34  1  0  0  0  0
 35 31  1  0  0  0  0
 36 35  1  0  0  0  0
 37 16  1  0  0  0  0
 38 37  1  0  0  0  0
 39 38  1  0  0  0  0
M  END
>  <MODEL>
7

>  <REMARK>
 VINA RESULT:      -6.1      2.792      5.316
  Name = 
  12 active torsions:
  status: ('A' for Active; 'I' for Inactive)
    1  A    between atoms: C_1  and  C_34
    2  A    between atoms: O_5  and  C_9
    3  A    between atoms: O_5  and  C_18
    4  A    between atoms: C_7  and  O_10
    5  A    between atoms: C_7  and  C_20
    6  A    between atoms: C_9  and  C_12
    7  A    between atoms: C_12  and  C_24
    8  A    between atoms: C_12  and  C_29
    9  A    between atoms: C_13  and  C_38
   10  A    between atoms: O_17  and  C_38
   11  A    between atoms: C_18  and  C_38
   12  A    between atoms: C_28  and  C_34
                            x       y       z     vdW  Elec       q    Type
                         _______ _______ _______ _____ _____    ______ ____

>  <TORSDO>
F 12

$$$$
=
 OpenBabel11072409273D

 39 41  0  0  1  0  0  0  0  0999 V2000
  189.8900  174.6260  144.3280 C   0  0  2  0  0  3  0  0  0  0  0  0
  187.2390  176.8850  144.9350 C   0  0  0  0  0  0  0  0  0  0  0  0
  187.4390  175.8300  141.6280 C   0  0  0  0  0  2  0  0  0  0  0  0
  189.6160  176.0880  144.6740 C   0  0  2  0  0  3  0  0  0  0  0  0
  183.7150  178.9540  143.9200 N   0  0  0  0  0  1  0  0  0  0  0  0
  188.3780  178.1560  141.6630 C   0  0  0  0  0  1  0  0  0  0  0  0
  187.0300  177.2950  143.5930 C   0  0  0  0  0  0  0  0  0  0  0  0
  185.8480  177.9740  143.2620 C   0  0  0  0  0  3  0  0  0  0  0  0
  190.8170  176.0780  145.6340 C   0  0  2  0  0  3  0  0  0  0  0  0
  186.4310  176.7990  147.2490 N   0  0  0  0  0  1  0  0  0  0  0  0
  189.0500  173.9760  142.0180 C   0  0  0  0  0  2  0  0  0  0  0  0
  188.5740  175.0220  141.0070 C   0  0  1  0  0  3  0  0  0  0  0  0
  185.1270  177.8560  145.5300 N   0  0  0  0  0  0  0  0  0  0  0  0
  188.3770  176.1850  145.3750 O   0  0  0  0  0  0  0  0  0  0  0  0
  190.9520  175.4870  142.2880 O   0  0  0  0  0  1  0  0  0  0  0  0
  191.0670  174.6090  145.3160 C   0  0  2  0  0  3  0  0  0  0  0  0
  184.9070  178.2530  144.2510 C   0  0  0  0  0  0  0  0  0  0  0  0
  186.2520  177.1850  145.8880 C   0  0  0  0  0  0  0  0  0  0  0  0
  190.2630  174.4020  142.8500 C   0  0  1  0  0  3  0  0  0  0  0  0
  187.9930  176.9450  142.4990 C   0  0  1  0  0  3  0  0  0  0  0  0
  190.4530  176.3050  147.0780 C   0  0  0  0  0  0  0  0  0  0  0  0
  190.3690  177.4720  147.5500 O   0  0  0  0  0  0  0  0  0  0  0  0
  190.2530  175.2050  147.9070 O   0  0  0  0  0  0  0  0  0  0  0  0
  189.0890  174.5420  147.8910 O   0  0  0  0  0  1  0  0  0  0  0  0
  188.1110  174.3430  139.7050 C   0  0  1  0  0  3  0  0  0  0  0  0
  187.8100  174.9200  137.2490 C   0  0  0  0  0  1  0  0  0  0  0  0
  187.5520  175.3450  138.6890 C   0  0  0  0  0  2  0  0  0  0  0  0
  189.2290  173.5290  139.0540 C   0  0  0  0  0  2  0  0  0  0  0  0
  188.8940  172.1720  139.0210 O   0  0  0  0  0  0  0  0  0  0  0  0
  190.0860  171.5260  138.6940 C   0  0  0  0  0  2  0  0  0  0  0  0
  191.0680  171.6290  139.8500 C   0  0  1  0  0  3  0  0  0  0  0  0
  190.8630  169.3220  140.4880 O   0  0  0  0  0  0  0  0  0  0  0  0
  190.8070  170.5310  140.8370 C   0  0  0  0  0  0  0  0  0  0  0  0
  190.5070  170.8490  142.1580 O   0  0  0  0  0  1  0  0  0  0  0  0
  192.3790  171.5660  139.3660 O   0  0  0  0  0  0  0  0  0  0  0  0
  192.2430  171.4510  137.9800 C   0  0  0  0  0  1  0  0  0  0  0  0
  192.4500  174.4210  144.6950 C   0  0  0  0  0  2  0  0  0  0  0  0
  193.4390  173.9050  145.7280 C   0  0  0  0  0  2  0  0  0  0  0  0
  194.2810  174.9380  146.1410 O   0  0  0  0  0  1  0  0  0  0  0  0
  1  4  1  0  0  0  0
  1 16  1  0  0  0  0
  2 14  1  0  0  0  0
  2 18  1  0  0  0  0
  3 20  1  0  0  0  0
  4 14  1  0  0  0  0
  4  9  1  0  0  0  0
  5 17  1  0  0  0  0
  6 20  1  0  0  0  0
  7  2  2  0  0  0  0
  8  7  1  0  0  0  0
  8 17  2  0  0  0  0
  9 21  1  0  0  0  0
 11 19  1  0  0  0  0
 12  3  1  0  0  0  0
 12 11  1  0  0  0  0
 13 18  2  0  0  0  0
 15 19  1  0  0  0  0
 16  9  1  0  0  0  0
 17 13  1  0  0  0  0
 18 10  1  0  0  0  0
 19  1  1  0  0  0  0
 20  7  1  0  0  0  0
 21 22  2  0  0  0  0
 21 23  1  0  0  0  0
 24 23  1  0  0  0  0
 25 12  1  0  0  0  0
 26 27  1  0  0  0  0
 27 25  1  0  0  0  0
 28 25  1  0  0  0  0
 29 28  1  0  0  0  0
 30 29  1  0  0  0  0
 30 31  1  0  0  0  0
 31 33  1  0  0  0  0
 32 33  2  0  0  0  0
 33 34  1  0  0  0  0
 35 31  1  0  0  0  0
 36 35  1  0  0  0  0
 37 16  1  0  0  0  0
 37 38  1  0  0  0  0
 38 39  1  0  0  0  0
M  END
>  <MODEL>
8

>  <REMARK>
 VINA RESULT:      -6.1      3.837      7.477
  Name = 
  12 active torsions:
  status: ('A' for Active; 'I' for Inactive)
    1  A    between atoms: C_1  and  C_34
    2  A    between atoms: O_5  and  C_9
    3  A    between atoms: O_5  and  C_18
    4  A    between atoms: C_7  and  O_10
    5  A    between atoms: C_7  and  C_20
    6  A    between atoms: C_9  and  C_12
    7  A    between atoms: C_12  and  C_24
    8  A    between atoms: C_12  and  C_29
    9  A    between atoms: C_13  and  C_38
   10  A    between atoms: O_17  and  C_38
   11  A    between atoms: C_18  and  C_38
   12  A    between atoms: C_28  and  C_34
                            x       y       z     vdW  Elec       q    Type
                         _______ _______ _______ _____ _____    ______ ____

>  <TORSDO>
F 12

$$$$
=
 OpenBabel11072409273D

 39 41  0  0  1  0  0  0  0  0999 V2000
  190.8380  174.5940  142.1950 C   0  0  2  0  0  3  0  0  0  0  0  0
  187.9390  176.6120  142.3420 C   0  0  0  0  0  0  0  0  0  0  0  0
  190.0920  177.0720  145.0320 C   0  0  0  0  0  2  0  0  0  0  0  0
  189.3280  174.5090  142.4000 C   0  0  2  0  0  3  0  0  0  0  0  0
  185.5650  179.7290  143.8830 N   0  0  0  0  0  1  0  0  0  0  0  0
  188.2010  175.6720  145.9010 C   0  0  0  0  0  1  0  0  0  0  0  0
  187.9840  176.9050  143.7290 C   0  0  0  0  0  0  0  0  0  0  0  0
  187.1970  177.9530  144.2310 C   0  0  0  0  0  3  0  0  0  0  0  0
  189.2940  173.2220  141.5610 C   0  0  2  0  0  3  0  0  0  0  0  0
  187.0170  177.1100  140.1240 N   0  0  0  0  0  1  0  0  0  0  0  0
  192.0260  175.8470  144.0620 C   0  0  0  0  0  2  0  0  0  0  0  0
  191.3150  176.2220  145.3640 C   0  0  1  0  0  3  0  0  0  0  0  0
  186.3410  178.3790  142.0490 N   0  0  0  0  0  0  0  0  0  0  0  0
  188.6950  175.5980  141.7270 O   0  0  0  0  0  0  0  0  0  0  0  0
  191.0240  173.6530  144.4560 O   0  0  0  0  0  1  0  0  0  0  0  0
  190.7960  173.3270  141.3260 C   0  0  2  0  0  3  0  0  0  0  0  0
  186.3730  178.6770  143.3730 C   0  0  0  0  0  0  0  0  0  0  0  0
  187.0970  177.3810  141.5210 C   0  0  0  0  0  0  0  0  0  0  0  0
  191.6450  174.4730  143.5020 C   0  0  1  0  0  3  0  0  0  0  0  0
  188.9140  176.1880  144.6600 C   0  0  1  0  0  3  0  0  0  0  0  0
  188.4990  173.3370  140.2870 C   0  0  0  0  0  0  0  0  0  0  0  0
  187.4430  172.6670  140.1170 O   0  0  0  0  0  0  0  0  0  0  0  0
  188.9650  174.1640  139.2690 O   0  0  0  0  0  0  0  0  0  0  0  0
  188.2350  174.3670  138.1650 O   0  0  0  0  0  1  0  0  0  0  0  0
  192.2710  176.9830  146.3010 C   0  0  1  0  0  3  0  0  0  0  0  0
  191.1950  175.4060  147.9780 C   0  0  0  0  0  1  0  0  0  0  0  0
  192.0030  176.6820  147.7800 C   0  0  0  0  0  2  0  0  0  0  0  0
  193.7370  176.6960  145.9810 C   0  0  0  0  0  2  0  0  0  0  0  0
  194.1300  175.4750  146.5350 O   0  0  0  0  0  0  0  0  0  0  0  0
  195.3190  175.1590  145.8760 C   0  0  0  0  0  2  0  0  0  0  0  0
  195.0660  174.0820  144.8340 C   0  0  1  0  0  3  0  0  0  0  0  0
  196.8880  173.8670  143.2830 O   0  0  0  0  0  1  0  0  0  0  0  0
  195.7920  174.4200  143.5680 C   0  0  0  0  0  0  0  0  0  0  0  0
  195.2480  175.3510  142.6880 O   0  0  0  0  0  0  0  0  0  0  0  0
  195.4740  172.8390  145.3290 O   0  0  0  0  0  0  0  0  0  0  0  0
  194.3050  172.0760  145.3890 C   0  0  0  0  0  1  0  0  0  0  0  0
  191.5160  172.1080  141.8980 C   0  0  0  0  0  2  0  0  0  0  0  0
  192.6090  171.6360  140.9520 C   0  0  0  0  0  2  0  0  0  0  0  0
  193.5800  172.6280  140.8100 O   0  0  0  0  0  1  0  0  0  0  0  0
  1  4  1  0  0  0  0
  1 19  1  0  0  0  0
  2  7  1  0  0  0  0
  3 12  1  0  0  0  0
  7  8  2  0  0  0  0
  7 20  1  0  0  0  0
  9  4  1  0  0  0  0
 10 18  1  0  0  0  0
 11 12  1  0  0  0  0
 12 25  1  0  0  0  0
 13 17  2  0  0  0  0
 14  2  1  0  0  0  0
 14  4  1  0  0  0  0
 16  9  1  0  0  0  0
 16 37  1  0  0  0  0
 16  1  1  0  0  0  0
 17  5  1  0  0  0  0
 17  8  1  0  0  0  0
 18 13  1  0  0  0  0
 18  2  2  0  0  0  0
 19 11  1  0  0  0  0
 19 15  1  0  0  0  0
 20  3  1  0  0  0  0
 20  6  1  0  0  0  0
 21  9  1  0  0  0  0
 22 21  2  0  0  0  0
 23 21  1  0  0  0  0
 24 23  1  0  0  0  0
 25 27  1  0  0  0  0
 27 26  1  0  0  0  0
 28 25  1  0  0  0  0
 28 29  1  0  0  0  0
 30 29  1  0  0  0  0
 31 35  1  0  0  0  0
 31 30  1  0  0  0  0
 32 33  1  0  0  0  0
 33 31  1  0  0  0  0
 34 33  2  0  0  0  0
 35 36  1  0  0  0  0
 38 37  1  0  0  0  0
 39 38  1  0  0  0  0
M  END
>  <MODEL>
9

>  <REMARK>
 VINA RESULT:      -6.0      3.154      7.649
  Name = 
  12 active torsions:
  status: ('A' for Active; 'I' for Inactive)
    1  A    between atoms: C_1  and  C_34
    2  A    between atoms: O_5  and  C_9
    3  A    between atoms: O_5  and  C_18
    4  A    between atoms: C_7  and  O_10
    5  A    between atoms: C_7  and  C_20
    6  A    between atoms: C_9  and  C_12
    7  A    between atoms: C_12  and  C_24
    8  A    between atoms: C_12  and  C_29
    9  A    between atoms: C_13  and  C_38
   10  A    between atoms: O_17  and  C_38
   11  A    between atoms: C_18  and  C_38
   12  A    between atoms: C_28  and  C_34
                            x       y       z     vdW  Elec       q    Type
                         _______ _______ _______ _____ _____    ______ ____

>  <TORSDO>
F 12

$$$$
