=
 OpenBabel11062421573D

 35 41  0  0  1  0  0  0  0  0999 V2000
  191.2140  173.2230  141.9290 N   0  0  0  0  0  2  0  0  0  0  0  0
  190.0310  176.4480  143.0180 C   0  0  2  0  0  3  0  0  0  0  0  0
  188.1750  173.1810  140.7140 C   0  0  0  0  0  2  0  0  0  0  0  0
  187.1300  176.3290  140.7440 O   0  0  0  0  0  0  0  0  0  0  0  0
  190.4310  174.1610  142.7280 C   0  0  1  0  0  3  0  0  0  0  0  0
  191.1270  175.4950  142.8170 C   0  0  2  0  0  3  0  0  0  0  0  0
  187.9730  173.7750  142.1010 C   0  0  0  0  0  2  0  0  0  0  0  0
  189.0930  176.0580  141.9860 N   0  0  0  0  0  0  0  0  0  0  0  0
  190.8320  177.7030  142.9310 C   0  0  0  0  0  2  0  0  0  0  0  0
  190.7480  173.3360  140.5450 C   0  0  2  0  0  3  0  0  0  0  0  0
  189.4040  174.0690  140.4930 C   0  0  2  0  0  3  0  0  0  0  0  0
  192.0680  177.2810  143.7630 C   0  0  0  0  0  2  0  0  0  0  0  0
  187.9820  176.8400  141.5190 C   0  0  0  0  0  0  0  0  0  0  0  0
  189.2270  174.5940  141.8860 C   0  0  1  0  0  0  0  0  0  0  0  0
  192.0870  175.8070  143.8410 N   0  0  0  0  0  2  0  0  0  0  0  0
  190.8420  170.7710  140.4310 C   0  0  0  0  0  3  0  0  0  0  0  0
  190.8020  171.7550  138.4860 C   0  0  0  0  0  0  0  0  0  0  0  0
  190.8770  170.4340  138.2780 N   0  0  0  0  0  0  0  0  0  0  0  0
  190.7690  172.0140  139.8370 C   0  0  0  0  0  0  0  0  0  0  0  0
  190.8980  169.8810  139.4590 O   0  0  0  0  0  0  0  0  0  0  0  0
  190.7870  172.7230  137.4430 N   0  0  0  0  0  1  0  0  0  0  0  0
  187.8290  178.2720  141.9210 C   0  0  0  0  0  2  0  0  0  0  0  0
  187.0070  178.3840  143.1640 C   0  0  0  0  0  0  0  0  0  0  0  0
  187.5160  177.7430  144.4330 C   0  0  0  0  0  2  0  0  0  0  0  0
  185.9090  179.1600  143.1510 C   0  0  0  0  0  3  0  0  0  0  0  0
  185.0170  179.3180  144.3530 C   0  0  0  0  0  2  0  0  0  0  0  0
  185.7740  179.0590  145.6500 C   0  0  0  0  0  2  0  0  0  0  0  0
  186.4680  177.7070  145.5500 C   0  0  2  0  0  3  0  0  0  0  0  0
  187.1280  177.3730  146.8770 C   0  0  0  0  0  2  0  0  0  0  0  0
  190.8070  175.5070  147.7250 C   0  0  0  0  0  2  0  0  0  0  0  0
  188.3710  175.4110  147.2110 C   0  0  0  0  0  2  0  0  0  0  0  0
  188.4290  176.7620  146.6550 N   0  0  0  0  0  0  0  0  0  0  0  0
  189.3950  177.5400  147.4290 C   0  0  0  0  0  2  0  0  0  0  0  0
  190.7950  176.9570  147.2510 C   0  0  0  0  0  2  0  0  0  0  0  0
  189.7140  174.7110  147.0200 C   0  0  0  0  0  2  0  0  0  0  0  0
  2  9  1  6  0  0  0
  3  7  1  0  0  0  0
  4 13  2  0  0  0  0
  5  1  1  6  0  0  0
  5  6  1  0  0  0  0
  6  2  1  0  0  0  0
  6 15  1  1  0  0  0
  8  2  1  0  0  0  0
  9 12  1  0  0  0  0
 10 19  1  1  0  0  0
 10  1  1  0  0  0  0
 11 10  1  0  0  0  0
 11  3  1  1  0  0  0
 11 14  1  0  0  0  0
 12 15  1  0  0  0  0
 13 22  1  0  0  0  0
 13  8  1  0  0  0  0
 14  8  1  0  0  0  0
 14  7  1  1  0  0  0
 14  5  1  0  0  0  0
 17 19  1  0  0  0  0
 18 17  2  0  0  0  0
 18 20  1  0  0  0  0
 19 16  2  0  0  0  0
 20 16  1  0  0  0  0
 21 17  1  0  0  0  0
 22 23  1  0  0  0  0
 23 24  1  0  0  0  0
 24 28  1  0  0  0  0
 25 23  2  0  0  0  0
 25 26  1  0  0  0  0
 26 27  1  0  0  0  0
 28 27  1  0  0  0  0
 28 29  1  1  0  0  0
 32 29  1  0  0  0  0
 32 31  1  0  0  0  0
 32 33  1  0  0  0  0
 34 33  1  0  0  0  0
 34 30  1  0  0  0  0
 35 31  1  0  0  0  0
 35 30  1  0  0  0  0
M  END
>  <MODEL>
1

>  <REMARK>
 VINA RESULT:      -8.3      0.000      0.000
  Name = 
  5 active torsions:
  status: ('A' for Active; 'I' for Inactive)
    1  A    between atoms: C_1  and  C_5
    2  A    between atoms: C_5  and  C_28
    3  A    between atoms: N_9  and  C_18
    4  A    between atoms: C_18  and  C_35
    5  A    between atoms: C_22  and  C_30
                            x       y       z     vdW  Elec       q    Type
                         _______ _______ _______ _____ _____    ______ ____

>  <TORSDO>
F 5

$$$$
=
 OpenBabel11062421573D

 35 41  0  0  1  0  0  0  0  0999 V2000
  193.0920  175.2990  142.1090 N   0  0  0  0  0  2  0  0  0  0  0  0
  189.6960  174.9650  143.2650 C   0  0  2  0  0  3  0  0  0  0  0  0
  193.2010  177.1470  144.8090 C   0  0  0  0  0  2  0  0  0  0  0  0
  190.5240  176.3300  146.5900 O   0  0  0  0  0  0  0  0  0  0  0  0
  191.7220  175.7260  142.3790 C   0  0  1  0  0  3  0  0  0  0  0  0
  190.7870  174.5440  142.3810 C   0  0  2  0  0  3  0  0  0  0  0  0
  191.8700  177.5440  144.1840 C   0  0  0  0  0  2  0  0  0  0  0  0
  190.4130  175.4700  144.4180 N   0  0  0  0  0  0  0  0  0  0  0  0
  188.9470  173.6750  143.2970 C   0  0  0  0  0  2  0  0  0  0  0  0
  193.7310  175.0450  143.4030 C   0  0  2  0  0  3  0  0  0  0  0  0
  192.9080  175.6680  144.5350 C   0  0  2  0  0  3  0  0  0  0  0  0
  189.0420  173.2840  141.8010 C   0  0  0  0  0  2  0  0  0  0  0  0
  189.8490  175.7260  145.7140 C   0  0  0  0  0  0  0  0  0  0  0  0
  191.6330  176.0830  143.8650 C   0  0  1  0  0  0  0  0  0  0  0  0
  190.1390  174.0600  141.1910 N   0  0  0  0  0  2  0  0  0  0  0  0
  195.8010  176.2610  142.4860 C   0  0  0  0  0  3  0  0  0  0  0  0
  196.1960  174.9950  144.2170 C   0  0  0  0  0  0  0  0  0  0  0  0
  197.3570  175.5410  143.8300 N   0  0  0  0  0  0  0  0  0  0  0  0
  195.1810  175.4310  143.3970 C   0  0  0  0  0  0  0  0  0  0  0  0
  197.0820  176.2890  142.7990 O   0  0  0  0  0  0  0  0  0  0  0  0
  196.0700  174.0830  145.3010 N   0  0  0  0  0  1  0  0  0  0  0  0
  188.4680  175.2630  146.0550 C   0  0  0  0  0  2  0  0  0  0  0  0
  187.5610  176.4300  146.2710 C   0  0  0  0  0  0  0  0  0  0  0  0
  187.3330  177.3950  145.1310 C   0  0  0  0  0  2  0  0  0  0  0  0
  186.8720  176.5160  147.4220 C   0  0  0  0  0  3  0  0  0  0  0  0
  185.9470  177.6640  147.7270 C   0  0  0  0  0  2  0  0  0  0  0  0
  185.4210  178.3120  146.4520 C   0  0  0  0  0  2  0  0  0  0  0  0
  186.6020  178.6700  145.5610 C   0  0  2  0  0  3  0  0  0  0  0  0
  186.1090  179.4280  144.3400 C   0  0  0  0  0  2  0  0  0  0  0  0
  184.7310  178.0340  140.6130 C   0  0  0  0  0  2  0  0  0  0  0  0
  186.5680  178.7060  142.1550 C   0  0  0  0  0  2  0  0  0  0  0  0
  185.6880  178.4980  143.3040 N   0  0  0  0  0  0  0  0  0  0  0  0
  184.3300  178.8830  142.9220 C   0  0  0  0  0  2  0  0  0  0  0  0
  183.8130  177.9500  141.8290 C   0  0  0  0  0  2  0  0  0  0  0  0
  186.1750  177.7640  141.0210 C   0  0  0  0  0  2  0  0  0  0  0  0
  1 10  1  0  0  0  0
  2  9  1  1  0  0  0
  2  8  1  0  0  0  0
  5  1  1  1  0  0  0
  5  6  1  0  0  0  0
  5 14  1  0  0  0  0
  6 15  1  6  0  0  0
  6  2  1  0  0  0  0
  7  3  1  0  0  0  0
  8 13  1  0  0  0  0
 10 19  1  6  0  0  0
 10 11  1  0  0  0  0
 11  3  1  6  0  0  0
 12  9  1  0  0  0  0
 13 22  1  0  0  0  0
 13  4  2  0  0  0  0
 14  7  1  1  0  0  0
 14  8  1  0  0  0  0
 14 11  1  0  0  0  0
 15 12  1  0  0  0  0
 16 20  1  0  0  0  0
 16 19  2  0  0  0  0
 17 21  1  0  0  0  0
 18 17  2  0  0  0  0
 19 17  1  0  0  0  0
 20 18  1  0  0  0  0
 22 23  1  0  0  0  0
 23 25  2  0  0  0  0
 24 28  1  0  0  0  0
 24 23  1  0  0  0  0
 25 26  1  0  0  0  0
 27 26  1  0  0  0  0
 28 29  1  6  0  0  0
 28 27  1  0  0  0  0
 30 35  1  0  0  0  0
 30 34  1  0  0  0  0
 31 32  1  0  0  0  0
 32 29  1  0  0  0  0
 33 32  1  0  0  0  0
 34 33  1  0  0  0  0
 35 31  1  0  0  0  0
M  END
>  <MODEL>
2

>  <REMARK>
 VINA RESULT:      -7.9      3.050      5.858
  Name = 
  5 active torsions:
  status: ('A' for Active; 'I' for Inactive)
    1  A    between atoms: C_1  and  C_5
    2  A    between atoms: C_5  and  C_28
    3  A    between atoms: N_9  and  C_18
    4  A    between atoms: C_18  and  C_35
    5  A    between atoms: C_22  and  C_30
                            x       y       z     vdW  Elec       q    Type
                         _______ _______ _______ _____ _____    ______ ____

>  <TORSDO>
F 5

$$$$
=
 OpenBabel11062421573D

 35 41  0  0  1  0  0  0  0  0999 V2000
  187.7980  177.1240  144.4660 N   0  0  0  0  0  2  0  0  0  0  0  0
  191.3720  176.6730  144.4660 C   0  0  2  0  0  3  0  0  0  0  0  0
  188.2200  175.7360  147.4000 C   0  0  0  0  0  2  0  0  0  0  0  0
  191.4510  176.0220  148.0950 O   0  0  0  0  0  0  0  0  0  0  0  0
  189.0530  176.3810  144.4000 C   0  0  1  0  0  3  0  0  0  0  0  0
  190.1630  177.2560  143.8780 C   0  0  2  0  0  3  0  0  0  0  0  0
  189.1420  174.9180  146.5060 C   0  0  0  0  0  2  0  0  0  0  0  0
  190.9990  176.5330  145.8580 N   0  0  0  0  0  0  0  0  0  0  0  0
  192.3440  177.7060  144.0030 C   0  0  0  0  0  2  0  0  0  0  0  0
  187.7060  177.7050  145.8080 C   0  0  2  0  0  3  0  0  0  0  0  0
  188.7110  177.0340  146.7490 C   0  0  2  0  0  3  0  0  0  0  0  0
  191.8340  177.9130  142.5560 C   0  0  0  0  0  2  0  0  0  0  0  0
  191.9020  176.3030  146.9520 C   0  0  0  0  0  0  0  0  0  0  0  0
  189.5630  176.2070  145.8340 C   0  0  1  0  0  0  0  0  0  0  0  0
  190.4560  177.3910  142.4760 N   0  0  0  0  0  2  0  0  0  0  0  0
  185.2470  176.9600  145.8460 C   0  0  0  0  0  3  0  0  0  0  0  0
  185.7260  178.5470  147.2620 C   0  0  0  0  0  0  0  0  0  0  0  0
  184.4180  178.2780  147.3700 N   0  0  0  0  0  0  0  0  0  0  0  0
  186.2940  177.7280  146.3140 C   0  0  0  0  0  0  0  0  0  0  0  0
  184.1700  177.3280  146.5130 O   0  0  0  0  0  0  0  0  0  0  0  0
  186.3950  179.5540  148.0130 N   0  0  0  0  0  1  0  0  0  0  0  0
  193.3810  176.4160  146.7640 C   0  0  0  0  0  2  0  0  0  0  0  0
  193.9410  175.1390  146.2260 C   0  0  0  0  0  0  0  0  0  0  0  0
  192.9910  174.1100  145.6600 C   0  0  0  0  0  2  0  0  0  0  0  0
  195.2740  174.9980  146.1380 C   0  0  0  0  0  3  0  0  0  0  0  0
  195.9220  173.7410  145.6210 C   0  0  0  0  0  2  0  0  0  0  0  0
  194.9940  172.9780  144.6850 C   0  0  0  0  0  2  0  0  0  0  0  0
  193.6610  172.7600  145.3880 C   0  0  2  0  0  3  0  0  0  0  0  0
  192.7620  171.8940  144.5210 C   0  0  0  0  0  2  0  0  0  0  0  0
  189.5390  172.9730  142.0340 C   0  0  0  0  0  2  0  0  0  0  0  0
  190.4540  171.9160  144.0960 C   0  0  0  0  0  2  0  0  0  0  0  0
  191.6860  172.6910  143.9540 N   0  0  0  0  0  0  0  0  0  0  0  0
  191.9790  172.8390  142.5290 C   0  0  0  0  0  2  0  0  0  0  0  0
  190.8870  173.6670  141.8560 C   0  0  0  0  0  2  0  0  0  0  0  0
  189.2790  172.6930  143.5100 C   0  0  0  0  0  2  0  0  0  0  0  0
  1 10  1  0  0  0  0
  2  9  1  1  0  0  0
  2  8  1  0  0  0  0
  5  1  1  1  0  0  0
  5 14  1  0  0  0  0
  6 15  1  6  0  0  0
  6  5  1  0  0  0  0
  6  2  1  0  0  0  0
  7  3  1  0  0  0  0
  8 13  1  0  0  0  0
 10 19  1  1  0  0  0
 10 11  1  0  0  0  0
 11  3  1  1  0  0  0
 12  9  1  0  0  0  0
 13  4  2  0  0  0  0
 14  8  1  0  0  0  0
 14  7  1  1  0  0  0
 14 11  1  0  0  0  0
 15 12  1  0  0  0  0
 16 19  2  0  0  0  0
 16 20  1  0  0  0  0
 17 18  2  0  0  0  0
 17 21  1  0  0  0  0
 19 17  1  0  0  0  0
 20 18  1  0  0  0  0
 22 13  1  0  0  0  0
 23 22  1  0  0  0  0
 24 23  1  0  0  0  0
 25 23  2  0  0  0  0
 26 25  1  0  0  0  0
 27 28  1  0  0  0  0
 27 26  1  0  0  0  0
 28 29  1  6  0  0  0
 28 24  1  0  0  0  0
 30 35  1  0  0  0  0
 32 31  1  0  0  0  0
 32 29  1  0  0  0  0
 33 32  1  0  0  0  0
 34 30  1  0  0  0  0
 34 33  1  0  0  0  0
 35 31  1  0  0  0  0
M  END
>  <MODEL>
3

>  <REMARK>
 VINA RESULT:      -7.7      3.255      7.868
  Name = 
  5 active torsions:
  status: ('A' for Active; 'I' for Inactive)
    1  A    between atoms: C_1  and  C_5
    2  A    between atoms: C_5  and  C_28
    3  A    between atoms: N_9  and  C_18
    4  A    between atoms: C_18  and  C_35
    5  A    between atoms: C_22  and  C_30
                            x       y       z     vdW  Elec       q    Type
                         _______ _______ _______ _____ _____    ______ ____

>  <TORSDO>
F 5

$$$$
=
 OpenBabel11062421573D

 35 41  0  0  1  0  0  0  0  0999 V2000
  187.2900  175.1200  142.4810 N   0  0  0  0  0  2  0  0  0  0  0  0
  190.8420  174.5200  142.4330 C   0  0  2  0  0  3  0  0  0  0  0  0
  188.3450  177.6720  144.2370 C   0  0  0  0  0  2  0  0  0  0  0  0
  191.5950  177.9290  143.6230 O   0  0  0  0  0  0  0  0  0  0  0  0
  188.5910  174.7430  143.0260 C   0  0  1  0  0  3  0  0  0  0  0  0
  189.4950  174.2250  141.9370 C   0  0  2  0  0  3  0  0  0  0  0  0
  189.1900  176.5240  144.7720 C   0  0  0  0  0  2  0  0  0  0  0  0
  190.7240  175.9050  142.8380 N   0  0  0  0  0  0  0  0  0  0  0  0
  191.6030  174.1090  141.2170 C   0  0  0  0  0  2  0  0  0  0  0  0
  187.3590  176.5410  142.1340 C   0  0  2  0  0  3  0  0  0  0  0  0
  188.5750  177.1940  142.7990 C   0  0  2  0  0  3  0  0  0  0  0  0
  190.8390  172.8100  140.8600 C   0  0  0  0  0  2  0  0  0  0  0  0
  191.8150  176.7990  143.1090 C   0  0  0  0  0  0  0  0  0  0  0  0
  189.3490  176.0340  143.3490 C   0  0  1  0  0  0  0  0  0  0  0  0
  189.5330  172.8410  141.5470 N   0  0  0  0  0  2  0  0  0  0  0  0
  185.3360  177.2330  143.5590 C   0  0  0  0  0  3  0  0  0  0  0  0
  185.2760  177.9580  141.5040 C   0  0  0  0  0  0  0  0  0  0  0  0
  184.1570  178.3660  142.1190 N   0  0  0  0  0  0  0  0  0  0  0  0
  186.0570  177.2430  142.3830 C   0  0  0  0  0  0  0  0  0  0  0  0
  184.2300  177.9160  143.3400 O   0  0  0  0  0  0  0  0  0  0  0  0
  185.5700  178.2180  140.1370 N   0  0  0  0  0  1  0  0  0  0  0  0
  193.2210  176.4200  142.7670 C   0  0  0  0  0  2  0  0  0  0  0  0
  193.8940  175.7870  143.9410 C   0  0  0  0  0  0  0  0  0  0  0  0
  194.7070  174.5320  143.7230 C   0  0  0  0  0  2  0  0  0  0  0  0
  193.8700  176.4190  145.1260 C   0  0  0  0  0  3  0  0  0  0  0  0
  194.5100  175.8460  146.3620 C   0  0  0  0  0  2  0  0  0  0  0  0
  195.6430  174.8890  146.0120 C   0  0  0  0  0  2  0  0  0  0  0  0
  195.1200  173.8490  145.0300 C   0  0  2  0  0  3  0  0  0  0  0  0
  196.1980  172.8130  144.7630 C   0  0  0  0  0  2  0  0  0  0  0  0
  195.7960  168.8780  146.2100 C   0  0  0  0  0  2  0  0  0  0  0  0
  197.1880  170.7910  145.4270 C   0  0  0  0  0  2  0  0  0  0  0  0
  196.0880  171.7140  145.7080 N   0  0  0  0  0  0  0  0  0  0  0  0
  194.8270  171.0330  145.4160 C   0  0  0  0  0  2  0  0  0  0  0  0
  194.6360  169.8570  146.3700 C   0  0  0  0  0  2  0  0  0  0  0  0
  197.1270  169.6020  146.3820 C   0  0  0  0  0  2  0  0  0  0  0  0
  2  9  1  6  0  0  0
  2  8  1  0  0  0  0
  3  7  1  0  0  0  0
  5  1  1  6  0  0  0
  5 14  1  0  0  0  0
  6 15  1  1  0  0  0
  6  2  1  0  0  0  0
  6  5  1  0  0  0  0
  8 13  1  0  0  0  0
  8 14  1  0  0  0  0
 10 19  1  1  0  0  0
 10  1  1  0  0  0  0
 10 11  1  0  0  0  0
 11 14  1  0  0  0  0
 11  3  1  1  0  0  0
 12  9  1  0  0  0  0
 12 15  1  0  0  0  0
 13  4  2  0  0  0  0
 14  7  1  1  0  0  0
 17 18  2  0  0  0  0
 17 19  1  0  0  0  0
 18 20  1  0  0  0  0
 19 16  2  0  0  0  0
 20 16  1  0  0  0  0
 21 17  1  0  0  0  0
 22 13  1  0  0  0  0
 22 23  1  0  0  0  0
 23 25  2  0  0  0  0
 24 23  1  0  0  0  0
 24 28  1  0  0  0  0
 25 26  1  0  0  0  0
 27 26  1  0  0  0  0
 28 29  1  6  0  0  0
 28 27  1  0  0  0  0
 29 32  1  0  0  0  0
 30 34  1  0  0  0  0
 30 35  1  0  0  0  0
 31 32  1  0  0  0  0
 31 35  1  0  0  0  0
 33 32  1  0  0  0  0
 33 34  1  0  0  0  0
M  END
>  <MODEL>
4

>  <REMARK>
 VINA RESULT:      -7.5      4.084      7.363
  Name = 
  5 active torsions:
  status: ('A' for Active; 'I' for Inactive)
    1  A    between atoms: C_1  and  C_5
    2  A    between atoms: C_5  and  C_28
    3  A    between atoms: N_9  and  C_18
    4  A    between atoms: C_18  and  C_35
    5  A    between atoms: C_22  and  C_30
                            x       y       z     vdW  Elec       q    Type
                         _______ _______ _______ _____ _____    ______ ____

>  <TORSDO>
F 5

$$$$
=
 OpenBabel11062421573D

 35 41  0  0  1  0  0  0  0  0999 V2000
  193.5300  174.9660  145.1570 N   0  0  0  0  0  2  0  0  0  0  0  0
  189.9880  174.3800  144.8560 C   0  0  2  0  0  3  0  0  0  0  0  0
  193.3890  173.7350  142.1270 C   0  0  0  0  0  2  0  0  0  0  0  0
  190.2100  173.9380  141.2010 O   0  0  0  0  0  0  0  0  0  0  0  0
  192.3070  174.1730  145.0840 C   0  0  1  0  0  3  0  0  0  0  0  0
  191.1240  174.9740  145.5670 C   0  0  2  0  0  3  0  0  0  0  0  0
  192.4380  172.8330  142.9010 C   0  0  0  0  0  2  0  0  0  0  0  0
  190.4710  174.3350  143.4910 N   0  0  0  0  0  0  0  0  0  0  0  0
  188.9410  175.3470  145.2980 C   0  0  0  0  0  2  0  0  0  0  0  0
  193.6980  175.6270  143.8600 C   0  0  2  0  0  3  0  0  0  0  0  0
  192.7960  174.9740  142.8080 C   0  0  2  0  0  3  0  0  0  0  0  0
  189.3330  175.4880  146.7900 C   0  0  0  0  0  2  0  0  0  0  0  0
  189.6640  174.1350  142.3190 C   0  0  0  0  0  0  0  0  0  0  0  0
  191.9130  174.0630  143.6080 C   0  0  1  0  0  0  0  0  0  0  0  0
  190.7220  175.0150  146.9470 N   0  0  0  0  0  2  0  0  0  0  0  0
  196.2250  175.3400  144.2270 C   0  0  0  0  0  3  0  0  0  0  0  0
  195.6950  176.3000  142.3430 C   0  0  0  0  0  0  0  0  0  0  0  0
  197.0310  176.2400  142.4140 N   0  0  0  0  0  0  0  0  0  0  0  0
  195.1420  175.7330  143.4680 C   0  0  0  0  0  0  0  0  0  0  0  0
  197.3090  175.6610  143.5480 O   0  0  0  0  0  0  0  0  0  0  0  0
  194.9830  176.8930  141.2630 N   0  0  0  0  0  1  0  0  0  0  0  0
  188.1710  174.1800  142.3990 C   0  0  0  0  0  2  0  0  0  0  0  0
  187.6830  175.5900  142.3120 C   0  0  0  0  0  0  0  0  0  0  0  0
  186.5000  176.0030  143.1550 C   0  0  0  0  0  2  0  0  0  0  0  0
  188.3880  176.4800  141.5920 C   0  0  0  0  0  3  0  0  0  0  0  0
  187.9610  177.9160  141.4400 C   0  0  0  0  0  2  0  0  0  0  0  0
  187.0940  178.3680  142.6090 C   0  0  0  0  0  2  0  0  0  0  0  0
  185.9470  177.3810  142.7790 C   0  0  2  0  0  3  0  0  0  0  0  0
  185.0020  177.8790  143.8600 C   0  0  0  0  0  2  0  0  0  0  0  0
  185.6010  178.2390  148.0130 C   0  0  0  0  0  2  0  0  0  0  0  0
  185.2520  176.8670  145.9620 C   0  0  0  0  0  2  0  0  0  0  0  0
  185.6990  177.9850  145.1310 N   0  0  0  0  0  0  0  0  0  0  0  0
  185.2530  179.2300  145.7520 C   0  0  0  0  0  2  0  0  0  0  0  0
  185.9410  179.4160  147.1030 C   0  0  0  0  0  2  0  0  0  0  0  0
  185.9410  176.9220  147.3230 C   0  0  0  0  0  2  0  0  0  0  0  0
  2  9  1  6  0  0  0
  2  6  1  0  0  0  0
  3  7  1  0  0  0  0
  4 13  2  0  0  0  0
  5  1  1  6  0  0  0
  5  6  1  0  0  0  0
  6 15  1  1  0  0  0
  8 14  1  0  0  0  0
  8  2  1  0  0  0  0
  9 12  1  0  0  0  0
 10 19  1  6  0  0  0
 10  1  1  0  0  0  0
 11  3  1  6  0  0  0
 11 14  1  0  0  0  0
 11 10  1  0  0  0  0
 12 15  1  0  0  0  0
 13 22  1  0  0  0  0
 13  8  1  0  0  0  0
 14  7  1  6  0  0  0
 14  5  1  0  0  0  0
 17 18  2  0  0  0  0
 17 19  1  0  0  0  0
 18 20  1  0  0  0  0
 19 16  2  0  0  0  0
 20 16  1  0  0  0  0
 21 17  1  0  0  0  0
 23 22  1  0  0  0  0
 23 24  1  0  0  0  0
 25 23  2  0  0  0  0
 26 25  1  0  0  0  0
 26 27  1  0  0  0  0
 27 28  1  0  0  0  0
 28 24  1  0  0  0  0
 28 29  1  1  0  0  0
 29 32  1  0  0  0  0
 31 35  1  0  0  0  0
 32 33  1  0  0  0  0
 32 31  1  0  0  0  0
 33 34  1  0  0  0  0
 34 30  1  0  0  0  0
 35 30  1  0  0  0  0
M  END
>  <MODEL>
5

>  <REMARK>
 VINA RESULT:      -7.5      2.931      4.951
  Name = 
  5 active torsions:
  status: ('A' for Active; 'I' for Inactive)
    1  A    between atoms: C_1  and  C_5
    2  A    between atoms: C_5  and  C_28
    3  A    between atoms: N_9  and  C_18
    4  A    between atoms: C_18  and  C_35
    5  A    between atoms: C_22  and  C_30
                            x       y       z     vdW  Elec       q    Type
                         _______ _______ _______ _____ _____    ______ ____

>  <TORSDO>
F 5

$$$$
=
 OpenBabel11062421573D

 35 41  0  0  1  0  0  0  0  0999 V2000
  190.7620  173.4350  143.4110 N   0  0  0  0  0  2  0  0  0  0  0  0
  188.9550  176.5460  143.2150 C   0  0  2  0  0  3  0  0  0  0  0  0
  188.7360  172.7880  140.9220 C   0  0  0  0  0  2  0  0  0  0  0  0
  187.5780  175.7220  139.8950 O   0  0  0  0  0  0  0  0  0  0  0  0
  189.6170  174.3290  143.5600 C   0  0  1  0  0  3  0  0  0  0  0  0
  190.0760  175.7550  143.7330 C   0  0  2  0  0  3  0  0  0  0  0  0
  187.8300  173.5030  141.9160 C   0  0  0  0  0  2  0  0  0  0  0  0
  188.6830  175.9000  141.9480 N   0  0  0  0  0  0  0  0  0  0  0  0
  189.5960  177.8910  143.3020 C   0  0  0  0  0  2  0  0  0  0  0  0
  191.0350  173.3140  141.9770 C   0  0  2  0  0  3  0  0  0  0  0  0
  189.8420  173.8220  141.1620 C   0  0  2  0  0  3  0  0  0  0  0  0
  190.2860  177.7610  144.6820 C   0  0  0  0  0  2  0  0  0  0  0  0
  187.8930  176.4440  140.8790 C   0  0  0  0  0  0  0  0  0  0  0  0
  188.9600  174.4730  142.1840 C   0  0  1  0  0  0  0  0  0  0  0  0
  190.3760  176.3270  145.0180 N   0  0  0  0  0  2  0  0  0  0  0  0
  191.4590  170.8180  142.4160 C   0  0  0  0  0  3  0  0  0  0  0  0
  192.1360  171.5140  140.4640 C   0  0  0  0  0  0  0  0  0  0  0  0
  192.4410  170.2130  140.5670 N   0  0  0  0  0  0  0  0  0  0  0  0
  191.5040  171.9370  141.6100 C   0  0  0  0  0  0  0  0  0  0  0  0
  192.0220  169.8340  141.7420 O   0  0  0  0  0  0  0  0  0  0  0  0
  192.4550  172.3170  139.3330 N   0  0  0  0  0  1  0  0  0  0  0  0
  187.4540  177.8730  140.8990 C   0  0  0  0  0  2  0  0  0  0  0  0
  186.0530  177.9850  141.4080 C   0  0  0  0  0  0  0  0  0  0  0  0
  185.8320  178.2040  142.8870 C   0  0  0  0  0  2  0  0  0  0  0  0
  185.0400  178.0200  140.5260 C   0  0  0  0  0  3  0  0  0  0  0  0
  183.5990  178.1170  140.9530 C   0  0  0  0  0  2  0  0  0  0  0  0
  183.4650  178.7710  142.3220 C   0  0  0  0  0  2  0  0  0  0  0  0
  184.3680  178.0390  143.3060 C   0  0  2  0  0  3  0  0  0  0  0  0
  184.1570  178.5960  144.7040 C   0  0  0  0  0  2  0  0  0  0  0  0
  186.5150  177.2650  147.9290 C   0  0  0  0  0  2  0  0  0  0  0  0
  185.4500  176.9120  145.7050 C   0  0  0  0  0  2  0  0  0  0  0  0
  185.3340  178.3590  145.5240 N   0  0  0  0  0  0  0  0  0  0  0  0
  185.0670  178.9680  146.8260 C   0  0  0  0  0  2  0  0  0  0  0  0
  186.2620  178.7600  147.7540 C   0  0  0  0  0  2  0  0  0  0  0  0
  186.6660  176.5910  146.5700 C   0  0  0  0  0  2  0  0  0  0  0  0
  2  9  1  6  0  0  0
  2  6  1  0  0  0  0
  3  7  1  0  0  0  0
  4 13  2  0  0  0  0
  5  1  1  6  0  0  0
  5  6  1  0  0  0  0
  6 15  1  1  0  0  0
  8 14  1  0  0  0  0
  8  2  1  0  0  0  0
  9 12  1  0  0  0  0
 10 19  1  1  0  0  0
 10  1  1  0  0  0  0
 11  3  1  1  0  0  0
 11 10  1  0  0  0  0
 11 14  1  0  0  0  0
 12 15  1  0  0  0  0
 13 22  1  0  0  0  0
 13  8  1  0  0  0  0
 14  7  1  1  0  0  0
 14  5  1  0  0  0  0
 17 18  2  0  0  0  0
 17 19  1  0  0  0  0
 18 20  1  0  0  0  0
 19 16  2  0  0  0  0
 20 16  1  0  0  0  0
 21 17  1  0  0  0  0
 22 23  1  0  0  0  0
 23 24  1  0  0  0  0
 24 28  1  0  0  0  0
 25 26  1  0  0  0  0
 25 23  2  0  0  0  0
 26 27  1  0  0  0  0
 27 28  1  0  0  0  0
 28 29  1  1  0  0  0
 29 32  1  0  0  0  0
 31 35  1  0  0  0  0
 32 31  1  0  0  0  0
 32 33  1  0  0  0  0
 33 34  1  0  0  0  0
 34 30  1  0  0  0  0
 35 30  1  0  0  0  0
M  END
>  <MODEL>
6

>  <REMARK>
 VINA RESULT:      -7.5      1.864      2.619
  Name = 
  5 active torsions:
  status: ('A' for Active; 'I' for Inactive)
    1  A    between atoms: C_1  and  C_5
    2  A    between atoms: C_5  and  C_28
    3  A    between atoms: N_9  and  C_18
    4  A    between atoms: C_18  and  C_35
    5  A    between atoms: C_22  and  C_30
                            x       y       z     vdW  Elec       q    Type
                         _______ _______ _______ _____ _____    ______ ____

>  <TORSDO>
F 5

$$$$
=
 OpenBabel11062421573D

 35 41  0  0  1  0  0  0  0  0999 V2000
  187.2660  176.9800  144.2450 N   0  0  0  0  0  2  0  0  0  0  0  0
  190.0960  175.9630  146.2280 C   0  0  2  0  0  3  0  0  0  0  0  0
  189.7200  178.0930  142.3880 C   0  0  0  0  0  2  0  0  0  0  0  0
  192.4520  176.5400  143.4500 O   0  0  0  0  0  0  0  0  0  0  0  0
  188.4120  177.1590  145.1310 C   0  0  1  0  0  3  0  0  0  0  0  0
  188.6600  175.9110  145.9390 C   0  0  2  0  0  3  0  0  0  0  0  0
  190.1660  178.4700  143.7940 C   0  0  0  0  0  2  0  0  0  0  0  0
  190.6620  176.2450  144.9250 N   0  0  0  0  0  0  0  0  0  0  0  0
  190.2240  174.6250  146.8770 C   0  0  0  0  0  2  0  0  0  0  0  0
  187.7780  176.4890  142.9640 C   0  0  2  0  0  3  0  0  0  0  0  0
  189.2920  176.7050  142.8770 C   0  0  2  0  0  3  0  0  0  0  0  0
  188.9410  174.6360  147.7460 C   0  0  0  0  0  2  0  0  0  0  0  0
  192.0430  176.0980  144.5570 C   0  0  0  0  0  0  0  0  0  0  0  0
  189.6760  177.1190  144.2660 C   0  0  1  0  0  0  0  0  0  0  0  0
  188.0310  175.6660  147.2090 N   0  0  0  0  0  2  0  0  0  0  0  0
  187.0810  176.6070  140.4930 C   0  0  0  0  0  3  0  0  0  0  0  0
  186.1280  178.0980  141.7670 C   0  0  0  0  0  0  0  0  0  0  0  0
  185.6980  178.2910  140.5130 N   0  0  0  0  0  0  0  0  0  0  0  0
  187.0010  177.0350  141.8030 C   0  0  0  0  0  0  0  0  0  0  0  0
  186.2860  177.3840  139.7840 O   0  0  0  0  0  0  0  0  0  0  0  0
  185.7420  178.9070  142.8720 N   0  0  0  0  0  1  0  0  0  0  0  0
  193.0080  175.4020  145.4620 C   0  0  0  0  0  2  0  0  0  0  0  0
  193.0950  173.9500  145.1200 C   0  0  0  0  0  0  0  0  0  0  0  0
  192.1720  173.3960  144.0600 C   0  0  0  0  0  2  0  0  0  0  0  0
  194.0740  173.2090  145.6660 C   0  0  0  0  0  3  0  0  0  0  0  0
  194.2260  171.7370  145.3880 C   0  0  0  0  0  2  0  0  0  0  0  0
  193.6170  171.3570  144.0440 C   0  0  0  0  0  2  0  0  0  0  0  0
  192.1820  171.8660  143.9950 C   0  0  2  0  0  3  0  0  0  0  0  0
  191.5160  171.3910  142.7140 C   0  0  0  0  0  2  0  0  0  0  0  0
  188.3710  173.1180  140.5090 C   0  0  0  0  0  2  0  0  0  0  0  0
  189.2380  171.9160  142.5120 C   0  0  0  0  0  2  0  0  0  0  0  0
  190.5890  172.3980  142.2240 N   0  0  0  0  0  0  0  0  0  0  0  0
  190.7600  172.4560  140.7740 C   0  0  0  0  0  2  0  0  0  0  0  0
  189.8130  173.4950  140.1780 C   0  0  0  0  0  2  0  0  0  0  0  0
  188.2070  172.9250  142.0130 C   0  0  0  0  0  2  0  0  0  0  0  0
  2  9  1  6  0  0  0
  3  7  1  0  0  0  0
  4 13  2  0  0  0  0
  5  1  1  6  0  0  0
  5  6  1  0  0  0  0
  6  2  1  0  0  0  0
  6 15  1  1  0  0  0
  8  2  1  0  0  0  0
  9 12  1  0  0  0  0
 10 19  1  6  0  0  0
 10  1  1  0  0  0  0
 11  3  1  6  0  0  0
 11 10  1  0  0  0  0
 11 14  1  0  0  0  0
 13  8  1  0  0  0  0
 13 22  1  0  0  0  0
 14  7  1  6  0  0  0
 14  8  1  0  0  0  0
 14  5  1  0  0  0  0
 15 12  1  0  0  0  0
 16 19  2  0  0  0  0
 17 19  1  0  0  0  0
 17 21  1  0  0  0  0
 18 17  2  0  0  0  0
 20 16  1  0  0  0  0
 20 18  1  0  0  0  0
 23 22  1  0  0  0  0
 23 25  2  0  0  0  0
 24 23  1  0  0  0  0
 26 25  1  0  0  0  0
 27 26  1  0  0  0  0
 28 29  1  6  0  0  0
 28 27  1  0  0  0  0
 28 24  1  0  0  0  0
 30 35  1  0  0  0  0
 32 31  1  0  0  0  0
 32 29  1  0  0  0  0
 33 32  1  0  0  0  0
 34 30  1  0  0  0  0
 34 33  1  0  0  0  0
 35 31  1  0  0  0  0
M  END
>  <MODEL>
7

>  <REMARK>
 VINA RESULT:      -7.4      2.560      7.071
  Name = 
  5 active torsions:
  status: ('A' for Active; 'I' for Inactive)
    1  A    between atoms: C_1  and  C_5
    2  A    between atoms: C_5  and  C_28
    3  A    between atoms: N_9  and  C_18
    4  A    between atoms: C_18  and  C_35
    5  A    between atoms: C_22  and  C_30
                            x       y       z     vdW  Elec       q    Type
                         _______ _______ _______ _____ _____    ______ ____

>  <TORSDO>
F 5

$$$$
=
 OpenBabel11062421573D

 35 41  0  0  1  0  0  0  0  0999 V2000
  196.7180  173.0190  144.2030 N   0  0  0  0  0  2  0  0  0  0  0  0
  194.3830  175.3530  142.7620 C   0  0  2  0  0  3  0  0  0  0  0  0
  193.9010  171.8440  145.3850 C   0  0  0  0  0  2  0  0  0  0  0  0
  191.4980  173.1910  143.5360 O   0  0  0  0  0  0  0  0  0  0  0  0
  195.7670  174.1260  144.1940 C   0  0  1  0  0  3  0  0  0  0  0  0
  195.7330  174.7860  142.8390 C   0  0  2  0  0  3  0  0  0  0  0  0
  193.7330  173.3480  145.5500 C   0  0  0  0  0  2  0  0  0  0  0  0
  193.5580  174.2360  143.1710 N   0  0  0  0  0  0  0  0  0  0  0  0
  194.4390  175.8240  141.3470 C   0  0  0  0  0  2  0  0  0  0  0  0
  195.9780  171.8060  143.8480 C   0  0  2  0  0  3  0  0  0  0  0  0
  194.4700  172.0450  143.9760 C   0  0  2  0  0  3  0  0  0  0  0  0
  195.8680  176.4200  141.3280 C   0  0  0  0  0  2  0  0  0  0  0  0
  192.1380  174.1250  142.9840 C   0  0  0  0  0  0  0  0  0  0  0  0
  194.3580  173.5250  144.1830 C   0  0  1  0  0  0  0  0  0  0  0  0
  196.6130  175.8640  142.4750 N   0  0  0  0  0  2  0  0  0  0  0  0
  197.2080  170.6110  145.7620 C   0  0  0  0  0  3  0  0  0  0  0  0
  196.4220  169.2750  144.2290 C   0  0  0  0  0  0  0  0  0  0  0  0
  197.0560  168.5280  145.1430 N   0  0  0  0  0  0  0  0  0  0  0  0
  196.4860  170.6030  144.5870 C   0  0  0  0  0  0  0  0  0  0  0  0
  197.5090  169.3580  146.0400 O   0  0  0  0  0  0  0  0  0  0  0  0
  195.8060  168.7480  143.0600 N   0  0  0  0  0  1  0  0  0  0  0  0
  191.4000  175.0950  142.1180 C   0  0  0  0  0  2  0  0  0  0  0  0
  190.7470  176.1510  142.9490 C   0  0  0  0  0  0  0  0  0  0  0  0
  189.4350  175.8350  143.6280 C   0  0  0  0  0  2  0  0  0  0  0  0
  191.4050  177.3000  143.1790 C   0  0  0  0  0  3  0  0  0  0  0  0
  190.8160  178.4210  143.9930 C   0  0  0  0  0  2  0  0  0  0  0  0
  189.7760  177.9080  144.9800 C   0  0  0  0  0  2  0  0  0  0  0  0
  188.7540  177.0700  144.2240 C   0  0  2  0  0  3  0  0  0  0  0  0
  187.6390  176.6500  145.1670 C   0  0  0  0  0  2  0  0  0  0  0  0
  184.1690  179.0360  145.1450 C   0  0  0  0  0  2  0  0  0  0  0  0
  185.5860  177.2430  146.1380 C   0  0  0  0  0  2  0  0  0  0  0  0
  186.7570  177.7740  145.4380 N   0  0  0  0  0  0  0  0  0  0  0  0
  186.3250  178.2910  144.1410 C   0  0  0  0  0  2  0  0  0  0  0  0
  185.3870  179.4790  144.3390 C   0  0  0  0  0  2  0  0  0  0  0  0
  184.6080  178.3730  146.4470 C   0  0  0  0  0  2  0  0  0  0  0  0
  2  9  1  6  0  0  0
  2  6  1  0  0  0  0
  2  8  1  0  0  0  0
  3  7  1  0  0  0  0
  5  1  1  6  0  0  0
  6 15  1  1  0  0  0
  6  5  1  0  0  0  0
  8 14  1  0  0  0  0
 10 11  1  0  0  0  0
 10  1  1  0  0  0  0
 10 19  1  1  0  0  0
 11 14  1  0  0  0  0
 11  3  1  1  0  0  0
 12  9  1  0  0  0  0
 12 15  1  0  0  0  0
 13  8  1  0  0  0  0
 13  4  2  0  0  0  0
 14  5  1  0  0  0  0
 14  7  1  1  0  0  0
 16 20  1  0  0  0  0
 17 19  1  0  0  0  0
 17 18  2  0  0  0  0
 18 20  1  0  0  0  0
 19 16  2  0  0  0  0
 21 17  1  0  0  0  0
 22 23  1  0  0  0  0
 22 13  1  0  0  0  0
 23 25  2  0  0  0  0
 23 24  1  0  0  0  0
 24 28  1  0  0  0  0
 25 26  1  0  0  0  0
 26 27  1  0  0  0  0
 28 27  1  0  0  0  0
 28 29  1  1  0  0  0
 29 32  1  0  0  0  0
 30 35  1  0  0  0  0
 31 35  1  0  0  0  0
 32 31  1  0  0  0  0
 33 34  1  0  0  0  0
 33 32  1  0  0  0  0
 34 30  1  0  0  0  0
M  END
>  <MODEL>
8

>  <REMARK>
 VINA RESULT:      -7.4      4.413      5.985
  Name = 
  5 active torsions:
  status: ('A' for Active; 'I' for Inactive)
    1  A    between atoms: C_1  and  C_5
    2  A    between atoms: C_5  and  C_28
    3  A    between atoms: N_9  and  C_18
    4  A    between atoms: C_18  and  C_35
    5  A    between atoms: C_22  and  C_30
                            x       y       z     vdW  Elec       q    Type
                         _______ _______ _______ _____ _____    ______ ____

>  <TORSDO>
F 5

$$$$
=
 OpenBabel11062421573D

 35 41  0  0  1  0  0  0  0  0999 V2000
  191.5840  174.4580  141.9460 N   0  0  0  0  0  2  0  0  0  0  0  0
  191.0400  176.7370  144.6820 C   0  0  2  0  0  3  0  0  0  0  0  0
  190.3830  172.4060  144.1960 C   0  0  0  0  0  2  0  0  0  0  0  0
  188.9370  174.3100  146.4960 O   0  0  0  0  0  0  0  0  0  0  0  0
  191.8350  175.0700  143.2470 C   0  0  1  0  0  3  0  0  0  0  0  0
  191.3420  176.4950  143.2680 C   0  0  2  0  0  3  0  0  0  0  0  0
  191.3400  173.2700  145.0060 C   0  0  0  0  0  2  0  0  0  0  0  0
  190.2550  175.5720  145.0320 N   0  0  0  0  0  0  0  0  0  0  0  0
  190.4310  178.0910  144.5320 C   0  0  0  0  0  2  0  0  0  0  0  0
  190.2790  173.7970  142.0210 C   0  0  2  0  0  3  0  0  0  0  0  0
  189.8390  173.6480  143.4810 C   0  0  2  0  0  3  0  0  0  0  0  0
  191.4190  178.7090  143.5130 C   0  0  0  0  0  2  0  0  0  0  0  0
  189.4350  175.4310  146.2040 C   0  0  0  0  0  0  0  0  0  0  0  0
  190.8340  174.4730  144.2400 C   0  0  1  0  0  0  0  0  0  0  0  0
  192.1560  177.6090  142.8620 N   0  0  0  0  0  2  0  0  0  0  0  0
  191.1770  171.5080  141.2750 C   0  0  0  0  0  3  0  0  0  0  0  0
  189.3640  172.1400  140.2430 C   0  0  0  0  0  0  0  0  0  0  0  0
  189.7330  170.9540  139.7410 N   0  0  0  0  0  0  0  0  0  0  0  0
  190.2470  172.5260  141.2250 C   0  0  0  0  0  0  0  0  0  0  0  0
  190.8150  170.6090  140.3810 O   0  0  0  0  0  0  0  0  0  0  0  0
  188.2360  172.8790  139.7880 N   0  0  0  0  0  1  0  0  0  0  0  0
  189.1380  176.6060  147.0790 C   0  0  0  0  0  2  0  0  0  0  0  0
  187.8010  177.1850  146.7450 C   0  0  0  0  0  0  0  0  0  0  0  0
  187.1860  176.8680  145.4020 C   0  0  0  0  0  2  0  0  0  0  0  0
  187.1280  177.8580  147.6930 C   0  0  0  0  0  3  0  0  0  0  0  0
  185.7820  178.4850  147.4380 C   0  0  0  0  0  2  0  0  0  0  0  0
  185.0440  177.7820  146.3060 C   0  0  0  0  0  2  0  0  0  0  0  0
  185.9560  177.7230  145.0880 C   0  0  2  0  0  3  0  0  0  0  0  0
  185.1960  177.1370  143.9100 C   0  0  0  0  0  2  0  0  0  0  0  0
  185.8640  177.6520  139.7840 C   0  0  0  0  0  2  0  0  0  0  0  0
  184.4570  177.9160  141.8230 C   0  0  0  0  0  2  0  0  0  0  0  0
  185.6400  177.7490  142.6680 N   0  0  0  0  0  0  0  0  0  0  0  0
  186.5370  176.7910  142.0250 C   0  0  0  0  0  2  0  0  0  0  0  0
  187.0470  177.3610  140.7030 C   0  0  0  0  0  2  0  0  0  0  0  0
  184.8530  178.5480  140.4920 C   0  0  0  0  0  2  0  0  0  0  0  0
  1 10  1  0  0  0  0
  2  9  1  6  0  0  0
  2  8  1  0  0  0  0
  3  7  1  0  0  0  0
  5  1  1  6  0  0  0
  5  6  1  0  0  0  0
  5 14  1  0  0  0  0
  6 15  1  1  0  0  0
  6  2  1  0  0  0  0
  8 13  1  0  0  0  0
 10 19  1  1  0  0  0
 10 11  1  0  0  0  0
 11  3  1  1  0  0  0
 11 14  1  0  0  0  0
 12  9  1  0  0  0  0
 13  4  2  0  0  0  0
 13 22  1  0  0  0  0
 14  7  1  1  0  0  0
 14  8  1  0  0  0  0
 15 12  1  0  0  0  0
 17 19  1  0  0  0  0
 18 17  2  0  0  0  0
 18 20  1  0  0  0  0
 19 16  2  0  0  0  0
 20 16  1  0  0  0  0
 21 17  1  0  0  0  0
 23 22  1  0  0  0  0
 23 25  2  0  0  0  0
 24 23  1  0  0  0  0
 26 25  1  0  0  0  0
 27 26  1  0  0  0  0
 28 29  1  6  0  0  0
 28 24  1  0  0  0  0
 28 27  1  0  0  0  0
 30 35  1  0  0  0  0
 30 34  1  0  0  0  0
 31 32  1  0  0  0  0
 32 29  1  0  0  0  0
 33 32  1  0  0  0  0
 34 33  1  0  0  0  0
 35 31  1  0  0  0  0
M  END
>  <MODEL>
9

>  <REMARK>
 VINA RESULT:      -7.3      2.112      4.216
  Name = 
  5 active torsions:
  status: ('A' for Active; 'I' for Inactive)
    1  A    between atoms: C_1  and  C_5
    2  A    between atoms: C_5  and  C_28
    3  A    between atoms: N_9  and  C_18
    4  A    between atoms: C_18  and  C_35
    5  A    between atoms: C_22  and  C_30
                            x       y       z     vdW  Elec       q    Type
                         _______ _______ _______ _____ _____    ______ ____

>  <TORSDO>
F 5

$$$$
