=
 OpenBabel11062418533D

 37 42  0  0  1  0  0  0  0  0999 V2000
  189.7180  175.2150  142.0890 C   0  0  0  0  0  0  0  0  0  0  0  0
  188.2980  175.6600  142.2600 C   0  0  2  0  0  3  0  0  0  0  0  0
  193.4660  175.7280  142.6430 C   0  0  2  0  0  3  0  0  0  0  0  0
  195.4560  174.0480  142.8850 C   0  0  0  0  0  1  0  0  0  0  0  0
  192.1000  175.2580  142.2780 C   0  0  0  0  0  0  0  0  0  0  0  0
  189.8040  173.9960  141.4460 C   0  0  0  0  0  0  0  0  0  0  0  0
  190.8700  175.8830  142.5300 C   0  0  0  0  0  3  0  0  0  0  0  0
  188.4740  173.5440  141.1340 C   0  0  0  0  0  0  0  0  0  0  0  0
  188.1990  172.4670  140.5430 O   0  0  0  0  0  0  0  0  0  0  0  0
  192.1740  174.0450  141.6280 C   0  0  0  0  0  0  0  0  0  0  0  0
  193.5060  173.6020  141.4660 N   0  0  0  0  0  2  0  0  0  0  0  0
  187.4610  174.5300  141.6130 C   0  0  0  0  0  2  0  0  0  0  0  0
  194.3840  174.6490  141.9870 C   0  0  1  0  0  3  0  0  0  0  0  0
  191.0290  173.3680  141.1910 C   0  0  0  0  0  3  0  0  0  0  0  0
  194.3590  176.9690  144.6260 C   0  0  0  0  0  3  0  0  0  0  0  0
  193.6180  175.8880  144.1350 C   0  0  0  0  0  0  0  0  0  0  0  0
  193.2060  175.1520  146.4130 C   0  0  0  0  0  3  0  0  0  0  0  0
  193.0430  174.9760  145.0370 C   0  0  0  0  0  3  0  0  0  0  0  0
  193.9440  176.2350  146.8970 C   0  0  0  0  0  3  0  0  0  0  0  0
  194.5210  177.1430  146.0040 C   0  0  0  0  0  3  0  0  0  0  0  0
  188.0660  176.9700  141.5250 C   0  0  0  0  0  2  0  0  0  0  0  0
  187.6650  178.0570  142.5070 C   0  0  0  0  0  2  0  0  0  0  0  0
  186.3920  177.5050  144.6100 C   0  0  1  0  0  3  0  0  0  0  0  0
  188.5890  175.9800  146.5000 C   0  0  2  0  0  3  0  0  0  0  0  0
  189.8710  176.8260  146.3930 C   0  0  1  0  0  3  0  0  0  0  0  0
  184.9370  177.0750  146.4410 C   0  0  0  0  0  2  0  0  0  0  0  0
  185.7990  178.8490  144.9820 C   0  0  0  0  0  2  0  0  0  0  0  0
  190.0010  177.5320  145.0420 C   0  0  0  0  0  2  0  0  0  0  0  0
  187.3400  176.7840  146.8670 C   0  0  0  0  0  2  0  0  0  0  0  0
  187.7740  177.5470  143.9340 C   0  0  2  0  0  3  0  0  0  0  0  0
  190.0510  177.8110  147.5400 C   0  0  0  0  0  1  0  0  0  0  0  0
  188.7870  178.3890  144.6980 C   0  0  0  0  0  2  0  0  0  0  0  0
  186.2380  176.5990  145.8270 C   0  0  2  0  0  3  0  0  0  0  0  0
  184.7810  178.5460  146.0700 C   0  0  0  0  0  2  0  0  0  0  0  0
  188.7590  174.7830  147.3300 N   0  0  0  0  0  2  0  0  0  0  0  0
  189.8380  173.9410  146.8240 C   0  0  0  0  0  2  0  0  0  0  0  0
  189.5650  173.5760  145.3770 C   0  0  0  0  0  1  0  0  0  0  0  0
  1  2  1  0  0  0  0
  1  7  1  0  0  0  0
  2 21  1  6  0  0  0
  3 16  1  1  0  0  0
  5  7  2  0  0  0  0
  5  3  1  0  0  0  0
  6  1  2  0  0  0  0
  8  6  1  0  0  0  0
  8 12  1  0  0  0  0
  9  8  2  0  0  0  0
 10  5  1  0  0  0  0
 11 10  1  0  0  0  0
 11 13  1  0  0  0  0
 12  2  1  0  0  0  0
 13  3  1  0  0  0  0
 13  4  1  1  0  0  0
 14  6  1  0  0  0  0
 14 10  2  0  0  0  0
 15 20  1  0  0  0  0
 16 15  2  0  0  0  0
 16 18  1  0  0  0  0
 17 19  1  0  0  0  0
 18 17  2  0  0  0  0
 20 19  2  0  0  0  0
 21 22  1  0  0  0  0
 23 27  1  1  0  0  0
 23 33  1  0  0  0  0
 24 29  1  0  0  0  0
 24 35  1  1  0  0  0
 25 24  1  0  0  0  0
 25 31  1  1  0  0  0
 27 34  1  0  0  0  0
 28 25  1  0  0  0  0
 30 22  1  6  0  0  0
 30 23  1  0  0  0  0
 30 32  1  0  0  0  0
 32 28  1  0  0  0  0
 33 26  1  1  0  0  0
 33 29  1  0  0  0  0
 34 26  1  0  0  0  0
 36 35  1  0  0  0  0
 37 36  1  0  0  0  0
M  END
>  <MODEL>
1

>  <REMARK>
 VINA RESULT:      -7.7      0.000      0.000
  Name = 
  6 active torsions:
  status: ('A' for Active; 'I' for Inactive)
    1  A    between atoms: C_2  and  N_7
    2  A    between atoms: C_4  and  C_28
    3  A    between atoms: C_4  and  C_37
    4  A    between atoms: C_5  and  C_37
    5  A    between atoms: N_7  and  C_9
    6  A    between atoms: C_8  and  C_11
                            x       y       z     vdW  Elec       q    Type
                         _______ _______ _______ _____ _____    ______ ____

>  <TORSDO>
F 6

$$$$
=
 OpenBabel11062418533D

 37 42  0  0  1  0  0  0  0  0999 V2000
  187.6860  177.3850  145.1760 C   0  0  0  0  0  0  0  0  0  0  0  0
  188.1230  177.1200  146.5840 C   0  0  2  0  0  3  0  0  0  0  0  0
  188.0970  176.9010  141.4060 C   0  0  2  0  0  3  0  0  0  0  0  0
  186.3800  176.9090  139.4320 C   0  0  0  0  0  1  0  0  0  0  0  0
  187.6830  177.2700  142.7880 C   0  0  0  0  0  0  0  0  0  0  0  0
  186.5430  178.1600  145.1270 C   0  0  0  0  0  0  0  0  0  0  0  0
  188.2890  176.9110  144.0020 C   0  0  0  0  0  3  0  0  0  0  0  0
  186.1410  178.4750  146.4720 C   0  0  0  0  0  0  0  0  0  0  0  0
  185.1390  179.1710  146.7800 O   0  0  0  0  0  0  0  0  0  0  0  0
  186.5480  178.0510  142.7510 C   0  0  0  0  0  0  0  0  0  0  0  0
  186.1110  178.3030  141.4320 N   0  0  0  0  0  2  0  0  0  0  0  0
  187.0800  177.8580  147.4550 C   0  0  0  0  0  2  0  0  0  0  0  0
  187.0860  177.7000  140.5230 C   0  0  1  0  0  3  0  0  0  0  0  0
  185.9340  178.5210  143.9190 C   0  0  0  0  0  3  0  0  0  0  0  0
  187.3770  174.6070  142.1050 C   0  0  0  0  0  3  0  0  0  0  0  0
  188.0910  175.4060  141.2050 C   0  0  0  0  0  0  0  0  0  0  0  0
  188.7650  173.4130  139.9900 C   0  0  0  0  0  3  0  0  0  0  0  0
  188.7890  174.8010  140.1450 C   0  0  0  0  0  3  0  0  0  0  0  0
  188.0480  172.6210  140.8900 C   0  0  0  0  0  3  0  0  0  0  0  0
  187.3550  173.2180  141.9480 C   0  0  0  0  0  3  0  0  0  0  0  0
  189.5090  177.7000  146.8210 C   0  0  0  0  0  2  0  0  0  0  0  0
  190.4290  176.6380  147.3950 C   0  0  0  0  0  2  0  0  0  0  0  0
  190.7260  175.2910  145.2870 C   0  0  1  0  0  3  0  0  0  0  0  0
  193.7630  176.0100  144.2960 C   0  0  2  0  0  3  0  0  0  0  0  0
  194.6300  175.9380  145.5660 C   0  0  1  0  0  3  0  0  0  0  0  0
  190.7020  173.9580  143.3170 C   0  0  0  0  0  2  0  0  0  0  0  0
  190.3320  173.9010  145.7420 C   0  0  0  0  0  2  0  0  0  0  0  0
  193.8540  176.3070  146.8310 C   0  0  0  0  0  2  0  0  0  0  0  0
  192.9000  174.7690  144.0570 C   0  0  0  0  0  2  0  0  0  0  0  0
  191.4190  176.1690  146.3420 C   0  0  2  0  0  3  0  0  0  0  0  0
  195.3510  174.6080  145.7390 C   0  0  0  0  0  1  0  0  0  0  0  0
  192.5910  175.4740  147.0210 C   0  0  0  0  0  2  0  0  0  0  0  0
  191.4240  175.1360  143.9390 C   0  0  2  0  0  3  0  0  0  0  0  0
  190.2000  173.0870  144.4640 C   0  0  0  0  0  2  0  0  0  0  0  0
  194.5200  176.4130  143.1060 N   0  0  0  0  0  2  0  0  0  0  0  0
  194.6210  175.3140  142.1500 C   0  0  0  0  0  2  0  0  0  0  0  0
  196.0650  174.8670  142.0380 C   0  0  0  0  0  1  0  0  0  0  0  0
  1  2  1  0  0  0  0
  2 21  1  6  0  0  0
  2 12  1  0  0  0  0
  3 16  1  1  0  0  0
  3  5  1  0  0  0  0
  5  7  1  0  0  0  0
  6  1  1  0  0  0  0
  6  8  1  0  0  0  0
  7  1  2  0  0  0  0
  8  9  2  0  0  0  0
  8 12  1  0  0  0  0
 10  5  2  0  0  0  0
 10 14  1  0  0  0  0
 11 10  1  0  0  0  0
 13  4  1  6  0  0  0
 13  3  1  0  0  0  0
 13 11  1  0  0  0  0
 14  6  2  0  0  0  0
 16 15  2  0  0  0  0
 17 18  2  0  0  0  0
 17 19  1  0  0  0  0
 18 16  1  0  0  0  0
 19 20  2  0  0  0  0
 20 15  1  0  0  0  0
 21 22  1  0  0  0  0
 23 27  1  1  0  0  0
 23 30  1  0  0  0  0
 24 35  1  6  0  0  0
 24 25  1  0  0  0  0
 25 31  1  1  0  0  0
 25 28  1  0  0  0  0
 26 34  1  0  0  0  0
 28 32  1  0  0  0  0
 29 24  1  0  0  0  0
 30 32  1  0  0  0  0
 30 22  1  1  0  0  0
 33 26  1  6  0  0  0
 33 29  1  0  0  0  0
 33 23  1  0  0  0  0
 34 27  1  0  0  0  0
 36 35  1  0  0  0  0
 37 36  1  0  0  0  0
M  END
>  <MODEL>
2

>  <REMARK>
 VINA RESULT:      -7.7      2.425      6.807
  Name = 
  6 active torsions:
  status: ('A' for Active; 'I' for Inactive)
    1  A    between atoms: C_2  and  N_7
    2  A    between atoms: C_4  and  C_28
    3  A    between atoms: C_4  and  C_37
    4  A    between atoms: C_5  and  C_37
    5  A    between atoms: N_7  and  C_9
    6  A    between atoms: C_8  and  C_11
                            x       y       z     vdW  Elec       q    Type
                         _______ _______ _______ _____ _____    ______ ____

>  <TORSDO>
F 6

$$$$
=
 OpenBabel11062418533D

 37 42  0  0  1  0  0  0  0  0999 V2000
  191.0870  173.3440  144.0580 C   0  0  0  0  0  0  0  0  0  0  0  0
  190.0220  172.4550  144.6220 C   0  0  2  0  0  3  0  0  0  0  0  0
  194.4040  175.2130  144.4070 C   0  0  2  0  0  3  0  0  0  0  0  0
  196.2400  175.8820  142.6680 C   0  0  0  0  0  1  0  0  0  0  0  0
  193.1150  174.6070  143.9720 C   0  0  0  0  0  0  0  0  0  0  0  0
  190.8420  173.6720  142.7390 C   0  0  0  0  0  0  0  0  0  0  0  0
  192.2400  173.8000  144.7150 C   0  0  0  0  0  3  0  0  0  0  0  0
  189.6120  173.0490  142.3290 C   0  0  0  0  0  0  0  0  0  0  0  0
  189.0990  173.1500  141.1840 O   0  0  0  0  0  0  0  0  0  0  0  0
  192.8560  174.9350  142.6590 C   0  0  0  0  0  0  0  0  0  0  0  0
  193.8560  175.7640  142.1040 N   0  0  0  0  0  2  0  0  0  0  0  0
  189.0270  172.2590  143.4530 C   0  0  0  0  0  2  0  0  0  0  0  0
  194.8140  176.0680  143.1660 C   0  0  1  0  0  3  0  0  0  0  0  0
  191.7120  174.4770  141.9930 C   0  0  0  0  0  3  0  0  0  0  0  0
  195.5010  172.9880  144.0670 C   0  0  0  0  0  3  0  0  0  0  0  0
  195.4000  174.1600  144.8250 C   0  0  0  0  0  0  0  0  0  0  0  0
  197.1260  173.3270  146.3190 C   0  0  0  0  0  3  0  0  0  0  0  0
  196.2170  174.3250  145.9580 C   0  0  0  0  0  3  0  0  0  0  0  0
  197.2240  172.1610  145.5550 C   0  0  0  0  0  3  0  0  0  0  0  0
  196.4110  171.9910  144.4300 C   0  0  0  0  0  3  0  0  0  0  0  0
  189.3300  173.1410  145.7900 C   0  0  0  0  0  2  0  0  0  0  0  0
  189.9020  174.5340  145.9910 C   0  0  0  0  0  2  0  0  0  0  0  0
  189.5500  176.3390  144.2690 C   0  0  1  0  0  3  0  0  0  0  0  0
  186.3830  177.1180  144.5580 C   0  0  2  0  0  3  0  0  0  0  0  0
  186.1300  177.2260  146.0730 C   0  0  1  0  0  3  0  0  0  0  0  0
  189.5040  177.9750  142.5440 C   0  0  0  0  0  2  0  0  0  0  0  0
  190.6580  177.3170  144.6060 C   0  0  0  0  0  2  0  0  0  0  0  0
  187.0330  176.3000  146.8900 C   0  0  0  0  0  2  0  0  0  0  0  0
  187.5750  177.9410  144.0640 C   0  0  0  0  0  2  0  0  0  0  0  0
  188.9390  175.5830  145.4620 C   0  0  2  0  0  3  0  0  0  0  0  0
  186.1940  178.6530  146.6040 C   0  0  0  0  0  1  0  0  0  0  0  0
  188.5150  176.5030  146.5980 C   0  0  0  0  0  2  0  0  0  0  0  0
  188.5870  177.0640  143.3340 C   0  0  2  0  0  3  0  0  0  0  0  0
  190.7010  178.2870  143.4370 C   0  0  0  0  0  2  0  0  0  0  0  0
  185.1730  177.3330  143.7580 N   0  0  0  0  0  2  0  0  0  0  0  0
  185.2600  178.5750  142.9960 C   0  0  0  0  0  2  0  0  0  0  0  0
  184.8080  178.3320  141.5690 C   0  0  0  0  0  1  0  0  0  0  0  0
  1  2  1  0  0  0  0
  1  7  1  0  0  0  0
  2 21  1  1  0  0  0
  3 16  1  6  0  0  0
  5  3  1  0  0  0  0
  5  7  2  0  0  0  0
  6  1  2  0  0  0  0
  8  6  1  0  0  0  0
  8 12  1  0  0  0  0
  9  8  2  0  0  0  0
 10  5  1  0  0  0  0
 11 10  1  0  0  0  0
 11 13  1  0  0  0  0
 12  2  1  0  0  0  0
 13  4  1  6  0  0  0
 13  3  1  0  0  0  0
 14 10  2  0  0  0  0
 14  6  1  0  0  0  0
 15 20  2  0  0  0  0
 15 16  1  0  0  0  0
 16 18  2  0  0  0  0
 18 17  1  0  0  0  0
 19 17  2  0  0  0  0
 20 19  1  0  0  0  0
 21 22  1  0  0  0  0
 23 27  1  1  0  0  0
 23 30  1  0  0  0  0
 24 35  1  6  0  0  0
 24 25  1  0  0  0  0
 25 31  1  1  0  0  0
 25 28  1  0  0  0  0
 26 34  1  0  0  0  0
 29 24  1  0  0  0  0
 30 22  1  1  0  0  0
 30 32  1  0  0  0  0
 32 28  1  0  0  0  0
 33 26  1  6  0  0  0
 33 29  1  0  0  0  0
 33 23  1  0  0  0  0
 34 27  1  0  0  0  0
 36 35  1  0  0  0  0
 37 36  1  0  0  0  0
M  END
>  <MODEL>
3

>  <REMARK>
 VINA RESULT:      -7.3      2.019      4.091
  Name = 
  6 active torsions:
  status: ('A' for Active; 'I' for Inactive)
    1  A    between atoms: C_2  and  N_7
    2  A    between atoms: C_4  and  C_28
    3  A    between atoms: C_4  and  C_37
    4  A    between atoms: C_5  and  C_37
    5  A    between atoms: N_7  and  C_9
    6  A    between atoms: C_8  and  C_11
                            x       y       z     vdW  Elec       q    Type
                         _______ _______ _______ _____ _____    ______ ____

>  <TORSDO>
F 6

$$$$
=
 OpenBabel11062418533D

 37 42  0  0  1  0  0  0  0  0999 V2000
  193.9290  174.7270  145.5500 C   0  0  0  0  0  0  0  0  0  0  0  0
  192.8310  175.7430  145.6300 C   0  0  2  0  0  3  0  0  0  0  0  0
  195.1540  171.1120  145.7620 C   0  0  2  0  0  3  0  0  0  0  0  0
  197.1090  169.8430  144.5760 C   0  0  0  0  0  1  0  0  0  0  0  0
  194.9850  172.5840  145.6090 C   0  0  0  0  0  0  0  0  0  0  0  0
  195.1340  175.2970  145.1880 C   0  0  0  0  0  0  0  0  0  0  0  0
  193.8180  173.3460  145.7670 C   0  0  0  0  0  3  0  0  0  0  0  0
  194.9410  176.7120  145.0110 C   0  0  0  0  0  0  0  0  0  0  0  0
  195.8430  177.5270  144.6840 O   0  0  0  0  0  0  0  0  0  0  0  0
  196.1840  173.1640  145.2560 C   0  0  0  0  0  0  0  0  0  0  0  0
  197.2320  172.2210  145.1630 N   0  0  0  0  0  2  0  0  0  0  0  0
  193.5180  177.0810  145.2670 C   0  0  0  0  0  2  0  0  0  0  0  0
  196.6910  170.9230  145.5630 C   0  0  1  0  0  3  0  0  0  0  0  0
  196.3020  174.5410  145.0280 C   0  0  0  0  0  3  0  0  0  0  0  0
  193.8260  169.0750  145.1620 C   0  0  0  0  0  3  0  0  0  0  0  0
  194.2780  170.3490  144.8000 C   0  0  0  0  0  0  0  0  0  0  0  0
  193.1040  170.1490  142.6810 C   0  0  0  0  0  3  0  0  0  0  0  0
  193.9150  170.8840  143.5510 C   0  0  0  0  0  3  0  0  0  0  0  0
  192.6540  168.8790  143.0510 C   0  0  0  0  0  3  0  0  0  0  0  0
  193.0150  168.3420  144.2910 C   0  0  0  0  0  3  0  0  0  0  0  0
  192.2760  175.8050  147.0450 C   0  0  0  0  0  2  0  0  0  0  0  0
  190.7860  175.5100  147.0360 C   0  0  0  0  0  2  0  0  0  0  0  0
  189.3860  176.2650  145.0820 C   0  0  1  0  0  3  0  0  0  0  0  0
  190.1850  174.1920  142.6750 C   0  0  2  0  0  3  0  0  0  0  0  0
  190.1840  172.7970  143.3270 C   0  0  1  0  0  3  0  0  0  0  0  0
  187.9930  177.2240  143.4100 C   0  0  0  0  0  2  0  0  0  0  0  0
  187.9970  176.3060  145.6850 C   0  0  0  0  0  2  0  0  0  0  0  0
  190.5640  172.8380  144.8080 C   0  0  0  0  0  2  0  0  0  0  0  0
  188.9060  174.9960  142.9200 C   0  0  0  0  0  2  0  0  0  0  0  0
  190.3220  175.1730  145.6290 C   0  0  2  0  0  3  0  0  0  0  0  0
  188.8880  172.0260  143.1190 C   0  0  0  0  0  1  0  0  0  0  0  0
  189.6910  173.7870  145.6210 C   0  0  0  0  0  2  0  0  0  0  0  0
  189.2160  176.3430  143.5680 C   0  0  2  0  0  3  0  0  0  0  0  0
  187.1400  177.0310  144.6600 C   0  0  0  0  0  2  0  0  0  0  0  0
  190.5780  174.1660  141.2630 N   0  0  0  0  0  2  0  0  0  0  0  0
  192.0290  174.0870  141.1220 C   0  0  0  0  0  2  0  0  0  0  0  0
  192.6860  175.1220  142.0140 C   0  0  0  0  0  1  0  0  0  0  0  0
  1  2  1  0  0  0  0
  1  7  1  0  0  0  0
  2 21  1  1  0  0  0
  3 16  1  6  0  0  0
  5  3  1  0  0  0  0
  5  7  2  0  0  0  0
  6  1  2  0  0  0  0
  8  6  1  0  0  0  0
  8 12  1  0  0  0  0
  9  8  2  0  0  0  0
 10  5  1  0  0  0  0
 11 10  1  0  0  0  0
 11 13  1  0  0  0  0
 12  2  1  0  0  0  0
 13  4  1  6  0  0  0
 13  3  1  0  0  0  0
 14  6  1  0  0  0  0
 14 10  2  0  0  0  0
 16 15  1  0  0  0  0
 17 19  2  0  0  0  0
 17 18  1  0  0  0  0
 18 16  2  0  0  0  0
 19 20  1  0  0  0  0
 20 15  2  0  0  0  0
 22 21  1  0  0  0  0
 23 30  1  0  0  0  0
 23 27  1  1  0  0  0
 24 35  1  6  0  0  0
 24 29  1  0  0  0  0
 24 25  1  0  0  0  0
 25 31  1  1  0  0  0
 25 28  1  0  0  0  0
 26 33  1  0  0  0  0
 26 34  1  0  0  0  0
 28 32  1  0  0  0  0
 30 22  1  1  0  0  0
 32 30  1  0  0  0  0
 33 29  1  1  0  0  0
 33 23  1  0  0  0  0
 34 27  1  0  0  0  0
 36 35  1  0  0  0  0
 36 37  1  0  0  0  0
M  END
>  <MODEL>
4

>  <REMARK>
 VINA RESULT:      -7.1      3.330      5.964
  Name = 
  6 active torsions:
  status: ('A' for Active; 'I' for Inactive)
    1  A    between atoms: C_2  and  N_7
    2  A    between atoms: C_4  and  C_28
    3  A    between atoms: C_4  and  C_37
    4  A    between atoms: C_5  and  C_37
    5  A    between atoms: N_7  and  C_9
    6  A    between atoms: C_8  and  C_11
                            x       y       z     vdW  Elec       q    Type
                         _______ _______ _______ _____ _____    ______ ____

>  <TORSDO>
F 6

$$$$
=
 OpenBabel11062418533D

 37 42  0  0  1  0  0  0  0  0999 V2000
  191.0790  173.1950  142.3650 C   0  0  0  0  0  0  0  0  0  0  0  0
  189.6040  173.3070  142.1310 C   0  0  2  0  0  3  0  0  0  0  0  0
  194.4580  174.7810  143.1940 C   0  0  2  0  0  3  0  0  0  0  0  0
  196.5920  173.8540  144.3900 C   0  0  0  0  0  1  0  0  0  0  0  0
  193.3120  173.8880  142.8620 C   0  0  0  0  0  0  0  0  0  0  0  0
  191.5150  171.8850  142.3000 C   0  0  0  0  0  0  0  0  0  0  0  0
  191.9690  174.2390  142.6550 C   0  0  0  0  0  3  0  0  0  0  0  0
  190.3880  171.0380  142.0120 C   0  0  0  0  0  0  0  0  0  0  0  0
  190.4410  169.7870  141.8820 O   0  0  0  0  0  0  0  0  0  0  0  0
  193.7370  172.5800  142.7860 C   0  0  0  0  0  0  0  0  0  0  0  0
  195.1240  172.4500  143.0150 N   0  0  0  0  0  2  0  0  0  0  0  0
  189.1410  171.8500  141.8920 C   0  0  0  0  0  2  0  0  0  0  0  0
  195.6700  173.7970  143.1800 C   0  0  1  0  0  3  0  0  0  0  0  0
  192.8540  171.5300  142.5060 C   0  0  0  0  0  3  0  0  0  0  0  0
  194.7550  176.8020  144.6420 C   0  0  0  0  0  3  0  0  0  0  0  0
  194.2330  175.5120  144.4940 C   0  0  0  0  0  0  0  0  0  0  0  0
  193.3340  175.6320  146.7490 C   0  0  0  0  0  3  0  0  0  0  0  0
  193.5220  174.9270  145.5570 C   0  0  0  0  0  3  0  0  0  0  0  0
  193.8560  176.9210  146.8880 C   0  0  0  0  0  3  0  0  0  0  0  0
  194.5670  177.5060  145.8350 C   0  0  0  0  0  3  0  0  0  0  0  0
  189.3310  174.1520  140.8970 C   0  0  0  0  0  2  0  0  0  0  0  0
  188.2130  175.1420  141.1780 C   0  0  0  0  0  2  0  0  0  0  0  0
  187.1010  176.2200  143.1650 C   0  0  1  0  0  3  0  0  0  0  0  0
  189.5360  176.6510  145.3120 C   0  0  2  0  0  3  0  0  0  0  0  0
  190.7050  177.2210  144.4870 C   0  0  1  0  0  3  0  0  0  0  0  0
  185.7830  177.1750  144.8990 C   0  0  0  0  0  2  0  0  0  0  0  0
  186.3710  177.3840  142.5260 C   0  0  0  0  0  2  0  0  0  0  0  0
  190.6960  176.7350  143.0370 C   0  0  0  0  0  2  0  0  0  0  0  0
  188.2180  177.4060  145.1290 C   0  0  0  0  0  2  0  0  0  0  0  0
  188.4390  175.8300  142.5140 C   0  0  2  0  0  3  0  0  0  0  0  0
  190.8170  178.7390  144.5510 C   0  0  0  0  0  1  0  0  0  0  0  0
  189.3780  177.0130  142.3230 C   0  0  0  0  0  2  0  0  0  0  0  0
  187.1040  176.4700  144.6700 C   0  0  2  0  0  3  0  0  0  0  0  0
  185.4410  177.9110  143.6070 C   0  0  0  0  0  2  0  0  0  0  0  0
  189.8790  176.4380  146.7210 N   0  0  0  0  0  2  0  0  0  0  0  0
  189.6730  175.0450  147.1070 C   0  0  0  0  0  2  0  0  0  0  0  0
  189.7010  174.1640  145.8740 C   0  0  0  0  0  1  0  0  0  0  0  0
  1  7  1  0  0  0  0
  2 21  1  6  0  0  0
  2  1  1  0  0  0  0
  3 16  1  1  0  0  0
  5  3  1  0  0  0  0
  6  1  2  0  0  0  0
  6 14  1  0  0  0  0
  7  5  2  0  0  0  0
  8  6  1  0  0  0  0
  9  8  2  0  0  0  0
 10  5  1  0  0  0  0
 10 11  1  0  0  0  0
 11 13  1  0  0  0  0
 12  8  1  0  0  0  0
 12  2  1  0  0  0  0
 13  3  1  0  0  0  0
 13  4  1  1  0  0  0
 14 10  2  0  0  0  0
 15 20  1  0  0  0  0
 16 15  2  0  0  0  0
 16 18  1  0  0  0  0
 17 19  1  0  0  0  0
 18 17  2  0  0  0  0
 20 19  2  0  0  0  0
 21 22  1  0  0  0  0
 23 27  1  6  0  0  0
 23 33  1  0  0  0  0
 24 35  1  1  0  0  0
 25 31  1  6  0  0  0
 25 24  1  0  0  0  0
 27 34  1  0  0  0  0
 28 25  1  0  0  0  0
 29 24  1  0  0  0  0
 30 22  1  6  0  0  0
 30 23  1  0  0  0  0
 32 30  1  0  0  0  0
 32 28  1  0  0  0  0
 33 26  1  6  0  0  0
 33 29  1  0  0  0  0
 34 26  1  0  0  0  0
 35 36  1  0  0  0  0
 37 36  1  0  0  0  0
M  END
>  <MODEL>
5

>  <REMARK>
 VINA RESULT:      -7.1      1.533      2.256
  Name = 
  6 active torsions:
  status: ('A' for Active; 'I' for Inactive)
    1  A    between atoms: C_2  and  N_7
    2  A    between atoms: C_4  and  C_28
    3  A    between atoms: C_4  and  C_37
    4  A    between atoms: C_5  and  C_37
    5  A    between atoms: N_7  and  C_9
    6  A    between atoms: C_8  and  C_11
                            x       y       z     vdW  Elec       q    Type
                         _______ _______ _______ _____ _____    ______ ____

>  <TORSDO>
F 6

$$$$
=
 OpenBabel11062418533D

 37 42  0  0  1  0  0  0  0  0999 V2000
  192.3410  175.0380  143.0300 C   0  0  0  0  0  0  0  0  0  0  0  0
  192.8970  176.4280  143.0620 C   0  0  2  0  0  3  0  0  0  0  0  0
  190.7090  172.1380  141.1470 C   0  0  2  0  0  3  0  0  0  0  0  0
  190.8240  169.5450  141.4670 C   0  0  0  0  0  1  0  0  0  0  0  0
  191.3360  173.0640  142.1310 C   0  0  0  0  0  0  0  0  0  0  0  0
  192.4780  174.3980  144.2460 C   0  0  0  0  0  0  0  0  0  0  0  0
  191.7670  174.3840  141.9300 C   0  0  0  0  0  3  0  0  0  0  0  0
  193.1150  175.2980  145.1710 C   0  0  0  0  0  0  0  0  0  0  0  0
  193.3840  175.0270  146.3710 O   0  0  0  0  0  0  0  0  0  0  0  0
  191.4700  172.4390  143.3520 C   0  0  0  0  0  0  0  0  0  0  0  0
  190.9610  171.1220  143.3400 N   0  0  0  0  0  2  0  0  0  0  0  0
  193.4180  176.6010  144.5090 C   0  0  0  0  0  2  0  0  0  0  0  0
  190.3740  170.8880  142.0210 C   0  0  1  0  0  3  0  0  0  0  0  0
  192.0490  173.0810  144.4530 C   0  0  0  0  0  3  0  0  0  0  0  0
  191.0740  171.8900  138.6810 C   0  0  0  0  0  3  0  0  0  0  0  0
  191.6180  171.8810  139.9710 C   0  0  0  0  0  0  0  0  0  0  0  0
  193.8030  171.3860  139.0290 C   0  0  0  0  0  3  0  0  0  0  0  0
  192.9900  171.6240  140.1410 C   0  0  0  0  0  3  0  0  0  0  0  0
  193.2540  171.4010  137.7450 C   0  0  0  0  0  3  0  0  0  0  0  0
  191.8890  171.6530  137.5710 C   0  0  0  0  0  3  0  0  0  0  0  0
  191.7980  177.4400  142.7760 C   0  0  0  0  0  2  0  0  0  0  0  0
  191.2750  178.0240  144.0770 C   0  0  0  0  0  2  0  0  0  0  0  0
  189.3110  177.2570  145.4570 C   0  0  1  0  0  3  0  0  0  0  0  0
  186.7030  178.4430  143.8710 C   0  0  2  0  0  3  0  0  0  0  0  0
  186.9610  178.1370  142.3850 C   0  0  1  0  0  3  0  0  0  0  0  0
  187.6680  176.4440  146.9710 C   0  0  0  0  0  2  0  0  0  0  0  0
  189.5750  175.7700  145.5830 C   0  0  0  0  0  2  0  0  0  0  0  0
  188.4500  178.1240  142.0350 C   0  0  0  0  0  2  0  0  0  0  0  0
  186.8480  177.2290  144.7920 C   0  0  0  0  0  2  0  0  0  0  0  0
  189.7610  177.9080  144.1380 C   0  0  2  0  0  3  0  0  0  0  0  0
  186.2760  176.8680  141.8930 C   0  0  0  0  0  1  0  0  0  0  0  0
  189.2590  177.1680  142.9060 C   0  0  0  0  0  2  0  0  0  0  0  0
  187.8690  177.4910  145.8960 C   0  0  2  0  0  3  0  0  0  0  0  0
  188.6010  175.2820  146.6430 C   0  0  0  0  0  2  0  0  0  0  0  0
  185.4580  179.1820  144.0970 N   0  0  0  0  0  2  0  0  0  0  0  0
  184.4280  178.3180  144.6670 C   0  0  0  0  0  2  0  0  0  0  0  0
  184.0760  178.7940  146.0620 C   0  0  0  0  0  1  0  0  0  0  0  0
  1  2  1  0  0  0  0
  1  6  1  0  0  0  0
  2 21  1  1  0  0  0
  2 12  1  0  0  0  0
  3 16  1  6  0  0  0
  3 13  1  0  0  0  0
  3  5  1  0  0  0  0
  5 10  2  0  0  0  0
  6 14  2  0  0  0  0
  6  8  1  0  0  0  0
  7  5  1  0  0  0  0
  7  1  2  0  0  0  0
  8  9  2  0  0  0  0
 10 14  1  0  0  0  0
 11 10  1  0  0  0  0
 12  8  1  0  0  0  0
 13  4  1  6  0  0  0
 13 11  1  0  0  0  0
 15 16  1  0  0  0  0
 16 18  2  0  0  0  0
 17 18  1  0  0  0  0
 19 17  2  0  0  0  0
 20 19  1  0  0  0  0
 20 15  2  0  0  0  0
 21 22  1  0  0  0  0
 23 27  1  6  0  0  0
 23 33  1  0  0  0  0
 24 35  1  6  0  0  0
 24 29  1  0  0  0  0
 25 31  1  1  0  0  0
 25 24  1  0  0  0  0
 27 34  1  0  0  0  0
 28 25  1  0  0  0  0
 28 32  1  0  0  0  0
 30 22  1  1  0  0  0
 30 23  1  0  0  0  0
 32 30  1  0  0  0  0
 33 29  1  6  0  0  0
 33 26  1  0  0  0  0
 34 26  1  0  0  0  0
 35 36  1  0  0  0  0
 36 37  1  0  0  0  0
M  END
>  <MODEL>
6

>  <REMARK>
 VINA RESULT:      -7.0      2.665      5.549
  Name = 
  6 active torsions:
  status: ('A' for Active; 'I' for Inactive)
    1  A    between atoms: C_2  and  N_7
    2  A    between atoms: C_4  and  C_28
    3  A    between atoms: C_4  and  C_37
    4  A    between atoms: C_5  and  C_37
    5  A    between atoms: N_7  and  C_9
    6  A    between atoms: C_8  and  C_11
                            x       y       z     vdW  Elec       q    Type
                         _______ _______ _______ _____ _____    ______ ____

>  <TORSDO>
F 6

$$$$
=
 OpenBabel11062418533D

 37 42  0  0  1  0  0  0  0  0999 V2000
  189.9130  174.4470  143.1290 C   0  0  0  0  0  0  0  0  0  0  0  0
  190.3650  173.8280  141.8420 C   0  0  2  0  0  3  0  0  0  0  0  0
  188.4700  177.3950  145.0890 C   0  0  2  0  0  3  0  0  0  0  0  0
  187.0200  177.5240  147.2630 C   0  0  0  0  0  1  0  0  0  0  0  0
  189.0320  176.1010  144.6140 C   0  0  0  0  0  0  0  0  0  0  0  0
  189.9940  173.5610  144.1850 C   0  0  0  0  0  0  0  0  0  0  0  0
  189.4220  175.7480  143.3130 C   0  0  0  0  0  3  0  0  0  0  0  0
  190.5070  172.3080  143.6980 C   0  0  0  0  0  0  0  0  0  0  0  0
  190.7070  171.2870  144.4060 O   0  0  0  0  0  0  0  0  0  0  0  0
  189.1260  175.2110  145.6620 C   0  0  0  0  0  0  0  0  0  0  0  0
  188.6930  175.7710  146.8840 N   0  0  0  0  0  2  0  0  0  0  0  0
  190.7660  172.3850  142.2300 C   0  0  0  0  0  2  0  0  0  0  0  0
  188.3590  177.1720  146.6310 C   0  0  1  0  0  3  0  0  0  0  0  0
  189.6060  173.9070  145.4860 C   0  0  0  0  0  3  0  0  0  0  0  0
  186.6910  179.0400  144.4570 C   0  0  0  0  0  3  0  0  0  0  0  0
  187.1760  177.7300  144.3890 C   0  0  0  0  0  0  0  0  0  0  0  0
  185.2510  177.1000  143.0460 C   0  0  0  0  0  3  0  0  0  0  0  0
  186.4480  176.7570  143.6810 C   0  0  0  0  0  3  0  0  0  0  0  0
  184.7740  178.4110  143.1150 C   0  0  0  0  0  3  0  0  0  0  0  0
  185.4940  179.3810  143.8210 C   0  0  0  0  0  3  0  0  0  0  0  0
  191.5700  174.5780  141.2940 C   0  0  0  0  0  2  0  0  0  0  0  0
  192.8030  173.6930  141.3450 C   0  0  0  0  0  2  0  0  0  0  0  0
  194.6790  175.2330  142.0240 C   0  0  1  0  0  3  0  0  0  0  0  0
  194.8640  174.8880  145.2750 C   0  0  2  0  0  3  0  0  0  0  0  0
  194.7780  173.3710  145.5260 C   0  0  1  0  0  3  0  0  0  0  0  0
  196.4410  176.7900  142.3720 C   0  0  0  0  0  2  0  0  0  0  0  0
  195.7970  174.7950  141.0990 C   0  0  0  0  0  2  0  0  0  0  0  0
  193.9480  172.6440  144.4670 C   0  0  0  0  0  2  0  0  0  0  0  0
  195.9250  175.2920  144.2500 C   0  0  0  0  0  2  0  0  0  0  0  0
  193.7160  174.1240  142.4810 C   0  0  2  0  0  3  0  0  0  0  0  0
  196.1360  172.7030  145.7050 C   0  0  0  0  0  1  0  0  0  0  0  0
  194.4330  172.9050  143.0450 C   0  0  0  0  0  2  0  0  0  0  0  0
  195.3120  176.0990  143.1080 C   0  0  2  0  0  3  0  0  0  0  0  0
  196.8690  175.8640  141.2380 C   0  0  0  0  0  2  0  0  0  0  0  0
  194.9420  175.6710  146.5120 N   0  0  0  0  0  2  0  0  0  0  0  0
  193.9470  176.7390  146.5220 C   0  0  0  0  0  2  0  0  0  0  0  0
  192.6970  176.2810  145.7960 C   0  0  0  0  0  1  0  0  0  0  0  0
  1  7  2  0  0  0  0
  1  6  1  0  0  0  0
  2 21  1  1  0  0  0
  2 12  1  0  0  0  0
  2  1  1  0  0  0  0
  3 16  1  6  0  0  0
  3 13  1  0  0  0  0
  5  3  1  0  0  0  0
  5 10  2  0  0  0  0
  6 14  2  0  0  0  0
  7  5  1  0  0  0  0
  8  6  1  0  0  0  0
  8  9  2  0  0  0  0
 10 11  1  0  0  0  0
 12  8  1  0  0  0  0
 13 11  1  0  0  0  0
 13  4  1  6  0  0  0
 14 10  1  0  0  0  0
 16 15  1  0  0  0  0
 17 19  2  0  0  0  0
 17 18  1  0  0  0  0
 18 16  2  0  0  0  0
 19 20  1  0  0  0  0
 20 15  2  0  0  0  0
 21 22  1  0  0  0  0
 23 27  1  1  0  0  0
 23 30  1  0  0  0  0
 23 33  1  0  0  0  0
 24 25  1  0  0  0  0
 24 35  1  1  0  0  0
 25 31  1  6  0  0  0
 27 34  1  0  0  0  0
 28 25  1  0  0  0  0
 29 24  1  0  0  0  0
 30 22  1  6  0  0  0
 30 32  1  0  0  0  0
 32 28  1  0  0  0  0
 33 26  1  6  0  0  0
 33 29  1  0  0  0  0
 34 26  1  0  0  0  0
 35 36  1  0  0  0  0
 37 36  1  0  0  0  0
M  END
>  <MODEL>
7

>  <REMARK>
 VINA RESULT:      -6.8      2.019      7.310
  Name = 
  6 active torsions:
  status: ('A' for Active; 'I' for Inactive)
    1  A    between atoms: C_2  and  N_7
    2  A    between atoms: C_4  and  C_28
    3  A    between atoms: C_4  and  C_37
    4  A    between atoms: C_5  and  C_37
    5  A    between atoms: N_7  and  C_9
    6  A    between atoms: C_8  and  C_11
                            x       y       z     vdW  Elec       q    Type
                         _______ _______ _______ _____ _____    ______ ____

>  <TORSDO>
F 6

$$$$
=
 OpenBabel11062418533D

 37 42  0  0  1  0  0  0  0  0999 V2000
  188.8590  175.8620  143.3470 C   0  0  0  0  0  0  0  0  0  0  0  0
  188.5230  175.4010  141.9620 C   0  0  2  0  0  3  0  0  0  0  0  0
  190.7630  175.4410  146.6360 C   0  0  2  0  0  3  0  0  0  0  0  0
  191.6320  177.1650  148.4010 C   0  0  0  0  0  1  0  0  0  0  0  0
  189.9040  175.8700  145.4970 C   0  0  0  0  0  0  0  0  0  0  0  0
  188.2340  177.0530  143.6610 C   0  0  0  0  0  0  0  0  0  0  0  0
  189.7210  175.2350  144.2590 C   0  0  0  0  0  3  0  0  0  0  0  0
  187.4380  177.4670  142.5360 C   0  0  0  0  0  0  0  0  0  0  0  0
  186.7350  178.5110  142.4950 O   0  0  0  0  0  0  0  0  0  0  0  0
  189.2680  177.0530  145.8030 C   0  0  0  0  0  0  0  0  0  0  0  0
  189.5810  177.5130  147.1010 N   0  0  0  0  0  2  0  0  0  0  0  0
  187.5630  176.4850  141.4190 C   0  0  0  0  0  2  0  0  0  0  0  0
  190.4350  176.5060  147.7300 C   0  0  1  0  0  3  0  0  0  0  0  0
  188.4130  177.6910  144.8950 C   0  0  0  0  0  3  0  0  0  0  0  0
  192.8090  174.0880  146.1280 C   0  0  0  0  0  3  0  0  0  0  0  0
  192.2140  175.3510  146.2340 C   0  0  0  0  0  0  0  0  0  0  0  0
  194.3230  176.3820  145.6060 C   0  0  0  0  0  3  0  0  0  0  0  0
  192.9800  176.5010  145.9730 C   0  0  0  0  0  3  0  0  0  0  0  0
  194.9090  175.1180  145.4990 C   0  0  0  0  0  3  0  0  0  0  0  0
  194.1520  173.9720  145.7610 C   0  0  0  0  0  3  0  0  0  0  0  0
  187.8180  174.0540  142.0140 C   0  0  0  0  0  2  0  0  0  0  0  0
  188.3380  173.1490  140.9110 C   0  0  0  0  0  2  0  0  0  0  0  0
  190.4690  173.1370  139.5670 C   0  0  1  0  0  3  0  0  0  0  0  0
  192.8390  173.3390  141.8170 C   0  0  2  0  0  3  0  0  0  0  0  0
  192.4370  172.3400  142.9180 C   0  0  1  0  0  3  0  0  0  0  0  0
  192.2980  173.1570  138.0480 C   0  0  0  0  0  2  0  0  0  0  0  0
  190.2850  171.9130  138.6930 C   0  0  0  0  0  2  0  0  0  0  0  0
  190.9210  172.1780  143.0420 C   0  0  0  0  0  2  0  0  0  0  0  0
  192.8460  172.7440  140.4070 C   0  0  0  0  0  2  0  0  0  0  0  0
  189.8530  173.0540  140.9740 C   0  0  2  0  0  3  0  0  0  0  0  0
  193.1200  170.9840  142.7920 C   0  0  0  0  0  1  0  0  0  0  0  0
  190.2520  171.7930  141.7270 C   0  0  0  0  0  2  0  0  0  0  0  0
  191.9380  173.5360  139.4690 C   0  0  2  0  0  3  0  0  0  0  0  0
  191.3870  172.0000  137.6500 C   0  0  0  0  0  2  0  0  0  0  0  0
  194.0680  174.0740  142.1300 N   0  0  0  0  0  2  0  0  0  0  0  0
  193.9150  175.4980  141.8520 C   0  0  0  0  0  2  0  0  0  0  0  0
  192.5820  175.9830  142.3880 C   0  0  0  0  0  1  0  0  0  0  0  0
  1  6  2  0  0  0  0
  1  7  1  0  0  0  0
  2 21  1  1  0  0  0
  2  1  1  0  0  0  0
  3 16  1  6  0  0  0
  3 13  1  0  0  0  0
  5 10  1  0  0  0  0
  5  3  1  0  0  0  0
  6 14  1  0  0  0  0
  7  5  2  0  0  0  0
  8  6  1  0  0  0  0
  9  8  2  0  0  0  0
 10 11  1  0  0  0  0
 11 13  1  0  0  0  0
 12  2  1  0  0  0  0
 12  8  1  0  0  0  0
 13  4  1  6  0  0  0
 14 10  2  0  0  0  0
 15 16  1  0  0  0  0
 17 18  1  0  0  0  0
 18 16  2  0  0  0  0
 19 17  2  0  0  0  0
 19 20  1  0  0  0  0
 20 15  2  0  0  0  0
 22 21  1  0  0  0  0
 23 27  1  1  0  0  0
 23 30  1  0  0  0  0
 24 35  1  1  0  0  0
 24 25  1  0  0  0  0
 25 31  1  6  0  0  0
 25 28  1  0  0  0  0
 29 24  1  0  0  0  0
 30 22  1  6  0  0  0
 30 32  1  0  0  0  0
 32 28  1  0  0  0  0
 33 26  1  6  0  0  0
 33 23  1  0  0  0  0
 33 29  1  0  0  0  0
 34 26  1  0  0  0  0
 34 27  1  0  0  0  0
 36 35  1  0  0  0  0
 36 37  1  0  0  0  0
M  END
>  <MODEL>
8

>  <REMARK>
 VINA RESULT:      -6.8      2.055      6.354
  Name = 
  6 active torsions:
  status: ('A' for Active; 'I' for Inactive)
    1  A    between atoms: C_2  and  N_7
    2  A    between atoms: C_4  and  C_28
    3  A    between atoms: C_4  and  C_37
    4  A    between atoms: C_5  and  C_37
    5  A    between atoms: N_7  and  C_9
    6  A    between atoms: C_8  and  C_11
                            x       y       z     vdW  Elec       q    Type
                         _______ _______ _______ _____ _____    ______ ____

>  <TORSDO>
F 6

$$$$
=
 OpenBabel11062418533D

 37 42  0  0  1  0  0  0  0  0999 V2000
  193.7240  174.8160  145.6880 C   0  0  0  0  0  0  0  0  0  0  0  0
  192.5900  175.7900  145.7840 C   0  0  2  0  0  3  0  0  0  0  0  0
  195.0680  171.2370  145.7660 C   0  0  2  0  0  3  0  0  0  0  0  0
  197.0990  170.0930  144.5790 C   0  0  0  0  0  1  0  0  0  0  0  0
  194.8530  172.7090  145.6770 C   0  0  0  0  0  0  0  0  0  0  0  0
  194.9190  175.4420  145.3890 C   0  0  0  0  0  0  0  0  0  0  0  0
  193.6560  173.4230  145.8370 C   0  0  0  0  0  3  0  0  0  0  0  0
  194.6820  176.8570  145.2740 C   0  0  0  0  0  0  0  0  0  0  0  0
  195.5640  177.7160  145.0120 O   0  0  0  0  0  0  0  0  0  0  0  0
  196.0400  173.3450  145.3870 C   0  0  0  0  0  0  0  0  0  0  0  0
  197.1220  172.4430  145.2800 N   0  0  0  0  0  2  0  0  0  0  0  0
  193.2400  177.1660  145.5060 C   0  0  0  0  0  2  0  0  0  0  0  0
  196.6160  171.1100  145.6030 C   0  0  1  0  0  3  0  0  0  0  0  0
  196.1170  174.7340  145.2280 C   0  0  0  0  0  3  0  0  0  0  0  0
  193.7440  169.2290  145.0700 C   0  0  0  0  0  3  0  0  0  0  0  0
  194.2460  170.4940  144.7430 C   0  0  0  0  0  0  0  0  0  0  0  0
  193.2190  170.3190  142.5470 C   0  0  0  0  0  3  0  0  0  0  0  0
  193.9820  171.0360  143.4720 C   0  0  0  0  0  3  0  0  0  0  0  0
  192.7180  169.0580  142.8820 C   0  0  0  0  0  3  0  0  0  0  0  0
  192.9810  168.5130  144.1430 C   0  0  0  0  0  3  0  0  0  0  0  0
  191.9950  175.7650  147.1840 C   0  0  0  0  0  2  0  0  0  0  0  0
  190.6200  175.1210  147.1560 C   0  0  0  0  0  2  0  0  0  0  0  0
  188.7130  176.5910  146.4130 C   0  0  1  0  0  3  0  0  0  0  0  0
  188.9730  176.6540  143.1490 C   0  0  2  0  0  3  0  0  0  0  0  0
  189.2270  175.1930  142.7360 C   0  0  1  0  0  3  0  0  0  0  0  0
  186.8750  178.0450  146.0120 C   0  0  0  0  0  2  0  0  0  0  0  0
  187.5320  175.9560  147.1170 C   0  0  0  0  0  2  0  0  0  0  0  0
  189.9800  174.3990  143.8050 C   0  0  0  0  0  2  0  0  0  0  0  0
  187.7580  176.8430  144.0600 C   0  0  0  0  0  2  0  0  0  0  0  0
  189.8230  175.6240  145.9640 C   0  0  2  0  0  3  0  0  0  0  0  0
  187.9700  174.4540  142.2950 C   0  0  0  0  0  1  0  0  0  0  0  0
  189.2970  174.4380  145.1680 C   0  0  0  0  0  2  0  0  0  0  0  0
  188.1460  177.5390  145.3610 C   0  0  2  0  0  3  0  0  0  0  0  0
  186.3930  176.9510  146.9600 C   0  0  0  0  0  2  0  0  0  0  0  0
  188.9820  177.5820  142.0140 N   0  0  0  0  0  2  0  0  0  0  0  0
  187.6530  178.1370  141.7780 C   0  0  0  0  0  2  0  0  0  0  0  0
  187.0670  177.5420  140.5130 C   0  0  0  0  0  1  0  0  0  0  0  0
  1  2  1  0  0  0  0
  1  7  1  0  0  0  0
  2 21  1  1  0  0  0
  3 16  1  6  0  0  0
  5  3  1  0  0  0  0
  5  7  2  0  0  0  0
  6  1  2  0  0  0  0
  8  6  1  0  0  0  0
  8 12  1  0  0  0  0
  9  8  2  0  0  0  0
 10  5  1  0  0  0  0
 11 10  1  0  0  0  0
 11 13  1  0  0  0  0
 12  2  1  0  0  0  0
 13  4  1  6  0  0  0
 13  3  1  0  0  0  0
 14 10  2  0  0  0  0
 14  6  1  0  0  0  0
 16 15  1  0  0  0  0
 17 19  2  0  0  0  0
 17 18  1  0  0  0  0
 18 16  2  0  0  0  0
 19 20  1  0  0  0  0
 20 15  2  0  0  0  0
 22 21  1  0  0  0  0
 23 27  1  6  0  0  0
 24 35  1  6  0  0  0
 24 29  1  0  0  0  0
 25 31  1  1  0  0  0
 25 24  1  0  0  0  0
 25 28  1  0  0  0  0
 26 34  1  0  0  0  0
 28 32  1  0  0  0  0
 30 23  1  0  0  0  0
 30 22  1  1  0  0  0
 32 30  1  0  0  0  0
 33 29  1  6  0  0  0
 33 26  1  0  0  0  0
 33 23  1  0  0  0  0
 34 27  1  0  0  0  0
 36 35  1  0  0  0  0
 37 36  1  0  0  0  0
M  END
>  <MODEL>
9

>  <REMARK>
 VINA RESULT:      -6.8      3.350      5.787
  Name = 
  6 active torsions:
  status: ('A' for Active; 'I' for Inactive)
    1  A    between atoms: C_2  and  N_7
    2  A    between atoms: C_4  and  C_28
    3  A    between atoms: C_4  and  C_37
    4  A    between atoms: C_5  and  C_37
    5  A    between atoms: N_7  and  C_9
    6  A    between atoms: C_8  and  C_11
                            x       y       z     vdW  Elec       q    Type
                         _______ _______ _______ _____ _____    ______ ____

>  <TORSDO>
F 6

$$$$
