=
 OpenBabel11072408543D

 45 49  0  0  1  0  0  0  0  0999 V2000
  192.3490  175.0720  146.6440 O   0  0  0  0  0  0  0  0  0  0  0  0
  190.9990  175.3620  146.8640 C   0  0  0  0  0  2  0  0  0  0  0  0
  185.9670  177.5170  145.9770 C   0  0  0  0  0  0  0  0  0  0  0  0
  186.7630  177.5290  143.2980 C   0  0  0  0  0  3  0  0  0  0  0  0
  188.2680  177.1260  146.7270 N   0  0  0  0  0  2  0  0  0  0  0  0
  187.7110  177.2500  144.2930 C   0  0  0  0  0  0  0  0  0  0  0  0
  189.6050  177.3500  142.8140 N   0  0  0  0  0  2  0  0  0  0  0  0
  185.4350  177.8090  143.6300 C   0  0  0  0  0  0  0  0  0  0  0  0
  189.8070  175.8150  144.6870 C   0  0  1  0  0  3  0  0  0  0  0  0
  187.3180  177.2780  145.6560 C   0  0  0  0  0  0  0  0  0  0  0  0
  190.5090  176.4350  145.8980 C   0  0  1  0  0  3  0  0  0  0  0  0
  185.0410  177.7890  144.9670 C   0  0  0  0  0  3  0  0  0  0  0  0
  189.6780  177.4960  146.6260 C   0  0  0  0  0  2  0  0  0  0  0  0
  189.0680  176.8430  143.8780 C   0  0  0  0  0  0  0  0  0  0  0  0
  185.5040  177.5420  147.3940 C   0  0  0  0  0  1  0  0  0  0  0  0
  190.7240  175.1140  143.8950 O   0  0  0  0  0  0  0  0  0  0  0  0
  191.2080  172.8930  143.7450 O   0  0  0  0  0  1  0  0  0  0  0  0
  190.1800  173.8350  143.7630 C   0  0  0  0  0  2  0  0  0  0  0  0
  184.4650  178.0920  142.6170 N   0  0  0  0  0  2  0  0  0  0  0  0
  184.7410  177.9340  141.2500 N   0  0  0  0  0  2  0  0  0  0  0  0
  183.5440  178.3200  140.5170 C   0  0  0  0  0  2  0  0  0  0  0  0
  181.1390  178.9160  140.7720 C   0  0  0  0  0  1  0  0  0  0  0  0
  182.3300  178.2410  141.4250 C   0  0  0  0  0  2  0  0  0  0  0  0
  193.0140  176.2810  146.8630 C   0  0  0  0  0  2  0  0  0  0  0  0
  194.4320  176.2100  146.3170 C   0  0  0  0  0  2  0  0  0  0  0  0
  194.5070  175.2310  145.2420 N   0  0  0  0  0  0  0  0  0  0  0  0
  195.2970  172.8800  145.2150 C   0  0  0  0  0  2  0  0  0  0  0  0
  195.2160  174.4850  141.9570 C   0  0  1  0  0  0  0  0  0  0  0  0
  196.1770  176.4170  143.7460 C   0  0  0  0  0  2  0  0  0  0  0  0
  195.6220  174.3360  145.5550 C   0  0  0  0  0  2  0  0  0  0  0  0
  195.9240  173.4020  142.8220 C   0  0  0  0  0  2  0  0  0  0  0  0
  194.7220  175.9690  143.9840 C   0  0  1  0  0  3  0  0  0  0  0  0
  194.1340  175.2030  142.7950 C   0  0  0  0  0  2  0  0  0  0  0  0
  196.1790  175.4920  141.4120 N   0  0  0  0  0  0  0  0  0  0  0  0
  194.9640  172.6480  143.7410 C   0  0  0  0  0  2  0  0  0  0  0  0
  196.4190  176.6780  142.2600 C   0  0  0  0  0  2  0  0  0  0  0  0
  190.8170  173.7580  140.3240 O   0  0  0  0  0  1  0  0  0  0  0  0
  193.3480  173.1070  141.2470 O   0  0  0  0  0  0  0  0  0  0  0  0
  194.0860  174.7640  139.6560 C   0  0  0  0  0  2  0  0  0  0  0  0
  193.1190  174.1770  138.8370 O   0  0  0  0  0  0  0  0  0  0  0  0
  192.2040  171.7620  139.3040 O   0  0  0  0  0  0  0  0  0  0  0  0
  194.4790  173.7980  140.7890 C   0  0  1  0  0  3  0  0  0  0  0  0
  192.3360  173.1430  139.9050 P   0  0  2  0  0  0  0  0  0  0  0  0
  197.4750  174.9220  141.0450 C   0  0  0  0  0  2  0  0  0  0  0  0
  197.5770  174.8440  139.6570 O   0  0  0  0  0  1  0  0  0  0  0  0
  1 24  1  0  0  0  0
  1  2  1  0  0  0  0
  3 15  1  0  0  0  0
  4  8  2  0  0  0  0
  4  6  1  0  0  0  0
  6 10  2  0  0  0  0
  7 14  2  0  0  0  0
  8 12  1  0  0  0  0
  9 16  1  6  0  0  0
  9 11  1  0  0  0  0
 10  3  1  0  0  0  0
 10  5  1  0  0  0  0
 11 13  1  0  0  0  0
 11  2  1  1  0  0  0
 12  3  2  0  0  0  0
 13  5  1  0  0  0  0
 14  6  1  0  0  0  0
 14  9  1  0  0  0  0
 17 18  1  0  0  0  0
 18 16  1  0  0  0  0
 19  8  1  0  0  0  0
 20 19  1  0  0  0  0
 21 20  1  0  0  0  0
 21 23  1  0  0  0  0
 22 23  1  0  0  0  0
 25 24  1  0  0  0  0
 26 30  1  0  0  0  0
 26 25  1  0  0  0  0
 27 30  1  0  0  0  0
 28 33  1  1  0  0  0
 28 31  1  0  0  0  0
 29 32  1  0  0  0  0
 31 35  1  0  0  0  0
 32 33  1  6  0  0  0
 32 26  1  0  0  0  0
 34 28  1  0  0  0  0
 34 36  1  0  0  0  0
 35 27  1  0  0  0  0
 36 29  1  0  0  0  0
 40 39  1  0  0  0  0
 40 43  1  0  0  0  0
 42 39  1  6  0  0  0
 42 38  1  0  0  0  0
 42 28  1  0  0  0  0
 43 41  2  6  0  0  0
 43 37  1  0  0  0  0
 43 38  1  0  0  0  0
 44 34  1  0  0  0  0
 45 44  1  0  0  0  0
M  END
>  <MODEL>
1

>  <REMARK>
 VINA RESULT:      -7.1      0.000      0.000
  Name = 
  13 active torsions:
  status: ('A' for Active; 'I' for Inactive)
    1  A    between atoms: C_1  and  N_36
    2  A    between atoms: N_2  and  C_40
    3  A    between atoms: C_4  and  O_29
    4  A    between atoms: C_4  and  C_30
    5  A    between atoms: O_5  and  C_26
    6  A    between atoms: O_5  and  C_32
    7  A    between atoms: C_8  and  O_29
    8  A    between atoms: C_8  and  C_40
    9  A    between atoms: C_10  and  C_37
   10  A    between atoms: N_13  and  C_23
   11  A    between atoms: N_13  and  N_28
   12  A    between atoms: N_28  and  C_45
   13  A    between atoms: C_34  and  C_45
                            x       y       z     vdW  Elec       q    Type
                         _______ _______ _______ _____ _____    ______ ____

>  <TORSDO>
F 13

$$$$
=
 OpenBabel11072408543D

 45 49  0  0  1  0  0  0  0  0999 V2000
  194.0810  176.5850  144.5210 O   0  0  0  0  0  0  0  0  0  0  0  0
  193.4690  176.6750  145.7750 C   0  0  0  0  0  2  0  0  0  0  0  0
  188.5620  177.6080  143.3670 C   0  0  0  0  0  0  0  0  0  0  0  0
  187.5240  176.5900  145.7540 C   0  0  0  0  0  3  0  0  0  0  0  0
  190.8030  176.7780  143.9110 N   0  0  0  0  0  2  0  0  0  0  0  0
  188.9000  176.4860  145.5050 C   0  0  0  0  0  0  0  0  0  0  0  0
  189.3400  175.0290  147.3680 N   0  0  0  0  0  2  0  0  0  0  0  0
  186.6690  177.1860  144.8210 C   0  0  0  0  0  0  0  0  0  0  0  0
  191.1480  176.5320  146.7520 C   0  0  1  0  0  3  0  0  0  0  0  0
  189.4250  176.9700  144.2790 C   0  0  0  0  0  0  0  0  0  0  0  0
  192.1610  175.8930  145.7980 C   0  0  1  0  0  3  0  0  0  0  0  0
  187.1950  177.7030  143.6380 C   0  0  0  0  0  3  0  0  0  0  0  0
  191.6270  175.6660  144.3800 C   0  0  0  0  0  2  0  0  0  0  0  0
  189.7690  175.9590  146.5750 C   0  0  0  0  0  0  0  0  0  0  0  0
  189.0700  178.1450  142.0710 C   0  0  0  0  0  1  0  0  0  0  0  0
  191.5780  176.4090  148.0780 O   0  0  0  0  0  0  0  0  0  0  0  0
  191.6260  177.6130  150.0110 O   0  0  0  0  0  1  0  0  0  0  0  0
  191.3600  177.6670  148.6440 C   0  0  0  0  0  2  0  0  0  0  0  0
  185.2650  177.2950  145.0730 N   0  0  0  0  0  2  0  0  0  0  0  0
  184.7080  177.0490  146.3370 N   0  0  0  0  0  2  0  0  0  0  0  0
  184.4960  178.3390  146.9780 C   0  0  0  0  0  2  0  0  0  0  0  0
  186.3530  179.7210  147.8970 C   0  0  0  0  0  1  0  0  0  0  0  0
  185.4660  178.5130  148.1320 C   0  0  0  0  0  2  0  0  0  0  0  0
  195.3090  175.9670  144.7660 C   0  0  0  0  0  2  0  0  0  0  0  0
  195.5660  174.8780  143.7360 C   0  0  0  0  0  2  0  0  0  0  0  0
  194.4000  174.0150  143.6160 N   0  0  0  0  0  0  0  0  0  0  0  0
  193.5000  172.2550  145.1140 C   0  0  0  0  0  2  0  0  0  0  0  0
  192.3680  172.0320  141.6690 C   0  0  1  0  0  0  0  0  0  0  0  0
  195.0840  172.7150  141.5470 C   0  0  0  0  0  2  0  0  0  0  0  0
  194.7080  172.7780  144.3350 C   0  0  0  0  0  2  0  0  0  0  0  0
  192.6810  171.2190  142.9590 C   0  0  0  0  0  2  0  0  0  0  0  0
  194.1670  173.7810  142.1780 C   0  0  1  0  0  3  0  0  0  0  0  0
  192.6820  173.5280  141.9020 C   0  0  0  0  0  2  0  0  0  0  0  0
  193.1380  171.5360  140.4870 N   0  0  0  0  0  0  0  0  0  0  0  0
  192.2830  171.9500  144.2390 C   0  0  0  0  0  2  0  0  0  0  0  0
  194.4580  172.1630  140.2680 C   0  0  0  0  0  2  0  0  0  0  0  0
  188.6010  174.8420  140.9940 O   0  0  0  0  0  0  0  0  0  0  0  0
  190.1370  172.8510  142.1600 O   0  0  0  0  0  0  0  0  0  0  0  0
  190.5130  172.1490  139.8820 C   0  0  0  0  0  2  0  0  0  0  0  0
  189.1530  172.4330  139.7380 O   0  0  0  0  0  0  0  0  0  0  0  0
  187.5500  172.5680  141.8110 O   0  0  0  0  0  1  0  0  0  0  0  0
  190.8570  171.9450  141.3690 C   0  0  1  0  0  3  0  0  0  0  0  0
  188.7930  173.1740  141.2020 P   0  0  2  0  0  0  0  0  0  0  0  0
  193.3150  170.0830  140.4720 C   0  0  0  0  0  2  0  0  0  0  0  0
  192.4970  169.5210  139.4920 O   0  0  0  0  0  1  0  0  0  0  0  0
  1 24  1  0  0  0  0
  1  2  1  0  0  0  0
  3 12  2  0  0  0  0
  3 10  1  0  0  0  0
  5 10  1  0  0  0  0
  5 13  1  0  0  0  0
  6  4  1  0  0  0  0
  6 14  1  0  0  0  0
  8 19  1  0  0  0  0
  8  4  2  0  0  0  0
  9 16  1  1  0  0  0
 10  6  2  0  0  0  0
 11  2  1  6  0  0  0
 11  9  1  0  0  0  0
 12  8  1  0  0  0  0
 13 11  1  0  0  0  0
 14  9  1  0  0  0  0
 14  7  2  0  0  0  0
 15  3  1  0  0  0  0
 16 18  1  0  0  0  0
 18 17  1  0  0  0  0
 19 20  1  0  0  0  0
 20 21  1  0  0  0  0
 21 23  1  0  0  0  0
 22 23  1  0  0  0  0
 25 24  1  0  0  0  0
 26 25  1  0  0  0  0
 26 30  1  0  0  0  0
 28 33  1  1  0  0  0
 28 31  1  0  0  0  0
 30 27  1  0  0  0  0
 31 35  1  0  0  0  0
 32 29  1  1  0  0  0
 32 26  1  0  0  0  0
 33 32  1  0  0  0  0
 34 28  1  0  0  0  0
 35 27  1  0  0  0  0
 36 34  1  0  0  0  0
 36 29  1  0  0  0  0
 40 39  1  0  0  0  0
 40 43  1  0  0  0  0
 42 39  1  6  0  0  0
 42 28  1  0  0  0  0
 42 38  1  0  0  0  0
 43 37  2  6  0  0  0
 43 41  1  0  0  0  0
 43 38  1  0  0  0  0
 44 34  1  0  0  0  0
 45 44  1  0  0  0  0
M  END
>  <MODEL>
2

>  <REMARK>
 VINA RESULT:      -6.7      2.679      4.404
  Name = 
  13 active torsions:
  status: ('A' for Active; 'I' for Inactive)
    1  A    between atoms: C_1  and  N_36
    2  A    between atoms: N_2  and  C_40
    3  A    between atoms: C_4  and  O_29
    4  A    between atoms: C_4  and  C_30
    5  A    between atoms: O_5  and  C_26
    6  A    between atoms: O_5  and  C_32
    7  A    between atoms: C_8  and  O_29
    8  A    between atoms: C_8  and  C_40
    9  A    between atoms: C_10  and  C_37
   10  A    between atoms: N_13  and  C_23
   11  A    between atoms: N_13  and  N_28
   12  A    between atoms: N_28  and  C_45
   13  A    between atoms: C_34  and  C_45
                            x       y       z     vdW  Elec       q    Type
                         _______ _______ _______ _____ _____    ______ ____

>  <TORSDO>
F 13

$$$$
=
 OpenBabel11072408543D

 45 49  0  0  1  0  0  0  0  0999 V2000
  191.9480  174.9510  146.3110 O   0  0  0  0  0  0  0  0  0  0  0  0
  190.6190  175.3180  146.5440 C   0  0  0  0  0  2  0  0  0  0  0  0
  185.7210  177.7860  145.7260 C   0  0  0  0  0  0  0  0  0  0  0  0
  186.4790  177.7490  143.0360 C   0  0  0  0  0  3  0  0  0  0  0  0
  188.0020  177.2510  146.4440 N   0  0  0  0  0  2  0  0  0  0  0  0
  187.4210  177.4100  144.0180 C   0  0  0  0  0  0  0  0  0  0  0  0
  189.2960  177.3910  142.5130 N   0  0  0  0  0  2  0  0  0  0  0  0
  185.1750  178.1120  143.3870 C   0  0  0  0  0  0  0  0  0  0  0  0
  189.4270  175.8460  144.3840 C   0  0  1  0  0  3  0  0  0  0  0  0
  187.0490  177.4630  145.3860 C   0  0  0  0  0  0  0  0  0  0  0  0
  190.1840  176.4210  145.5840 C   0  0  1  0  0  3  0  0  0  0  0  0
  184.8000  178.1160  144.7290 C   0  0  0  0  0  3  0  0  0  0  0  0
  189.4320  177.5320  146.3230 C   0  0  0  0  0  2  0  0  0  0  0  0
  188.7430  176.9190  143.5840 C   0  0  0  0  0  0  0  0  0  0  0  0
  185.2800  177.8400  147.1490 C   0  0  0  0  0  1  0  0  0  0  0  0
  190.2870  175.0890  143.5790 O   0  0  0  0  0  0  0  0  0  0  0  0
  190.5900  172.8530  143.2700 O   0  0  0  0  0  1  0  0  0  0  0  0
  189.6410  173.8620  143.4180 C   0  0  0  0  0  2  0  0  0  0  0  0
  184.2110  178.4550  142.3860 N   0  0  0  0  0  2  0  0  0  0  0  0
  184.4410  178.2420  141.0180 N   0  0  0  0  0  2  0  0  0  0  0  0
  183.1420  178.1140  140.3740 C   0  0  0  0  0  2  0  0  0  0  0  0
  180.8230  178.9190  140.7930 C   0  0  0  0  0  1  0  0  0  0  0  0
  182.0350  178.2430  141.4050 C   0  0  0  0  0  2  0  0  0  0  0  0
  192.6430  176.1590  146.2240 C   0  0  0  0  0  2  0  0  0  0  0  0
  194.1410  175.9140  146.3280 C   0  0  0  0  0  2  0  0  0  0  0  0
  194.5550  174.9170  145.3520 N   0  0  0  0  0  0  0  0  0  0  0  0
  196.0050  172.9160  145.5650 C   0  0  0  0  0  2  0  0  0  0  0  0
  195.6190  174.1470  142.1690 C   0  0  1  0  0  0  0  0  0  0  0  0
  195.8760  176.4200  143.7910 C   0  0  0  0  0  2  0  0  0  0  0  0
  195.8670  174.4240  145.7750 C   0  0  0  0  0  2  0  0  0  0  0  0
  196.5700  173.4010  143.1500 C   0  0  0  0  0  2  0  0  0  0  0  0
  194.6070  175.5790  144.0350 C   0  0  1  0  0  3  0  0  0  0  0  0
  194.3320  174.5760  142.9100 C   0  0  0  0  0  2  0  0  0  0  0  0
  196.2680  175.3470  141.5560 N   0  0  0  0  0  0  0  0  0  0  0  0
  195.8300  172.4730  144.1120 C   0  0  0  0  0  2  0  0  0  0  0  0
  196.1050  176.6170  142.2940 C   0  0  0  0  0  2  0  0  0  0  0  0
  196.0730  173.4990  137.4880 O   0  0  0  0  0  0  0  0  0  0  0  0
  194.7790  173.8800  139.9090 O   0  0  0  0  0  0  0  0  0  0  0  0
  196.2480  172.1330  140.6890 C   0  0  0  0  0  2  0  0  0  0  0  0
  195.9490  171.5500  139.4540 O   0  0  0  0  0  0  0  0  0  0  0  0
  193.8280  172.2530  138.0800 O   0  0  0  0  0  1  0  0  0  0  0  0
  195.1780  173.1770  141.0540 C   0  0  1  0  0  3  0  0  0  0  0  0
  195.1110  172.7820  138.6790 P   0  0  2  0  0  0  0  0  0  0  0  0
  197.6920  175.1620  141.2750 C   0  0  0  0  0  2  0  0  0  0  0  0
  197.9410  175.4100  139.9260 O   0  0  0  0  0  1  0  0  0  0  0  0
  1  2  1  0  0  0  0
  3 15  1  0  0  0  0
  4  8  2  0  0  0  0
  4  6  1  0  0  0  0
  6 10  2  0  0  0  0
  7 14  2  0  0  0  0
  8 12  1  0  0  0  0
  9 16  1  6  0  0  0
  9 11  1  0  0  0  0
 10  3  1  0  0  0  0
 10  5  1  0  0  0  0
 11 13  1  0  0  0  0
 11  2  1  1  0  0  0
 12  3  2  0  0  0  0
 13  5  1  0  0  0  0
 14  6  1  0  0  0  0
 14  9  1  0  0  0  0
 17 18  1  0  0  0  0
 18 16  1  0  0  0  0
 19  8  1  0  0  0  0
 20 19  1  0  0  0  0
 21 20  1  0  0  0  0
 21 23  1  0  0  0  0
 22 23  1  0  0  0  0
 24  1  1  0  0  0  0
 24 25  1  0  0  0  0
 26 30  1  0  0  0  0
 26 25  1  0  0  0  0
 27 30  1  0  0  0  0
 28 33  1  1  0  0  0
 28 31  1  0  0  0  0
 29 32  1  0  0  0  0
 31 35  1  0  0  0  0
 32 33  1  6  0  0  0
 32 26  1  0  0  0  0
 34 28  1  0  0  0  0
 34 36  1  0  0  0  0
 35 27  1  0  0  0  0
 36 29  1  0  0  0  0
 38 42  1  0  0  0  0
 40 39  1  0  0  0  0
 41 43  1  0  0  0  0
 42 39  1  6  0  0  0
 42 28  1  0  0  0  0
 43 37  2  6  0  0  0
 43 40  1  0  0  0  0
 43 38  1  0  0  0  0
 44 34  1  0  0  0  0
 45 44  1  0  0  0  0
M  END
>  <MODEL>
3

>  <REMARK>
 VINA RESULT:      -6.7      1.115      1.437
  Name = 
  13 active torsions:
  status: ('A' for Active; 'I' for Inactive)
    1  A    between atoms: C_1  and  N_36
    2  A    between atoms: N_2  and  C_40
    3  A    between atoms: C_4  and  O_29
    4  A    between atoms: C_4  and  C_30
    5  A    between atoms: O_5  and  C_26
    6  A    between atoms: O_5  and  C_32
    7  A    between atoms: C_8  and  O_29
    8  A    between atoms: C_8  and  C_40
    9  A    between atoms: C_10  and  C_37
   10  A    between atoms: N_13  and  C_23
   11  A    between atoms: N_13  and  N_28
   12  A    between atoms: N_28  and  C_45
   13  A    between atoms: C_34  and  C_45
                            x       y       z     vdW  Elec       q    Type
                         _______ _______ _______ _____ _____    ______ ____

>  <TORSDO>
F 13

$$$$
=
 OpenBabel11072408543D

 45 49  0  0  1  0  0  0  0  0999 V2000
  195.4520  171.7980  144.1740 O   0  0  0  0  0  0  0  0  0  0  0  0
  195.6270  173.1070  143.7160 C   0  0  0  0  0  2  0  0  0  0  0  0
  190.3430  174.1070  145.0690 C   0  0  0  0  0  0  0  0  0  0  0  0
  191.1670  176.7770  145.1280 C   0  0  0  0  0  3  0  0  0  0  0  0
  192.6650  173.3230  145.0470 N   0  0  0  0  0  2  0  0  0  0  0  0
  192.1310  175.7640  145.0210 C   0  0  0  0  0  0  0  0  0  0  0  0
  194.0100  177.2260  145.3630 N   0  0  0  0  0  2  0  0  0  0  0  0
  189.8070  176.4660  145.2150 C   0  0  0  0  0  0  0  0  0  0  0  0
  194.4120  175.3080  143.9270 C   0  0  1  0  0  3  0  0  0  0  0  0
  191.7180  174.4070  145.0260 C   0  0  0  0  0  0  0  0  0  0  0  0
  194.9960  174.1080  144.6770 C   0  0  1  0  0  3  0  0  0  0  0  0
  189.4010  175.1340  145.1710 C   0  0  0  0  0  3  0  0  0  0  0  0
  194.0050  173.4200  145.6210 C   0  0  0  0  0  2  0  0  0  0  0  0
  193.5390  176.1540  144.8110 C   0  0  0  0  0  0  0  0  0  0  0  0
  189.8610  172.6960  145.0620 C   0  0  0  0  0  1  0  0  0  0  0  0
  195.4350  176.0710  143.3500 O   0  0  0  0  0  0  0  0  0  0  0  0
  195.9180  177.0620  141.3570 O   0  0  0  0  0  1  0  0  0  0  0  0
  195.1430  176.0890  141.9840 C   0  0  0  0  0  2  0  0  0  0  0  0
  188.8200  177.4980  145.3220 N   0  0  0  0  0  2  0  0  0  0  0  0
  187.4440  177.2290  145.2580 N   0  0  0  0  0  2  0  0  0  0  0  0
  186.9000  177.4310  146.5930 C   0  0  0  0  0  2  0  0  0  0  0  0
  184.5380  178.1140  146.1910 C   0  0  0  0  0  1  0  0  0  0  0  0
  185.4490  176.9850  146.6350 C   0  0  0  0  0  2  0  0  0  0  0  0
  195.0880  171.0690  143.0400 C   0  0  0  0  0  2  0  0  0  0  0  0
  194.6500  172.0080  141.9260 C   0  0  0  0  0  2  0  0  0  0  0  0
  193.2000  172.0010  141.8050 N   0  0  0  0  0  0  0  0  0  0  0  0
  191.5380  170.1810  142.0860 C   0  0  0  0  0  2  0  0  0  0  0  0
  190.3590  173.0170  140.1470 C   0  0  1  0  0  0  0  0  0  0  0  0
  193.0090  172.5790  139.3420 C   0  0  0  0  0  2  0  0  0  0  0  0
  192.8120  170.6540  141.3840 C   0  0  0  0  0  2  0  0  0  0  0  0
  190.2230  171.4830  140.3640 C   0  0  0  0  0  2  0  0  0  0  0  0
  192.8330  173.0230  140.8070 C   0  0  1  0  0  3  0  0  0  0  0  0
  191.4380  173.5890  141.0950 C   0  0  0  0  0  2  0  0  0  0  0  0
  190.7020  173.3600  138.7320 N   0  0  0  0  0  0  0  0  0  0  0  0
  190.3230  171.0740  141.8330 C   0  0  0  0  0  2  0  0  0  0  0  0
  192.1440  173.4350  138.4180 C   0  0  0  0  0  2  0  0  0  0  0  0
  188.7330  177.1180  141.9020 O   0  0  0  0  0  0  0  0  0  0  0  0
  189.1570  174.3840  141.7520 O   0  0  0  0  0  0  0  0  0  0  0  0
  188.4950  174.6560  139.4480 C   0  0  0  0  0  2  0  0  0  0  0  0
  187.5310  175.5080  139.9920 O   0  0  0  0  0  0  0  0  0  0  0  0
  186.8530  175.3790  142.5240 O   0  0  0  0  0  1  0  0  0  0  0  0
  189.0330  173.7040  140.5320 C   0  0  1  0  0  3  0  0  0  0  0  0
  188.0220  175.6140  141.5950 P   0  0  2  0  0  0  0  0  0  0  0  0
  190.0650  172.4850  137.7470 C   0  0  0  0  0  2  0  0  0  0  0  0
  189.8340  173.1930  136.5690 O   0  0  0  0  0  1  0  0  0  0  0  0
  2  1  1  0  0  0  0
  3 12  1  0  0  0  0
  4  8  1  0  0  0  0
  5 13  1  0  0  0  0
  6 10  1  0  0  0  0
  6  4  2  0  0  0  0
  8 19  1  0  0  0  0
  9 16  1  1  0  0  0
  9 11  1  0  0  0  0
  9 14  1  0  0  0  0
 10  5  1  0  0  0  0
 10  3  2  0  0  0  0
 11  2  1  6  0  0  0
 11 13  1  0  0  0  0
 12  8  2  0  0  0  0
 14  6  1  0  0  0  0
 14  7  2  0  0  0  0
 15  3  1  0  0  0  0
 17 18  1  0  0  0  0
 18 16  1  0  0  0  0
 20 19  1  0  0  0  0
 20 21  1  0  0  0  0
 21 23  1  0  0  0  0
 22 23  1  0  0  0  0
 24  1  1  0  0  0  0
 25 24  1  0  0  0  0
 26 25  1  0  0  0  0
 28 31  1  1  0  0  0
 28 42  1  0  0  0  0
 28 33  1  0  0  0  0
 30 26  1  0  0  0  0
 30 27  1  0  0  0  0
 31 35  1  0  0  0  0
 32 29  1  6  0  0  0
 32 33  1  0  0  0  0
 32 26  1  0  0  0  0
 34 28  1  0  0  0  0
 35 27  1  0  0  0  0
 36 34  1  0  0  0  0
 36 29  1  0  0  0  0
 39 40  1  0  0  0  0
 40 43  1  0  0  0  0
 42 39  1  6  0  0  0
 42 38  1  0  0  0  0
 43 38  1  0  0  0  0
 43 37  2  1  0  0  0
 43 41  1  0  0  0  0
 44 34  1  0  0  0  0
 45 44  1  0  0  0  0
M  END
>  <MODEL>
4

>  <REMARK>
 VINA RESULT:      -6.6      2.971      5.798
  Name = 
  13 active torsions:
  status: ('A' for Active; 'I' for Inactive)
    1  A    between atoms: C_1  and  N_36
    2  A    between atoms: N_2  and  C_40
    3  A    between atoms: C_4  and  O_29
    4  A    between atoms: C_4  and  C_30
    5  A    between atoms: O_5  and  C_26
    6  A    between atoms: O_5  and  C_32
    7  A    between atoms: C_8  and  O_29
    8  A    between atoms: C_8  and  C_40
    9  A    between atoms: C_10  and  C_37
   10  A    between atoms: N_13  and  C_23
   11  A    between atoms: N_13  and  N_28
   12  A    between atoms: N_28  and  C_45
   13  A    between atoms: C_34  and  C_45
                            x       y       z     vdW  Elec       q    Type
                         _______ _______ _______ _____ _____    ______ ____

>  <TORSDO>
F 13

$$$$
=
 OpenBabel11072408543D

 45 49  0  0  1  0  0  0  0  0999 V2000
  189.8040  173.4400  139.1380 O   0  0  0  0  0  0  0  0  0  0  0  0
  189.9430  172.0830  138.8340 C   0  0  0  0  0  2  0  0  0  0  0  0
  191.6560  172.3480  144.1010 C   0  0  0  0  0  0  0  0  0  0  0  0
  194.2040  172.4840  142.9610 C   0  0  0  0  0  3  0  0  0  0  0  0
  190.6710  171.6330  141.9740 N   0  0  0  0  0  2  0  0  0  0  0  0
  193.1050  172.1750  142.1470 C   0  0  0  0  0  0  0  0  0  0  0  0
  194.4250  171.5760  140.2280 N   0  0  0  0  0  2  0  0  0  0  0  0
  194.0410  172.7140  144.3300 C   0  0  0  0  0  0  0  0  0  0  0  0
  192.2470  172.5420  139.7520 C   0  0  1  0  0  3  0  0  0  0  0  0
  191.8150  172.0710  142.7300 C   0  0  0  0  0  0  0  0  0  0  0  0
  191.1570  171.4880  139.5390 C   0  0  1  0  0  3  0  0  0  0  0  0
  192.7660  172.6580  144.8900 C   0  0  0  0  0  3  0  0  0  0  0  0
  190.7470  170.7470  140.8150 C   0  0  0  0  0  2  0  0  0  0  0  0
  193.3180  172.0620  140.6910 C   0  0  0  0  0  0  0  0  0  0  0  0
  190.3180  172.2650  144.7550 C   0  0  0  0  0  1  0  0  0  0  0  0
  192.7930  172.9370  138.5250 O   0  0  0  0  0  0  0  0  0  0  0  0
  192.9380  174.9660  137.4990 O   0  0  0  0  0  1  0  0  0  0  0  0
  193.1300  174.2820  138.6980 C   0  0  0  0  0  2  0  0  0  0  0  0
  195.1610  173.0320  145.1630 N   0  0  0  0  0  2  0  0  0  0  0  0
  196.0500  174.0740  144.8580 N   0  0  0  0  0  2  0  0  0  0  0  0
  195.2960  175.3180  144.9050 C   0  0  0  0  0  2  0  0  0  0  0  0
  193.4090  176.0810  146.3400 C   0  0  0  0  0  1  0  0  0  0  0  0
  194.8470  175.6000  146.3270 C   0  0  0  0  0  2  0  0  0  0  0  0
  188.4380  173.6170  139.3670 C   0  0  0  0  0  2  0  0  0  0  0  0
  188.1190  173.4110  140.8400 C   0  0  0  0  0  2  0  0  0  0  0  0
  187.8160  174.6870  141.4710 N   0  0  0  0  0  0  0  0  0  0  0  0
  187.0140  176.8360  140.5270 C   0  0  0  0  0  2  0  0  0  0  0  0
  188.6120  177.1160  143.7780 C   0  0  1  0  0  0  0  0  0  0  0  0
  190.1340  175.2630  142.3250 C   0  0  0  0  0  2  0  0  0  0  0  0
  188.0680  175.7290  140.4740 C   0  0  0  0  0  2  0  0  0  0  0  0
  188.3200  177.8520  142.4390 C   0  0  0  0  0  2  0  0  0  0  0  0
  188.6940  174.8190  142.6480 C   0  0  1  0  0  3  0  0  0  0  0  0
  188.0330  175.6830  143.7270 C   0  0  0  0  0  2  0  0  0  0  0  0
  190.0750  177.0550  144.0830 N   0  0  0  0  0  0  0  0  0  0  0  0
  186.9320  177.5480  141.8770 C   0  0  0  0  0  2  0  0  0  0  0  0
  190.7940  175.8750  143.5610 C   0  0  0  0  0  2  0  0  0  0  0  0
  184.8410  176.6050  146.6170 O   0  0  0  0  0  1  0  0  0  0  0  0
  186.4900  177.8000  144.7380 O   0  0  0  0  0  0  0  0  0  0  0  0
  188.2410  177.3050  146.3220 C   0  0  0  0  0  2  0  0  0  0  0  0
  187.2940  177.7250  147.2590 O   0  0  0  0  0  0  0  0  0  0  0  0
  185.2430  179.2090  146.5690 O   0  0  0  0  0  0  0  0  0  0  0  0
  187.8790  177.8410  144.9250 C   0  0  1  0  0  3  0  0  0  0  0  0
  185.9130  177.8780  146.3150 P   0  0  2  0  0  0  0  0  0  0  0  0
  190.8070  178.2540  143.6740 C   0  0  0  0  0  2  0  0  0  0  0  0
  192.1690  177.9670  143.5930 O   0  0  0  0  0  1  0  0  0  0  0  0
  1 24  1  0  0  0  0
  2  1  1  0  0  0  0
  3 15  1  0  0  0  0
  3 12  1  0  0  0  0
  4  8  1  0  0  0  0
  5 10  1  0  0  0  0
  6 10  1  0  0  0  0
  6  4  2  0  0  0  0
  7 14  2  0  0  0  0
  8 12  2  0  0  0  0
  8 19  1  0  0  0  0
  9 16  1  6  0  0  0
  9 14  1  0  0  0  0
 10  3  2  0  0  0  0
 11  2  1  1  0  0  0
 11  9  1  0  0  0  0
 11 13  1  0  0  0  0
 13  5  1  0  0  0  0
 14  6  1  0  0  0  0
 16 18  1  0  0  0  0
 17 18  1  0  0  0  0
 20 21  1  0  0  0  0
 20 19  1  0  0  0  0
 21 23  1  0  0  0  0
 23 22  1  0  0  0  0
 24 25  1  0  0  0  0
 25 26  1  0  0  0  0
 26 32  1  0  0  0  0
 27 35  1  0  0  0  0
 28 31  1  6  0  0  0
 28 34  1  0  0  0  0
 28 42  1  0  0  0  0
 29 36  1  0  0  0  0
 30 27  1  0  0  0  0
 30 26  1  0  0  0  0
 32 29  1  6  0  0  0
 32 33  1  0  0  0  0
 33 28  1  0  0  0  0
 35 31  1  0  0  0  0
 36 34  1  0  0  0  0
 38 42  1  0  0  0  0
 38 43  1  0  0  0  0
 39 40  1  0  0  0  0
 42 39  1  1  0  0  0
 43 41  2  1  0  0  0
 43 37  1  0  0  0  0
 43 40  1  0  0  0  0
 44 34  1  0  0  0  0
 45 44  1  0  0  0  0
M  END
>  <MODEL>
5

>  <REMARK>
 VINA RESULT:      -6.4      3.475      8.977
  Name = 
  13 active torsions:
  status: ('A' for Active; 'I' for Inactive)
    1  A    between atoms: C_1  and  N_36
    2  A    between atoms: N_2  and  C_40
    3  A    between atoms: C_4  and  O_29
    4  A    between atoms: C_4  and  C_30
    5  A    between atoms: O_5  and  C_26
    6  A    between atoms: O_5  and  C_32
    7  A    between atoms: C_8  and  O_29
    8  A    between atoms: C_8  and  C_40
    9  A    between atoms: C_10  and  C_37
   10  A    between atoms: N_13  and  C_23
   11  A    between atoms: N_13  and  N_28
   12  A    between atoms: N_28  and  C_45
   13  A    between atoms: C_34  and  C_45
                            x       y       z     vdW  Elec       q    Type
                         _______ _______ _______ _____ _____    ______ ____

>  <TORSDO>
F 13

$$$$
=
 OpenBabel11072408543D

 45 49  0  0  1  0  0  0  0  0999 V2000
  193.8450  176.9400  144.9040 O   0  0  0  0  0  0  0  0  0  0  0  0
  193.4390  176.6190  146.2030 C   0  0  0  0  0  2  0  0  0  0  0  0
  188.6270  177.3930  143.5590 C   0  0  0  0  0  0  0  0  0  0  0  0
  187.5040  176.3990  145.9180 C   0  0  0  0  0  3  0  0  0  0  0  0
  190.8580  176.6250  144.2200 N   0  0  0  0  0  2  0  0  0  0  0  0
  188.8920  176.3210  145.7330 C   0  0  0  0  0  0  0  0  0  0  0  0
  189.2790  174.9110  147.6430 N   0  0  0  0  0  2  0  0  0  0  0  0
  186.6800  176.9560  144.9350 C   0  0  0  0  0  0  0  0  0  0  0  0
  191.0790  176.4420  147.0780 C   0  0  1  0  0  3  0  0  0  0  0  0
  189.4610  176.7930  144.5220 C   0  0  0  0  0  0  0  0  0  0  0  0
  192.1480  175.8080  146.1840 C   0  0  1  0  0  3  0  0  0  0  0  0
  187.2470  177.4620  143.7670 C   0  0  0  0  0  3  0  0  0  0  0  0
  191.6840  175.5410  144.7490 C   0  0  0  0  0  2  0  0  0  0  0  0
  189.7230  175.8350  146.8520 C   0  0  0  0  0  0  0  0  0  0  0  0
  189.1800  177.9150  142.2770 C   0  0  0  0  0  1  0  0  0  0  0  0
  191.4520  176.3550  148.4240 O   0  0  0  0  0  0  0  0  0  0  0  0
  191.5670  177.6640  150.2860 O   0  0  0  0  0  1  0  0  0  0  0  0
  191.3620  177.6630  148.9070 C   0  0  0  0  0  2  0  0  0  0  0  0
  185.2630  177.0390  145.1220 N   0  0  0  0  0  2  0  0  0  0  0  0
  184.6790  177.1440  146.3940 N   0  0  0  0  0  2  0  0  0  0  0  0
  184.3110  178.5380  146.5900 C   0  0  0  0  0  2  0  0  0  0  0  0
  186.2120  179.3230  147.9950 C   0  0  0  0  0  1  0  0  0  0  0  0
  185.5570  179.4040  146.6290 C   0  0  0  0  0  2  0  0  0  0  0  0
  195.2300  177.0950  144.9910 C   0  0  0  0  0  2  0  0  0  0  0  0
  195.9170  176.3480  143.8580 C   0  0  0  0  0  2  0  0  0  0  0  0
  195.0180  175.3480  143.3000 N   0  0  0  0  0  0  0  0  0  0  0  0
  194.5530  173.0040  143.9650 C   0  0  0  0  0  2  0  0  0  0  0  0
  193.6350  173.8150  140.5450 C   0  0  1  0  0  0  0  0  0  0  0  0
  196.0850  175.0960  141.0110 C   0  0  0  0  0  2  0  0  0  0  0  0
  195.6110  174.0380  143.5750 C   0  0  0  0  0  2  0  0  0  0  0  0
  194.1030  172.6780  141.4990 C   0  0  0  0  0  2  0  0  0  0  0  0
  194.9020  175.6140  141.8530 C   0  0  1  0  0  3  0  0  0  0  0  0
  193.5430  175.1480  141.3210 C   0  0  0  0  0  2  0  0  0  0  0  0
  194.5470  173.9800  139.3700 N   0  0  0  0  0  0  0  0  0  0  0  0
  193.4870  172.7740  142.8930 C   0  0  0  0  0  2  0  0  0  0  0  0
  195.6660  174.9270  139.5520 C   0  0  0  0  0  2  0  0  0  0  0  0
  191.3090  172.7280  136.5510 O   0  0  0  0  0  0  0  0  0  0  0  0
  191.9460  174.1600  138.8360 O   0  0  0  0  0  0  0  0  0  0  0  0
  191.9250  171.9960  139.9020 C   0  0  0  0  0  2  0  0  0  0  0  0
  190.7920  171.7940  139.1090 O   0  0  0  0  0  0  0  0  0  0  0  0
  189.4560  173.8060  138.0830 O   0  0  0  0  0  1  0  0  0  0  0  0
  192.2090  173.5020  140.0460 C   0  0  1  0  0  3  0  0  0  0  0  0
  190.8160  173.1470  138.1130 P   0  0  2  0  0  0  0  0  0  0  0  0
  195.0930  172.7170  138.8730 C   0  0  0  0  0  2  0  0  0  0  0  0
  194.6460  172.4920  137.5720 O   0  0  0  0  0  1  0  0  0  0  0  0
  1 24  1  0  0  0  0
  1  2  1  0  0  0  0
  3 12  2  0  0  0  0
  3 10  1  0  0  0  0
  5 10  1  0  0  0  0
  5 13  1  0  0  0  0
  6  4  1  0  0  0  0
  6 14  1  0  0  0  0
  8 19  1  0  0  0  0
  8  4  2  0  0  0  0
  9 16  1  1  0  0  0
 10  6  2  0  0  0  0
 11  2  1  6  0  0  0
 11  9  1  0  0  0  0
 12  8  1  0  0  0  0
 13 11  1  0  0  0  0
 14  9  1  0  0  0  0
 14  7  2  0  0  0  0
 15  3  1  0  0  0  0
 16 18  1  0  0  0  0
 18 17  1  0  0  0  0
 19 20  1  0  0  0  0
 20 21  1  0  0  0  0
 21 23  1  0  0  0  0
 23 22  1  0  0  0  0
 25 24  1  0  0  0  0
 26 30  1  0  0  0  0
 26 25  1  0  0  0  0
 28 33  1  1  0  0  0
 28 31  1  0  0  0  0
 30 27  1  0  0  0  0
 31 35  1  0  0  0  0
 32 29  1  6  0  0  0
 32 26  1  0  0  0  0
 33 32  1  0  0  0  0
 34 36  1  0  0  0  0
 34 28  1  0  0  0  0
 35 27  1  0  0  0  0
 36 29  1  0  0  0  0
 38 42  1  0  0  0  0
 40 39  1  0  0  0  0
 41 43  1  0  0  0  0
 42 39  1  6  0  0  0
 42 28  1  0  0  0  0
 43 37  2  6  0  0  0
 43 38  1  0  0  0  0
 43 40  1  0  0  0  0
 44 34  1  0  0  0  0
 45 44  1  0  0  0  0
M  END
>  <MODEL>
6

>  <REMARK>
 VINA RESULT:      -6.4      2.471      3.882
  Name = 
  13 active torsions:
  status: ('A' for Active; 'I' for Inactive)
    1  A    between atoms: C_1  and  N_36
    2  A    between atoms: N_2  and  C_40
    3  A    between atoms: C_4  and  O_29
    4  A    between atoms: C_4  and  C_30
    5  A    between atoms: O_5  and  C_26
    6  A    between atoms: O_5  and  C_32
    7  A    between atoms: C_8  and  O_29
    8  A    between atoms: C_8  and  C_40
    9  A    between atoms: C_10  and  C_37
   10  A    between atoms: N_13  and  C_23
   11  A    between atoms: N_13  and  N_28
   12  A    between atoms: N_28  and  C_45
   13  A    between atoms: C_34  and  C_45
                            x       y       z     vdW  Elec       q    Type
                         _______ _______ _______ _____ _____    ______ ____

>  <TORSDO>
F 13

$$$$
=
 OpenBabel11072408543D

 45 49  0  0  1  0  0  0  0  0999 V2000
  190.1600  172.2010  141.5860 O   0  0  0  0  0  0  0  0  0  0  0  0
  190.3880  170.9090  142.0690 C   0  0  0  0  0  2  0  0  0  0  0  0
  193.7100  174.0910  145.1640 C   0  0  0  0  0  0  0  0  0  0  0  0
  195.6840  173.2850  143.3570 C   0  0  0  0  0  3  0  0  0  0  0  0
  192.1810  172.3480  144.3720 N   0  0  0  0  0  2  0  0  0  0  0  0
  194.4300  172.6570  143.3280 C   0  0  0  0  0  0  0  0  0  0  0  0
  195.1030  170.9150  141.8120 N   0  0  0  0  0  2  0  0  0  0  0  0
  195.9580  174.2980  144.2810 C   0  0  0  0  0  0  0  0  0  0  0  0
  192.7780  171.6070  141.6620 C   0  0  1  0  0  3  0  0  0  0  0  0
  193.4380  173.0400  144.2680 C   0  0  0  0  0  0  0  0  0  0  0  0
  191.8390  170.7400  142.5050 C   0  0  1  0  0  3  0  0  0  0  0  0
  194.9650  174.7040  145.1710 C   0  0  0  0  0  3  0  0  0  0  0  0
  191.9890  170.9440  144.0160 C   0  0  0  0  0  2  0  0  0  0  0  0
  194.1580  171.6810  142.2550 C   0  0  0  0  0  0  0  0  0  0  0  0
  192.6940  174.5380  146.1600 C   0  0  0  0  0  1  0  0  0  0  0  0
  192.8210  171.1430  140.3420 O   0  0  0  0  0  0  0  0  0  0  0  0
  191.6980  172.4990  138.8980 O   0  0  0  0  0  1  0  0  0  0  0  0
  192.9070  172.2960  139.5590 C   0  0  0  0  0  2  0  0  0  0  0  0
  197.2360  174.9420  144.3110 N   0  0  0  0  0  2  0  0  0  0  0  0
  197.7800  175.5810  143.1860 N   0  0  0  0  0  2  0  0  0  0  0  0
  196.9530  176.7440  142.9040 C   0  0  0  0  0  2  0  0  0  0  0  0
  196.9810  175.7400  140.6240 C   0  0  0  0  0  1  0  0  0  0  0  0
  196.1560  176.5180  141.6310 C   0  0  0  0  0  2  0  0  0  0  0  0
  188.9000  172.5490  142.0790 C   0  0  0  0  0  2  0  0  0  0  0  0
  188.2570  173.6010  141.1880 C   0  0  0  0  0  2  0  0  0  0  0  0
  187.8590  174.7540  141.9820 N   0  0  0  0  0  0  0  0  0  0  0  0
  186.6140  176.8120  141.3770 C   0  0  0  0  0  2  0  0  0  0  0  0
  188.6030  177.0860  144.4040 C   0  0  1  0  0  0  0  0  0  0  0  0
  190.1620  175.6320  142.5830 C   0  0  0  0  0  2  0  0  0  0  0  0
  187.8040  175.9010  141.0730 C   0  0  0  0  0  2  0  0  0  0  0  0
  188.0130  177.8700  143.1970 C   0  0  0  0  0  2  0  0  0  0  0  0
  188.8680  174.9340  143.0430 C   0  0  1  0  0  3  0  0  0  0  0  0
  188.2470  175.5870  144.2810 C   0  0  0  0  0  2  0  0  0  0  0  0
  190.0870  177.2420  144.5080 N   0  0  0  0  0  0  0  0  0  0  0  0
  186.6200  177.3890  142.7920 C   0  0  0  0  0  2  0  0  0  0  0  0
  190.8930  176.2420  143.7780 C   0  0  0  0  0  2  0  0  0  0  0  0
  184.3130  178.0230  146.2080 O   0  0  0  0  0  0  0  0  0  0  0  0
  186.9270  178.5110  145.4280 O   0  0  0  0  0  0  0  0  0  0  0  0
  187.3990  176.4520  146.5930 C   0  0  0  0  0  2  0  0  0  0  0  0
  186.5050  176.9670  147.5360 O   0  0  0  0  0  0  0  0  0  0  0  0
  185.9370  179.5260  147.6380 O   0  0  0  0  0  1  0  0  0  0  0  0
  187.9430  177.5860  145.7050 C   0  0  1  0  0  3  0  0  0  0  0  0
  185.8930  178.3120  146.7390 P   0  0  2  0  0  0  0  0  0  0  0  0
  190.5630  178.5730  144.1340 C   0  0  0  0  0  2  0  0  0  0  0  0
  191.7940  178.4680  143.4870 O   0  0  0  0  0  1  0  0  0  0  0  0
  1  2  1  0  0  0  0
  1 24  1  0  0  0  0
  3 12  1  0  0  0  0
  3 15  1  0  0  0  0
  4  8  1  0  0  0  0
  6  4  2  0  0  0  0
  6 10  1  0  0  0  0
  7 14  2  0  0  0  0
  8 19  1  0  0  0  0
  8 12  2  0  0  0  0
  9 16  1  6  0  0  0
  9 14  1  0  0  0  0
  9 11  1  0  0  0  0
 10  5  1  0  0  0  0
 10  3  2  0  0  0  0
 11  2  1  6  0  0  0
 11 13  1  0  0  0  0
 13  5  1  0  0  0  0
 14  6  1  0  0  0  0
 17 18  1  0  0  0  0
 18 16  1  0  0  0  0
 20 19  1  0  0  0  0
 21 20  1  0  0  0  0
 22 23  1  0  0  0  0
 23 21  1  0  0  0  0
 25 26  1  0  0  0  0
 25 24  1  0  0  0  0
 26 32  1  0  0  0  0
 27 35  1  0  0  0  0
 28 31  1  6  0  0  0
 28 34  1  0  0  0  0
 28 42  1  0  0  0  0
 29 36  1  0  0  0  0
 30 27  1  0  0  0  0
 30 26  1  0  0  0  0
 32 29  1  6  0  0  0
 32 33  1  0  0  0  0
 33 28  1  0  0  0  0
 35 31  1  0  0  0  0
 36 34  1  0  0  0  0
 38 42  1  0  0  0  0
 38 43  1  0  0  0  0
 39 40  1  0  0  0  0
 42 39  1  6  0  0  0
 43 37  2  6  0  0  0
 43 40  1  0  0  0  0
 43 41  1  0  0  0  0
 44 34  1  0  0  0  0
 45 44  1  0  0  0  0
M  END
>  <MODEL>
7

>  <REMARK>
 VINA RESULT:      -6.4      3.321      9.140
  Name = 
  13 active torsions:
  status: ('A' for Active; 'I' for Inactive)
    1  A    between atoms: C_1  and  N_36
    2  A    between atoms: N_2  and  C_40
    3  A    between atoms: C_4  and  O_29
    4  A    between atoms: C_4  and  C_30
    5  A    between atoms: O_5  and  C_26
    6  A    between atoms: O_5  and  C_32
    7  A    between atoms: C_8  and  O_29
    8  A    between atoms: C_8  and  C_40
    9  A    between atoms: C_10  and  C_37
   10  A    between atoms: N_13  and  C_23
   11  A    between atoms: N_13  and  N_28
   12  A    between atoms: N_28  and  C_45
   13  A    between atoms: C_34  and  C_45
                            x       y       z     vdW  Elec       q    Type
                         _______ _______ _______ _____ _____    ______ ____

>  <TORSDO>
F 13

$$$$
=
 OpenBabel11072408543D

 45 49  0  0  1  0  0  0  0  0999 V2000
  193.7820  173.9220  145.1720 O   0  0  0  0  0  0  0  0  0  0  0  0
  194.4370  175.1110  145.5060 C   0  0  0  0  0  2  0  0  0  0  0  0
  188.9830  175.5060  146.4270 C   0  0  0  0  0  0  0  0  0  0  0  0
  189.0460  177.3090  144.2930 C   0  0  0  0  0  3  0  0  0  0  0  0
  191.4230  175.5750  146.6440 N   0  0  0  0  0  2  0  0  0  0  0  0
  190.2540  176.8590  144.8460 C   0  0  0  0  0  0  0  0  0  0  0  0
  191.6310  178.4220  143.6450 N   0  0  0  0  0  2  0  0  0  0  0  0
  187.8180  176.8750  144.8010 C   0  0  0  0  0  0  0  0  0  0  0  0
  192.6590  176.2790  144.1480 C   0  0  1  0  0  3  0  0  0  0  0  0
  190.2240  175.9710  145.9530 C   0  0  0  0  0  0  0  0  0  0  0  0
  193.4780  176.2960  145.4420 C   0  0  1  0  0  3  0  0  0  0  0  0
  187.7930  175.9650  145.8570 C   0  0  0  0  0  3  0  0  0  0  0  0
  192.6330  176.3920  146.7160 C   0  0  0  0  0  2  0  0  0  0  0  0
  191.5170  177.2550  144.1930 C   0  0  0  0  0  0  0  0  0  0  0  0
  188.9020  174.5610  147.5780 C   0  0  0  0  0  1  0  0  0  0  0  0
  193.4830  176.5180  143.0430 O   0  0  0  0  0  0  0  0  0  0  0  0
  193.8930  175.6980  140.9580 O   0  0  0  0  0  1  0  0  0  0  0  0
  193.1030  175.5620  142.0980 C   0  0  0  0  0  2  0  0  0  0  0  0
  186.5850  177.3300  144.2370 N   0  0  0  0  0  2  0  0  0  0  0  0
  186.1740  176.9730  142.9430 N   0  0  0  0  0  2  0  0  0  0  0  0
  185.0650  177.8440  142.5820 C   0  0  0  0  0  2  0  0  0  0  0  0
  183.8210  178.2370  140.4610 C   0  0  0  0  0  1  0  0  0  0  0  0
  185.1830  178.2610  141.1280 C   0  0  0  0  0  2  0  0  0  0  0  0
  194.8060  172.9890  144.9930 C   0  0  0  0  0  2  0  0  0  0  0  0
  194.2530  171.7090  144.3850 C   0  0  0  0  0  2  0  0  0  0  0  0
  193.0600  171.9990  143.6040 N   0  0  0  0  0  0  0  0  0  0  0  0
  190.6720  172.1640  144.2550 C   0  0  0  0  0  2  0  0  0  0  0  0
  191.2360  171.5850  140.7130 C   0  0  1  0  0  0  0  0  0  0  0  0
  193.0980  169.9830  142.0640 C   0  0  0  0  0  2  0  0  0  0  0  0
  191.9430  171.3140  144.2570 C   0  0  0  0  0  2  0  0  0  0  0  0
  190.2530  171.3550  141.8970 C   0  0  0  0  0  2  0  0  0  0  0  0
  193.2930  171.5020  142.2350 C   0  0  1  0  0  3  0  0  0  0  0  0
  192.4980  172.3230  141.2150 C   0  0  0  0  0  2  0  0  0  0  0  0
  191.6330  170.3050  140.0510 N   0  0  0  0  0  0  0  0  0  0  0  0
  190.1820  172.5410  142.8570 C   0  0  0  0  0  2  0  0  0  0  0  0
  192.8340  169.6410  140.5990 C   0  0  0  0  0  2  0  0  0  0  0  0
  189.6820  171.5450  136.2270 O   0  0  0  0  0  0  0  0  0  0  0  0
  191.1690  172.3660  138.4160 O   0  0  0  0  0  0  0  0  0  0  0  0
  189.0480  172.3210  139.5640 C   0  0  0  0  0  2  0  0  0  0  0  0
  188.5760  172.8940  138.3810 O   0  0  0  0  0  0  0  0  0  0  0  0
  190.1910  174.0890  136.6930 O   0  0  0  0  0  1  0  0  0  0  0  0
  190.5720  172.5140  139.6760 C   0  0  1  0  0  3  0  0  0  0  0  0
  189.9130  172.7670  137.3730 P   0  0  2  0  0  0  0  0  0  0  0  0
  190.5540  169.3190  139.9900 C   0  0  0  0  0  2  0  0  0  0  0  0
  190.2000  169.0920  138.6610 O   0  0  0  0  0  1  0  0  0  0  0  0
  1  2  1  0  0  0  0
  3 15  1  0  0  0  0
  4  8  2  0  0  0  0
  4  6  1  0  0  0  0
  5 13  1  0  0  0  0
  6 10  2  0  0  0  0
  7 14  2  0  0  0  0
  8 12  1  0  0  0  0
  9 16  1  6  0  0  0
  9 14  1  0  0  0  0
  9 11  1  0  0  0  0
 10  3  1  0  0  0  0
 10  5  1  0  0  0  0
 11  2  1  1  0  0  0
 11 13  1  0  0  0  0
 12  3  2  0  0  0  0
 14  6  1  0  0  0  0
 17 18  1  0  0  0  0
 18 16  1  0  0  0  0
 19  8  1  0  0  0  0
 20 19  1  0  0  0  0
 21 20  1  0  0  0  0
 22 23  1  0  0  0  0
 23 21  1  0  0  0  0
 24  1  1  0  0  0  0
 25 24  1  0  0  0  0
 26 30  1  0  0  0  0
 26 25  1  0  0  0  0
 27 30  1  0  0  0  0
 28 33  1  1  0  0  0
 28 31  1  0  0  0  0
 29 32  1  0  0  0  0
 31 35  1  0  0  0  0
 32 33  1  6  0  0  0
 32 26  1  0  0  0  0
 34 36  1  0  0  0  0
 34 28  1  0  0  0  0
 35 27  1  0  0  0  0
 36 29  1  0  0  0  0
 38 42  1  0  0  0  0
 40 39  1  0  0  0  0
 41 43  1  0  0  0  0
 42 39  1  6  0  0  0
 42 28  1  0  0  0  0
 43 37  2  6  0  0  0
 43 40  1  0  0  0  0
 43 38  1  0  0  0  0
 44 34  1  0  0  0  0
 45 44  1  0  0  0  0
M  END
>  <MODEL>
8

>  <REMARK>
 VINA RESULT:      -6.3      2.891      4.559
  Name = 
  13 active torsions:
  status: ('A' for Active; 'I' for Inactive)
    1  A    between atoms: C_1  and  N_36
    2  A    between atoms: N_2  and  C_40
    3  A    between atoms: C_4  and  O_29
    4  A    between atoms: C_4  and  C_30
    5  A    between atoms: O_5  and  C_26
    6  A    between atoms: O_5  and  C_32
    7  A    between atoms: C_8  and  O_29
    8  A    between atoms: C_8  and  C_40
    9  A    between atoms: C_10  and  C_37
   10  A    between atoms: N_13  and  C_23
   11  A    between atoms: N_13  and  N_28
   12  A    between atoms: N_28  and  C_45
   13  A    between atoms: C_34  and  C_45
                            x       y       z     vdW  Elec       q    Type
                         _______ _______ _______ _____ _____    ______ ____

>  <TORSDO>
F 13

$$$$
=
 OpenBabel11072408543D

 45 49  0  0  1  0  0  0  0  0999 V2000
  192.3460  172.4230  144.8800 O   0  0  0  0  0  0  0  0  0  0  0  0
  192.6350  173.7610  145.1630 C   0  0  0  0  0  2  0  0  0  0  0  0
  187.9320  175.4730  142.7760 C   0  0  0  0  0  0  0  0  0  0  0  0
  188.1930  177.6580  144.5000 C   0  0  0  0  0  3  0  0  0  0  0  0
  189.6200  174.2060  144.0210 N   0  0  0  0  0  2  0  0  0  0  0  0
  189.0330  176.5470  144.6690 C   0  0  0  0  0  0  0  0  0  0  0  0
  189.9340  177.2830  146.7740 N   0  0  0  0  0  2  0  0  0  0  0  0
  187.2260  177.6800  143.4900 C   0  0  0  0  0  0  0  0  0  0  0  0
  191.4320  175.9680  145.3850 C   0  0  1  0  0  3  0  0  0  0  0  0
  188.8780  175.4220  143.8170 C   0  0  0  0  0  0  0  0  0  0  0  0
  191.4110  174.4750  145.7260 C   0  0  1  0  0  3  0  0  0  0  0  0
  187.1100  176.5930  142.6250 C   0  0  0  0  0  3  0  0  0  0  0  0
  190.1190  173.7600  145.3200 C   0  0  0  0  0  2  0  0  0  0  0  0
  190.1130  176.6290  145.6710 C   0  0  0  0  0  0  0  0  0  0  0  0
  187.7440  174.3220  141.8480 C   0  0  0  0  0  1  0  0  0  0  0  0
  192.4760  176.6110  146.0620 O   0  0  0  0  0  0  0  0  0  0  0  0
  194.6410  177.0770  145.5310 O   0  0  0  0  0  1  0  0  0  0  0  0
  193.3310  177.0640  145.0550 C   0  0  0  0  0  2  0  0  0  0  0  0
  186.3700  178.8120  143.3140 N   0  0  0  0  0  2  0  0  0  0  0  0
  185.7230  179.4380  144.3910 N   0  0  0  0  0  2  0  0  0  0  0  0
  184.5250  178.6660  144.6860 C   0  0  0  0  0  2  0  0  0  0  0  0
  185.0850  176.9150  146.3660 C   0  0  0  0  0  1  0  0  0  0  0  0
  184.4940  178.2960  146.1580 C   0  0  0  0  0  2  0  0  0  0  0  0
  193.4980  171.9300  144.2650 C   0  0  0  0  0  2  0  0  0  0  0  0
  194.0020  172.9170  143.2220 C   0  0  0  0  0  2  0  0  0  0  0  0
  193.4140  172.6210  141.9250 N   0  0  0  0  0  0  0  0  0  0  0  0
  193.4510  170.5660  140.5350 C   0  0  0  0  0  2  0  0  0  0  0  0
  192.6710  173.6090  138.7110 C   0  0  1  0  0  0  0  0  0  0  0  0
  194.7040  174.2910  140.5170 C   0  0  0  0  0  2  0  0  0  0  0  0
  194.2690  171.6190  141.2850 C   0  0  0  0  0  2  0  0  0  0  0  0
  193.3060  172.1930  138.6060 C   0  0  0  0  0  2  0  0  0  0  0  0
  193.3650  173.8810  141.1610 C   0  0  1  0  0  3  0  0  0  0  0  0
  192.2040  173.8690  140.1620 C   0  0  0  0  0  2  0  0  0  0  0  0
  193.6180  174.6870  138.2890 N   0  0  0  0  0  0  0  0  0  0  0  0
  192.5660  171.1410  139.4300 C   0  0  0  0  0  2  0  0  0  0  0  0
  194.4650  175.2560  139.3570 C   0  0  0  0  0  2  0  0  0  0  0  0
  189.5780  170.7200  136.5590 O   0  0  0  0  0  1  0  0  0  0  0  0
  191.4780  172.7250  136.7920 O   0  0  0  0  0  0  0  0  0  0  0  0
  190.0970  173.4810  138.6200 C   0  0  0  0  0  2  0  0  0  0  0  0
  189.0500  173.1660  137.7500 O   0  0  0  0  0  0  0  0  0  0  0  0
  189.4310  172.9500  135.1630 O   0  0  0  0  0  0  0  0  0  0  0  0
  191.4060  173.6640  137.8300 C   0  0  1  0  0  3  0  0  0  0  0  0
  189.8570  172.3870  136.5000 P   0  0  2  0  0  0  0  0  0  0  0  0
  194.4840  174.3000  137.1750 C   0  0  0  0  0  2  0  0  0  0  0  0
  194.1080  174.9930  136.0250 O   0  0  0  0  0  1  0  0  0  0  0  0
  1  2  1  0  0  0  0
  3 10  1  0  0  0  0
  4  6  1  0  0  0  0
  5 13  1  0  0  0  0
  6 14  1  0  0  0  0
  8  4  2  0  0  0  0
  9 14  1  0  0  0  0
  9 11  1  0  0  0  0
  9 16  1  1  0  0  0
 10  5  1  0  0  0  0
 10  6  2  0  0  0  0
 11  2  1  6  0  0  0
 12  3  2  0  0  0  0
 12  8  1  0  0  0  0
 13 11  1  0  0  0  0
 14  7  2  0  0  0  0
 15  3  1  0  0  0  0
 18 17  1  0  0  0  0
 18 16  1  0  0  0  0
 19  8  1  0  0  0  0
 19 20  1  0  0  0  0
 20 21  1  0  0  0  0
 21 23  1  0  0  0  0
 23 22  1  0  0  0  0
 24  1  1  0  0  0  0
 25 24  1  0  0  0  0
 26 25  1  0  0  0  0
 27 30  1  0  0  0  0
 28 31  1  6  0  0  0
 28 33  1  0  0  0  0
 29 32  1  0  0  0  0
 30 26  1  0  0  0  0
 31 35  1  0  0  0  0
 32 33  1  6  0  0  0
 32 26  1  0  0  0  0
 34 28  1  0  0  0  0
 34 36  1  0  0  0  0
 35 27  1  0  0  0  0
 36 29  1  0  0  0  0
 38 42  1  0  0  0  0
 40 39  1  0  0  0  0
 42 39  1  1  0  0  0
 42 28  1  0  0  0  0
 43 41  2  6  0  0  0
 43 37  1  0  0  0  0
 43 38  1  0  0  0  0
 43 40  1  0  0  0  0
 44 34  1  0  0  0  0
 45 44  1  0  0  0  0
M  END
>  <MODEL>
9

>  <REMARK>
 VINA RESULT:      -6.2      2.631      4.268
  Name = 
  13 active torsions:
  status: ('A' for Active; 'I' for Inactive)
    1  A    between atoms: C_1  and  N_36
    2  A    between atoms: N_2  and  C_40
    3  A    between atoms: C_4  and  O_29
    4  A    between atoms: C_4  and  C_30
    5  A    between atoms: O_5  and  C_26
    6  A    between atoms: O_5  and  C_32
    7  A    between atoms: C_8  and  O_29
    8  A    between atoms: C_8  and  C_40
    9  A    between atoms: C_10  and  C_37
   10  A    between atoms: N_13  and  C_23
   11  A    between atoms: N_13  and  N_28
   12  A    between atoms: N_28  and  C_45
   13  A    between atoms: C_34  and  C_45
                            x       y       z     vdW  Elec       q    Type
                         _______ _______ _______ _____ _____    ______ ____

>  <TORSDO>
F 13

$$$$
