=
 OpenBabel11072408433D

 36 41  0  0  1  0  0  0  0  0999 V2000
  192.5650  176.6060  145.0300 N   0  0  0  0  0  0  0  0  0  0  0  0
  191.3740  176.2460  144.6990 C   0  0  0  0  0  0  0  0  0  0  0  0
  188.9440  175.7060  145.2240 C   0  0  0  0  0  2  0  0  0  0  0  0
  189.2050  177.1370  144.7480 C   0  0  1  0  0  3  0  0  0  0  0  0
  190.5380  174.8090  145.3610 S   0  0  0  0  0  0  0  0  0  0  0  0
  190.4930  177.1710  143.9650 C   0  0  0  0  0  2  0  0  0  0  0  0
  183.5910  178.7000  142.7470 C   0  0  0  0  0  3  0  0  0  0  0  0
  186.3340  178.6220  145.0690 C   0  0  0  0  0  2  0  0  0  0  0  0
  181.6380  178.0180  141.5040 O   0  0  0  0  0  1  0  0  0  0  0  0
  188.0730  177.6000  142.4440 C   0  0  2  0  0  3  0  0  0  0  0  0
  185.5260  179.4240  144.0900 C   0  0  0  0  0  0  0  0  0  0  0  0
  185.2160  177.8600  140.6450 C   0  0  0  0  0  3  0  0  0  0  0  0
  185.8030  178.4050  141.7920 C   0  0  0  0  0  0  0  0  0  0  0  0
  183.8300  177.7240  140.5480 C   0  0  0  0  0  3  0  0  0  0  0  0
  183.0170  178.1480  141.5980 C   0  0  0  0  0  0  0  0  0  0  0  0
  184.9790  178.8360  142.8560 C   0  0  0  0  0  0  0  0  0  0  0  0
  186.8130  177.4350  144.5060 O   0  0  0  0  0  0  0  0  0  0  0  0
  185.2170  180.6090  144.3940 O   0  0  0  0  0  0  0  0  0  0  0  0
  188.0520  177.7760  143.9680 C   0  0  1  0  0  3  0  0  0  0  0  0
  187.1980  178.5500  141.8260 O   0  0  0  0  0  0  0  0  0  0  0  0
  188.3780  175.8620  140.6900 C   0  0  2  0  0  3  0  0  0  0  0  0
  188.9640  175.4420  141.8910 O   0  0  0  0  0  0  0  0  0  0  0  0
  187.7600  176.1650  142.0030 C   0  0  1  0  0  3  0  0  0  0  0  0
  187.7110  174.7890  140.1030 O   0  0  0  0  0  1  0  0  0  0  0  0
  194.0320  176.5910  146.9980 C   0  0  0  0  0  1  0  0  0  0  0  0
  193.4840  175.8060  145.8170 C   0  0  2  0  0  3  0  0  0  0  0  0
  194.6520  175.2680  144.9700 C   0  0  2  0  0  0  0  0  0  0  0  0
  195.3900  176.2740  144.0890 C   0  0  0  0  0  2  0  0  0  0  0  0
  196.3340  174.4280  142.7230 C   0  0  0  0  0  2  0  0  0  0  0  0
  194.7550  173.7660  144.6490 C   0  0  1  0  0  0  0  0  0  0  0  0
  195.5880  175.7520  142.6700 C   0  0  0  0  0  2  0  0  0  0  0  0
  195.4410  173.3500  143.3330 C   0  0  0  0  0  2  0  0  0  0  0  0
  195.6580  174.3790  145.7030 C   0  0  0  0  0  2  0  0  0  0  0  0
  193.7260  172.8150  145.2460 C   0  0  0  0  0  3  0  0  0  0  0  0
  194.3590  171.7790  145.9330 O   0  0  0  0  0  1  0  0  0  0  0  0
  192.9130  172.2840  144.2470 O   0  0  0  0  0  1  0  0  0  0  0  0
  1 26  1  0  0  0  0
  2  1  2  0  0  0  0
  2  5  1  0  0  0  0
  3  5  1  0  0  0  0
  4  6  1  6  0  0  0
  4  3  1  0  0  0  0
  6  2  1  0  0  0  0
  7 16  1  0  0  0  0
  9 15  1  0  0  0  0
 10 20  1  6  0  0  0
 10 19  1  0  0  0  0
 11 18  2  0  0  0  0
 11  8  1  0  0  0  0
 12 13  1  0  0  0  0
 13 20  1  0  0  0  0
 13 16  2  0  0  0  0
 14 12  2  0  0  0  0
 14 15  1  0  0  0  0
 15  7  2  0  0  0  0
 16 11  1  0  0  0  0
 17  8  1  0  0  0  0
 19 17  1  1  0  0  0
 19  4  1  0  0  0  0
 21 24  1  6  0  0  0
 21 22  1  0  0  0  0
 21 23  1  0  0  0  0
 23 22  1  1  0  0  0
 23 10  1  0  0  0  0
 26 25  1  1  0  0  0
 27 33  1  0  0  0  0
 27 26  1  1  0  0  0
 28 27  1  0  0  0  0
 29 32  1  0  0  0  0
 30 27  1  0  0  0  0
 30 34  1  1  0  0  0
 30 33  1  0  0  0  0
 31 29  1  0  0  0  0
 31 28  1  0  0  0  0
 32 30  1  0  0  0  0
 34 35  1  0  0  0  0
 36 34  1  0  0  0  0
M  END
>  <MODEL>
1

>  <REMARK>
 VINA RESULT:      -7.6      0.000      0.000
  Name = 
  5 active torsions:
  status: ('A' for Active; 'I' for Inactive)
    1  A    between atoms: N_4  and  C_10
    2  A    between atoms: C_7  and  C_28
    3  A    between atoms: C_10  and  C_13
    4  A    between atoms: C_12  and  C_35
    5  A    between atoms: C_19  and  C_24
                            x       y       z     vdW  Elec       q    Type
                         _______ _______ _______ _____ _____    ______ ____

>  <TORSDO>
F 5

$$$$
=
 OpenBabel11072408433D

 36 41  0  0  1  0  0  0  0  0999 V2000
  193.1710  171.2090  144.8120 N   0  0  0  0  0  0  0  0  0  0  0  0
  193.1270  172.4680  144.5410 C   0  0  0  0  0  0  0  0  0  0  0  0
  192.5700  174.4400  143.0350 C   0  0  0  0  0  2  0  0  0  0  0  0
  191.5030  174.0950  144.0760 C   0  0  1  0  0  3  0  0  0  0  0  0
  193.9380  173.2220  143.1360 S   0  0  0  0  0  0  0  0  0  0  0  0
  192.1470  173.3390  145.2120 C   0  0  0  0  0  2  0  0  0  0  0  0
  187.4000  177.5980  147.0540 C   0  0  0  0  0  3  0  0  0  0  0  0
  190.3060  175.5040  146.7470 C   0  0  0  0  0  2  0  0  0  0  0  0
  185.0930  178.2810  147.2300 O   0  0  0  0  0  1  0  0  0  0  0  0
  190.0090  176.1580  143.5160 C   0  0  2  0  0  3  0  0  0  0  0  0
  189.7580  176.8840  146.9710 C   0  0  0  0  0  0  0  0  0  0  0  0
  187.3230  178.0630  144.3080 C   0  0  0  0  0  3  0  0  0  0  0  0
  188.5060  177.5980  144.8930 C   0  0  0  0  0  0  0  0  0  0  0  0
  186.1820  178.2860  145.0820 C   0  0  0  0  0  3  0  0  0  0  0  0
  186.2230  178.0570  146.4570 C   0  0  0  0  0  0  0  0  0  0  0  0
  188.5470  177.3670  146.2860 C   0  0  0  0  0  0  0  0  0  0  0  0
  189.7950  174.9170  145.5850 O   0  0  0  0  0  0  0  0  0  0  0  0
  190.2920  177.6070  147.8560 O   0  0  0  0  0  0  0  0  0  0  0  0
  190.6880  175.2900  144.5820 C   0  0  1  0  0  3  0  0  0  0  0  0
  189.6320  177.4220  144.0760 O   0  0  0  0  0  0  0  0  0  0  0  0
  188.5610  176.0280  141.4970 C   0  0  2  0  0  3  0  0  0  0  0  0
  189.2690  174.8300  141.6600 O   0  0  0  0  0  0  0  0  0  0  0  0
  188.8230  175.4590  142.8400 C   0  0  1  0  0  3  0  0  0  0  0  0
  187.2510  175.7420  141.1220 O   0  0  0  0  0  1  0  0  0  0  0  0
  193.2530  169.3110  143.2580 C   0  0  0  0  0  1  0  0  0  0  0  0
  194.0410  170.2510  144.1560 C   0  0  2  0  0  3  0  0  0  0  0  0
  194.8610  169.4300  145.1680 C   0  0  2  0  0  0  0  0  0  0  0  0
  194.1170  168.3470  145.9460 C   0  0  0  0  0  2  0  0  0  0  0  0
  195.9250  168.2870  147.6470 C   0  0  0  0  0  2  0  0  0  0  0  0
  196.1910  169.9750  145.7190 C   0  0  1  0  0  0  0  0  0  0  0  0
  194.4230  168.4040  147.4390 C   0  0  0  0  0  2  0  0  0  0  0  0
  196.6220  169.5440  147.1350 C   0  0  0  0  0  2  0  0  0  0  0  0
  196.1980  168.8850  144.6620 C   0  0  0  0  0  2  0  0  0  0  0  0
  196.7160  171.3020  145.1880 C   0  0  0  0  0  3  0  0  0  0  0  0
  197.9410  171.1210  144.5440 O   0  0  0  0  0  1  0  0  0  0  0  0
  196.8670  172.2190  146.2260 O   0  0  0  0  0  1  0  0  0  0  0  0
  2  1  2  0  0  0  0
  2  6  1  0  0  0  0
  3  5  1  0  0  0  0
  4  3  1  6  0  0  0
  4 19  1  0  0  0  0
  4  6  1  0  0  0  0
  5  2  1  0  0  0  0
  8 11  1  0  0  0  0
 10 20  1  1  0  0  0
 10 19  1  0  0  0  0
 11 18  2  0  0  0  0
 12 13  2  0  0  0  0
 12 14  1  0  0  0  0
 13 16  1  0  0  0  0
 14 15  2  0  0  0  0
 15  7  1  0  0  0  0
 15  9  1  0  0  0  0
 16 11  1  0  0  0  0
 16  7  2  0  0  0  0
 17  8  1  0  0  0  0
 19 17  1  1  0  0  0
 20 13  1  0  0  0  0
 21 24  1  6  0  0  0
 21 22  1  0  0  0  0
 21 23  1  0  0  0  0
 23 22  1  6  0  0  0
 23 10  1  0  0  0  0
 26 25  1  1  0  0  0
 26  1  1  0  0  0  0
 27 26  1  6  0  0  0
 27 30  1  0  0  0  0
 27 28  1  0  0  0  0
 28 31  1  0  0  0  0
 30 34  1  6  0  0  0
 30 32  1  0  0  0  0
 31 29  1  0  0  0  0
 32 29  1  0  0  0  0
 33 27  1  0  0  0  0
 33 30  1  0  0  0  0
 34 36  1  0  0  0  0
 35 34  1  0  0  0  0
M  END
>  <MODEL>
2

>  <REMARK>
 VINA RESULT:      -7.5      3.146      5.145
  Name = 
  5 active torsions:
  status: ('A' for Active; 'I' for Inactive)
    1  A    between atoms: N_4  and  C_10
    2  A    between atoms: C_7  and  C_28
    3  A    between atoms: C_10  and  C_13
    4  A    between atoms: C_12  and  C_35
    5  A    between atoms: C_19  and  C_24
                            x       y       z     vdW  Elec       q    Type
                         _______ _______ _______ _____ _____    ______ ____

>  <TORSDO>
F 5

$$$$
=
 OpenBabel11072408433D

 36 41  0  0  1  0  0  0  0  0999 V2000
  189.4980  176.6660  144.8800 N   0  0  0  0  0  0  0  0  0  0  0  0
  190.7590  176.5550  145.1180 C   0  0  0  0  0  0  0  0  0  0  0  0
  192.7850  175.3470  146.0700 C   0  0  0  0  0  2  0  0  0  0  0  0
  192.5130  175.0920  144.5860 C   0  0  1  0  0  3  0  0  0  0  0  0
  191.4640  176.4170  146.7580 S   0  0  0  0  0  0  0  0  0  0  0  0
  191.6970  176.2320  144.0300 C   0  0  0  0  0  2  0  0  0  0  0  0
  197.1440  175.6660  140.5620 C   0  0  0  0  0  3  0  0  0  0  0  0
  195.3140  176.3860  143.5710 C   0  0  0  0  0  2  0  0  0  0  0  0
  197.8010  175.6650  138.2410 O   0  0  0  0  0  1  0  0  0  0  0  0
  193.7530  173.5480  142.8870 C   0  0  2  0  0  3  0  0  0  0  0  0
  196.5230  175.7510  142.9460 C   0  0  0  0  0  0  0  0  0  0  0  0
  195.7460  173.2890  140.1620 C   0  0  0  0  0  3  0  0  0  0  0  0
  195.7530  173.8770  141.4310 C   0  0  0  0  0  0  0  0  0  0  0  0
  196.4220  173.8850  139.0950 C   0  0  0  0  0  3  0  0  0  0  0  0
  197.1250  175.0720  139.2970 C   0  0  0  0  0  0  0  0  0  0  0  0
  196.4660  175.0800  141.6370 C   0  0  0  0  0  0  0  0  0  0  0  0
  194.1250  175.9400  142.9880 O   0  0  0  0  0  0  0  0  0  0  0  0
  197.6400  175.8960  143.5130 O   0  0  0  0  0  0  0  0  0  0  0  0
  193.7620  174.8240  143.7390 C   0  0  1  0  0  3  0  0  0  0  0  0
  195.0850  173.2210  142.4760 O   0  0  0  0  0  0  0  0  0  0  0  0
  192.2630  172.2930  141.3400 C   0  0  2  0  0  3  0  0  0  0  0  0
  191.5130  173.2010  142.1000 O   0  0  0  0  0  0  0  0  0  0  0  0
  192.7930  173.6310  141.6950 C   0  0  1  0  0  3  0  0  0  0  0  0
  191.8110  172.3110  140.0230 O   0  0  0  0  0  1  0  0  0  0  0  0
  188.2250  175.6580  146.7210 C   0  0  0  0  0  1  0  0  0  0  0  0
  188.4830  176.9040  145.8880 C   0  0  2  0  0  3  0  0  0  0  0  0
  187.1600  177.3930  145.2700 C   0  0  2  0  0  0  0  0  0  0  0  0
  187.0730  177.4130  143.7450 C   0  0  0  0  0  2  0  0  0  0  0  0
  185.1420  178.9710  143.8470 C   0  0  0  0  0  2  0  0  0  0  0  0
  186.1890  178.2590  146.0920 C   0  0  1  0  0  0  0  0  0  0  0  0
  186.5080  178.7300  143.2230 C   0  0  0  0  0  2  0  0  0  0  0  0
  185.2940  179.2630  145.3380 C   0  0  0  0  0  2  0  0  0  0  0  0
  185.8820  176.7910  145.8580 C   0  0  0  0  0  2  0  0  0  0  0  0
  186.5230  178.5590  147.5470 C   0  0  0  0  0  3  0  0  0  0  0  0
  185.9410  177.6090  148.3880 O   0  0  0  0  0  1  0  0  0  0  0  0
  186.0770  179.8290  147.9000 O   0  0  0  0  0  1  0  0  0  0  0  0
  1  2  2  0  0  0  0
  1 26  1  0  0  0  0
  2  5  1  0  0  0  0
  3  5  1  0  0  0  0
  4  6  1  6  0  0  0
  4  3  1  0  0  0  0
  6  2  1  0  0  0  0
  7 16  1  0  0  0  0
  9 15  1  0  0  0  0
 10 20  1  6  0  0  0
 10 19  1  0  0  0  0
 11 18  2  0  0  0  0
 11  8  1  0  0  0  0
 12 13  1  0  0  0  0
 13 16  2  0  0  0  0
 13 20  1  0  0  0  0
 14 15  1  0  0  0  0
 14 12  2  0  0  0  0
 15  7  2  0  0  0  0
 16 11  1  0  0  0  0
 17  8  1  0  0  0  0
 19 17  1  6  0  0  0
 19  4  1  0  0  0  0
 21 24  1  6  0  0  0
 21 23  1  0  0  0  0
 21 22  1  0  0  0  0
 23 22  1  1  0  0  0
 23 10  1  0  0  0  0
 26 25  1  6  0  0  0
 27 33  1  0  0  0  0
 27 26  1  1  0  0  0
 27 30  1  0  0  0  0
 28 27  1  0  0  0  0
 29 32  1  0  0  0  0
 30 34  1  1  0  0  0
 31 28  1  0  0  0  0
 31 29  1  0  0  0  0
 32 30  1  0  0  0  0
 33 30  1  0  0  0  0
 34 36  1  0  0  0  0
 34 35  1  0  0  0  0
M  END
>  <MODEL>
3

>  <REMARK>
 VINA RESULT:      -7.4      2.917      9.332
  Name = 
  5 active torsions:
  status: ('A' for Active; 'I' for Inactive)
    1  A    between atoms: N_4  and  C_10
    2  A    between atoms: C_7  and  C_28
    3  A    between atoms: C_10  and  C_13
    4  A    between atoms: C_12  and  C_35
    5  A    between atoms: C_19  and  C_24
                            x       y       z     vdW  Elec       q    Type
                         _______ _______ _______ _____ _____    ______ ____

>  <TORSDO>
F 5

$$$$
=
 OpenBabel11072408433D

 36 41  0  0  1  0  0  0  0  0999 V2000
  189.6080  176.7470  145.1190 N   0  0  0  0  0  0  0  0  0  0  0  0
  190.8630  176.7620  145.4100 C   0  0  0  0  0  0  0  0  0  0  0  0
  192.9490  175.7810  146.4850 C   0  0  0  0  0  2  0  0  0  0  0  0
  192.7640  175.4510  145.0030 C   0  0  1  0  0  3  0  0  0  0  0  0
  191.5070  176.7460  147.0800 S   0  0  0  0  0  0  0  0  0  0  0  0
  191.8710  176.4910  144.3720 C   0  0  0  0  0  2  0  0  0  0  0  0
  196.8390  174.3570  140.5110 C   0  0  0  0  0  3  0  0  0  0  0  0
  194.2640  176.1950  142.2190 C   0  0  0  0  0  2  0  0  0  0  0  0
  197.9230  172.6910  139.1440 O   0  0  0  0  0  1  0  0  0  0  0  0
  195.0850  174.2790  144.7910 C   0  0  2  0  0  3  0  0  0  0  0  0
  195.7110  176.1100  141.8270 C   0  0  0  0  0  0  0  0  0  0  0  0
  197.4150  172.8560  142.7880 C   0  0  0  0  0  3  0  0  0  0  0  0
  196.7210  174.0640  142.9180 C   0  0  0  0  0  0  0  0  0  0  0  0
  197.8120  172.3930  141.5310 C   0  0  0  0  0  3  0  0  0  0  0  0
  197.5270  173.1460  140.3930 C   0  0  0  0  0  0  0  0  0  0  0  0
  196.4320  174.8280  141.7650 C   0  0  0  0  0  0  0  0  0  0  0  0
  193.8250  175.0350  142.8640 O   0  0  0  0  0  0  0  0  0  0  0  0
  196.2900  177.1600  141.4340 O   0  0  0  0  0  0  0  0  0  0  0  0
  194.0670  175.2730  144.2160 C   0  0  1  0  0  3  0  0  0  0  0  0
  196.3730  174.5000  144.2050 O   0  0  0  0  0  0  0  0  0  0  0  0
  195.1250  172.0020  145.7910 C   0  0  2  0  0  3  0  0  0  0  0  0
  193.8100  172.4830  145.7430 O   0  0  0  0  0  0  0  0  0  0  0  0
  194.6400  172.8190  144.6530 C   0  0  1  0  0  3  0  0  0  0  0  0
  195.1380  170.6590  145.4220 O   0  0  0  0  0  1  0  0  0  0  0  0
  188.2710  175.6460  146.8590 C   0  0  0  0  0  1  0  0  0  0  0  0
  188.5330  176.9230  146.0770 C   0  0  2  0  0  3  0  0  0  0  0  0
  187.2300  177.3890  145.4020 C   0  0  2  0  0  0  0  0  0  0  0  0
  187.2010  177.3860  143.8750 C   0  0  0  0  0  2  0  0  0  0  0  0
  185.2520  178.9260  143.8810 C   0  0  0  0  0  2  0  0  0  0  0  0
  186.2200  178.2580  146.1740 C   0  0  1  0  0  0  0  0  0  0  0  0
  186.6430  178.6890  143.3120 C   0  0  0  0  0  2  0  0  0  0  0  0
  185.3450  179.2410  145.3710 C   0  0  0  0  0  2  0  0  0  0  0  0
  185.9370  176.7840  145.9510 C   0  0  0  0  0  2  0  0  0  0  0  0
  186.4970  178.5820  147.6360 C   0  0  0  0  0  3  0  0  0  0  0  0
  185.9130  177.6260  148.4680 O   0  0  0  0  0  1  0  0  0  0  0  0
  186.0040  179.8440  147.9590 O   0  0  0  0  0  1  0  0  0  0  0  0
  1  2  2  0  0  0  0
  1 26  1  0  0  0  0
  2  5  1  0  0  0  0
  3  5  1  0  0  0  0
  4  6  1  6  0  0  0
  4  3  1  0  0  0  0
  6  2  1  0  0  0  0
  7 16  1  0  0  0  0
  8 17  1  0  0  0  0
  9 15  1  0  0  0  0
 10 20  1  6  0  0  0
 11  8  1  0  0  0  0
 12 13  1  0  0  0  0
 13 20  1  0  0  0  0
 14 12  2  0  0  0  0
 15  7  2  0  0  0  0
 15 14  1  0  0  0  0
 16 11  1  0  0  0  0
 16 13  2  0  0  0  0
 18 11  2  0  0  0  0
 19 17  1  6  0  0  0
 19 10  1  0  0  0  0
 19  4  1  0  0  0  0
 21 24  1  6  0  0  0
 22 21  1  0  0  0  0
 23 10  1  0  0  0  0
 23 22  1  1  0  0  0
 23 21  1  0  0  0  0
 26 25  1  6  0  0  0
 27 33  1  0  0  0  0
 27 26  1  1  0  0  0
 27 30  1  0  0  0  0
 28 27  1  0  0  0  0
 29 32  1  0  0  0  0
 30 34  1  1  0  0  0
 31 28  1  0  0  0  0
 31 29  1  0  0  0  0
 32 30  1  0  0  0  0
 33 30  1  0  0  0  0
 34 36  1  0  0  0  0
 34 35  1  0  0  0  0
M  END
>  <MODEL>
4

>  <REMARK>
 VINA RESULT:      -7.3      2.952      9.820
  Name = 
  5 active torsions:
  status: ('A' for Active; 'I' for Inactive)
    1  A    between atoms: N_4  and  C_10
    2  A    between atoms: C_7  and  C_28
    3  A    between atoms: C_10  and  C_13
    4  A    between atoms: C_12  and  C_35
    5  A    between atoms: C_19  and  C_24
                            x       y       z     vdW  Elec       q    Type
                         _______ _______ _______ _____ _____    ______ ____

>  <TORSDO>
F 5

$$$$
=
 OpenBabel11072408433D

 36 41  0  0  1  0  0  0  0  0999 V2000
  188.6860  176.4160  143.4050 N   0  0  0  0  0  0  0  0  0  0  0  0
  189.0670  175.2820  142.9260 C   0  0  0  0  0  0  0  0  0  0  0  0
  190.2190  173.8350  141.1800 C   0  0  0  0  0  2  0  0  0  0  0  0
  191.0780  174.2020  142.3920 C   0  0  1  0  0  3  0  0  0  0  0  0
  188.5860  174.6580  141.3190 S   0  0  0  0  0  0  0  0  0  0  0  0
  190.1770  174.5440  143.5520 C   0  0  0  0  0  2  0  0  0  0  0  0
  194.2010  169.8150  145.3880 C   0  0  0  0  0  3  0  0  0  0  0  0
  191.4610  171.1710  143.4990 C   0  0  0  0  0  2  0  0  0  0  0  0
  195.6490  169.2910  147.2450 O   0  0  0  0  0  1  0  0  0  0  0  0
  193.5830  173.6250  142.8400 C   0  0  2  0  0  3  0  0  0  0  0  0
  192.6650  170.2740  143.5170 C   0  0  0  0  0  0  0  0  0  0  0  0
  195.8590  171.9480  144.7040 C   0  0  0  0  0  3  0  0  0  0  0  0
  194.7170  171.6920  143.9370 C   0  0  0  0  0  0  0  0  0  0  0  0
  196.1690  171.1540  145.8100 C   0  0  0  0  0  3  0  0  0  0  0  0
  195.3420  170.0840  146.1490 C   0  0  0  0  0  0  0  0  0  0  0  0
  193.8780  170.6070  144.2810 C   0  0  0  0  0  0  0  0  0  0  0  0
  191.7620  172.4640  143.9370 O   0  0  0  0  0  0  0  0  0  0  0  0
  192.5860  169.1510  142.9470 O   0  0  0  0  0  0  0  0  0  0  0  0
  192.1250  173.1520  142.7810 C   0  0  1  0  0  3  0  0  0  0  0  0
  194.4680  172.4990  142.8170 O   0  0  0  0  0  0  0  0  0  0  0  0
  194.9380  175.5200  143.7120 C   0  0  2  0  0  3  0  0  0  0  0  0
  193.5850  175.8790  143.6610 O   0  0  0  0  0  0  0  0  0  0  0  0
  193.8660  174.5480  144.0310 C   0  0  1  0  0  3  0  0  0  0  0  0
  195.4970  175.9940  144.8960 O   0  0  0  0  0  1  0  0  0  0  0  0
  188.2560  178.2900  141.8800 C   0  0  0  0  0  1  0  0  0  0  0  0
  187.6590  177.2580  142.8220 C   0  0  2  0  0  3  0  0  0  0  0  0
  186.8170  177.9690  143.8990 C   0  0  2  0  0  0  0  0  0  0  0  0
  187.3600  177.9530  145.3260 C   0  0  0  0  0  2  0  0  0  0  0  0
  185.1130  178.5190  146.2170 C   0  0  0  0  0  2  0  0  0  0  0  0
  185.3200  178.2400  143.6640 C   0  0  1  0  0  0  0  0  0  0  0  0
  186.2890  177.5630  146.3390 C   0  0  0  0  0  2  0  0  0  0  0  0
  184.3900  178.2910  144.8920 C   0  0  0  0  0  2  0  0  0  0  0  0
  186.3230  179.3730  143.5430 C   0  0  0  0  0  2  0  0  0  0  0  0
  184.7060  177.8610  142.3230 C   0  0  0  0  0  3  0  0  0  0  0  0
  185.1610  178.7170  141.3180 O   0  0  0  0  0  1  0  0  0  0  0  0
  183.3170  177.9160  142.3880 O   0  0  0  0  0  1  0  0  0  0  0  0
  2  1  2  0  0  0  0
  2  6  1  0  0  0  0
  3  5  1  0  0  0  0
  4  3  1  6  0  0  0
  4 19  1  0  0  0  0
  4  6  1  0  0  0  0
  5  2  1  0  0  0  0
  7 15  1  0  0  0  0
  8 11  1  0  0  0  0
  8 17  1  0  0  0  0
 10 20  1  1  0  0  0
 10 23  1  0  0  0  0
 11 16  1  0  0  0  0
 12 14  1  0  0  0  0
 13 16  1  0  0  0  0
 13 12  2  0  0  0  0
 14 15  2  0  0  0  0
 15  9  1  0  0  0  0
 16  7  2  0  0  0  0
 18 11  2  0  0  0  0
 19 10  1  0  0  0  0
 19 17  1  1  0  0  0
 20 13  1  0  0  0  0
 21 23  1  0  0  0  0
 21 24  1  1  0  0  0
 22 21  1  0  0  0  0
 23 22  1  6  0  0  0
 26 25  1  6  0  0  0
 26  1  1  0  0  0  0
 27 26  1  6  0  0  0
 27 28  1  0  0  0  0
 28 31  1  0  0  0  0
 29 31  1  0  0  0  0
 30 34  1  6  0  0  0
 30 27  1  0  0  0  0
 30 32  1  0  0  0  0
 32 29  1  0  0  0  0
 33 30  1  0  0  0  0
 33 27  1  0  0  0  0
 34 36  1  0  0  0  0
 35 34  1  0  0  0  0
M  END
>  <MODEL>
5

>  <REMARK>
 VINA RESULT:      -7.1      2.523     10.023
  Name = 
  5 active torsions:
  status: ('A' for Active; 'I' for Inactive)
    1  A    between atoms: N_4  and  C_10
    2  A    between atoms: C_7  and  C_28
    3  A    between atoms: C_10  and  C_13
    4  A    between atoms: C_12  and  C_35
    5  A    between atoms: C_19  and  C_24
                            x       y       z     vdW  Elec       q    Type
                         _______ _______ _______ _____ _____    ______ ____

>  <TORSDO>
F 5

$$$$
=
 OpenBabel11072408433D

 36 41  0  0  1  0  0  0  0  0999 V2000
  194.2560  174.5280  142.4450 N   0  0  0  0  0  0  0  0  0  0  0  0
  193.4100  175.1400  143.1990 C   0  0  0  0  0  0  0  0  0  0  0  0
  192.2540  177.2310  144.0720 C   0  0  0  0  0  2  0  0  0  0  0  0
  191.5150  176.4990  142.9500 C   0  0  1  0  0  3  0  0  0  0  0  0
  193.8540  176.3950  144.3950 S   0  0  0  0  0  0  0  0  0  0  0  0
  191.9660  175.0600  142.9170 C   0  0  0  0  0  2  0  0  0  0  0  0
  185.7800  178.6540  143.6090 C   0  0  0  0  0  3  0  0  0  0  0  0
  188.9880  178.3170  142.0220 C   0  0  0  0  0  2  0  0  0  0  0  0
  184.0630  179.3620  145.1500 O   0  0  0  0  0  1  0  0  0  0  0  0
  189.2600  175.6250  143.9290 C   0  0  2  0  0  3  0  0  0  0  0  0
  187.5180  178.0130  141.9830 C   0  0  0  0  0  0  0  0  0  0  0  0
  186.1700  176.3420  145.1140 C   0  0  0  0  0  3  0  0  0  0  0  0
  186.9450  176.5550  143.9690 C   0  0  0  0  0  0  0  0  0  0  0  0
  185.2130  177.2770  145.5140 C   0  0  0  0  0  3  0  0  0  0  0  0
  185.0160  178.4320  144.7580 C   0  0  0  0  0  0  0  0  0  0  0  0
  186.7440  177.7250  143.2020 C   0  0  0  0  0  0  0  0  0  0  0  0
  189.5740  177.9230  143.2290 O   0  0  0  0  0  0  0  0  0  0  0  0
  186.9110  178.1170  140.8820 O   0  0  0  0  0  0  0  0  0  0  0  0
  189.9880  176.6110  143.0060 C   0  0  1  0  0  3  0  0  0  0  0  0
  187.8690  175.5690  143.5930 O   0  0  0  0  0  0  0  0  0  0  0  0
  189.2780  174.7140  146.2440 C   0  0  2  0  0  3  0  0  0  0  0  0
  190.5580  175.1620  145.8930 O   0  0  0  0  0  0  0  0  0  0  0  0
  189.4750  175.9280  145.4160 C   0  0  1  0  0  3  0  0  0  0  0  0
  189.0020  175.0900  147.5560 O   0  0  0  0  0  1  0  0  0  0  0  0
  196.3380  175.2840  141.3880 C   0  0  0  0  0  1  0  0  0  0  0  0
  195.6970  174.6030  142.5870 C   0  0  2  0  0  3  0  0  0  0  0  0
  196.3290  173.2130  142.7870 C   0  0  2  0  0  0  0  0  0  0  0  0
  196.2710  172.2480  141.6050 C   0  0  0  0  0  2  0  0  0  0  0  0
  196.7150  170.3270  143.1150 C   0  0  0  0  0  2  0  0  0  0  0  0
  196.5540  172.6560  144.2050 C   0  0  1  0  0  0  0  0  0  0  0  0
  195.7990  170.8600  142.0240 C   0  0  0  0  0  2  0  0  0  0  0  0
  196.5180  171.1270  144.3990 C   0  0  0  0  0  2  0  0  0  0  0  0
  197.7280  173.1960  143.4080 C   0  0  0  0  0  2  0  0  0  0  0  0
  196.2120  173.5340  145.4010 C   0  0  0  0  0  3  0  0  0  0  0  0
  197.1100  173.3090  146.4450 O   0  0  0  0  0  1  0  0  0  0  0  0
  194.9150  173.2780  145.8400 O   0  0  0  0  0  1  0  0  0  0  0  0
  1 26  1  0  0  0  0
  1  2  2  0  0  0  0
  2  5  1  0  0  0  0
  3  5  1  0  0  0  0
  4  6  1  1  0  0  0
  4 19  1  0  0  0  0
  4  3  1  0  0  0  0
  6  2  1  0  0  0  0
  7 15  1  0  0  0  0
  8 17  1  0  0  0  0
 10 20  1  6  0  0  0
 10 23  1  0  0  0  0
 11  8  1  0  0  0  0
 11 16  1  0  0  0  0
 12 14  1  0  0  0  0
 13 12  2  0  0  0  0
 15  9  1  0  0  0  0
 15 14  2  0  0  0  0
 16  7  2  0  0  0  0
 16 13  1  0  0  0  0
 18 11  2  0  0  0  0
 19 17  1  1  0  0  0
 19 10  1  0  0  0  0
 20 13  1  0  0  0  0
 21 24  1  1  0  0  0
 22 21  1  0  0  0  0
 23 22  1  6  0  0  0
 23 21  1  0  0  0  0
 26 25  1  6  0  0  0
 27 26  1  6  0  0  0
 27 33  1  0  0  0  0
 27 30  1  0  0  0  0
 28 31  1  0  0  0  0
 28 27  1  0  0  0  0
 29 32  1  0  0  0  0
 30 32  1  0  0  0  0
 30 34  1  1  0  0  0
 31 29  1  0  0  0  0
 33 30  1  0  0  0  0
 34 36  1  0  0  0  0
 34 35  1  0  0  0  0
M  END
>  <MODEL>
6

>  <REMARK>
 VINA RESULT:      -7.0      2.316      3.937
  Name = 
  5 active torsions:
  status: ('A' for Active; 'I' for Inactive)
    1  A    between atoms: N_4  and  C_10
    2  A    between atoms: C_7  and  C_28
    3  A    between atoms: C_10  and  C_13
    4  A    between atoms: C_12  and  C_35
    5  A    between atoms: C_19  and  C_24
                            x       y       z     vdW  Elec       q    Type
                         _______ _______ _______ _____ _____    ______ ____

>  <TORSDO>
F 5

$$$$
=
 OpenBabel11072408433D

 36 41  0  0  1  0  0  0  0  0999 V2000
  192.1010  173.4110  140.2840 N   0  0  0  0  0  0  0  0  0  0  0  0
  190.9610  173.6480  140.8350 C   0  0  0  0  0  0  0  0  0  0  0  0
  189.1590  173.2270  142.5810 C   0  0  0  0  0  2  0  0  0  0  0  0
  190.1430  174.3510  142.9180 C   0  0  1  0  0  3  0  0  0  0  0  0
  189.6540  172.4370  141.0020 S   0  0  0  0  0  0  0  0  0  0  0  0
  190.7620  174.8640  141.6420 C   0  0  0  0  0  2  0  0  0  0  0  0
  186.8600  177.5570  147.0310 C   0  0  0  0  0  3  0  0  0  0  0  0
  189.3940  175.2480  145.9490 C   0  0  0  0  0  2  0  0  0  0  0  0
  184.7000  178.4600  147.6140 O   0  0  0  0  0  1  0  0  0  0  0  0
  188.9220  176.6550  142.9900 C   0  0  2  0  0  3  0  0  0  0  0  0
  189.0730  176.5970  146.5250 C   0  0  0  0  0  0  0  0  0  0  0  0
  186.6190  178.6440  144.4760 C   0  0  0  0  0  3  0  0  0  0  0  0
  187.7670  177.9160  144.8080 C   0  0  0  0  0  0  0  0  0  0  0  0
  185.5930  178.8220  145.4070 C   0  0  0  0  0  3  0  0  0  0  0  0
  185.7160  178.2820  146.6860 C   0  0  0  0  0  0  0  0  0  0  0  0
  187.8920  177.3690  146.1040 C   0  0  0  0  0  0  0  0  0  0  0  0
  188.7060  175.0100  144.7550 O   0  0  0  0  0  0  0  0  0  0  0  0
  189.7800  177.0280  147.4780 O   0  0  0  0  0  0  0  0  0  0  0  0
  189.5560  175.4890  143.7590 C   0  0  1  0  0  3  0  0  0  0  0  0
  188.7820  177.7940  143.8480 O   0  0  0  0  0  0  0  0  0  0  0  0
  187.2660  177.2170  141.2190 C   0  0  2  0  0  3  0  0  0  0  0  0
  187.8320  175.9600  140.9680 O   0  0  0  0  0  0  0  0  0  0  0  0
  187.5950  176.2800  142.3210 C   0  0  1  0  0  3  0  0  0  0  0  0
  185.8990  177.1660  140.9630 O   0  0  0  0  0  1  0  0  0  0  0  0
  193.8980  171.8560  139.6700 C   0  0  0  0  0  1  0  0  0  0  0  0
  192.4250  172.2110  139.5370 C   0  0  2  0  0  3  0  0  0  0  0  0
  192.0610  172.3440  138.0470 C   0  0  2  0  0  0  0  0  0  0  0  0
  192.1950  173.7310  137.4210 C   0  0  0  0  0  2  0  0  0  0  0  0
  190.7260  173.0550  135.5370 C   0  0  0  0  0  2  0  0  0  0  0  0
  191.1640  171.2940  137.3670 C   0  0  1  0  0  0  0  0  0  0  0  0
  190.9640  174.1110  136.6060 C   0  0  0  0  0  2  0  0  0  0  0  0
  190.2820  171.7470  136.1860 C   0  0  0  0  0  2  0  0  0  0  0  0
  192.6600  171.2900  137.1130 C   0  0  0  0  0  2  0  0  0  0  0  0
  190.7070  170.0860  138.1730 C   0  0  0  0  0  3  0  0  0  0  0  0
  191.1870  168.9070  137.6010 O   0  0  0  0  0  1  0  0  0  0  0  0
  189.3170  170.0390  138.2400 O   0  0  0  0  0  1  0  0  0  0  0  0
  1  2  2  0  0  0  0
  2  5  1  0  0  0  0
  2  6  1  0  0  0  0
  3  4  1  0  0  0  0
  4  6  1  6  0  0  0
  4 19  1  0  0  0  0
  5  3  1  0  0  0  0
  8 11  1  0  0  0  0
 10 19  1  0  0  0  0
 10 20  1  1  0  0  0
 11 18  2  0  0  0  0
 12 13  2  0  0  0  0
 12 14  1  0  0  0  0
 13 16  1  0  0  0  0
 14 15  2  0  0  0  0
 15  7  1  0  0  0  0
 15  9  1  0  0  0  0
 16 11  1  0  0  0  0
 16  7  2  0  0  0  0
 17  8  1  0  0  0  0
 19 17  1  1  0  0  0
 20 13  1  0  0  0  0
 21 24  1  6  0  0  0
 21 23  1  0  0  0  0
 22 21  1  0  0  0  0
 23 22  1  6  0  0  0
 23 10  1  0  0  0  0
 26 25  1  6  0  0  0
 26  1  1  0  0  0  0
 27 26  1  1  0  0  0
 28 27  1  0  0  0  0
 29 32  1  0  0  0  0
 29 31  1  0  0  0  0
 30 27  1  0  0  0  0
 30 34  1  1  0  0  0
 31 28  1  0  0  0  0
 32 30  1  0  0  0  0
 33 30  1  0  0  0  0
 33 27  1  0  0  0  0
 34 36  1  0  0  0  0
 35 34  1  0  0  0  0
M  END
>  <MODEL>
7

>  <REMARK>
 VINA RESULT:      -6.8      4.092      5.990
  Name = 
  5 active torsions:
  status: ('A' for Active; 'I' for Inactive)
    1  A    between atoms: N_4  and  C_10
    2  A    between atoms: C_7  and  C_28
    3  A    between atoms: C_10  and  C_13
    4  A    between atoms: C_12  and  C_35
    5  A    between atoms: C_19  and  C_24
                            x       y       z     vdW  Elec       q    Type
                         _______ _______ _______ _____ _____    ______ ____

>  <TORSDO>
F 5

$$$$
=
 OpenBabel11072408433D

 36 41  0  0  1  0  0  0  0  0999 V2000
  189.8410  171.9190  140.4570 N   0  0  0  0  0  0  0  0  0  0  0  0
  190.3010  172.7550  141.3220 C   0  0  0  0  0  0  0  0  0  0  0  0
  191.4620  174.9210  141.9800 C   0  0  0  0  0  2  0  0  0  0  0  0
  189.9330  174.9810  141.9630 C   0  0  1  0  0  3  0  0  0  0  0  0
  192.0140  173.2670  141.4110 S   0  0  0  0  0  0  0  0  0  0  0  0
  189.3810  173.5860  142.1180 C   0  0  0  0  0  2  0  0  0  0  0  0
  186.6790  177.3490  146.6300 C   0  0  0  0  0  3  0  0  0  0  0  0
  189.3060  175.4140  145.1210 C   0  0  0  0  0  2  0  0  0  0  0  0
  184.4980  177.9890  147.4370 O   0  0  0  0  0  1  0  0  0  0  0  0
  188.5520  177.1490  142.4050 C   0  0  2  0  0  3  0  0  0  0  0  0
  188.9220  176.6460  145.8890 C   0  0  0  0  0  0  0  0  0  0  0  0
  186.2020  178.7340  144.2590 C   0  0  0  0  0  3  0  0  0  0  0  0
  187.4190  178.0650  144.4310 C   0  0  0  0  0  0  0  0  0  0  0  0
  185.2250  178.7060  145.2560 C   0  0  0  0  0  3  0  0  0  0  0  0
  185.4650  178.0160  146.4430 C   0  0  0  0  0  0  0  0  0  0  0  0
  187.6640  177.3670  145.6350 C   0  0  0  0  0  0  0  0  0  0  0  0
  188.5670  175.2770  143.9420 O   0  0  0  0  0  0  0  0  0  0  0  0
  189.6520  177.0050  146.8530 O   0  0  0  0  0  0  0  0  0  0  0  0
  189.3160  175.9490  142.9780 C   0  0  1  0  0  3  0  0  0  0  0  0
  188.3810  178.1510  143.4140 O   0  0  0  0  0  0  0  0  0  0  0  0
  186.8800  177.6620  140.6350 C   0  0  2  0  0  3  0  0  0  0  0  0
  187.4410  176.3980  140.4150 O   0  0  0  0  0  0  0  0  0  0  0  0
  187.2170  176.7570  141.7600 C   0  0  1  0  0  3  0  0  0  0  0  0
  185.5100  177.6070  140.3940 O   0  0  0  0  0  1  0  0  0  0  0  0
  189.8180  170.4720  138.4750 C   0  0  0  0  0  1  0  0  0  0  0  0
  190.6560  171.1120  139.5700 C   0  0  2  0  0  3  0  0  0  0  0  0
  191.4290  170.0190  140.3320 C   0  0  2  0  0  0  0  0  0  0  0  0
  190.8170  169.5190  141.6380 C   0  0  0  0  0  2  0  0  0  0  0  0
  193.0050  168.5780  142.3380 C   0  0  0  0  0  2  0  0  0  0  0  0
  192.9310  169.8020  140.0720 C   0  0  1  0  0  0  0  0  0  0  0  0
  191.8420  169.4610  142.7640 C   0  0  0  0  0  2  0  0  0  0  0  0
  193.7970  169.2610  141.2260 C   0  0  0  0  0  2  0  0  0  0  0  0
  191.9150  168.8340  139.4940 C   0  0  0  0  0  2  0  0  0  0  0  0
  193.6180  170.6340  138.9960 C   0  0  0  0  0  3  0  0  0  0  0  0
  194.0660  169.8160  137.9580 O   0  0  0  0  0  1  0  0  0  0  0  0
  194.6940  171.3360  139.5340 O   0  0  0  0  0  1  0  0  0  0  0  0
  1  2  2  0  0  0  0
  2  5  1  0  0  0  0
  2  6  1  0  0  0  0
  4  3  1  1  0  0  0
  4  6  1  0  0  0  0
  4 19  1  0  0  0  0
  5  3  1  0  0  0  0
  8 11  1  0  0  0  0
 10 19  1  0  0  0  0
 10 20  1  1  0  0  0
 11 18  2  0  0  0  0
 12 13  2  0  0  0  0
 12 14  1  0  0  0  0
 13 16  1  0  0  0  0
 14 15  2  0  0  0  0
 15  7  1  0  0  0  0
 15  9  1  0  0  0  0
 16 11  1  0  0  0  0
 16  7  2  0  0  0  0
 17  8  1  0  0  0  0
 19 17  1  6  0  0  0
 20 13  1  0  0  0  0
 21 24  1  6  0  0  0
 21 23  1  0  0  0  0
 22 21  1  0  0  0  0
 23 22  1  6  0  0  0
 23 10  1  0  0  0  0
 26 25  1  6  0  0  0
 26  1  1  0  0  0  0
 27 26  1  6  0  0  0
 27 28  1  0  0  0  0
 28 31  1  0  0  0  0
 29 31  1  0  0  0  0
 30 34  1  6  0  0  0
 30 27  1  0  0  0  0
 30 32  1  0  0  0  0
 32 29  1  0  0  0  0
 33 30  1  0  0  0  0
 33 27  1  0  0  0  0
 34 36  1  0  0  0  0
 35 34  1  0  0  0  0
M  END
>  <MODEL>
8

>  <REMARK>
 VINA RESULT:      -6.7      3.939      5.640
  Name = 
  5 active torsions:
  status: ('A' for Active; 'I' for Inactive)
    1  A    between atoms: N_4  and  C_10
    2  A    between atoms: C_7  and  C_28
    3  A    between atoms: C_10  and  C_13
    4  A    between atoms: C_12  and  C_35
    5  A    between atoms: C_19  and  C_24
                            x       y       z     vdW  Elec       q    Type
                         _______ _______ _______ _____ _____    ______ ____

>  <TORSDO>
F 5

$$$$
=
 OpenBabel11072408433D

 36 41  0  0  1  0  0  0  0  0999 V2000
  188.6930  177.2960  144.7120 N   0  0  0  0  0  0  0  0  0  0  0  0
  189.9050  177.0490  145.0690 C   0  0  0  0  0  0  0  0  0  0  0  0
  191.6880  175.6280  146.1980 C   0  0  0  0  0  2  0  0  0  0  0  0
  191.5340  175.4040  144.6920 C   0  0  1  0  0  3  0  0  0  0  0  0
  190.4290  176.8350  146.7670 S   0  0  0  0  0  0  0  0  0  0  0  0
  190.9040  176.6260  144.0720 C   0  0  0  0  0  2  0  0  0  0  0  0
  196.6890  175.5370  141.3190 C   0  0  0  0  0  3  0  0  0  0  0  0
  194.6200  176.2690  144.1660 C   0  0  0  0  0  2  0  0  0  0  0  0
  197.6390  175.6490  139.1040 O   0  0  0  0  0  1  0  0  0  0  0  0
  192.7150  173.8400  142.9710 C   0  0  2  0  0  3  0  0  0  0  0  0
  195.7790  175.4940  143.6090 C   0  0  0  0  0  0  0  0  0  0  0  0
  194.9820  173.5010  140.4770 C   0  0  0  0  0  3  0  0  0  0  0  0
  194.9180  173.9480  141.8010 C   0  0  0  0  0  0  0  0  0  0  0  0
  195.8830  174.0690  139.5750 C   0  0  0  0  0  3  0  0  0  0  0  0
  196.7400  175.0850  139.9970 C   0  0  0  0  0  0  0  0  0  0  0  0
  195.7860  174.9770  142.2300 C   0  0  0  0  0  0  0  0  0  0  0  0
  193.4610  176.1040  143.4010 O   0  0  0  0  0  0  0  0  0  0  0  0
  196.8200  175.3790  144.3130 O   0  0  0  0  0  0  0  0  0  0  0  0
  192.8220  175.0030  143.9660 C   0  0  1  0  0  3  0  0  0  0  0  0
  194.0180  173.3220  142.6770 O   0  0  0  0  0  0  0  0  0  0  0  0
  191.3130  173.0210  141.0860 C   0  0  2  0  0  3  0  0  0  0  0  0
  190.5820  173.9190  141.8750 O   0  0  0  0  0  0  0  0  0  0  0  0
  191.9490  174.2120  141.6960 C   0  0  1  0  0  3  0  0  0  0  0  0
  191.0550  173.2720  139.7410 O   0  0  0  0  0  1  0  0  0  0  0  0
  187.1200  176.4250  146.3840 C   0  0  0  0  0  1  0  0  0  0  0  0
  187.6170  177.6430  145.6210 C   0  0  2  0  0  3  0  0  0  0  0  0
  186.4360  178.3070  144.8890 C   0  0  2  0  0  0  0  0  0  0  0  0
  185.4670  179.1270  145.7370 C   0  0  0  0  0  2  0  0  0  0  0  0
  183.7480  179.0000  143.9510 C   0  0  0  0  0  2  0  0  0  0  0  0
  185.9790  177.7870  143.5140 C   0  0  1  0  0  0  0  0  0  0  0  0
  184.0120  178.7870  145.4330 C   0  0  0  0  0  2  0  0  0  0  0  0
  184.4940  177.9500  143.1320 C   0  0  0  0  0  2  0  0  0  0  0  0
  186.7840  179.0700  143.6090 C   0  0  0  0  0  2  0  0  0  0  0  0
  186.7620  176.6570  142.8590 C   0  0  0  0  0  3  0  0  0  0  0  0
  186.8690  176.8690  141.4840 O   0  0  0  0  0  1  0  0  0  0  0  0
  186.1420  175.4320  143.0950 O   0  0  0  0  0  1  0  0  0  0  0  0
  1  2  2  0  0  0  0
  1 26  1  0  0  0  0
  2  5  1  0  0  0  0
  3  5  1  0  0  0  0
  4  6  1  6  0  0  0
  4  3  1  0  0  0  0
  6  2  1  0  0  0  0
  7 16  1  0  0  0  0
  9 15  1  0  0  0  0
 10 20  1  6  0  0  0
 10 19  1  0  0  0  0
 11  8  1  0  0  0  0
 11 18  2  0  0  0  0
 12 13  1  0  0  0  0
 13 16  2  0  0  0  0
 13 20  1  0  0  0  0
 14 15  1  0  0  0  0
 14 12  2  0  0  0  0
 15  7  2  0  0  0  0
 16 11  1  0  0  0  0
 17  8  1  0  0  0  0
 19 17  1  6  0  0  0
 19  4  1  0  0  0  0
 21 24  1  6  0  0  0
 21 23  1  0  0  0  0
 21 22  1  0  0  0  0
 23 22  1  1  0  0  0
 23 10  1  0  0  0  0
 26 25  1  6  0  0  0
 27 26  1  1  0  0  0
 27 28  1  0  0  0  0
 29 31  1  0  0  0  0
 30 34  1  6  0  0  0
 30 33  1  0  0  0  0
 30 27  1  0  0  0  0
 31 28  1  0  0  0  0
 32 30  1  0  0  0  0
 32 29  1  0  0  0  0
 33 27  1  0  0  0  0
 34 36  1  0  0  0  0
 35 34  1  0  0  0  0
M  END
>  <MODEL>
9

>  <REMARK>
 VINA RESULT:      -6.5      2.665      9.094
  Name = 
  5 active torsions:
  status: ('A' for Active; 'I' for Inactive)
    1  A    between atoms: N_4  and  C_10
    2  A    between atoms: C_7  and  C_28
    3  A    between atoms: C_10  and  C_13
    4  A    between atoms: C_12  and  C_35
    5  A    between atoms: C_19  and  C_24
                            x       y       z     vdW  Elec       q    Type
                         _______ _______ _______ _____ _____    ______ ____

>  <TORSDO>
F 5

$$$$
