=
 OpenBabel11072408583D

 45 51  0  0  1  0  0  0  0  0999 V2000
  188.1110  177.4660  142.0130 O   0  0  0  0  0  0  0  0  0  0  0  0
  193.3530  174.6870  143.2860 C   0  0  1  0  0  0  0  0  0  0  0  0
  192.3380  173.9960  144.2030 C   0  0  1  0  0  0  0  0  0  0  0  0
  188.3980  175.9870  144.7090 C   0  0  0  0  0  0  0  0  0  0  0  0
  189.3250  176.9590  142.5260 C   0  0  1  0  0  3  0  0  0  0  0  0
  188.8870  175.3970  145.8860 C   0  0  0  0  0  3  0  0  0  0  0  0
  190.1790  178.0160  143.2470 C   0  0  0  0  0  2  0  0  0  0  0  0
  192.8990  173.2690  142.9890 C   0  0  0  0  0  2  0  0  0  0  0  0
  189.0490  175.7110  143.3670 C   0  0  1  0  0  3  0  0  0  0  0  0
  192.5310  177.1520  143.4240 C   0  0  0  0  0  2  0  0  0  0  0  0
  187.2160  176.7530  144.7690 C   0  0  0  0  0  0  0  0  0  0  0  0
  186.7450  177.4530  143.6550 O   0  0  0  0  0  0  0  0  0  0  0  0
  187.5690  178.2400  142.9410 O   0  0  0  0  0  0  0  0  0  0  0  0
  192.7840  173.6300  145.6080 C   0  0  0  0  0  1  0  0  0  0  0  0
  188.1970  175.5360  147.0920 C   0  0  0  0  0  3  0  0  0  0  0  0
  191.5850  178.0780  142.6740 C   0  0  0  0  0  2  0  0  0  0  0  0
  187.0010  176.2550  147.1320 C   0  0  0  0  0  3  0  0  0  0  0  0
  190.1560  174.6410  143.2930 C   0  0  1  0  0  3  0  0  0  0  0  0
  192.2470  175.7070  143.0560 C   0  0  2  0  0  3  0  0  0  0  0  0
  191.3520  175.0780  144.0290 N   0  0  2  0  0  0  0  0  0  0  0  0
  186.5110  176.8600  145.9730 C   0  0  0  0  0  3  0  0  0  0  0  0
  194.8540  174.9720  143.7210 C   0  0  1  0  0  0  0  0  0  0  0  0
  195.6530  173.6300  143.6150 C   0  0  2  0  0  3  0  0  0  0  0  0
  195.9590  172.9290  144.9280 C   0  0  2  0  0  3  0  0  0  0  0  0
  197.0670  173.6730  144.1740 C   0  0  1  0  0  3  0  0  0  0  0  0
  197.8840  172.8090  143.4380 O   0  0  0  0  0  1  0  0  0  0  0  0
  195.9600  171.4220  144.7080 C   0  0  0  0  0  2  0  0  0  0  0  0
  194.9690  170.7510  145.6520 C   0  0  1  0  0  3  0  0  0  0  0  0
  193.8690  170.0610  144.8640 C   0  0  0  0  0  1  0  0  0  0  0  0
  195.6320  169.8140  146.5590 N   0  0  0  0  0  2  0  0  0  0  0  0
  194.6840  169.1330  147.2550 O   0  0  0  0  0  1  0  0  0  0  0  0
  196.7550  176.7150  143.2230 C   0  0  0  0  0  1  0  0  0  0  0  0
  195.3910  176.1530  142.8400 C   0  0  0  0  0  3  0  0  0  0  0  0
  195.3040  175.9350  141.3360 C   0  0  0  0  0  1  0  0  0  0  0  0
  195.0120  175.3550  145.2140 C   0  0  0  0  0  2  0  0  0  0  0  0
  194.7620  176.8100  145.5970 C   0  0  0  0  0  2  0  0  0  0  0  0
  194.0740  176.9240  146.9500 C   0  0  0  0  0  2  0  0  0  0  0  0
  191.8350  176.9230  148.0520 C   0  0  0  0  0  1  0  0  0  0  0  0
  192.6580  176.3710  146.9030 C   0  0  0  0  0  2  0  0  0  0  0  0
  189.6220  173.2830  143.7690 C   0  0  0  0  0  2  0  0  0  0  0  0
  189.3350  172.3670  142.5900 C   0  0  0  0  0  3  0  0  0  0  0  0
  190.0720  171.9160  140.3520 C   0  0  0  0  0  2  0  0  0  0  0  0
  190.5860  170.7900  141.2310 C   0  0  0  0  0  2  0  0  0  0  0  0
  189.6890  173.0410  141.2850 C   0  0  0  0  0  2  0  0  0  0  0  0
  190.2160  171.1390  142.6620 C   0  0  0  0  0  2  0  0  0  0  0  0
  1  5  1  0  0  0  0
  1 13  1  0  0  0  0
  2 22  1  1  0  0  0
  2  3  1  0  0  0  0
  3 14  1  1  0  0  0
  4 11  2  0  0  0  0
  4  6  1  0  0  0  0
  5  7  1  1  0  0  0
  5  9  1  0  0  0  0
  6 15  2  0  0  0  0
  8  2  1  0  0  0  0
  8  3  1  0  0  0  0
  9  4  1  1  0  0  0
 11 21  1  0  0  0  0
 12 11  1  0  0  0  0
 13 12  1  0  0  0  0
 15 17  1  0  0  0  0
 16  7  1  0  0  0  0
 16 10  1  0  0  0  0
 18  9  1  0  0  0  0
 18 40  1  1  0  0  0
 18 20  1  0  0  0  0
 19  2  1  0  0  0  0
 19 10  1  1  0  0  0
 19 20  1  0  0  0  0
 20  3  1  0  0  0  0
 21 17  2  0  0  0  0
 22 35  1  0  0  0  0
 23 22  1  0  0  0  0
 23 25  1  0  0  0  0
 23 24  1  0  0  0  0
 25 24  1  0  0  0  0
 26 25  1  0  0  0  0
 27 24  1  0  0  0  0
 27 28  1  0  0  0  0
 28 30  1  0  0  0  0
 29 28  1  0  0  0  0
 30 31  1  0  0  0  0
 33 32  1  0  0  0  0
 33 22  1  0  0  0  0
 34 33  1  0  0  0  0
 35 36  1  0  0  0  0
 36 37  1  0  0  0  0
 39 37  1  0  0  0  0
 39 38  1  0  0  0  0
 41 45  1  0  0  0  0
 41 40  1  0  0  0  0
 42 43  1  0  0  0  0
 42 44  1  0  0  0  0
 43 45  1  0  0  0  0
 44 41  1  0  0  0  0
M  END
>  <MODEL>
1

>  <REMARK>
 VINA RESULT:      -7.0      0.000      0.000
  Name = 
  12 active torsions:
  status: ('A' for Active; 'I' for Inactive)
    1  A    between atoms: C_2  and  C_3
    2  A    between atoms: C_3  and  C_16
    3  A    between atoms: C_3  and  C_30
    4  A    between atoms: C_3  and  C_44
    5  A    between atoms: N_4  and  C_12
    6  A    between atoms: C_6  and  C_24
    7  A    between atoms: C_12  and  C_33
    8  A    between atoms: C_19  and  C_33
    9  A    between atoms: C_21  and  C_37
   10  A    between atoms: C_24  and  C_35
   11  A    between atoms: C_32  and  C_37
   12  A    between atoms: C_32  and  C_44
                            x       y       z     vdW  Elec       q    Type
                         _______ _______ _______ _____ _____    ______ ____

>  <TORSDO>
F 12

$$$$
=
 OpenBabel11072408583D

 45 51  0  0  1  0  0  0  0  0999 V2000
  194.7230  172.6830  140.0420 O   0  0  0  0  0  0  0  0  0  0  0  0
  190.4980  174.7970  143.8490 C   0  0  1  0  0  0  0  0  0  0  0  0
  189.6900  174.0660  142.7730 C   0  0  1  0  0  0  0  0  0  0  0  0
  191.8260  173.0050  139.0240 C   0  0  0  0  0  0  0  0  0  0  0  0
  193.6950  173.3500  140.7430 C   0  0  1  0  0  3  0  0  0  0  0  0
  190.4990  173.4170  138.8200 C   0  0  0  0  0  3  0  0  0  0  0  0
  193.7120  174.8770  140.5610 C   0  0  0  0  0  2  0  0  0  0  0  0
  189.8370  173.4680  144.1650 C   0  0  0  0  0  2  0  0  0  0  0  0
  192.3460  172.7050  140.4160 C   0  0  1  0  0  3  0  0  0  0  0  0
  192.3450  175.9130  142.3950 C   0  0  0  0  0  2  0  0  0  0  0  0
  192.6450  172.7590  137.9020 C   0  0  0  0  0  0  0  0  0  0  0  0
  194.0010  172.4550  138.0450 O   0  0  0  0  0  0  0  0  0  0  0  0
  194.7940  173.2080  138.8280 O   0  0  0  0  0  0  0  0  0  0  0  0
  188.3780  174.6860  142.3240 C   0  0  0  0  0  1  0  0  0  0  0  0
  189.9840  173.5480  137.5280 C   0  0  0  0  0  3  0  0  0  0  0  0
  193.7470  175.5950  141.8990 C   0  0  0  0  0  2  0  0  0  0  0  0
  190.7870  173.2540  136.4250 C   0  0  0  0  0  3  0  0  0  0  0  0
  191.3460  172.7010  141.5900 C   0  0  1  0  0  3  0  0  0  0  0  0
  191.6640  174.6470  142.8840 C   0  0  2  0  0  3  0  0  0  0  0  0
  190.8290  174.0550  141.8380 N   0  0  2  0  0  0  0  0  0  0  0  0
  192.1130  172.8590  136.6120 C   0  0  0  0  0  3  0  0  0  0  0  0
  189.9910  176.1290  144.5510 C   0  0  1  0  0  0  0  0  0  0  0  0
  190.8210  176.3320  145.8640 C   0  0  2  0  0  3  0  0  0  0  0  0
  192.1220  175.5540  145.9580 C   0  0  2  0  0  3  0  0  0  0  0  0
  190.9010  175.1160  146.7730 C   0  0  1  0  0  3  0  0  0  0  0  0
  190.9710  175.5340  148.1050 O   0  0  0  0  0  1  0  0  0  0  0  0
  193.1410  176.3660  146.7480 C   0  0  0  0  0  2  0  0  0  0  0  0
  194.5390  176.1590  146.1780 C   0  0  1  0  0  3  0  0  0  0  0  0
  194.6480  174.7950  145.5210 C   0  0  0  0  0  1  0  0  0  0  0  0
  194.9070  177.2230  145.2430 N   0  0  0  0  0  2  0  0  0  0  0  0
  195.8050  176.7300  144.3510 O   0  0  0  0  0  1  0  0  0  0  0  0
  188.7730  177.7630  142.8950 C   0  0  0  0  0  1  0  0  0  0  0  0
  190.0880  177.2900  143.5010 C   0  0  0  0  0  3  0  0  0  0  0  0
  190.9440  178.4780  143.9210 C   0  0  0  0  0  1  0  0  0  0  0  0
  188.5340  176.0500  145.0700 C   0  0  0  0  0  2  0  0  0  0  0  0
  188.1140  177.0510  146.1410 C   0  0  0  0  0  2  0  0  0  0  0  0
  186.7850  176.6680  146.7790 C   0  0  0  0  0  2  0  0  0  0  0  0
  184.5670  177.7510  146.4130 C   0  0  0  0  0  1  0  0  0  0  0  0
  185.6290  176.8520  145.8080 C   0  0  0  0  0  2  0  0  0  0  0  0
  190.2350  171.6700  141.3440 C   0  0  0  0  0  2  0  0  0  0  0  0
  190.5460  170.3570  142.0430 C   0  0  0  0  0  3  0  0  0  0  0  0
  191.8960  168.3880  141.8080 C   0  0  0  0  0  2  0  0  0  0  0  0
  192.5200  169.2350  142.9020 C   0  0  0  0  0  2  0  0  0  0  0  0
  190.9630  169.3010  141.0460 C   0  0  0  0  0  2  0  0  0  0  0  0
  191.7300  170.5300  142.9680 C   0  0  0  0  0  2  0  0  0  0  0  0
  1  5  1  0  0  0  0
  2  8  1  0  0  0  0
  2 22  1  1  0  0  0
  3 14  1  6  0  0  0
  3  2  1  0  0  0  0
  3  8  1  0  0  0  0
  5  7  1  6  0  0  0
  6  4  1  0  0  0  0
  7 16  1  0  0  0  0
  9  4  1  6  0  0  0
  9  5  1  0  0  0  0
  9 18  1  0  0  0  0
 11 12  1  0  0  0  0
 11  4  2  0  0  0  0
 12 13  1  0  0  0  0
 13  1  1  0  0  0  0
 15  6  2  0  0  0  0
 16 10  1  0  0  0  0
 17 21  2  0  0  0  0
 17 15  1  0  0  0  0
 18 40  1  6  0  0  0
 18 20  1  0  0  0  0
 19 10  1  6  0  0  0
 19  2  1  0  0  0  0
 20  3  1  0  0  0  0
 20 19  1  0  0  0  0
 21 11  1  0  0  0  0
 22 35  1  0  0  0  0
 22 23  1  0  0  0  0
 23 24  1  0  0  0  0
 23 25  1  0  0  0  0
 24 27  1  0  0  0  0
 24 25  1  0  0  0  0
 25 26  1  0  0  0  0
 28 27  1  0  0  0  0
 29 28  1  0  0  0  0
 30 28  1  0  0  0  0
 31 30  1  0  0  0  0
 32 33  1  0  0  0  0
 33 34  1  0  0  0  0
 33 22  1  0  0  0  0
 35 36  1  0  0  0  0
 36 37  1  0  0  0  0
 39 38  1  0  0  0  0
 39 37  1  0  0  0  0
 40 41  1  0  0  0  0
 41 45  1  0  0  0  0
 42 43  1  0  0  0  0
 43 45  1  0  0  0  0
 44 42  1  0  0  0  0
 44 41  1  0  0  0  0
M  END
>  <MODEL>
2

>  <REMARK>
 VINA RESULT:      -6.7      2.980      6.475
  Name = 
  12 active torsions:
  status: ('A' for Active; 'I' for Inactive)
    1  A    between atoms: C_2  and  C_3
    2  A    between atoms: C_3  and  C_16
    3  A    between atoms: C_3  and  C_30
    4  A    between atoms: C_3  and  C_44
    5  A    between atoms: N_4  and  C_12
    6  A    between atoms: C_6  and  C_24
    7  A    between atoms: C_12  and  C_33
    8  A    between atoms: C_19  and  C_33
    9  A    between atoms: C_21  and  C_37
   10  A    between atoms: C_24  and  C_35
   11  A    between atoms: C_32  and  C_37
   12  A    between atoms: C_32  and  C_44
                            x       y       z     vdW  Elec       q    Type
                         _______ _______ _______ _____ _____    ______ ____

>  <TORSDO>
F 12

$$$$
=
 OpenBabel11072408583D

 45 51  0  0  1  0  0  0  0  0999 V2000
  189.3110  177.1500  142.2280 O   0  0  0  0  0  0  0  0  0  0  0  0
  193.8630  173.1650  142.7000 C   0  0  1  0  0  0  0  0  0  0  0  0
  192.7730  172.5880  143.6080 C   0  0  1  0  0  0  0  0  0  0  0  0
  189.4120  175.2850  144.6880 C   0  0  0  0  0  0  0  0  0  0  0  0
  190.4090  176.3290  142.5700 C   0  0  1  0  0  3  0  0  0  0  0  0
  189.8220  174.4480  145.7370 C   0  0  0  0  0  3  0  0  0  0  0  0
  191.5160  177.0690  143.3400 C   0  0  0  0  0  2  0  0  0  0  0  0
  193.0880  171.9330  142.2700 C   0  0  0  0  0  2  0  0  0  0  0  0
  189.9080  175.0660  143.2720 C   0  0  1  0  0  3  0  0  0  0  0  0
  193.6220  175.7060  143.2080 C   0  0  0  0  0  2  0  0  0  0  0  0
  188.4350  176.2710  144.9420 C   0  0  0  0  0  0  0  0  0  0  0  0
  188.0710  177.2020  143.9670 O   0  0  0  0  0  0  0  0  0  0  0  0
  189.0090  177.8860  143.2870 O   0  0  0  0  0  0  0  0  0  0  0  0
  193.2040  171.9430  144.9140 C   0  0  0  0  0  1  0  0  0  0  0  0
  189.2490  174.5620  147.0060 C   0  0  0  0  0  3  0  0  0  0  0  0
  192.8660  176.9070  142.6610 C   0  0  0  0  0  2  0  0  0  0  0  0
  188.2480  175.5080  147.2360 C   0  0  0  0  0  3  0  0  0  0  0  0
  190.7420  173.8040  142.9730 C   0  0  1  0  0  3  0  0  0  0  0  0
  193.0020  174.4200  142.6920 C   0  0  2  0  0  3  0  0  0  0  0  0
  192.0450  173.8680  143.6520 N   0  0  2  0  0  0  0  0  0  0  0  0
  187.8410  176.3580  146.2060 C   0  0  0  0  0  3  0  0  0  0  0  0
  195.4120  173.0600  143.0370 C   0  0  1  0  0  0  0  0  0  0  0  0
  195.5930  173.3210  144.5710 C   0  0  2  0  0  3  0  0  0  0  0  0
  195.8810  174.7560  144.9740 C   0  0  2  0  0  3  0  0  0  0  0  0
  197.0000  173.7090  144.9980 C   0  0  1  0  0  3  0  0  0  0  0  0
  197.2460  173.2220  146.2850 O   0  0  0  0  0  1  0  0  0  0  0  0
  195.2560  175.0330  146.3360 C   0  0  0  0  0  2  0  0  0  0  0  0
  194.1200  176.0400  146.2010 C   0  0  1  0  0  3  0  0  0  0  0  0
  192.8710  175.5270  146.8960 C   0  0  0  0  0  1  0  0  0  0  0  0
  194.4990  177.3590  146.7080 N   0  0  0  0  0  2  0  0  0  0  0  0
  194.9900  178.0980  145.6800 O   0  0  0  0  0  1  0  0  0  0  0  0
  197.1260  171.6940  141.5880 C   0  0  0  0  0  1  0  0  0  0  0  0
  195.9210  171.6690  142.5210 C   0  0  0  0  0  3  0  0  0  0  0  0
  196.0940  170.6000  143.5920 C   0  0  0  0  0  1  0  0  0  0  0  0
  196.2720  174.1740  142.3900 C   0  0  0  0  0  2  0  0  0  0  0  0
  196.2820  174.2590  140.8670 C   0  0  0  0  0  2  0  0  0  0  0  0
  195.6350  175.5450  140.3720 C   0  0  0  0  0  2  0  0  0  0  0  0
  194.3830  173.7690  139.1460 C   0  0  0  0  0  1  0  0  0  0  0  0
  194.5660  175.2640  139.3270 C   0  0  0  0  0  2  0  0  0  0  0  0
  189.9460  172.5390  143.3220 C   0  0  0  0  0  2  0  0  0  0  0  0
  189.2290  171.9910  142.0990 C   0  0  0  0  0  3  0  0  0  0  0  0
  187.9320  172.7120  140.2140 C   0  0  0  0  0  2  0  0  0  0  0  0
  189.3110  172.3420  139.6980 C   0  0  0  0  0  2  0  0  0  0  0  0
  188.0710  172.8800  141.7090 C   0  0  0  0  0  2  0  0  0  0  0  0
  190.1610  171.9970  140.9070 C   0  0  0  0  0  2  0  0  0  0  0  0
  1  5  1  0  0  0  0
  1 13  1  0  0  0  0
  2 22  1  1  0  0  0
  2  3  1  0  0  0  0
  3 20  1  0  0  0  0
  3 14  1  1  0  0  0
  4 11  2  0  0  0  0
  4  6  1  0  0  0  0
  5  9  1  0  0  0  0
  5  7  1  1  0  0  0
  6 15  2  0  0  0  0
  8  2  1  0  0  0  0
  8  3  1  0  0  0  0
  9  4  1  1  0  0  0
 11 21  1  0  0  0  0
 12 11  1  0  0  0  0
 13 12  1  0  0  0  0
 15 17  1  0  0  0  0
 16 10  1  0  0  0  0
 16  7  1  0  0  0  0
 18  9  1  0  0  0  0
 18 40  1  1  0  0  0
 18 20  1  0  0  0  0
 19  2  1  0  0  0  0
 19 10  1  1  0  0  0
 19 20  1  0  0  0  0
 21 17  2  0  0  0  0
 22 23  1  0  0  0  0
 23 24  1  0  0  0  0
 23 25  1  0  0  0  0
 24 25  1  0  0  0  0
 24 27  1  0  0  0  0
 25 26  1  0  0  0  0
 28 27  1  0  0  0  0
 28 30  1  0  0  0  0
 28 29  1  0  0  0  0
 31 30  1  0  0  0  0
 32 33  1  0  0  0  0
 33 22  1  0  0  0  0
 33 34  1  0  0  0  0
 35 22  1  0  0  0  0
 36 35  1  0  0  0  0
 37 36  1  0  0  0  0
 38 39  1  0  0  0  0
 39 37  1  0  0  0  0
 41 40  1  0  0  0  0
 42 44  1  0  0  0  0
 43 42  1  0  0  0  0
 43 45  1  0  0  0  0
 44 41  1  0  0  0  0
 45 41  1  0  0  0  0
M  END
>  <MODEL>
3

>  <REMARK>
 VINA RESULT:      -6.5      1.870      3.757
  Name = 
  12 active torsions:
  status: ('A' for Active; 'I' for Inactive)
    1  A    between atoms: C_2  and  C_3
    2  A    between atoms: C_3  and  C_16
    3  A    between atoms: C_3  and  C_30
    4  A    between atoms: C_3  and  C_44
    5  A    between atoms: N_4  and  C_12
    6  A    between atoms: C_6  and  C_24
    7  A    between atoms: C_12  and  C_33
    8  A    between atoms: C_19  and  C_33
    9  A    between atoms: C_21  and  C_37
   10  A    between atoms: C_24  and  C_35
   11  A    between atoms: C_32  and  C_37
   12  A    between atoms: C_32  and  C_44
                            x       y       z     vdW  Elec       q    Type
                         _______ _______ _______ _____ _____    ______ ____

>  <TORSDO>
F 12

$$$$
=
 OpenBabel11072408583D

 45 51  0  0  1  0  0  0  0  0999 V2000
  188.2890  177.3700  141.7550 O   0  0  0  0  0  0  0  0  0  0  0  0
  193.2710  174.7350  144.0020 C   0  0  1  0  0  0  0  0  0  0  0  0
  192.1360  174.1710  144.8640 C   0  0  1  0  0  0  0  0  0  0  0  0
  188.2100  176.2360  144.6260 C   0  0  0  0  0  0  0  0  0  0  0  0
  189.4190  176.9230  142.4740 C   0  0  1  0  0  3  0  0  0  0  0  0
  188.5370  175.7950  145.9180 C   0  0  0  0  0  3  0  0  0  0  0  0
  190.2010  178.0550  143.1600 C   0  0  0  0  0  2  0  0  0  0  0  0
  192.8250  173.2940  143.8270 C   0  0  0  0  0  2  0  0  0  0  0  0
  189.0130  175.7910  143.4200 C   0  0  1  0  0  3  0  0  0  0  0  0
  192.4940  177.2040  143.7330 C   0  0  0  0  0  2  0  0  0  0  0  0
  187.0460  177.0130  144.4440 C   0  0  0  0  0  0  0  0  0  0  0  0
  186.7310  177.5710  143.2030 O   0  0  0  0  0  0  0  0  0  0  0  0
  187.6550  178.2580  142.5060 O   0  0  0  0  0  0  0  0  0  0  0  0
  192.3980  173.9790  146.3480 C   0  0  0  0  0  1  0  0  0  0  0  0
  187.7070  176.0870  147.0030 C   0  0  0  0  0  3  0  0  0  0  0  0
  191.6680  178.0350  142.7630 C   0  0  0  0  0  2  0  0  0  0  0  0
  186.5320  176.8140  146.8050 C   0  0  0  0  0  3  0  0  0  0  0  0
  190.0970  174.7120  143.6170 C   0  0  1  0  0  3  0  0  0  0  0  0
  192.2250  175.7260  143.5130 C   0  0  2  0  0  3  0  0  0  0  0  0
  191.2030  175.2290  144.4360 N   0  0  2  0  0  0  0  0  0  0  0  0
  186.2020  177.2730  145.5290 C   0  0  0  0  0  3  0  0  0  0  0  0
  194.7130  175.0620  144.5830 C   0  0  1  0  0  0  0  0  0  0  0  0
  195.7660  174.7580  143.4640 C   0  0  2  0  0  3  0  0  0  0  0  0
  195.3520  175.1040  142.0450 C   0  0  2  0  0  3  0  0  0  0  0  0
  195.3850  173.6420  142.5040 C   0  0  1  0  0  3  0  0  0  0  0  0
  196.5410  172.9770  142.0820 O   0  0  0  0  0  1  0  0  0  0  0  0
  196.5780  175.5370  141.2510 C   0  0  0  0  0  2  0  0  0  0  0  0
  196.2260  175.6890  139.7770 C   0  0  1  0  0  3  0  0  0  0  0  0
  197.3780  175.2220  138.9040 C   0  0  0  0  0  1  0  0  0  0  0  0
  194.9900  174.9840  139.4370 N   0  0  0  0  0  2  0  0  0  0  0  0
  195.3050  173.8550  138.7510 O   0  0  0  0  0  1  0  0  0  0  0  0
  194.3960  176.7190  146.5960 C   0  0  0  0  0  1  0  0  0  0  0  0
  194.6930  176.5380  145.1120 C   0  0  0  0  0  3  0  0  0  0  0  0
  195.8790  177.3960  144.6940 C   0  0  0  0  0  1  0  0  0  0  0  0
  195.1520  174.1270  145.7370 C   0  0  0  0  0  2  0  0  0  0  0  0
  196.6420  173.8340  145.8770 C   0  0  0  0  0  2  0  0  0  0  0  0
  196.9360  172.3450  145.7570 C   0  0  0  0  0  2  0  0  0  0  0  0
  195.6660  170.5620  144.5590 C   0  0  0  0  0  1  0  0  0  0  0  0
  195.6550  171.5250  145.7310 C   0  0  0  0  0  2  0  0  0  0  0  0
  189.4780  173.4280  144.1850 C   0  0  0  0  0  2  0  0  0  0  0  0
  189.2480  172.4020  143.0880 C   0  0  0  0  0  3  0  0  0  0  0  0
  190.0330  171.7950  140.9030 C   0  0  0  0  0  2  0  0  0  0  0  0
  190.5860  170.7730  141.8810 C   0  0  0  0  0  2  0  0  0  0  0  0
  189.5880  172.9770  141.7320 C   0  0  0  0  0  2  0  0  0  0  0  0
  190.1820  171.2260  143.2730 C   0  0  0  0  0  2  0  0  0  0  0  0
  1  5  1  0  0  0  0
  1 13  1  0  0  0  0
  2 22  1  1  0  0  0
  2  3  1  0  0  0  0
  3 14  1  1  0  0  0
  4  6  1  0  0  0  0
  5  7  1  1  0  0  0
  5  9  1  0  0  0  0
  6 15  2  0  0  0  0
  8  2  1  0  0  0  0
  8  3  1  0  0  0  0
  9 18  1  0  0  0  0
  9  4  1  1  0  0  0
 11  4  2  0  0  0  0
 11 21  1  0  0  0  0
 12 11  1  0  0  0  0
 13 12  1  0  0  0  0
 16  7  1  0  0  0  0
 16 10  1  0  0  0  0
 17 15  1  0  0  0  0
 18 40  1  1  0  0  0
 18 20  1  0  0  0  0
 19 10  1  1  0  0  0
 19  2  1  0  0  0  0
 19 20  1  0  0  0  0
 20  3  1  0  0  0  0
 21 17  2  0  0  0  0
 22 33  1  0  0  0  0
 22 35  1  0  0  0  0
 23 22  1  0  0  0  0
 24 25  1  0  0  0  0
 24 23  1  0  0  0  0
 25 23  1  0  0  0  0
 26 25  1  0  0  0  0
 27 24  1  0  0  0  0
 28 27  1  0  0  0  0
 29 28  1  0  0  0  0
 30 28  1  0  0  0  0
 31 30  1  0  0  0  0
 33 32  1  0  0  0  0
 34 33  1  0  0  0  0
 35 36  1  0  0  0  0
 37 36  1  0  0  0  0
 38 39  1  0  0  0  0
 39 37  1  0  0  0  0
 41 45  1  0  0  0  0
 41 40  1  0  0  0  0
 42 44  1  0  0  0  0
 42 43  1  0  0  0  0
 43 45  1  0  0  0  0
 44 41  1  0  0  0  0
M  END
>  <MODEL>
4

>  <REMARK>
 VINA RESULT:      -6.4      1.776      3.503
  Name = 
  12 active torsions:
  status: ('A' for Active; 'I' for Inactive)
    1  A    between atoms: C_2  and  C_3
    2  A    between atoms: C_3  and  C_16
    3  A    between atoms: C_3  and  C_30
    4  A    between atoms: C_3  and  C_44
    5  A    between atoms: N_4  and  C_12
    6  A    between atoms: C_6  and  C_24
    7  A    between atoms: C_12  and  C_33
    8  A    between atoms: C_19  and  C_33
    9  A    between atoms: C_21  and  C_37
   10  A    between atoms: C_24  and  C_35
   11  A    between atoms: C_32  and  C_37
   12  A    between atoms: C_32  and  C_44
                            x       y       z     vdW  Elec       q    Type
                         _______ _______ _______ _____ _____    ______ ____

>  <TORSDO>
F 12

$$$$
=
 OpenBabel11072408583D

 45 51  0  0  1  0  0  0  0  0999 V2000
  190.1330  178.0160  142.9960 O   0  0  0  0  0  0  0  0  0  0  0  0
  192.7290  172.8700  141.0990 C   0  0  1  0  0  0  0  0  0  0  0  0
  191.5660  172.3940  141.9740 C   0  0  1  0  0  0  0  0  0  0  0  0
  189.6500  175.4220  144.6010 C   0  0  0  0  0  0  0  0  0  0  0  0
  190.8310  176.8040  142.7950 C   0  0  1  0  0  3  0  0  0  0  0  0
  189.7630  174.1530  145.1920 C   0  0  0  0  0  3  0  0  0  0  0  0
  192.1920  176.7510  143.5080 C   0  0  0  0  0  2  0  0  0  0  0  0
  191.4980  172.2540  140.4590 C   0  0  0  0  0  2  0  0  0  0  0  0
  189.9160  175.6220  143.1220 C   0  0  1  0  0  3  0  0  0  0  0  0
  193.5620  174.9190  142.4710 C   0  0  0  0  0  2  0  0  0  0  0  0
  189.1700  176.4970  145.3780 C   0  0  0  0  0  0  0  0  0  0  0  0
  189.1420  177.8010  144.8760 O   0  0  0  0  0  0  0  0  0  0  0  0
  190.2260  178.3290  144.2790 O   0  0  0  0  0  0  0  0  0  0  0  0
  191.7930  171.1810  142.8610 C   0  0  0  0  0  1  0  0  0  0  0  0
  189.3740  173.9480  146.5180 C   0  0  0  0  0  3  0  0  0  0  0  0
  193.3140  176.4180  142.5380 C   0  0  0  0  0  2  0  0  0  0  0  0
  188.8540  175.0060  147.2640 C   0  0  0  0  0  3  0  0  0  0  0  0
  190.1530  174.3780  142.2430 C   0  0  1  0  0  3  0  0  0  0  0  0
  192.4450  174.2380  141.7010 C   0  0  2  0  0  3  0  0  0  0  0  0
  191.4160  173.7180  142.6030 N   0  0  2  0  0  0  0  0  0  0  0  0
  188.7510  176.2770  146.6940 C   0  0  0  0  0  3  0  0  0  0  0  0
  194.1260  172.1150  141.0360 C   0  0  1  0  0  0  0  0  0  0  0  0
  194.5510  171.7590  142.5000 C   0  0  2  0  0  3  0  0  0  0  0  0
  195.6210  172.6420  143.1180 C   0  0  2  0  0  3  0  0  0  0  0  0
  195.9670  171.2240  142.6500 C   0  0  1  0  0  3  0  0  0  0  0  0
  196.0090  170.3090  143.7070 O   0  0  0  0  0  1  0  0  0  0  0  0
  195.3750  172.7610  144.6170 C   0  0  0  0  0  2  0  0  0  0  0  0
  196.1410  173.9490  145.1860 C   0  0  1  0  0  3  0  0  0  0  0  0
  195.1820  174.9570  145.7940 C   0  0  0  0  0  1  0  0  0  0  0  0
  197.1490  173.5300  146.1590 N   0  0  0  0  0  2  0  0  0  0  0  0
  196.9170  172.2350  146.5000 O   0  0  0  0  0  1  0  0  0  0  0  0
  194.9970  170.7930  138.9400 C   0  0  0  0  0  1  0  0  0  0  0  0
  193.9690  170.8980  140.0600 C   0  0  0  0  0  3  0  0  0  0  0  0
  193.7670  169.5460  140.7320 C   0  0  0  0  0  1  0  0  0  0  0  0
  195.2960  173.0010  140.5390 C   0  0  0  0  0  2  0  0  0  0  0  0
  195.0060  173.9750  139.4020 C   0  0  0  0  0  2  0  0  0  0  0  0
  195.7800  175.2760  139.5660 C   0  0  0  0  0  2  0  0  0  0  0  0
  196.8360  176.3500  141.5550 C   0  0  0  0  0  1  0  0  0  0  0  0
  196.8620  175.1500  140.6260 C   0  0  0  0  0  2  0  0  0  0  0  0
  188.9430  173.4350  142.3110 C   0  0  0  0  0  2  0  0  0  0  0  0
  188.0900  173.5520  141.0580 C   0  0  0  0  0  3  0  0  0  0  0  0
  188.2130  174.2780  138.7740 C   0  0  0  0  0  2  0  0  0  0  0  0
  188.1980  172.7600  138.7650 C   0  0  0  0  0  2  0  0  0  0  0  0
  188.5680  174.6890  140.1840 C   0  0  0  0  0  2  0  0  0  0  0  0
  188.2360  172.3060  140.2140 C   0  0  0  0  0  2  0  0  0  0  0  0
  1 13  1  0  0  0  0
  2 22  1  6  0  0  0
  2 19  1  0  0  0  0
  2  3  1  0  0  0  0
  3 20  1  0  0  0  0
  3 14  1  1  0  0  0
  4  6  2  0  0  0  0
  4 11  1  0  0  0  0
  5  1  1  0  0  0  0
  5  9  1  0  0  0  0
  5  7  1  1  0  0  0
  6 15  1  0  0  0  0
  8  2  1  0  0  0  0
  8  3  1  0  0  0  0
  9  4  1  1  0  0  0
 10 16  1  0  0  0  0
 11 21  2  0  0  0  0
 12 11  1  0  0  0  0
 13 12  1  0  0  0  0
 15 17  2  0  0  0  0
 16  7  1  0  0  0  0
 18 40  1  1  0  0  0
 18 20  1  0  0  0  0
 18  9  1  0  0  0  0
 19 10  1  1  0  0  0
 19 20  1  0  0  0  0
 21 17  1  0  0  0  0
 22 23  1  0  0  0  0
 23 25  1  0  0  0  0
 23 24  1  0  0  0  0
 24 27  1  0  0  0  0
 25 24  1  0  0  0  0
 25 26  1  0  0  0  0
 27 28  1  0  0  0  0
 28 29  1  0  0  0  0
 28 30  1  0  0  0  0
 30 31  1  0  0  0  0
 32 33  1  0  0  0  0
 33 34  1  0  0  0  0
 33 22  1  0  0  0  0
 35 22  1  0  0  0  0
 36 37  1  0  0  0  0
 36 35  1  0  0  0  0
 37 39  1  0  0  0  0
 39 38  1  0  0  0  0
 41 40  1  0  0  0  0
 42 44  1  0  0  0  0
 43 42  1  0  0  0  0
 43 45  1  0  0  0  0
 44 41  1  0  0  0  0
 45 41  1  0  0  0  0
M  END
>  <MODEL>
5

>  <REMARK>
 VINA RESULT:      -5.9      2.207      3.895
  Name = 
  12 active torsions:
  status: ('A' for Active; 'I' for Inactive)
    1  A    between atoms: C_2  and  C_3
    2  A    between atoms: C_3  and  C_16
    3  A    between atoms: C_3  and  C_30
    4  A    between atoms: C_3  and  C_44
    5  A    between atoms: N_4  and  C_12
    6  A    between atoms: C_6  and  C_24
    7  A    between atoms: C_12  and  C_33
    8  A    between atoms: C_19  and  C_33
    9  A    between atoms: C_21  and  C_37
   10  A    between atoms: C_24  and  C_35
   11  A    between atoms: C_32  and  C_37
   12  A    between atoms: C_32  and  C_44
                            x       y       z     vdW  Elec       q    Type
                         _______ _______ _______ _____ _____    ______ ____

>  <TORSDO>
F 12

$$$$
=
 OpenBabel11072408583D

 45 51  0  0  1  0  0  0  0  0999 V2000
  189.5070  173.7480  137.3030 O   0  0  0  0  0  0  0  0  0  0  0  0
  191.7630  174.9010  142.8160 C   0  0  1  0  0  0  0  0  0  0  0  0
  192.6930  173.8200  142.2570 C   0  0  1  0  0  0  0  0  0  0  0  0
  191.2950  171.6250  138.6560 C   0  0  0  0  0  0  0  0  0  0  0  0
  189.9240  173.7900  138.6510 C   0  0  1  0  0  3  0  0  0  0  0  0
  191.9750  170.8160  139.5810 C   0  0  0  0  0  3  0  0  0  0  0  0
  188.8790  173.2450  139.6390 C   0  0  0  0  0  2  0  0  0  0  0  0
  193.1720  175.2600  142.3790 C   0  0  0  0  0  2  0  0  0  0  0  0
  191.3010  173.1360  138.7850 C   0  0  1  0  0  3  0  0  0  0  0  0
  189.4610  174.0580  141.9420 C   0  0  0  0  0  2  0  0  0  0  0  0
  190.6960  171.0210  137.5300 C   0  0  0  0  0  0  0  0  0  0  0  0
  189.9150  171.7590  136.6390 O   0  0  0  0  0  0  0  0  0  0  0  0
  188.9400  172.5700  137.0900 O   0  0  0  0  0  0  0  0  0  0  0  0
  193.1920  172.7470  143.2110 C   0  0  0  0  0  1  0  0  0  0  0  0
  192.0910  169.4390  139.3730 C   0  0  0  0  0  3  0  0  0  0  0  0
  188.5660  174.2560  140.7290 C   0  0  0  0  0  2  0  0  0  0  0  0
  191.5380  168.8580  138.2320 C   0  0  0  0  0  3  0  0  0  0  0  0
  192.2050  173.7780  139.8560 C   0  0  1  0  0  3  0  0  0  0  0  0
  190.8660  174.5470  141.6390 C   0  0  2  0  0  3  0  0  0  0  0  0
  191.7290  173.4460  141.2070 N   0  0  2  0  0  0  0  0  0  0  0  0
  190.8450  169.6470  137.3120 C   0  0  0  0  0  3  0  0  0  0  0  0
  191.3560  174.9790  144.3500 C   0  0  1  0  0  0  0  0  0  0  0  0
  190.9410  176.4550  144.6670 C   0  0  2  0  0  3  0  0  0  0  0  0
  189.6130  176.9130  144.0930 C   0  0  2  0  0  3  0  0  0  0  0  0
  190.9290  177.3940  143.4710 C   0  0  1  0  0  3  0  0  0  0  0  0
  191.2750  178.6830  143.8880 O   0  0  0  0  0  1  0  0  0  0  0  0
  188.9690  177.9150  145.0430 C   0  0  0  0  0  2  0  0  0  0  0  0
  187.4630  177.6930  145.1040 C   0  0  1  0  0  3  0  0  0  0  0  0
  187.0330  176.6710  144.0660 C   0  0  0  0  0  1  0  0  0  0  0  0
  187.0260  177.2950  146.4430 N   0  0  0  0  0  2  0  0  0  0  0  0
  186.4230  178.3560  147.0390 O   0  0  0  0  0  1  0  0  0  0  0  0
  190.7260  172.4450  144.6380 C   0  0  0  0  0  1  0  0  0  0  0  0
  190.2540  173.8940  144.6090 C   0  0  0  0  0  3  0  0  0  0  0  0
  189.3220  174.1780  145.7790 C   0  0  0  0  0  1  0  0  0  0  0  0
  192.5350  174.7310  145.3250 C   0  0  0  0  0  2  0  0  0  0  0  0
  192.9970  175.9060  146.1810 C   0  0  0  0  0  2  0  0  0  0  0  0
  194.4810  176.1910  145.9900 C   0  0  0  0  0  2  0  0  0  0  0  0
  196.1710  175.0490  144.5530 C   0  0  0  0  0  1  0  0  0  0  0  0
  195.2680  174.9090  145.7640 C   0  0  0  0  0  2  0  0  0  0  0  0
  193.6720  173.3870  139.6240 C   0  0  0  0  0  2  0  0  0  0  0  0
  194.4670  174.5600  139.0740 C   0  0  0  0  0  3  0  0  0  0  0  0
  196.7280  175.2910  138.7370 C   0  0  0  0  0  2  0  0  0  0  0  0
  196.1730  174.9000  137.3790 C   0  0  0  0  0  2  0  0  0  0  0  0
  195.8070  174.6740  139.7640 C   0  0  0  0  0  2  0  0  0  0  0  0
  194.7850  174.3310  137.6120 C   0  0  0  0  0  2  0  0  0  0  0  0
  1  5  1  0  0  0  0
  2 22  1  1  0  0  0
  3  8  1  0  0  0  0
  3  2  1  0  0  0  0
  3 14  1  1  0  0  0
  4  6  1  0  0  0  0
  5  9  1  0  0  0  0
  5  7  1  1  0  0  0
  7 16  1  0  0  0  0
  8  2  1  0  0  0  0
  9  4  1  1  0  0  0
  9 18  1  0  0  0  0
 11  4  2  0  0  0  0
 12 13  1  0  0  0  0
 12 11  1  0  0  0  0
 13  1  1  0  0  0  0
 15  6  2  0  0  0  0
 16 10  1  0  0  0  0
 17 15  1  0  0  0  0
 18 40  1  1  0  0  0
 18 20  1  0  0  0  0
 19 10  1  1  0  0  0
 19  2  1  0  0  0  0
 20 19  1  0  0  0  0
 20  3  1  0  0  0  0
 21 11  1  0  0  0  0
 21 17  2  0  0  0  0
 22 33  1  0  0  0  0
 22 23  1  0  0  0  0
 22 35  1  0  0  0  0
 24 23  1  0  0  0  0
 24 27  1  0  0  0  0
 25 26  1  0  0  0  0
 25 24  1  0  0  0  0
 25 23  1  0  0  0  0
 27 28  1  0  0  0  0
 28 30  1  0  0  0  0
 29 28  1  0  0  0  0
 30 31  1  0  0  0  0
 33 32  1  0  0  0  0
 33 34  1  0  0  0  0
 35 36  1  0  0  0  0
 37 36  1  0  0  0  0
 38 39  1  0  0  0  0
 39 37  1  0  0  0  0
 41 40  1  0  0  0  0
 41 44  1  0  0  0  0
 42 44  1  0  0  0  0
 43 45  1  0  0  0  0
 43 42  1  0  0  0  0
 45 41  1  0  0  0  0
M  END
>  <MODEL>
6

>  <REMARK>
 VINA RESULT:      -5.8      3.096      7.215
  Name = 
  12 active torsions:
  status: ('A' for Active; 'I' for Inactive)
    1  A    between atoms: C_2  and  C_3
    2  A    between atoms: C_3  and  C_16
    3  A    between atoms: C_3  and  C_30
    4  A    between atoms: C_3  and  C_44
    5  A    between atoms: N_4  and  C_12
    6  A    between atoms: C_6  and  C_24
    7  A    between atoms: C_12  and  C_33
    8  A    between atoms: C_19  and  C_33
    9  A    between atoms: C_21  and  C_37
   10  A    between atoms: C_24  and  C_35
   11  A    between atoms: C_32  and  C_37
   12  A    between atoms: C_32  and  C_44
                            x       y       z     vdW  Elec       q    Type
                         _______ _______ _______ _____ _____    ______ ____

>  <TORSDO>
F 12

$$$$
=
 OpenBabel11072408583D

 45 51  0  0  1  0  0  0  0  0999 V2000
  194.9950  170.2420  142.9060 O   0  0  0  0  0  0  0  0  0  0  0  0
  190.6180  174.4200  142.4610 C   0  0  1  0  0  0  0  0  0  0  0  0
  191.8600  175.2290  142.8450 C   0  0  1  0  0  0  0  0  0  0  0  0
  195.3650  172.9480  144.3470 C   0  0  0  0  0  0  0  0  0  0  0  0
  193.9830  171.2150  143.0610 C   0  0  1  0  0  3  0  0  0  0  0  0
  195.1620  174.1700  145.0090 C   0  0  0  0  0  3  0  0  0  0  0  0
  193.0420  170.9430  144.2470 C   0  0  0  0  0  2  0  0  0  0  0  0
  191.2970  175.3060  141.4330 C   0  0  0  0  0  2  0  0  0  0  0  0
  194.6090  172.6110  143.0770 C   0  0  1  0  0  3  0  0  0  0  0  0
  190.9500  172.2960  143.9280 C   0  0  0  0  0  2  0  0  0  0  0  0
  196.3710  172.0770  144.8150 C   0  0  0  0  0  0  0  0  0  0  0  0
  196.5430  170.8040  144.2670 O   0  0  0  0  0  0  0  0  0  0  0  0
  195.4930  169.9790  144.1050 O   0  0  0  0  0  0  0  0  0  0  0  0
  191.6860  176.3820  143.8190 C   0  0  0  0  0  1  0  0  0  0  0  0
  195.9660  174.5370  146.0900 C   0  0  0  0  0  3  0  0  0  0  0  0
  191.5880  170.9210  143.8070 C   0  0  0  0  0  2  0  0  0  0  0  0
  196.9910  173.6910  146.5150 C   0  0  0  0  0  3  0  0  0  0  0  0
  193.7330  173.7030  142.4310 C   0  0  1  0  0  3  0  0  0  0  0  0
  191.4610  173.2070  142.8260 C   0  0  2  0  0  3  0  0  0  0  0  0
  192.5830  174.0240  143.2900 N   0  0  2  0  0  0  0  0  0  0  0  0
  197.1950  172.4660  145.8770 C   0  0  0  0  0  3  0  0  0  0  0  0
  189.1610  174.7760  142.9870 C   0  0  1  0  0  0  0  0  0  0  0  0
  189.0530  176.3350  143.0990 C   0  0  2  0  0  3  0  0  0  0  0  0
  187.6530  176.8960  143.2720 C   0  0  2  0  0  3  0  0  0  0  0  0
  188.3730  177.0210  141.9250 C   0  0  1  0  0  3  0  0  0  0  0  0
  188.9360  178.2870  141.7370 O   0  0  0  0  0  1  0  0  0  0  0  0
  187.7150  178.1530  144.1310 C   0  0  0  0  0  2  0  0  0  0  0  0
  186.4620  178.2670  144.9910 C   0  0  1  0  0  3  0  0  0  0  0  0
  185.4040  179.0940  144.2820 C   0  0  0  0  0  1  0  0  0  0  0  0
  185.9380  176.9530  145.3650 N   0  0  0  0  0  2  0  0  0  0  0  0
  186.0450  176.8060  146.7110 O   0  0  0  0  0  1  0  0  0  0  0  0
  188.4390  174.1600  140.5380 C   0  0  0  0  0  1  0  0  0  0  0  0
  188.1260  174.0920  142.0280 C   0  0  0  0  0  3  0  0  0  0  0  0
  187.7040  172.6830  142.4240 C   0  0  0  0  0  1  0  0  0  0  0  0
  188.8840  174.3030  144.4350 C   0  0  0  0  0  2  0  0  0  0  0  0
  189.1740  175.2880  145.5640 C   0  0  0  0  0  2  0  0  0  0  0  0
  189.7510  174.5870  146.7860 C   0  0  0  0  0  2  0  0  0  0  0  0
  190.7240  176.7690  147.5060 C   0  0  0  0  0  1  0  0  0  0  0  0
  190.9990  175.2920  147.2950 C   0  0  0  0  0  2  0  0  0  0  0  0
  194.5820  174.9330  142.0810 C   0  0  0  0  0  2  0  0  0  0  0  0
  195.6960  174.5690  141.1130 C   0  0  0  0  0  3  0  0  0  0  0  0
  196.6850  175.2840  139.0470 C   0  0  0  0  0  2  0  0  0  0  0  0
  197.6420  175.6660  140.1620 C   0  0  0  0  0  2  0  0  0  0  0  0
  195.3540  175.0080  139.7080 C   0  0  0  0  0  2  0  0  0  0  0  0
  196.9610  175.3160  141.4730 C   0  0  0  0  0  2  0  0  0  0  0  0
  1  5  1  0  0  0  0
  1 13  1  0  0  0  0
  2 19  1  0  0  0  0
  2  3  1  0  0  0  0
  2 22  1  1  0  0  0
  3 20  1  0  0  0  0
  3 14  1  1  0  0  0
  4 11  2  0  0  0  0
  4  6  1  0  0  0  0
  5  9  1  0  0  0  0
  5  7  1  1  0  0  0
  6 15  2  0  0  0  0
  8  2  1  0  0  0  0
  8  3  1  0  0  0  0
  9  4  1  1  0  0  0
 11 21  1  0  0  0  0
 12 11  1  0  0  0  0
 13 12  1  0  0  0  0
 15 17  1  0  0  0  0
 16 10  1  0  0  0  0
 16  7  1  0  0  0  0
 18 40  1  1  0  0  0
 18  9  1  0  0  0  0
 18 20  1  0  0  0  0
 19 20  1  0  0  0  0
 19 10  1  1  0  0  0
 21 17  2  0  0  0  0
 22 23  1  0  0  0  0
 22 35  1  0  0  0  0
 23 24  1  0  0  0  0
 24 27  1  0  0  0  0
 25 23  1  0  0  0  0
 25 24  1  0  0  0  0
 26 25  1  0  0  0  0
 27 28  1  0  0  0  0
 28 30  1  0  0  0  0
 29 28  1  0  0  0  0
 30 31  1  0  0  0  0
 32 33  1  0  0  0  0
 33 34  1  0  0  0  0
 33 22  1  0  0  0  0
 35 36  1  0  0  0  0
 36 37  1  0  0  0  0
 37 39  1  0  0  0  0
 39 38  1  0  0  0  0
 41 45  1  0  0  0  0
 41 40  1  0  0  0  0
 42 44  1  0  0  0  0
 42 43  1  0  0  0  0
 43 45  1  0  0  0  0
 44 41  1  0  0  0  0
M  END
>  <MODEL>
7

>  <REMARK>
 VINA RESULT:      -5.7      2.064      7.958
  Name = 
  12 active torsions:
  status: ('A' for Active; 'I' for Inactive)
    1  A    between atoms: C_2  and  C_3
    2  A    between atoms: C_3  and  C_16
    3  A    between atoms: C_3  and  C_30
    4  A    between atoms: C_3  and  C_44
    5  A    between atoms: N_4  and  C_12
    6  A    between atoms: C_6  and  C_24
    7  A    between atoms: C_12  and  C_33
    8  A    between atoms: C_19  and  C_33
    9  A    between atoms: C_21  and  C_37
   10  A    between atoms: C_24  and  C_35
   11  A    between atoms: C_32  and  C_37
   12  A    between atoms: C_32  and  C_44
                            x       y       z     vdW  Elec       q    Type
                         _______ _______ _______ _____ _____    ______ ____

>  <TORSDO>
F 12

$$$$
=
 OpenBabel11072408583D

 45 51  0  0  1  0  0  0  0  0999 V2000
  190.7860  178.2500  143.1590 O   0  0  0  0  0  0  0  0  0  0  0  0
  191.5360  172.8420  140.5120 C   0  0  1  0  0  0  0  0  0  0  0  0
  190.4310  172.5960  141.5430 C   0  0  1  0  0  0  0  0  0  0  0  0
  189.8470  175.7160  144.6530 C   0  0  0  0  0  0  0  0  0  0  0  0
  191.0820  176.9280  142.7620 C   0  0  1  0  0  3  0  0  0  0  0  0
  189.6900  174.4050  145.1330 C   0  0  0  0  0  3  0  0  0  0  0  0
  192.4650  176.4390  143.2230 C   0  0  0  0  0  2  0  0  0  0  0  0
  190.1010  172.6460  140.0580 C   0  0  0  0  0  2  0  0  0  0  0  0
  189.9340  176.0000  143.1660 C   0  0  1  0  0  3  0  0  0  0  0  0
  193.1000  174.4360  141.8490 C   0  0  0  0  0  2  0  0  0  0  0  0
  189.8070  176.7880  145.5690 C   0  0  0  0  0  0  0  0  0  0  0  0
  190.0670  178.1000  145.1650 O   0  0  0  0  0  0  0  0  0  0  0  0
  191.1530  178.3860  144.4240 O   0  0  0  0  0  0  0  0  0  0  0  0
  190.4420  171.2770  142.2970 C   0  0  0  0  0  1  0  0  0  0  0  0
  189.4610  174.1660  146.4890 C   0  0  0  0  0  3  0  0  0  0  0  0
  193.2920  175.9310  142.0540 C   0  0  0  0  0  2  0  0  0  0  0  0
  189.3740  175.2360  147.3810 C   0  0  0  0  0  3  0  0  0  0  0  0
  189.6810  174.8410  142.1810 C   0  0  1  0  0  3  0  0  0  0  0  0
  191.7360  174.1620  141.2410 C   0  0  2  0  0  3  0  0  0  0  0  0
  190.7510  173.8360  142.2740 N   0  0  2  0  0  0  0  0  0  0  0  0
  189.5440  176.5430  146.9210 C   0  0  0  0  0  3  0  0  0  0  0  0
  192.6430  171.7570  140.1590 C   0  0  1  0  0  0  0  0  0  0  0  0
  193.0860  171.0650  141.4920 C   0  0  2  0  0  3  0  0  0  0  0  0
  194.3330  171.6250  142.1530 C   0  0  2  0  0  3  0  0  0  0  0  0
  194.3880  170.2840  141.4130 C   0  0  1  0  0  3  0  0  0  0  0  0
  194.3290  169.1920  142.2840 O   0  0  0  0  0  1  0  0  0  0  0  0
  194.2050  171.4980  143.6650 C   0  0  0  0  0  2  0  0  0  0  0  0
  195.1560  172.4650  144.3590 C   0  0  1  0  0  3  0  0  0  0  0  0
  196.1440  173.0460  143.3630 C   0  0  0  0  0  1  0  0  0  0  0  0
  194.4350  173.5260  145.0620 N   0  0  0  0  0  2  0  0  0  0  0  0
  193.1220  173.1830  145.1430 O   0  0  0  0  0  1  0  0  0  0  0  0
  192.8990  170.5900  137.8200 C   0  0  0  0  0  1  0  0  0  0  0  0
  192.0470  170.8050  139.0650 C   0  0  0  0  0  3  0  0  0  0  0  0
  191.5070  169.4780  139.5810 C   0  0  0  0  0  1  0  0  0  0  0  0
  193.9650  172.3620  139.6240 C   0  0  0  0  0  2  0  0  0  0  0  0
  193.8600  173.4470  138.5580 C   0  0  0  0  0  2  0  0  0  0  0  0
  194.9860  174.4660  138.6810 C   0  0  0  0  0  2  0  0  0  0  0  0
  196.6960  175.2240  140.3330 C   0  0  0  0  0  1  0  0  0  0  0  0
  196.0320  174.0200  139.6910 C   0  0  0  0  0  2  0  0  0  0  0  0
  188.2810  174.2490  142.3970 C   0  0  0  0  0  2  0  0  0  0  0  0
  187.2080  175.1790  141.8570 C   0  0  0  0  0  3  0  0  0  0  0  0
  186.1810  177.3030  142.2970 C   0  0  0  0  0  2  0  0  0  0  0  0
  187.0830  177.4790  141.0880 C   0  0  0  0  0  2  0  0  0  0  0  0
  186.6150  176.0190  142.9650 C   0  0  0  0  0  2  0  0  0  0  0  0
  187.8160  176.1650  140.8850 C   0  0  0  0  0  2  0  0  0  0  0  0
  1 13  1  0  0  0  0
  2 22  1  6  0  0  0
  2 19  1  0  0  0  0
  2  3  1  0  0  0  0
  3 20  1  0  0  0  0
  3 14  1  1  0  0  0
  4  6  2  0  0  0  0
  4 11  1  0  0  0  0
  5  1  1  0  0  0  0
  5  9  1  0  0  0  0
  5  7  1  1  0  0  0
  6 15  1  0  0  0  0
  8  2  1  0  0  0  0
  8  3  1  0  0  0  0
  9  4  1  1  0  0  0
 10 16  1  0  0  0  0
 11 21  2  0  0  0  0
 12 11  1  0  0  0  0
 13 12  1  0  0  0  0
 15 17  2  0  0  0  0
 16  7  1  0  0  0  0
 18 20  1  0  0  0  0
 18 40  1  1  0  0  0
 18  9  1  0  0  0  0
 19 10  1  1  0  0  0
 19 20  1  0  0  0  0
 21 17  1  0  0  0  0
 22 23  1  0  0  0  0
 23 24  1  0  0  0  0
 24 27  1  0  0  0  0
 25 23  1  0  0  0  0
 25 24  1  0  0  0  0
 25 26  1  0  0  0  0
 27 28  1  0  0  0  0
 28 30  1  0  0  0  0
 29 28  1  0  0  0  0
 30 31  1  0  0  0  0
 32 33  1  0  0  0  0
 33 34  1  0  0  0  0
 33 22  1  0  0  0  0
 35 22  1  0  0  0  0
 36 37  1  0  0  0  0
 36 35  1  0  0  0  0
 37 39  1  0  0  0  0
 39 38  1  0  0  0  0
 41 40  1  0  0  0  0
 41 44  1  0  0  0  0
 42 44  1  0  0  0  0
 43 42  1  0  0  0  0
 45 43  1  0  0  0  0
 45 41  1  0  0  0  0
M  END
>  <MODEL>
8

>  <REMARK>
 VINA RESULT:      -5.7      2.500      4.856
  Name = 
  12 active torsions:
  status: ('A' for Active; 'I' for Inactive)
    1  A    between atoms: C_2  and  C_3
    2  A    between atoms: C_3  and  C_16
    3  A    between atoms: C_3  and  C_30
    4  A    between atoms: C_3  and  C_44
    5  A    between atoms: N_4  and  C_12
    6  A    between atoms: C_6  and  C_24
    7  A    between atoms: C_12  and  C_33
    8  A    between atoms: C_19  and  C_33
    9  A    between atoms: C_21  and  C_37
   10  A    between atoms: C_24  and  C_35
   11  A    between atoms: C_32  and  C_37
   12  A    between atoms: C_32  and  C_44
                            x       y       z     vdW  Elec       q    Type
                         _______ _______ _______ _____ _____    ______ ____

>  <TORSDO>
F 12

$$$$
=
 OpenBabel11072408583D

 45 51  0  0  1  0  0  0  0  0999 V2000
  190.7870  178.1920  143.3970 O   0  0  0  0  0  0  0  0  0  0  0  0
  191.2730  172.9780  140.3310 C   0  0  1  0  0  0  0  0  0  0  0  0
  190.1730  172.6980  141.3600 C   0  0  1  0  0  0  0  0  0  0  0  0
  189.7650  175.5900  144.7090 C   0  0  0  0  0  0  0  0  0  0  0  0
  191.0220  176.8930  142.8950 C   0  0  1  0  0  3  0  0  0  0  0  0
  189.5600  174.2530  145.0890 C   0  0  0  0  0  3  0  0  0  0  0  0
  192.3900  176.3150  143.2930 C   0  0  0  0  0  2  0  0  0  0  0  0
  189.8250  172.8760  139.8890 C   0  0  0  0  0  2  0  0  0  0  0  0
  189.8420  175.9840  143.2470 C   0  0  1  0  0  3  0  0  0  0  0  0
  192.9220  174.3990  141.7580 C   0  0  0  0  0  2  0  0  0  0  0  0
  189.7830  176.5890  145.7050 C   0  0  0  0  0  0  0  0  0  0  0  0
  190.0910  177.9160  145.3980 O   0  0  0  0  0  0  0  0  0  0  0  0
  191.1780  178.2150  144.6620 O   0  0  0  0  0  0  0  0  0  0  0  0
  190.1400  171.3260  142.0100 C   0  0  0  0  0  1  0  0  0  0  0  0
  189.3410  173.9200  146.4280 C   0  0  0  0  0  3  0  0  0  0  0  0
  193.1780  175.8650  142.0740 C   0  0  0  0  0  2  0  0  0  0  0  0
  189.3120  174.9200  147.4000 C   0  0  0  0  0  3  0  0  0  0  0  0
  189.5270  174.9150  142.1800 C   0  0  1  0  0  3  0  0  0  0  0  0
  191.5390  174.2290  141.1560 C   0  0  2  0  0  3  0  0  0  0  0  0
  190.5550  173.8640  142.1770 N   0  0  2  0  0  0  0  0  0  0  0  0
  189.5290  176.2510  147.0380 C   0  0  0  0  0  3  0  0  0  0  0  0
  192.3280  171.8800  139.8770 C   0  0  1  0  0  0  0  0  0  0  0  0
  192.9220  172.3200  138.4960 C   0  0  2  0  0  3  0  0  0  0  0  0
  193.3050  173.7840  138.3700 C   0  0  2  0  0  3  0  0  0  0  0  0
  192.0420  173.2550  137.6830 C   0  0  1  0  0  3  0  0  0  0  0  0
  192.2390  173.0120  136.3200 O   0  0  0  0  0  1  0  0  0  0  0  0
  194.5100  173.9140  137.4470 C   0  0  0  0  0  2  0  0  0  0  0  0
  195.3580  175.1140  137.8510 C   0  0  1  0  0  3  0  0  0  0  0  0
  195.6550  175.0790  139.3390 C   0  0  0  0  0  1  0  0  0  0  0  0
  196.5920  175.1940  137.0700 N   0  0  0  0  0  2  0  0  0  0  0  0
  196.3860  176.0160  136.0080 O   0  0  0  0  0  1  0  0  0  0  0  0
  193.0920  170.5810  142.0280 C   0  0  0  0  0  1  0  0  0  0  0  0
  193.3680  171.7060  141.0380 C   0  0  0  0  0  3  0  0  0  0  0  0
  194.8290  171.6960  140.6080 C   0  0  0  0  0  1  0  0  0  0  0  0
  191.7000  170.4990  139.5620 C   0  0  0  0  0  2  0  0  0  0  0  0
  192.2260  169.7510  138.3410 C   0  0  0  0  0  2  0  0  0  0  0  0
  191.0990  169.0930  137.5560 C   0  0  0  0  0  2  0  0  0  0  0  0
  189.6910  170.7920  136.3900 C   0  0  0  0  0  1  0  0  0  0  0  0
  189.8220  169.9170  137.6220 C   0  0  0  0  0  2  0  0  0  0  0  0
  188.1070  174.3660  142.3750 C   0  0  0  0  0  2  0  0  0  0  0  0
  187.0670  175.3580  141.8830 C   0  0  0  0  0  3  0  0  0  0  0  0
  186.0530  177.4500  142.4750 C   0  0  0  0  0  2  0  0  0  0  0  0
  187.0020  177.7190  141.3210 C   0  0  0  0  0  2  0  0  0  0  0  0
  186.4440  176.1050  143.0400 C   0  0  0  0  0  2  0  0  0  0  0  0
  187.7250  176.4170  141.0260 C   0  0  0  0  0  2  0  0  0  0  0  0
  1 13  1  0  0  0  0
  2 22  1  6  0  0  0
  2 19  1  0  0  0  0
  2  3  1  0  0  0  0
  3 14  1  1  0  0  0
  3 20  1  0  0  0  0
  4  6  2  0  0  0  0
  4 11  1  0  0  0  0
  5  9  1  0  0  0  0
  5  7  1  1  0  0  0
  5  1  1  0  0  0  0
  6 15  1  0  0  0  0
  8  2  1  0  0  0  0
  8  3  1  0  0  0  0
  9  4  1  1  0  0  0
 10 16  1  0  0  0  0
 11 21  2  0  0  0  0
 12 11  1  0  0  0  0
 13 12  1  0  0  0  0
 15 17  2  0  0  0  0
 16  7  1  0  0  0  0
 18 40  1  1  0  0  0
 18  9  1  0  0  0  0
 19 10  1  1  0  0  0
 19 20  1  0  0  0  0
 20 18  1  0  0  0  0
 21 17  1  0  0  0  0
 22 33  1  0  0  0  0
 23 22  1  0  0  0  0
 24 23  1  0  0  0  0
 25 24  1  0  0  0  0
 25 23  1  0  0  0  0
 26 25  1  0  0  0  0
 27 28  1  0  0  0  0
 27 24  1  0  0  0  0
 28 29  1  0  0  0  0
 30 28  1  0  0  0  0
 31 30  1  0  0  0  0
 33 32  1  0  0  0  0
 34 33  1  0  0  0  0
 35 22  1  0  0  0  0
 36 35  1  0  0  0  0
 37 39  1  0  0  0  0
 37 36  1  0  0  0  0
 38 39  1  0  0  0  0
 41 40  1  0  0  0  0
 41 44  1  0  0  0  0
 42 44  1  0  0  0  0
 43 42  1  0  0  0  0
 45 43  1  0  0  0  0
 45 41  1  0  0  0  0
M  END
>  <MODEL>
9

>  <REMARK>
 VINA RESULT:      -5.7      3.398      6.488
  Name = 
  12 active torsions:
  status: ('A' for Active; 'I' for Inactive)
    1  A    between atoms: C_2  and  C_3
    2  A    between atoms: C_3  and  C_16
    3  A    between atoms: C_3  and  C_30
    4  A    between atoms: C_3  and  C_44
    5  A    between atoms: N_4  and  C_12
    6  A    between atoms: C_6  and  C_24
    7  A    between atoms: C_12  and  C_33
    8  A    between atoms: C_19  and  C_33
    9  A    between atoms: C_21  and  C_37
   10  A    between atoms: C_24  and  C_35
   11  A    between atoms: C_32  and  C_37
   12  A    between atoms: C_32  and  C_44
                            x       y       z     vdW  Elec       q    Type
                         _______ _______ _______ _____ _____    ______ ____

>  <TORSDO>
F 12

$$$$
