=
 OpenBabel11062418413D

 69 75  0  0  1  0  0  0  0  0999 V2000
  187.0790  177.2560  144.0020 C   0  0  1  0  0  3  0  0  0  0  0  0
  189.2840  177.3800  145.2820 C   0  0  0  0  0  0  0  0  0  0  0  0
  188.2500  176.4880  144.6400 C   0  0  2  0  0  3  0  0  0  0  0  0
  188.9870  178.0430  146.3090 O   0  0  0  0  0  0  0  0  0  0  0  0
  191.0920  176.5730  143.7910 C   0  0  1  0  0  3  0  0  0  0  0  0
  188.8700  175.4660  143.6820 C   0  0  0  0  0  2  0  0  0  0  0  0
  190.5640  177.5090  144.7300 O   0  0  0  0  0  0  0  0  0  0  0  0
  190.0020  176.0660  142.8560 C   0  0  0  0  0  2  0  0  0  0  0  0
  192.2050  177.2310  142.9820 C   0  0  0  0  0  2  0  0  0  0  0  0
  192.9110  176.2600  142.2260 O   0  0  0  0  0  0  0  0  0  0  0  0
  195.1180  175.5250  142.6120 C   0  0  0  0  0  0  0  0  0  0  0  0
  194.2770  176.3580  142.0760 N   0  0  0  0  0  0  0  0  0  0  0  0
  196.8130  176.0110  140.8550 C   0  0  0  0  0  1  0  0  0  0  0  0
  197.1970  176.7440  143.2020 C   0  0  0  0  0  1  0  0  0  0  0  0
  196.5820  175.6690  142.3210 C   0  0  0  0  0  3  0  0  0  0  0  0
  194.7080  174.4040  143.5360 C   0  0  1  0  0  3  0  0  0  0  0  0
  195.6360  169.1810  141.3870 N   0  0  0  0  0  1  0  0  0  0  0  0
  195.4220  170.4840  141.9130 C   0  0  0  0  0  0  0  0  0  0  0  0
  194.7370  170.6420  143.1210 C   0  0  0  0  0  3  0  0  0  0  0  0
  195.6480  172.8910  141.7300 C   0  0  0  0  0  3  0  0  0  0  0  0
  194.5060  171.9230  143.6320 C   0  0  0  0  0  3  0  0  0  0  0  0
  194.9560  173.0530  142.9430 C   0  0  0  0  0  0  0  0  0  0  0  0
  195.8790  171.6070  141.2190 C   0  0  0  0  0  3  0  0  0  0  0  0
  195.2030  174.5030  144.9730 C   0  0  0  0  0  2  0  0  0  0  0  0
  194.6280  175.6640  145.6390 N   0  0  0  0  0  2  0  0  0  0  0  0
  193.3940  175.5950  146.3600 C   0  0  0  0  0  0  0  0  0  0  0  0
  191.2620  174.5270  146.8230 C   0  0  0  0  0  3  0  0  0  0  0  0
  193.0870  176.5890  147.2970 C   0  0  0  0  0  3  0  0  0  0  0  0
  192.4730  174.5680  146.1220 C   0  0  0  0  0  3  0  0  0  0  0  0
  190.9600  175.5250  147.7520 C   0  0  0  0  0  3  0  0  0  0  0  0
  191.8700  176.5600  147.9860 C   0  0  0  0  0  0  0  0  0  0  0  0
  191.5530  177.5900  148.9310 C   0  0  0  0  0  0  0  0  0  0  0  0
  191.2970  178.4230  149.6870 N   0  0  0  0  0  0  0  0  0  0  0  0
  185.6250  178.2940  145.7750 C   0  0  0  0  0  0  0  0  0  0  0  0
  186.7620  178.5110  144.8440 C   0  0  2  0  0  3  0  0  0  0  0  0
  185.4680  179.0230  144.5870 O   0  0  0  0  0  0  0  0  0  0  0  0
  185.4960  179.1200  146.8870 O   0  0  0  0  0  1  0  0  0  0  0  0
  184.8430  177.1360  145.7420 O   0  0  0  0  0  1  0  0  0  0  0  0
  186.6340  176.8180  141.6170 C   0  0  0  0  0  3  0  0  0  0  0  0
  187.2930  177.5320  142.5360 C   0  0  0  0  0  3  0  0  0  0  0  0
  186.8230  177.1100  140.1660 C   0  0  0  0  0  2  0  0  0  0  0  0
  188.0410  174.9690  140.2260 C   0  0  0  0  0  3  0  0  0  0  0  0
  187.7120  174.5060  137.5030 C   0  0  0  0  0  3  0  0  0  0  0  0
  188.5680  173.8060  139.6630 C   0  0  0  0  0  0  0  0  0  0  0  0
  188.3650  173.5450  138.2950 C   0  0  0  0  0  0  0  0  0  0  0  0
  187.2150  175.6930  138.0550 C   0  0  0  0  0  0  0  0  0  0  0  0
  187.3640  175.9140  139.4520 C   0  0  0  0  0  0  0  0  0  0  0  0
  186.5880  176.5890  137.1770 O   0  0  0  0  0  0  0  0  0  0  0  0
  186.3200  176.3470  135.7980 C   0  0  0  0  0  1  0  0  0  0  0  0
  188.7610  172.3070  137.7680 O   0  0  0  0  0  0  0  0  0  0  0  0
  189.9400  170.8310  136.1870 C   0  0  0  0  0  2  0  0  0  0  0  0
  190.0130  172.0040  137.1520 C   0  0  1  0  0  3  0  0  0  0  0  0
  190.6200  173.2140  136.4580 C   0  0  0  0  0  2  0  0  0  0  0  0
  192.2410  171.6300  135.4640 C   0  0  0  0  0  3  0  0  0  0  0  0
  191.3530  170.4410  135.7570 C   0  0  0  0  0  2  0  0  0  0  0  0
  191.9540  172.8790  135.8480 C   0  0  0  0  0  0  0  0  0  0  0  0
  192.8690  173.9240  135.6620 O   0  0  0  0  0  0  0  0  0  0  0  0
  194.2700  173.7750  135.8580 C   0  0  0  0  0  2  0  0  0  0  0  0
  194.8890  175.1160  136.2250 C   0  0  0  0  0  2  0  0  0  0  0  0
  195.4600  175.0790  137.6350 C   0  0  0  0  0  2  0  0  0  0  0  0
  195.6920  173.6400  138.0590 C   0  0  0  0  0  1  0  0  0  0  0  0
  189.2860  172.9420  140.5000 O   0  0  0  0  0  0  0  0  0  0  0  0
  190.5610  173.2770  141.0470 C   0  0  2  0  0  3  0  0  0  0  0  0
  191.6060  173.4850  139.9280 C   0  0  0  0  0  2  0  0  0  0  0  0
  190.9920  172.2060  142.0530 C   0  0  0  0  0  2  0  0  0  0  0  0
  191.2620  170.8560  141.3750 C   0  0  0  0  0  2  0  0  0  0  0  0
  192.6000  172.3280  139.7950 C   0  0  0  0  0  2  0  0  0  0  0  0
  191.8830  170.9870  139.9760 C   0  0  1  0  0  3  0  0  0  0  0  0
  192.7840  169.9430  139.7660 O   0  0  0  0  0  1  0  0  0  0  0  0
  1 40  1  6  0  0  0
  2  4  2  0  0  0  0
  3  1  1  6  0  0  0
  3  2  1  0  0  0  0
  5  9  1  6  0  0  0
  5  7  1  0  0  0  0
  6  3  1  0  0  0  0
  7  2  1  0  0  0  0
  8  6  1  0  0  0  0
  8  5  1  0  0  0  0
 10  9  1  0  0  0  0
 11 16  1  0  0  0  0
 12 10  1  0  0  0  0
 12 11  2  0  0  0  0
 13 15  1  0  0  0  0
 15 11  1  0  0  0  0
 15 14  1  0  0  0  0
 16 24  1  1  0  0  0
 17 18  1  0  0  0  0
 18 19  1  0  0  0  0
 19 21  2  0  0  0  0
 20 22  2  0  0  0  0
 22 16  1  0  0  0  0
 22 21  1  0  0  0  0
 23 20  1  0  0  0  0
 23 18  2  0  0  0  0
 24 25  1  0  0  0  0
 25 26  1  0  0  0  0
 26 28  1  0  0  0  0
 27 30  2  0  0  0  0
 28 31  2  0  0  0  0
 29 26  2  0  0  0  0
 29 27  1  0  0  0  0
 30 31  1  0  0  0  0
 31 32  1  0  0  0  0
 32 33  3  0  0  0  0
 34 37  1  0  0  0  0
 35  1  1  6  0  0  0
 35 34  1  0  0  0  0
 36 35  1  0  0  0  0
 36 34  1  0  0  0  0
 38 34  1  0  0  0  0
 39 40  2  0  0  0  0
 41 39  1  0  0  0  0
 43 46  2  0  0  0  0
 43 45  1  0  0  0  0
 44 42  1  0  0  0  0
 44 62  1  0  0  0  0
 45 44  2  0  0  0  0
 46 47  1  0  0  0  0
 47 41  1  0  0  0  0
 47 42  2  0  0  0  0
 48 46  1  0  0  0  0
 49 48  1  0  0  0  0
 50 45  1  0  0  0  0
 51 52  1  0  0  0  0
 52 50  1  6  0  0  0
 53 52  1  0  0  0  0
 54 55  1  0  0  0  0
 54 56  2  0  0  0  0
 55 51  1  0  0  0  0
 56 53  1  0  0  0  0
 57 56  1  0  0  0  0
 57 58  1  0  0  0  0
 58 59  1  0  0  0  0
 59 60  1  0  0  0  0
 60 61  1  0  0  0  0
 63 62  1  6  0  0  0
 63 65  1  0  0  0  0
 64 63  1  0  0  0  0
 66 65  1  0  0  0  0
 67 64  1  0  0  0  0
 67 68  1  0  0  0  0
 68 69  1  1  0  0  0
 68 66  1  0  0  0  0
M  END
>  <MODEL>
1

>  <REMARK>
 VINA RESULT:      -6.0      0.000      0.000
  Name = 
  24 active torsions:
  status: ('A' for Active; 'I' for Inactive)
    1  A    between atoms: C_1  and  C_12
    2  A    between atoms: C_1  and  C_52
    3  A    between atoms: C_5  and  C_54
    4  A    between atoms: C_6  and  O_33
    5  A    between atoms: N_9  and  C_11
    6  A    between atoms: N_9  and  C_15
    7  A    between atoms: C_10  and  C_24
    8  A    between atoms: C_12  and  C_15
    9  A    between atoms: C_12  and  C_49
   10  A    between atoms: C_17  and  C_24
   11  A    between atoms: C_19  and  O_30
   12  A    between atoms: C_21  and  C_65
   13  A    between atoms: C_22  and  C_50
   14  A    between atoms: C_24  and  C_28
   15  A    between atoms: O_27  and  N_42
   16  A    between atoms: O_27  and  C_50
   17  A    between atoms: C_29  and  C_68
   18  A    between atoms: O_30  and  C_40
   19  A    between atoms: C_32  and  O_33
   20  A    between atoms: O_35  and  C_45
   21  A    between atoms: O_35  and  C_46
   22  A    between atoms: O_41  and  C_62
   23  A    between atoms: C_45  and  C_68
   24  A    between atoms: C_54  and  C_64
                            x       y       z     vdW  Elec       q    Type
                         _______ _______ _______ _____ _____    ______ ____

>  <TORSDO>
F 24

$$$$
=
 OpenBabel11062418413D

 69 75  0  0  1  0  0  0  0  0999 V2000
  186.1620  177.0310  141.5870 C   0  0  1  0  0  3  0  0  0  0  0  0
  187.1410  176.4810  143.8800 C   0  0  0  0  0  0  0  0  0  0  0  0
  187.0010  176.0600  142.4370 C   0  0  2  0  0  3  0  0  0  0  0  0
  186.1340  176.4790  144.6320 O   0  0  0  0  0  0  0  0  0  0  0  0
  189.6100  176.6390  143.7260 C   0  0  1  0  0  3  0  0  0  0  0  0
  188.3480  175.7280  141.7880 C   0  0  0  0  0  2  0  0  0  0  0  0
  188.3740  176.9100  144.3860 O   0  0  0  0  0  0  0  0  0  0  0  0
  189.4440  176.6990  142.2130 C   0  0  0  0  0  2  0  0  0  0  0  0
  190.6620  177.6480  144.1730 C   0  0  0  0  0  2  0  0  0  0  0  0
  191.9000  177.3940  143.5290 O   0  0  0  0  0  0  0  0  0  0  0  0
  193.9060  176.3670  144.2270 C   0  0  0  0  0  0  0  0  0  0  0  0
  193.0670  177.3600  144.2610 N   0  0  0  0  0  0  0  0  0  0  0  0
  195.2980  177.8040  145.7060 C   0  0  0  0  0  1  0  0  0  0  0  0
  195.2850  175.3350  146.0110 C   0  0  0  0  0  1  0  0  0  0  0  0
  195.1890  176.4620  144.9960 C   0  0  0  0  0  3  0  0  0  0  0  0
  193.6600  175.0950  143.4530 C   0  0  1  0  0  3  0  0  0  0  0  0
  197.3190  174.4660  139.0980 N   0  0  0  0  0  1  0  0  0  0  0  0
  196.4090  174.6040  140.1810 C   0  0  0  0  0  0  0  0  0  0  0  0
  195.5750  175.7230  140.2490 C   0  0  0  0  0  3  0  0  0  0  0  0
  195.4720  173.7820  142.2600 C   0  0  0  0  0  3  0  0  0  0  0  0
  194.6910  175.8720  141.3230 C   0  0  0  0  0  3  0  0  0  0  0  0
  194.6350  174.9080  142.3330 C   0  0  0  0  0  0  0  0  0  0  0  0
  196.3560  173.6330  141.1830 C   0  0  0  0  0  3  0  0  0  0  0  0
  193.4820  173.8290  144.2810 C   0  0  0  0  0  2  0  0  0  0  0  0
  192.0790  173.4450  144.3470 N   0  0  0  0  0  2  0  0  0  0  0  0
  191.1990  173.9470  145.3580 C   0  0  0  0  0  0  0  0  0  0  0  0
  189.0210  174.0230  146.4300 C   0  0  0  0  0  3  0  0  0  0  0  0
  191.6620  174.9190  146.2540 C   0  0  0  0  0  3  0  0  0  0  0  0
  189.8730  173.5070  145.4470 C   0  0  0  0  0  3  0  0  0  0  0  0
  189.4880  174.9960  147.3170 C   0  0  0  0  0  3  0  0  0  0  0  0
  190.8070  175.4480  147.2260 C   0  0  0  0  0  0  0  0  0  0  0  0
  191.2810  176.4560  148.1280 C   0  0  0  0  0  0  0  0  0  0  0  0
  191.6660  177.2640  148.8580 N   0  0  0  0  0  0  0  0  0  0  0  0
  184.6240  178.6650  142.7270 C   0  0  0  0  0  0  0  0  0  0  0  0
  186.0250  178.3810  142.3240 C   0  0  2  0  0  3  0  0  0  0  0  0
  185.2100  179.3000  141.6230 O   0  0  0  0  0  0  0  0  0  0  0  0
  184.3890  179.5710  143.7560 O   0  0  0  0  0  1  0  0  0  0  0  0
  183.5530  177.8660  142.3180 O   0  0  0  0  0  1  0  0  0  0  0  0
  186.5090  176.1260  139.3200 C   0  0  0  0  0  3  0  0  0  0  0  0
  186.6640  177.1470  140.1710 C   0  0  0  0  0  3  0  0  0  0  0  0
  186.9790  176.2510  137.9090 C   0  0  0  0  0  2  0  0  0  0  0  0
  188.2200  174.2300  138.5780 C   0  0  0  0  0  3  0  0  0  0  0  0
  189.2330  173.7950  136.0240 C   0  0  0  0  0  3  0  0  0  0  0  0
  189.0520  173.1320  138.3510 C   0  0  0  0  0  0  0  0  0  0  0  0
  189.5300  172.8820  137.0520 C   0  0  0  0  0  0  0  0  0  0  0  0
  188.4310  174.9190  136.2550 C   0  0  0  0  0  0  0  0  0  0  0  0
  187.8960  175.1250  137.5560 C   0  0  0  0  0  0  0  0  0  0  0  0
  188.2030  175.7710  135.1650 O   0  0  0  0  0  0  0  0  0  0  0  0
  189.1420  176.7010  134.6290 C   0  0  0  0  0  1  0  0  0  0  0  0
  190.2360  171.6970  136.7980 O   0  0  0  0  0  0  0  0  0  0  0  0
  192.0800  170.0810  137.0370 C   0  0  0  0  0  2  0  0  0  0  0  0
  191.6530  171.5260  136.8280 C   0  0  1  0  0  3  0  0  0  0  0  0
  192.3280  172.0960  135.5900 C   0  0  0  0  0  2  0  0  0  0  0  0
  194.3750  170.9450  136.3720 C   0  0  0  0  0  3  0  0  0  0  0  0
  193.5870  170.0290  137.2820 C   0  0  0  0  0  2  0  0  0  0  0  0
  193.8220  171.9360  135.6620 C   0  0  0  0  0  0  0  0  0  0  0  0
  194.6120  172.8340  134.9330 O   0  0  0  0  0  0  0  0  0  0  0  0
  194.9410  174.1370  135.3990 C   0  0  0  0  0  2  0  0  0  0  0  0
  194.5190  174.2900  136.8540 C   0  0  0  0  0  2  0  0  0  0  0  0
  193.8300  175.6290  137.0780 C   0  0  0  0  0  2  0  0  0  0  0  0
  192.5060  175.6570  136.3340 C   0  0  0  0  0  1  0  0  0  0  0  0
  189.3760  172.3200  139.4460 O   0  0  0  0  0  0  0  0  0  0  0  0
  190.0730  172.8090  140.5910 C   0  0  2  0  0  3  0  0  0  0  0  0
  191.5270  173.1900  140.2330 C   0  0  0  0  0  2  0  0  0  0  0  0
  190.0040  171.7770  141.7210 C   0  0  0  0  0  2  0  0  0  0  0  0
  190.7770  170.4970  141.3780 C   0  0  0  0  0  2  0  0  0  0  0  0
  192.5650  172.1820  140.7360 C   0  0  0  0  0  2  0  0  0  0  0  0
  192.0500  170.7520  140.5550 C   0  0  1  0  0  3  0  0  0  0  0  0
  193.0410  169.8460  140.9350 O   0  0  0  0  0  1  0  0  0  0  0  0
  1 40  1  6  0  0  0
  2  7  1  0  0  0  0
  2  4  2  0  0  0  0
  3  1  1  6  0  0  0
  3  2  1  0  0  0  0
  5  9  1  1  0  0  0
  5  7  1  0  0  0  0
  6  8  1  0  0  0  0
  6  3  1  0  0  0  0
  8  5  1  0  0  0  0
 10  9  1  0  0  0  0
 10 12  1  0  0  0  0
 11 12  2  0  0  0  0
 11 15  1  0  0  0  0
 15 13  1  0  0  0  0
 15 14  1  0  0  0  0
 16 11  1  0  0  0  0
 16 24  1  1  0  0  0
 17 18  1  0  0  0  0
 18 19  2  0  0  0  0
 18 23  1  0  0  0  0
 19 21  1  0  0  0  0
 20 22  1  0  0  0  0
 21 22  2  0  0  0  0
 22 16  1  0  0  0  0
 23 20  2  0  0  0  0
 24 25  1  0  0  0  0
 25 26  1  0  0  0  0
 26 29  2  0  0  0  0
 26 28  1  0  0  0  0
 27 30  2  0  0  0  0
 28 31  2  0  0  0  0
 29 27  1  0  0  0  0
 31 30  1  0  0  0  0
 31 32  1  0  0  0  0
 32 33  3  0  0  0  0
 34 37  1  0  0  0  0
 35  1  1  6  0  0  0
 35 34  1  0  0  0  0
 36 35  1  0  0  0  0
 36 34  1  0  0  0  0
 38 34  1  0  0  0  0
 39 40  2  0  0  0  0
 41 39  1  0  0  0  0
 43 46  2  0  0  0  0
 43 45  1  0  0  0  0
 44 42  1  0  0  0  0
 44 62  1  0  0  0  0
 45 44  2  0  0  0  0
 46 47  1  0  0  0  0
 47 41  1  0  0  0  0
 47 42  2  0  0  0  0
 48 46  1  0  0  0  0
 49 48  1  0  0  0  0
 50 45  1  0  0  0  0
 51 55  1  0  0  0  0
 52 50  1  6  0  0  0
 52 51  1  0  0  0  0
 53 56  1  0  0  0  0
 53 52  1  0  0  0  0
 54 55  1  0  0  0  0
 56 54  2  0  0  0  0
 57 58  1  0  0  0  0
 57 56  1  0  0  0  0
 58 59  1  0  0  0  0
 59 60  1  0  0  0  0
 61 60  1  0  0  0  0
 63 62  1  6  0  0  0
 63 65  1  0  0  0  0
 64 63  1  0  0  0  0
 64 67  1  0  0  0  0
 66 65  1  0  0  0  0
 68 67  1  0  0  0  0
 68 69  1  1  0  0  0
 68 66  1  0  0  0  0
M  END
>  <MODEL>
2

>  <REMARK>
 VINA RESULT:      -5.6      1.814      2.628
  Name = 
  24 active torsions:
  status: ('A' for Active; 'I' for Inactive)
    1  A    between atoms: C_1  and  C_12
    2  A    between atoms: C_1  and  C_52
    3  A    between atoms: C_5  and  C_54
    4  A    between atoms: C_6  and  O_33
    5  A    between atoms: N_9  and  C_11
    6  A    between atoms: N_9  and  C_15
    7  A    between atoms: C_10  and  C_24
    8  A    between atoms: C_12  and  C_15
    9  A    between atoms: C_12  and  C_49
   10  A    between atoms: C_17  and  C_24
   11  A    between atoms: C_19  and  O_30
   12  A    between atoms: C_21  and  C_65
   13  A    between atoms: C_22  and  C_50
   14  A    between atoms: C_24  and  C_28
   15  A    between atoms: O_27  and  N_42
   16  A    between atoms: O_27  and  C_50
   17  A    between atoms: C_29  and  C_68
   18  A    between atoms: O_30  and  C_40
   19  A    between atoms: C_32  and  O_33
   20  A    between atoms: O_35  and  C_45
   21  A    between atoms: O_35  and  C_46
   22  A    between atoms: O_41  and  C_62
   23  A    between atoms: C_45  and  C_68
   24  A    between atoms: C_54  and  C_64
                            x       y       z     vdW  Elec       q    Type
                         _______ _______ _______ _____ _____    ______ ____

>  <TORSDO>
F 24

$$$$
=
 OpenBabel11062418413D

 69 75  0  0  1  0  0  0  0  0999 V2000
  196.7150  174.7580  138.6470 C   0  0  1  0  0  3  0  0  0  0  0  0
  197.6630  173.1860  136.8730 C   0  0  0  0  0  0  0  0  0  0  0  0
  197.7590  173.6830  138.2940 C   0  0  2  0  0  3  0  0  0  0  0  0
  197.9410  173.9580  135.9200 O   0  0  0  0  0  0  0  0  0  0  0  0
  197.2150  170.8540  137.5830 C   0  0  1  0  0  3  0  0  0  0  0  0
  197.7910  172.5420  139.3150 C   0  0  0  0  0  2  0  0  0  0  0  0
  197.2320  171.8830  136.5940 O   0  0  0  0  0  0  0  0  0  0  0  0
  196.8320  171.4150  138.9470 C   0  0  0  0  0  2  0  0  0  0  0  0
  196.2280  169.7670  137.1740 C   0  0  0  0  0  2  0  0  0  0  0  0
  194.8980  170.1700  137.4580 O   0  0  0  0  0  0  0  0  0  0  0  0
  192.6630  169.4180  137.4930 C   0  0  0  0  0  0  0  0  0  0  0  0
  193.8350  169.4690  136.9320 N   0  0  0  0  0  0  0  0  0  0  0  0
  190.3400  168.5540  137.7160 C   0  0  0  0  0  1  0  0  0  0  0  0
  191.1440  169.4330  135.5310 C   0  0  0  0  0  1  0  0  0  0  0  0
  191.5460  168.6970  136.7990 C   0  0  0  0  0  3  0  0  0  0  0  0
  192.3500  170.0450  138.8300 C   0  0  1  0  0  3  0  0  0  0  0  0
  188.3230  174.0900  138.4150 N   0  0  0  0  0  1  0  0  0  0  0  0
  189.3200  173.0840  138.5370 C   0  0  0  0  0  0  0  0  0  0  0  0
  190.4090  173.0770  137.6610 C   0  0  0  0  0  3  0  0  0  0  0  0
  190.1810  171.0940  139.6200 C   0  0  0  0  0  3  0  0  0  0  0  0
  191.3830  172.0780  137.7650 C   0  0  0  0  0  3  0  0  0  0  0  0
  191.2750  171.0820  138.7400 C   0  0  0  0  0  0  0  0  0  0  0  0
  189.2060  172.0960  139.5170 C   0  0  0  0  0  3  0  0  0  0  0  0
  192.1260  169.0800  139.9870 C   0  0  0  0  0  2  0  0  0  0  0  0
  193.3910  168.7130  140.6090 N   0  0  0  0  0  2  0  0  0  0  0  0
  194.0400  169.5540  141.5660 C   0  0  0  0  0  0  0  0  0  0  0  0
  194.5560  171.7550  142.4570 C   0  0  0  0  0  3  0  0  0  0  0  0
  194.8600  168.9790  142.5450 C   0  0  0  0  0  3  0  0  0  0  0  0
  193.8970  170.9460  141.5230 C   0  0  0  0  0  3  0  0  0  0  0  0
  195.3760  171.1740  143.4270 C   0  0  0  0  0  3  0  0  0  0  0  0
  195.5330  169.7860  143.4680 C   0  0  0  0  0  0  0  0  0  0  0  0
  196.3850  169.1920  144.4560 C   0  0  0  0  0  0  0  0  0  0  0  0
  197.0750  168.7190  145.2520 N   0  0  0  0  0  0  0  0  0  0  0  0
  194.6310  174.6970  137.2350 C   0  0  0  0  0  0  0  0  0  0  0  0
  195.2940  174.1820  138.4610 C   0  0  2  0  0  3  0  0  0  0  0  0
  194.2940  175.1810  138.5080 O   0  0  0  0  0  0  0  0  0  0  0  0
  193.5790  173.9740  136.6820 O   0  0  0  0  0  1  0  0  0  0  0  0
  195.1880  175.7160  136.4580 O   0  0  0  0  0  1  0  0  0  0  0  0
  196.1730  175.0650  141.0330 C   0  0  0  0  0  3  0  0  0  0  0  0
  196.9570  175.3840  139.9960 C   0  0  0  0  0  3  0  0  0  0  0  0
  196.4300  175.6610  142.3760 C   0  0  0  0  0  2  0  0  0  0  0  0
  194.0330  175.6460  142.9470 C   0  0  0  0  0  3  0  0  0  0  0  0
  194.4380  174.3190  145.3580 C   0  0  0  0  0  3  0  0  0  0  0  0
  192.9340  175.3450  143.7530 C   0  0  0  0  0  0  0  0  0  0  0  0
  193.1290  174.6340  144.9520 C   0  0  0  0  0  0  0  0  0  0  0  0
  195.5470  174.6530  144.5720 C   0  0  0  0  0  0  0  0  0  0  0  0
  195.3340  175.3100  143.3290 C   0  0  0  0  0  0  0  0  0  0  0  0
  196.8090  174.3030  145.0720 O   0  0  0  0  0  0  0  0  0  0  0  0
  197.0560  173.6370  146.3090 C   0  0  0  0  0  1  0  0  0  0  0  0
  192.0110  174.2000  145.6800 O   0  0  0  0  0  0  0  0  0  0  0  0
  191.8220  176.3100  146.9370 C   0  0  0  0  0  2  0  0  0  0  0  0
  191.1720  175.0020  146.5120 C   0  0  1  0  0  3  0  0  0  0  0  0
  189.8190  175.2730  145.8730 C   0  0  0  0  0  2  0  0  0  0  0  0
  189.4720  176.9200  147.6880 C   0  0  0  0  0  3  0  0  0  0  0  0
  190.9520  176.9860  147.9960 C   0  0  0  0  0  2  0  0  0  0  0  0
  188.9410  176.0890  146.7830 C   0  0  0  0  0  0  0  0  0  0  0  0
  187.5540  175.9780  146.6260 O   0  0  0  0  0  0  0  0  0  0  0  0
  186.7500  177.0090  146.0670 C   0  0  0  0  0  2  0  0  0  0  0  0
  185.3300  176.9100  146.6060 C   0  0  0  0  0  2  0  0  0  0  0  0
  184.5830  178.2210  146.4030 C   0  0  0  0  0  2  0  0  0  0  0  0
  185.1560  178.9600  145.2060 C   0  0  0  0  0  1  0  0  0  0  0  0
  191.6720  175.7720  143.3230 O   0  0  0  0  0  0  0  0  0  0  0  0
  191.1180  175.4020  142.0610 C   0  0  2  0  0  3  0  0  0  0  0  0
  189.5810  175.5530  142.0650 C   0  0  0  0  0  2  0  0  0  0  0  0
  191.5620  173.9820  141.6970 C   0  0  0  0  0  2  0  0  0  0  0  0
  190.9670  172.9320  142.6450 C   0  0  0  0  0  2  0  0  0  0  0  0
  188.8340  174.2170  142.1460 C   0  0  0  0  0  2  0  0  0  0  0  0
  189.5430  173.2690  143.1150 C   0  0  1  0  0  3  0  0  0  0  0  0
  188.8040  172.0930  143.2440 O   0  0  0  0  0  1  0  0  0  0  0  0
  1 40  1  1  0  0  0
  2  3  1  0  0  0  0
  3  1  1  1  0  0  0
  3  6  1  0  0  0  0
  4  2  2  0  0  0  0
  5  9  1  6  0  0  0
  5  8  1  0  0  0  0
  7  2  1  0  0  0  0
  7  5  1  0  0  0  0
  8  6  1  0  0  0  0
  9 10  1  0  0  0  0
 11 16  1  0  0  0  0
 12 10  1  0  0  0  0
 12 11  2  0  0  0  0
 14 15  1  0  0  0  0
 15 11  1  0  0  0  0
 15 13  1  0  0  0  0
 16 24  1  1  0  0  0
 17 18  1  0  0  0  0
 18 23  1  0  0  0  0
 19 21  1  0  0  0  0
 19 18  2  0  0  0  0
 21 22  2  0  0  0  0
 22 16  1  0  0  0  0
 22 20  1  0  0  0  0
 23 20  2  0  0  0  0
 24 25  1  0  0  0  0
 25 26  1  0  0  0  0
 26 28  1  0  0  0  0
 27 30  2  0  0  0  0
 28 31  2  0  0  0  0
 29 26  2  0  0  0  0
 29 27  1  0  0  0  0
 30 31  1  0  0  0  0
 31 32  1  0  0  0  0
 32 33  3  0  0  0  0
 34 35  1  0  0  0  0
 34 36  1  0  0  0  0
 35 36  1  0  0  0  0
 35  1  1  6  0  0  0
 37 34  1  0  0  0  0
 38 34  1  0  0  0  0
 39 41  1  0  0  0  0
 40 39  2  0  0  0  0
 41 47  1  0  0  0  0
 42 47  2  0  0  0  0
 42 44  1  0  0  0  0
 44 45  2  0  0  0  0
 45 43  1  0  0  0  0
 45 50  1  0  0  0  0
 46 48  1  0  0  0  0
 46 43  2  0  0  0  0
 47 46  1  0  0  0  0
 48 49  1  0  0  0  0
 51 55  1  0  0  0  0
 52 50  1  6  0  0  0
 52 51  1  0  0  0  0
 53 52  1  0  0  0  0
 53 56  1  0  0  0  0
 54 55  1  0  0  0  0
 56 54  2  0  0  0  0
 57 56  1  0  0  0  0
 58 59  1  0  0  0  0
 58 57  1  0  0  0  0
 60 59  1  0  0  0  0
 61 60  1  0  0  0  0
 62 44  1  0  0  0  0
 63 64  1  0  0  0  0
 63 62  1  1  0  0  0
 64 67  1  0  0  0  0
 65 63  1  0  0  0  0
 65 66  1  0  0  0  0
 66 68  1  0  0  0  0
 67 68  1  0  0  0  0
 68 69  1  6  0  0  0
M  END
>  <MODEL>
3

>  <REMARK>
 VINA RESULT:      -5.1      3.001      9.972
  Name = 
  24 active torsions:
  status: ('A' for Active; 'I' for Inactive)
    1  A    between atoms: C_1  and  C_12
    2  A    between atoms: C_1  and  C_52
    3  A    between atoms: C_5  and  C_54
    4  A    between atoms: C_6  and  O_33
    5  A    between atoms: N_9  and  C_11
    6  A    between atoms: N_9  and  C_15
    7  A    between atoms: C_10  and  C_24
    8  A    between atoms: C_12  and  C_15
    9  A    between atoms: C_12  and  C_49
   10  A    between atoms: C_17  and  C_24
   11  A    between atoms: C_19  and  O_30
   12  A    between atoms: C_21  and  C_65
   13  A    between atoms: C_22  and  C_50
   14  A    between atoms: C_24  and  C_28
   15  A    between atoms: O_27  and  N_42
   16  A    between atoms: O_27  and  C_50
   17  A    between atoms: C_29  and  C_68
   18  A    between atoms: O_30  and  C_40
   19  A    between atoms: C_32  and  O_33
   20  A    between atoms: O_35  and  C_45
   21  A    between atoms: O_35  and  C_46
   22  A    between atoms: O_41  and  C_62
   23  A    between atoms: C_45  and  C_68
   24  A    between atoms: C_54  and  C_64
                            x       y       z     vdW  Elec       q    Type
                         _______ _______ _______ _____ _____    ______ ____

>  <TORSDO>
F 24

$$$$
=
 OpenBabel11062418413D

 69 75  0  0  1  0  0  0  0  0999 V2000
  196.7830  174.7470  137.1650 C   0  0  1  0  0  3  0  0  0  0  0  0
  197.1480  172.6760  135.7180 C   0  0  0  0  0  0  0  0  0  0  0  0
  197.6540  173.5140  136.8660 C   0  0  2  0  0  3  0  0  0  0  0  0
  197.1690  173.1390  134.5490 O   0  0  0  0  0  0  0  0  0  0  0  0
  196.8520  170.6710  137.1450 C   0  0  1  0  0  3  0  0  0  0  0  0
  197.9400  172.6820  138.1200 C   0  0  0  0  0  2  0  0  0  0  0  0
  196.6200  171.3990  135.9390 O   0  0  0  0  0  0  0  0  0  0  0  0
  196.8840  171.6060  138.3470 C   0  0  0  0  0  2  0  0  0  0  0  0
  195.7590  169.6250  137.3310 C   0  0  0  0  0  2  0  0  0  0  0  0
  194.5250  170.2460  137.6530 O   0  0  0  0  0  0  0  0  0  0  0  0
  192.2000  170.3610  137.2700 C   0  0  0  0  0  0  0  0  0  0  0  0
  193.3500  169.7760  137.1080 N   0  0  0  0  0  0  0  0  0  0  0  0
  191.0340  170.1500  135.0820 C   0  0  0  0  0  1  0  0  0  0  0  0
  190.9010  168.3130  136.7540 C   0  0  0  0  0  1  0  0  0  0  0  0
  190.9930  169.8180  136.5670 C   0  0  0  0  0  3  0  0  0  0  0  0
  191.9980  171.5730  138.1470 C   0  0  1  0  0  3  0  0  0  0  0  0
  188.1730  175.2130  135.9400 N   0  0  0  0  0  1  0  0  0  0  0  0
  189.1340  174.3110  136.4730 C   0  0  0  0  0  0  0  0  0  0  0  0
  188.7240  173.2870  137.3310 C   0  0  0  0  0  3  0  0  0  0  0  0
  191.4330  173.5750  136.6970 C   0  0  0  0  0  3  0  0  0  0  0  0
  189.6680  172.4090  137.8730 C   0  0  0  0  0  3  0  0  0  0  0  0
  191.0240  172.5470  137.5630 C   0  0  0  0  0  0  0  0  0  0  0  0
  190.4860  174.4540  136.1540 C   0  0  0  0  0  3  0  0  0  0  0  0
  191.7270  171.2980  139.6210 C   0  0  0  0  0  2  0  0  0  0  0  0
  191.3950  172.5280  140.3250 N   0  0  0  0  0  2  0  0  0  0  0  0
  190.3500  172.5890  141.3010 C   0  0  0  0  0  0  0  0  0  0  0  0
  189.1190  171.6190  143.1570 C   0  0  0  0  0  3  0  0  0  0  0  0
  189.4820  173.6880  141.3140 C   0  0  0  0  0  3  0  0  0  0  0  0
  190.1580  171.5520  142.2220 C   0  0  0  0  0  3  0  0  0  0  0  0
  188.2540  172.7160  143.1610 C   0  0  0  0  0  3  0  0  0  0  0  0
  188.4320  173.7490  142.2360 C   0  0  0  0  0  0  0  0  0  0  0  0
  187.5360  174.8680  142.2330 C   0  0  0  0  0  0  0  0  0  0  0  0
  186.8110  175.7660  142.2330 N   0  0  0  0  0  0  0  0  0  0  0  0
  194.7790  175.3570  135.7690 C   0  0  0  0  0  0  0  0  0  0  0  0
  195.3110  174.4410  136.8110 C   0  0  2  0  0  3  0  0  0  0  0  0
  194.4440  175.5150  137.1220 O   0  0  0  0  0  0  0  0  0  0  0  0
  193.6720  174.9610  135.0250 O   0  0  0  0  0  1  0  0  0  0  0  0
  195.4970  176.4650  135.3110 O   0  0  0  0  0  1  0  0  0  0  0  0
  196.1370  174.9370  139.5370 C   0  0  0  0  0  3  0  0  0  0  0  0
  196.9850  175.2780  138.5610 C   0  0  0  0  0  3  0  0  0  0  0  0
  196.3530  175.4380  140.9260 C   0  0  0  0  0  2  0  0  0  0  0  0
  194.0920  175.7050  141.8670 C   0  0  0  0  0  3  0  0  0  0  0  0
  194.2750  173.4010  143.4150 C   0  0  0  0  0  3  0  0  0  0  0  0
  193.0100  175.3320  142.6660 C   0  0  0  0  0  0  0  0  0  0  0  0
  193.0800  174.1440  143.4170 C   0  0  0  0  0  0  0  0  0  0  0  0
  195.3760  173.7910  142.6450 C   0  0  0  0  0  0  0  0  0  0  0  0
  195.2700  174.9560  141.8360 C   0  0  0  0  0  0  0  0  0  0  0  0
  196.5220  172.9870  142.7210 O   0  0  0  0  0  0  0  0  0  0  0  0
  197.1220  172.5090  143.9240 C   0  0  0  0  0  1  0  0  0  0  0  0
  191.9390  173.6940  144.0960 O   0  0  0  0  0  0  0  0  0  0  0  0
  192.5080  175.0020  146.1040 C   0  0  0  0  0  2  0  0  0  0  0  0
  191.5470  174.0390  145.4250 C   0  0  1  0  0  3  0  0  0  0  0  0
  190.1290  174.5880  145.4820 C   0  0  0  0  0  2  0  0  0  0  0  0
  190.6450  175.2310  147.8160 C   0  0  0  0  0  3  0  0  0  0  0  0
  192.1350  175.1320  147.5800 C   0  0  0  0  0  2  0  0  0  0  0  0
  189.7270  174.9100  146.8960 C   0  0  0  0  0  0  0  0  0  0  0  0
  188.3610  174.8990  147.2060 O   0  0  0  0  0  0  0  0  0  0  0  0
  187.6270  176.0750  147.5240 C   0  0  0  0  0  2  0  0  0  0  0  0
  186.8800  176.5700  146.2930 C   0  0  0  0  0  2  0  0  0  0  0  0
  185.5110  177.1140  146.6750 C   0  0  0  0  0  2  0  0  0  0  0  0
  185.6340  178.5690  147.0920 C   0  0  0  0  0  1  0  0  0  0  0  0
  191.8900  176.1730  142.6840 O   0  0  0  0  0  0  0  0  0  0  0  0
  191.9350  177.5100  143.1830 C   0  0  2  0  0  3  0  0  0  0  0  0
  191.5460  177.5560  144.6780 C   0  0  0  0  0  2  0  0  0  0  0  0
  191.0470  178.4140  142.3230 C   0  0  0  0  0  2  0  0  0  0  0  0
  189.5610  178.0560  142.4570 C   0  0  0  0  0  2  0  0  0  0  0  0
  190.1420  178.1130  144.9280 C   0  0  0  0  0  2  0  0  0  0  0  0
  189.1670  177.5950  143.8680 C   0  0  1  0  0  3  0  0  0  0  0  0
  187.8770  178.0400  144.1610 O   0  0  0  0  0  1  0  0  0  0  0  0
  1 40  1  1  0  0  0
  2  7  1  0  0  0  0
  2  3  1  0  0  0  0
  3  1  1  1  0  0  0
  3  6  1  0  0  0  0
  4  2  2  0  0  0  0
  5  9  1  1  0  0  0
  5  8  1  0  0  0  0
  6  8  1  0  0  0  0
  7  5  1  0  0  0  0
  9 10  1  0  0  0  0
 11 16  1  0  0  0  0
 12 11  2  0  0  0  0
 12 10  1  0  0  0  0
 13 15  1  0  0  0  0
 15 14  1  0  0  0  0
 15 11  1  0  0  0  0
 16 24  1  1  0  0  0
 17 18  1  0  0  0  0
 18 19  1  0  0  0  0
 19 21  2  0  0  0  0
 20 22  2  0  0  0  0
 22 21  1  0  0  0  0
 22 16  1  0  0  0  0
 23 18  2  0  0  0  0
 23 20  1  0  0  0  0
 24 25  1  0  0  0  0
 25 26  1  0  0  0  0
 26 28  2  0  0  0  0
 26 29  1  0  0  0  0
 27 30  1  0  0  0  0
 28 31  1  0  0  0  0
 29 27  2  0  0  0  0
 31 30  2  0  0  0  0
 32 33  3  0  0  0  0
 32 31  1  0  0  0  0
 34 35  1  0  0  0  0
 34 36  1  0  0  0  0
 35 36  1  0  0  0  0
 35  1  1  1  0  0  0
 37 34  1  0  0  0  0
 38 34  1  0  0  0  0
 39 41  1  0  0  0  0
 40 39  2  0  0  0  0
 41 47  1  0  0  0  0
 42 44  1  0  0  0  0
 43 45  1  0  0  0  0
 44 62  1  0  0  0  0
 44 45  2  0  0  0  0
 45 50  1  0  0  0  0
 46 48  1  0  0  0  0
 46 43  2  0  0  0  0
 47 42  2  0  0  0  0
 47 46  1  0  0  0  0
 48 49  1  0  0  0  0
 51 55  1  0  0  0  0
 52 50  1  6  0  0  0
 52 53  1  0  0  0  0
 52 51  1  0  0  0  0
 53 56  1  0  0  0  0
 55 54  1  0  0  0  0
 56 57  1  0  0  0  0
 56 54  2  0  0  0  0
 57 58  1  0  0  0  0
 59 60  1  0  0  0  0
 59 58  1  0  0  0  0
 60 61  1  0  0  0  0
 63 62  1  6  0  0  0
 63 64  1  0  0  0  0
 64 67  1  0  0  0  0
 65 66  1  0  0  0  0
 65 63  1  0  0  0  0
 66 68  1  0  0  0  0
 68 69  1  1  0  0  0
 68 67  1  0  0  0  0
M  END
>  <MODEL>
4

>  <REMARK>
 VINA RESULT:      -4.6      2.767     10.018
  Name = 
  24 active torsions:
  status: ('A' for Active; 'I' for Inactive)
    1  A    between atoms: C_1  and  C_12
    2  A    between atoms: C_1  and  C_52
    3  A    between atoms: C_5  and  C_54
    4  A    between atoms: C_6  and  O_33
    5  A    between atoms: N_9  and  C_11
    6  A    between atoms: N_9  and  C_15
    7  A    between atoms: C_10  and  C_24
    8  A    between atoms: C_12  and  C_15
    9  A    between atoms: C_12  and  C_49
   10  A    between atoms: C_17  and  C_24
   11  A    between atoms: C_19  and  O_30
   12  A    between atoms: C_21  and  C_65
   13  A    between atoms: C_22  and  C_50
   14  A    between atoms: C_24  and  C_28
   15  A    between atoms: O_27  and  N_42
   16  A    between atoms: O_27  and  C_50
   17  A    between atoms: C_29  and  C_68
   18  A    between atoms: O_30  and  C_40
   19  A    between atoms: C_32  and  O_33
   20  A    between atoms: O_35  and  C_45
   21  A    between atoms: O_35  and  C_46
   22  A    between atoms: O_41  and  C_62
   23  A    between atoms: C_45  and  C_68
   24  A    between atoms: C_54  and  C_64
                            x       y       z     vdW  Elec       q    Type
                         _______ _______ _______ _____ _____    ______ ____

>  <TORSDO>
F 24

$$$$
=
 OpenBabel11062418413D

 69 75  0  0  1  0  0  0  0  0999 V2000
  192.2940  175.0830  145.9940 C   0  0  1  0  0  3  0  0  0  0  0  0
  193.8910  175.4280  144.0330 C   0  0  0  0  0  0  0  0  0  0  0  0
  193.7500  175.2450  145.5250 C   0  0  2  0  0  3  0  0  0  0  0  0
  193.4610  176.4770  143.4890 O   0  0  0  0  0  0  0  0  0  0  0  0
  195.2640  173.3800  143.7820 C   0  0  1  0  0  3  0  0  0  0  0  0
  194.6660  174.1450  146.0700 C   0  0  0  0  0  2  0  0  0  0  0  0
  194.4650  174.4300  143.2370 O   0  0  0  0  0  0  0  0  0  0  0  0
  194.7320  172.9390  145.1390 C   0  0  0  0  0  2  0  0  0  0  0  0
  195.2790  172.1960  142.8210 C   0  0  0  0  0  2  0  0  0  0  0  0
  196.3050  172.3530  141.8550 O   0  0  0  0  0  0  0  0  0  0  0  0
  196.2890  173.9720  140.1390 C   0  0  0  0  0  0  0  0  0  0  0  0
  196.5940  173.6010  141.3480 N   0  0  0  0  0  0  0  0  0  0  0  0
  196.5050  176.3340  140.8930 C   0  0  0  0  0  1  0  0  0  0  0  0
  197.9400  175.4710  139.0530 C   0  0  0  0  0  1  0  0  0  0  0  0
  196.5720  175.3800  139.7090 C   0  0  0  0  0  3  0  0  0  0  0  0
  195.6630  173.0530  139.1180 C   0  0  1  0  0  3  0  0  0  0  0  0
  191.6640  175.6470  135.9520 N   0  0  0  0  0  1  0  0  0  0  0  0
  192.6660  174.9970  136.7230 C   0  0  0  0  0  0  0  0  0  0  0  0
  192.3450  174.4700  137.9770 C   0  0  0  0  0  3  0  0  0  0  0  0
  194.9620  174.2740  137.0100 C   0  0  0  0  0  3  0  0  0  0  0  0
  193.3320  173.8470  138.7470 C   0  0  0  0  0  3  0  0  0  0  0  0
  194.6430  173.7470  138.2720 C   0  0  0  0  0  0  0  0  0  0  0  0
  193.9720  174.8970  136.2380 C   0  0  0  0  0  3  0  0  0  0  0  0
  196.6280  172.2150  138.2890 C   0  0  0  0  0  2  0  0  0  0  0  0
  196.1340  170.8530  138.1400 N   0  0  0  0  0  2  0  0  0  0  0  0
  194.7410  170.5350  138.2180 C   0  0  0  0  0  0  0  0  0  0  0  0
  192.7760  169.9000  139.4970 C   0  0  0  0  0  3  0  0  0  0  0  0
  193.9770  170.4980  137.0460 C   0  0  0  0  0  3  0  0  0  0  0  0
  194.1360  170.2280  139.4430 C   0  0  0  0  0  3  0  0  0  0  0  0
  192.0200  169.8600  138.3230 C   0  0  0  0  0  3  0  0  0  0  0  0
  192.6220  170.1540  137.0950 C   0  0  0  0  0  0  0  0  0  0  0  0
  191.8480  170.1000  135.8900 C   0  0  0  0  0  0  0  0  0  0  0  0
  191.2230  170.0520  134.9200 N   0  0  0  0  0  0  0  0  0  0  0  0
  191.4880  176.3540  148.0130 C   0  0  0  0  0  0  0  0  0  0  0  0
  191.7780  176.4260  146.5570 C   0  0  2  0  0  3  0  0  0  0  0  0
  190.4590  176.3310  147.0600 O   0  0  0  0  0  0  0  0  0  0  0  0
  191.4570  177.5310  148.7530 O   0  0  0  0  0  1  0  0  0  0  0  0
  191.5220  175.1510  148.7220 O   0  0  0  0  0  1  0  0  0  0  0  0
  190.5600  175.2440  144.2490 C   0  0  0  0  0  3  0  0  0  0  0  0
  191.4070  174.4730  144.9400 C   0  0  0  0  0  3  0  0  0  0  0  0
  189.7020  174.6460  143.1850 C   0  0  0  0  0  2  0  0  0  0  0  0
  188.1870  176.5300  143.6640 C   0  0  0  0  0  3  0  0  0  0  0  0
  187.2830  176.6980  141.0390 C   0  0  0  0  0  3  0  0  0  0  0  0
  187.2440  177.5020  143.3280 C   0  0  0  0  0  0  0  0  0  0  0  0
  186.8170  177.6210  141.9920 C   0  0  0  0  0  0  0  0  0  0  0  0
  188.2010  175.6970  141.3790 C   0  0  0  0  0  0  0  0  0  0  0  0
  188.6780  175.6290  142.7160 C   0  0  0  0  0  0  0  0  0  0  0  0
  188.5950  174.8220  140.3560 O   0  0  0  0  0  0  0  0  0  0  0  0
  188.4210  173.4070  140.3620 C   0  0  0  0  0  1  0  0  0  0  0  0
  185.9900  178.6940  141.6300 O   0  0  0  0  0  0  0  0  0  0  0  0
  184.3510  177.3380  140.3870 C   0  0  0  0  0  2  0  0  0  0  0  0
  184.6420  178.6110  141.1670 C   0  0  1  0  0  3  0  0  0  0  0  0
  183.6350  178.7750  142.2950 C   0  0  0  0  0  2  0  0  0  0  0  0
  181.9260  178.0450  140.6590 C   0  0  0  0  0  3  0  0  0  0  0  0
  182.9690  177.4430  139.7450 C   0  0  0  0  0  2  0  0  0  0  0  0
  182.2230  178.7200  141.7770 C   0  0  0  0  0  0  0  0  0  0  0  0
  181.2280  179.3650  142.5210 O   0  0  0  0  0  0  0  0  0  0  0  0
  180.0370  178.7190  142.9520 C   0  0  0  0  0  2  0  0  0  0  0  0
  178.9700  178.8200  141.8720 C   0  0  0  0  0  2  0  0  0  0  0  0
  177.7110  178.0700  142.2840 C   0  0  0  0  0  2  0  0  0  0  0  0
  178.0650  176.6450  142.6730 C   0  0  0  0  0  1  0  0  0  0  0  0
  186.7600  178.3250  144.3530 O   0  0  0  0  0  0  0  0  0  0  0  0
  185.6170  177.9870  145.1390 C   0  0  2  0  0  3  0  0  0  0  0  0
  185.0280  179.2400  145.8260 C   0  0  0  0  0  2  0  0  0  0  0  0
  185.9850  176.8930  146.1450 C   0  0  0  0  0  2  0  0  0  0  0  0
  186.9830  177.3910  147.1990 C   0  0  0  0  0  2  0  0  0  0  0  0
  185.3320  179.3170  147.3250 C   0  0  0  0  0  2  0  0  0  0  0  0
  186.7660  178.8580  147.6020 C   0  0  1  0  0  3  0  0  0  0  0  0
  187.0550  179.0170  148.9570 O   0  0  0  0  0  1  0  0  0  0  0  0
  1 40  1  6  0  0  0
  2  3  1  0  0  0  0
  3  1  1  6  0  0  0
  3  6  1  0  0  0  0
  4  2  2  0  0  0  0
  5  9  1  6  0  0  0
  5  8  1  0  0  0  0
  7  5  1  0  0  0  0
  7  2  1  0  0  0  0
  8  6  1  0  0  0  0
 10  9  1  0  0  0  0
 11 12  2  0  0  0  0
 12 10  1  0  0  0  0
 14 15  1  0  0  0  0
 15 11  1  0  0  0  0
 15 13  1  0  0  0  0
 16 24  1  6  0  0  0
 16 11  1  0  0  0  0
 17 18  1  0  0  0  0
 18 19  1  0  0  0  0
 19 21  2  0  0  0  0
 20 22  2  0  0  0  0
 22 21  1  0  0  0  0
 22 16  1  0  0  0  0
 23 18  2  0  0  0  0
 23 20  1  0  0  0  0
 25 26  1  0  0  0  0
 25 24  1  0  0  0  0
 26 29  1  0  0  0  0
 28 31  1  0  0  0  0
 28 26  2  0  0  0  0
 29 27  2  0  0  0  0
 30 27  1  0  0  0  0
 31 30  2  0  0  0  0
 32 31  1  0  0  0  0
 33 32  3  0  0  0  0
 34 38  1  0  0  0  0
 34 37  1  0  0  0  0
 35  1  1  6  0  0  0
 35 36  1  0  0  0  0
 35 34  1  0  0  0  0
 36 34  1  0  0  0  0
 39 40  2  0  0  0  0
 41 39  1  0  0  0  0
 43 46  2  0  0  0  0
 43 45  1  0  0  0  0
 44 42  1  0  0  0  0
 44 62  1  0  0  0  0
 45 44  2  0  0  0  0
 46 47  1  0  0  0  0
 47 41  1  0  0  0  0
 47 42  2  0  0  0  0
 48 49  1  0  0  0  0
 48 46  1  0  0  0  0
 50 45  1  0  0  0  0
 51 52  1  0  0  0  0
 52 50  1  1  0  0  0
 52 53  1  0  0  0  0
 54 56  2  0  0  0  0
 55 51  1  0  0  0  0
 55 54  1  0  0  0  0
 56 53  1  0  0  0  0
 56 57  1  0  0  0  0
 57 58  1  0  0  0  0
 59 60  1  0  0  0  0
 59 58  1  0  0  0  0
 60 61  1  0  0  0  0
 63 62  1  1  0  0  0
 63 64  1  0  0  0  0
 63 65  1  0  0  0  0
 64 67  1  0  0  0  0
 65 66  1  0  0  0  0
 66 68  1  0  0  0  0
 67 68  1  0  0  0  0
 68 69  1  1  0  0  0
M  END
>  <MODEL>
5

>  <REMARK>
 VINA RESULT:      -4.5      3.160      9.059
  Name = 
  24 active torsions:
  status: ('A' for Active; 'I' for Inactive)
    1  A    between atoms: C_1  and  C_12
    2  A    between atoms: C_1  and  C_52
    3  A    between atoms: C_5  and  C_54
    4  A    between atoms: C_6  and  O_33
    5  A    between atoms: N_9  and  C_11
    6  A    between atoms: N_9  and  C_15
    7  A    between atoms: C_10  and  C_24
    8  A    between atoms: C_12  and  C_15
    9  A    between atoms: C_12  and  C_49
   10  A    between atoms: C_17  and  C_24
   11  A    between atoms: C_19  and  O_30
   12  A    between atoms: C_21  and  C_65
   13  A    between atoms: C_22  and  C_50
   14  A    between atoms: C_24  and  C_28
   15  A    between atoms: O_27  and  N_42
   16  A    between atoms: O_27  and  C_50
   17  A    between atoms: C_29  and  C_68
   18  A    between atoms: O_30  and  C_40
   19  A    between atoms: C_32  and  O_33
   20  A    between atoms: O_35  and  C_45
   21  A    between atoms: O_35  and  C_46
   22  A    between atoms: O_41  and  C_62
   23  A    between atoms: C_45  and  C_68
   24  A    between atoms: C_54  and  C_64
                            x       y       z     vdW  Elec       q    Type
                         _______ _______ _______ _____ _____    ______ ____

>  <TORSDO>
F 24

$$$$
=
 OpenBabel11062418413D

 69 75  0  0  1  0  0  0  0  0999 V2000
  194.0820  173.5150  143.5600 C   0  0  1  0  0  3  0  0  0  0  0  0
  192.4100  172.3830  141.9980 C   0  0  0  0  0  0  0  0  0  0  0  0
  193.4800  172.1960  143.0460 C   0  0  2  0  0  3  0  0  0  0  0  0
  192.7170  172.8370  140.8660 O   0  0  0  0  0  0  0  0  0  0  0  0
  190.6770  171.2800  143.3850 C   0  0  1  0  0  3  0  0  0  0  0  0
  193.0310  171.2750  144.1850 C   0  0  0  0  0  2  0  0  0  0  0  0
  191.0700  172.0910  142.2780 O   0  0  0  0  0  0  0  0  0  0  0  0
  191.5810  171.5240  144.5870 C   0  0  0  0  0  2  0  0  0  0  0  0
  189.2300  171.5830  143.7550 C   0  0  0  0  0  2  0  0  0  0  0  0
  188.8700  172.8870  143.3290 O   0  0  0  0  0  0  0  0  0  0  0  0
  189.4760  175.1650  143.2510 C   0  0  0  0  0  0  0  0  0  0  0  0
  189.5730  173.9820  143.7810 N   0  0  0  0  0  0  0  0  0  0  0  0
  190.1640  177.5410  142.9720 C   0  0  0  0  0  1  0  0  0  0  0  0
  189.6430  176.6460  145.2340 C   0  0  0  0  0  1  0  0  0  0  0  0
  190.2200  176.3110  143.8680 C   0  0  0  0  0  3  0  0  0  0  0  0
  188.6530  175.4630  142.0210 C   0  0  1  0  0  3  0  0  0  0  0  0
  189.5320  171.6930  137.8060 N   0  0  0  0  0  1  0  0  0  0  0  0
  189.2950  172.6270  138.8510 C   0  0  0  0  0  0  0  0  0  0  0  0
  190.2120  173.6560  139.0830 C   0  0  0  0  0  3  0  0  0  0  0  0
  187.9390  173.4220  140.6960 C   0  0  0  0  0  3  0  0  0  0  0  0
  189.9930  174.5670  140.1220 C   0  0  0  0  0  3  0  0  0  0  0  0
  188.8600  174.4550  140.9340 C   0  0  0  0  0  0  0  0  0  0  0  0
  188.1590  172.5110  139.6540 C   0  0  0  0  0  3  0  0  0  0  0  0
  187.1780  175.7620  142.2570 C   0  0  0  0  0  2  0  0  0  0  0  0
  186.9500  177.1970  142.3590 N   0  0  0  0  0  2  0  0  0  0  0  0
  186.0980  177.7630  143.3600 C   0  0  0  0  0  0  0  0  0  0  0  0
  184.1610  179.0810  144.0040 C   0  0  0  0  0  3  0  0  0  0  0  0
  186.4140  177.5870  144.7130 C   0  0  0  0  0  3  0  0  0  0  0  0
  184.9730  178.5180  143.0110 C   0  0  0  0  0  3  0  0  0  0  0  0
  184.4850  178.9050  145.3510 C   0  0  0  0  0  3  0  0  0  0  0  0
  185.6150  178.1620  145.7070 C   0  0  0  0  0  0  0  0  0  0  0  0
  185.9530  177.9940  147.0890 C   0  0  0  0  0  0  0  0  0  0  0  0
  186.2260  177.8640  148.2040 N   0  0  0  0  0  0  0  0  0  0  0  0
  193.4270  175.0210  145.4680 C   0  0  0  0  0  0  0  0  0  0  0  0
  193.8290  173.6450  145.0780 C   0  0  2  0  0  3  0  0  0  0  0  0
  194.7250  174.5450  145.7020 O   0  0  0  0  0  0  0  0  0  0  0  0
  192.7430  175.2100  146.6650 O   0  0  0  0  0  1  0  0  0  0  0  0
  193.4540  176.0900  144.5690 O   0  0  0  0  0  1  0  0  0  0  0  0
  196.1430  172.7420  142.4500 C   0  0  0  0  0  3  0  0  0  0  0  0
  195.5220  173.6940  143.1560 C   0  0  0  0  0  3  0  0  0  0  0  0
  197.5600  172.9300  142.0240 C   0  0  0  0  0  2  0  0  0  0  0  0
  197.5590  172.6250  139.5780 C   0  0  0  0  0  3  0  0  0  0  0  0
  197.7290  175.3530  139.0620 C   0  0  0  0  0  3  0  0  0  0  0  0
  197.5910  173.0680  138.2560 C   0  0  0  0  0  0  0  0  0  0  0  0
  197.6310  174.4500  137.9890 C   0  0  0  0  0  0  0  0  0  0  0  0
  197.7360  174.9100  140.3910 C   0  0  0  0  0  0  0  0  0  0  0  0
  197.6250  173.5170  140.6510 C   0  0  0  0  0  0  0  0  0  0  0  0
  197.8460  175.8920  141.3870 O   0  0  0  0  0  0  0  0  0  0  0  0
  196.7600  176.4660  142.1100 C   0  0  0  0  0  1  0  0  0  0  0  0
  197.5070  174.8950  136.6650 O   0  0  0  0  0  0  0  0  0  0  0  0
  196.9830  176.6040  134.9690 C   0  0  0  0  0  2  0  0  0  0  0  0
  196.5060  175.7760  136.1530 C   0  0  1  0  0  3  0  0  0  0  0  0
  195.2240  175.0420  135.7940 C   0  0  0  0  0  2  0  0  0  0  0  0
  194.5150  177.1460  134.6980 C   0  0  0  0  0  3  0  0  0  0  0  0
  195.9350  177.6650  134.6390 C   0  0  0  0  0  2  0  0  0  0  0  0
  194.1730  175.9950  135.2900 C   0  0  0  0  0  0  0  0  0  0  0  0
  192.8310  175.6210  135.4280 O   0  0  0  0  0  0  0  0  0  0  0  0
  191.7540  176.5480  135.3560 C   0  0  0  0  0  2  0  0  0  0  0  0
  190.4500  175.8100  135.0900 C   0  0  0  0  0  2  0  0  0  0  0  0
  190.7050  174.3250  134.8690 C   0  0  0  0  0  2  0  0  0  0  0  0
  189.3860  173.5720  134.8610 C   0  0  0  0  0  1  0  0  0  0  0  0
  197.5820  172.1020  137.2410 O   0  0  0  0  0  0  0  0  0  0  0  0
  196.4020  171.7480  136.5210 C   0  0  2  0  0  3  0  0  0  0  0  0
  195.1340  172.0840  137.3380 C   0  0  0  0  0  2  0  0  0  0  0  0
  196.4610  170.2700  136.1220 C   0  0  0  0  0  2  0  0  0  0  0  0
  196.4010  169.3420  137.3430 C   0  0  0  0  0  2  0  0  0  0  0  0
  194.4510  170.8540  137.9430 C   0  0  0  0  0  2  0  0  0  0  0  0
  195.4970  169.8690  138.4690 C   0  0  1  0  0  3  0  0  0  0  0  0
  194.8590  168.7980  139.0940 O   0  0  0  0  0  1  0  0  0  0  0  0
  1 40  1  1  0  0  0
  2  7  1  0  0  0  0
  2  3  1  0  0  0  0
  3  1  1  1  0  0  0
  3  6  1  0  0  0  0
  4  2  2  0  0  0  0
  5  9  1  1  0  0  0
  5  8  1  0  0  0  0
  6  8  1  0  0  0  0
  7  5  1  0  0  0  0
 10  9  1  0  0  0  0
 10 12  1  0  0  0  0
 11 12  2  0  0  0  0
 11 15  1  0  0  0  0
 13 15  1  0  0  0  0
 15 14  1  0  0  0  0
 16 24  1  1  0  0  0
 16 11  1  0  0  0  0
 17 18  1  0  0  0  0
 18 19  2  0  0  0  0
 18 23  1  0  0  0  0
 19 21  1  0  0  0  0
 20 22  1  0  0  0  0
 21 22  2  0  0  0  0
 22 16  1  0  0  0  0
 23 20  2  0  0  0  0
 24 25  1  0  0  0  0
 25 26  1  0  0  0  0
 26 28  1  0  0  0  0
 27 30  2  0  0  0  0
 28 31  2  0  0  0  0
 29 26  2  0  0  0  0
 29 27  1  0  0  0  0
 30 31  1  0  0  0  0
 31 32  1  0  0  0  0
 32 33  3  0  0  0  0
 34 36  1  0  0  0  0
 34 37  1  0  0  0  0
 35  1  1  6  0  0  0
 35 34  1  0  0  0  0
 35 36  1  0  0  0  0
 38 34  1  0  0  0  0
 39 40  2  0  0  0  0
 41 39  1  0  0  0  0
 42 47  1  0  0  0  0
 43 46  1  0  0  0  0
 44 42  2  0  0  0  0
 45 44  1  0  0  0  0
 45 43  2  0  0  0  0
 46 47  2  0  0  0  0
 46 48  1  0  0  0  0
 47 41  1  0  0  0  0
 48 49  1  0  0  0  0
 50 45  1  0  0  0  0
 51 52  1  0  0  0  0
 52 50  1  6  0  0  0
 53 52  1  0  0  0  0
 54 56  2  0  0  0  0
 55 54  1  0  0  0  0
 55 51  1  0  0  0  0
 56 57  1  0  0  0  0
 56 53  1  0  0  0  0
 58 57  1  0  0  0  0
 59 58  1  0  0  0  0
 60 59  1  0  0  0  0
 61 60  1  0  0  0  0
 62 44  1  0  0  0  0
 63 62  1  1  0  0  0
 63 64  1  0  0  0  0
 64 67  1  0  0  0  0
 65 63  1  0  0  0  0
 65 66  1  0  0  0  0
 66 68  1  0  0  0  0
 67 68  1  0  0  0  0
 68 69  1  6  0  0  0
M  END
>  <MODEL>
6

>  <REMARK>
 VINA RESULT:      -4.2      3.083      7.665
  Name = 
  24 active torsions:
  status: ('A' for Active; 'I' for Inactive)
    1  A    between atoms: C_1  and  C_12
    2  A    between atoms: C_1  and  C_52
    3  A    between atoms: C_5  and  C_54
    4  A    between atoms: C_6  and  O_33
    5  A    between atoms: N_9  and  C_11
    6  A    between atoms: N_9  and  C_15
    7  A    between atoms: C_10  and  C_24
    8  A    between atoms: C_12  and  C_15
    9  A    between atoms: C_12  and  C_49
   10  A    between atoms: C_17  and  C_24
   11  A    between atoms: C_19  and  O_30
   12  A    between atoms: C_21  and  C_65
   13  A    between atoms: C_22  and  C_50
   14  A    between atoms: C_24  and  C_28
   15  A    between atoms: O_27  and  N_42
   16  A    between atoms: O_27  and  C_50
   17  A    between atoms: C_29  and  C_68
   18  A    between atoms: O_30  and  C_40
   19  A    between atoms: C_32  and  O_33
   20  A    between atoms: O_35  and  C_45
   21  A    between atoms: O_35  and  C_46
   22  A    between atoms: O_41  and  C_62
   23  A    between atoms: C_45  and  C_68
   24  A    between atoms: C_54  and  C_64
                            x       y       z     vdW  Elec       q    Type
                         _______ _______ _______ _____ _____    ______ ____

>  <TORSDO>
F 24

$$$$
=
 OpenBabel11062418413D

 69 75  0  0  1  0  0  0  0  0999 V2000
  189.8080  174.9790  145.0500 C   0  0  1  0  0  3  0  0  0  0  0  0
  190.2060  172.6520  144.0790 C   0  0  0  0  0  0  0  0  0  0  0  0
  189.3980  173.9240  144.0070 C   0  0  2  0  0  3  0  0  0  0  0  0
  190.0950  171.8970  145.0790 O   0  0  0  0  0  0  0  0  0  0  0  0
  191.0610  172.9120  141.7670 C   0  0  1  0  0  3  0  0  0  0  0  0
  189.3330  174.4990  142.5880 C   0  0  0  0  0  2  0  0  0  0  0  0
  191.1060  172.3130  143.0620 O   0  0  0  0  0  0  0  0  0  0  0  0
  190.6680  174.3810  141.8600 C   0  0  0  0  0  2  0  0  0  0  0  0
  192.4220  172.7810  141.0930 C   0  0  0  0  0  2  0  0  0  0  0  0
  193.2410  173.8960  141.4070 O   0  0  0  0  0  0  0  0  0  0  0  0
  195.5220  174.0830  141.9790 C   0  0  0  0  0  0  0  0  0  0  0  0
  194.3000  173.7540  142.2770 N   0  0  0  0  0  0  0  0  0  0  0  0
  196.9620  175.3380  143.5740 C   0  0  0  0  0  1  0  0  0  0  0  0
  196.1310  173.0660  144.1580 C   0  0  0  0  0  1  0  0  0  0  0  0
  196.5910  173.9680  143.0240 C   0  0  0  0  0  3  0  0  0  0  0  0
  195.9440  174.5750  140.6160 C   0  0  1  0  0  3  0  0  0  0  0  0
  197.6840  170.4140  137.0940 N   0  0  0  0  0  1  0  0  0  0  0  0
  197.2350  171.4410  137.9680 C   0  0  0  0  0  0  0  0  0  0  0  0
  197.8780  172.6810  137.9710 C   0  0  0  0  0  3  0  0  0  0  0  0
  195.7350  172.2180  139.7070 C   0  0  0  0  0  3  0  0  0  0  0  0
  197.4510  173.6890  138.8420 C   0  0  0  0  0  3  0  0  0  0  0  0
  196.3830  173.4640  139.7150 C   0  0  0  0  0  0  0  0  0  0  0  0
  196.1630  171.2090  138.8320 C   0  0  0  0  0  3  0  0  0  0  0  0
  194.9850  175.5360  139.9230 C   0  0  0  0  0  2  0  0  0  0  0  0
  195.0220  175.3530  138.4790 N   0  0  0  0  0  2  0  0  0  0  0  0
  193.8310  175.2040  137.7000 C   0  0  0  0  0  0  0  0  0  0  0  0
  192.3070  175.9880  135.9780 C   0  0  0  0  0  3  0  0  0  0  0  0
  192.9780  174.1200  137.9450 C   0  0  0  0  0  3  0  0  0  0  0  0
  193.4860  176.1400  136.7180 C   0  0  0  0  0  3  0  0  0  0  0  0
  191.4580  174.9080  136.2320 C   0  0  0  0  0  3  0  0  0  0  0  0
  191.7910  173.9760  137.2200 C   0  0  0  0  0  0  0  0  0  0  0  0
  190.9130  172.8750  137.4880 C   0  0  0  0  0  0  0  0  0  0  0  0
  190.2050  171.9900  137.7090 N   0  0  0  0  0  0  0  0  0  0  0  0
  192.1580  175.8550  144.8320 C   0  0  0  0  0  0  0  0  0  0  0  0
  190.7460  176.0180  144.3970 C   0  0  2  0  0  3  0  0  0  0  0  0
  191.3470  176.8770  145.3470 O   0  0  0  0  0  0  0  0  0  0  0  0
  193.1730  176.3780  144.0360 O   0  0  0  0  0  1  0  0  0  0  0  0
  192.5300  174.9700  145.8470 O   0  0  0  0  0  1  0  0  0  0  0  0
  187.8880  176.5200  145.1720 C   0  0  0  0  0  3  0  0  0  0  0  0
  188.6270  175.5770  145.7680 C   0  0  0  0  0  3  0  0  0  0  0  0
  186.7000  177.0920  145.8700 C   0  0  0  0  0  2  0  0  0  0  0  0
  185.8270  177.1630  143.5670 C   0  0  0  0  0  3  0  0  0  0  0  0
  183.7560  178.9010  144.2190 C   0  0  0  0  0  3  0  0  0  0  0  0
  184.9400  177.5730  142.5700 C   0  0  0  0  0  0  0  0  0  0  0  0
  183.8640  178.4170  142.9040 C   0  0  0  0  0  0  0  0  0  0  0  0
  184.6650  178.5230  145.2150 C   0  0  0  0  0  0  0  0  0  0  0  0
  185.7080  177.6160  144.8820 C   0  0  0  0  0  0  0  0  0  0  0  0
  184.4730  179.0710  146.4920 O   0  0  0  0  0  0  0  0  0  0  0  0
  184.3270  178.3270  147.6990 C   0  0  0  0  0  1  0  0  0  0  0  0
  182.8910  178.7010  141.9350 O   0  0  0  0  0  0  0  0  0  0  0  0
  180.6640  179.4860  142.6380 C   0  0  0  0  0  2  0  0  0  0  0  0
  181.5000  178.3840  142.0060 C   0  0  1  0  0  3  0  0  0  0  0  0
  180.9270  178.0050  140.6490 C   0  0  0  0  0  2  0  0  0  0  0  0
  178.7030  178.1510  141.7270 C   0  0  0  0  0  3  0  0  0  0  0  0
  179.2450  178.9710  142.8760 C   0  0  0  0  0  2  0  0  0  0  0  0
  179.4710  177.6410  140.7560 C   0  0  0  0  0  0  0  0  0  0  0  0
  178.9380  176.7840  139.7850 O   0  0  0  0  0  0  0  0  0  0  0  0
  178.6820  177.1890  138.4460 C   0  0  0  0  0  2  0  0  0  0  0  0
  179.4590  176.3070  137.4780 C   0  0  0  0  0  2  0  0  0  0  0  0
  178.5730  175.1990  136.9280 C   0  0  0  0  0  2  0  0  0  0  0  0
  179.1180  173.8460  137.3520 C   0  0  0  0  0  1  0  0  0  0  0  0
  185.1690  177.1200  141.2640 O   0  0  0  0  0  0  0  0  0  0  0  0
  186.0280  177.7990  140.3490 C   0  0  2  0  0  3  0  0  0  0  0  0
  185.8240  177.2800  138.9090 C   0  0  0  0  0  2  0  0  0  0  0  0
  187.4820  177.6720  140.8120 C   0  0  0  0  0  2  0  0  0  0  0  0
  187.9870  176.2250  140.7350 C   0  0  0  0  0  2  0  0  0  0  0  0
  186.9560  176.3730  138.4180 C   0  0  0  0  0  2  0  0  0  0  0  0
  187.4170  175.4410  139.5420 C   0  0  1  0  0  3  0  0  0  0  0  0
  188.3860  174.5640  139.0540 O   0  0  0  0  0  1  0  0  0  0  0  0
  1 40  1  6  0  0  0
  2  4  2  0  0  0  0
  3  2  1  0  0  0  0
  3  1  1  1  0  0  0
  5  9  1  1  0  0  0
  5  8  1  0  0  0  0
  5  7  1  0  0  0  0
  6  3  1  0  0  0  0
  7  2  1  0  0  0  0
  8  6  1  0  0  0  0
  9 10  1  0  0  0  0
 10 12  1  0  0  0  0
 11 12  2  0  0  0  0
 11 15  1  0  0  0  0
 15 13  1  0  0  0  0
 15 14  1  0  0  0  0
 16 24  1  6  0  0  0
 16 11  1  0  0  0  0
 17 18  1  0  0  0  0
 18 19  2  0  0  0  0
 18 23  1  0  0  0  0
 19 21  1  0  0  0  0
 20 22  1  0  0  0  0
 21 22  2  0  0  0  0
 22 16  1  0  0  0  0
 23 20  2  0  0  0  0
 25 24  1  0  0  0  0
 26 28  1  0  0  0  0
 26 25  1  0  0  0  0
 27 30  2  0  0  0  0
 27 29  1  0  0  0  0
 29 26  2  0  0  0  0
 30 31  1  0  0  0  0
 31 32  1  0  0  0  0
 31 28  2  0  0  0  0
 32 33  3  0  0  0  0
 34 36  1  0  0  0  0
 34 38  1  0  0  0  0
 35 34  1  0  0  0  0
 35  1  1  1  0  0  0
 35 36  1  0  0  0  0
 37 34  1  0  0  0  0
 39 40  2  0  0  0  0
 39 41  1  0  0  0  0
 42 47  1  0  0  0  0
 43 46  1  0  0  0  0
 44 45  1  0  0  0  0
 44 42  2  0  0  0  0
 45 43  2  0  0  0  0
 46 48  1  0  0  0  0
 47 46  2  0  0  0  0
 47 41  1  0  0  0  0
 48 49  1  0  0  0  0
 50 45  1  0  0  0  0
 51 55  1  0  0  0  0
 52 50  1  6  0  0  0
 52 51  1  0  0  0  0
 53 56  1  0  0  0  0
 53 52  1  0  0  0  0
 54 55  1  0  0  0  0
 56 54  2  0  0  0  0
 57 56  1  0  0  0  0
 58 57  1  0  0  0  0
 59 58  1  0  0  0  0
 60 61  1  0  0  0  0
 60 59  1  0  0  0  0
 62 44  1  0  0  0  0
 63 65  1  0  0  0  0
 63 62  1  1  0  0  0
 64 63  1  0  0  0  0
 66 65  1  0  0  0  0
 67 64  1  0  0  0  0
 67 68  1  0  0  0  0
 68 69  1  6  0  0  0
 68 66  1  0  0  0  0
M  END
>  <MODEL>
7

>  <REMARK>
 VINA RESULT:      -4.1      3.604      8.685
  Name = 
  24 active torsions:
  status: ('A' for Active; 'I' for Inactive)
    1  A    between atoms: C_1  and  C_12
    2  A    between atoms: C_1  and  C_52
    3  A    between atoms: C_5  and  C_54
    4  A    between atoms: C_6  and  O_33
    5  A    between atoms: N_9  and  C_11
    6  A    between atoms: N_9  and  C_15
    7  A    between atoms: C_10  and  C_24
    8  A    between atoms: C_12  and  C_15
    9  A    between atoms: C_12  and  C_49
   10  A    between atoms: C_17  and  C_24
   11  A    between atoms: C_19  and  O_30
   12  A    between atoms: C_21  and  C_65
   13  A    between atoms: C_22  and  C_50
   14  A    between atoms: C_24  and  C_28
   15  A    between atoms: O_27  and  N_42
   16  A    between atoms: O_27  and  C_50
   17  A    between atoms: C_29  and  C_68
   18  A    between atoms: O_30  and  C_40
   19  A    between atoms: C_32  and  O_33
   20  A    between atoms: O_35  and  C_45
   21  A    between atoms: O_35  and  C_46
   22  A    between atoms: O_41  and  C_62
   23  A    between atoms: C_45  and  C_68
   24  A    between atoms: C_54  and  C_64
                            x       y       z     vdW  Elec       q    Type
                         _______ _______ _______ _____ _____    ______ ____

>  <TORSDO>
F 24

$$$$
=
 OpenBabel11062418413D

 69 75  0  0  1  0  0  0  0  0999 V2000
  194.1830  174.5440  145.3560 C   0  0  1  0  0  3  0  0  0  0  0  0
  193.9400  176.5410  143.7840 C   0  0  0  0  0  0  0  0  0  0  0  0
  194.2180  175.0630  143.9070 C   0  0  2  0  0  3  0  0  0  0  0  0
  194.7660  177.3720  144.2410 O   0  0  0  0  0  0  0  0  0  0  0  0
  191.9360  176.1770  142.3710 C   0  0  1  0  0  3  0  0  0  0  0  0
  193.3530  174.2220  142.9630 C   0  0  0  0  0  2  0  0  0  0  0  0
  192.7570  177.0030  143.1970 O   0  0  0  0  0  0  0  0  0  0  0  0
  191.9210  174.7420  142.8810 C   0  0  0  0  0  2  0  0  0  0  0  0
  190.5160  176.7310  142.3410 C   0  0  0  0  0  2  0  0  0  0  0  0
  190.0990  177.1040  143.6440 O   0  0  0  0  0  0  0  0  0  0  0  0
  188.9540  175.3220  144.6810 C   0  0  0  0  0  0  0  0  0  0  0  0
  189.9570  176.1470  144.6250 N   0  0  0  0  0  0  0  0  0  0  0  0
  189.9440  173.1670  145.4350 C   0  0  0  0  0  1  0  0  0  0  0  0
  189.2270  174.8670  147.1050 C   0  0  0  0  0  1  0  0  0  0  0  0
  188.9320  174.2620  145.7420 C   0  0  0  0  0  3  0  0  0  0  0  0
  187.7810  175.3690  143.7320 C   0  0  1  0  0  3  0  0  0  0  0  0
  183.9100  179.3640  145.0750 N   0  0  0  0  0  1  0  0  0  0  0  0
  184.8830  178.3790  144.7540 C   0  0  0  0  0  0  0  0  0  0  0  0
  184.9290  177.8430  143.4650 C   0  0  0  0  0  3  0  0  0  0  0  0
  186.7280  176.9500  145.4110 C   0  0  0  0  0  3  0  0  0  0  0  0
  185.8720  176.8600  143.1490 C   0  0  0  0  0  3  0  0  0  0  0  0
  186.7730  176.4060  144.1170 C   0  0  0  0  0  0  0  0  0  0  0  0
  185.7830  177.9360  145.7260 C   0  0  0  0  0  3  0  0  0  0  0  0
  188.1200  175.4160  142.2480 C   0  0  0  0  0  2  0  0  0  0  0  0
  187.9330  174.1100  141.6320 N   0  0  0  0  0  2  0  0  0  0  0  0
  189.0240  173.3620  141.0860 C   0  0  0  0  0  0  0  0  0  0  0  0
  190.7390  173.0320  139.3970 C   0  0  0  0  0  3  0  0  0  0  0  0
  189.4170  172.1680  141.7030 C   0  0  0  0  0  3  0  0  0  0  0  0
  189.6850  173.7860  139.9270 C   0  0  0  0  0  3  0  0  0  0  0  0
  191.1220  171.8390  140.0150 C   0  0  0  0  0  3  0  0  0  0  0  0
  190.4580  171.4030  141.1650 C   0  0  0  0  0  0  0  0  0  0  0  0
  190.8440  170.1730  141.7900 C   0  0  0  0  0  0  0  0  0  0  0  0
  191.1540  169.1830  142.2980 N   0  0  0  0  0  0  0  0  0  0  0  0
  192.8980  176.0700  146.8910 C   0  0  0  0  0  0  0  0  0  0  0  0
  192.8200  174.8860  145.9970 C   0  0  2  0  0  3  0  0  0  0  0  0
  192.8390  174.7670  147.4060 O   0  0  0  0  0  0  0  0  0  0  0  0
  191.7330  176.7730  147.1820 O   0  0  0  0  0  1  0  0  0  0  0  0
  194.1130  176.6730  147.2280 O   0  0  0  0  0  1  0  0  0  0  0  0
  195.8510  172.7520  145.6480 C   0  0  0  0  0  3  0  0  0  0  0  0
  194.5700  173.0920  145.4630 C   0  0  0  0  0  3  0  0  0  0  0  0
  196.2320  171.3170  145.7850 C   0  0  0  0  0  2  0  0  0  0  0  0
  196.8810  171.2400  143.4090 C   0  0  0  0  0  3  0  0  0  0  0  0
  195.5860  168.8220  142.9520 C   0  0  0  0  0  3  0  0  0  0  0  0
  196.9240  170.6730  142.1350 C   0  0  0  0  0  0  0  0  0  0  0  0
  196.3090  169.4270  141.9100 C   0  0  0  0  0  0  0  0  0  0  0  0
  195.5070  169.4050  144.2220 C   0  0  0  0  0  0  0  0  0  0  0  0
  196.1910  170.6300  144.4580 C   0  0  0  0  0  0  0  0  0  0  0  0
  194.7530  168.7250  145.1890 O   0  0  0  0  0  0  0  0  0  0  0  0
  193.3320  168.7440  145.2980 C   0  0  0  0  0  1  0  0  0  0  0  0
  196.4850  168.7900  140.6730 O   0  0  0  0  0  0  0  0  0  0  0  0
  194.2770  169.5330  139.8730 C   0  0  0  0  0  2  0  0  0  0  0  0
  195.5530  168.7540  139.5920 C   0  0  1  0  0  3  0  0  0  0  0  0
  196.1730  169.2190  138.2830 C   0  0  0  0  0  2  0  0  0  0  0  0
  193.8670  169.2340  137.3830 C   0  0  0  0  0  3  0  0  0  0  0  0
  193.2600  169.2520  138.7680 C   0  0  0  0  0  2  0  0  0  0  0  0
  195.1820  169.1390  137.1530 C   0  0  0  0  0  0  0  0  0  0  0  0
  195.6830  168.9990  135.8530 O   0  0  0  0  0  0  0  0  0  0  0  0
  195.9740  170.1060  135.0090 C   0  0  0  0  0  2  0  0  0  0  0  0
  196.8910  171.0840  135.7310 C   0  0  0  0  0  2  0  0  0  0  0  0
  196.3170  172.4930  135.6880 C   0  0  0  0  0  2  0  0  0  0  0  0
  194.8000  172.4310  135.6800 C   0  0  0  0  0  1  0  0  0  0  0  0
  197.5870  171.3820  141.1250 O   0  0  0  0  0  0  0  0  0  0  0  0
  196.9020  171.9960  140.0340 C   0  0  2  0  0  3  0  0  0  0  0  0
  197.8980  172.6650  139.0600 C   0  0  0  0  0  2  0  0  0  0  0  0
  195.8580  172.9820  140.5660 C   0  0  0  0  0  2  0  0  0  0  0  0
  196.5060  174.1810  141.2710 C   0  0  0  0  0  2  0  0  0  0  0  0
  197.9240  174.1930  139.1640 C   0  0  0  0  0  2  0  0  0  0  0  0
  197.8280  174.6280  140.6280 C   0  0  1  0  0  3  0  0  0  0  0  0
  197.9410  176.0160  140.7120 O   0  0  0  0  0  1  0  0  0  0  0  0
  1 40  1  6  0  0  0
  2  3  1  0  0  0  0
  2  4  2  0  0  0  0
  3  1  1  1  0  0  0
  5  9  1  1  0  0  0
  5  8  1  0  0  0  0
  5  7  1  0  0  0  0
  6  3  1  0  0  0  0
  7  2  1  0  0  0  0
  8  6  1  0  0  0  0
  9 10  1  0  0  0  0
 10 12  1  0  0  0  0
 11 15  1  0  0  0  0
 12 11  2  0  0  0  0
 13 15  1  0  0  0  0
 15 14  1  0  0  0  0
 16 24  1  6  0  0  0
 16 22  1  0  0  0  0
 16 11  1  0  0  0  0
 18 17  1  0  0  0  0
 18 23  1  0  0  0  0
 19 18  2  0  0  0  0
 20 23  2  0  0  0  0
 21 19  1  0  0  0  0
 21 22  2  0  0  0  0
 22 20  1  0  0  0  0
 25 24  1  0  0  0  0
 26 25  1  0  0  0  0
 26 28  1  0  0  0  0
 27 29  1  0  0  0  0
 27 30  2  0  0  0  0
 29 26  2  0  0  0  0
 30 31  1  0  0  0  0
 31 28  2  0  0  0  0
 31 32  1  0  0  0  0
 32 33  3  0  0  0  0
 34 37  1  0  0  0  0
 34 38  1  0  0  0  0
 34 36  1  0  0  0  0
 35  1  1  6  0  0  0
 35 34  1  0  0  0  0
 35 36  1  0  0  0  0
 39 41  1  0  0  0  0
 40 39  2  0  0  0  0
 42 47  1  0  0  0  0
 43 46  1  0  0  0  0
 44 42  2  0  0  0  0
 45 44  1  0  0  0  0
 45 43  2  0  0  0  0
 46 47  2  0  0  0  0
 46 48  1  0  0  0  0
 47 41  1  0  0  0  0
 48 49  1  0  0  0  0
 50 45  1  0  0  0  0
 52 51  1  0  0  0  0
 52 50  1  1  0  0  0
 53 52  1  0  0  0  0
 54 55  1  0  0  0  0
 55 51  1  0  0  0  0
 56 54  2  0  0  0  0
 56 53  1  0  0  0  0
 57 56  1  0  0  0  0
 58 59  1  0  0  0  0
 58 57  1  0  0  0  0
 60 59  1  0  0  0  0
 61 60  1  0  0  0  0
 62 44  1  0  0  0  0
 63 65  1  0  0  0  0
 63 62  1  1  0  0  0
 64 67  1  0  0  0  0
 64 63  1  0  0  0  0
 65 66  1  0  0  0  0
 67 68  1  0  0  0  0
 68 69  1  6  0  0  0
 68 66  1  0  0  0  0
M  END
>  <MODEL>
8

>  <REMARK>
 VINA RESULT:      -4.1      3.083      8.341
  Name = 
  24 active torsions:
  status: ('A' for Active; 'I' for Inactive)
    1  A    between atoms: C_1  and  C_12
    2  A    between atoms: C_1  and  C_52
    3  A    between atoms: C_5  and  C_54
    4  A    between atoms: C_6  and  O_33
    5  A    between atoms: N_9  and  C_11
    6  A    between atoms: N_9  and  C_15
    7  A    between atoms: C_10  and  C_24
    8  A    between atoms: C_12  and  C_15
    9  A    between atoms: C_12  and  C_49
   10  A    between atoms: C_17  and  C_24
   11  A    between atoms: C_19  and  O_30
   12  A    between atoms: C_21  and  C_65
   13  A    between atoms: C_22  and  C_50
   14  A    between atoms: C_24  and  C_28
   15  A    between atoms: O_27  and  N_42
   16  A    between atoms: O_27  and  C_50
   17  A    between atoms: C_29  and  C_68
   18  A    between atoms: O_30  and  C_40
   19  A    between atoms: C_32  and  O_33
   20  A    between atoms: O_35  and  C_45
   21  A    between atoms: O_35  and  C_46
   22  A    between atoms: O_41  and  C_62
   23  A    between atoms: C_45  and  C_68
   24  A    between atoms: C_54  and  C_64
                            x       y       z     vdW  Elec       q    Type
                         _______ _______ _______ _____ _____    ______ ____

>  <TORSDO>
F 24

$$$$
=
 OpenBabel11062418413D

 69 75  0  0  1  0  0  0  0  0999 V2000
  192.9800  174.2180  144.3980 C   0  0  1  0  0  3  0  0  0  0  0  0
  192.1220  172.8400  142.4280 C   0  0  0  0  0  0  0  0  0  0  0  0
  192.4510  172.8610  143.9010 C   0  0  2  0  0  3  0  0  0  0  0  0
  193.0460  172.9400  141.5800 O   0  0  0  0  0  0  0  0  0  0  0  0
  189.7370  172.3040  142.8370 C   0  0  1  0  0  3  0  0  0  0  0  0
  191.3050  172.3280  144.7660 C   0  0  0  0  0  2  0  0  0  0  0  0
  190.7970  172.7460  141.9880 O   0  0  0  0  0  0  0  0  0  0  0  0
  189.9420  172.7940  144.2650 C   0  0  0  0  0  2  0  0  0  0  0  0
  188.4040  172.8140  142.3010 C   0  0  0  0  0  2  0  0  0  0  0  0
  188.6080  173.8960  141.4070 O   0  0  0  0  0  0  0  0  0  0  0  0
  188.7360  176.2170  141.8050 C   0  0  0  0  0  0  0  0  0  0  0  0
  189.2660  175.0290  141.8300 N   0  0  0  0  0  0  0  0  0  0  0  0
  188.7600  178.6840  142.1320 C   0  0  0  0  0  1  0  0  0  0  0  0
  189.7470  177.1840  143.8530 C   0  0  0  0  0  1  0  0  0  0  0  0
  189.5040  177.3760  142.3650 C   0  0  0  0  0  3  0  0  0  0  0  0
  187.3730  176.5100  141.2260 C   0  0  1  0  0  3  0  0  0  0  0  0
  187.0340  175.6530  135.5780 N   0  0  0  0  0  1  0  0  0  0  0  0
  187.1180  175.8470  136.9840 C   0  0  0  0  0  0  0  0  0  0  0  0
  186.5580  176.9890  137.5620 C   0  0  0  0  0  3  0  0  0  0  0  0
  187.8700  175.1140  139.1690 C   0  0  0  0  0  3  0  0  0  0  0  0
  186.6550  177.1940  138.9420 C   0  0  0  0  0  3  0  0  0  0  0  0
  187.3110  176.2630  139.7520 C   0  0  0  0  0  0  0  0  0  0  0  0
  187.7710  174.9080  137.7860 C   0  0  0  0  0  3  0  0  0  0  0  0
  186.1870  175.9030  141.9640 C   0  0  0  0  0  2  0  0  0  0  0  0
  186.3790  175.9790  143.4060 N   0  0  0  0  0  2  0  0  0  0  0  0
  185.8350  177.0440  144.1910 C   0  0  0  0  0  0  0  0  0  0  0  0
  184.2530  178.8620  144.4990 C   0  0  0  0  0  3  0  0  0  0  0  0
  186.4080  177.3470  145.4330 C   0  0  0  0  0  3  0  0  0  0  0  0
  184.7600  177.8110  143.7260 C   0  0  0  0  0  3  0  0  0  0  0  0
  184.8330  179.1610  145.7350 C   0  0  0  0  0  3  0  0  0  0  0  0
  185.9140  178.4070  146.2000 C   0  0  0  0  0  0  0  0  0  0  0  0
  186.5160  178.7240  147.4610 C   0  0  0  0  0  0  0  0  0  0  0  0
  187.0010  178.9730  148.4790 N   0  0  0  0  0  0  0  0  0  0  0  0
  192.2010  175.8780  146.1230 C   0  0  0  0  0  0  0  0  0  0  0  0
  192.5210  174.4520  145.8540 C   0  0  2  0  0  3  0  0  0  0  0  0
  193.3990  175.3000  146.5690 O   0  0  0  0  0  0  0  0  0  0  0  0
  191.3700  176.1930  147.1930 O   0  0  0  0  0  1  0  0  0  0  0  0
  192.4650  176.8900  145.1960 O   0  0  0  0  0  1  0  0  0  0  0  0
  195.2460  173.2970  144.0830 C   0  0  0  0  0  3  0  0  0  0  0  0
  194.4630  174.3770  144.1850 C   0  0  0  0  0  3  0  0  0  0  0  0
  196.7090  173.4530  143.8420 C   0  0  0  0  0  2  0  0  0  0  0  0
  196.7380  172.7420  141.4830 C   0  0  0  0  0  3  0  0  0  0  0  0
  197.6060  175.2200  140.5650 C   0  0  0  0  0  3  0  0  0  0  0  0
  196.9370  172.9310  140.1150 C   0  0  0  0  0  0  0  0  0  0  0  0
  197.3320  174.1960  139.6400 C   0  0  0  0  0  0  0  0  0  0  0  0
  197.4450  175.0230  141.9410 C   0  0  0  0  0  0  0  0  0  0  0  0
  196.9790  173.7620  142.4050 C   0  0  0  0  0  0  0  0  0  0  0  0
  197.7540  176.1060  142.7780 O   0  0  0  0  0  0  0  0  0  0  0  0
  196.8060  176.9280  143.4540 C   0  0  0  0  0  1  0  0  0  0  0  0
  197.3810  174.4240  138.2580 O   0  0  0  0  0  0  0  0  0  0  0  0
  196.5970  175.7030  136.3040 C   0  0  0  0  0  2  0  0  0  0  0  0
  196.2730  174.7000  137.4000 C   0  0  1  0  0  3  0  0  0  0  0  0
  195.6860  173.4350  136.7940 C   0  0  0  0  0  2  0  0  0  0  0  0
  194.3830  174.9370  135.3200 C   0  0  0  0  0  3  0  0  0  0  0  0
  195.3080  176.1030  135.5870 C   0  0  0  0  0  2  0  0  0  0  0  0
  194.4990  173.7480  135.9240 C   0  0  0  0  0  0  0  0  0  0  0  0
  193.5420  172.7430  135.7360 O   0  0  0  0  0  0  0  0  0  0  0  0
  192.3040  172.7080  136.4350 C   0  0  0  0  0  2  0  0  0  0  0  0
  192.0570  174.0430  137.1230 C   0  0  0  0  0  2  0  0  0  0  0  0
  191.0960  174.8990  136.3110 C   0  0  0  0  0  2  0  0  0  0  0  0
  190.3110  174.0220  135.3510 C   0  0  0  0  0  1  0  0  0  0  0  0
  196.7310  171.8360  139.2660 O   0  0  0  0  0  0  0  0  0  0  0  0
  196.7030  170.4880  139.7360 C   0  0  2  0  0  3  0  0  0  0  0  0
  197.9390  169.7040  139.2420 C   0  0  0  0  0  2  0  0  0  0  0  0
  195.3880  169.8220  139.3230 C   0  0  0  0  0  2  0  0  0  0  0  0
  195.2840  169.6480  137.8020 C   0  0  0  0  0  2  0  0  0  0  0  0
  197.6270  168.7170  138.1130 C   0  0  0  0  0  2  0  0  0  0  0  0
  196.6290  169.3340  137.1280 C   0  0  1  0  0  3  0  0  0  0  0  0
  196.4230  168.4590  136.0610 O   0  0  0  0  0  1  0  0  0  0  0  0
  1 40  1  1  0  0  0
  2  3  1  0  0  0  0
  3  1  1  1  0  0  0
  3  6  1  0  0  0  0
  4  2  2  0  0  0  0
  5  9  1  6  0  0  0
  5  8  1  0  0  0  0
  7  2  1  0  0  0  0
  7  5  1  0  0  0  0
  8  6  1  0  0  0  0
 10 12  1  0  0  0  0
 10  9  1  0  0  0  0
 11 12  2  0  0  0  0
 11 15  1  0  0  0  0
 13 15  1  0  0  0  0
 15 14  1  0  0  0  0
 16 11  1  0  0  0  0
 16 24  1  1  0  0  0
 17 18  1  0  0  0  0
 18 19  2  0  0  0  0
 18 23  1  0  0  0  0
 19 21  1  0  0  0  0
 20 22  1  0  0  0  0
 21 22  2  0  0  0  0
 22 16  1  0  0  0  0
 23 20  2  0  0  0  0
 24 25  1  0  0  0  0
 25 26  1  0  0  0  0
 26 28  1  0  0  0  0
 27 30  2  0  0  0  0
 28 31  2  0  0  0  0
 29 26  2  0  0  0  0
 29 27  1  0  0  0  0
 30 31  1  0  0  0  0
 31 32  1  0  0  0  0
 32 33  3  0  0  0  0
 34 36  1  0  0  0  0
 34 37  1  0  0  0  0
 35  1  1  6  0  0  0
 35 34  1  0  0  0  0
 35 36  1  0  0  0  0
 38 34  1  0  0  0  0
 39 40  2  0  0  0  0
 41 39  1  0  0  0  0
 42 47  1  0  0  0  0
 43 46  1  0  0  0  0
 44 42  2  0  0  0  0
 45 44  1  0  0  0  0
 45 43  2  0  0  0  0
 46 47  2  0  0  0  0
 46 48  1  0  0  0  0
 47 41  1  0  0  0  0
 48 49  1  0  0  0  0
 50 45  1  0  0  0  0
 51 52  1  0  0  0  0
 52 50  1  6  0  0  0
 53 52  1  0  0  0  0
 54 55  1  0  0  0  0
 54 56  2  0  0  0  0
 55 51  1  0  0  0  0
 56 53  1  0  0  0  0
 57 56  1  0  0  0  0
 57 58  1  0  0  0  0
 58 59  1  0  0  0  0
 60 59  1  0  0  0  0
 61 60  1  0  0  0  0
 62 44  1  0  0  0  0
 63 62  1  6  0  0  0
 64 63  1  0  0  0  0
 65 63  1  0  0  0  0
 66 65  1  0  0  0  0
 67 64  1  0  0  0  0
 68 69  1  6  0  0  0
 68 66  1  0  0  0  0
 68 67  1  0  0  0  0
M  END
>  <MODEL>
9

>  <REMARK>
 VINA RESULT:      -3.5      2.813      7.723
  Name = 
  24 active torsions:
  status: ('A' for Active; 'I' for Inactive)
    1  A    between atoms: C_1  and  C_12
    2  A    between atoms: C_1  and  C_52
    3  A    between atoms: C_5  and  C_54
    4  A    between atoms: C_6  and  O_33
    5  A    between atoms: N_9  and  C_11
    6  A    between atoms: N_9  and  C_15
    7  A    between atoms: C_10  and  C_24
    8  A    between atoms: C_12  and  C_15
    9  A    between atoms: C_12  and  C_49
   10  A    between atoms: C_17  and  C_24
   11  A    between atoms: C_19  and  O_30
   12  A    between atoms: C_21  and  C_65
   13  A    between atoms: C_22  and  C_50
   14  A    between atoms: C_24  and  C_28
   15  A    between atoms: O_27  and  N_42
   16  A    between atoms: O_27  and  C_50
   17  A    between atoms: C_29  and  C_68
   18  A    between atoms: O_30  and  C_40
   19  A    between atoms: C_32  and  O_33
   20  A    between atoms: O_35  and  C_45
   21  A    between atoms: O_35  and  C_46
   22  A    between atoms: O_41  and  C_62
   23  A    between atoms: C_45  and  C_68
   24  A    between atoms: C_54  and  C_64
                            x       y       z     vdW  Elec       q    Type
                         _______ _______ _______ _____ _____    ______ ____

>  <TORSDO>
F 24

$$$$
