=
 OpenBabel11072409403D

 25 27  0  0  1  0  0  0  0  0999 V2000
  184.1880  178.6580  146.0450 C   0  0  0  0  0  3  0  0  0  0  0  0
  186.6570  178.0270  142.7510 N   0  0  0  0  0  0  0  0  0  0  0  0
  187.1470  177.7440  144.0670 C   0  0  0  0  0  3  0  0  0  0  0  0
  186.8150  177.5520  146.5110 C   0  0  0  0  0  0  0  0  0  0  0  0
  186.0440  178.0120  147.5110 C   0  0  0  0  0  3  0  0  0  0  0  0
  185.3210  178.5160  142.5650 C   0  0  0  0  0  3  0  0  0  0  0  0
  186.3200  177.7340  145.1170 C   0  0  0  0  0  0  0  0  0  0  0  0
  184.7410  178.6620  147.2610 C   0  0  0  0  0  3  0  0  0  0  0  0
  184.8280  177.9140  144.9090 C   0  0  2  0  0  3  0  0  0  0  0  0
  184.4560  178.5130  143.5800 C   0  0  0  0  0  3  0  0  0  0  0  0
  190.5940  175.6960  147.4010 C   0  0  0  0  0  0  0  0  0  0  0  0
  189.4620  174.9080  147.1740 C   0  0  0  0  0  3  0  0  0  0  0  0
  188.1220  176.9130  146.8300 C   0  0  0  0  0  0  0  0  0  0  0  0
  189.2710  177.6900  147.0420 C   0  0  0  0  0  3  0  0  0  0  0  0
  190.4990  177.0870  147.3260 C   0  0  0  0  0  3  0  0  0  0  0  0
  188.2350  175.5120  146.8910 C   0  0  0  0  0  3  0  0  0  0  0  0
  191.9060  175.0510  147.6800 C   0  0  0  0  0  2  0  0  0  0  0  0
  192.7600  175.2280  146.5910 O   0  0  0  0  0  1  0  0  0  0  0  0
  187.5670  177.9490  141.6180 C   0  0  0  0  0  2  0  0  0  0  0  0
  187.3490  176.6670  140.8130 C   0  0  0  0  0  2  0  0  0  0  0  0
  189.2900  175.8970  141.9880 O   0  0  0  0  0  1  0  0  0  0  0  0
  188.1250  175.4660  141.3510 C   0  0  0  0  0  0  0  0  0  0  0  0
  187.3330  174.7500  142.2540 O   0  0  0  0  0  1  0  0  0  0  0  0
  189.6740  173.7790  140.4810 N   0  0  0  0  0  1  0  0  0  0  0  0
  188.4930  174.5710  140.1770 C   0  0  0  0  0  2  0  0  0  0  0  0
  1  8  2  0  0  0  0
  2  3  1  0  0  0  0
  3  7  2  0  0  0  0
  4 13  1  0  0  0  0
  4  5  2  0  0  0  0
  6  2  1  0  0  0  0
  6 10  2  0  0  0  0
  7  4  1  0  0  0  0
  8  5  1  0  0  0  0
  9 10  1  6  0  0  0
  9  7  1  0  0  0  0
  9  1  1  0  0  0  0
 11 17  1  0  0  0  0
 12 11  2  0  0  0  0
 13 16  2  0  0  0  0
 13 14  1  0  0  0  0
 14 15  2  0  0  0  0
 15 11  1  0  0  0  0
 16 12  1  0  0  0  0
 18 17  1  0  0  0  0
 19  2  1  0  0  0  0
 20 22  1  0  0  0  0
 20 19  1  0  0  0  0
 22 21  1  0  0  0  0
 22 23  1  0  0  0  0
 25 24  1  0  0  0  0
 25 22  1  0  0  0  0
M  END
>  <MODEL>
1

>  <REMARK>
 VINA RESULT:      -7.4      0.000      0.000
  Name = 
  6 active torsions:
  status: ('A' for Active; 'I' for Inactive)
    1  A    between atoms: N_3  and  C_4
    2  A    between atoms: C_4  and  C_22
    3  A    between atoms: C_6  and  C_12
    4  A    between atoms: C_6  and  C_22
    5  A    between atoms: C_7  and  C_14
    6  A    between atoms: C_8  and  C_13
                            x       y       z     vdW  Elec       q    Type
                         _______ _______ _______ _____ _____    ______ ____

>  <TORSDO>
F 6

$$$$
=
 OpenBabel11072409403D

 25 27  0  0  1  0  0  0  0  0999 V2000
  192.4610  175.3590  146.7990 C   0  0  0  0  0  3  0  0  0  0  0  0
  190.2970  173.0290  144.1090 N   0  0  0  0  0  0  0  0  0  0  0  0
  189.6780  174.1710  144.7130 C   0  0  0  0  0  3  0  0  0  0  0  0
  189.7740  176.1890  146.1400 C   0  0  0  0  0  0  0  0  0  0  0  0
  190.4590  176.7270  147.1650 C   0  0  0  0  0  3  0  0  0  0  0  0
  191.6570  172.6930  144.4200 C   0  0  0  0  0  3  0  0  0  0  0  0
  190.4020  175.0530  145.4100 C   0  0  0  0  0  0  0  0  0  0  0  0
  191.7970  176.2350  147.5560 C   0  0  0  0  0  3  0  0  0  0  0  0
  191.9120  174.9110  145.4750 C   0  0  2  0  0  3  0  0  0  0  0  0
  192.4220  173.5460  145.1010 C   0  0  0  0  0  3  0  0  0  0  0  0
  185.8820  177.7590  145.1860 C   0  0  0  0  0  0  0  0  0  0  0  0
  186.0400  176.8850  146.2660 C   0  0  0  0  0  3  0  0  0  0  0  0
  188.4270  176.7250  145.8010 C   0  0  0  0  0  0  0  0  0  0  0  0
  188.2550  177.6180  144.7310 C   0  0  0  0  0  3  0  0  0  0  0  0
  186.9920  178.1310  144.4250 C   0  0  0  0  0  3  0  0  0  0  0  0
  187.3040  176.3720  146.5710 C   0  0  0  0  0  3  0  0  0  0  0  0
  184.5410  178.3230  144.8760 C   0  0  0  0  0  2  0  0  0  0  0  0
  183.9810  178.8720  146.0300 O   0  0  0  0  0  1  0  0  0  0  0  0
  189.4970  172.1330  143.2880 C   0  0  0  0  0  2  0  0  0  0  0  0
  189.6240  172.4720  141.8020 C   0  0  0  0  0  2  0  0  0  0  0  0
  188.1980  172.6700  139.8870 O   0  0  0  0  0  1  0  0  0  0  0  0
  188.3650  173.0980  141.2060 C   0  0  0  0  0  0  0  0  0  0  0  0
  187.2450  172.7360  141.9610 O   0  0  0  0  0  1  0  0  0  0  0  0
  187.5050  175.2270  142.0620 N   0  0  0  0  0  1  0  0  0  0  0  0
  188.5260  174.6110  141.2300 C   0  0  0  0  0  2  0  0  0  0  0  0
  1  8  2  0  0  0  0
  2  6  1  0  0  0  0
  2  3  1  0  0  0  0
  3  7  2  0  0  0  0
  4  5  2  0  0  0  0
  5  8  1  0  0  0  0
  6 10  2  0  0  0  0
  7  9  1  0  0  0  0
  7  4  1  0  0  0  0
  9 10  1  1  0  0  0
  9  1  1  0  0  0  0
 11 12  1  0  0  0  0
 12 16  2  0  0  0  0
 13  4  1  0  0  0  0
 13 16  1  0  0  0  0
 14 13  2  0  0  0  0
 15 14  1  0  0  0  0
 15 11  2  0  0  0  0
 17 11  1  0  0  0  0
 17 18  1  0  0  0  0
 19  2  1  0  0  0  0
 20 19  1  0  0  0  0
 21 22  1  0  0  0  0
 22 25  1  0  0  0  0
 22 20  1  0  0  0  0
 22 23  1  0  0  0  0
 25 24  1  0  0  0  0
M  END
>  <MODEL>
2

>  <REMARK>
 VINA RESULT:      -6.8      2.542      5.732
  Name = 
  6 active torsions:
  status: ('A' for Active; 'I' for Inactive)
    1  A    between atoms: N_3  and  C_4
    2  A    between atoms: C_4  and  C_22
    3  A    between atoms: C_6  and  C_12
    4  A    between atoms: C_6  and  C_22
    5  A    between atoms: C_7  and  C_14
    6  A    between atoms: C_8  and  C_13
                            x       y       z     vdW  Elec       q    Type
                         _______ _______ _______ _____ _____    ______ ____

>  <TORSDO>
F 6

$$$$
=
 OpenBabel11072409403D

 25 27  0  0  1  0  0  0  0  0999 V2000
  185.5370  179.2390  147.7590 C   0  0  0  0  0  3  0  0  0  0  0  0
  185.2070  177.7860  143.8690 N   0  0  0  0  0  0  0  0  0  0  0  0
  186.3790  177.4890  144.6390 C   0  0  0  0  0  3  0  0  0  0  0  0
  187.6610  177.5620  146.7520 C   0  0  0  0  0  0  0  0  0  0  0  0
  187.7840  178.2680  147.8900 C   0  0  0  0  0  3  0  0  0  0  0  0
  184.1480  178.5720  144.4360 C   0  0  0  0  0  3  0  0  0  0  0  0
  186.4230  177.7570  145.9480 C   0  0  0  0  0  0  0  0  0  0  0  0
  186.7320  179.1960  148.3530 C   0  0  0  0  0  3  0  0  0  0  0  0
  185.1880  178.2800  146.6570 C   0  0  2  0  0  3  0  0  0  0  0  0
  184.1430  178.8540  145.7390 C   0  0  0  0  0  3  0  0  0  0  0  0
  190.8620  174.9350  145.5760 C   0  0  0  0  0  0  0  0  0  0  0  0
  190.9080  176.2910  145.2400 C   0  0  0  0  0  3  0  0  0  0  0  0
  188.7620  176.6480  146.3370 C   0  0  0  0  0  0  0  0  0  0  0  0
  188.7380  175.2870  146.6820 C   0  0  0  0  0  3  0  0  0  0  0  0
  189.7800  174.4360  146.3050 C   0  0  0  0  0  3  0  0  0  0  0  0
  189.8660  177.1410  145.6180 C   0  0  0  0  0  3  0  0  0  0  0  0
  191.9830  174.0350  145.1940 C   0  0  0  0  0  2  0  0  0  0  0  0
  193.1420  174.7830  144.9950 O   0  0  0  0  0  1  0  0  0  0  0  0
  185.1590  177.4060  142.4660 C   0  0  0  0  0  2  0  0  0  0  0  0
  186.0390  178.3190  141.6090 C   0  0  0  0  0  2  0  0  0  0  0  0
  187.0350  177.5600  139.5670 O   0  0  0  0  0  1  0  0  0  0  0  0
  187.2130  177.5980  140.9520 C   0  0  0  0  0  0  0  0  0  0  0  0
  188.4090  178.2550  141.2530 O   0  0  0  0  0  1  0  0  0  0  0  0
  188.5270  175.9260  142.1700 N   0  0  0  0  0  1  0  0  0  0  0  0
  187.2640  176.1770  141.4930 C   0  0  0  0  0  2  0  0  0  0  0  0
  1  8  2  0  0  0  0
  2  6  1  0  0  0  0
  2  3  1  0  0  0  0
  3  7  2  0  0  0  0
  4  5  2  0  0  0  0
  5  8  1  0  0  0  0
  6 10  2  0  0  0  0
  7  9  1  0  0  0  0
  7  4  1  0  0  0  0
  9 10  1  6  0  0  0
  9  1  1  0  0  0  0
 11 15  1  0  0  0  0
 12 11  2  0  0  0  0
 12 16  1  0  0  0  0
 13 14  1  0  0  0  0
 13  4  1  0  0  0  0
 15 14  2  0  0  0  0
 16 13  2  0  0  0  0
 17 11  1  0  0  0  0
 18 17  1  0  0  0  0
 19  2  1  0  0  0  0
 20 19  1  0  0  0  0
 21 22  1  0  0  0  0
 22 23  1  0  0  0  0
 22 25  1  0  0  0  0
 22 20  1  0  0  0  0
 25 24  1  0  0  0  0
M  END
>  <MODEL>
3

>  <REMARK>
 VINA RESULT:      -6.8      1.678      2.342
  Name = 
  6 active torsions:
  status: ('A' for Active; 'I' for Inactive)
    1  A    between atoms: N_3  and  C_4
    2  A    between atoms: C_4  and  C_22
    3  A    between atoms: C_6  and  C_12
    4  A    between atoms: C_6  and  C_22
    5  A    between atoms: C_7  and  C_14
    6  A    between atoms: C_8  and  C_13
                            x       y       z     vdW  Elec       q    Type
                         _______ _______ _______ _____ _____    ______ ____

>  <TORSDO>
F 6

$$$$
=
 OpenBabel11072409403D

 25 27  0  0  1  0  0  0  0  0999 V2000
  192.4280  175.4260  146.8880 C   0  0  0  0  0  3  0  0  0  0  0  0
  190.3150  173.1250  144.1330 N   0  0  0  0  0  0  0  0  0  0  0  0
  189.6820  174.2570  144.7430 C   0  0  0  0  0  3  0  0  0  0  0  0
  189.7480  176.2550  146.1990 C   0  0  0  0  0  0  0  0  0  0  0  0
  190.4150  176.7820  147.2410 C   0  0  0  0  0  3  0  0  0  0  0  0
  191.6710  172.7900  144.4610 C   0  0  0  0  0  3  0  0  0  0  0  0
  190.3920  175.1320  145.4630 C   0  0  0  0  0  0  0  0  0  0  0  0
  191.7480  176.2900  147.6470 C   0  0  0  0  0  3  0  0  0  0  0  0
  191.9010  174.9940  145.5500 C   0  0  2  0  0  3  0  0  0  0  0  0
  192.4220  173.6360  145.1660 C   0  0  0  0  0  3  0  0  0  0  0  0
  185.8640  177.7840  145.1510 C   0  0  0  0  0  0  0  0  0  0  0  0
  186.9820  178.1290  144.3870 C   0  0  0  0  0  3  0  0  0  0  0  0
  188.4040  176.7920  145.8450 C   0  0  0  0  0  0  0  0  0  0  0  0
  187.2680  176.4400  146.5920 C   0  0  0  0  0  3  0  0  0  0  0  0
  186.0070  176.9320  146.2480 C   0  0  0  0  0  3  0  0  0  0  0  0
  188.2440  177.6360  144.7320 C   0  0  0  0  0  3  0  0  0  0  0  0
  184.5180  178.2900  144.7690 C   0  0  0  0  0  2  0  0  0  0  0  0
  183.9270  178.9280  145.8600 O   0  0  0  0  0  1  0  0  0  0  0  0
  189.5310  172.2380  143.2880 C   0  0  0  0  0  2  0  0  0  0  0  0
  189.6440  172.6250  141.8130 C   0  0  0  0  0  2  0  0  0  0  0  0
  187.2520  172.6980  141.9100 O   0  0  0  0  0  1  0  0  0  0  0  0
  188.3590  173.2120  141.2330 C   0  0  0  0  0  0  0  0  0  0  0  0
  188.3740  174.6050  141.3470 O   0  0  0  0  0  1  0  0  0  0  0  0
  188.7740  173.8970  138.9170 N   0  0  0  0  0  1  0  0  0  0  0  0
  188.2780  172.8240  139.7640 C   0  0  0  0  0  2  0  0  0  0  0  0
  1  8  2  0  0  0  0
  2  6  1  0  0  0  0
  2  3  1  0  0  0  0
  3  7  2  0  0  0  0
  4  5  2  0  0  0  0
  5  8  1  0  0  0  0
  6 10  2  0  0  0  0
  7  9  1  0  0  0  0
  7  4  1  0  0  0  0
  9 10  1  1  0  0  0
  9  1  1  0  0  0  0
 11 15  1  0  0  0  0
 12 16  1  0  0  0  0
 12 11  2  0  0  0  0
 13  4  1  0  0  0  0
 13 14  1  0  0  0  0
 15 14  2  0  0  0  0
 16 13  2  0  0  0  0
 17 11  1  0  0  0  0
 17 18  1  0  0  0  0
 19  2  1  0  0  0  0
 20 19  1  0  0  0  0
 22 23  1  0  0  0  0
 22 20  1  0  0  0  0
 22 21  1  0  0  0  0
 24 25  1  0  0  0  0
 25 22  1  0  0  0  0
M  END
>  <MODEL>
4

>  <REMARK>
 VINA RESULT:      -6.6      2.451      5.732
  Name = 
  6 active torsions:
  status: ('A' for Active; 'I' for Inactive)
    1  A    between atoms: N_3  and  C_4
    2  A    between atoms: C_4  and  C_22
    3  A    between atoms: C_6  and  C_12
    4  A    between atoms: C_6  and  C_22
    5  A    between atoms: C_7  and  C_14
    6  A    between atoms: C_8  and  C_13
                            x       y       z     vdW  Elec       q    Type
                         _______ _______ _______ _____ _____    ______ ____

>  <TORSDO>
F 6

$$$$
=
 OpenBabel11072409403D

 25 27  0  0  1  0  0  0  0  0999 V2000
  187.8050  175.4890  140.2080 C   0  0  0  0  0  3  0  0  0  0  0  0
  186.1150  178.2960  142.7800 N   0  0  0  0  0  0  0  0  0  0  0  0
  187.1290  177.4090  143.2680 C   0  0  0  0  0  3  0  0  0  0  0  0
  188.8180  175.6380  142.9090 C   0  0  0  0  0  0  0  0  0  0  0  0
  189.1230  174.6200  142.0850 C   0  0  0  0  0  3  0  0  0  0  0  0
  185.6890  178.2250  141.4110 C   0  0  0  0  0  3  0  0  0  0  0  0
  187.8350  176.6480  142.4260 C   0  0  0  0  0  0  0  0  0  0  0  0
  188.5290  174.4990  140.7370 C   0  0  0  0  0  3  0  0  0  0  0  0
  187.6440  176.7970  140.9280 C   0  0  2  0  0  3  0  0  0  0  0  0
  186.3690  177.4890  140.5320 C   0  0  0  0  0  3  0  0  0  0  0  0
  190.6510  175.7870  146.8000 C   0  0  0  0  0  0  0  0  0  0  0  0
  189.7420  174.7700  146.4910 C   0  0  0  0  0  3  0  0  0  0  0  0
  189.4460  175.6980  144.2580 C   0  0  0  0  0  0  0  0  0  0  0  0
  190.3730  176.7030  144.5770 C   0  0  0  0  0  3  0  0  0  0  0  0
  190.9720  176.7480  145.8390 C   0  0  0  0  0  3  0  0  0  0  0  0
  189.1440  174.7260  145.2290 C   0  0  0  0  0  3  0  0  0  0  0  0
  191.3050  175.8190  148.1360 C   0  0  0  0  0  2  0  0  0  0  0  0
  191.6260  177.1350  148.4720 O   0  0  0  0  0  1  0  0  0  0  0  0
  185.4220  179.1710  143.7130 C   0  0  0  0  0  2  0  0  0  0  0  0
  185.9470  178.9960  145.1380 C   0  0  0  0  0  2  0  0  0  0  0  0
  183.6420  178.8320  145.7690 O   0  0  0  0  0  1  0  0  0  0  0  0
  184.9250  178.3920  146.0990 C   0  0  0  0  0  0  0  0  0  0  0  0
  184.9740  176.9960  146.0340 O   0  0  0  0  0  1  0  0  0  0  0  0
  186.6230  178.4550  147.8640 N   0  0  0  0  0  1  0  0  0  0  0  0
  185.2690  178.8470  147.5100 C   0  0  0  0  0  2  0  0  0  0  0  0
  1  8  2  0  0  0  0
  2  3  1  0  0  0  0
  2 19  1  0  0  0  0
  4 13  1  0  0  0  0
  5  4  2  0  0  0  0
  6  2  1  0  0  0  0
  7  4  1  0  0  0  0
  7  3  2  0  0  0  0
  8  5  1  0  0  0  0
  9  1  1  6  0  0  0
  9  7  1  0  0  0  0
 10  9  1  0  0  0  0
 10  6  2  0  0  0  0
 11 17  1  0  0  0  0
 12 11  1  0  0  0  0
 13 14  2  0  0  0  0
 13 16  1  0  0  0  0
 14 15  1  0  0  0  0
 15 11  2  0  0  0  0
 16 12  2  0  0  0  0
 17 18  1  0  0  0  0
 19 20  1  0  0  0  0
 20 22  1  0  0  0  0
 21 22  1  0  0  0  0
 22 25  1  0  0  0  0
 23 22  1  0  0  0  0
 25 24  1  0  0  0  0
M  END
>  <MODEL>
5

>  <REMARK>
 VINA RESULT:      -6.5      2.411      4.964
  Name = 
  6 active torsions:
  status: ('A' for Active; 'I' for Inactive)
    1  A    between atoms: N_3  and  C_4
    2  A    between atoms: C_4  and  C_22
    3  A    between atoms: C_6  and  C_12
    4  A    between atoms: C_6  and  C_22
    5  A    between atoms: C_7  and  C_14
    6  A    between atoms: C_8  and  C_13
                            x       y       z     vdW  Elec       q    Type
                         _______ _______ _______ _____ _____    ______ ____

>  <TORSDO>
F 6

$$$$
=
 OpenBabel11072409403D

 25 27  0  0  1  0  0  0  0  0999 V2000
  185.5390  177.7740  140.3770 C   0  0  0  0  0  3  0  0  0  0  0  0
  184.9280  178.1710  144.4780 N   0  0  0  0  0  0  0  0  0  0  0  0
  186.1950  177.7100  143.9920 C   0  0  0  0  0  3  0  0  0  0  0  0
  187.7550  177.2040  142.1400 C   0  0  0  0  0  0  0  0  0  0  0  0
  187.7760  176.8780  140.8360 C   0  0  0  0  0  3  0  0  0  0  0  0
  183.8780  178.5020  143.5580 C   0  0  0  0  0  3  0  0  0  0  0  0
  186.4930  177.7730  142.6900 C   0  0  0  0  0  0  0  0  0  0  0  0
  186.6060  177.0870  139.9580 C   0  0  0  0  0  3  0  0  0  0  0  0
  185.5300  178.4370  141.7240 C   0  0  2  0  0  3  0  0  0  0  0  0
  184.1290  178.5890  142.2520 C   0  0  0  0  0  3  0  0  0  0  0  0
  191.2670  176.4860  144.5220 C   0  0  0  0  0  0  0  0  0  0  0  0
  190.3680  175.4470  144.2690 C   0  0  0  0  0  3  0  0  0  0  0  0
  188.9660  176.9610  142.9730 C   0  0  0  0  0  0  0  0  0  0  0  0
  189.8870  177.9910  143.2220 C   0  0  0  0  0  3  0  0  0  0  0  0
  191.0300  177.7560  143.9910 C   0  0  0  0  0  3  0  0  0  0  0  0
  189.2250  175.6830  143.5000 C   0  0  0  0  0  3  0  0  0  0  0  0
  192.4950  176.2290  145.3210 C   0  0  0  0  0  2  0  0  0  0  0  0
  193.0300  174.9870  144.9790 O   0  0  0  0  0  1  0  0  0  0  0  0
  184.6670  178.1660  145.9090 C   0  0  0  0  0  2  0  0  0  0  0  0
  185.6650  179.0460  146.6630 C   0  0  0  0  0  2  0  0  0  0  0  0
  187.0670  179.1370  148.6030 O   0  0  0  0  0  1  0  0  0  0  0  0
  186.5540  178.2720  147.6340 C   0  0  0  0  0  0  0  0  0  0  0  0
  185.8180  177.2580  148.2530 O   0  0  0  0  0  1  0  0  0  0  0  0
  187.6810  176.2080  146.9460 N   0  0  0  0  0  1  0  0  0  0  0  0
  187.7020  177.6590  146.8460 C   0  0  0  0  0  2  0  0  0  0  0  0
  2 19  1  0  0  0  0
  3  2  1  0  0  0  0
  4  7  1  0  0  0  0
  4 13  1  0  0  0  0
  5  4  2  0  0  0  0
  6  2  1  0  0  0  0
  7  3  2  0  0  0  0
  8  1  2  0  0  0  0
  8  5  1  0  0  0  0
  9  1  1  6  0  0  0
  9 10  1  0  0  0  0
  9  7  1  0  0  0  0
 10  6  2  0  0  0  0
 11 17  1  0  0  0  0
 12 11  1  0  0  0  0
 13 14  2  0  0  0  0
 13 16  1  0  0  0  0
 14 15  1  0  0  0  0
 15 11  2  0  0  0  0
 16 12  2  0  0  0  0
 18 17  1  0  0  0  0
 19 20  1  0  0  0  0
 20 22  1  0  0  0  0
 22 23  1  0  0  0  0
 22 21  1  0  0  0  0
 25 24  1  0  0  0  0
 25 22  1  0  0  0  0
M  END
>  <MODEL>
6

>  <REMARK>
 VINA RESULT:      -6.3      2.820      4.920
  Name = 
  6 active torsions:
  status: ('A' for Active; 'I' for Inactive)
    1  A    between atoms: N_3  and  C_4
    2  A    between atoms: C_4  and  C_22
    3  A    between atoms: C_6  and  C_12
    4  A    between atoms: C_6  and  C_22
    5  A    between atoms: C_7  and  C_14
    6  A    between atoms: C_8  and  C_13
                            x       y       z     vdW  Elec       q    Type
                         _______ _______ _______ _____ _____    ______ ____

>  <TORSDO>
F 6

$$$$
=
 OpenBabel11072409403D

 25 27  0  0  1  0  0  0  0  0999 V2000
  192.5250  176.0720  146.8360 C   0  0  0  0  0  3  0  0  0  0  0  0
  191.3820  174.8940  143.0090 N   0  0  0  0  0  0  0  0  0  0  0  0
  190.4230  175.5150  143.8730 C   0  0  0  0  0  3  0  0  0  0  0  0
  189.8240  176.6480  145.9890 C   0  0  0  0  0  0  0  0  0  0  0  0
  190.2140  176.7680  147.2700 C   0  0  0  0  0  3  0  0  0  0  0  0
  192.7300  174.6860  143.4530 C   0  0  0  0  0  3  0  0  0  0  0  0
  190.8060  176.0910  145.0170 C   0  0  0  0  0  0  0  0  0  0  0  0
  191.5690  176.3840  147.7160 C   0  0  0  0  0  3  0  0  0  0  0  0
  192.2820  176.1900  145.3590 C   0  0  2  0  0  3  0  0  0  0  0  0
  193.1610  175.2500  144.5810 C   0  0  0  0  0  3  0  0  0  0  0  0
  185.8270  177.8220  144.9060 C   0  0  0  0  0  0  0  0  0  0  0  0
  186.0430  177.0290  146.0370 C   0  0  0  0  0  3  0  0  0  0  0  0
  188.4410  177.0470  145.6050 C   0  0  0  0  0  0  0  0  0  0  0  0
  188.2100  177.8580  144.4830 C   0  0  0  0  0  3  0  0  0  0  0  0
  186.9120  178.2430  144.1350 C   0  0  0  0  0  3  0  0  0  0  0  0
  187.3410  176.6440  146.3840 C   0  0  0  0  0  3  0  0  0  0  0  0
  184.4480  178.2500  144.5510 C   0  0  0  0  0  2  0  0  0  0  0  0
  184.4180  179.6310  144.3550 O   0  0  0  0  0  1  0  0  0  0  0  0
  190.9440  174.3490  141.7320 C   0  0  0  0  0  2  0  0  0  0  0  0
  189.4220  174.4050  141.5920 C   0  0  0  0  0  2  0  0  0  0  0  0
  187.7960  172.6910  141.9850 O   0  0  0  0  0  1  0  0  0  0  0  0
  188.8020  173.0970  141.1060 C   0  0  0  0  0  0  0  0  0  0  0  0
  188.2670  173.2670  139.8260 O   0  0  0  0  0  1  0  0  0  0  0  0
  190.0270  171.4870  139.7250 N   0  0  0  0  0  1  0  0  0  0  0  0
  189.8940  172.0380  141.0630 C   0  0  0  0  0  2  0  0  0  0  0  0
  1  8  2  0  0  0  0
  2  6  1  0  0  0  0
  2  3  1  0  0  0  0
  3  7  2  0  0  0  0
  4  5  2  0  0  0  0
  5  8  1  0  0  0  0
  6 10  2  0  0  0  0
  7  9  1  0  0  0  0
  7  4  1  0  0  0  0
  9 10  1  6  0  0  0
  9  1  1  0  0  0  0
 11 12  1  0  0  0  0
 12 16  2  0  0  0  0
 13  4  1  0  0  0  0
 13 16  1  0  0  0  0
 14 13  2  0  0  0  0
 15 14  1  0  0  0  0
 15 11  2  0  0  0  0
 17 11  1  0  0  0  0
 18 17  1  0  0  0  0
 19  2  1  0  0  0  0
 20 19  1  0  0  0  0
 22 20  1  0  0  0  0
 22 21  1  0  0  0  0
 23 22  1  0  0  0  0
 24 25  1  0  0  0  0
 25 22  1  0  0  0  0
M  END
>  <MODEL>
7

>  <REMARK>
 VINA RESULT:      -6.1      2.545      5.582
  Name = 
  6 active torsions:
  status: ('A' for Active; 'I' for Inactive)
    1  A    between atoms: N_3  and  C_4
    2  A    between atoms: C_4  and  C_22
    3  A    between atoms: C_6  and  C_12
    4  A    between atoms: C_6  and  C_22
    5  A    between atoms: C_7  and  C_14
    6  A    between atoms: C_8  and  C_13
                            x       y       z     vdW  Elec       q    Type
                         _______ _______ _______ _____ _____    ______ ____

>  <TORSDO>
F 6

$$$$
=
 OpenBabel11072409403D

 25 27  0  0  1  0  0  0  0  0999 V2000
  190.8680  175.2920  147.6400 C   0  0  0  0  0  3  0  0  0  0  0  0
  192.9710  176.1090  144.1390 N   0  0  0  0  0  0  0  0  0  0  0  0
  191.5400  176.1620  144.1330 C   0  0  0  0  0  3  0  0  0  0  0  0
  189.3600  176.0580  145.2980 C   0  0  1  0  0  3  0  0  0  0  0  0
  188.7710  175.5470  146.3930 C   0  0  0  0  0  3  0  0  0  0  0  0
  193.6790  175.7850  145.3450 C   0  0  0  0  0  3  0  0  0  0  0  0
  190.8490  176.1140  145.2760 C   0  0  0  0  0  0  0  0  0  0  0  0
  189.5530  175.0700  147.5530 C   0  0  0  0  0  3  0  0  0  0  0  0
  191.5810  176.1140  146.6050 C   0  0  0  0  0  0  0  0  0  0  0  0
  193.0350  175.7380  146.5110 C   0  0  0  0  0  3  0  0  0  0  0  0
  186.9440  177.3960  141.9970 C   0  0  0  0  0  0  0  0  0  0  0  0
  187.2680  178.2780  143.0310 C   0  0  0  0  0  3  0  0  0  0  0  0
  188.5150  176.5150  144.1600 C   0  0  0  0  0  0  0  0  0  0  0  0
  188.1960  175.6450  143.1050 C   0  0  0  0  0  3  0  0  0  0  0  0
  187.4160  176.0820  142.0300 C   0  0  0  0  0  3  0  0  0  0  0  0
  188.0480  177.8410  144.1050 C   0  0  0  0  0  3  0  0  0  0  0  0
  186.1330  177.8680  140.8430 C   0  0  0  0  0  2  0  0  0  0  0  0
  184.8410  178.1770  141.2680 O   0  0  0  0  0  1  0  0  0  0  0  0
  193.6970  176.2460  142.8850 C   0  0  0  0  0  2  0  0  0  0  0  0
  194.9740  175.4050  142.8830 C   0  0  0  0  0  2  0  0  0  0  0  0
  196.1110  176.8430  141.3410 O   0  0  0  0  0  1  0  0  0  0  0  0
  196.2370  176.2090  142.5790 C   0  0  0  0  0  0  0  0  0  0  0  0
  196.4490  177.1640  143.5770 O   0  0  0  0  0  1  0  0  0  0  0  0
  197.6930  174.7110  143.8590 N   0  0  0  0  0  1  0  0  0  0  0  0
  197.4160  175.2480  142.5370 C   0  0  0  0  0  2  0  0  0  0  0  0
  2  6  1  0  0  0  0
  3  2  1  0  0  0  0
  3  7  2  0  0  0  0
  4 13  1  6  0  0  0
  4  5  1  0  0  0  0
  5  8  2  0  0  0  0
  6 10  2  0  0  0  0
  7  4  1  0  0  0  0
  7  9  1  0  0  0  0
  8  1  1  0  0  0  0
  9  1  2  0  0  0  0
 10  9  1  0  0  0  0
 11 15  2  0  0  0  0
 11 12  1  0  0  0  0
 12 16  2  0  0  0  0
 14 13  2  0  0  0  0
 15 14  1  0  0  0  0
 16 13  1  0  0  0  0
 17 18  1  0  0  0  0
 17 11  1  0  0  0  0
 19  2  1  0  0  0  0
 20 19  1  0  0  0  0
 21 22  1  0  0  0  0
 22 20  1  0  0  0  0
 22 23  1  0  0  0  0
 25 22  1  0  0  0  0
 25 24  1  0  0  0  0
M  END
>  <MODEL>
8

>  <REMARK>
 VINA RESULT:      -6.1      4.027      7.094
  Name = 
  6 active torsions:
  status: ('A' for Active; 'I' for Inactive)
    1  A    between atoms: N_3  and  C_4
    2  A    between atoms: C_4  and  C_22
    3  A    between atoms: C_6  and  C_12
    4  A    between atoms: C_6  and  C_22
    5  A    between atoms: C_7  and  C_14
    6  A    between atoms: C_8  and  C_13
                            x       y       z     vdW  Elec       q    Type
                         _______ _______ _______ _____ _____    ______ ____

>  <TORSDO>
F 6

$$$$
=
 OpenBabel11072409403D

 25 27  0  0  1  0  0  0  0  0999 V2000
  188.9690  172.6770  141.4440 C   0  0  0  0  0  3  0  0  0  0  0  0
  187.9940  176.7000  141.9040 N   0  0  0  0  0  0  0  0  0  0  0  0
  188.6570  176.0070  142.9680 C   0  0  0  0  0  3  0  0  0  0  0  0
  189.7670  173.9960  143.8860 C   0  0  0  0  0  0  0  0  0  0  0  0
  189.8190  172.6600  143.7440 C   0  0  0  0  0  3  0  0  0  0  0  0
  187.6740  176.0180  140.6840 C   0  0  0  0  0  3  0  0  0  0  0  0
  189.1690  174.7870  142.7750 C   0  0  0  0  0  0  0  0  0  0  0  0
  189.3230  171.9820  142.5280 C   0  0  0  0  0  3  0  0  0  0  0  0
  189.1490  174.1670  141.3900 C   0  0  2  0  0  3  0  0  0  0  0  0
  188.1710  174.8050  140.4410 C   0  0  0  0  0  3  0  0  0  0  0  0
  191.2360  175.8210  147.4960 C   0  0  0  0  0  0  0  0  0  0  0  0
  192.0130  175.8420  146.3340 C   0  0  0  0  0  3  0  0  0  0  0  0
  190.2770  174.6170  145.1400 C   0  0  0  0  0  0  0  0  0  0  0  0
  189.5020  174.6200  146.3110 C   0  0  0  0  0  3  0  0  0  0  0  0
  189.9770  175.2170  147.4810 C   0  0  0  0  0  3  0  0  0  0  0  0
  191.5360  175.2440  145.1650 C   0  0  0  0  0  3  0  0  0  0  0  0
  191.7340  176.4780  148.7350 C   0  0  0  0  0  2  0  0  0  0  0  0
  191.1880  177.7580  148.8430 O   0  0  0  0  0  1  0  0  0  0  0  0
  187.5220  178.0590  142.1230 C   0  0  0  0  0  2  0  0  0  0  0  0
  187.0120  178.2500  143.5520 C   0  0  0  0  0  2  0  0  0  0  0  0
  185.6020  180.1140  144.0780 O   0  0  0  0  0  1  0  0  0  0  0  0
  185.5860  178.7930  143.6280 C   0  0  0  0  0  0  0  0  0  0  0  0
  184.9830  178.7330  142.3680 O   0  0  0  0  0  1  0  0  0  0  0  0
  185.6550  176.9240  145.2120 N   0  0  0  0  0  1  0  0  0  0  0  0
  184.8000  177.9340  144.6080 C   0  0  0  0  0  2  0  0  0  0  0  0
  1  8  2  0  0  0  0
  2 19  1  0  0  0  0
  2  3  1  0  0  0  0
  4 13  1  0  0  0  0
  5  4  2  0  0  0  0
  6  2  1  0  0  0  0
  7  3  2  0  0  0  0
  7  4  1  0  0  0  0
  8  5  1  0  0  0  0
  9 10  1  6  0  0  0
  9  1  1  0  0  0  0
  9  7  1  0  0  0  0
 10  6  2  0  0  0  0
 11 17  1  0  0  0  0
 12 11  2  0  0  0  0
 13 16  2  0  0  0  0
 13 14  1  0  0  0  0
 14 15  2  0  0  0  0
 15 11  1  0  0  0  0
 16 12  1  0  0  0  0
 17 18  1  0  0  0  0
 19 20  1  0  0  0  0
 20 22  1  0  0  0  0
 22 21  1  0  0  0  0
 22 25  1  0  0  0  0
 23 22  1  0  0  0  0
 25 24  1  0  0  0  0
M  END
>  <MODEL>
9

>  <REMARK>
 VINA RESULT:      -6.0      2.523      5.034
  Name = 
  6 active torsions:
  status: ('A' for Active; 'I' for Inactive)
    1  A    between atoms: N_3  and  C_4
    2  A    between atoms: C_4  and  C_22
    3  A    between atoms: C_6  and  C_12
    4  A    between atoms: C_6  and  C_22
    5  A    between atoms: C_7  and  C_14
    6  A    between atoms: C_8  and  C_13
                            x       y       z     vdW  Elec       q    Type
                         _______ _______ _______ _____ _____    ______ ____

>  <TORSDO>
F 6

$$$$
