=
 OpenBabel11072408503D

 26 30  0  0  1  0  0  0  0  0999 V2000
  187.8900  177.4780  146.2890 C   0  0  0  0  0  0  0  0  0  0  0  0
  185.7790  178.0880  147.3520 C   0  0  0  0  0  3  0  0  0  0  0  0
  184.0710  179.0020  145.8070 O   0  0  0  0  0  0  0  0  0  0  0  0
  187.3850  177.8790  145.0400 C   0  0  0  0  0  3  0  0  0  0  0  0
  186.0820  178.3760  144.9770 C   0  0  0  0  0  0  0  0  0  0  0  0
  183.9800  179.3000  144.4130 C   0  0  0  0  0  2  0  0  0  0  0  0
  185.3110  178.8270  143.7840 C   0  0  2  0  0  3  0  0  0  0  0  0
  187.0830  177.5750  147.4400 C   0  0  0  0  0  3  0  0  0  0  0  0
  185.3120  178.4810  146.0980 C   0  0  0  0  0  0  0  0  0  0  0  0
  189.2130  176.9590  146.3850 N   0  0  0  0  0  0  0  0  0  0  0  0
  190.1910  176.2100  147.0620 C   0  0  0  0  0  0  0  0  0  0  0  0
  191.7190  176.8220  145.2340 C   0  0  0  0  0  3  0  0  0  0  0  0
  190.5180  176.8300  145.8800 C   0  0  0  0  0  0  0  0  0  0  0  0
  191.0010  175.4490  147.8500 C   0  0  0  0  0  3  0  0  0  0  0  0
  192.6710  176.0420  145.9890 C   0  0  0  0  0  0  0  0  0  0  0  0
  192.3090  175.3820  147.2520 C   0  0  0  0  0  3  0  0  0  0  0  0
  194.2900  176.1610  144.1670 O   0  0  0  0  0  0  0  0  0  0  0  0
  194.9390  175.5760  146.2550 O   0  0  0  0  0  0  0  0  0  0  0  0
  194.0110  175.9110  145.4910 N   0  0  0  0  0  0  0  0  0  0  0  0
  185.0350  177.6910  142.9130 N   0  0  0  0  0  2  0  0  0  0  0  0
  187.7070  175.7010  141.0160 C   0  0  0  0  0  0  0  0  0  0  0  0
  186.3700  177.4970  140.7950 C   0  0  0  0  0  3  0  0  0  0  0  0
  186.8980  175.7140  142.4910 S   0  0  0  0  0  0  0  0  0  0  0  0
  186.0180  177.0820  142.0740 C   0  0  0  0  0  0  0  0  0  0  0  0
  188.7270  174.6910  140.6250 C   0  0  0  0  0  1  0  0  0  0  0  0
  187.3210  176.7170  140.2130 N   0  0  0  0  0  0  0  0  0  0  0  0
  1 10  1  0  0  0  0
  1  8  1  0  0  0  0
  2  8  2  0  0  0  0
  3  9  1  0  0  0  0
  4  1  2  0  0  0  0
  5  4  1  0  0  0  0
  5  9  2  0  0  0  0
  6  3  1  0  0  0  0
  7 20  1  6  0  0  0
  7  6  1  0  0  0  0
  7  5  1  0  0  0  0
  9  2  1  0  0  0  0
 10 11  1  0  0  0  0
 11 14  1  0  0  0  0
 12 13  1  0  0  0  0
 12 15  2  0  0  0  0
 13 10  1  0  0  0  0
 13 11  2  0  0  0  0
 15 16  1  0  0  0  0
 16 14  2  0  0  0  0
 17 19  2  0  0  0  0
 19 15  1  0  0  0  0
 19 18  2  0  0  0  0
 21 23  1  0  0  0  0
 22 24  2  0  0  0  0
 24 23  1  0  0  0  0
 24 20  1  0  0  0  0
 25 21  1  0  0  0  0
 26 22  1  0  0  0  0
 26 21  2  0  0  0  0
M  END
>  <MODEL>
1

>  <REMARK>
 VINA RESULT:      -7.6      0.000      0.000
  Name = 
  4 active torsions:
  status: ('A' for Active; 'I' for Inactive)
    1  A    between atoms: C_2  and  N_6
    2  A    between atoms: C_15  and  N_24
    3  A    between atoms: C_16  and  N_17
    4  A    between atoms: N_17  and  C_22
                            x       y       z     vdW  Elec       q    Type
                         _______ _______ _______ _____ _____    ______ ____

>  <TORSDO>
F 4

$$$$
=
 OpenBabel11072408503D

 26 30  0  0  1  0  0  0  0  0999 V2000
  188.4730  177.4390  145.7870 C   0  0  0  0  0  0  0  0  0  0  0  0
  186.8270  177.4840  147.5890 C   0  0  0  0  0  3  0  0  0  0  0  0
  184.5980  178.3440  146.9310 O   0  0  0  0  0  0  0  0  0  0  0  0
  187.5200  177.9580  144.8940 C   0  0  0  0  0  3  0  0  0  0  0  0
  186.2360  178.2270  145.3720 C   0  0  0  0  0  0  0  0  0  0  0  0
  183.9890  178.8590  145.7460 C   0  0  0  0  0  2  0  0  0  0  0  0
  185.0500  178.7380  144.6280 C   0  0  2  0  0  3  0  0  0  0  0  0
  188.1220  177.1950  147.1300 C   0  0  0  0  0  3  0  0  0  0  0  0
  185.9080  178.0020  146.6770 C   0  0  0  0  0  0  0  0  0  0  0  0
  189.7890  177.1470  145.3280 N   0  0  0  0  0  0  0  0  0  0  0  0
  190.7150  176.9810  144.2830 C   0  0  0  0  0  0  0  0  0  0  0  0
  192.3660  176.4470  146.0270 C   0  0  0  0  0  3  0  0  0  0  0  0
  191.1240  176.7910  145.5820 C   0  0  0  0  0  0  0  0  0  0  0  0
  191.4670  176.8660  143.1530 C   0  0  0  0  0  3  0  0  0  0  0  0
  193.2590  176.2880  144.9020 C   0  0  0  0  0  0  0  0  0  0  0  0
  192.8100  176.4970  143.5180 C   0  0  0  0  0  3  0  0  0  0  0  0
  195.5780  176.0880  144.1730 O   0  0  0  0  0  0  0  0  0  0  0  0
  194.9580  175.4310  146.2480 O   0  0  0  0  0  0  0  0  0  0  0  0
  194.6220  175.9140  145.1460 N   0  0  0  0  0  0  0  0  0  0  0  0
  184.5990  177.7400  143.6660 N   0  0  0  0  0  2  0  0  0  0  0  0
  185.9210  177.5390  140.0730 C   0  0  0  0  0  0  0  0  0  0  0  0
  184.1660  178.3000  141.2570 C   0  0  0  0  0  3  0  0  0  0  0  0
  186.3510  177.1130  141.6430 S   0  0  0  0  0  0  0  0  0  0  0  0
  184.9430  177.7680  142.2800 C   0  0  0  0  0  0  0  0  0  0  0  0
  186.7470  177.2550  138.8680 C   0  0  0  0  0  1  0  0  0  0  0  0
  184.7270  178.1690  140.0240 N   0  0  0  0  0  0  0  0  0  0  0  0
  1  8  1  0  0  0  0
  4  5  1  0  0  0  0
  4  1  2  0  0  0  0
  5  9  2  0  0  0  0
  6  3  1  0  0  0  0
  7 20  1  6  0  0  0
  7  5  1  0  0  0  0
  7  6  1  0  0  0  0
  8  2  2  0  0  0  0
  9  3  1  0  0  0  0
  9  2  1  0  0  0  0
 10 13  1  0  0  0  0
 10  1  1  0  0  0  0
 11 10  1  0  0  0  0
 11 13  1  0  0  0  0
 13 12  2  0  0  0  0
 14 16  1  0  0  0  0
 14 11  2  0  0  0  0
 15 19  1  0  0  0  0
 15 12  1  0  0  0  0
 16 15  2  0  0  0  0
 17 19  2  0  0  0  0
 19 18  2  0  0  0  0
 21 23  1  0  0  0  0
 22 24  2  0  0  0  0
 23 24  1  0  0  0  0
 24 20  1  0  0  0  0
 25 21  1  0  0  0  0
 26 21  2  0  0  0  0
 26 22  1  0  0  0  0
M  END
>  <MODEL>
2

>  <REMARK>
 VINA RESULT:      -7.4      1.516      2.015
  Name = 
  4 active torsions:
  status: ('A' for Active; 'I' for Inactive)
    1  A    between atoms: C_2  and  N_6
    2  A    between atoms: C_15  and  N_24
    3  A    between atoms: C_16  and  N_17
    4  A    between atoms: N_17  and  C_22
                            x       y       z     vdW  Elec       q    Type
                         _______ _______ _______ _____ _____    ______ ____

>  <TORSDO>
F 4

$$$$
=
 OpenBabel11072408503D

 26 30  0  0  1  0  0  0  0  0999 V2000
  188.9090  176.4580  145.3250 C   0  0  0  0  0  0  0  0  0  0  0  0
  190.0060  175.5590  147.3130 C   0  0  0  0  0  3  0  0  0  0  0  0
  192.2710  174.6370  146.9140 O   0  0  0  0  0  0  0  0  0  0  0  0
  190.0330  176.1290  144.5470 C   0  0  0  0  0  3  0  0  0  0  0  0
  191.1220  175.5210  145.1750 C   0  0  0  0  0  0  0  0  0  0  0  0
  193.1420  174.4620  145.7960 C   0  0  0  0  0  2  0  0  0  0  0  0
  192.4300  175.1130  144.5880 C   0  0  2  0  0  3  0  0  0  0  0  0
  188.9010  176.1800  146.7070 C   0  0  0  0  0  3  0  0  0  0  0  0
  191.1020  175.2420  146.5100 C   0  0  0  0  0  0  0  0  0  0  0  0
  187.7860  177.0860  144.7160 N   0  0  0  0  0  0  0  0  0  0  0  0
  186.8180  178.1050  144.6850 C   0  0  0  0  0  0  0  0  0  0  0  0
  185.9500  177.0180  142.6550 C   0  0  0  0  0  3  0  0  0  0  0  0
  186.8080  177.1380  143.7080 C   0  0  0  0  0  0  0  0  0  0  0  0
  185.9650  179.1600  144.8140 C   0  0  0  0  0  3  0  0  0  0  0  0
  184.9830  178.0910  142.6920 C   0  0  0  0  0  0  0  0  0  0  0  0
  185.0050  179.1220  143.7410 C   0  0  0  0  0  3  0  0  0  0  0  0
  184.3160  178.0750  140.3460 O   0  0  0  0  0  0  0  0  0  0  0  0
  182.7680  178.2640  141.9870 O   0  0  0  0  0  0  0  0  0  0  0  0
  183.9730  178.1500  141.6750 N   0  0  0  0  0  0  0  0  0  0  0  0
  193.1830  176.2940  144.1850 N   0  0  0  0  0  2  0  0  0  0  0  0
  196.1290  176.0700  141.7420 C   0  0  0  0  0  0  0  0  0  0  0  0
  195.6710  176.4930  143.9030 C   0  0  0  0  0  3  0  0  0  0  0  0
  194.4570  175.8890  141.7830 S   0  0  0  0  0  0  0  0  0  0  0  0
  194.3910  176.2380  143.4230 C   0  0  0  0  0  0  0  0  0  0  0  0
  196.9640  175.9060  140.5210 C   0  0  0  0  0  1  0  0  0  0  0  0
  196.6380  176.3910  142.9510 N   0  0  0  0  0  0  0  0  0  0  0  0
  1  8  1  0  0  0  0
  4  5  1  0  0  0  0
  4  1  2  0  0  0  0
  5  9  2  0  0  0  0
  6  3  1  0  0  0  0
  7 20  1  1  0  0  0
  7  5  1  0  0  0  0
  7  6  1  0  0  0  0
  8  2  2  0  0  0  0
  9  3  1  0  0  0  0
  9  2  1  0  0  0  0
 10  1  1  0  0  0  0
 11 10  1  0  0  0  0
 11 14  1  0  0  0  0
 12 15  2  0  0  0  0
 12 13  1  0  0  0  0
 13 11  2  0  0  0  0
 13 10  1  0  0  0  0
 15 16  1  0  0  0  0
 16 14  2  0  0  0  0
 17 19  2  0  0  0  0
 19 18  2  0  0  0  0
 19 15  1  0  0  0  0
 21 23  1  0  0  0  0
 21 26  2  0  0  0  0
 23 24  1  0  0  0  0
 24 22  2  0  0  0  0
 24 20  1  0  0  0  0
 25 21  1  0  0  0  0
 26 22  1  0  0  0  0
M  END
>  <MODEL>
3

>  <REMARK>
 VINA RESULT:      -7.3      3.177      7.878
  Name = 
  4 active torsions:
  status: ('A' for Active; 'I' for Inactive)
    1  A    between atoms: C_2  and  N_6
    2  A    between atoms: C_15  and  N_24
    3  A    between atoms: C_16  and  N_17
    4  A    between atoms: N_17  and  C_22
                            x       y       z     vdW  Elec       q    Type
                         _______ _______ _______ _____ _____    ______ ____

>  <TORSDO>
F 4

$$$$
=
 OpenBabel11072408503D

 26 30  0  0  1  0  0  0  0  0999 V2000
  190.9980  176.4990  144.2700 C   0  0  0  0  0  0  0  0  0  0  0  0
  192.3750  175.8000  142.3780 C   0  0  0  0  0  3  0  0  0  0  0  0
  194.8170  175.9090  142.7830 O   0  0  0  0  0  0  0  0  0  0  0  0
  192.1550  176.7470  145.0290 C   0  0  0  0  0  3  0  0  0  0  0  0
  193.4000  176.5130  144.4420 C   0  0  0  0  0  0  0  0  0  0  0  0
  195.6790  176.3010  143.8520 C   0  0  0  0  0  2  0  0  0  0  0  0
  194.7570  176.6600  145.0400 C   0  0  2  0  0  3  0  0  0  0  0  0
  191.1110  176.0180  142.9500 C   0  0  0  0  0  3  0  0  0  0  0  0
  193.5010  176.0620  143.1590 C   0  0  0  0  0  0  0  0  0  0  0  0
  189.7140  176.7200  144.8430 N   0  0  0  0  0  0  0  0  0  0  0  0
  188.7470  176.4510  145.8280 C   0  0  0  0  0  0  0  0  0  0  0  0
  187.3140  178.0720  144.6570 C   0  0  0  0  0  3  0  0  0  0  0  0
  188.4610  177.3570  144.8340 C   0  0  0  0  0  0  0  0  0  0  0  0
  187.9400  176.0680  146.8570 C   0  0  0  0  0  3  0  0  0  0  0  0
  186.3690  177.7400  145.6980 C   0  0  0  0  0  0  0  0  0  0  0  0
  186.6870  176.7700  146.7570 C   0  0  0  0  0  3  0  0  0  0  0  0
  184.0750  177.9130  146.5110 O   0  0  0  0  0  0  0  0  0  0  0  0
  184.8630  179.3560  144.9540 O   0  0  0  0  0  0  0  0  0  0  0  0
  185.0820  178.3740  145.6940 N   0  0  0  0  0  0  0  0  0  0  0  0
  194.9460  175.6690  146.0910 N   0  0  0  0  0  2  0  0  0  0  0  0
  196.3440  172.1380  145.5650 C   0  0  0  0  0  0  0  0  0  0  0  0
  194.4150  173.2920  145.4800 C   0  0  0  0  0  3  0  0  0  0  0  0
  196.8500  173.6890  145.9760 S   0  0  0  0  0  0  0  0  0  0  0  0
  195.2950  174.3060  145.8390 C   0  0  0  0  0  0  0  0  0  0  0  0
  197.2430  170.9550  145.4770 C   0  0  0  0  0  1  0  0  0  0  0  0
  195.0160  172.0810  145.3260 N   0  0  0  0  0  0  0  0  0  0  0  0
  1 10  1  0  0  0  0
  1  4  1  0  0  0  0
  2  8  1  0  0  0  0
  2  9  2  0  0  0  0
  3  9  1  0  0  0  0
  3  6  1  0  0  0  0
  5  4  2  0  0  0  0
  5  7  1  0  0  0  0
  6  7  1  0  0  0  0
  7 20  1  1  0  0  0
  8  1  2  0  0  0  0
  9  5  1  0  0  0  0
 10 11  1  0  0  0  0
 11 14  1  0  0  0  0
 12 13  1  0  0  0  0
 12 15  2  0  0  0  0
 13 10  1  0  0  0  0
 13 11  2  0  0  0  0
 15 16  1  0  0  0  0
 16 14  2  0  0  0  0
 18 19  2  0  0  0  0
 19 15  1  0  0  0  0
 19 17  2  0  0  0  0
 21 23  1  0  0  0  0
 22 24  2  0  0  0  0
 24 23  1  0  0  0  0
 24 20  1  0  0  0  0
 25 21  1  0  0  0  0
 26 22  1  0  0  0  0
 26 21  2  0  0  0  0
M  END
>  <MODEL>
4

>  <REMARK>
 VINA RESULT:      -7.3      3.407      8.475
  Name = 
  4 active torsions:
  status: ('A' for Active; 'I' for Inactive)
    1  A    between atoms: C_2  and  N_6
    2  A    between atoms: C_15  and  N_24
    3  A    between atoms: C_16  and  N_17
    4  A    between atoms: N_17  and  C_22
                            x       y       z     vdW  Elec       q    Type
                         _______ _______ _______ _____ _____    ______ ____

>  <TORSDO>
F 4

$$$$
=
 OpenBabel11072408503D

 26 30  0  0  1  0  0  0  0  0999 V2000
  190.3040  176.5260  146.0690 C   0  0  0  0  0  0  0  0  0  0  0  0
  192.2390  176.5150  147.5580 C   0  0  0  0  0  3  0  0  0  0  0  0
  194.3250  175.6550  146.5330 O   0  0  0  0  0  0  0  0  0  0  0  0
  191.0900  175.9990  145.0300 C   0  0  0  0  0  3  0  0  0  0  0  0
  192.4400  175.7430  145.2810 C   0  0  0  0  0  0  0  0  0  0  0  0
  194.7220  175.1260  145.2660 C   0  0  0  0  0  2  0  0  0  0  0  0
  193.4820  175.2260  144.3490 C   0  0  2  0  0  3  0  0  0  0  0  0
  190.8820  176.7910  147.3270 C   0  0  0  0  0  3  0  0  0  0  0  0
  192.9890  175.9880  146.5060 C   0  0  0  0  0  0  0  0  0  0  0  0
  188.9270  176.8070  145.8420 N   0  0  0  0  0  0  0  0  0  0  0  0
  187.5910  176.8330  146.2820 C   0  0  0  0  0  0  0  0  0  0  0  0
  187.0270  177.7050  144.0510 C   0  0  0  0  0  3  0  0  0  0  0  0
  187.8870  177.2470  145.0040 C   0  0  0  0  0  0  0  0  0  0  0  0
  186.3650  176.7910  146.8750 C   0  0  0  0  0  3  0  0  0  0  0  0
  185.6790  177.6970  144.5700 C   0  0  0  0  0  0  0  0  0  0  0  0
  185.3740  177.2550  145.9380 C   0  0  0  0  0  3  0  0  0  0  0  0
  183.6800  179.0410  144.1790 O   0  0  0  0  0  0  0  0  0  0  0  0
  184.5060  177.6970  142.5550 O   0  0  0  0  0  0  0  0  0  0  0  0
  184.6070  178.1330  143.7210 N   0  0  0  0  0  0  0  0  0  0  0  0
  193.7510  176.2130  143.3100 N   0  0  0  0  0  2  0  0  0  0  0  0
  196.3160  175.6890  140.5090 C   0  0  0  0  0  0  0  0  0  0  0  0
  194.1550  175.3070  141.0030 C   0  0  0  0  0  3  0  0  0  0  0  0
  196.1910  176.3520  142.0510 S   0  0  0  0  0  0  0  0  0  0  0  0
  194.5650  175.9510  142.1650 C   0  0  0  0  0  0  0  0  0  0  0  0
  197.5660  175.6660  139.7020 C   0  0  0  0  0  1  0  0  0  0  0  0
  195.1460  175.1690  140.0800 N   0  0  0  0  0  0  0  0  0  0  0  0
  1  8  1  0  0  0  0
  4  5  1  0  0  0  0
  4  1  2  0  0  0  0
  5  9  2  0  0  0  0
  6  3  1  0  0  0  0
  7 20  1  6  0  0  0
  7  6  1  0  0  0  0
  7  5  1  0  0  0  0
  8  2  2  0  0  0  0
  9  3  1  0  0  0  0
  9  2  1  0  0  0  0
 10  1  1  0  0  0  0
 10 11  1  0  0  0  0
 11 14  1  0  0  0  0
 12 15  2  0  0  0  0
 12 13  1  0  0  0  0
 13 10  1  0  0  0  0
 13 11  2  0  0  0  0
 15 16  1  0  0  0  0
 16 14  2  0  0  0  0
 18 19  2  0  0  0  0
 19 17  2  0  0  0  0
 19 15  1  0  0  0  0
 21 23  1  0  0  0  0
 22 24  2  0  0  0  0
 23 24  1  0  0  0  0
 24 20  1  0  0  0  0
 25 21  1  0  0  0  0
 26 21  2  0  0  0  0
 26 22  1  0  0  0  0
M  END
>  <MODEL>
5

>  <REMARK>
 VINA RESULT:      -7.2      3.463      7.759
  Name = 
  4 active torsions:
  status: ('A' for Active; 'I' for Inactive)
    1  A    between atoms: C_2  and  N_6
    2  A    between atoms: C_15  and  N_24
    3  A    between atoms: C_16  and  N_17
    4  A    between atoms: N_17  and  C_22
                            x       y       z     vdW  Elec       q    Type
                         _______ _______ _______ _____ _____    ______ ____

>  <TORSDO>
F 4

$$$$
=
 OpenBabel11072408503D

 26 30  0  0  1  0  0  0  0  0999 V2000
  190.1060  175.5970  146.0080 C   0  0  0  0  0  0  0  0  0  0  0  0
  192.3890  175.3380  146.8320 C   0  0  0  0  0  3  0  0  0  0  0  0
  193.6630  173.4910  145.7810 O   0  0  0  0  0  0  0  0  0  0  0  0
  190.2940  174.5170  145.1270 C   0  0  0  0  0  3  0  0  0  0  0  0
  191.5320  173.8730  145.1190 C   0  0  0  0  0  0  0  0  0  0  0  0
  193.4170  172.4830  144.7990 C   0  0  0  0  0  2  0  0  0  0  0  0
  191.9910  172.7420  144.2640 C   0  0  2  0  0  3  0  0  0  0  0  0
  191.1560  176.0100  146.8520 C   0  0  0  0  0  3  0  0  0  0  0  0
  192.5390  174.2680  145.9490 C   0  0  0  0  0  0  0  0  0  0  0  0
  188.8570  176.2810  146.0340 N   0  0  0  0  0  0  0  0  0  0  0  0
  187.6200  176.5530  146.6430 C   0  0  0  0  0  0  0  0  0  0  0  0
  187.1840  178.0640  144.7510 C   0  0  0  0  0  3  0  0  0  0  0  0
  187.9370  177.1730  145.4580 C   0  0  0  0  0  0  0  0  0  0  0  0
  186.4770  176.6940  147.3710 C   0  0  0  0  0  3  0  0  0  0  0  0
  185.9300  178.2880  145.4310 C   0  0  0  0  0  0  0  0  0  0  0  0
  185.6030  177.6210  146.7000 C   0  0  0  0  0  3  0  0  0  0  0  0
  185.3970  180.2360  144.0630 O   0  0  0  0  0  0  0  0  0  0  0  0
  183.7540  179.0270  145.0450 O   0  0  0  0  0  0  0  0  0  0  0  0
  184.9770  179.1890  144.8490 N   0  0  0  0  0  0  0  0  0  0  0  0
  192.0870  173.1770  142.8760 N   0  0  0  0  0  2  0  0  0  0  0  0
  189.4530  172.5390  140.1640 C   0  0  0  0  0  0  0  0  0  0  0  0
  191.2040  171.5540  141.1750 C   0  0  0  0  0  3  0  0  0  0  0  0
  189.9240  173.7180  141.2690 S   0  0  0  0  0  0  0  0  0  0  0  0
  191.1760  172.7660  141.8540 C   0  0  0  0  0  0  0  0  0  0  0  0
  188.3180  172.6830  139.2120 C   0  0  0  0  0  1  0  0  0  0  0  0
  190.2300  171.4360  140.2330 N   0  0  0  0  0  0  0  0  0  0  0  0
  1 10  1  0  0  0  0
  1  8  1  0  0  0  0
  2  8  2  0  0  0  0
  3  9  1  0  0  0  0
  4  1  2  0  0  0  0
  5  4  1  0  0  0  0
  5  9  2  0  0  0  0
  6  3  1  0  0  0  0
  7 20  1  6  0  0  0
  7  6  1  0  0  0  0
  7  5  1  0  0  0  0
  9  2  1  0  0  0  0
 10 11  1  0  0  0  0
 11 14  1  0  0  0  0
 12 15  2  0  0  0  0
 12 13  1  0  0  0  0
 13 10  1  0  0  0  0
 13 11  2  0  0  0  0
 15 16  1  0  0  0  0
 16 14  2  0  0  0  0
 17 19  2  0  0  0  0
 19 18  2  0  0  0  0
 19 15  1  0  0  0  0
 21 26  2  0  0  0  0
 21 23  1  0  0  0  0
 22 24  2  0  0  0  0
 23 24  1  0  0  0  0
 24 20  1  0  0  0  0
 25 21  1  0  0  0  0
 26 22  1  0  0  0  0
M  END
>  <MODEL>
6

>  <REMARK>
 VINA RESULT:      -7.2      2.627      7.048
  Name = 
  4 active torsions:
  status: ('A' for Active; 'I' for Inactive)
    1  A    between atoms: C_2  and  N_6
    2  A    between atoms: C_15  and  N_24
    3  A    between atoms: C_16  and  N_17
    4  A    between atoms: N_17  and  C_22
                            x       y       z     vdW  Elec       q    Type
                         _______ _______ _______ _____ _____    ______ ____

>  <TORSDO>
F 4

$$$$
=
 OpenBabel11072408503D

 26 30  0  0  1  0  0  0  0  0999 V2000
  190.8210  175.9360  145.9570 C   0  0  0  0  0  0  0  0  0  0  0  0
  189.0300  174.9570  147.2970 C   0  0  0  0  0  3  0  0  0  0  0  0
  186.8570  176.1360  147.1350 O   0  0  0  0  0  0  0  0  0  0  0  0
  189.9410  176.9300  145.4940 C   0  0  0  0  0  3  0  0  0  0  0  0
  188.6200  176.9110  145.9440 C   0  0  0  0  0  0  0  0  0  0  0  0
  186.3440  177.2880  146.4620 C   0  0  0  0  0  2  0  0  0  0  0  0
  187.4950  177.8190  145.5780 C   0  0  2  0  0  3  0  0  0  0  0  0
  190.3610  174.9480  146.8500 C   0  0  0  0  0  3  0  0  0  0  0  0
  188.1860  175.9600  146.8200 C   0  0  0  0  0  0  0  0  0  0  0  0
  192.1720  175.9230  145.5100 N   0  0  0  0  0  0  0  0  0  0  0  0
  193.5380  175.6790  145.7380 C   0  0  0  0  0  0  0  0  0  0  0  0
  193.9130  176.4500  143.4320 C   0  0  0  0  0  3  0  0  0  0  0  0
  193.1360  176.1610  144.5150 C   0  0  0  0  0  0  0  0  0  0  0  0
  194.8080  175.3870  146.1360 C   0  0  0  0  0  3  0  0  0  0  0  0
  195.2980  176.1830  143.7420 C   0  0  0  0  0  0  0  0  0  0  0  0
  195.7160  175.6660  145.0540 C   0  0  0  0  0  3  0  0  0  0  0  0
  195.9240  176.7610  141.4560 O   0  0  0  0  0  0  0  0  0  0  0  0
  197.5080  176.3590  143.0230 O   0  0  0  0  0  0  0  0  0  0  0  0
  196.2940  176.4320  142.7400 N   0  0  0  0  0  0  0  0  0  0  0  0
  187.1340  177.6230  144.1790 N   0  0  0  0  0  2  0  0  0  0  0  0
  183.8290  178.2510  142.3410 C   0  0  0  0  0  0  0  0  0  0  0  0
  184.8850  178.7370  144.2670 C   0  0  0  0  0  3  0  0  0  0  0  0
  185.3020  177.4650  142.1360 S   0  0  0  0  0  0  0  0  0  0  0  0
  185.8590  177.9700  143.6370 C   0  0  0  0  0  0  0  0  0  0  0  0
  182.7260  178.2470  141.3420 C   0  0  0  0  0  1  0  0  0  0  0  0
  183.7530  178.8910  143.5290 N   0  0  0  0  0  0  0  0  0  0  0  0
  1  8  1  0  0  0  0
  4  5  1  0  0  0  0
  4  1  2  0  0  0  0
  5  9  2  0  0  0  0
  6  3  1  0  0  0  0
  7 20  1  6  0  0  0
  7  5  1  0  0  0  0
  7  6  1  0  0  0  0
  8  2  2  0  0  0  0
  9  3  1  0  0  0  0
  9  2  1  0  0  0  0
 10 11  1  0  0  0  0
 10  1  1  0  0  0  0
 11 14  1  0  0  0  0
 12 15  2  0  0  0  0
 12 13  1  0  0  0  0
 13 10  1  0  0  0  0
 13 11  2  0  0  0  0
 15 16  1  0  0  0  0
 16 14  2  0  0  0  0
 17 19  2  0  0  0  0
 19 18  2  0  0  0  0
 19 15  1  0  0  0  0
 21 26  2  0  0  0  0
 23 21  1  0  0  0  0
 23 24  1  0  0  0  0
 24 20  1  0  0  0  0
 24 22  2  0  0  0  0
 25 21  1  0  0  0  0
 26 22  1  0  0  0  0
M  END
>  <MODEL>
7

>  <REMARK>
 VINA RESULT:      -7.1      2.490      3.834
  Name = 
  4 active torsions:
  status: ('A' for Active; 'I' for Inactive)
    1  A    between atoms: C_2  and  N_6
    2  A    between atoms: C_15  and  N_24
    3  A    between atoms: C_16  and  N_17
    4  A    between atoms: N_17  and  C_22
                            x       y       z     vdW  Elec       q    Type
                         _______ _______ _______ _____ _____    ______ ____

>  <TORSDO>
F 4

$$$$
=
 OpenBabel11072408503D

 26 30  0  0  1  0  0  0  0  0999 V2000
  189.8720  176.5300  146.0180 C   0  0  0  0  0  0  0  0  0  0  0  0
  187.8620  175.6760  147.1090 C   0  0  0  0  0  3  0  0  0  0  0  0
  185.7920  176.9350  146.5920 O   0  0  0  0  0  0  0  0  0  0  0  0
  189.1150  177.5400  145.3980 C   0  0  0  0  0  3  0  0  0  0  0  0
  187.7430  177.5920  145.6490 C   0  0  0  0  0  0  0  0  0  0  0  0
  185.4360  178.0800  145.8150 C   0  0  0  0  0  2  0  0  0  0  0  0
  186.7270  178.5300  145.0930 C   0  0  2  0  0  3  0  0  0  0  0  0
  189.2420  175.5950  146.8640 C   0  0  0  0  0  3  0  0  0  0  0  0
  187.1430  176.6930  146.4820 C   0  0  0  0  0  0  0  0  0  0  0  0
  191.2720  176.4440  145.7750 N   0  0  0  0  0  0  0  0  0  0  0  0
  192.5980  176.4000  146.2410 C   0  0  0  0  0  0  0  0  0  0  0  0
  193.2720  176.2760  143.8780 C   0  0  0  0  0  3  0  0  0  0  0  0
  192.3590  176.3590  144.8880 C   0  0  0  0  0  0  0  0  0  0  0  0
  193.8060  176.3670  146.8700 C   0  0  0  0  0  3  0  0  0  0  0  0
  194.6060  176.2420  144.4310 C   0  0  0  0  0  0  0  0  0  0  0  0
  194.8490  176.2840  145.8800 C   0  0  0  0  0  3  0  0  0  0  0  0
  196.6660  177.1700  143.5110 O   0  0  0  0  0  0  0  0  0  0  0  0
  195.8610  175.1860  142.7750 O   0  0  0  0  0  0  0  0  0  0  0  0
  195.7260  176.1660  143.5360 N   0  0  0  0  0  0  0  0  0  0  0  0
  186.5650  178.2960  143.6630 N   0  0  0  0  0  2  0  0  0  0  0  0
  188.1540  175.3850  141.7390 C   0  0  0  0  0  0  0  0  0  0  0  0
  186.4210  175.8540  143.0950 C   0  0  0  0  0  3  0  0  0  0  0  0
  188.3690  177.0300  142.0190 S   0  0  0  0  0  0  0  0  0  0  0  0
  187.0100  177.1100  143.0020 C   0  0  0  0  0  0  0  0  0  0  0  0
  189.0490  174.5520  140.8920 C   0  0  0  0  0  1  0  0  0  0  0  0
  187.0690  174.8960  142.3780 N   0  0  0  0  0  0  0  0  0  0  0  0
  1  8  1  0  0  0  0
  4  5  1  0  0  0  0
  4  1  2  0  0  0  0
  5  9  2  0  0  0  0
  6  3  1  0  0  0  0
  7 20  1  6  0  0  0
  7  5  1  0  0  0  0
  7  6  1  0  0  0  0
  8  2  2  0  0  0  0
  9  3  1  0  0  0  0
  9  2  1  0  0  0  0
 10  1  1  0  0  0  0
 10 11  1  0  0  0  0
 11 14  1  0  0  0  0
 12 15  2  0  0  0  0
 12 13  1  0  0  0  0
 13 10  1  0  0  0  0
 13 11  2  0  0  0  0
 15 16  1  0  0  0  0
 16 14  2  0  0  0  0
 17 19  2  0  0  0  0
 18 19  2  0  0  0  0
 19 15  1  0  0  0  0
 21 23  1  0  0  0  0
 21 26  2  0  0  0  0
 23 24  1  0  0  0  0
 24 22  2  0  0  0  0
 24 20  1  0  0  0  0
 25 21  1  0  0  0  0
 26 22  1  0  0  0  0
M  END
>  <MODEL>
8

>  <REMARK>
 VINA RESULT:      -7.0      1.819      2.433
  Name = 
  4 active torsions:
  status: ('A' for Active; 'I' for Inactive)
    1  A    between atoms: C_2  and  N_6
    2  A    between atoms: C_15  and  N_24
    3  A    between atoms: C_16  and  N_17
    4  A    between atoms: N_17  and  C_22
                            x       y       z     vdW  Elec       q    Type
                         _______ _______ _______ _____ _____    ______ ____

>  <TORSDO>
F 4

$$$$
=
 OpenBabel11072408503D

 26 30  0  0  1  0  0  0  0  0999 V2000
  187.0260  176.2020  142.2910 C   0  0  0  0  0  0  0  0  0  0  0  0
  185.2930  177.9180  142.4060 C   0  0  0  0  0  3  0  0  0  0  0  0
  184.4670  178.4000  144.6920 O   0  0  0  0  0  0  0  0  0  0  0  0
  186.9780  176.0500  143.6870 C   0  0  0  0  0  3  0  0  0  0  0  0
  186.0850  176.8410  144.4130 C   0  0  0  0  0  0  0  0  0  0  0  0
  184.7210  177.9210  146.0130 C   0  0  0  0  0  2  0  0  0  0  0  0
  185.8710  176.8960  145.8870 C   0  0  2  0  0  3  0  0  0  0  0  0
  186.1900  177.1420  141.6540 C   0  0  0  0  0  3  0  0  0  0  0  0
  185.2680  177.7380  143.7890 C   0  0  0  0  0  0  0  0  0  0  0  0
  187.9320  175.4170  141.5230 N   0  0  0  0  0  0  0  0  0  0  0  0
  189.1620  174.7500  141.3810 C   0  0  0  0  0  0  0  0  0  0  0  0
  188.4110  174.1540  139.1150 C   0  0  0  0  0  3  0  0  0  0  0  0
  188.2690  174.7450  140.3350 C   0  0  0  0  0  0  0  0  0  0  0  0
  190.3900  174.1620  141.4240 C   0  0  0  0  0  3  0  0  0  0  0  0
  189.6960  173.4970  139.0400 C   0  0  0  0  0  0  0  0  0  0  0  0
  190.6410  173.5070  140.1660 C   0  0  0  0  0  3  0  0  0  0  0  0
  189.3730  173.0610  136.6620 O   0  0  0  0  0  0  0  0  0  0  0  0
  191.0020  172.0000  137.8210 O   0  0  0  0  0  0  0  0  0  0  0  0
  190.0580  172.8170  137.8300 N   0  0  0  0  0  0  0  0  0  0  0  0
  187.0540  177.4430  146.5400 N   0  0  0  0  0  2  0  0  0  0  0  0
  190.5070  175.8600  147.0550 C   0  0  0  0  0  0  0  0  0  0  0  0
  188.3160  175.3730  147.1940 C   0  0  0  0  0  3  0  0  0  0  0  0
  189.7990  177.3110  146.5820 S   0  0  0  0  0  0  0  0  0  0  0  0
  188.2490  176.6930  146.7640 C   0  0  0  0  0  0  0  0  0  0  0  0
  191.9750  175.6310  147.1500 C   0  0  0  0  0  1  0  0  0  0  0  0
  189.5880  174.9150  147.3490 N   0  0  0  0  0  0  0  0  0  0  0  0
  1  4  1  0  0  0  0
  2  9  2  0  0  0  0
  3  6  1  0  0  0  0
  4  5  2  0  0  0  0
  5  7  1  0  0  0  0
  7  6  1  0  0  0  0
  7 20  1  1  0  0  0
  8  1  2  0  0  0  0
  8  2  1  0  0  0  0
  9  5  1  0  0  0  0
  9  3  1  0  0  0  0
 10  1  1  0  0  0  0
 11 14  1  0  0  0  0
 11 10  1  0  0  0  0
 12 13  1  0  0  0  0
 13 11  2  0  0  0  0
 13 10  1  0  0  0  0
 15 12  2  0  0  0  0
 15 16  1  0  0  0  0
 16 14  2  0  0  0  0
 17 19  2  0  0  0  0
 18 19  2  0  0  0  0
 19 15  1  0  0  0  0
 20 24  1  0  0  0  0
 21 25  1  0  0  0  0
 21 26  2  0  0  0  0
 22 26  1  0  0  0  0
 23 24  1  0  0  0  0
 23 21  1  0  0  0  0
 24 22  2  0  0  0  0
M  END
>  <MODEL>
9

>  <REMARK>
 VINA RESULT:      -6.9      3.270      6.144
  Name = 
  4 active torsions:
  status: ('A' for Active; 'I' for Inactive)
    1  A    between atoms: C_2  and  N_6
    2  A    between atoms: C_15  and  N_24
    3  A    between atoms: C_16  and  N_17
    4  A    between atoms: N_17  and  C_22
                            x       y       z     vdW  Elec       q    Type
                         _______ _______ _______ _____ _____    ______ ____

>  <TORSDO>
F 4

$$$$
