=
 OpenBabel11062420403D

 60 68  0  0  1  0  0  0  0  0999 V2000
  191.3440  172.6230  138.3000 C   0  0  0  0  0  2  0  0  0  0  0  0
  189.7450  176.1510  143.0830 O   0  0  0  0  0  0  0  0  0  0  0  0
  190.1020  173.1750  138.9750 C   0  0  0  0  0  0  0  0  0  0  0  0
  189.2600  173.6740  138.2190 O   0  0  0  0  0  0  0  0  0  0  0  0
  190.4830  174.8930  142.9900 C   0  0  1  0  0  3  0  0  0  0  0  0
  194.1150  174.0670  145.3340 C   0  0  0  0  0  2  0  0  0  0  0  0
  194.1070  174.2570  143.7490 C   0  0  2  0  0  3  0  0  0  0  0  0
  192.7620  174.5110  146.0240 C   0  0  0  0  0  2  0  0  0  0  0  0
  192.6610  172.2220  138.9620 C   0  0  2  0  0  3  0  0  0  0  0  0
  186.8860  177.7210  143.4170 C   0  0  0  0  0  0  0  0  0  0  0  0
  197.6970  172.3720  142.3480 O   0  0  0  0  0  0  0  0  0  0  0  0
  188.4810  173.2920  142.3370 C   0  0  0  0  0  2  0  0  0  0  0  0
  188.3060  175.8770  146.4260 C   0  0  0  0  0  2  0  0  0  0  0  0
  196.8470  171.3100  141.9410 C   0  0  0  0  0  2  0  0  0  0  0  0
  189.9230  173.1800  140.4290 N   0  0  0  0  0  2  0  0  0  0  0  0
  196.6490  174.3570  142.5010 O   0  0  0  0  0  1  0  0  0  0  0  0
  188.7920  173.9020  141.0140 C   0  0  0  0  0  2  0  0  0  0  0  0
  189.0280  176.5280  144.2360 C   0  0  0  0  0  0  0  0  0  0  0  0
  186.1800  178.9200  142.8650 O   0  0  0  0  0  0  0  0  0  0  0  0
  194.6700  168.9130  141.9660 O   0  0  0  0  0  0  0  0  0  0  0  0
  190.7430  175.9500  146.0610 N   0  0  0  0  0  0  0  0  0  0  0  0
  192.9560  174.9550  143.1690 N   0  0  0  0  0  2  0  0  0  0  0  0
  193.1470  170.4090  143.1850 O   0  0  0  0  0  0  0  0  0  0  0  0
  192.7130  171.7990  140.4730 C   0  0  1  0  0  3  0  0  0  0  0  0
  194.3050  170.3620  142.2350 S   0  0  0  0  0  0  0  0  0  0  0  0
  189.3480  176.0660  145.5750 C   0  0  0  0  0  0  0  0  0  0  0  0
  196.9100  173.1870  143.1520 C   0  0  0  0  0  0  0  0  0  0  0  0
  185.6190  177.7250  143.0540 C   0  0  2  0  0  3  0  0  0  0  0  0
  194.0110  171.1220  140.6560 N   0  0  0  0  0  0  0  0  0  0  0  0
  193.0800  173.2270  139.9940 C   0  0  0  0  0  2  0  0  0  0  0  0
  187.8840  177.0990  143.9370 C   0  0  0  0  0  0  0  0  0  0  0  0
  194.4260  173.0610  143.0520 O   0  0  0  0  0  0  0  0  0  0  0  0
  197.7310  173.5130  144.2960 O   0  0  0  0  0  1  0  0  0  0  0  0
  195.8230  171.1060  143.0330 C   0  0  2  0  0  3  0  0  0  0  0  0
  191.7140  174.7140  143.9150 C   0  0  1  0  0  3  0  0  0  0  0  0
  191.9130  175.5180  145.2050 C   0  0  2  0  0  3  0  0  0  0  0  0
  189.5700  173.6570  143.3400 C   0  0  0  0  0  2  0  0  0  0  0  0
  195.6430  172.4750  143.6030 C   0  0  1  0  0  3  0  0  0  0  0  0
  191.3670  176.7460  147.1770 C   0  0  2  0  0  3  0  0  0  0  0  0
  191.3480  175.9220  148.3740 O   0  0  0  0  0  0  0  0  0  0  0  0
  191.6470  177.9720  149.2710 C   0  0  0  0  0  1  0  0  0  0  0  0
  190.6880  177.1340  148.5270 C   0  0  1  0  0  3  0  0  0  0  0  0
  184.7240  178.1010  144.1350 O   0  0  0  0  0  0  0  0  0  0  0  0
  184.8590  179.5220  144.1650 C   0  0  0  0  0  1  0  0  0  0  0  0
  194.3480  170.1930  139.5590 C   0  0  0  0  0  2  0  0  0  0  0  0
  195.6340  170.4720  138.7960 C   0  0  0  0  0  0  0  0  0  0  0  0
  196.7270  170.1850  139.2690 O   0  0  0  0  0  0  0  0  0  0  0  0
  195.4800  170.8340  137.3210 C   0  0  1  0  0  3  0  0  0  0  0  0
  194.1140  170.2500  136.7780 C   0  0  0  0  0  1  0  0  0  0  0  0
  193.9970  176.7830  135.8190 C   0  0  1  0  0  3  0  0  0  0  0  0
  195.4740  176.3600  135.8210 C   0  0  1  0  0  3  0  0  0  0  0  0
  194.4220  174.3900  136.5640 C   0  0  1  0  0  3  0  0  0  0  0  0
  193.6880  177.4090  134.5140 N   0  0  0  0  0  1  0  0  0  0  0  0
  195.5450  172.3930  137.1670 C   0  0  2  0  0  3  0  0  0  0  0  0
  194.3880  172.9170  136.3390 C   0  0  0  0  0  2  0  0  0  0  0  0
  195.6060  174.8570  135.8090 C   0  0  2  0  0  3  0  0  0  0  0  0
  196.4010  177.1190  134.8520 C   0  0  0  0  0  1  0  0  0  0  0  0
  196.8730  172.8460  136.5410 C   0  0  0  0  0  2  0  0  0  0  0  0
  196.8410  174.3980  136.5340 C   0  0  0  0  0  2  0  0  0  0  0  0
  193.0070  175.2870  135.8360 S   0  0  0  0  0  0  0  0  0  0  0  0
  1  3  1  0  0  0  0
  2 18  1  0  0  0  0
  3 15  1  0  0  0  0
  4  3  2  0  0  0  0
  5  2  1  0  0  0  0
  5 37  1  1  0  0  0
  5 35  1  0  0  0  0
  6  8  1  0  0  0  0
  7  6  1  1  0  0  0
  9  1  1  1  0  0  0
  9 30  1  0  0  0  0
  9 24  1  0  0  0  0
 10 31  2  0  0  0  0
 11 27  1  0  0  0  0
 12 37  1  0  0  0  0
 14 11  1  0  0  0  0
 15 17  1  0  0  0  0
 16 27  1  0  0  0  0
 17 12  1  0  0  0  0
 18 26  1  0  0  0  0
 19 28  1  0  0  0  0
 19 10  1  0  0  0  0
 20 25  2  0  0  0  0
 22  7  1  0  0  0  0
 24 30  1  1  0  0  0
 24 29  1  0  0  0  0
 25 34  1  0  0  0  0
 25 23  2  0  0  0  0
 26 21  1  0  0  0  0
 26 13  2  0  0  0  0
 27 38  1  0  0  0  0
 27 33  1  0  0  0  0
 28 10  1  0  0  0  0
 28 43  1  1  0  0  0
 29 25  1  0  0  0  0
 31 18  2  0  0  0  0
 32  7  1  0  0  0  0
 34 14  1  6  0  0  0
 34 38  1  0  0  0  0
 35 22  1  6  0  0  0
 35 36  1  0  0  0  0
 36  8  1  1  0  0  0
 36 21  1  0  0  0  0
 38 32  1  6  0  0  0
 39 21  1  6  0  0  0
 39 40  1  0  0  0  0
 39 42  1  0  0  0  0
 40 42  1  0  0  0  0
 42 41  1  1  0  0  0
 43 44  1  0  0  0  0
 45 29  1  0  0  0  0
 46 47  2  0  0  0  0
 46 45  1  0  0  0  0
 48 49  1  1  0  0  0
 48 46  1  0  0  0  0
 50 53  1  6  0  0  0
 50 51  1  0  0  0  0
 50 60  1  0  0  0  0
 51 57  1  6  0  0  0
 52 55  1  6  0  0  0
 54 48  1  6  0  0  0
 55 54  1  0  0  0  0
 56 51  1  0  0  0  0
 56 59  1  1  0  0  0
 56 52  1  0  0  0  0
 58 54  1  0  0  0  0
 59 58  1  0  0  0  0
 60 52  1  0  0  0  0
M  END
>  <MODEL>
1

>  <REMARK>
 VINA RESULT:      -8.1      0.000      0.000
  Name = 
  6 active torsions:
  status: ('A' for Active; 'I' for Inactive)
    1  A    between atoms: C_1  and  N_33
    2  A    between atoms: O_10  and  C_45
    3  A    between atoms: C_14  and  C_19
    4  A    between atoms: C_14  and  C_28
    5  A    between atoms: C_19  and  C_35
    6  A    between atoms: C_28  and  N_46
                            x       y       z     vdW  Elec       q    Type
                         _______ _______ _______ _____ _____    ______ ____

>  <TORSDO>
F 6

$$$$
=
 OpenBabel11062420403D

 60 68  0  0  1  0  0  0  0  0999 V2000
  191.9980  173.3150  138.8870 C   0  0  0  0  0  2  0  0  0  0  0  0
  188.1880  176.7900  142.2480 O   0  0  0  0  0  0  0  0  0  0  0  0
  190.5380  173.7250  138.9390 C   0  0  0  0  0  0  0  0  0  0  0  0
  190.0440  174.0790  137.8620 O   0  0  0  0  0  0  0  0  0  0  0  0
  189.0230  175.6370  142.5810 C   0  0  1  0  0  3  0  0  0  0  0  0
  191.4020  175.3910  146.2750 C   0  0  0  0  0  2  0  0  0  0  0  0
  192.0400  175.5150  144.8170 C   0  0  2  0  0  3  0  0  0  0  0  0
  189.8470  175.6800  146.3040 C   0  0  0  0  0  2  0  0  0  0  0  0
  192.9500  173.1180  140.0650 C   0  0  2  0  0  3  0  0  0  0  0  0
  185.3080  177.9810  141.2330 C   0  0  0  0  0  0  0  0  0  0  0  0
  196.0590  174.0640  145.1920 O   0  0  0  0  0  0  0  0  0  0  0  0
  187.6550  173.7610  141.3120 C   0  0  0  0  0  2  0  0  0  0  0  0
  185.5170  176.4620  144.7140 C   0  0  0  0  0  2  0  0  0  0  0  0
  195.5730  172.8840  144.5710 C   0  0  0  0  0  2  0  0  0  0  0  0
  189.7670  173.7650  140.1830 N   0  0  0  0  0  2  0  0  0  0  0  0
  194.8460  175.8980  144.7200 O   0  0  0  0  0  1  0  0  0  0  0  0
  188.4270  174.3540  140.1840 C   0  0  0  0  0  2  0  0  0  0  0  0
  187.0190  177.1150  142.9640 C   0  0  0  0  0  0  0  0  0  0  0  0
  184.7790  179.0540  140.3330 O   0  0  0  0  0  0  0  0  0  0  0  0
  193.8450  170.2250  143.9170 O   0  0  0  0  0  0  0  0  0  0  0  0
  187.8620  176.8400  145.3770 N   0  0  0  0  0  0  0  0  0  0  0  0
  191.1720  176.0310  143.7540 N   0  0  0  0  0  2  0  0  0  0  0  0
  191.8060  171.5540  144.2610 O   0  0  0  0  0  0  0  0  0  0  0  0
  192.4080  172.7660  141.4960 C   0  0  1  0  0  3  0  0  0  0  0  0
  193.2540  171.6230  143.8790 S   0  0  0  0  0  0  0  0  0  0  0  0
  186.7950  176.7520  144.3530 C   0  0  0  0  0  0  0  0  0  0  0  0
  194.9280  174.7990  145.5240 C   0  0  0  0  0  0  0  0  0  0  0  0
  184.3160  177.8050  140.3830 C   0  0  2  0  0  3  0  0  0  0  0  0
  193.5720  172.2730  142.2570 N   0  0  0  0  0  0  0  0  0  0  0  0
  192.7920  174.2100  141.0820 C   0  0  0  0  0  2  0  0  0  0  0  0
  186.0540  177.5170  142.1720 C   0  0  0  0  0  0  0  0  0  0  0  0
  192.7430  174.3450  144.4240 O   0  0  0  0  0  0  0  0  0  0  0  0
  195.1560  175.2760  146.8700 O   0  0  0  0  0  1  0  0  0  0  0  0
  194.2120  172.5900  145.1590 C   0  0  2  0  0  3  0  0  0  0  0  0
  189.7640  175.6590  143.9430 C   0  0  1  0  0  3  0  0  0  0  0  0
  189.3210  176.5330  145.1210 C   0  0  2  0  0  3  0  0  0  0  0  0
  188.1800  174.3060  142.6360 C   0  0  0  0  0  2  0  0  0  0  0  0
  193.6700  173.9460  145.4770 C   0  0  1  0  0  3  0  0  0  0  0  0
  187.8750  177.7560  146.5740 C   0  0  2  0  0  3  0  0  0  0  0  0
  187.1740  177.0820  147.6540 O   0  0  0  0  0  0  0  0  0  0  0  0
  187.1210  179.2210  148.3770 C   0  0  0  0  0  1  0  0  0  0  0  0
  186.6260  178.3140  147.3230 C   0  0  1  0  0  3  0  0  0  0  0  0
  183.0170  178.1020  140.9610 O   0  0  0  0  0  0  0  0  0  0  0  0
  182.1180  177.5710  139.9860 C   0  0  0  0  0  1  0  0  0  0  0  0
  194.4320  171.3540  141.4850 C   0  0  0  0  0  2  0  0  0  0  0  0
  195.7910  171.8840  141.0570 C   0  0  0  0  0  0  0  0  0  0  0  0
  196.3320  172.8040  141.6590 O   0  0  0  0  0  0  0  0  0  0  0  0
  196.5650  171.0300  140.0560 C   0  0  1  0  0  3  0  0  0  0  0  0
  195.9560  169.5700  140.0310 C   0  0  0  0  0  1  0  0  0  0  0  0
  196.7630  175.3530  135.4600 C   0  0  1  0  0  3  0  0  0  0  0  0
  195.7670  174.1880  135.3460 C   0  0  1  0  0  3  0  0  0  0  0  0
  196.9010  173.6420  137.3350 C   0  0  1  0  0  3  0  0  0  0  0  0
  196.0230  176.6230  135.2870 N   0  0  0  0  0  1  0  0  0  0  0  0
  196.4980  171.7090  138.6430 C   0  0  2  0  0  3  0  0  0  0  0  0
  196.6680  173.2120  138.7430 C   0  0  0  0  0  2  0  0  0  0  0  0
  195.5830  173.5020  136.6770 C   0  0  2  0  0  3  0  0  0  0  0  0
  194.4730  174.4720  134.5580 C   0  0  0  0  0  1  0  0  0  0  0  0
  195.1810  171.3870  137.9210 C   0  0  0  0  0  2  0  0  0  0  0  0
  195.2870  172.0370  136.5160 C   0  0  0  0  0  2  0  0  0  0  0  0
  197.3390  175.4060  137.1580 S   0  0  0  0  0  0  0  0  0  0  0  0
  1  3  1  0  0  0  0
  2  5  1  0  0  0  0
  2 18  1  0  0  0  0
  3 15  1  0  0  0  0
  4  3  2  0  0  0  0
  5 37  1  1  0  0  0
  5 35  1  0  0  0  0
  6  8  1  0  0  0  0
  7  6  1  1  0  0  0
  9  1  1  6  0  0  0
  9 30  1  0  0  0  0
  9 24  1  0  0  0  0
 10 31  2  0  0  0  0
 11 27  1  0  0  0  0
 12 37  1  0  0  0  0
 14 11  1  0  0  0  0
 15 17  1  0  0  0  0
 16 27  1  0  0  0  0
 17 12  1  0  0  0  0
 18 26  1  0  0  0  0
 19 28  1  0  0  0  0
 19 10  1  0  0  0  0
 22  7  1  0  0  0  0
 24 30  1  1  0  0  0
 24 29  1  0  0  0  0
 25 20  2  0  0  0  0
 25 23  2  0  0  0  0
 25 34  1  0  0  0  0
 26 13  2  0  0  0  0
 26 21  1  0  0  0  0
 27 33  1  0  0  0  0
 28 43  1  1  0  0  0
 28 10  1  0  0  0  0
 29 25  1  0  0  0  0
 31 18  2  0  0  0  0
 32  7  1  0  0  0  0
 34 14  1  6  0  0  0
 34 38  1  0  0  0  0
 35 22  1  6  0  0  0
 35 36  1  0  0  0  0
 36 21  1  0  0  0  0
 36  8  1  1  0  0  0
 38 32  1  6  0  0  0
 38 27  1  0  0  0  0
 39 21  1  6  0  0  0
 39 42  1  0  0  0  0
 39 40  1  0  0  0  0
 42 40  1  0  0  0  0
 42 41  1  1  0  0  0
 44 43  1  0  0  0  0
 45 29  1  0  0  0  0
 46 45  1  0  0  0  0
 46 47  2  0  0  0  0
 48 49  1  6  0  0  0
 48 46  1  0  0  0  0
 50 53  1  1  0  0  0
 50 60  1  0  0  0  0
 51 57  1  1  0  0  0
 51 50  1  0  0  0  0
 51 56  1  0  0  0  0
 52 55  1  1  0  0  0
 54 55  1  0  0  0  0
 54 48  1  1  0  0  0
 56 59  1  6  0  0  0
 56 52  1  0  0  0  0
 58 54  1  0  0  0  0
 59 58  1  0  0  0  0
 60 52  1  0  0  0  0
M  END
>  <MODEL>
2

>  <REMARK>
 VINA RESULT:      -8.0      2.090      2.881
  Name = 
  6 active torsions:
  status: ('A' for Active; 'I' for Inactive)
    1  A    between atoms: C_1  and  N_33
    2  A    between atoms: O_10  and  C_45
    3  A    between atoms: C_14  and  C_19
    4  A    between atoms: C_14  and  C_28
    5  A    between atoms: C_19  and  C_35
    6  A    between atoms: C_28  and  N_46
                            x       y       z     vdW  Elec       q    Type
                         _______ _______ _______ _____ _____    ______ ____

>  <TORSDO>
F 6

$$$$
=
 OpenBabel11062420403D

 60 68  0  0  1  0  0  0  0  0999 V2000
  191.8580  173.3890  139.0570 C   0  0  0  0  0  2  0  0  0  0  0  0
  187.9600  176.9700  142.1980 O   0  0  0  0  0  0  0  0  0  0  0  0
  190.3900  173.7680  139.0810 C   0  0  0  0  0  0  0  0  0  0  0  0
  189.8920  174.0470  137.9840 O   0  0  0  0  0  0  0  0  0  0  0  0
  188.8190  175.8580  142.6000 C   0  0  1  0  0  3  0  0  0  0  0  0
  191.1880  175.8800  146.3080 C   0  0  0  0  0  2  0  0  0  0  0  0
  191.8290  175.9330  144.8470 C   0  0  2  0  0  3  0  0  0  0  0  0
  189.6270  176.1360  146.3170 C   0  0  0  0  0  2  0  0  0  0  0  0
  192.8100  173.2820  140.2470 C   0  0  2  0  0  3  0  0  0  0  0  0
  185.0590  178.0360  141.1070 C   0  0  0  0  0  0  0  0  0  0  0  0
  195.8780  174.5950  145.3180 O   0  0  0  0  0  0  0  0  0  0  0  0
  187.4970  173.8810  141.4400 C   0  0  0  0  0  2  0  0  0  0  0  0
  185.2880  176.7290  144.6710 C   0  0  0  0  0  2  0  0  0  0  0  0
  195.4190  173.3700  144.7660 C   0  0  0  0  0  2  0  0  0  0  0  0
  189.6130  173.8650  140.3190 N   0  0  0  0  0  2  0  0  0  0  0  0
  194.6260  176.3710  144.7360 O   0  0  0  0  0  1  0  0  0  0  0  0
  188.2600  174.4230  140.2810 C   0  0  0  0  0  2  0  0  0  0  0  0
  186.7820  177.3110  142.8910 C   0  0  0  0  0  0  0  0  0  0  0  0
  184.5100  179.0430  140.1440 O   0  0  0  0  0  0  0  0  0  0  0  0
  193.7530  170.6400  144.2650 O   0  0  0  0  0  0  0  0  0  0  0  0
  187.6210  177.1970  145.3180 N   0  0  0  0  0  0  0  0  0  0  0  0
  190.9540  176.3660  143.7530 N   0  0  0  0  0  2  0  0  0  0  0  0
  191.6840  171.9420  144.5240 O   0  0  0  0  0  0  0  0  0  0  0  0
  192.2700  173.0030  141.6950 C   0  0  1  0  0  3  0  0  0  0  0  0
  193.1320  172.0200  144.1430 S   0  0  0  0  0  0  0  0  0  0  0  0
  186.5600  177.0250  144.2970 C   0  0  0  0  0  0  0  0  0  0  0  0
  194.7300  175.3240  145.6030 C   0  0  0  0  0  0  0  0  0  0  0  0
  184.0740  177.7880  140.2660 C   0  0  2  0  0  3  0  0  0  0  0  0
  193.4410  172.5810  142.4870 N   0  0  0  0  0  0  0  0  0  0  0  0
  192.6240  174.4280  141.1970 C   0  0  0  0  0  2  0  0  0  0  0  0
  185.8110  177.6450  142.0730 C   0  0  0  0  0  0  0  0  0  0  0  0
  192.5590  174.7570  144.5260 O   0  0  0  0  0  0  0  0  0  0  0  0
  194.9420  175.8830  146.9190 O   0  0  0  0  0  1  0  0  0  0  0  0
  194.0630  173.0820  145.3660 C   0  0  2  0  0  3  0  0  0  0  0  0
  189.5540  175.9750  143.9600 C   0  0  1  0  0  3  0  0  0  0  0  0
  189.0870  176.9070  145.0840 C   0  0  2  0  0  3  0  0  0  0  0  0
  188.0040  174.5140  142.7310 C   0  0  0  0  0  2  0  0  0  0  0  0
  193.4900  174.4420  145.6030 C   0  0  1  0  0  3  0  0  0  0  0  0
  187.6100  178.1810  146.4580 C   0  0  2  0  0  3  0  0  0  0  0  0
  187.0080  177.5220  147.6060 O   0  0  0  0  0  0  0  0  0  0  0  0
  186.8140  179.6900  148.2070 C   0  0  0  0  0  1  0  0  0  0  0  0
  186.3510  178.6860  147.2300 C   0  0  1  0  0  3  0  0  0  0  0  0
  182.7670  178.0900  140.8230 O   0  0  0  0  0  0  0  0  0  0  0  0
  181.8830  177.5270  139.8530 C   0  0  0  0  0  1  0  0  0  0  0  0
  194.3240  171.6380  141.7720 C   0  0  0  0  0  2  0  0  0  0  0  0
  195.8150  171.9360  141.8020 C   0  0  0  0  0  0  0  0  0  0  0  0
  196.6190  171.1100  142.2170 O   0  0  0  0  0  0  0  0  0  0  0  0
  196.2730  173.1660  141.0210 C   0  0  1  0  0  3  0  0  0  0  0  0
  197.6780  173.6410  141.5700 C   0  0  0  0  0  1  0  0  0  0  0  0
  195.3710  170.2490  135.4970 C   0  0  1  0  0  3  0  0  0  0  0  0
  196.7110  170.9530  135.7580 C   0  0  1  0  0  3  0  0  0  0  0  0
  195.5190  171.4740  137.7190 C   0  0  1  0  0  3  0  0  0  0  0  0
  195.6450  168.8570  135.0750 N   0  0  0  0  0  1  0  0  0  0  0  0
  196.3370  172.8100  139.4950 C   0  0  2  0  0  3  0  0  0  0  0  0
  195.6460  171.4930  139.2050 C   0  0  0  0  0  2  0  0  0  0  0  0
  196.8940  171.2390  137.2280 C   0  0  2  0  0  3  0  0  0  0  0  0
  197.9400  170.3700  135.0340 C   0  0  0  0  0  1  0  0  0  0  0  0
  197.7870  172.7540  138.9870 C   0  0  0  0  0  2  0  0  0  0  0  0
  197.6990  172.4870  137.4600 C   0  0  0  0  0  2  0  0  0  0  0  0
  194.5350  170.0760  137.0750 S   0  0  0  0  0  0  0  0  0  0  0  0
  1  3  1  0  0  0  0
  2  5  1  0  0  0  0
  2 18  1  0  0  0  0
  3 15  1  0  0  0  0
  4  3  2  0  0  0  0
  5 37  1  1  0  0  0
  5 35  1  0  0  0  0
  6  8  1  0  0  0  0
  7  6  1  1  0  0  0
  9  1  1  6  0  0  0
  9 30  1  0  0  0  0
  9 24  1  0  0  0  0
 10 31  2  0  0  0  0
 11 27  1  0  0  0  0
 12 37  1  0  0  0  0
 14 11  1  0  0  0  0
 16 27  1  0  0  0  0
 17 15  1  0  0  0  0
 17 12  1  0  0  0  0
 18 26  1  0  0  0  0
 19 28  1  0  0  0  0
 19 10  1  0  0  0  0
 22  7  1  0  0  0  0
 24 30  1  1  0  0  0
 24 29  1  0  0  0  0
 25 20  2  0  0  0  0
 25 23  2  0  0  0  0
 25 34  1  0  0  0  0
 26 13  2  0  0  0  0
 26 21  1  0  0  0  0
 27 33  1  0  0  0  0
 28 43  1  1  0  0  0
 28 10  1  0  0  0  0
 29 25  1  0  0  0  0
 31 18  2  0  0  0  0
 32  7  1  0  0  0  0
 34 14  1  6  0  0  0
 34 38  1  0  0  0  0
 35 22  1  6  0  0  0
 35 36  1  0  0  0  0
 36 21  1  0  0  0  0
 36  8  1  1  0  0  0
 38 32  1  6  0  0  0
 38 27  1  0  0  0  0
 39 21  1  6  0  0  0
 39 42  1  0  0  0  0
 39 40  1  0  0  0  0
 42 40  1  0  0  0  0
 42 41  1  1  0  0  0
 44 43  1  0  0  0  0
 45 46  1  0  0  0  0
 45 29  1  0  0  0  0
 46 47  2  0  0  0  0
 48 49  1  1  0  0  0
 48 46  1  0  0  0  0
 50 53  1  1  0  0  0
 50 51  1  0  0  0  0
 50 60  1  0  0  0  0
 51 57  1  1  0  0  0
 51 56  1  0  0  0  0
 52 55  1  1  0  0  0
 54 48  1  1  0  0  0
 55 54  1  0  0  0  0
 56 59  1  6  0  0  0
 56 52  1  0  0  0  0
 58 54  1  0  0  0  0
 59 58  1  0  0  0  0
 60 52  1  0  0  0  0
M  END
>  <MODEL>
3

>  <REMARK>
 VINA RESULT:      -7.4      2.584      3.711
  Name = 
  6 active torsions:
  status: ('A' for Active; 'I' for Inactive)
    1  A    between atoms: C_1  and  N_33
    2  A    between atoms: O_10  and  C_45
    3  A    between atoms: C_14  and  C_19
    4  A    between atoms: C_14  and  C_28
    5  A    between atoms: C_19  and  C_35
    6  A    between atoms: C_28  and  N_46
                            x       y       z     vdW  Elec       q    Type
                         _______ _______ _______ _____ _____    ______ ____

>  <TORSDO>
F 6

$$$$
=
 OpenBabel11062420403D

 60 68  0  0  1  0  0  0  0  0999 V2000
  191.5100  173.2870  138.6110 C   0  0  0  0  0  2  0  0  0  0  0  0
  189.7550  176.4380  143.5990 O   0  0  0  0  0  0  0  0  0  0  0  0
  190.2450  173.7120  139.3330 C   0  0  0  0  0  0  0  0  0  0  0  0
  189.3560  174.1880  138.6180 O   0  0  0  0  0  0  0  0  0  0  0  0
  190.5790  175.2430  143.4270 C   0  0  1  0  0  3  0  0  0  0  0  0
  194.3050  174.5610  145.6680 C   0  0  0  0  0  2  0  0  0  0  0  0
  194.2540  174.8320  144.0960 C   0  0  2  0  0  3  0  0  0  0  0  0
  192.9380  174.8700  146.4010 C   0  0  0  0  0  2  0  0  0  0  0  0
  192.8650  172.9490  139.2300 C   0  0  2  0  0  3  0  0  0  0  0  0
  186.7990  177.7770  144.0590 C   0  0  0  0  0  0  0  0  0  0  0  0
  197.9410  173.2870  142.5410 O   0  0  0  0  0  0  0  0  0  0  0  0
  188.6840  173.5370  142.7210 C   0  0  0  0  0  2  0  0  0  0  0  0
  188.4040  175.8880  146.9440 C   0  0  0  0  0  2  0  0  0  0  0  0
  197.1620  172.1880  142.0920 C   0  0  0  0  0  2  0  0  0  0  0  0
  190.0940  173.6290  140.7870 N   0  0  0  0  0  2  0  0  0  0  0  0
  196.7580  175.1800  142.8160 O   0  0  0  0  0  1  0  0  0  0  0  0
  188.9260  174.2360  141.4280 C   0  0  0  0  0  2  0  0  0  0  0  0
  189.0360  176.7020  144.7800 C   0  0  0  0  0  0  0  0  0  0  0  0
  185.9990  178.9490  143.5820 O   0  0  0  0  0  0  0  0  0  0  0  0
  195.1620  169.6430  142.0220 O   0  0  0  0  0  0  0  0  0  0  0  0
  190.8230  176.1550  146.5450 N   0  0  0  0  0  0  0  0  0  0  0  0
  193.0450  175.4740  143.5710 N   0  0  0  0  0  2  0  0  0  0  0  0
  193.5600  170.9590  143.3430 O   0  0  0  0  0  0  0  0  0  0  0  0
  192.9770  172.4530  140.7150 C   0  0  1  0  0  3  0  0  0  0  0  0
  194.7010  171.0450  142.3740 S   0  0  0  0  0  0  0  0  0  0  0  0
  189.4130  176.1950  146.0880 C   0  0  0  0  0  0  0  0  0  0  0  0
  197.1130  173.9990  143.3990 C   0  0  0  0  0  0  0  0  0  0  0  0
  185.5280  177.7090  143.7170 C   0  0  2  0  0  3  0  0  0  0  0  0
  194.3220  171.8630  140.8430 N   0  0  0  0  0  0  0  0  0  0  0  0
  193.2310  173.9270  140.3070 C   0  0  0  0  0  2  0  0  0  0  0  0
  187.8490  177.2030  144.5300 C   0  0  0  0  0  0  0  0  0  0  0  0
  194.6440  173.7000  143.3310 O   0  0  0  0  0  0  0  0  0  0  0  0
  197.9310  174.3240  144.5470 O   0  0  0  0  0  1  0  0  0  0  0  0
  196.1760  171.8540  143.1870 C   0  0  2  0  0  3  0  0  0  0  0  0
  191.8370  175.1060  144.3230 C   0  0  1  0  0  3  0  0  0  0  0  0
  192.0040  175.8540  145.6500 C   0  0  2  0  0  3  0  0  0  0  0  0
  189.7640  173.9270  143.7250 C   0  0  0  0  0  2  0  0  0  0  0  0
  195.9100  173.1760  143.8310 C   0  0  1  0  0  3  0  0  0  0  0  0
  191.4100  176.9350  147.6930 C   0  0  2  0  0  3  0  0  0  0  0  0
  191.0620  176.2430  148.9230 O   0  0  0  0  0  0  0  0  0  0  0  0
  191.5950  178.2880  149.7180 C   0  0  0  0  0  1  0  0  0  0  0  0
  190.6200  177.5590  148.8850 C   0  0  1  0  0  3  0  0  0  0  0  0
  184.6300  177.9620  144.8300 O   0  0  0  0  0  0  0  0  0  0  0  0
  184.4340  179.3750  144.7510 C   0  0  0  0  0  1  0  0  0  0  0  0
  194.7040  171.0190  139.6920 C   0  0  0  0  0  2  0  0  0  0  0  0
  195.6500  171.6360  138.6740 C   0  0  0  0  0  0  0  0  0  0  0  0
  196.4280  172.5280  138.9900 O   0  0  0  0  0  0  0  0  0  0  0  0
  195.7940  170.8920  137.3480 C   0  0  1  0  0  3  0  0  0  0  0  0
  196.4150  169.4620  137.6130 C   0  0  0  0  0  1  0  0  0  0  0  0
  190.3630  172.4670  134.5410 C   0  0  1  0  0  3  0  0  0  0  0  0
  190.3950  171.2440  135.4710 C   0  0  1  0  0  3  0  0  0  0  0  0
  192.6540  171.9060  135.4900 C   0  0  1  0  0  3  0  0  0  0  0  0
  189.2670  173.3610  134.9750 N   0  0  0  0  0  1  0  0  0  0  0  0
  194.3870  170.7950  136.6610 C   0  0  2  0  0  3  0  0  0  0  0  0
  193.7960  172.1680  136.4110 C   0  0  0  0  0  2  0  0  0  0  0  0
  191.6300  171.2560  136.3380 C   0  0  2  0  0  3  0  0  0  0  0  0
  189.0770  170.9020  136.1920 C   0  0  0  0  0  1  0  0  0  0  0  0
  193.4060  169.9560  137.4960 C   0  0  0  0  0  2  0  0  0  0  0  0
  192.0980  169.8660  136.6640 C   0  0  0  0  0  2  0  0  0  0  0  0
  191.8540  173.4170  134.8470 S   0  0  0  0  0  0  0  0  0  0  0  0
  1  3  1  0  0  0  0
  2 18  1  0  0  0  0
  3 15  1  0  0  0  0
  4  3  2  0  0  0  0
  5  2  1  0  0  0  0
  5 37  1  1  0  0  0
  5 35  1  0  0  0  0
  6  8  1  0  0  0  0
  7  6  1  1  0  0  0
  9  1  1  1  0  0  0
  9 30  1  0  0  0  0
  9 24  1  0  0  0  0
 10 31  2  0  0  0  0
 11 27  1  0  0  0  0
 12 37  1  0  0  0  0
 14 11  1  0  0  0  0
 15 17  1  0  0  0  0
 16 27  1  0  0  0  0
 17 12  1  0  0  0  0
 18 26  1  0  0  0  0
 19 28  1  0  0  0  0
 19 10  1  0  0  0  0
 20 25  2  0  0  0  0
 22  7  1  0  0  0  0
 24 30  1  1  0  0  0
 24 29  1  0  0  0  0
 25 34  1  0  0  0  0
 25 23  2  0  0  0  0
 26 21  1  0  0  0  0
 26 13  2  0  0  0  0
 27 38  1  0  0  0  0
 27 33  1  0  0  0  0
 28 10  1  0  0  0  0
 28 43  1  1  0  0  0
 29 25  1  0  0  0  0
 31 18  2  0  0  0  0
 32  7  1  0  0  0  0
 34 14  1  6  0  0  0
 34 38  1  0  0  0  0
 35 22  1  6  0  0  0
 35 36  1  0  0  0  0
 36  8  1  1  0  0  0
 36 21  1  0  0  0  0
 38 32  1  6  0  0  0
 39 21  1  6  0  0  0
 39 42  1  0  0  0  0
 39 40  1  0  0  0  0
 42 40  1  0  0  0  0
 42 41  1  1  0  0  0
 44 43  1  0  0  0  0
 45 29  1  0  0  0  0
 46 47  2  0  0  0  0
 46 45  1  0  0  0  0
 48 49  1  1  0  0  0
 48 46  1  0  0  0  0
 50 60  1  0  0  0  0
 50 53  1  1  0  0  0
 50 51  1  0  0  0  0
 51 57  1  1  0  0  0
 51 56  1  0  0  0  0
 52 56  1  0  0  0  0
 52 55  1  1  0  0  0
 54 48  1  1  0  0  0
 54 58  1  0  0  0  0
 55 54  1  0  0  0  0
 56 59  1  6  0  0  0
 59 58  1  0  0  0  0
 60 52  1  0  0  0  0
M  END
>  <MODEL>
4

>  <REMARK>
 VINA RESULT:      -6.7      1.763      2.471
  Name = 
  6 active torsions:
  status: ('A' for Active; 'I' for Inactive)
    1  A    between atoms: C_1  and  N_33
    2  A    between atoms: O_10  and  C_45
    3  A    between atoms: C_14  and  C_19
    4  A    between atoms: C_14  and  C_28
    5  A    between atoms: C_19  and  C_35
    6  A    between atoms: C_28  and  N_46
                            x       y       z     vdW  Elec       q    Type
                         _______ _______ _______ _____ _____    ______ ____

>  <TORSDO>
F 6

$$$$
=
 OpenBabel11062420403D

 60 68  0  0  1  0  0  0  0  0999 V2000
  188.3040  174.2840  139.4700 C   0  0  0  0  0  2  0  0  0  0  0  0
  193.4690  171.3940  141.1580 O   0  0  0  0  0  0  0  0  0  0  0  0
  189.5560  173.6850  138.8560 C   0  0  0  0  0  0  0  0  0  0  0  0
  189.3730  172.9590  137.8720 O   0  0  0  0  0  0  0  0  0  0  0  0
  192.9230  172.7090  141.4880 C   0  0  1  0  0  3  0  0  0  0  0  0
  193.0190  174.3930  145.5530 C   0  0  0  0  0  2  0  0  0  0  0  0
  191.6780  173.9490  144.8090 C   0  0  2  0  0  3  0  0  0  0  0  0
  194.3320  173.8860  144.8300 C   0  0  0  0  0  2  0  0  0  0  0  0
  188.1710  174.9620  140.8320 C   0  0  2  0  0  3  0  0  0  0  0  0
  195.3260  169.5240  139.2090 C   0  0  0  0  0  0  0  0  0  0  0  0
  188.5110  176.0540  146.7940 O   0  0  0  0  0  0  0  0  0  0  0  0
  193.2730  173.8940  139.1480 C   0  0  0  0  0  2  0  0  0  0  0  0
  197.0490  172.0070  141.5170 C   0  0  0  0  0  2  0  0  0  0  0  0
  188.5210  176.9100  145.6610 C   0  0  0  0  0  2  0  0  0  0  0  0
  190.8930  173.8900  139.4170 N   0  0  0  0  0  2  0  0  0  0  0  0
  189.3180  173.9960  146.3760 O   0  0  0  0  0  1  0  0  0  0  0  0
  192.0230  173.1260  138.8870 C   0  0  0  0  0  2  0  0  0  0  0  0
  194.8500  171.1140  141.1890 C   0  0  0  0  0  0  0  0  0  0  0  0
  195.2990  168.1660  138.5790 O   0  0  0  0  0  0  0  0  0  0  0  0
  189.4830  178.9580  143.3460 O   0  0  0  0  0  0  0  0  0  0  0  0
  195.4970  172.2100  143.4230 N   0  0  0  0  0  0  0  0  0  0  0  0
  191.8180  173.0160  143.6870 N   0  0  0  0  0  2  0  0  0  0  0  0
  191.4120  177.4860  142.9480 O   0  0  0  0  0  0  0  0  0  0  0  0
  189.4080  175.6280  141.5310 C   0  0  1  0  0  3  0  0  0  0  0  0
  190.0030  177.5360  143.4570 S   0  0  0  0  0  0  0  0  0  0  0  0
  195.8010  171.8280  142.0230 C   0  0  0  0  0  0  0  0  0  0  0  0
  189.6600  175.2810  146.6810 C   0  0  0  0  0  0  0  0  0  0  0  0
  195.6630  169.2870  137.9570 C   0  0  2  0  0  3  0  0  0  0  0  0
  188.8550  176.4980  142.5870 N   0  0  0  0  0  0  0  0  0  0  0  0
  188.9120  174.2050  141.8930 C   0  0  0  0  0  2  0  0  0  0  0  0
  195.2180  170.3520  140.1860 C   0  0  0  0  0  0  0  0  0  0  0  0
  190.8330  175.0480  144.4990 O   0  0  0  0  0  0  0  0  0  0  0  0
  190.2440  175.2600  148.0040 O   0  0  0  0  0  1  0  0  0  0  0  0
  189.9650  177.1470  145.2850 C   0  0  2  0  0  3  0  0  0  0  0  0
  193.0750  173.2020  142.9500 C   0  0  1  0  0  3  0  0  0  0  0  0
  194.1360  172.6530  143.9110 C   0  0  2  0  0  3  0  0  0  0  0  0
  193.6020  173.8490  140.6360 C   0  0  0  0  0  2  0  0  0  0  0  0
  190.6420  175.8760  145.6850 C   0  0  1  0  0  3  0  0  0  0  0  0
  196.1910  171.6980  144.6580 C   0  0  2  0  0  3  0  0  0  0  0  0
  196.9070  170.4870  144.2930 O   0  0  0  0  0  0  0  0  0  0  0  0
  196.8160  170.2720  146.5390 C   0  0  0  0  0  1  0  0  0  0  0  0
  195.9890  170.2990  145.3180 C   0  0  1  0  0  3  0  0  0  0  0  0
  197.0720  168.9730  137.8010 O   0  0  0  0  0  0  0  0  0  0  0  0
  197.3220  169.3450  136.4440 C   0  0  0  0  0  1  0  0  0  0  0  0
  187.6760  177.2730  142.1510 C   0  0  0  0  0  2  0  0  0  0  0  0
  186.3660  176.9910  142.8690 C   0  0  0  0  0  0  0  0  0  0  0  0
  186.0540  175.8520  143.1960 O   0  0  0  0  0  0  0  0  0  0  0  0
  185.6230  178.2050  143.4210 C   0  0  1  0  0  3  0  0  0  0  0  0
  186.6170  179.4310  143.5130 C   0  0  0  0  0  1  0  0  0  0  0  0
  179.7550  179.4120  141.4280 C   0  0  1  0  0  3  0  0  0  0  0  0
  180.7080  178.6270  140.5130 C   0  0  1  0  0  3  0  0  0  0  0  0
  182.1120  179.1210  142.3350 C   0  0  1  0  0  3  0  0  0  0  0  0
  178.5010  178.6420  141.5750 N   0  0  0  0  0  1  0  0  0  0  0  0
  184.3980  178.5210  142.4920 C   0  0  2  0  0  3  0  0  0  0  0  0
  183.0960  178.4990  143.2670 C   0  0  0  0  0  2  0  0  0  0  0  0
  181.8910  178.1010  141.2870 C   0  0  2  0  0  3  0  0  0  0  0  0
  180.0490  177.6280  139.5410 C   0  0  0  0  0  1  0  0  0  0  0  0
  184.3130  177.5410  141.3120 C   0  0  0  0  0  2  0  0  0  0  0  0
  183.1270  178.0210  140.4350 C   0  0  0  0  0  2  0  0  0  0  0  0
  180.4680  179.4120  143.0750 S   0  0  0  0  0  0  0  0  0  0  0  0
  2 18  1  0  0  0  0
  2  5  1  0  0  0  0
  3 15  1  0  0  0  0
  3  1  1  0  0  0  0
  4  3  2  0  0  0  0
  5 37  1  6  0  0  0
  5 35  1  0  0  0  0
  7  6  1  6  0  0  0
  8  6  1  0  0  0  0
  9  1  1  6  0  0  0
  9 24  1  0  0  0  0
  9 30  1  0  0  0  0
 10 31  2  0  0  0  0
 12 37  1  0  0  0  0
 13 26  2  0  0  0  0
 14 11  1  0  0  0  0
 16 27  1  0  0  0  0
 17 12  1  0  0  0  0
 17 15  1  0  0  0  0
 18 26  1  0  0  0  0
 19 10  1  0  0  0  0
 20 25  2  0  0  0  0
 21 36  1  0  0  0  0
 22  7  1  0  0  0  0
 23 25  2  0  0  0  0
 24 30  1  1  0  0  0
 24 29  1  0  0  0  0
 25 34  1  0  0  0  0
 26 21  1  0  0  0  0
 27 11  1  0  0  0  0
 27 33  1  0  0  0  0
 28 43  1  1  0  0  0
 28 19  1  0  0  0  0
 28 10  1  0  0  0  0
 29 25  1  0  0  0  0
 31 18  2  0  0  0  0
 32  7  1  0  0  0  0
 34 14  1  6  0  0  0
 34 38  1  0  0  0  0
 35 22  1  1  0  0  0
 35 36  1  0  0  0  0
 36  8  1  1  0  0  0
 38 32  1  6  0  0  0
 38 27  1  0  0  0  0
 39 21  1  6  0  0  0
 39 42  1  0  0  0  0
 40 39  1  0  0  0  0
 40 42  1  0  0  0  0
 42 41  1  1  0  0  0
 44 43  1  0  0  0  0
 45 29  1  0  0  0  0
 45 46  1  0  0  0  0
 46 47  2  0  0  0  0
 46 48  1  0  0  0  0
 48 49  1  6  0  0  0
 50 53  1  1  0  0  0
 50 60  1  0  0  0  0
 51 57  1  1  0  0  0
 51 56  1  0  0  0  0
 51 50  1  0  0  0  0
 52 60  1  0  0  0  0
 52 55  1  1  0  0  0
 54 55  1  0  0  0  0
 54 48  1  1  0  0  0
 56 59  1  6  0  0  0
 56 52  1  0  0  0  0
 58 54  1  0  0  0  0
 59 58  1  0  0  0  0
M  END
>  <MODEL>
5

>  <REMARK>
 VINA RESULT:      -6.3      3.659     10.300
  Name = 
  6 active torsions:
  status: ('A' for Active; 'I' for Inactive)
    1  A    between atoms: C_1  and  N_33
    2  A    between atoms: O_10  and  C_45
    3  A    between atoms: C_14  and  C_19
    4  A    between atoms: C_14  and  C_28
    5  A    between atoms: C_19  and  C_35
    6  A    between atoms: C_28  and  N_46
                            x       y       z     vdW  Elec       q    Type
                         _______ _______ _______ _____ _____    ______ ____

>  <TORSDO>
F 6

$$$$
=
 OpenBabel11062420403D

 60 68  0  0  1  0  0  0  0  0999 V2000
  193.3860  172.4270  144.1340 C   0  0  0  0  0  2  0  0  0  0  0  0
  188.1730  175.6980  144.0550 O   0  0  0  0  0  0  0  0  0  0  0  0
  192.7150  173.5640  144.8820 C   0  0  0  0  0  0  0  0  0  0  0  0
  192.7430  173.4830  146.1150 O   0  0  0  0  0  0  0  0  0  0  0  0
  189.2280  175.5010  143.0630 C   0  0  1  0  0  3  0  0  0  0  0  0
  188.4050  174.8470  138.7900 C   0  0  0  0  0  2  0  0  0  0  0  0
  189.0130  173.7310  139.7560 C   0  0  2  0  0  3  0  0  0  0  0  0
  187.8320  176.1010  139.5650 C   0  0  0  0  0  2  0  0  0  0  0  0
  193.2670  172.0930  142.6490 C   0  0  2  0  0  3  0  0  0  0  0  0
  186.9630  177.4080  146.5760 C   0  0  0  0  0  0  0  0  0  0  0  0
  190.9380  170.8980  137.1720 O   0  0  0  0  0  0  0  0  0  0  0  0
  191.1520  176.8920  144.2300 C   0  0  0  0  0  2  0  0  0  0  0  0
  186.9390  179.0040  143.1240 C   0  0  0  0  0  2  0  0  0  0  0  0
  192.1490  171.5130  137.5850 C   0  0  0  0  0  2  0  0  0  0  0  0
  192.0210  174.6610  144.2040 N   0  0  0  0  0  2  0  0  0  0  0  0
  189.2580  171.1340  138.6490 O   0  0  0  0  0  1  0  0  0  0  0  0
  191.2340  175.6130  144.9890 C   0  0  0  0  0  2  0  0  0  0  0  0
  187.3630  176.8500  144.0850 C   0  0  0  0  0  0  0  0  0  0  0  0
  186.2700  177.1670  147.8810 O   0  0  0  0  0  0  0  0  0  0  0  0
  194.4510  173.7110  138.1780 O   0  0  0  0  0  0  0  0  0  0  0  0
  186.7880  177.0790  141.5900 N   0  0  0  0  0  0  0  0  0  0  0  0
  188.8180  173.9210  141.1960 N   0  0  0  0  0  2  0  0  0  0  0  0
  192.7270  175.1300  139.2080 O   0  0  0  0  0  0  0  0  0  0  0  0
  192.8910  173.1960  141.5970 C   0  0  1  0  0  3  0  0  0  0  0  0
  193.1040  173.7170  138.8790 S   0  0  0  0  0  0  0  0  0  0  0  0
  187.0770  177.6680  142.9190 C   0  0  0  0  0  0  0  0  0  0  0  0
  189.9260  171.7360  137.6240 C   0  0  0  0  0  0  0  0  0  0  0  0
  187.2740  178.0250  147.6990 C   0  0  2  0  0  3  0  0  0  0  0  0
  193.2480  172.6350  140.2800 N   0  0  0  0  0  0  0  0  0  0  0  0
  191.8480  172.2070  142.1770 C   0  0  0  0  0  2  0  0  0  0  0  0
  187.1390  177.2610  145.3110 C   0  0  0  0  0  0  0  0  0  0  0  0
  190.3550  173.3950  139.4290 O   0  0  0  0  0  0  0  0  0  0  0  0
  188.9970  171.8510  136.5230 O   0  0  0  0  0  1  0  0  0  0  0  0
  191.9060  173.0040  137.6360 C   0  0  2  0  0  3  0  0  0  0  0  0
  188.7980  175.3380  141.5830 C   0  0  1  0  0  3  0  0  0  0  0  0
  187.4510  175.8340  141.0440 C   0  0  2  0  0  3  0  0  0  0  0  0
  190.2290  176.7190  143.0290 C   0  0  0  0  0  2  0  0  0  0  0  0
  190.4610  173.1090  138.0030 C   0  0  1  0  0  3  0  0  0  0  0  0
  185.4860  177.1710  140.8380 C   0  0  2  0  0  3  0  0  0  0  0  0
  185.4530  178.4600  140.1660 O   0  0  0  0  0  0  0  0  0  0  0  0
  183.2650  177.9060  140.1360 C   0  0  0  0  0  1  0  0  0  0  0  0
  184.3840  178.2600  141.0290 C   0  0  1  0  0  3  0  0  0  0  0  0
  186.5200  179.2510  147.8970 O   0  0  0  0  0  0  0  0  0  0  0  0
  185.1880  178.8480  147.5730 C   0  0  0  0  0  1  0  0  0  0  0  0
  194.5500  171.9390  140.2720 C   0  0  0  0  0  2  0  0  0  0  0  0
  194.5160  170.4200  140.2040 C   0  0  0  0  0  0  0  0  0  0  0  0
  193.4990  169.8230  139.8710 O   0  0  0  0  0  0  0  0  0  0  0  0
  195.8660  169.7100  140.2730 C   0  0  1  0  0  3  0  0  0  0  0  0
  196.9820  170.6440  139.6540 C   0  0  0  0  0  1  0  0  0  0  0  0
  195.1400  168.1950  146.3580 C   0  0  1  0  0  3  0  0  0  0  0  0
  196.3350  169.0670  145.9430 C   0  0  1  0  0  3  0  0  0  0  0  0
  195.3470  168.6070  143.8580 C   0  0  1  0  0  3  0  0  0  0  0  0
  194.4140  168.8790  147.4510 N   0  0  0  0  0  1  0  0  0  0  0  0
  196.1770  169.3450  141.7660 C   0  0  2  0  0  3  0  0  0  0  0  0
  194.9090  169.2610  142.5920 C   0  0  0  0  0  2  0  0  0  0  0  0
  196.1320  169.6430  144.5640 C   0  0  2  0  0  3  0  0  0  0  0  0
  196.8620  170.0510  147.0060 C   0  0  0  0  0  1  0  0  0  0  0  0
  197.1430  170.3550  142.4060 C   0  0  0  0  0  2  0  0  0  0  0  0
  197.4350  169.8270  143.8370 C   0  0  0  0  0  2  0  0  0  0  0  0
  193.9770  168.1890  144.9920 S   0  0  0  0  0  0  0  0  0  0  0  0
  1  3  1  0  0  0  0
  2 18  1  0  0  0  0
  3  4  2  0  0  0  0
  5 37  1  6  0  0  0
  5  2  1  0  0  0  0
  6  8  1  0  0  0  0
  7  6  1  6  0  0  0
  7 22  1  0  0  0  0
  9 30  1  1  0  0  0
  9  1  1  0  0  0  0
 10 28  1  0  0  0  0
 10 19  1  0  0  0  0
 11 14  1  0  0  0  0
 11 27  1  0  0  0  0
 12 17  1  0  0  0  0
 15  3  1  0  0  0  0
 15 17  1  0  0  0  0
 18 31  2  0  0  0  0
 20 25  2  0  0  0  0
 21 26  1  0  0  0  0
 24 30  1  6  0  0  0
 24  9  1  0  0  0  0
 25 23  2  0  0  0  0
 25 29  1  0  0  0  0
 26 13  2  0  0  0  0
 26 18  1  0  0  0  0
 27 38  1  0  0  0  0
 27 16  1  0  0  0  0
 28 19  1  0  0  0  0
 28 43  1  6  0  0  0
 29 24  1  0  0  0  0
 31 10  2  0  0  0  0
 32  7  1  0  0  0  0
 33 27  1  0  0  0  0
 34 14  1  1  0  0  0
 34 38  1  0  0  0  0
 34 25  1  0  0  0  0
 35 22  1  1  0  0  0
 35  5  1  0  0  0  0
 36  8  1  6  0  0  0
 36 35  1  0  0  0  0
 36 21  1  0  0  0  0
 37 12  1  0  0  0  0
 38 32  1  1  0  0  0
 39 42  1  0  0  0  0
 39 21  1  1  0  0  0
 40 39  1  0  0  0  0
 40 42  1  0  0  0  0
 42 41  1  6  0  0  0
 44 43  1  0  0  0  0
 45 29  1  0  0  0  0
 46 45  1  0  0  0  0
 46 48  1  0  0  0  0
 47 46  2  0  0  0  0
 48 49  1  1  0  0  0
 50 53  1  1  0  0  0
 51 50  1  0  0  0  0
 51 57  1  1  0  0  0
 52 55  1  6  0  0  0
 52 56  1  0  0  0  0
 52 60  1  0  0  0  0
 54 48  1  6  0  0  0
 54 58  1  0  0  0  0
 54 55  1  0  0  0  0
 56 59  1  6  0  0  0
 56 51  1  0  0  0  0
 58 59  1  0  0  0  0
 60 50  1  0  0  0  0
M  END
>  <MODEL>
6

>  <REMARK>
 VINA RESULT:      -6.2      3.085      7.233
  Name = 
  6 active torsions:
  status: ('A' for Active; 'I' for Inactive)
    1  A    between atoms: C_1  and  N_33
    2  A    between atoms: O_10  and  C_45
    3  A    between atoms: C_14  and  C_19
    4  A    between atoms: C_14  and  C_28
    5  A    between atoms: C_19  and  C_35
    6  A    between atoms: C_28  and  N_46
                            x       y       z     vdW  Elec       q    Type
                         _______ _______ _______ _____ _____    ______ ____

>  <TORSDO>
F 6

$$$$
=
 OpenBabel11062420403D

 60 68  0  0  1  0  0  0  0  0999 V2000
  189.9550  173.5350  138.2830 C   0  0  0  0  0  2  0  0  0  0  0  0
  189.1650  176.7970  143.4430 O   0  0  0  0  0  0  0  0  0  0  0  0
  188.8410  174.1280  139.1250 C   0  0  0  0  0  0  0  0  0  0  0  0
  187.9720  174.7480  138.5020 O   0  0  0  0  0  0  0  0  0  0  0  0
  189.7790  175.4960  143.1830 C   0  0  1  0  0  3  0  0  0  0  0  0
  193.5490  174.2120  145.0560 C   0  0  0  0  0  2  0  0  0  0  0  0
  193.3950  174.5240  143.4980 C   0  0  2  0  0  3  0  0  0  0  0  0
  192.3170  174.7050  145.9180 C   0  0  0  0  0  2  0  0  0  0  0  0
  191.2940  172.9840  138.7690 C   0  0  2  0  0  3  0  0  0  0  0  0
  186.5000  178.5530  144.1930 C   0  0  0  0  0  0  0  0  0  0  0  0
  196.6470  172.4800  141.5880 O   0  0  0  0  0  0  0  0  0  0  0  0
  187.5910  174.1100  142.6440 C   0  0  0  0  0  2  0  0  0  0  0  0
  188.0590  176.3780  146.8960 C   0  0  0  0  0  2  0  0  0  0  0  0
  195.6720  171.5210  141.2040 C   0  0  0  0  0  2  0  0  0  0  0  0
  188.8140  174.0350  140.5870 N   0  0  0  0  0  2  0  0  0  0  0  0
  195.7940  174.5220  141.9900 O   0  0  0  0  0  1  0  0  0  0  0  0
  187.8150  174.7950  141.3400 C   0  0  0  0  0  2  0  0  0  0  0  0
  188.6050  177.1380  144.6890 C   0  0  0  0  0  0  0  0  0  0  0  0
  185.8460  179.8430  143.8040 O   0  0  0  0  0  0  0  0  0  0  0  0
  193.3120  169.3060  141.3010 O   0  0  0  0  0  0  0  0  0  0  0  0
  190.4440  176.2890  146.2730 N   0  0  0  0  0  0  0  0  0  0  0  0
  192.2530  175.3510  143.0950 N   0  0  0  0  0  2  0  0  0  0  0  0
  192.0560  170.8170  142.7790 O   0  0  0  0  0  0  0  0  0  0  0  0
  191.4660  172.4420  140.2320 C   0  0  1  0  0  3  0  0  0  0  0  0
  193.1020  170.7540  141.7070 S   0  0  0  0  0  0  0  0  0  0  0  0
  189.0200  176.5500  145.9510 C   0  0  0  0  0  0  0  0  0  0  0  0
  196.0190  173.2880  142.5270 C   0  0  0  0  0  0  0  0  0  0  0  0
  185.2080  178.6840  143.9710 C   0  0  2  0  0  3  0  0  0  0  0  0
  192.7130  171.6540  140.2260 N   0  0  0  0  0  0  0  0  0  0  0  0
  191.9020  173.8700  139.8150 C   0  0  0  0  0  2  0  0  0  0  0  0
  187.4900  177.8170  144.5570 C   0  0  0  0  0  0  0  0  0  0  0  0
  193.5370  173.3640  142.6890 O   0  0  0  0  0  0  0  0  0  0  0  0
  196.9780  173.4600  143.5950 O   0  0  0  0  0  1  0  0  0  0  0  0
  194.7520  171.3130  142.3840 C   0  0  2  0  0  3  0  0  0  0  0  0
  191.0790  175.1510  143.9550 C   0  0  1  0  0  3  0  0  0  0  0  0
  191.4780  175.8350  145.2670 C   0  0  2  0  0  3  0  0  0  0  0  0
  188.8040  174.3110  143.5450 C   0  0  0  0  0  2  0  0  0  0  0  0
  194.7490  172.6450  143.0630 C   0  0  1  0  0  3  0  0  0  0  0  0
  191.2450  176.9460  147.3660 C   0  0  2  0  0  3  0  0  0  0  0  0
  191.1170  176.1280  148.5610 O   0  0  0  0  0  0  0  0  0  0  0  0
  191.8240  178.0790  149.4510 C   0  0  0  0  0  1  0  0  0  0  0  0
  190.6990  177.4400  148.7420 C   0  0  1  0  0  3  0  0  0  0  0  0
  184.4640  179.0430  145.1660 O   0  0  0  0  0  0  0  0  0  0  0  0
  184.5020  177.8350  145.9270 C   0  0  0  0  0  1  0  0  0  0  0  0
  192.8550  170.7900  139.0370 C   0  0  0  0  0  2  0  0  0  0  0  0
  191.7220  169.8140  138.7590 C   0  0  0  0  0  0  0  0  0  0  0  0
  190.9300  169.4950  139.6370 O   0  0  0  0  0  0  0  0  0  0  0  0
  191.4470  169.5000  137.2900 C   0  0  1  0  0  3  0  0  0  0  0  0
  190.0190  170.0540  136.8950 C   0  0  0  0  0  1  0  0  0  0  0  0
  197.0550  171.6820  135.3840 C   0  0  1  0  0  3  0  0  0  0  0  0
  195.7760  172.3630  134.8710 C   0  0  1  0  0  3  0  0  0  0  0  0
  194.8870  170.6010  136.1540 C   0  0  1  0  0  3  0  0  0  0  0  0
  197.9410  172.7190  135.9570 N   0  0  0  0  0  1  0  0  0  0  0  0
  192.5780  170.1350  136.4100 C   0  0  2  0  0  3  0  0  0  0  0  0
  193.8630  170.3040  137.1960 C   0  0  0  0  0  2  0  0  0  0  0  0
  194.5850  171.9820  135.7150 C   0  0  2  0  0  3  0  0  0  0  0  0
  195.8940  173.8580  134.5200 C   0  0  0  0  0  1  0  0  0  0  0  0
  192.1500  171.4900  135.8260 C   0  0  0  0  0  2  0  0  0  0  0  0
  193.3150  171.9560  134.9120 C   0  0  0  0  0  2  0  0  0  0  0  0
  196.5980  170.6650  136.7890 S   0  0  0  0  0  0  0  0  0  0  0  0
  1  3  1  0  0  0  0
  2 18  1  0  0  0  0
  3 15  1  0  0  0  0
  4  3  2  0  0  0  0
  5  2  1  0  0  0  0
  5 37  1  1  0  0  0
  5 35  1  0  0  0  0
  6  8  1  0  0  0  0
  7  6  1  1  0  0  0
  9  1  1  1  0  0  0
  9 30  1  0  0  0  0
  9 24  1  0  0  0  0
 10 31  2  0  0  0  0
 11 27  1  0  0  0  0
 12 37  1  0  0  0  0
 14 11  1  0  0  0  0
 15 17  1  0  0  0  0
 16 27  1  0  0  0  0
 17 12  1  0  0  0  0
 18 26  1  0  0  0  0
 19 28  1  0  0  0  0
 19 10  1  0  0  0  0
 20 25  2  0  0  0  0
 22  7  1  0  0  0  0
 24 30  1  1  0  0  0
 25 34  1  0  0  0  0
 25 23  2  0  0  0  0
 26 21  1  0  0  0  0
 26 13  2  0  0  0  0
 27 38  1  0  0  0  0
 27 33  1  0  0  0  0
 28 10  1  0  0  0  0
 28 43  1  1  0  0  0
 29 24  1  0  0  0  0
 29 25  1  0  0  0  0
 31 18  2  0  0  0  0
 32  7  1  0  0  0  0
 34 14  1  6  0  0  0
 34 38  1  0  0  0  0
 35 22  1  6  0  0  0
 35 36  1  0  0  0  0
 36  8  1  1  0  0  0
 36 21  1  0  0  0  0
 38 32  1  6  0  0  0
 39 21  1  6  0  0  0
 39 40  1  0  0  0  0
 39 42  1  0  0  0  0
 40 42  1  0  0  0  0
 42 41  1  1  0  0  0
 43 44  1  0  0  0  0
 45 29  1  0  0  0  0
 46 45  1  0  0  0  0
 46 47  2  0  0  0  0
 48 49  1  6  0  0  0
 48 46  1  0  0  0  0
 50 53  1  1  0  0  0
 50 60  1  0  0  0  0
 51 57  1  1  0  0  0
 51 50  1  0  0  0  0
 51 56  1  0  0  0  0
 52 60  1  0  0  0  0
 52 55  1  1  0  0  0
 54 55  1  0  0  0  0
 54 48  1  1  0  0  0
 56 59  1  6  0  0  0
 56 52  1  0  0  0  0
 58 54  1  0  0  0  0
 59 58  1  0  0  0  0
M  END
>  <MODEL>
7

>  <REMARK>
 VINA RESULT:      -5.8      1.846      2.522
  Name = 
  6 active torsions:
  status: ('A' for Active; 'I' for Inactive)
    1  A    between atoms: C_1  and  N_33
    2  A    between atoms: O_10  and  C_45
    3  A    between atoms: C_14  and  C_19
    4  A    between atoms: C_14  and  C_28
    5  A    between atoms: C_19  and  C_35
    6  A    between atoms: C_28  and  N_46
                            x       y       z     vdW  Elec       q    Type
                         _______ _______ _______ _____ _____    ______ ____

>  <TORSDO>
F 6

$$$$
=
 OpenBabel11062420403D

 60 68  0  0  1  0  0  0  0  0999 V2000
  191.2910  172.1560  138.4620 C   0  0  0  0  0  2  0  0  0  0  0  0
  188.3060  176.1370  142.0860 O   0  0  0  0  0  0  0  0  0  0  0  0
  189.9140  172.7710  138.6280 C   0  0  0  0  0  0  0  0  0  0  0  0
  189.3890  173.1940  137.5910 O   0  0  0  0  0  0  0  0  0  0  0  0
  188.9920  174.8750  142.3620 C   0  0  1  0  0  3  0  0  0  0  0  0
  191.6060  174.2840  145.8520 C   0  0  0  0  0  2  0  0  0  0  0  0
  192.1330  174.3180  144.3460 C   0  0  2  0  0  3  0  0  0  0  0  0
  190.1160  174.7930  146.0050 C   0  0  0  0  0  2  0  0  0  0  0  0
  192.2980  171.8230  139.5600 C   0  0  2  0  0  3  0  0  0  0  0  0
  185.5530  177.7310  141.2970 C   0  0  0  0  0  0  0  0  0  0  0  0
  195.9210  172.3040  144.4070 O   0  0  0  0  0  0  0  0  0  0  0  0
  187.2700  173.2170  141.2270 C   0  0  0  0  0  2  0  0  0  0  0  0
  185.8280  176.1910  144.7640 C   0  0  0  0  0  2  0  0  0  0  0  0
  195.2210  171.2070  143.8400 C   0  0  0  0  0  2  0  0  0  0  0  0
  189.2610  172.9200  139.9300 N   0  0  0  0  0  2  0  0  0  0  0  0
  194.9480  174.2940  144.0170 O   0  0  0  0  0  1  0  0  0  0  0  0
  188.0240  173.6950  140.0340 C   0  0  0  0  0  2  0  0  0  0  0  0
  187.2590  176.6250  142.8910 C   0  0  0  0  0  0  0  0  0  0  0  0
  185.1110  178.8700  140.4310 O   0  0  0  0  0  0  0  0  0  0  0  0
  193.0830  168.8250  143.3560 O   0  0  0  0  0  0  0  0  0  0  0  0
  188.2490  176.2280  145.2310 N   0  0  0  0  0  0  0  0  0  0  0  0
  191.2640  174.9540  143.3510 N   0  0  0  0  0  2  0  0  0  0  0  0
  191.2900  170.4320  143.8510 O   0  0  0  0  0  0  0  0  0  0  0  0
  191.8310  171.5500  141.0340 C   0  0  1  0  0  3  0  0  0  0  0  0
  192.6970  170.2930  143.3520 S   0  0  0  0  0  0  0  0  0  0  0  0
  187.0990  176.2950  144.2970 C   0  0  0  0  0  0  0  0  0  0  0  0
  194.9380  173.1940  144.8220 C   0  0  0  0  0  0  0  0  0  0  0  0
  184.4800  177.7000  140.5320 C   0  0  2  0  0  3  0  0  0  0  0  0
  192.9700  170.8940  141.7030 N   0  0  0  0  0  0  0  0  0  0  0  0
  192.3820  172.9240  140.5750 C   0  0  0  0  0  2  0  0  0  0  0  0
  186.3000  177.1630  142.1760 C   0  0  0  0  0  0  0  0  0  0  0  0
  192.6270  173.0590  143.9090 O   0  0  0  0  0  0  0  0  0  0  0  0
  195.3410  173.6300  146.1400 O   0  0  0  0  0  1  0  0  0  0  0  0
  193.8850  171.1110  144.5390 C   0  0  2  0  0  3  0  0  0  0  0  0
  189.8370  174.7880  143.6580 C   0  0  1  0  0  3  0  0  0  0  0  0
  189.6220  175.7150  144.8600 C   0  0  2  0  0  3  0  0  0  0  0  0
  187.9740  173.6790  142.4980 C   0  0  0  0  0  2  0  0  0  0  0  0
  193.5710  172.5300  144.8870 C   0  0  1  0  0  3  0  0  0  0  0  0
  188.4910  177.1300  146.4130 C   0  0  2  0  0  3  0  0  0  0  0  0
  187.6560  176.6610  147.5060 O   0  0  0  0  0  0  0  0  0  0  0  0
  188.1250  178.7590  148.1950 C   0  0  0  0  0  1  0  0  0  0  0  0
  187.4190  177.9840  147.1580 C   0  0  1  0  0  3  0  0  0  0  0  0
  183.2890  178.1790  141.2110 O   0  0  0  0  0  0  0  0  0  0  0  0
  182.3170  178.1800  140.1640 C   0  0  0  0  0  1  0  0  0  0  0  0
  193.6240  169.8620  140.8720 C   0  0  0  0  0  2  0  0  0  0  0  0
  195.1440  169.8520  140.8620 C   0  0  0  0  0  0  0  0  0  0  0  0
  195.7800  169.2820  141.7410 O   0  0  0  0  0  0  0  0  0  0  0  0
  195.8150  170.3110  139.5690 C   0  0  1  0  0  3  0  0  0  0  0  0
  194.8060  170.1340  138.3640 C   0  0  0  0  0  1  0  0  0  0  0  0
  197.9220  175.7050  142.0810 C   0  0  1  0  0  3  0  0  0  0  0  0
  196.8870  175.7650  140.9460 C   0  0  1  0  0  3  0  0  0  0  0  0
  197.2750  173.4490  141.1050 C   0  0  1  0  0  3  0  0  0  0  0  0
  197.4210  176.5100  143.2170 N   0  0  0  0  0  1  0  0  0  0  0  0
  196.2690  171.8030  139.7300 C   0  0  2  0  0  3  0  0  0  0  0  0
  196.5670  172.1380  141.1780 C   0  0  0  0  0  2  0  0  0  0  0  0
  196.2210  174.4250  140.7510 C   0  0  2  0  0  3  0  0  0  0  0  0
  195.9450  176.9840  140.9460 C   0  0  0  0  0  1  0  0  0  0  0  0
  195.2160  172.7790  139.1820 C   0  0  0  0  0  2  0  0  0  0  0  0
  195.8290  174.1980  139.3180 C   0  0  0  0  0  2  0  0  0  0  0  0
  197.9410  174.0240  142.7060 S   0  0  0  0  0  0  0  0  0  0  0  0
  1  3  1  0  0  0  0
  2  5  1  0  0  0  0
  2 18  1  0  0  0  0
  3 15  1  0  0  0  0
  4  3  2  0  0  0  0
  5 37  1  1  0  0  0
  5 35  1  0  0  0  0
  6  8  1  0  0  0  0
  7  6  1  1  0  0  0
  9  1  1  6  0  0  0
  9 30  1  0  0  0  0
  9 24  1  0  0  0  0
 10 31  2  0  0  0  0
 11 27  1  0  0  0  0
 12 37  1  0  0  0  0
 14 11  1  0  0  0  0
 15 17  1  0  0  0  0
 16 27  1  0  0  0  0
 17 12  1  0  0  0  0
 18 26  1  0  0  0  0
 19 28  1  0  0  0  0
 19 10  1  0  0  0  0
 22  7  1  0  0  0  0
 24 30  1  1  0  0  0
 24 29  1  0  0  0  0
 25 20  2  0  0  0  0
 25 23  2  0  0  0  0
 25 34  1  0  0  0  0
 26 13  2  0  0  0  0
 26 21  1  0  0  0  0
 27 38  1  0  0  0  0
 27 33  1  0  0  0  0
 28 43  1  1  0  0  0
 28 10  1  0  0  0  0
 29 25  1  0  0  0  0
 31 18  2  0  0  0  0
 32  7  1  0  0  0  0
 34 14  1  6  0  0  0
 34 38  1  0  0  0  0
 35 22  1  6  0  0  0
 35 36  1  0  0  0  0
 36 21  1  0  0  0  0
 36  8  1  1  0  0  0
 38 32  1  6  0  0  0
 39 21  1  6  0  0  0
 39 42  1  0  0  0  0
 39 40  1  0  0  0  0
 42 40  1  0  0  0  0
 42 41  1  1  0  0  0
 44 43  1  0  0  0  0
 45 29  1  0  0  0  0
 46 45  1  0  0  0  0
 46 47  2  0  0  0  0
 48 49  1  6  0  0  0
 48 46  1  0  0  0  0
 50 60  1  0  0  0  0
 50 53  1  1  0  0  0
 51 57  1  1  0  0  0
 51 50  1  0  0  0  0
 52 55  1  1  0  0  0
 52 60  1  0  0  0  0
 54 48  1  1  0  0  0
 54 55  1  0  0  0  0
 56 59  1  6  0  0  0
 56 51  1  0  0  0  0
 56 52  1  0  0  0  0
 58 59  1  0  0  0  0
 58 54  1  0  0  0  0
M  END
>  <MODEL>
8

>  <REMARK>
 VINA RESULT:      -5.7      2.681      3.346
  Name = 
  6 active torsions:
  status: ('A' for Active; 'I' for Inactive)
    1  A    between atoms: C_1  and  N_33
    2  A    between atoms: O_10  and  C_45
    3  A    between atoms: C_14  and  C_19
    4  A    between atoms: C_14  and  C_28
    5  A    between atoms: C_19  and  C_35
    6  A    between atoms: C_28  and  N_46
                            x       y       z     vdW  Elec       q    Type
                         _______ _______ _______ _____ _____    ______ ____

>  <TORSDO>
F 6

$$$$
=
 OpenBabel11062420403D

 60 68  0  0  1  0  0  0  0  0999 V2000
  189.3230  172.5240  144.8330 C   0  0  0  0  0  2  0  0  0  0  0  0
  192.0870  171.9450  139.3640 O   0  0  0  0  0  0  0  0  0  0  0  0
  188.9790  172.4590  143.3570 C   0  0  0  0  0  0  0  0  0  0  0  0
  188.0470  171.7040  143.0580 O   0  0  0  0  0  0  0  0  0  0  0  0
  192.2040  172.9420  140.4270 C   0  0  1  0  0  3  0  0  0  0  0  0
  196.0630  174.5940  141.7470 C   0  0  0  0  0  2  0  0  0  0  0  0
  195.1520  173.6430  142.6490 C   0  0  2  0  0  3  0  0  0  0  0  0
  195.6150  174.6370  140.2310 C   0  0  0  0  0  2  0  0  0  0  0  0
  190.5790  173.1170  145.4690 C   0  0  2  0  0  3  0  0  0  0  0  0
  190.6440  170.9310  136.6020 C   0  0  0  0  0  0  0  0  0  0  0  0
  196.3940  174.3550  146.6930 O   0  0  0  0  0  0  0  0  0  0  0  0
  189.8580  174.1290  140.1340 C   0  0  0  0  0  2  0  0  0  0  0  0
  192.9730  173.9330  136.4340 C   0  0  0  0  0  2  0  0  0  0  0  0
  195.2070  175.1260  146.8040 C   0  0  0  0  0  2  0  0  0  0  0  0
  189.7310  173.1870  142.3320 N   0  0  0  0  0  2  0  0  0  0  0  0
  196.3000  172.7780  145.0910 O   0  0  0  0  0  1  0  0  0  0  0  0
  189.4640  172.9240  140.9170 C   0  0  0  0  0  2  0  0  0  0  0  0
  192.3690  172.2360  138.0150 C   0  0  0  0  0  0  0  0  0  0  0  0
  190.1410  169.6620  135.9850 O   0  0  0  0  0  0  0  0  0  0  0  0
  192.9080  177.3480  146.2950 O   0  0  0  0  0  0  0  0  0  0  0  0
  194.5720  173.5360  138.2700 N   0  0  0  0  0  0  0  0  0  0  0  0
  194.1560  172.8230  141.9530 N   0  0  0  0  0  2  0  0  0  0  0  0
  192.9650  176.7540  143.9100 O   0  0  0  0  0  0  0  0  0  0  0  0
  191.4100  174.2300  144.7390 C   0  0  1  0  0  3  0  0  0  0  0  0
  193.2300  176.2500  145.2970 S   0  0  0  0  0  0  0  0  0  0  0  0
  193.2810  173.2820  137.5870 C   0  0  0  0  0  0  0  0  0  0  0  0
  196.5410  174.0980  145.3350 C   0  0  0  0  0  0  0  0  0  0  0  0
  189.4900  170.8260  135.9730 C   0  0  2  0  0  3  0  0  0  0  0  0
  192.2780  174.8270  145.7710 N   0  0  0  0  0  0  0  0  0  0  0  0
  191.8110  172.7330  144.7040 C   0  0  0  0  0  2  0  0  0  0  0  0
  191.5120  171.6650  137.2010 C   0  0  0  0  0  0  0  0  0  0  0  0
  194.6110  174.3120  143.7790 O   0  0  0  0  0  0  0  0  0  0  0  0
  197.9380  174.3330  145.0450 O   0  0  0  0  0  1  0  0  0  0  0  0
  195.0530  175.9080  145.5210 C   0  0  2  0  0  3  0  0  0  0  0  0
  193.6210  173.4790  140.7520 C   0  0  1  0  0  3  0  0  0  0  0  0
  194.7890  173.4120  139.7610 C   0  0  2  0  0  3  0  0  0  0  0  0
  191.3780  174.2430  140.0960 C   0  0  0  0  0  2  0  0  0  0  0  0
  195.6700  175.0170  144.4920 C   0  0  1  0  0  3  0  0  0  0  0  0
  195.9450  173.3620  137.6740 C   0  0  2  0  0  3  0  0  0  0  0  0
  196.3800  174.6580  137.1780 O   0  0  0  0  0  0  0  0  0  0  0  0
  197.7740  173.2800  136.0580 C   0  0  0  0  0  1  0  0  0  0  0  0
  196.3590  173.6710  136.2020 C   0  0  1  0  0  3  0  0  0  0  0  0
  189.5960  171.0930  134.5500 O   0  0  0  0  0  0  0  0  0  0  0  0
  189.7730  172.5100  134.5160 C   0  0  0  0  0  1  0  0  0  0  0  0
  191.5880  175.0640  147.0540 C   0  0  0  0  0  2  0  0  0  0  0  0
  190.4000  176.0140  147.0280 C   0  0  0  0  0  0  0  0  0  0  0  0
  190.5540  177.2240  147.1390 O   0  0  0  0  0  0  0  0  0  0  0  0
  189.0720  175.4230  146.5620 C   0  0  1  0  0  3  0  0  0  0  0  0
  188.2030  175.0250  147.8220 C   0  0  0  0  0  1  0  0  0  0  0  0
  184.7390  179.4420  144.3440 C   0  0  1  0  0  3  0  0  0  0  0  0
  185.6030  178.6530  143.3490 C   0  0  1  0  0  3  0  0  0  0  0  0
  186.5120  177.9630  145.4070 C   0  0  1  0  0  3  0  0  0  0  0  0
  183.3150  179.2420  143.9940 N   0  0  0  0  0  1  0  0  0  0  0  0
  188.3350  176.4710  145.6570 C   0  0  2  0  0  3  0  0  0  0  0  0
  186.9320  176.7470  146.1600 C   0  0  0  0  0  2  0  0  0  0  0  0
  186.2790  177.4860  144.0260 C   0  0  2  0  0  3  0  0  0  0  0  0
  184.9620  178.3500  141.9800 C   0  0  0  0  0  1  0  0  0  0  0  0
  188.2760  176.0130  144.1920 C   0  0  0  0  0  2  0  0  0  0  0  0
  187.6110  177.1730  143.4030 C   0  0  0  0  0  2  0  0  0  0  0  0
  184.9130  178.6590  145.9490 S   0  0  0  0  0  0  0  0  0  0  0  0
  1  9  1  0  0  0  0
  2  5  1  0  0  0  0
  3  1  1  0  0  0  0
  4  3  2  0  0  0  0
  5 37  1  6  0  0  0
  5 35  1  0  0  0  0
  7  6  1  6  0  0  0
  7 32  1  0  0  0  0
  8  6  1  0  0  0  0
  9 30  1  6  0  0  0
 10 31  2  0  0  0  0
 11 14  1  0  0  0  0
 12 17  1  0  0  0  0
 13 26  2  0  0  0  0
 15  3  1  0  0  0  0
 16 27  1  0  0  0  0
 17 15  1  0  0  0  0
 18  2  1  0  0  0  0
 19 10  1  0  0  0  0
 21 36  1  0  0  0  0
 22  7  1  0  0  0  0
 23 25  2  0  0  0  0
 24 30  1  6  0  0  0
 24  9  1  0  0  0  0
 24 29  1  0  0  0  0
 25 34  1  0  0  0  0
 25 29  1  0  0  0  0
 25 20  2  0  0  0  0
 26 18  1  0  0  0  0
 26 21  1  0  0  0  0
 27 11  1  0  0  0  0
 28 43  1  6  0  0  0
 28 19  1  0  0  0  0
 28 10  1  0  0  0  0
 29 45  1  0  0  0  0
 31 18  2  0  0  0  0
 33 27  1  0  0  0  0
 34 14  1  1  0  0  0
 35 22  1  1  0  0  0
 36  8  1  1  0  0  0
 36 35  1  0  0  0  0
 37 12  1  0  0  0  0
 38 32  1  1  0  0  0
 38 27  1  0  0  0  0
 38 34  1  0  0  0  0
 39 21  1  6  0  0  0
 40 39  1  0  0  0  0
 42 41  1  1  0  0  0
 42 40  1  0  0  0  0
 42 39  1  0  0  0  0
 44 43  1  0  0  0  0
 46 45  1  0  0  0  0
 46 47  2  0  0  0  0
 48 46  1  0  0  0  0
 48 49  1  1  0  0  0
 50 53  1  6  0  0  0
 50 60  1  0  0  0  0
 51 57  1  6  0  0  0
 51 56  1  0  0  0  0
 51 50  1  0  0  0  0
 52 60  1  0  0  0  0
 52 55  1  1  0  0  0
 54 55  1  0  0  0  0
 54 48  1  1  0  0  0
 56 59  1  6  0  0  0
 56 52  1  0  0  0  0
 58 54  1  0  0  0  0
 59 58  1  0  0  0  0
M  END
>  <MODEL>
9

>  <REMARK>
 VINA RESULT:      -5.7      3.112      9.199
  Name = 
  6 active torsions:
  status: ('A' for Active; 'I' for Inactive)
    1  A    between atoms: C_1  and  N_33
    2  A    between atoms: O_10  and  C_45
    3  A    between atoms: C_14  and  C_19
    4  A    between atoms: C_14  and  C_28
    5  A    between atoms: C_19  and  C_35
    6  A    between atoms: C_28  and  N_46
                            x       y       z     vdW  Elec       q    Type
                         _______ _______ _______ _____ _____    ______ ____

>  <TORSDO>
F 6

$$$$
