=
 OpenBabel11072409303D

 40 45  0  0  1  0  0  0  0  0999 V2000
  192.5550  172.7590  142.9170 C   0  0  0  0  0  2  0  0  0  0  0  0
  188.8670  176.0190  144.7980 N   0  0  0  0  0  2  0  0  0  0  0  0
  190.0110  172.4750  144.4450 C   0  0  0  0  0  2  0  0  0  0  0  0
  189.2420  174.7680  144.2110 C   0  0  0  0  0  0  0  0  0  0  0  0
  191.5580  173.2400  141.8670 C   0  0  1  0  0  3  0  0  0  0  0  0
  191.6250  174.7590  141.6170 C   0  0  1  0  0  3  0  0  0  0  0  0
  191.3490  172.1950  144.7900 O   0  0  0  0  0  0  0  0  0  0  0  0
  190.4030  175.5140  142.0570 C   0  0  2  0  0  3  0  0  0  0  0  0
  191.5830  175.4800  142.8260 O   0  0  0  0  0  0  0  0  0  0  0  0
  189.3060  174.6510  142.7080 C   0  0  2  0  0  3  0  0  0  0  0  0
  189.5810  173.7690  144.9740 N   0  0  0  0  0  0  0  0  0  0  0  0
  192.1160  173.1790  144.2450 N   0  0  0  0  0  2  0  0  0  0  0  0
  191.7430  172.4710  140.5680 C   0  0  0  0  0  2  0  0  0  0  0  0
  189.3460  172.2640  139.8670 C   0  0  0  0  0  3  0  0  0  0  0  0
  190.8750  173.5160  138.4630 C   0  0  0  0  0  3  0  0  0  0  0  0
  189.8420  173.7570  137.5530 C   0  0  0  0  0  3  0  0  0  0  0  0
  190.6280  172.7740  139.6250 C   0  0  0  0  0  0  0  0  0  0  0  0
  188.3120  172.5080  138.9580 C   0  0  0  0  0  3  0  0  0  0  0  0
  188.5600  173.2550  137.8020 C   0  0  0  0  0  3  0  0  0  0  0  0
  188.8180  176.2370  146.2390 C   0  0  2  0  0  3  0  0  0  0  0  0
  186.2780  176.4560  146.1960 C   0  0  0  0  0  3  0  0  0  0  0  0
  186.0520  178.1250  147.6190 O   0  0  0  0  0  0  0  0  0  0  0  0
  187.5170  176.8560  146.6450 C   0  0  0  0  0  0  0  0  0  0  0  0
  187.3410  177.8960  147.5320 C   0  0  0  0  0  3  0  0  0  0  0  0
  185.3890  177.2940  146.8440 C   0  0  0  0  0  3  0  0  0  0  0  0
  190.4440  177.9290  145.6950 O   0  0  0  0  0  1  0  0  0  0  0  0
  190.0110  177.0730  146.7100 C   0  0  2  0  0  3  0  0  0  0  0  0
  191.1650  176.1830  147.1470 C   0  0  0  0  0  2  0  0  0  0  0  0
  192.3180  176.2820  146.1660 C   0  0  0  0  0  3  0  0  0  0  0  0
  193.5720  176.6820  146.9150 C   0  0  0  0  0  2  0  0  0  0  0  0
  193.3580  175.2390  146.5140 C   0  0  0  0  0  2  0  0  0  0  0  0
  187.9470  174.8180  142.0310 C   0  0  0  0  0  2  0  0  0  0  0  0
  188.0140  175.7220  140.8110 C   0  0  0  0  0  2  0  0  0  0  0  0
  187.0220  176.8560  140.9730 C   0  0  0  0  0  2  0  0  0  0  0  0
  187.1160  177.3740  142.2640 O   0  0  0  0  0  0  0  0  0  0  0  0
  184.7710  179.3160  143.9190 C   0  0  0  0  0  2  0  0  0  0  0  0
  184.0570  178.3220  143.0360 C   0  0  0  0  0  2  0  0  0  0  0  0
  186.2440  179.1070  143.6430 C   0  0  0  0  0  2  0  0  0  0  0  0
  184.9250  178.1970  141.8030 C   0  0  0  0  0  2  0  0  0  0  0  0
  186.3420  178.5350  142.2390 C   0  0  0  0  0  3  0  0  0  0  0  0
  1 12  1  0  0  0  0
  3  7  1  0  0  0  0
  3 11  1  0  0  0  0
  4  2  1  0  0  0  0
  4 11  2  0  0  0  0
  5 13  1  6  0  0  0
  5  1  1  0  0  0  0
  6  5  1  0  0  0  0
  6  8  1  0  0  0  0
  6  9  1  1  0  0  0
  8 10  1  0  0  0  0
  8  9  1  1  0  0  0
 10 32  1  6  0  0  0
 10  4  1  0  0  0  0
 12  7  1  0  0  0  0
 15 17  2  0  0  0  0
 16 19  2  0  0  0  0
 16 15  1  0  0  0  0
 17 14  1  0  0  0  0
 17 13  1  0  0  0  0
 18 14  2  0  0  0  0
 19 18  1  0  0  0  0
 20  2  1  6  0  0  0
 20 23  1  0  0  0  0
 20 27  1  0  0  0  0
 21 23  1  0  0  0  0
 21 25  2  0  0  0  0
 23 24  2  0  0  0  0
 24 22  1  0  0  0  0
 25 22  1  0  0  0  0
 27 26  1  6  0  0  0
 27 28  1  0  0  0  0
 29 31  1  0  0  0  0
 29 30  1  0  0  0  0
 29 28  1  0  0  0  0
 31 30  1  0  0  0  0
 33 34  1  0  0  0  0
 33 32  1  0  0  0  0
 34 35  1  0  0  0  0
 37 36  1  0  0  0  0
 38 36  1  0  0  0  0
 39 40  1  0  0  0  0
 39 37  1  0  0  0  0
 40 35  1  0  0  0  0
 40 38  1  0  0  0  0
M  END
>  <MODEL>
1

>  <REMARK>
 VINA RESULT:      -6.8      0.000      0.000
  Name = 
  12 active torsions:
  status: ('A' for Active; 'I' for Inactive)
    1  A    between atoms: C_4  and  C_17
    2  A    between atoms: C_4  and  O_29
    3  A    between atoms: C_6  and  C_34
    4  A    between atoms: N_11  and  C_33
    5  A    between atoms: C_15  and  C_20
    6  A    between atoms: C_17  and  C_37
    7  A    between atoms: C_19  and  C_33
    8  A    between atoms: C_20  and  C_31
    9  A    between atoms: C_24  and  C_37
   10  A    between atoms: O_29  and  C_32
   11  A    between atoms: C_33  and  C_35
   12  A    between atoms: C_34  and  C_35
                            x       y       z     vdW  Elec       q    Type
                         _______ _______ _______ _____ _____    ______ ____

>  <TORSDO>
F 12

$$$$
=
 OpenBabel11072409303D

 40 45  0  0  1  0  0  0  0  0999 V2000
  192.6910  173.1670  144.7200 C   0  0  0  0  0  2  0  0  0  0  0  0
  190.0220  173.3590  140.1810 N   0  0  0  0  0  2  0  0  0  0  0  0
  192.8330  174.7660  142.2090 C   0  0  0  0  0  2  0  0  0  0  0  0
  190.7380  174.0130  141.2330 C   0  0  0  0  0  0  0  0  0  0  0  0
  191.3690  173.9220  144.8100 C   0  0  1  0  0  3  0  0  0  0  0  0
  190.1400  173.0260  144.5610 C   0  0  1  0  0  3  0  0  0  0  0  0
  193.7310  173.8470  142.7870 O   0  0  0  0  0  0  0  0  0  0  0  0
  189.3880  173.3400  143.2990 C   0  0  2  0  0  3  0  0  0  0  0  0
  190.2910  172.2620  143.3880 O   0  0  0  0  0  0  0  0  0  0  0  0
  189.9850  174.4810  142.4550 C   0  0  2  0  0  3  0  0  0  0  0  0
  192.0320  174.1440  141.1550 N   0  0  0  0  0  0  0  0  0  0  0  0
  192.9840  172.8440  143.3260 N   0  0  0  0  0  2  0  0  0  0  0  0
  191.2540  174.6350  146.1480 C   0  0  0  0  0  2  0  0  0  0  0  0
  188.9340  175.3110  146.8100 C   0  0  0  0  0  3  0  0  0  0  0  0
  190.2130  176.7730  145.3600 C   0  0  0  0  0  3  0  0  0  0  0  0
  189.1320  177.6560  145.2950 C   0  0  0  0  0  3  0  0  0  0  0  0
  190.1190  175.6020  146.1230 C   0  0  0  0  0  0  0  0  0  0  0  0
  187.8520  176.1950  146.7460 C   0  0  0  0  0  3  0  0  0  0  0  0
  187.9520  177.3680  145.9900 C   0  0  0  0  0  3  0  0  0  0  0  0
  190.6710  172.8370  138.9840 C   0  0  2  0  0  3  0  0  0  0  0  0
  191.1030  174.1990  136.8710 C   0  0  0  0  0  3  0  0  0  0  0  0
  189.0160  174.5050  136.2270 O   0  0  0  0  0  0  0  0  0  0  0  0
  190.2450  173.5980  137.7670 C   0  0  0  0  0  0  0  0  0  0  0  0
  188.9530  173.8060  137.3350 C   0  0  0  0  0  3  0  0  0  0  0  0
  190.2700  174.7580  135.9190 C   0  0  0  0  0  3  0  0  0  0  0  0
  190.6040  170.6750  140.0440 O   0  0  0  0  0  1  0  0  0  0  0  0
  190.4140  171.3360  138.8280 C   0  0  2  0  0  3  0  0  0  0  0  0
  191.3310  170.7300  137.7760 C   0  0  0  0  0  2  0  0  0  0  0  0
  190.5210  170.1290  136.6430 C   0  0  0  0  0  3  0  0  0  0  0  0
  191.0150  170.6930  135.3270 C   0  0  0  0  0  2  0  0  0  0  0  0
  191.4340  169.3060  135.7600 C   0  0  0  0  0  2  0  0  0  0  0  0
  188.9720  175.5830  142.1540 C   0  0  0  0  0  2  0  0  0  0  0  0
  187.6170  175.3140  142.7890 C   0  0  0  0  0  2  0  0  0  0  0  0
  186.6890  176.4760  142.4990 C   0  0  0  0  0  2  0  0  0  0  0  0
  185.6950  176.5320  143.4760 O   0  0  0  0  0  0  0  0  0  0  0  0
  185.8620  179.9700  143.8660 C   0  0  0  0  0  2  0  0  0  0  0  0
  185.2070  179.3650  145.0840 C   0  0  0  0  0  2  0  0  0  0  0  0
  186.0990  178.8110  142.9240 C   0  0  0  0  0  2  0  0  0  0  0  0
  184.3870  178.2090  144.5540 C   0  0  0  0  0  2  0  0  0  0  0  0
  185.0610  177.7570  143.2690 C   0  0  0  0  0  3  0  0  0  0  0  0
  1  5  1  0  0  0  0
  2  4  1  0  0  0  0
  3  7  1  0  0  0  0
  4 10  1  0  0  0  0
  5 13  1  1  0  0  0
  6  9  1  6  0  0  0
  6  5  1  0  0  0  0
  7 12  1  0  0  0  0
  8  9  1  6  0  0  0
  8  6  1  0  0  0  0
 10 32  1  6  0  0  0
 10  8  1  0  0  0  0
 11  4  2  0  0  0  0
 11  3  1  0  0  0  0
 12  1  1  0  0  0  0
 15 17  1  0  0  0  0
 16 15  2  0  0  0  0
 16 19  1  0  0  0  0
 17 13  1  0  0  0  0
 17 14  2  0  0  0  0
 18 14  1  0  0  0  0
 19 18  2  0  0  0  0
 20  2  1  1  0  0  0
 21 23  1  0  0  0  0
 22 24  1  0  0  0  0
 23 20  1  0  0  0  0
 24 23  2  0  0  0  0
 25 22  1  0  0  0  0
 25 21  2  0  0  0  0
 27 20  1  0  0  0  0
 27 26  1  1  0  0  0
 28 27  1  0  0  0  0
 29 28  1  0  0  0  0
 30 31  1  0  0  0  0
 30 29  1  0  0  0  0
 31 29  1  0  0  0  0
 32 33  1  0  0  0  0
 34 33  1  0  0  0  0
 34 35  1  0  0  0  0
 36 37  1  0  0  0  0
 38 40  1  0  0  0  0
 38 36  1  0  0  0  0
 39 37  1  0  0  0  0
 40 35  1  0  0  0  0
 40 39  1  0  0  0  0
M  END
>  <MODEL>
2

>  <REMARK>
 VINA RESULT:      -6.7      2.414      7.204
  Name = 
  12 active torsions:
  status: ('A' for Active; 'I' for Inactive)
    1  A    between atoms: C_4  and  C_17
    2  A    between atoms: C_4  and  O_29
    3  A    between atoms: C_6  and  C_34
    4  A    between atoms: N_11  and  C_33
    5  A    between atoms: C_15  and  C_20
    6  A    between atoms: C_17  and  C_37
    7  A    between atoms: C_19  and  C_33
    8  A    between atoms: C_20  and  C_31
    9  A    between atoms: C_24  and  C_37
   10  A    between atoms: O_29  and  C_32
   11  A    between atoms: C_33  and  C_35
   12  A    between atoms: C_34  and  C_35
                            x       y       z     vdW  Elec       q    Type
                         _______ _______ _______ _____ _____    ______ ____

>  <TORSDO>
F 12

$$$$
=
 OpenBabel11072409303D

 40 45  0  0  1  0  0  0  0  0999 V2000
  189.7630  177.8770  144.5900 C   0  0  0  0  0  2  0  0  0  0  0  0
  192.9780  173.7830  145.4070 N   0  0  0  0  0  2  0  0  0  0  0  0
  191.2700  175.9530  142.8840 C   0  0  0  0  0  2  0  0  0  0  0  0
  191.9490  174.4260  144.6480 C   0  0  0  0  0  0  0  0  0  0  0  0
  189.0400  176.5820  144.9450 C   0  0  1  0  0  3  0  0  0  0  0  0
  189.3570  176.0800  146.3670 C   0  0  1  0  0  3  0  0  0  0  0  0
  191.3870  177.3470  143.0520 O   0  0  0  0  0  0  0  0  0  0  0  0
  190.1340  174.7950  146.4130 C   0  0  2  0  0  3  0  0  0  0  0  0
  190.7450  176.0500  146.6030 O   0  0  0  0  0  0  0  0  0  0  0  0
  190.5070  174.2130  145.0370 C   0  0  2  0  0  3  0  0  0  0  0  0
  192.2670  175.2320  143.6760 N   0  0  0  0  0  0  0  0  0  0  0  0
  191.1820  177.6090  144.3720 N   0  0  0  0  0  2  0  0  0  0  0  0
  187.5400  176.7410  144.7520 C   0  0  0  0  0  2  0  0  0  0  0  0
  187.7300  176.0590  142.3470 C   0  0  0  0  0  3  0  0  0  0  0  0
  186.4750  178.0570  142.9050 C   0  0  0  0  0  3  0  0  0  0  0  0
  186.2210  178.2770  141.5480 C   0  0  0  0  0  3  0  0  0  0  0  0
  187.2240  176.9450  143.3080 C   0  0  0  0  0  0  0  0  0  0  0  0
  187.4740  176.2780  140.9900 C   0  0  0  0  0  3  0  0  0  0  0  0
  186.7190  177.3860  140.5910 C   0  0  0  0  0  3  0  0  0  0  0  0
  194.3990  173.9630  145.1310 C   0  0  2  0  0  3  0  0  0  0  0  0
  194.6660  171.4530  145.4890 C   0  0  0  0  0  3  0  0  0  0  0  0
  196.7990  171.4110  146.0500 O   0  0  0  0  0  0  0  0  0  0  0  0
  195.1750  172.7330  145.4830 C   0  0  0  0  0  0  0  0  0  0  0  0
  196.5070  172.6710  145.8350 C   0  0  0  0  0  3  0  0  0  0  0  0
  195.7370  170.6580  145.8560 C   0  0  0  0  0  3  0  0  0  0  0  0
  193.9920  175.7250  146.7240 O   0  0  0  0  0  1  0  0  0  0  0  0
  194.9460  175.2000  145.8490 C   0  0  2  0  0  3  0  0  0  0  0  0
  195.3630  176.2720  144.8540 C   0  0  0  0  0  2  0  0  0  0  0  0
  195.7860  175.6460  143.5390 C   0  0  0  0  0  3  0  0  0  0  0  0
  196.5880  176.6560  142.7450 C   0  0  0  0  0  2  0  0  0  0  0  0
  197.2960  175.5510  143.4960 C   0  0  0  0  0  2  0  0  0  0  0  0
  190.0430  172.7680  144.8650 C   0  0  0  0  0  2  0  0  0  0  0  0
  189.3960  172.5240  143.5110 C   0  0  0  0  0  2  0  0  0  0  0  0
  190.3690  171.7850  142.6160 C   0  0  0  0  0  2  0  0  0  0  0  0
  189.7980  171.6050  141.3570 O   0  0  0  0  0  0  0  0  0  0  0  0
  188.6770  173.5790  138.7400 C   0  0  0  0  0  2  0  0  0  0  0  0
  190.1850  173.5230  138.7070 C   0  0  0  0  0  2  0  0  0  0  0  0
  188.2770  172.8080  139.9780 C   0  0  0  0  0  2  0  0  0  0  0  0
  190.6090  173.5020  140.1590 C   0  0  0  0  0  2  0  0  0  0  0  0
  189.4530  172.8900  140.9350 C   0  0  0  0  0  3  0  0  0  0  0  0
  1  5  1  0  0  0  0
  3  7  1  0  0  0  0
  3 11  1  0  0  0  0
  4 10  1  0  0  0  0
  4  2  1  0  0  0  0
  5 13  1  1  0  0  0
  5  6  1  0  0  0  0
  6  8  1  0  0  0  0
  6  9  1  6  0  0  0
  7 12  1  0  0  0  0
  8  9  1  1  0  0  0
 10 32  1  1  0  0  0
 10  8  1  0  0  0  0
 11  4  2  0  0  0  0
 12  1  1  0  0  0  0
 14 17  1  0  0  0  0
 15 17  2  0  0  0  0
 16 15  1  0  0  0  0
 17 13  1  0  0  0  0
 18 14  2  0  0  0  0
 19 18  1  0  0  0  0
 19 16  2  0  0  0  0
 20  2  1  1  0  0  0
 20 23  1  0  0  0  0
 20 27  1  0  0  0  0
 21 25  2  0  0  0  0
 23 21  1  0  0  0  0
 23 24  2  0  0  0  0
 24 22  1  0  0  0  0
 25 22  1  0  0  0  0
 27 26  1  1  0  0  0
 28 27  1  0  0  0  0
 29 28  1  0  0  0  0
 30 31  1  0  0  0  0
 30 29  1  0  0  0  0
 31 29  1  0  0  0  0
 33 32  1  0  0  0  0
 34 33  1  0  0  0  0
 35 34  1  0  0  0  0
 36 38  1  0  0  0  0
 37 36  1  0  0  0  0
 37 39  1  0  0  0  0
 38 40  1  0  0  0  0
 39 40  1  0  0  0  0
 40 35  1  0  0  0  0
M  END
>  <MODEL>
3

>  <REMARK>
 VINA RESULT:      -6.6      2.629      6.571
  Name = 
  12 active torsions:
  status: ('A' for Active; 'I' for Inactive)
    1  A    between atoms: C_4  and  C_17
    2  A    between atoms: C_4  and  O_29
    3  A    between atoms: C_6  and  C_34
    4  A    between atoms: N_11  and  C_33
    5  A    between atoms: C_15  and  C_20
    6  A    between atoms: C_17  and  C_37
    7  A    between atoms: C_19  and  C_33
    8  A    between atoms: C_20  and  C_31
    9  A    between atoms: C_24  and  C_37
   10  A    between atoms: O_29  and  C_32
   11  A    between atoms: C_33  and  C_35
   12  A    between atoms: C_34  and  C_35
                            x       y       z     vdW  Elec       q    Type
                         _______ _______ _______ _____ _____    ______ ____

>  <TORSDO>
F 12

$$$$
=
 OpenBabel11072409303D

 40 45  0  0  1  0  0  0  0  0999 V2000
  192.0140  175.7590  147.0800 C   0  0  0  0  0  2  0  0  0  0  0  0
  188.8910  176.4220  142.8880 N   0  0  0  0  0  2  0  0  0  0  0  0
  189.9500  174.1440  145.6590 C   0  0  0  0  0  2  0  0  0  0  0  0
  189.7020  175.5830  143.7170 C   0  0  0  0  0  0  0  0  0  0  0  0
  192.7170  175.5440  145.7430 C   0  0  1  0  0  3  0  0  0  0  0  0
  192.7860  176.8210  144.8830 C   0  0  1  0  0  3  0  0  0  0  0  0
  189.9840  174.6870  146.9600 O   0  0  0  0  0  0  0  0  0  0  0  0
  191.9680  176.7660  143.6240 C   0  0  2  0  0  3  0  0  0  0  0  0
  191.5260  177.4400  144.7800 O   0  0  0  0  0  0  0  0  0  0  0  0
  191.1760  175.4610  143.4210 C   0  0  2  0  0  3  0  0  0  0  0  0
  189.1750  174.9850  144.7480 N   0  0  0  0  0  0  0  0  0  0  0  0
  190.5770  175.9090  146.8660 N   0  0  0  0  0  2  0  0  0  0  0  0
  194.1050  174.9640  145.9600 C   0  0  0  0  0  2  0  0  0  0  0  0
  193.7310  172.5370  145.4610 C   0  0  0  0  0  3  0  0  0  0  0  0
  195.1140  173.8440  143.9590 C   0  0  0  0  0  3  0  0  0  0  0  0
  195.3410  172.7080  143.1780 C   0  0  0  0  0  3  0  0  0  0  0  0
  194.3040  173.7630  145.0980 C   0  0  0  0  0  0  0  0  0  0  0  0
  193.9580  171.4000  144.6780 C   0  0  0  0  0  3  0  0  0  0  0  0
  194.7610  171.4860  143.5370 C   0  0  0  0  0  3  0  0  0  0  0  0
  187.4670  176.6330  143.1230 C   0  0  2  0  0  3  0  0  0  0  0  0
  185.5970  177.7650  141.8100 C   0  0  0  0  0  3  0  0  0  0  0  0
  186.3020  177.3340  139.7660 O   0  0  0  0  0  0  0  0  0  0  0  0
  186.7700  177.0450  141.8640 C   0  0  0  0  0  0  0  0  0  0  0  0
  187.1840  176.7940  140.5730 C   0  0  0  0  0  3  0  0  0  0  0  0
  185.3480  177.9180  140.4580 C   0  0  0  0  0  3  0  0  0  0  0  0
  188.4570  178.1270  144.7320 O   0  0  0  0  0  1  0  0  0  0  0  0
  187.2390  177.6440  144.2500 C   0  0  2  0  0  3  0  0  0  0  0  0
  186.4540  177.0210  145.3940 C   0  0  0  0  0  2  0  0  0  0  0  0
  185.0410  177.5720  145.4360 C   0  0  0  0  0  3  0  0  0  0  0  0
  184.7480  178.0780  146.8340 C   0  0  0  0  0  2  0  0  0  0  0  0
  185.0940  179.0550  145.7320 C   0  0  0  0  0  2  0  0  0  0  0  0
  191.4690  174.7990  142.0760 C   0  0  0  0  0  2  0  0  0  0  0  0
  191.7800  173.3170  142.2150 C   0  0  0  0  0  2  0  0  0  0  0  0
  191.3140  172.5890  140.9720 C   0  0  0  0  0  2  0  0  0  0  0  0
  189.9200  172.5650  140.9430 O   0  0  0  0  0  0  0  0  0  0  0  0
  189.7020  173.7580  137.6970 C   0  0  0  0  0  2  0  0  0  0  0  0
  188.3880  173.9960  138.4020 C   0  0  0  0  0  2  0  0  0  0  0  0
  190.5550  173.0030  138.6920 C   0  0  0  0  0  2  0  0  0  0  0  0
  188.2030  172.7950  139.3030 C   0  0  0  0  0  2  0  0  0  0  0  0
  189.5960  172.2740  139.6170 C   0  0  0  0  0  3  0  0  0  0  0  0
  2  4  1  0  0  0  0
  3  7  1  0  0  0  0
  4 11  2  0  0  0  0
  5 13  1  1  0  0  0
  5  1  1  0  0  0  0
  6  9  1  1  0  0  0
  6  5  1  0  0  0  0
  8  9  1  1  0  0  0
  8  6  1  0  0  0  0
 10 32  1  6  0  0  0
 10  8  1  0  0  0  0
 10  4  1  0  0  0  0
 11  3  1  0  0  0  0
 12  7  1  0  0  0  0
 12  1  1  0  0  0  0
 15 17  2  0  0  0  0
 16 19  2  0  0  0  0
 16 15  1  0  0  0  0
 17 14  1  0  0  0  0
 17 13  1  0  0  0  0
 18 14  2  0  0  0  0
 19 18  1  0  0  0  0
 20  2  1  6  0  0  0
 20 27  1  0  0  0  0
 21 23  1  0  0  0  0
 22 25  1  0  0  0  0
 22 24  1  0  0  0  0
 23 20  1  0  0  0  0
 24 23  2  0  0  0  0
 25 21  2  0  0  0  0
 27 26  1  1  0  0  0
 27 28  1  0  0  0  0
 28 29  1  0  0  0  0
 29 31  1  0  0  0  0
 29 30  1  0  0  0  0
 31 30  1  0  0  0  0
 32 33  1  0  0  0  0
 34 33  1  0  0  0  0
 35 34  1  0  0  0  0
 36 37  1  0  0  0  0
 36 38  1  0  0  0  0
 37 39  1  0  0  0  0
 38 40  1  0  0  0  0
 39 40  1  0  0  0  0
 40 35  1  0  0  0  0
M  END
>  <MODEL>
4

>  <REMARK>
 VINA RESULT:      -6.6      1.850      5.967
  Name = 
  12 active torsions:
  status: ('A' for Active; 'I' for Inactive)
    1  A    between atoms: C_4  and  C_17
    2  A    between atoms: C_4  and  O_29
    3  A    between atoms: C_6  and  C_34
    4  A    between atoms: N_11  and  C_33
    5  A    between atoms: C_15  and  C_20
    6  A    between atoms: C_17  and  C_37
    7  A    between atoms: C_19  and  C_33
    8  A    between atoms: C_20  and  C_31
    9  A    between atoms: C_24  and  C_37
   10  A    between atoms: O_29  and  C_32
   11  A    between atoms: C_33  and  C_35
   12  A    between atoms: C_34  and  C_35
                            x       y       z     vdW  Elec       q    Type
                         _______ _______ _______ _____ _____    ______ ____

>  <TORSDO>
F 12

$$$$
=
 OpenBabel11072409303D

 40 45  0  0  1  0  0  0  0  0999 V2000
  189.4510  177.4480  146.4180 C   0  0  0  0  0  2  0  0  0  0  0  0
  191.8750  174.2770  142.9780 N   0  0  0  0  0  2  0  0  0  0  0  0
  189.9820  177.4630  143.4850 C   0  0  0  0  0  2  0  0  0  0  0  0
  190.8210  175.1900  143.3020 C   0  0  0  0  0  0  0  0  0  0  0  0
  188.6170  176.2450  145.9900 C   0  0  1  0  0  3  0  0  0  0  0  0
  189.2250  174.8980  146.4280 C   0  0  1  0  0  3  0  0  0  0  0  0
  190.4190  178.3130  144.5220 O   0  0  0  0  0  0  0  0  0  0  0  0
  189.7070  174.0370  145.2950 C   0  0  2  0  0  3  0  0  0  0  0  0
  190.5860  174.8110  146.0780 O   0  0  0  0  0  0  0  0  0  0  0  0
  189.5410  174.6550  143.8940 C   0  0  2  0  0  3  0  0  0  0  0  0
  190.9990  176.4710  143.1400 N   0  0  0  0  0  0  0  0  0  0  0  0
  190.6620  177.5260  145.6060 N   0  0  0  0  0  2  0  0  0  0  0  0
  187.1890  176.3810  146.4950 C   0  0  0  0  0  2  0  0  0  0  0  0
  186.1300  176.7610  144.2550 C   0  0  0  0  0  3  0  0  0  0  0  0
  185.9420  178.4850  145.9490 C   0  0  0  0  0  3  0  0  0  0  0  0
  185.2340  179.2890  145.0520 C   0  0  0  0  0  3  0  0  0  0  0  0
  186.3870  177.2170  145.5550 C   0  0  0  0  0  0  0  0  0  0  0  0
  185.4200  177.5650  143.3580 C   0  0  0  0  0  3  0  0  0  0  0  0
  184.9710  178.8280  143.7570 C   0  0  0  0  0  3  0  0  0  0  0  0
  193.1610  174.7070  142.4410 C   0  0  2  0  0  3  0  0  0  0  0  0
  192.2740  173.8500  140.2100 C   0  0  0  0  0  3  0  0  0  0  0  0
  193.8270  174.6780  138.8810 O   0  0  0  0  0  0  0  0  0  0  0  0
  193.2070  174.5360  140.9550 C   0  0  0  0  0  0  0  0  0  0  0  0
  194.1600  175.0420  140.0970 C   0  0  0  0  0  3  0  0  0  0  0  0
  192.7170  173.9720  138.9050 C   0  0  0  0  0  3  0  0  0  0  0  0
  193.8540  172.8340  143.7890 O   0  0  0  0  0  1  0  0  0  0  0  0
  194.3170  173.9750  143.1280 C   0  0  2  0  0  3  0  0  0  0  0  0
  195.0260  174.8810  144.1230 C   0  0  0  0  0  2  0  0  0  0  0  0
  194.0210  175.6150  144.9890 C   0  0  0  0  0  3  0  0  0  0  0  0
  194.6160  175.8290  146.3660 C   0  0  0  0  0  2  0  0  0  0  0  0
  194.5860  176.9670  145.3710 C   0  0  0  0  0  2  0  0  0  0  0  0
  188.7670  173.7480  142.9400 C   0  0  0  0  0  2  0  0  0  0  0  0
  187.8820  174.5330  141.9840 C   0  0  0  0  0  2  0  0  0  0  0  0
  188.4610  174.4530  140.5870 C   0  0  0  0  0  2  0  0  0  0  0  0
  188.9940  173.1810  140.3760 O   0  0  0  0  0  0  0  0  0  0  0  0
  189.5960  172.2760  137.0860 C   0  0  0  0  0  2  0  0  0  0  0  0
  189.3560  173.7650  137.1550 C   0  0  0  0  0  2  0  0  0  0  0  0
  189.3820  171.7740  138.4970 C   0  0  0  0  0  2  0  0  0  0  0  0
  188.3020  173.9440  138.2250 C   0  0  0  0  0  2  0  0  0  0  0  0
  188.4390  172.7590  139.1670 C   0  0  0  0  0  3  0  0  0  0  0  0
  2  4  1  0  0  0  0
  3  7  1  0  0  0  0
  4 10  1  0  0  0  0
  5  1  1  0  0  0  0
  5  6  1  0  0  0  0
  5 13  1  1  0  0  0
  6  9  1  1  0  0  0
  7 12  1  0  0  0  0
  8  9  1  1  0  0  0
  8  6  1  0  0  0  0
 10 32  1  6  0  0  0
 10  8  1  0  0  0  0
 11  4  2  0  0  0  0
 11  3  1  0  0  0  0
 12  1  1  0  0  0  0
 14 17  1  0  0  0  0
 16 15  1  0  0  0  0
 17 15  2  0  0  0  0
 17 13  1  0  0  0  0
 18 19  1  0  0  0  0
 18 14  2  0  0  0  0
 19 16  2  0  0  0  0
 20  2  1  1  0  0  0
 20 27  1  0  0  0  0
 21 23  1  0  0  0  0
 22 25  1  0  0  0  0
 22 24  1  0  0  0  0
 23 20  1  0  0  0  0
 24 23  2  0  0  0  0
 25 21  2  0  0  0  0
 27 26  1  1  0  0  0
 27 28  1  0  0  0  0
 28 29  1  0  0  0  0
 29 31  1  0  0  0  0
 29 30  1  0  0  0  0
 31 30  1  0  0  0  0
 33 32  1  0  0  0  0
 34 33  1  0  0  0  0
 35 34  1  0  0  0  0
 36 37  1  0  0  0  0
 36 38  1  0  0  0  0
 37 39  1  0  0  0  0
 38 40  1  0  0  0  0
 39 40  1  0  0  0  0
 40 35  1  0  0  0  0
M  END
>  <MODEL>
5

>  <REMARK>
 VINA RESULT:      -6.6      1.975      6.900
  Name = 
  12 active torsions:
  status: ('A' for Active; 'I' for Inactive)
    1  A    between atoms: C_4  and  C_17
    2  A    between atoms: C_4  and  O_29
    3  A    between atoms: C_6  and  C_34
    4  A    between atoms: N_11  and  C_33
    5  A    between atoms: C_15  and  C_20
    6  A    between atoms: C_17  and  C_37
    7  A    between atoms: C_19  and  C_33
    8  A    between atoms: C_20  and  C_31
    9  A    between atoms: C_24  and  C_37
   10  A    between atoms: O_29  and  C_32
   11  A    between atoms: C_33  and  C_35
   12  A    between atoms: C_34  and  C_35
                            x       y       z     vdW  Elec       q    Type
                         _______ _______ _______ _____ _____    ______ ____

>  <TORSDO>
F 12

$$$$
=
 OpenBabel11072409303D

 40 45  0  0  1  0  0  0  0  0999 V2000
  192.4550  174.0490  145.2090 C   0  0  0  0  0  2  0  0  0  0  0  0
  189.9370  173.3180  140.6390 N   0  0  0  0  0  2  0  0  0  0  0  0
  192.0570  175.6090  142.7000 C   0  0  0  0  0  2  0  0  0  0  0  0
  190.3680  174.1760  141.7000 C   0  0  0  0  0  0  0  0  0  0  0  0
  190.9510  174.2950  145.2840 C   0  0  1  0  0  3  0  0  0  0  0  0
  190.1150  173.0270  145.0200 C   0  0  1  0  0  3  0  0  0  0  0  0
  193.2130  175.0580  143.2880 O   0  0  0  0  0  0  0  0  0  0  0  0
  189.3150  173.0650  143.7490 C   0  0  2  0  0  3  0  0  0  0  0  0
  190.5360  172.3700  143.8480 O   0  0  0  0  0  0  0  0  0  0  0  0
  189.4850  174.3460  142.9120 C   0  0  2  0  0  3  0  0  0  0  0  0
  191.5350  174.7500  141.6370 N   0  0  0  0  0  0  0  0  0  0  0  0
  192.8570  173.8560  143.8190 N   0  0  0  0  0  2  0  0  0  0  0  0
  190.5800  174.9170  146.6200 C   0  0  0  0  0  2  0  0  0  0  0  0
  188.2230  175.5850  147.1490 C   0  0  0  0  0  3  0  0  0  0  0  0
  189.4920  176.9130  145.5670 C   0  0  0  0  0  3  0  0  0  0  0  0
  188.3840  177.7440  145.3760 C   0  0  0  0  0  3  0  0  0  0  0  0
  189.4160  175.8350  146.4580 C   0  0  0  0  0  0  0  0  0  0  0  0
  187.1160  176.4170  146.9590 C   0  0  0  0  0  3  0  0  0  0  0  0
  187.1970  177.4970  146.0740 C   0  0  0  0  0  3  0  0  0  0  0  0
  190.7400  173.0610  139.4490 C   0  0  2  0  0  3  0  0  0  0  0  0
  190.6840  173.7710  137.0010 C   0  0  0  0  0  3  0  0  0  0  0  0
  188.5680  174.3780  136.8680 O   0  0  0  0  0  0  0  0  0  0  0  0
  190.0710  173.5970  138.2220 C   0  0  0  0  0  0  0  0  0  0  0  0
  188.7530  173.9830  138.1040 C   0  0  0  0  0  3  0  0  0  0  0  0
  189.6850  174.2680  136.1820 C   0  0  0  0  0  3  0  0  0  0  0  0
  190.4240  170.8360  140.3160 O   0  0  0  0  0  1  0  0  0  0  0  0
  191.0580  171.5690  139.3110 C   0  0  2  0  0  3  0  0  0  0  0  0
  192.5570  171.3200  139.3730 C   0  0  0  0  0  2  0  0  0  0  0  0
  193.3100  172.6260  139.5460 C   0  0  0  0  0  3  0  0  0  0  0  0
  194.4720  172.4060  140.4920 C   0  0  0  0  0  2  0  0  0  0  0  0
  194.7130  172.4670  139.0010 C   0  0  0  0  0  2  0  0  0  0  0  0
  188.1550  175.0260  142.6000 C   0  0  0  0  0  2  0  0  0  0  0  0
  188.3370  176.3660  141.9030 C   0  0  0  0  0  2  0  0  0  0  0  0
  187.0210  176.7940  141.2890 C   0  0  0  0  0  2  0  0  0  0  0  0
  186.0280  176.7920  142.2690 O   0  0  0  0  0  0  0  0  0  0  0  0
  185.3910  179.7900  143.8860 C   0  0  0  0  0  2  0  0  0  0  0  0
  184.2610  178.8270  144.1620 C   0  0  0  0  0  2  0  0  0  0  0  0
  186.3070  179.0620  142.9270 C   0  0  0  0  0  2  0  0  0  0  0  0
  184.0910  178.0420  142.8810 C   0  0  0  0  0  2  0  0  0  0  0  0
  185.4430  178.0560  142.1860 C   0  0  0  0  0  3  0  0  0  0  0  0
  1  5  1  0  0  0  0
  2  4  1  0  0  0  0
  3  7  1  0  0  0  0
  4 10  1  0  0  0  0
  5 13  1  1  0  0  0
  6  9  1  6  0  0  0
  6  5  1  0  0  0  0
  7 12  1  0  0  0  0
  8  9  1  6  0  0  0
  8  6  1  0  0  0  0
 10 32  1  6  0  0  0
 10  8  1  0  0  0  0
 11  4  2  0  0  0  0
 11  3  1  0  0  0  0
 12  1  1  0  0  0  0
 15 17  1  0  0  0  0
 16 15  2  0  0  0  0
 16 19  1  0  0  0  0
 17 13  1  0  0  0  0
 17 14  2  0  0  0  0
 18 14  1  0  0  0  0
 19 18  2  0  0  0  0
 20  2  1  1  0  0  0
 21 23  1  0  0  0  0
 22 24  1  0  0  0  0
 23 20  1  0  0  0  0
 24 23  2  0  0  0  0
 25 22  1  0  0  0  0
 25 21  2  0  0  0  0
 27 28  1  0  0  0  0
 27 20  1  0  0  0  0
 27 26  1  1  0  0  0
 28 29  1  0  0  0  0
 29 30  1  0  0  0  0
 31 29  1  0  0  0  0
 31 30  1  0  0  0  0
 33 32  1  0  0  0  0
 34 33  1  0  0  0  0
 34 35  1  0  0  0  0
 36 37  1  0  0  0  0
 38 36  1  0  0  0  0
 39 37  1  0  0  0  0
 40 35  1  0  0  0  0
 40 39  1  0  0  0  0
 40 38  1  0  0  0  0
M  END
>  <MODEL>
6

>  <REMARK>
 VINA RESULT:      -6.5      1.991      6.534
  Name = 
  12 active torsions:
  status: ('A' for Active; 'I' for Inactive)
    1  A    between atoms: C_4  and  C_17
    2  A    between atoms: C_4  and  O_29
    3  A    between atoms: C_6  and  C_34
    4  A    between atoms: N_11  and  C_33
    5  A    between atoms: C_15  and  C_20
    6  A    between atoms: C_17  and  C_37
    7  A    between atoms: C_19  and  C_33
    8  A    between atoms: C_20  and  C_31
    9  A    between atoms: C_24  and  C_37
   10  A    between atoms: O_29  and  C_32
   11  A    between atoms: C_33  and  C_35
   12  A    between atoms: C_34  and  C_35
                            x       y       z     vdW  Elec       q    Type
                         _______ _______ _______ _____ _____    ______ ____

>  <TORSDO>
F 12

$$$$
=
 OpenBabel11072409303D

 40 45  0  0  1  0  0  0  0  0999 V2000
  192.0370  175.3140  146.9900 C   0  0  0  0  0  2  0  0  0  0  0  0
  188.9720  176.4630  142.8600 N   0  0  0  0  0  2  0  0  0  0  0  0
  190.0160  173.8680  145.3440 C   0  0  0  0  0  2  0  0  0  0  0  0
  189.7800  175.5350  143.5920 C   0  0  0  0  0  0  0  0  0  0  0  0
  192.7630  175.2760  145.6480 C   0  0  1  0  0  3  0  0  0  0  0  0
  192.8300  176.6500  144.9550 C   0  0  1  0  0  3  0  0  0  0  0  0
  190.0230  174.2450  146.7020 O   0  0  0  0  0  0  0  0  0  0  0  0
  192.0320  176.7450  143.6860 C   0  0  2  0  0  3  0  0  0  0  0  0
  191.5640  177.2640  144.9080 O   0  0  0  0  0  0  0  0  0  0  0  0
  191.2600  175.4670  143.3080 C   0  0  2  0  0  3  0  0  0  0  0  0
  189.2450  174.8080  144.5310 N   0  0  0  0  0  0  0  0  0  0  0  0
  190.6020  175.4750  146.7720 N   0  0  0  0  0  2  0  0  0  0  0  0
  194.1550  174.6870  145.8150 C   0  0  0  0  0  2  0  0  0  0  0  0
  195.4420  173.0450  144.4260 C   0  0  0  0  0  3  0  0  0  0  0  0
  193.1470  172.5360  145.0180 C   0  0  0  0  0  3  0  0  0  0  0  0
  193.2250  171.3420  144.2960 C   0  0  0  0  0  3  0  0  0  0  0  0
  194.2570  173.3870  145.0900 C   0  0  0  0  0  0  0  0  0  0  0  0
  195.5210  171.8490  143.7060 C   0  0  0  0  0  3  0  0  0  0  0  0
  194.4130  170.9980  143.6420 C   0  0  0  0  0  3  0  0  0  0  0  0
  187.5420  176.6290  143.0950 C   0  0  2  0  0  3  0  0  0  0  0  0
  187.3020  176.8880  140.5700 C   0  0  0  0  0  3  0  0  0  0  0  0
  185.3720  177.9530  140.5150 O   0  0  0  0  0  0  0  0  0  0  0  0
  186.8420  177.0850  141.8530 C   0  0  0  0  0  0  0  0  0  0  0  0
  185.6370  177.7500  141.7830 C   0  0  0  0  0  3  0  0  0  0  0  0
  186.3330  177.4580  139.7650 C   0  0  0  0  0  3  0  0  0  0  0  0
  188.4880  178.0210  144.8180 O   0  0  0  0  0  1  0  0  0  0  0  0
  187.2830  177.5770  144.2690 C   0  0  2  0  0  3  0  0  0  0  0  0
  186.4550  176.8980  145.3490 C   0  0  0  0  0  2  0  0  0  0  0  0
  185.1670  177.6600  145.5960 C   0  0  0  0  0  3  0  0  0  0  0  0
  185.0450  177.9620  147.0750 C   0  0  0  0  0  2  0  0  0  0  0  0
  185.4980  179.0420  146.1170 C   0  0  0  0  0  2  0  0  0  0  0  0
  191.5820  174.9800  141.8970 C   0  0  0  0  0  2  0  0  0  0  0  0
  192.8690  174.1720  141.8410 C   0  0  0  0  0  2  0  0  0  0  0  0
  193.8900  174.9140  141.0040 C   0  0  0  0  0  2  0  0  0  0  0  0
  195.1490  174.3450  141.1950 O   0  0  0  0  0  0  0  0  0  0  0  0
  197.8490  175.8240  142.7850 C   0  0  0  0  0  2  0  0  0  0  0  0
  196.5700  176.3100  143.4240 C   0  0  0  0  0  2  0  0  0  0  0  0
  197.4090  174.9450  141.6350 C   0  0  0  0  0  2  0  0  0  0  0  0
  195.5800  176.4220  142.2860 C   0  0  0  0  0  2  0  0  0  0  0  0
  196.0280  175.4280  141.2270 C   0  0  0  0  0  3  0  0  0  0  0  0
  2  4  1  0  0  0  0
  3  7  1  0  0  0  0
  4 11  2  0  0  0  0
  5 13  1  1  0  0  0
  5  1  1  0  0  0  0
  6  9  1  1  0  0  0
  6  5  1  0  0  0  0
  7 12  1  0  0  0  0
  8  9  1  1  0  0  0
  8  6  1  0  0  0  0
 10 32  1  6  0  0  0
 10  4  1  0  0  0  0
 10  8  1  0  0  0  0
 11  3  1  0  0  0  0
 12  1  1  0  0  0  0
 14 17  1  0  0  0  0
 15 17  2  0  0  0  0
 16 15  1  0  0  0  0
 17 13  1  0  0  0  0
 18 14  2  0  0  0  0
 19 18  1  0  0  0  0
 19 16  2  0  0  0  0
 20  2  1  6  0  0  0
 20 27  1  0  0  0  0
 21 23  1  0  0  0  0
 22 24  1  0  0  0  0
 23 20  1  0  0  0  0
 24 23  2  0  0  0  0
 25 22  1  0  0  0  0
 25 21  2  0  0  0  0
 27 26  1  1  0  0  0
 27 28  1  0  0  0  0
 28 29  1  0  0  0  0
 29 31  1  0  0  0  0
 29 30  1  0  0  0  0
 31 30  1  0  0  0  0
 33 32  1  0  0  0  0
 34 35  1  0  0  0  0
 34 33  1  0  0  0  0
 35 40  1  0  0  0  0
 36 37  1  0  0  0  0
 38 36  1  0  0  0  0
 39 37  1  0  0  0  0
 40 38  1  0  0  0  0
 40 39  1  0  0  0  0
M  END
>  <MODEL>
7

>  <REMARK>
 VINA RESULT:      -6.5      2.577      6.792
  Name = 
  12 active torsions:
  status: ('A' for Active; 'I' for Inactive)
    1  A    between atoms: C_4  and  C_17
    2  A    between atoms: C_4  and  O_29
    3  A    between atoms: C_6  and  C_34
    4  A    between atoms: N_11  and  C_33
    5  A    between atoms: C_15  and  C_20
    6  A    between atoms: C_17  and  C_37
    7  A    between atoms: C_19  and  C_33
    8  A    between atoms: C_20  and  C_31
    9  A    between atoms: C_24  and  C_37
   10  A    between atoms: O_29  and  C_32
   11  A    between atoms: C_33  and  C_35
   12  A    between atoms: C_34  and  C_35
                            x       y       z     vdW  Elec       q    Type
                         _______ _______ _______ _____ _____    ______ ____

>  <TORSDO>
F 12

$$$$
=
 OpenBabel11072409303D

 40 45  0  0  1  0  0  0  0  0999 V2000
  191.6330  172.9160  144.5460 C   0  0  0  0  0  2  0  0  0  0  0  0
  189.3070  173.3020  139.8340 N   0  0  0  0  0  2  0  0  0  0  0  0
  191.3120  175.0350  142.4740 C   0  0  0  0  0  2  0  0  0  0  0  0
  189.6840  173.8800  141.0880 C   0  0  0  0  0  0  0  0  0  0  0  0
  190.1240  173.1300  144.6150 C   0  0  1  0  0  3  0  0  0  0  0  0
  189.3170  171.9600  144.0190 C   0  0  1  0  0  3  0  0  0  0  0  0
  192.4520  174.3630  142.9590 O   0  0  0  0  0  0  0  0  0  0  0  0
  188.5670  172.3010  142.7630 C   0  0  2  0  0  3  0  0  0  0  0  0
  189.7930  171.6080  142.7410 O   0  0  0  0  0  0  0  0  0  0  0  0
  188.7520  173.7480  142.2680 C   0  0  2  0  0  3  0  0  0  0  0  0
  190.8450  174.4570  141.2140 N   0  0  0  0  0  0  0  0  0  0  0  0
  192.0920  173.0660  143.1680 N   0  0  0  0  0  2  0  0  0  0  0  0
  189.6920  173.4090  146.0460 C   0  0  0  0  0  2  0  0  0  0  0  0
  189.1520  175.8080  145.5640 C   0  0  0  0  0  3  0  0  0  0  0  0
  190.6650  175.2890  147.3860 C   0  0  0  0  0  3  0  0  0  0  0  0
  190.8270  176.6540  147.6400 C   0  0  0  0  0  3  0  0  0  0  0  0
  189.8230  174.8630  146.3520 C   0  0  0  0  0  0  0  0  0  0  0  0
  189.3130  177.1730  145.8200 C   0  0  0  0  0  3  0  0  0  0  0  0
  190.1490  177.5960  146.8590 C   0  0  0  0  0  3  0  0  0  0  0  0
  190.1600  173.3440  138.6520 C   0  0  2  0  0  3  0  0  0  0  0  0
  190.0730  174.3680  136.3180 C   0  0  0  0  0  3  0  0  0  0  0  0
  187.9960  175.1070  136.3440 O   0  0  0  0  0  0  0  0  0  0  0  0
  189.4880  174.0730  137.5300 C   0  0  0  0  0  0  0  0  0  0  0  0
  188.1930  174.5450  137.5120 C   0  0  0  0  0  3  0  0  0  0  0  0
  189.0830  175.0240  135.6090 C   0  0  0  0  0  3  0  0  0  0  0  0
  189.5060  171.0540  138.2870 O   0  0  0  0  0  1  0  0  0  0  0  0
  190.5890  171.9350  138.2320 C   0  0  2  0  0  3  0  0  0  0  0  0
  191.7080  171.4160  139.1210 C   0  0  0  0  0  2  0  0  0  0  0  0
  191.3140  170.1000  139.7640 C   0  0  0  0  0  3  0  0  0  0  0  0
  192.4490  169.1100  139.6030 C   0  0  0  0  0  2  0  0  0  0  0  0
  192.2440  169.8150  140.9240 C   0  0  0  0  0  2  0  0  0  0  0  0
  187.4250  174.4780  142.0740 C   0  0  0  0  0  2  0  0  0  0  0  0
  187.5300  175.9630  142.3810 C   0  0  0  0  0  2  0  0  0  0  0  0
  186.3110  176.3990  143.1670 C   0  0  0  0  0  2  0  0  0  0  0  0
  186.5460  177.6530  143.7310 O   0  0  0  0  0  0  0  0  0  0  0  0
  185.5600  178.9270  146.7990 C   0  0  0  0  0  2  0  0  0  0  0  0
  186.0000  177.4930  146.9750 C   0  0  0  0  0  2  0  0  0  0  0  0
  185.6510  179.1900  145.3120 C   0  0  0  0  0  2  0  0  0  0  0  0
  185.5480  176.7860  145.7160 C   0  0  0  0  0  2  0  0  0  0  0  0
  185.4920  177.8440  144.6260 C   0  0  0  0  0  3  0  0  0  0  0  0
  1  5  1  0  0  0  0
  2  4  1  0  0  0  0
  3  7  1  0  0  0  0
  4 11  2  0  0  0  0
  4 10  1  0  0  0  0
  5 13  1  1  0  0  0
  6  9  1  6  0  0  0
  6  5  1  0  0  0  0
  7 12  1  0  0  0  0
  8  9  1  6  0  0  0
  8  6  1  0  0  0  0
 10 32  1  6  0  0  0
 10  8  1  0  0  0  0
 11  3  1  0  0  0  0
 12  1  1  0  0  0  0
 13 17  1  0  0  0  0
 14 18  2  0  0  0  0
 14 17  1  0  0  0  0
 15 16  1  0  0  0  0
 17 15  2  0  0  0  0
 18 19  1  0  0  0  0
 19 16  2  0  0  0  0
 20  2  1  1  0  0  0
 21 23  1  0  0  0  0
 22 24  1  0  0  0  0
 23 20  1  0  0  0  0
 24 23  2  0  0  0  0
 25 21  2  0  0  0  0
 25 22  1  0  0  0  0
 27 26  1  1  0  0  0
 27 20  1  0  0  0  0
 27 28  1  0  0  0  0
 28 29  1  0  0  0  0
 29 31  1  0  0  0  0
 30 29  1  0  0  0  0
 30 31  1  0  0  0  0
 32 33  1  0  0  0  0
 33 34  1  0  0  0  0
 34 35  1  0  0  0  0
 35 40  1  0  0  0  0
 36 37  1  0  0  0  0
 38 36  1  0  0  0  0
 39 37  1  0  0  0  0
 40 38  1  0  0  0  0
 40 39  1  0  0  0  0
M  END
>  <MODEL>
8

>  <REMARK>
 VINA RESULT:      -6.4      2.361      6.951
  Name = 
  12 active torsions:
  status: ('A' for Active; 'I' for Inactive)
    1  A    between atoms: C_4  and  C_17
    2  A    between atoms: C_4  and  O_29
    3  A    between atoms: C_6  and  C_34
    4  A    between atoms: N_11  and  C_33
    5  A    between atoms: C_15  and  C_20
    6  A    between atoms: C_17  and  C_37
    7  A    between atoms: C_19  and  C_33
    8  A    between atoms: C_20  and  C_31
    9  A    between atoms: C_24  and  C_37
   10  A    between atoms: O_29  and  C_32
   11  A    between atoms: C_33  and  C_35
   12  A    between atoms: C_34  and  C_35
                            x       y       z     vdW  Elec       q    Type
                         _______ _______ _______ _____ _____    ______ ____

>  <TORSDO>
F 12

$$$$
=
 OpenBabel11072409303D

 40 45  0  0  1  0  0  0  0  0999 V2000
  190.8900  175.4160  147.4250 C   0  0  0  0  0  2  0  0  0  0  0  0
  192.6940  174.0280  142.6720 N   0  0  0  0  0  2  0  0  0  0  0  0
  192.2550  176.7890  145.1580 C   0  0  0  0  0  2  0  0  0  0  0  0
  192.0770  174.9850  143.5400 C   0  0  0  0  0  0  0  0  0  0  0  0
  189.8060  175.3100  146.3570 C   0  0  1  0  0  3  0  0  0  0  0  0
  189.6260  173.8790  145.8150 C   0  0  1  0  0  3  0  0  0  0  0  0
  192.6650  176.5330  146.4820 O   0  0  0  0  0  0  0  0  0  0  0  0
  190.0270  173.7040  144.3780 C   0  0  2  0  0  3  0  0  0  0  0  0
  190.8600  173.3120  145.4440 O   0  0  0  0  0  0  0  0  0  0  0  0
  190.5760  174.9730  143.6990 C   0  0  2  0  0  3  0  0  0  0  0  0
  192.8140  175.8120  144.2250 N   0  0  0  0  0  0  0  0  0  0  0  0
  192.2080  175.2920  146.8080 N   0  0  0  0  0  2  0  0  0  0  0  0
  188.4880  175.8580  146.8820 C   0  0  0  0  0  2  0  0  0  0  0  0
  188.4710  177.5400  145.0240 C   0  0  0  0  0  3  0  0  0  0  0  0
  186.4000  176.4300  145.6210 C   0  0  0  0  0  3  0  0  0  0  0  0
  185.7220  177.1710  144.6490 C   0  0  0  0  0  3  0  0  0  0  0  0
  187.7760  176.6090  145.8070 C   0  0  0  0  0  0  0  0  0  0  0  0
  187.7930  178.2790  144.0500 C   0  0  0  0  0  3  0  0  0  0  0  0
  186.4200  178.0930  143.8610 C   0  0  0  0  0  3  0  0  0  0  0  0
  194.1380  173.9390  142.4890 C   0  0  2  0  0  3  0  0  0  0  0  0
  194.3600  175.2660  140.3230 C   0  0  0  0  0  3  0  0  0  0  0  0
  195.2450  173.7000  139.0490 O   0  0  0  0  0  0  0  0  0  0  0  0
  194.5080  174.1040  141.0470 C   0  0  0  0  0  0  0  0  0  0  0  0
  195.0640  173.1480  140.2250 C   0  0  0  0  0  3  0  0  0  0  0  0
  194.8420  174.9510  139.0650 C   0  0  0  0  0  3  0  0  0  0  0  0
  193.7210  171.9960  143.8500 O   0  0  0  0  0  1  0  0  0  0  0  0
  194.6860  172.6300  143.0640 C   0  0  2  0  0  3  0  0  0  0  0  0
  195.9330  172.8790  143.8990 C   0  0  0  0  0  2  0  0  0  0  0  0
  195.5700  173.0820  145.3570 C   0  0  0  0  0  3  0  0  0  0  0  0
  196.8200  173.4420  146.1340 C   0  0  0  0  0  2  0  0  0  0  0  0
  195.8380  174.5220  145.7400 C   0  0  0  0  0  2  0  0  0  0  0  0
  189.8300  175.3210  142.4130 C   0  0  0  0  0  2  0  0  0  0  0  0
  188.3790  174.8680  142.4430 C   0  0  0  0  0  2  0  0  0  0  0  0
  188.1780  173.7660  141.4240 C   0  0  0  0  0  2  0  0  0  0  0  0
  188.4620  174.2540  140.1490 O   0  0  0  0  0  0  0  0  0  0  0  0
  191.1950  172.1340  139.9390 C   0  0  0  0  0  2  0  0  0  0  0  0
  191.4410  173.3470  139.0740 C   0  0  0  0  0  2  0  0  0  0  0  0
  189.7930  172.3090  140.4800 C   0  0  0  0  0  2  0  0  0  0  0  0
  190.0880  173.6960  138.4950 C   0  0  0  0  0  2  0  0  0  0  0  0
  189.0520  173.1800  139.4800 C   0  0  0  0  0  3  0  0  0  0  0  0
  2  4  1  0  0  0  0
  3  7  1  0  0  0  0
  4 10  1  0  0  0  0
  4 11  2  0  0  0  0
  5 13  1  1  0  0  0
  5  1  1  0  0  0  0
  6  9  1  1  0  0  0
  6  5  1  0  0  0  0
  7 12  1  0  0  0  0
  8  9  1  1  0  0  0
  8  6  1  0  0  0  0
 10 32  1  6  0  0  0
 10  8  1  0  0  0  0
 11  3  1  0  0  0  0
 12  1  1  0  0  0  0
 14 17  1  0  0  0  0
 15 17  2  0  0  0  0
 16 15  1  0  0  0  0
 17 13  1  0  0  0  0
 18 14  2  0  0  0  0
 19 18  1  0  0  0  0
 19 16  2  0  0  0  0
 20  2  1  6  0  0  0
 20 27  1  0  0  0  0
 21 23  1  0  0  0  0
 22 25  1  0  0  0  0
 22 24  1  0  0  0  0
 23 20  1  0  0  0  0
 24 23  2  0  0  0  0
 25 21  2  0  0  0  0
 27 26  1  1  0  0  0
 27 28  1  0  0  0  0
 28 29  1  0  0  0  0
 29 31  1  0  0  0  0
 29 30  1  0  0  0  0
 31 30  1  0  0  0  0
 32 33  1  0  0  0  0
 34 33  1  0  0  0  0
 35 34  1  0  0  0  0
 36 38  1  0  0  0  0
 37 36  1  0  0  0  0
 39 37  1  0  0  0  0
 39 40  1  0  0  0  0
 40 35  1  0  0  0  0
 40 38  1  0  0  0  0
M  END
>  <MODEL>
9

>  <REMARK>
 VINA RESULT:      -6.4      2.346      7.041
  Name = 
  12 active torsions:
  status: ('A' for Active; 'I' for Inactive)
    1  A    between atoms: C_4  and  C_17
    2  A    between atoms: C_4  and  O_29
    3  A    between atoms: C_6  and  C_34
    4  A    between atoms: N_11  and  C_33
    5  A    between atoms: C_15  and  C_20
    6  A    between atoms: C_17  and  C_37
    7  A    between atoms: C_19  and  C_33
    8  A    between atoms: C_20  and  C_31
    9  A    between atoms: C_24  and  C_37
   10  A    between atoms: O_29  and  C_32
   11  A    between atoms: C_33  and  C_35
   12  A    between atoms: C_34  and  C_35
                            x       y       z     vdW  Elec       q    Type
                         _______ _______ _______ _____ _____    ______ ____

>  <TORSDO>
F 12

$$$$
