=
 OpenBabel11062419383D

 42 46  0  0  1  0  0  0  0  0999 V2000
  187.1700  177.0150  142.2800 C   0  0  0  0  0  0  0  0  0  0  0  0
  184.9850  178.2190  141.0100 N   0  0  0  0  0  0  0  0  0  0  0  0
  185.1310  178.4090  142.2830 C   0  0  0  0  0  0  0  0  0  0  0  0
  187.0470  176.9060  140.9490 C   0  0  0  0  0  3  0  0  0  0  0  0
  186.1300  177.8310  140.1900 C   0  0  0  0  0  2  0  0  0  0  0  0
  184.4420  178.2960  144.4900 N   0  0  0  0  0  2  0  0  0  0  0  0
  185.7730  177.6600  144.3850 C   0  0  2  0  0  0  0  0  0  0  0  0
  186.3620  178.0650  143.0140 C   0  0  1  0  0  3  0  0  0  0  0  0
  184.0470  178.5490  143.1630 N   0  0  0  0  0  2  0  0  0  0  0  0
  185.6180  176.2710  144.4690 O   0  0  0  0  0  1  0  0  0  0  0  0
  188.1130  176.2170  143.0060 N   0  0  0  0  0  2  0  0  0  0  0  0
  189.5630  176.3860  142.9400 C   0  0  0  0  0  2  0  0  0  0  0  0
  191.3900  175.2000  141.9310 O   0  0  0  0  0  1  0  0  0  0  0  0
  190.2560  175.0450  142.7350 C   0  0  2  0  0  3  0  0  0  0  0  0
  189.5210  173.5680  140.7340 C   0  0  0  0  0  2  0  0  0  0  0  0
  190.3630  171.7800  142.7850 C   0  0  2  0  0  3  0  0  0  0  0  0
  190.6940  172.7980  140.6300 O   0  0  0  0  0  0  0  0  0  0  0  0
  189.2750  174.0010  142.1920 C   0  0  1  0  0  3  0  0  0  0  0  0
  190.4360  171.5760  141.2720 C   0  0  0  0  0  2  0  0  0  0  0  0
  189.2390  172.7750  143.1030 C   0  0  0  0  0  2  0  0  0  0  0  0
  191.6390  172.2750  143.2740 N   0  0  0  0  0  2  0  0  0  0  0  0
  192.6160  171.2030  143.1490 C   0  0  2  0  0  3  0  0  0  0  0  0
  192.5290  170.3770  144.2660 O   0  0  0  0  0  1  0  0  0  0  0  0
  193.9550  171.7680  143.0710 N   0  0  0  0  0  2  0  0  0  0  0  0
  195.9330  173.4810  145.1890 C   0  0  0  0  0  0  0  0  0  0  0  0
  195.9890  174.4750  144.1410 C   0  0  0  0  0  0  0  0  0  0  0  0
  196.9330  173.3710  146.2850 C   0  0  0  0  0  1  0  0  0  0  0  0
  194.8910  172.6810  145.0970 C   0  0  0  0  0  3  0  0  0  0  0  0
  194.6370  174.3780  142.9910 S   0  0  0  0  0  0  0  0  0  0  0  0
  196.9030  175.3400  144.0480 O   0  0  0  0  0  0  0  0  0  0  0  0
  193.9860  172.9420  143.9310 C   0  0  1  0  0  3  0  0  0  0  0  0
  186.6900  178.1620  145.5000 C   0  0  0  0  0  2  0  0  0  0  0  0
  188.3170  176.3850  146.2690 N   0  0  0  0  0  2  0  0  0  0  0  0
  186.3300  176.7980  147.4200 O   0  0  0  0  0  0  0  0  0  0  0  0
  187.0770  177.0700  146.4450 C   0  0  0  0  0  0  0  0  0  0  0  0
  189.4910  174.2720  146.5000 C   0  0  0  0  0  2  0  0  0  0  0  0
  188.8030  175.4020  147.2320 C   0  0  1  0  0  3  0  0  0  0  0  0
  190.3310  175.2920  147.2370 C   0  0  2  0  0  3  0  0  0  0  0  0
  193.0870  175.2630  146.4920 O   0  0  0  0  0  0  0  0  0  0  0  0
  190.9540  176.2000  146.2780 N   0  0  0  0  0  2  0  0  0  0  0  0
  192.3370  176.1080  145.9320 C   0  0  0  0  0  0  0  0  0  0  0  0
  192.8770  176.9910  144.9570 N   0  0  0  0  0  1  0  0  0  0  0  0
  1 11  1  0  0  0  0
  2  3  2  0  0  0  0
  3  8  1  0  0  0  0
  3  9  1  0  0  0  0
  4  1  2  0  0  0  0
  5  4  1  0  0  0  0
  5  2  1  0  0  0  0
  7 10  1  1  0  0  0
  7  6  1  0  0  0  0
  7 32  1  0  0  0  0
  8  1  1  6  0  0  0
  8  7  1  0  0  0  0
  9  6  1  0  0  0  0
 12 11  1  0  0  0  0
 14 13  1  6  0  0  0
 14 12  1  0  0  0  0
 15 18  1  0  0  0  0
 16 20  1  0  0  0  0
 16 21  1  6  0  0  0
 17 15  1  0  0  0  0
 17 19  1  0  0  0  0
 18 14  1  1  0  0  0
 18 20  1  0  0  0  0
 19 16  1  0  0  0  0
 22 21  1  0  0  0  0
 22 23  1  1  0  0  0
 24 22  1  0  0  0  0
 25 27  1  0  0  0  0
 26 25  1  0  0  0  0
 28 25  2  0  0  0  0
 29 31  1  0  0  0  0
 29 26  1  0  0  0  0
 30 26  2  0  0  0  0
 31 24  1  6  0  0  0
 31 28  1  0  0  0  0
 32 35  1  0  0  0  0
 33 35  1  0  0  0  0
 35 34  2  0  0  0  0
 36 37  1  0  0  0  0
 36 38  1  0  0  0  0
 37 33  1  6  0  0  0
 37 38  1  0  0  0  0
 38 40  1  6  0  0  0
 41 40  1  0  0  0  0
 41 39  2  0  0  0  0
 42 41  1  0  0  0  0
M  END
>  <MODEL>
1

>  <REMARK>
 VINA RESULT:      -7.2      0.000      0.000
  Name = 
  12 active torsions:
  status: ('A' for Active; 'I' for Inactive)
    1  A    between atoms: N_1  and  C_33
    2  A    between atoms: C_3  and  N_4
    3  A    between atoms: N_4  and  C_9
    4  A    between atoms: C_9  and  C_29
    5  A    between atoms: C_11  and  N_25
    6  A    between atoms: C_13  and  N_25
    7  A    between atoms: C_13  and  N_39
    8  A    between atoms: C_15  and  C_29
    9  A    between atoms: N_16  and  C_42
   10  A    between atoms: C_24  and  C_32
   11  A    between atoms: C_32  and  C_36
   12  A    between atoms: N_39  and  C_40
                            x       y       z     vdW  Elec       q    Type
                         _______ _______ _______ _____ _____    ______ ____

>  <TORSDO>
F 12

$$$$
=
 OpenBabel11062419383D

 42 46  0  0  1  0  0  0  0  0999 V2000
  190.8640  177.0620  145.2900 C   0  0  0  0  0  0  0  0  0  0  0  0
  189.9620  177.9920  142.8080 N   0  0  0  0  0  0  0  0  0  0  0  0
  189.0970  177.4620  143.6130 C   0  0  0  0  0  0  0  0  0  0  0  0
  191.7240  177.6940  144.4770 C   0  0  0  0  0  3  0  0  0  0  0  0
  191.2150  178.5310  143.3310 C   0  0  0  0  0  2  0  0  0  0  0  0
  187.4840  175.9060  144.1940 N   0  0  0  0  0  2  0  0  0  0  0  0
  188.5260  175.9110  145.2430 C   0  0  2  0  0  0  0  0  0  0  0  0
  189.3770  177.1840  145.0320 C   0  0  1  0  0  3  0  0  0  0  0  0
  187.9910  176.7220  143.1650 N   0  0  0  0  0  2  0  0  0  0  0  0
  189.3100  174.7600  145.1080 O   0  0  0  0  0  1  0  0  0  0  0  0
  191.3230  176.3500  146.4460 N   0  0  0  0  0  2  0  0  0  0  0  0
  192.7280  176.1590  146.7950 C   0  0  0  0  0  2  0  0  0  0  0  0
  193.0440  173.8810  146.1060 O   0  0  0  0  0  1  0  0  0  0  0  0
  193.4040  175.2010  145.8210 C   0  0  2  0  0  3  0  0  0  0  0  0
  195.7590  174.1610  145.5150 C   0  0  0  0  0  2  0  0  0  0  0  0
  195.4200  176.0190  143.3830 C   0  0  2  0  0  3  0  0  0  0  0  0
  195.6110  173.7540  144.1760 O   0  0  0  0  0  0  0  0  0  0  0  0
  194.9200  175.4190  145.8040 C   0  0  1  0  0  3  0  0  0  0  0  0
  196.2400  174.7290  143.3840 C   0  0  0  0  0  2  0  0  0  0  0  0
  195.2900  176.5310  144.8240 C   0  0  0  0  0  2  0  0  0  0  0  0
  194.1080  175.7640  142.8100 N   0  0  0  0  0  2  0  0  0  0  0  0
  194.2990  175.1920  141.4860 C   0  0  2  0  0  3  0  0  0  0  0  0
  194.7030  176.1970  140.6110 O   0  0  0  0  0  1  0  0  0  0  0  0
  193.0470  174.6190  141.0140 N   0  0  0  0  0  2  0  0  0  0  0  0
  190.0330  173.4500  141.9540 C   0  0  0  0  0  0  0  0  0  0  0  0
  190.7510  172.2550  142.3380 C   0  0  0  0  0  0  0  0  0  0  0  0
  188.5700  173.4920  141.6870 C   0  0  0  0  0  1  0  0  0  0  0  0
  190.7980  174.5190  141.8780 C   0  0  0  0  0  3  0  0  0  0  0  0
  192.4850  172.5230  142.6200 S   0  0  0  0  0  0  0  0  0  0  0  0
  190.2030  171.1260  142.4710 O   0  0  0  0  0  0  0  0  0  0  0  0
  192.2470  174.2910  142.1850 C   0  0  1  0  0  3  0  0  0  0  0  0
  187.8820  175.9560  146.6290 C   0  0  0  0  0  2  0  0  0  0  0  0
  185.6920  177.0840  146.0580 N   0  0  0  0  0  2  0  0  0  0  0  0
  187.2010  178.0440  147.5560 O   0  0  0  0  0  0  0  0  0  0  0  0
  186.9280  177.0990  146.7700 C   0  0  0  0  0  0  0  0  0  0  0  0
  185.2130  179.4550  145.8290 C   0  0  0  0  0  2  0  0  0  0  0  0
  184.6710  178.1080  146.2560 C   0  0  1  0  0  3  0  0  0  0  0  0
  184.2160  178.7450  144.9390 C   0  0  2  0  0  3  0  0  0  0  0  0
  183.0880  178.4370  142.3340 O   0  0  0  0  0  0  0  0  0  0  0  0
  184.9060  178.1790  143.7830 N   0  0  0  0  0  2  0  0  0  0  0  0
  184.2860  178.0820  142.5000 C   0  0  0  0  0  0  0  0  0  0  0  0
  185.0250  177.5630  141.4010 N   0  0  0  0  0  1  0  0  0  0  0  0
  1 11  1  0  0  0  0
  2  5  1  0  0  0  0
  2  3  2  0  0  0  0
  4  1  2  0  0  0  0
  5  4  1  0  0  0  0
  6  7  1  0  0  0  0
  7 10  1  6  0  0  0
  7 32  1  0  0  0  0
  8  3  1  6  0  0  0
  8  7  1  0  0  0  0
  8  1  1  0  0  0  0
  9  3  1  0  0  0  0
  9  6  1  0  0  0  0
 11 12  1  0  0  0  0
 14 13  1  1  0  0  0
 14 12  1  0  0  0  0
 15 18  1  0  0  0  0
 16 21  1  1  0  0  0
 16 19  1  0  0  0  0
 16 20  1  0  0  0  0
 17 15  1  0  0  0  0
 18 14  1  6  0  0  0
 19 17  1  0  0  0  0
 20 18  1  0  0  0  0
 22 23  1  6  0  0  0
 22 21  1  0  0  0  0
 24 22  1  0  0  0  0
 25 26  1  0  0  0  0
 26 30  2  0  0  0  0
 26 29  1  0  0  0  0
 27 25  1  0  0  0  0
 28 25  2  0  0  0  0
 28 31  1  0  0  0  0
 31 24  1  6  0  0  0
 31 29  1  0  0  0  0
 32 35  1  0  0  0  0
 33 35  1  0  0  0  0
 35 34  2  0  0  0  0
 36 37  1  0  0  0  0
 37 33  1  6  0  0  0
 38 40  1  6  0  0  0
 38 36  1  0  0  0  0
 38 37  1  0  0  0  0
 39 41  2  0  0  0  0
 41 40  1  0  0  0  0
 42 41  1  0  0  0  0
M  END
>  <MODEL>
2

>  <REMARK>
 VINA RESULT:      -6.8      2.086      5.891
  Name = 
  12 active torsions:
  status: ('A' for Active; 'I' for Inactive)
    1  A    between atoms: N_1  and  C_33
    2  A    between atoms: C_3  and  N_4
    3  A    between atoms: N_4  and  C_9
    4  A    between atoms: C_9  and  C_29
    5  A    between atoms: C_11  and  N_25
    6  A    between atoms: C_13  and  N_25
    7  A    between atoms: C_13  and  N_39
    8  A    between atoms: C_15  and  C_29
    9  A    between atoms: N_16  and  C_42
   10  A    between atoms: C_24  and  C_32
   11  A    between atoms: C_32  and  C_36
   12  A    between atoms: N_39  and  C_40
                            x       y       z     vdW  Elec       q    Type
                         _______ _______ _______ _____ _____    ______ ____

>  <TORSDO>
F 12

$$$$
=
 OpenBabel11062419383D

 42 46  0  0  1  0  0  0  0  0999 V2000
  190.2870  174.8530  145.3930 C   0  0  0  0  0  0  0  0  0  0  0  0
  192.1650  175.8740  147.2000 N   0  0  0  0  0  0  0  0  0  0  0  0
  190.9290  176.2370  147.3340 C   0  0  0  0  0  0  0  0  0  0  0  0
  191.5560  174.4230  145.3280 C   0  0  0  0  0  3  0  0  0  0  0  0
  192.4940  174.6420  146.4880 C   0  0  0  0  0  2  0  0  0  0  0  0
  189.2240  177.8000  147.4290 N   0  0  0  0  0  2  0  0  0  0  0  0
  188.8630  176.7780  146.4230 C   0  0  2  0  0  0  0  0  0  0  0  0
  189.8130  175.5770  146.6350 C   0  0  1  0  0  3  0  0  0  0  0  0
  190.5520  177.5100  147.7920 N   0  0  0  0  0  2  0  0  0  0  0  0
  189.0290  177.3240  145.1450 O   0  0  0  0  0  1  0  0  0  0  0  0
  189.3510  174.5630  144.3470 N   0  0  0  0  0  2  0  0  0  0  0  0
  189.5190  173.4980  143.3600 C   0  0  0  0  0  2  0  0  0  0  0  0
  187.6710  174.4920  142.1940 O   0  0  0  0  0  1  0  0  0  0  0  0
  188.9280  173.9070  142.0160 C   0  0  2  0  0  3  0  0  0  0  0  0
  188.3630  173.0350  139.6400 C   0  0  0  0  0  2  0  0  0  0  0  0
  191.1880  172.8110  139.9260 C   0  0  2  0  0  3  0  0  0  0  0  0
  189.2610  173.8490  138.9250 O   0  0  0  0  0  0  0  0  0  0  0  0
  188.9070  172.7210  141.0470 C   0  0  1  0  0  3  0  0  0  0  0  0
  190.3890  173.0600  138.6460 C   0  0  0  0  0  2  0  0  0  0  0  0
  190.2940  172.0890  140.9420 C   0  0  0  0  0  2  0  0  0  0  0  0
  191.6570  174.0780  140.4650 N   0  0  0  0  0  2  0  0  0  0  0  0
  193.0850  173.9610  140.7130 C   0  0  2  0  0  3  0  0  0  0  0  0
  193.5510  172.7830  140.1340 O   0  0  0  0  0  1  0  0  0  0  0  0
  193.3300  173.9210  142.1470 N   0  0  0  0  0  2  0  0  0  0  0  0
  195.0270  175.8610  144.3130 C   0  0  0  0  0  0  0  0  0  0  0  0
  195.7270  174.6460  144.6660 C   0  0  0  0  0  0  0  0  0  0  0  0
  194.9610  177.0650  145.1840 C   0  0  0  0  0  1  0  0  0  0  0  0
  194.4600  175.8130  143.1250 C   0  0  0  0  0  3  0  0  0  0  0  0
  195.6570  173.3900  143.4090 S   0  0  0  0  0  0  0  0  0  0  0  0
  196.3400  174.4860  145.7570 O   0  0  0  0  0  0  0  0  0  0  0  0
  194.6350  174.5210  142.3860 C   0  0  1  0  0  3  0  0  0  0  0  0
  187.4180  176.3240  146.6250 C   0  0  0  0  0  2  0  0  0  0  0  0
  185.8400  177.4680  145.0140 N   0  0  0  0  0  2  0  0  0  0  0  0
  186.1070  178.2280  147.2040 O   0  0  0  0  0  0  0  0  0  0  0  0
  186.4370  177.4070  146.3080 C   0  0  0  0  0  0  0  0  0  0  0  0
  185.3990  179.6880  144.1320 C   0  0  0  0  0  2  0  0  0  0  0  0
  184.7850  178.4240  144.6920 C   0  0  1  0  0  3  0  0  0  0  0  0
  184.7050  178.7260  143.1920 C   0  0  2  0  0  3  0  0  0  0  0  0
  184.7700  178.5120  140.3450 O   0  0  0  0  0  0  0  0  0  0  0  0
  185.7030  177.9850  142.4240 N   0  0  0  0  0  2  0  0  0  0  0  0
  185.6880  177.9450  140.9970 C   0  0  0  0  0  0  0  0  0  0  0  0
  186.7130  177.2440  140.3030 N   0  0  0  0  0  1  0  0  0  0  0  0
  2  3  2  0  0  0  0
  3  9  1  0  0  0  0
  4  1  2  0  0  0  0
  4  5  1  0  0  0  0
  5  2  1  0  0  0  0
  6  9  1  0  0  0  0
  7 10  1  6  0  0  0
  7 32  1  0  0  0  0
  7  8  1  0  0  0  0
  7  6  1  0  0  0  0
  8  1  1  6  0  0  0
  8  3  1  0  0  0  0
 11  1  1  0  0  0  0
 12 11  1  0  0  0  0
 14 13  1  1  0  0  0
 14 12  1  0  0  0  0
 15 18  1  0  0  0  0
 16 21  1  1  0  0  0
 16 20  1  0  0  0  0
 17 15  1  0  0  0  0
 18 14  1  1  0  0  0
 19 17  1  0  0  0  0
 19 16  1  0  0  0  0
 20 18  1  0  0  0  0
 21 22  1  0  0  0  0
 22 23  1  6  0  0  0
 22 24  1  0  0  0  0
 25 26  1  0  0  0  0
 25 27  1  0  0  0  0
 26 30  2  0  0  0  0
 28 25  2  0  0  0  0
 29 26  1  0  0  0  0
 31 24  1  1  0  0  0
 31 28  1  0  0  0  0
 31 29  1  0  0  0  0
 33 35  1  0  0  0  0
 35 32  1  0  0  0  0
 35 34  2  0  0  0  0
 36 37  1  0  0  0  0
 37 33  1  6  0  0  0
 38 40  1  6  0  0  0
 38 36  1  0  0  0  0
 38 37  1  0  0  0  0
 39 41  2  0  0  0  0
 41 40  1  0  0  0  0
 42 41  1  0  0  0  0
M  END
>  <MODEL>
3

>  <REMARK>
 VINA RESULT:      -6.8      2.100      5.131
  Name = 
  12 active torsions:
  status: ('A' for Active; 'I' for Inactive)
    1  A    between atoms: N_1  and  C_33
    2  A    between atoms: C_3  and  N_4
    3  A    between atoms: N_4  and  C_9
    4  A    between atoms: C_9  and  C_29
    5  A    between atoms: C_11  and  N_25
    6  A    between atoms: C_13  and  N_25
    7  A    between atoms: C_13  and  N_39
    8  A    between atoms: C_15  and  C_29
    9  A    between atoms: N_16  and  C_42
   10  A    between atoms: C_24  and  C_32
   11  A    between atoms: C_32  and  C_36
   12  A    between atoms: N_39  and  C_40
                            x       y       z     vdW  Elec       q    Type
                         _______ _______ _______ _____ _____    ______ ____

>  <TORSDO>
F 12

$$$$
=
 OpenBabel11062419383D

 42 46  0  0  1  0  0  0  0  0999 V2000
  190.5290  176.7950  143.7220 C   0  0  0  0  0  0  0  0  0  0  0  0
  192.9300  176.5550  145.1430 N   0  0  0  0  0  0  0  0  0  0  0  0
  191.8250  176.2780  145.7600 C   0  0  0  0  0  0  0  0  0  0  0  0
  191.6910  176.9910  143.0810 C   0  0  0  0  0  3  0  0  0  0  0  0
  192.9860  176.5100  143.6850 C   0  0  0  0  0  2  0  0  0  0  0  0
  190.2600  176.5620  147.4420 N   0  0  0  0  0  2  0  0  0  0  0  0
  189.5650  176.6510  146.1400 C   0  0  2  0  0  0  0  0  0  0  0  0
  190.5360  176.1030  145.0690 C   0  0  1  0  0  3  0  0  0  0  0  0
  191.6310  176.5260  147.1280 N   0  0  0  0  0  2  0  0  0  0  0  0
  189.2480  177.9900  145.8850 O   0  0  0  0  0  1  0  0  0  0  0  0
  189.2790  177.1490  143.1180 N   0  0  0  0  0  2  0  0  0  0  0  0
  188.2470  176.1900  142.7310 C   0  0  0  0  0  2  0  0  0  0  0  0
  188.1420  175.3870  140.4710 O   0  0  0  0  0  1  0  0  0  0  0  0
  188.7830  175.2040  141.7000 C   0  0  2  0  0  3  0  0  0  0  0  0
  188.0880  172.7510  141.2270 C   0  0  0  0  0  2  0  0  0  0  0  0
  190.9160  172.7330  141.5630 C   0  0  2  0  0  3  0  0  0  0  0  0
  188.9740  172.5100  140.1600 O   0  0  0  0  0  0  0  0  0  0  0  0
  188.6860  173.7660  142.2190 C   0  0  1  0  0  3  0  0  0  0  0  0
  190.0670  171.8070  140.6920 C   0  0  0  0  0  2  0  0  0  0  0  0
  190.0500  173.2790  142.7060 C   0  0  0  0  0  2  0  0  0  0  0  0
  191.4420  173.8200  140.7530 N   0  0  0  0  0  2  0  0  0  0  0  0
  192.8700  173.9260  141.0130 C   0  0  2  0  0  3  0  0  0  0  0  0
  193.4420  174.7700  140.0650 O   0  0  0  0  0  1  0  0  0  0  0  0
  193.4830  172.6090  140.9180 N   0  0  0  0  0  2  0  0  0  0  0  0
  194.1240  172.5070  144.2220 C   0  0  0  0  0  0  0  0  0  0  0  0
  194.5240  171.1390  143.9790 C   0  0  0  0  0  0  0  0  0  0  0  0
  193.7370  173.0360  145.5570 C   0  0  0  0  0  1  0  0  0  0  0  0
  194.1500  173.2610  143.1410 C   0  0  0  0  0  3  0  0  0  0  0  0
  194.9600  170.8120  142.2860 S   0  0  0  0  0  0  0  0  0  0  0  0
  194.5710  170.2570  144.8790 O   0  0  0  0  0  0  0  0  0  0  0  0
  194.5700  172.5600  141.8840 C   0  0  1  0  0  3  0  0  0  0  0  0
  188.2960  175.7980  146.1570 C   0  0  0  0  0  2  0  0  0  0  0  0
  186.1910  176.9830  145.4090 N   0  0  0  0  0  2  0  0  0  0  0  0
  186.8150  176.9110  147.6560 O   0  0  0  0  0  0  0  0  0  0  0  0
  187.0770  176.6080  146.4630 C   0  0  0  0  0  0  0  0  0  0  0  0
  185.1150  179.1570  145.5380 C   0  0  0  0  0  2  0  0  0  0  0  0
  184.9250  177.6620  145.6660 C   0  0  1  0  0  3  0  0  0  0  0  0
  184.3990  178.4080  144.4350 C   0  0  2  0  0  3  0  0  0  0  0  0
  183.5440  178.0630  141.7330 O   0  0  0  0  0  0  0  0  0  0  0  0
  185.2840  178.2660  143.2820 N   0  0  0  0  0  2  0  0  0  0  0  0
  184.7840  178.1250  141.9520 C   0  0  0  0  0  0  0  0  0  0  0  0
  185.6970  178.0370  140.8640 N   0  0  0  0  0  1  0  0  0  0  0  0
  2  3  2  0  0  0  0
  3  9  1  0  0  0  0
  4  5  1  0  0  0  0
  4  1  2  0  0  0  0
  5  2  1  0  0  0  0
  7 10  1  6  0  0  0
  7 32  1  0  0  0  0
  7  6  1  0  0  0  0
  8  1  1  6  0  0  0
  8  3  1  0  0  0  0
  8  7  1  0  0  0  0
  9  6  1  0  0  0  0
 11  1  1  0  0  0  0
 12 11  1  0  0  0  0
 14 13  1  6  0  0  0
 14 12  1  0  0  0  0
 15 18  1  0  0  0  0
 16 21  1  6  0  0  0
 16 20  1  0  0  0  0
 17 19  1  0  0  0  0
 17 15  1  0  0  0  0
 18 14  1  6  0  0  0
 18 20  1  0  0  0  0
 19 16  1  0  0  0  0
 21 22  1  0  0  0  0
 22 23  1  6  0  0  0
 24 22  1  0  0  0  0
 25 27  1  0  0  0  0
 26 25  1  0  0  0  0
 26 30  2  0  0  0  0
 28 25  2  0  0  0  0
 29 26  1  0  0  0  0
 31 24  1  6  0  0  0
 31 29  1  0  0  0  0
 31 28  1  0  0  0  0
 32 35  1  0  0  0  0
 33 35  1  0  0  0  0
 35 34  2  0  0  0  0
 36 37  1  0  0  0  0
 37 33  1  6  0  0  0
 38 40  1  6  0  0  0
 38 36  1  0  0  0  0
 38 37  1  0  0  0  0
 39 41  2  0  0  0  0
 41 40  1  0  0  0  0
 42 41  1  0  0  0  0
M  END
>  <MODEL>
4

>  <REMARK>
 VINA RESULT:      -6.7      2.134      5.015
  Name = 
  12 active torsions:
  status: ('A' for Active; 'I' for Inactive)
    1  A    between atoms: N_1  and  C_33
    2  A    between atoms: C_3  and  N_4
    3  A    between atoms: N_4  and  C_9
    4  A    between atoms: C_9  and  C_29
    5  A    between atoms: C_11  and  N_25
    6  A    between atoms: C_13  and  N_25
    7  A    between atoms: C_13  and  N_39
    8  A    between atoms: C_15  and  C_29
    9  A    between atoms: N_16  and  C_42
   10  A    between atoms: C_24  and  C_32
   11  A    between atoms: C_32  and  C_36
   12  A    between atoms: N_39  and  C_40
                            x       y       z     vdW  Elec       q    Type
                         _______ _______ _______ _____ _____    ______ ____

>  <TORSDO>
F 12

$$$$
=
 OpenBabel11062419383D

 42 46  0  0  1  0  0  0  0  0999 V2000
  191.9460  175.7150  145.3280 C   0  0  0  0  0  0  0  0  0  0  0  0
  190.4260  175.7580  147.6790 N   0  0  0  0  0  0  0  0  0  0  0  0
  189.8450  176.0920  146.5710 C   0  0  0  0  0  0  0  0  0  0  0  0
  192.5010  175.2890  146.4730 C   0  0  0  0  0  3  0  0  0  0  0  0
  191.6340  174.9380  147.6550 C   0  0  0  0  0  2  0  0  0  0  0  0
  188.6930  177.5480  145.1890 N   0  0  0  0  0  2  0  0  0  0  0  0
  189.8970  177.0800  144.4710 C   0  0  2  0  0  0  0  0  0  0  0  0
  190.4410  175.8570  145.2440 C   0  0  1  0  0  3  0  0  0  0  0  0
  188.8320  177.0610  146.5020 N   0  0  0  0  0  2  0  0  0  0  0  0
  190.8410  178.1140  144.4480 O   0  0  0  0  0  1  0  0  0  0  0  0
  192.7420  175.9540  144.1610 N   0  0  0  0  0  2  0  0  0  0  0  0
  193.9940  176.7080  144.1550 C   0  0  0  0  0  2  0  0  0  0  0  0
  195.8080  175.4790  145.1350 O   0  0  0  0  0  1  0  0  0  0  0  0
  195.1830  175.7840  143.9220 C   0  0  2  0  0  3  0  0  0  0  0  0
  197.4870  175.6440  142.7410 C   0  0  0  0  0  2  0  0  0  0  0  0
  195.5240  175.1810  140.7300 C   0  0  2  0  0  3  0  0  0  0  0  0
  197.3090  174.3860  142.1350 O   0  0  0  0  0  0  0  0  0  0  0  0
  196.1410  176.3800  142.8860 C   0  0  1  0  0  3  0  0  0  0  0  0
  196.9480  174.6270  140.7990 C   0  0  0  0  0  2  0  0  0  0  0  0
  195.4570  176.4920  141.5250 C   0  0  0  0  0  2  0  0  0  0  0  0
  194.5920  174.2040  141.2700 N   0  0  0  0  0  2  0  0  0  0  0  0
  193.5440  173.9890  140.2840 C   0  0  2  0  0  3  0  0  0  0  0  0
  193.7940  174.7910  139.1730 O   0  0  0  0  0  1  0  0  0  0  0  0
  192.2540  174.3490  140.8560 N   0  0  0  0  0  2  0  0  0  0  0  0
  190.0420  172.7430  142.8210 C   0  0  0  0  0  0  0  0  0  0  0  0
  189.0770  173.0700  141.7960 C   0  0  0  0  0  0  0  0  0  0  0  0
  189.6820  172.3940  144.2220 C   0  0  0  0  0  1  0  0  0  0  0  0
  191.2880  172.7630  142.3940 C   0  0  0  0  0  3  0  0  0  0  0  0
  189.8060  173.4120  140.2110 S   0  0  0  0  0  0  0  0  0  0  0  0
  187.8320  173.1040  141.9960 O   0  0  0  0  0  0  0  0  0  0  0  0
  191.4630  173.1310  140.9520 C   0  0  1  0  0  3  0  0  0  0  0  0
  189.5350  176.6600  143.0470 C   0  0  0  0  0  2  0  0  0  0  0  0
  187.1650  177.4980  142.7810 N   0  0  0  0  0  2  0  0  0  0  0  0
  188.9380  178.4710  141.6170 O   0  0  0  0  0  0  0  0  0  0  0  0
  188.5430  177.5860  142.4210 C   0  0  0  0  0  0  0  0  0  0  0  0
  184.7830  177.9400  142.5890 C   0  0  0  0  0  2  0  0  0  0  0  0
  186.1750  178.4570  142.2990 C   0  0  1  0  0  3  0  0  0  0  0  0
  185.3440  179.0630  143.4350 C   0  0  2  0  0  3  0  0  0  0  0  0
  183.6860  179.0390  145.7590 O   0  0  0  0  0  0  0  0  0  0  0  0
  185.7340  178.5450  144.7430 N   0  0  0  0  0  2  0  0  0  0  0  0
  184.8390  178.5400  145.8570 C   0  0  0  0  0  0  0  0  0  0  0  0
  185.2620  177.9800  147.0940 N   0  0  0  0  0  1  0  0  0  0  0  0
  1  4  2  0  0  0  0
  3  2  2  0  0  0  0
  4  5  1  0  0  0  0
  5  2  1  0  0  0  0
  6  9  1  0  0  0  0
  7 10  1  6  0  0  0
  7  6  1  0  0  0  0
  7  8  1  0  0  0  0
  8  1  1  1  0  0  0
  8  3  1  0  0  0  0
  9  3  1  0  0  0  0
 11  1  1  0  0  0  0
 12 11  1  0  0  0  0
 14 12  1  0  0  0  0
 14 13  1  1  0  0  0
 15 18  1  0  0  0  0
 16 19  1  0  0  0  0
 16 21  1  1  0  0  0
 16 20  1  0  0  0  0
 17 15  1  0  0  0  0
 18 14  1  1  0  0  0
 19 17  1  0  0  0  0
 20 18  1  0  0  0  0
 22 23  1  6  0  0  0
 22 24  1  0  0  0  0
 22 21  1  0  0  0  0
 25 27  1  0  0  0  0
 26 30  2  0  0  0  0
 26 25  1  0  0  0  0
 28 25  2  0  0  0  0
 29 31  1  0  0  0  0
 29 26  1  0  0  0  0
 31 24  1  1  0  0  0
 31 28  1  0  0  0  0
 32  7  1  0  0  0  0
 34 35  2  0  0  0  0
 35 33  1  0  0  0  0
 35 32  1  0  0  0  0
 36 38  1  0  0  0  0
 37 36  1  0  0  0  0
 37 33  1  1  0  0  0
 37 38  1  0  0  0  0
 38 40  1  1  0  0  0
 39 41  2  0  0  0  0
 40 41  1  0  0  0  0
 41 42  1  0  0  0  0
M  END
>  <MODEL>
5

>  <REMARK>
 VINA RESULT:      -6.6      2.529      6.510
  Name = 
  12 active torsions:
  status: ('A' for Active; 'I' for Inactive)
    1  A    between atoms: N_1  and  C_33
    2  A    between atoms: C_3  and  N_4
    3  A    between atoms: N_4  and  C_9
    4  A    between atoms: C_9  and  C_29
    5  A    between atoms: C_11  and  N_25
    6  A    between atoms: C_13  and  N_25
    7  A    between atoms: C_13  and  N_39
    8  A    between atoms: C_15  and  C_29
    9  A    between atoms: N_16  and  C_42
   10  A    between atoms: C_24  and  C_32
   11  A    between atoms: C_32  and  C_36
   12  A    between atoms: N_39  and  C_40
                            x       y       z     vdW  Elec       q    Type
                         _______ _______ _______ _____ _____    ______ ____

>  <TORSDO>
F 12

$$$$
=
 OpenBabel11062419383D

 42 46  0  0  1  0  0  0  0  0999 V2000
  189.7460  174.3480  144.9270 C   0  0  0  0  0  0  0  0  0  0  0  0
  189.0140  175.9840  147.0780 N   0  0  0  0  0  0  0  0  0  0  0  0
  188.9810  176.4920  145.8860 C   0  0  0  0  0  0  0  0  0  0  0  0
  189.6880  173.8210  146.1590 C   0  0  0  0  0  3  0  0  0  0  0  0
  188.9480  174.5370  147.2600 C   0  0  0  0  0  2  0  0  0  0  0  0
  189.6010  178.0230  144.2650 N   0  0  0  0  0  2  0  0  0  0  0  0
  189.8260  176.6630  143.7310 C   0  0  2  0  0  0  0  0  0  0  0  0
  189.0780  175.6810  144.6610 C   0  0  1  0  0  3  0  0  0  0  0  0
  189.2750  177.8380  145.6220 N   0  0  0  0  0  2  0  0  0  0  0  0
  191.2000  176.3980  143.7290 O   0  0  0  0  0  1  0  0  0  0  0  0
  190.3520  173.6350  143.8420 N   0  0  0  0  0  2  0  0  0  0  0  0
  189.6100  172.9620  142.7790 C   0  0  0  0  0  2  0  0  0  0  0  0
  190.1220  173.7710  140.5770 O   0  0  0  0  0  1  0  0  0  0  0  0
  190.4710  172.8100  141.5300 C   0  0  2  0  0  3  0  0  0  0  0  0
  191.2590  171.1050  139.7420 C   0  0  0  0  0  2  0  0  0  0  0  0
  192.2560  170.1670  142.2400 C   0  0  2  0  0  3  0  0  0  0  0  0
  192.6290  171.1210  140.0620 O   0  0  0  0  0  0  0  0  0  0  0  0
  190.4000  171.3770  140.9910 C   0  0  1  0  0  3  0  0  0  0  0  0
  192.8740  169.9860  140.8530 C   0  0  0  0  0  2  0  0  0  0  0  0
  190.7430  170.3730  142.0910 C   0  0  0  0  0  2  0  0  0  0  0  0
  192.8670  171.3080  142.9020 N   0  0  0  0  0  2  0  0  0  0  0  0
  193.9840  170.8220  143.6980 C   0  0  2  0  0  3  0  0  0  0  0  0
  193.5050  169.9350  144.6590 O   0  0  0  0  0  1  0  0  0  0  0  0
  194.6370  171.9410  144.3600 N   0  0  0  0  0  2  0  0  0  0  0  0
  194.0170  175.1080  145.3210 C   0  0  0  0  0  0  0  0  0  0  0  0
  194.8940  175.4810  144.2350 C   0  0  0  0  0  0  0  0  0  0  0  0
  193.6960  175.9930  146.4730 C   0  0  0  0  0  1  0  0  0  0  0  0
  193.5050  173.9020  145.1900 C   0  0  0  0  0  3  0  0  0  0  0  0
  195.0600  174.2260  142.9860 S   0  0  0  0  0  0  0  0  0  0  0  0
  195.4840  176.5950  144.1660 O   0  0  0  0  0  0  0  0  0  0  0  0
  193.9360  173.1540  143.9650 C   0  0  1  0  0  3  0  0  0  0  0  0
  189.2610  176.5510  142.3150 C   0  0  0  0  0  2  0  0  0  0  0  0
  186.9710  177.5810  142.6130 N   0  0  0  0  0  2  0  0  0  0  0  0
  188.5990  178.5950  141.2830 O   0  0  0  0  0  0  0  0  0  0  0  0
  188.2670  177.6270  142.0180 C   0  0  0  0  0  0  0  0  0  0  0  0
  184.6310  178.1860  142.8560 C   0  0  0  0  0  2  0  0  0  0  0  0
  186.0090  178.6680  142.4600 C   0  0  1  0  0  3  0  0  0  0  0  0
  185.3910  179.0970  143.7950 C   0  0  2  0  0  3  0  0  0  0  0  0
  184.0110  178.6300  146.2500 O   0  0  0  0  0  0  0  0  0  0  0  0
  185.9090  178.3220  144.9190 N   0  0  0  0  0  2  0  0  0  0  0  0
  185.1490  178.1070  146.1090 C   0  0  0  0  0  0  0  0  0  0  0  0
  185.6900  177.3040  147.1510 N   0  0  0  0  0  1  0  0  0  0  0  0
  1  4  2  0  0  0  0
  2  5  1  0  0  0  0
  3  2  2  0  0  0  0
  4  5  1  0  0  0  0
  6  9  1  0  0  0  0
  7 10  1  6  0  0  0
  7  6  1  0  0  0  0
  7  8  1  0  0  0  0
  8  1  1  1  0  0  0
  8  3  1  0  0  0  0
  9  3  1  0  0  0  0
 11  1  1  0  0  0  0
 12 11  1  0  0  0  0
 14 13  1  6  0  0  0
 14 12  1  0  0  0  0
 15 17  1  0  0  0  0
 15 18  1  0  0  0  0
 16 21  1  6  0  0  0
 17 19  1  0  0  0  0
 18 14  1  1  0  0  0
 18 20  1  0  0  0  0
 19 16  1  0  0  0  0
 20 16  1  0  0  0  0
 21 22  1  0  0  0  0
 22 24  1  0  0  0  0
 22 23  1  1  0  0  0
 25 27  1  0  0  0  0
 26 25  1  0  0  0  0
 28 25  2  0  0  0  0
 29 31  1  0  0  0  0
 29 26  1  0  0  0  0
 30 26  2  0  0  0  0
 31 24  1  1  0  0  0
 31 28  1  0  0  0  0
 32  7  1  0  0  0  0
 34 35  2  0  0  0  0
 35 32  1  0  0  0  0
 35 33  1  0  0  0  0
 36 38  1  0  0  0  0
 37 33  1  1  0  0  0
 37 36  1  0  0  0  0
 37 38  1  0  0  0  0
 38 40  1  1  0  0  0
 40 41  1  0  0  0  0
 41 39  2  0  0  0  0
 41 42  1  0  0  0  0
M  END
>  <MODEL>
6

>  <REMARK>
 VINA RESULT:      -6.6      1.879      4.787
  Name = 
  12 active torsions:
  status: ('A' for Active; 'I' for Inactive)
    1  A    between atoms: N_1  and  C_33
    2  A    between atoms: C_3  and  N_4
    3  A    between atoms: N_4  and  C_9
    4  A    between atoms: C_9  and  C_29
    5  A    between atoms: C_11  and  N_25
    6  A    between atoms: C_13  and  N_25
    7  A    between atoms: C_13  and  N_39
    8  A    between atoms: C_15  and  C_29
    9  A    between atoms: N_16  and  C_42
   10  A    between atoms: C_24  and  C_32
   11  A    between atoms: C_32  and  C_36
   12  A    between atoms: N_39  and  C_40
                            x       y       z     vdW  Elec       q    Type
                         _______ _______ _______ _____ _____    ______ ____

>  <TORSDO>
F 12

$$$$
=
 OpenBabel11062419383D

 42 46  0  0  1  0  0  0  0  0999 V2000
  191.3140  176.4820  144.0260 C   0  0  0  0  0  0  0  0  0  0  0  0
  193.4350  176.5910  145.8510 N   0  0  0  0  0  0  0  0  0  0  0  0
  192.2480  176.3500  146.3090 C   0  0  0  0  0  0  0  0  0  0  0  0
  192.5640  176.6430  143.5660 C   0  0  0  0  0  3  0  0  0  0  0  0
  193.7470  176.3310  144.4480 C   0  0  0  0  0  2  0  0  0  0  0  0
  190.4060  176.7960  147.6370 N   0  0  0  0  0  2  0  0  0  0  0  0
  189.9470  176.6500  146.2390 C   0  0  2  0  0  0  0  0  0  0  0  0
  191.1050  176.0020  145.4470 C   0  0  1  0  0  3  0  0  0  0  0  0
  191.8110  176.7900  147.5680 N   0  0  0  0  0  2  0  0  0  0  0  0
  189.6420  177.9160  145.7270 O   0  0  0  0  0  1  0  0  0  0  0  0
  190.1790  176.6720  143.1720 N   0  0  0  0  0  2  0  0  0  0  0  0
  189.3340  175.5920  142.6690 C   0  0  0  0  0  2  0  0  0  0  0  0
  190.3480  174.3480  140.8840 O   0  0  0  0  0  1  0  0  0  0  0  0
  190.1760  174.3860  142.2710 C   0  0  2  0  0  3  0  0  0  0  0  0
  189.7650  171.8450  141.9540 C   0  0  0  0  0  2  0  0  0  0  0  0
  191.4700  172.1050  144.2200 C   0  0  2  0  0  3  0  0  0  0  0  0
  191.1120  171.4400  141.9350 O   0  0  0  0  0  0  0  0  0  0  0  0
  189.5780  173.0930  142.8370 C   0  0  1  0  0  3  0  0  0  0  0  0
  191.4070  170.9520  143.2190 C   0  0  0  0  0  2  0  0  0  0  0  0
  190.1150  172.8250  144.2420 C   0  0  0  0  0  2  0  0  0  0  0  0
  192.5330  173.0230  143.8420 N   0  0  0  0  0  2  0  0  0  0  0  0
  193.7690  172.5560  144.4510 C   0  0  2  0  0  3  0  0  0  0  0  0
  193.8160  172.9930  145.7720 O   0  0  0  0  0  1  0  0  0  0  0  0
  194.9070  173.0990  143.7240 N   0  0  0  0  0  2  0  0  0  0  0  0
  195.9910  174.2010  140.7330 C   0  0  0  0  0  0  0  0  0  0  0  0
  196.0580  172.8010  140.3770 C   0  0  0  0  0  0  0  0  0  0  0  0
  196.7370  175.2760  140.0250 C   0  0  0  0  0  1  0  0  0  0  0  0
  195.1820  174.4460  141.7430 C   0  0  0  0  0  3  0  0  0  0  0  0
  195.0310  171.7570  141.3850 S   0  0  0  0  0  0  0  0  0  0  0  0
  196.7710  172.3540  139.4360 O   0  0  0  0  0  0  0  0  0  0  0  0
  194.5100  173.2420  142.3310 C   0  0  1  0  0  3  0  0  0  0  0  0
  188.7200  175.7410  146.1770 C   0  0  0  0  0  2  0  0  0  0  0  0
  186.7940  176.8110  144.9350 N   0  0  0  0  0  2  0  0  0  0  0  0
  186.9220  176.8650  147.2650 O   0  0  0  0  0  0  0  0  0  0  0  0
  187.4430  176.5180  146.1720 C   0  0  0  0  0  0  0  0  0  0  0  0
  185.6450  178.8980  144.4610 C   0  0  0  0  0  2  0  0  0  0  0  0
  185.4840  177.4530  144.8800 C   0  0  1  0  0  3  0  0  0  0  0  0
  185.1070  177.8950  143.4620 C   0  0  2  0  0  3  0  0  0  0  0  0
  184.9090  178.3120  140.6450 O   0  0  0  0  0  0  0  0  0  0  0  0
  186.1440  177.5690  142.4870 N   0  0  0  0  0  2  0  0  0  0  0  0
  185.9850  177.8320  141.0920 C   0  0  0  0  0  0  0  0  0  0  0  0
  187.0500  177.5340  140.1960 N   0  0  0  0  0  1  0  0  0  0  0  0
  2  3  2  0  0  0  0
  3  9  1  0  0  0  0
  4  1  2  0  0  0  0
  4  5  1  0  0  0  0
  5  2  1  0  0  0  0
  7 10  1  6  0  0  0
  7  6  1  0  0  0  0
  8  1  1  6  0  0  0
  8  7  1  0  0  0  0
  8  3  1  0  0  0  0
  9  6  1  0  0  0  0
 11  1  1  0  0  0  0
 12 11  1  0  0  0  0
 14 13  1  6  0  0  0
 14 12  1  0  0  0  0
 15 18  1  0  0  0  0
 16 21  1  6  0  0  0
 16 20  1  0  0  0  0
 17 15  1  0  0  0  0
 17 19  1  0  0  0  0
 18 14  1  6  0  0  0
 18 20  1  0  0  0  0
 19 16  1  0  0  0  0
 21 22  1  0  0  0  0
 22 23  1  1  0  0  0
 24 22  1  0  0  0  0
 25 28  2  0  0  0  0
 26 25  1  0  0  0  0
 26 29  1  0  0  0  0
 27 25  1  0  0  0  0
 28 31  1  0  0  0  0
 29 31  1  0  0  0  0
 30 26  2  0  0  0  0
 31 24  1  1  0  0  0
 32  7  1  0  0  0  0
 33 35  1  0  0  0  0
 35 32  1  0  0  0  0
 35 34  2  0  0  0  0
 36 37  1  0  0  0  0
 37 33  1  6  0  0  0
 38 40  1  6  0  0  0
 38 36  1  0  0  0  0
 38 37  1  0  0  0  0
 39 41  2  0  0  0  0
 41 40  1  0  0  0  0
 42 41  1  0  0  0  0
M  END
>  <MODEL>
7

>  <REMARK>
 VINA RESULT:      -6.6      2.225      5.107
  Name = 
  12 active torsions:
  status: ('A' for Active; 'I' for Inactive)
    1  A    between atoms: N_1  and  C_33
    2  A    between atoms: C_3  and  N_4
    3  A    between atoms: N_4  and  C_9
    4  A    between atoms: C_9  and  C_29
    5  A    between atoms: C_11  and  N_25
    6  A    between atoms: C_13  and  N_25
    7  A    between atoms: C_13  and  N_39
    8  A    between atoms: C_15  and  C_29
    9  A    between atoms: N_16  and  C_42
   10  A    between atoms: C_24  and  C_32
   11  A    between atoms: C_32  and  C_36
   12  A    between atoms: N_39  and  C_40
                            x       y       z     vdW  Elec       q    Type
                         _______ _______ _______ _____ _____    ______ ____

>  <TORSDO>
F 12

$$$$
=
 OpenBabel11062419383D

 42 46  0  0  1  0  0  0  0  0999 V2000
  190.9650  173.7060  140.9040 C   0  0  0  0  0  0  0  0  0  0  0  0
  188.9010  171.9190  140.2860 N   0  0  0  0  0  0  0  0  0  0  0  0
  188.5820  173.0700  140.7870 C   0  0  0  0  0  0  0  0  0  0  0  0
  191.2650  172.5450  140.3030 C   0  0  0  0  0  3  0  0  0  0  0  0
  190.1880  171.7410  139.6190 C   0  0  0  0  0  2  0  0  0  0  0  0
  187.6120  174.4440  142.3770 N   0  0  0  0  0  2  0  0  0  0  0  0
  189.0200  174.8580  142.2010 C   0  0  2  0  0  0  0  0  0  0  0  0
  189.5310  174.1900  140.9040 C   0  0  1  0  0  3  0  0  0  0  0  0
  187.4810  173.2540  141.6380 N   0  0  0  0  0  2  0  0  0  0  0  0
  189.7610  174.4270  143.3080 O   0  0  0  0  0  1  0  0  0  0  0  0
  191.9890  174.5350  141.4670 N   0  0  0  0  0  2  0  0  0  0  0  0
  193.3730  174.1150  141.6720 C   0  0  0  0  0  2  0  0  0  0  0  0
  194.0190  175.3580  139.7230 O   0  0  0  0  0  1  0  0  0  0  0  0
  194.3420  175.1210  141.0630 C   0  0  2  0  0  3  0  0  0  0  0  0
  196.8590  175.7200  140.9010 C   0  0  0  0  0  2  0  0  0  0  0  0
  196.3080  175.3150  143.6650 C   0  0  2  0  0  3  0  0  0  0  0  0
  196.8600  176.7740  141.8330 O   0  0  0  0  0  0  0  0  0  0  0  0
  195.7920  174.6690  141.2590 C   0  0  1  0  0  3  0  0  0  0  0  0
  197.3460  176.2470  143.0400 C   0  0  0  0  0  2  0  0  0  0  0  0
  196.0100  174.1700  142.6870 C   0  0  0  0  0  2  0  0  0  0  0  0
  195.0970  176.0620  143.9650 N   0  0  0  0  0  2  0  0  0  0  0  0
  195.1340  176.4330  145.3710 C   0  0  2  0  0  3  0  0  0  0  0  0
  195.2650  175.2800  146.1410 O   0  0  0  0  0  1  0  0  0  0  0  0
  193.8980  177.1120  145.7310 N   0  0  0  0  0  2  0  0  0  0  0  0
  190.7820  175.9640  146.2890 C   0  0  0  0  0  0  0  0  0  0  0  0
  190.3650  177.0120  145.3860 C   0  0  0  0  0  0  0  0  0  0  0  0
  189.8820  175.3070  147.2740 C   0  0  0  0  0  1  0  0  0  0  0  0
  192.0470  175.6240  146.1480 C   0  0  0  0  0  3  0  0  0  0  0  0
  191.6550  177.5790  144.3030 S   0  0  0  0  0  0  0  0  0  0  0  0
  189.1930  177.4810  145.3560 O   0  0  0  0  0  0  0  0  0  0  0  0
  192.8020  176.3890  145.1030 C   0  0  1  0  0  3  0  0  0  0  0  0
  189.1110  176.3770  142.0590 C   0  0  0  0  0  2  0  0  0  0  0  0
  187.1420  177.8600  142.6220 N   0  0  0  0  0  2  0  0  0  0  0  0
  187.2980  176.7730  140.5630 O   0  0  0  0  0  0  0  0  0  0  0  0
  187.7960  176.9900  141.6990 C   0  0  0  0  0  0  0  0  0  0  0  0
  184.7310  177.9100  142.9180 C   0  0  0  0  0  2  0  0  0  0  0  0
  185.9230  178.5840  142.2730 C   0  0  1  0  0  3  0  0  0  0  0  0
  185.2440  179.2120  143.4950 C   0  0  2  0  0  3  0  0  0  0  0  0
  184.0760  179.0330  146.0940 O   0  0  0  0  0  0  0  0  0  0  0  0
  185.9750  178.9470  144.7310 N   0  0  0  0  0  2  0  0  0  0  0  0
  185.3180  178.8430  145.9950 C   0  0  0  0  0  0  0  0  0  0  0  0
  186.0790  178.5370  147.1580 N   0  0  0  0  0  1  0  0  0  0  0  0
  1 11  1  0  0  0  0
  2  3  2  0  0  0  0
  3  9  1  0  0  0  0
  4  1  2  0  0  0  0
  5  2  1  0  0  0  0
  5  4  1  0  0  0  0
  7  6  1  0  0  0  0
  7 10  1  1  0  0  0
  8  3  1  1  0  0  0
  8  1  1  0  0  0  0
  8  7  1  0  0  0  0
  9  6  1  0  0  0  0
 11 12  1  0  0  0  0
 14 13  1  6  0  0  0
 14 12  1  0  0  0  0
 15 18  1  0  0  0  0
 15 17  1  0  0  0  0
 16 21  1  6  0  0  0
 17 19  1  0  0  0  0
 18 14  1  1  0  0  0
 18 20  1  0  0  0  0
 19 16  1  0  0  0  0
 20 16  1  0  0  0  0
 21 22  1  0  0  0  0
 22 24  1  0  0  0  0
 22 23  1  1  0  0  0
 25 27  1  0  0  0  0
 26 25  1  0  0  0  0
 28 25  2  0  0  0  0
 29 31  1  0  0  0  0
 29 26  1  0  0  0  0
 30 26  2  0  0  0  0
 31 24  1  1  0  0  0
 31 28  1  0  0  0  0
 32  7  1  0  0  0  0
 34 35  2  0  0  0  0
 35 32  1  0  0  0  0
 35 33  1  0  0  0  0
 36 38  1  0  0  0  0
 37 33  1  1  0  0  0
 37 36  1  0  0  0  0
 37 38  1  0  0  0  0
 38 40  1  1  0  0  0
 40 41  1  0  0  0  0
 41 39  2  0  0  0  0
 41 42  1  0  0  0  0
M  END
>  <MODEL>
8

>  <REMARK>
 VINA RESULT:      -6.6      2.448      6.252
  Name = 
  12 active torsions:
  status: ('A' for Active; 'I' for Inactive)
    1  A    between atoms: N_1  and  C_33
    2  A    between atoms: C_3  and  N_4
    3  A    between atoms: N_4  and  C_9
    4  A    between atoms: C_9  and  C_29
    5  A    between atoms: C_11  and  N_25
    6  A    between atoms: C_13  and  N_25
    7  A    between atoms: C_13  and  N_39
    8  A    between atoms: C_15  and  C_29
    9  A    between atoms: N_16  and  C_42
   10  A    between atoms: C_24  and  C_32
   11  A    between atoms: C_32  and  C_36
   12  A    between atoms: N_39  and  C_40
                            x       y       z     vdW  Elec       q    Type
                         _______ _______ _______ _____ _____    ______ ____

>  <TORSDO>
F 12

$$$$
=
 OpenBabel11062419383D

 42 46  0  0  1  0  0  0  0  0999 V2000
  194.0260  172.1570  144.2000 C   0  0  0  0  0  0  0  0  0  0  0  0
  196.4350  170.7340  144.3150 N   0  0  0  0  0  0  0  0  0  0  0  0
  196.3760  171.8840  144.9080 C   0  0  0  0  0  0  0  0  0  0  0  0
  194.0840  170.9260  143.6690 C   0  0  0  0  0  3  0  0  0  0  0  0
  195.2100  169.9910  144.0340 C   0  0  0  0  0  2  0  0  0  0  0  0
  197.0520  174.0680  145.2730 N   0  0  0  0  0  2  0  0  0  0  0  0
  195.5940  174.0670  145.0300 C   0  0  2  0  0  0  0  0  0  0  0  0
  195.1140  172.6030  145.1540 C   0  0  1  0  0  3  0  0  0  0  0  0
  197.4750  172.7540  144.9990 N   0  0  0  0  0  2  0  0  0  0  0  0
  195.3490  174.5630  143.7440 O   0  0  0  0  0  1  0  0  0  0  0  0
  192.9110  173.0210  143.9490 N   0  0  0  0  0  2  0  0  0  0  0  0
  191.6790  173.0290  144.7350 C   0  0  0  0  0  2  0  0  0  0  0  0
  189.6810  171.8300  144.1600 O   0  0  0  0  0  1  0  0  0  0  0  0
  190.4580  172.9430  143.8280 C   0  0  2  0  0  3  0  0  0  0  0  0
  190.3190  171.8090  141.5000 C   0  0  0  0  0  2  0  0  0  0  0  0
  189.0490  174.3440  141.2340 C   0  0  2  0  0  3  0  0  0  0  0  0
  188.9310  171.9420  141.3110 O   0  0  0  0  0  0  0  0  0  0  0  0
  190.8710  172.9660  142.3530 C   0  0  1  0  0  3  0  0  0  0  0  0
  188.7410  173.0540  140.4740 C   0  0  0  0  0  2  0  0  0  0  0  0
  190.5060  174.3060  141.7150 C   0  0  0  0  0  2  0  0  0  0  0  0
  188.1400  174.4780  142.3610 N   0  0  0  0  0  2  0  0  0  0  0  0
  187.3750  175.7020  142.1790 C   0  0  2  0  0  3  0  0  0  0  0  0
  187.9010  176.4100  141.1010 O   0  0  0  0  0  1  0  0  0  0  0  0
  187.4640  176.5180  143.3800 N   0  0  0  0  0  2  0  0  0  0  0  0
  185.7500  178.5500  145.4460 C   0  0  0  0  0  0  0  0  0  0  0  0
  185.5530  179.3750  144.2750 C   0  0  0  0  0  0  0  0  0  0  0  0
  185.6230  179.0460  146.8430 C   0  0  0  0  0  1  0  0  0  0  0  0
  186.0380  177.2970  145.1620 C   0  0  0  0  0  3  0  0  0  0  0  0
  185.7400  178.4950  142.7420 S   0  0  0  0  0  0  0  0  0  0  0  0
  185.2660  180.6020  144.3270 O   0  0  0  0  0  0  0  0  0  0  0  0
  186.1200  176.9750  143.7000 C   0  0  1  0  0  3  0  0  0  0  0  0
  194.8820  174.9240  146.0750 C   0  0  0  0  0  2  0  0  0  0  0  0
  192.9660  176.2250  145.0580 N   0  0  0  0  0  2  0  0  0  0  0  0
  195.0490  177.2110  145.4250 O   0  0  0  0  0  0  0  0  0  0  0  0
  194.3260  176.1820  145.4890 C   0  0  0  0  0  0  0  0  0  0  0  0
  191.3930  177.1520  143.4570 C   0  0  0  0  0  2  0  0  0  0  0  0
  192.3370  177.4590  144.5980 C   0  0  1  0  0  3  0  0  0  0  0  0
  190.8220  177.4640  144.8230 C   0  0  2  0  0  3  0  0  0  0  0  0
  189.0150  177.3260  147.0290 O   0  0  0  0  0  0  0  0  0  0  0  0
  190.3510  176.2330  145.4520 N   0  0  0  0  0  2  0  0  0  0  0  0
  189.4230  176.2400  146.5370 C   0  0  0  0  0  0  0  0  0  0  0  0
  188.9670  175.0060  147.0780 N   0  0  0  0  0  1  0  0  0  0  0  0
  2  3  2  0  0  0  0
  3  9  1  0  0  0  0
  3  8  1  0  0  0  0
  4  5  1  0  0  0  0
  4  1  2  0  0  0  0
  5  2  1  0  0  0  0
  7 10  1  6  0  0  0
  7  8  1  0  0  0  0
  7  6  1  0  0  0  0
  7 32  1  0  0  0  0
  8  1  1  6  0  0  0
  9  6  1  0  0  0  0
 11  1  1  0  0  0  0
 11 12  1  0  0  0  0
 14 13  1  1  0  0  0
 14 12  1  0  0  0  0
 15 18  1  0  0  0  0
 16 20  1  0  0  0  0
 16 21  1  1  0  0  0
 17 15  1  0  0  0  0
 18 14  1  1  0  0  0
 19 16  1  0  0  0  0
 19 17  1  0  0  0  0
 20 18  1  0  0  0  0
 22 23  1  6  0  0  0
 22 21  1  0  0  0  0
 22 24  1  0  0  0  0
 25 27  1  0  0  0  0
 26 30  2  0  0  0  0
 26 25  1  0  0  0  0
 28 25  2  0  0  0  0
 29 31  1  0  0  0  0
 29 26  1  0  0  0  0
 31 24  1  1  0  0  0
 31 28  1  0  0  0  0
 33 35  1  0  0  0  0
 34 35  2  0  0  0  0
 35 32  1  0  0  0  0
 36 37  1  0  0  0  0
 36 38  1  0  0  0  0
 37 38  1  0  0  0  0
 37 33  1  1  0  0  0
 38 40  1  1  0  0  0
 40 41  1  0  0  0  0
 41 39  2  0  0  0  0
 41 42  1  0  0  0  0
M  END
>  <MODEL>
9

>  <REMARK>
 VINA RESULT:      -6.5      2.597      8.354
  Name = 
  12 active torsions:
  status: ('A' for Active; 'I' for Inactive)
    1  A    between atoms: N_1  and  C_33
    2  A    between atoms: C_3  and  N_4
    3  A    between atoms: N_4  and  C_9
    4  A    between atoms: C_9  and  C_29
    5  A    between atoms: C_11  and  N_25
    6  A    between atoms: C_13  and  N_25
    7  A    between atoms: C_13  and  N_39
    8  A    between atoms: C_15  and  C_29
    9  A    between atoms: N_16  and  C_42
   10  A    between atoms: C_24  and  C_32
   11  A    between atoms: C_32  and  C_36
   12  A    between atoms: N_39  and  C_40
                            x       y       z     vdW  Elec       q    Type
                         _______ _______ _______ _____ _____    ______ ____

>  <TORSDO>
F 12

$$$$
