=
 OpenBabel11062421113D

 33 36  0  0  1  0  0  0  0  0999 V2000
  192.7530  173.7710  145.1570 C   0  0  0  0  0  3  0  0  0  0  0  0
  193.2140  176.1420  145.2550 C   0  0  0  0  0  3  0  0  0  0  0  0
  191.8430  176.4070  145.2340 C   0  0  0  0  0  3  0  0  0  0  0  0
  191.3780  174.0270  145.1140 C   0  0  0  0  0  0  0  0  0  0  0  0
  190.9110  175.3580  145.1750 C   0  0  0  0  0  0  0  0  0  0  0  0
  193.6690  174.8230  145.2250 C   0  0  0  0  0  3  0  0  0  0  0  0
  188.2400  174.3620  138.9790 C   0  0  0  0  0  0  0  0  0  0  0  0
  188.8170  172.9920  141.7380 C   0  0  2  0  0  3  0  0  0  0  0  0
  190.3830  171.2420  141.7990 C   0  0  0  0  0  0  0  0  0  0  0  0
  191.3920  170.5410  142.1990 N   0  0  0  0  0  2  0  0  0  0  0  0
  189.5970  172.1150  142.6580 C   0  0  0  0  0  0  0  0  0  0  0  0
  190.0090  172.5100  143.8330 C   0  0  0  0  0  0  0  0  0  0  0  0
  187.3470  172.6250  141.8420 C   0  0  0  0  0  1  0  0  0  0  0  0
  188.0290  175.1180  139.9680 O   0  0  0  0  0  0  0  0  0  0  0  0
  188.9580  173.1340  139.1410 N   0  0  0  0  0  2  0  0  0  0  0  0
  189.3410  172.5530  140.3930 C   0  0  0  0  0  0  0  0  0  0  0  0
  190.4680  172.8830  144.9970 C   0  0  0  0  0  3  0  0  0  0  0  0
  190.1930  171.5810  140.4380 N   0  0  0  0  0  0  0  0  0  0  0  0
  187.7930  174.7360  137.6750 N   0  0  0  0  0  0  0  0  0  0  0  0
  187.0160  175.7500  137.4750 C   0  0  0  0  0  3  0  0  0  0  0  0
  186.5790  176.0920  136.0970 C   0  0  0  0  0  1  0  0  0  0  0  0
  189.5030  175.6290  145.2450 N   0  0  0  0  0  2  0  0  0  0  0  0
  188.7640  174.7500  147.4070 O   0  0  0  0  0  1  0  0  0  0  0  0
  188.7620  175.8050  146.4930 C   0  0  1  0  0  0  0  0  0  0  0  0
  188.7750  177.1940  147.0780 C   0  0  0  0  0  2  0  0  0  0  0  0
  187.4850  176.6270  146.4710 C   0  0  1  0  0  3  0  0  0  0  0  0
  186.5270  178.6250  145.3520 C   0  0  0  0  0  2  0  0  0  0  0  0
  184.0760  178.8840  145.0620 C   0  0  0  0  0  1  0  0  0  0  0  0
  185.4060  177.4450  143.5340 C   0  0  0  0  0  2  0  0  0  0  0  0
  185.4010  178.7280  144.3420 C   0  0  2  0  0  0  0  0  0  0  0  0
  185.6110  179.8200  143.5010 O   0  0  0  0  0  1  0  0  0  0  0  0
  186.2250  176.4520  144.3310 C   0  0  0  0  0  2  0  0  0  0  0  0
  187.2050  177.2860  145.1290 C   0  0  2  0  0  3  0  0  0  0  0  0
  1  6  1  0  0  0  0
  3  2  1  0  0  0  0
  4  1  2  0  0  0  0
  4  5  1  0  0  0  0
  5  3  2  0  0  0  0
  5 22  1  0  0  0  0
  6  2  2  0  0  0  0
  7 15  1  0  0  0  0
  7 14  2  0  0  0  0
  8 13  1  6  0  0  0
  8 11  1  0  0  0  0
  9 10  2  0  0  0  0
  9 11  1  0  0  0  0
 11 12  2  0  0  0  0
 12 17  2  0  0  0  0
 15 16  1  0  0  0  0
 16 18  2  0  0  0  0
 16  8  1  0  0  0  0
 17  4  1  0  0  0  0
 18  9  1  0  0  0  0
 19  7  1  0  0  0  0
 20 19  2  0  0  0  0
 21 20  1  0  0  0  0
 22 24  1  0  0  0  0
 24 25  1  0  0  0  0
 24 23  1  1  0  0  0
 26 24  1  0  0  0  0
 26 25  1  1  0  0  0
 29 32  1  0  0  0  0
 29 30  1  0  0  0  0
 30 28  1  1  0  0  0
 30 27  1  0  0  0  0
 31 30  1  0  0  0  0
 33 32  1  6  0  0  0
 33 27  1  0  0  0  0
 33 26  1  0  0  0  0
M  END
>  <MODEL>
1

>  <REMARK>
 VINA RESULT:      -8.1      0.000      0.000
  Name = 
  5 active torsions:
  status: ('A' for Active; 'I' for Inactive)
    1  A    between atoms: C_1  and  N_3
    2  A    between atoms: C_10  and  N_28
    3  A    between atoms: C_22  and  C_31
    4  A    between atoms: C_24  and  N_28
    5  A    between atoms: C_25  and  C_29
                            x       y       z     vdW  Elec       q    Type
                         _______ _______ _______ _____ _____    ______ ____

>  <TORSDO>
F 5

$$$$
=
 OpenBabel11062421113D

 33 36  0  0  1  0  0  0  0  0999 V2000
  186.4250  177.9790  144.9940 C   0  0  0  0  0  3  0  0  0  0  0  0
  185.9830  176.8860  147.1040 C   0  0  0  0  0  3  0  0  0  0  0  0
  187.2970  176.4170  147.1340 C   0  0  0  0  0  3  0  0  0  0  0  0
  187.7380  177.4960  145.0040 C   0  0  0  0  0  0  0  0  0  0  0  0
  188.1920  176.7230  146.0950 C   0  0  0  0  0  0  0  0  0  0  0  0
  185.5480  177.6750  146.0370 C   0  0  0  0  0  3  0  0  0  0  0  0
  190.1840  171.5830  142.4260 C   0  0  0  0  0  0  0  0  0  0  0  0
  189.8790  174.7010  142.4280 C   0  0  2  0  0  3  0  0  0  0  0  0
  188.2800  175.6580  140.9960 C   0  0  0  0  0  0  0  0  0  0  0  0
  187.3020  176.4110  140.6130 N   0  0  0  0  0  2  0  0  0  0  0  0
  189.1810  175.9770  142.0930 C   0  0  0  0  0  0  0  0  0  0  0  0
  188.9130  176.8920  142.9870 C   0  0  0  0  0  0  0  0  0  0  0  0
  191.3400  174.8260  142.0350 C   0  0  0  0  0  1  0  0  0  0  0  0
  190.5240  172.1190  143.5160 O   0  0  0  0  0  0  0  0  0  0  0  0
  189.4540  172.3260  141.4450 N   0  0  0  0  0  2  0  0  0  0  0  0
  189.1960  173.7350  141.4910 C   0  0  0  0  0  0  0  0  0  0  0  0
  188.5970  177.8110  143.8580 C   0  0  0  0  0  3  0  0  0  0  0  0
  188.3270  174.2750  140.7000 N   0  0  0  0  0  0  0  0  0  0  0  0
  190.4940  170.2120  142.1660 N   0  0  0  0  0  0  0  0  0  0  0  0
  190.9040  169.8040  141.0090 C   0  0  0  0  0  3  0  0  0  0  0  0
  191.2090  168.3660  140.7930 C   0  0  0  0  0  1  0  0  0  0  0  0
  189.5660  176.3160  146.1730 N   0  0  0  0  0  2  0  0  0  0  0  0
  190.1540  177.8120  148.0200 O   0  0  0  0  0  1  0  0  0  0  0  0
  190.4710  176.6840  147.2610 C   0  0  1  0  0  0  0  0  0  0  0  0
  191.1100  175.5390  148.0050 C   0  0  0  0  0  2  0  0  0  0  0  0
  191.9580  176.4300  147.0880 C   0  0  1  0  0  3  0  0  0  0  0  0
  193.2650  174.5510  146.1270 C   0  0  0  0  0  2  0  0  0  0  0  0
  195.6980  174.7710  145.6850 C   0  0  0  0  0  1  0  0  0  0  0  0
  194.0160  175.7050  144.1120 C   0  0  0  0  0  2  0  0  0  0  0  0
  194.3360  174.5600  145.0530 C   0  0  2  0  0  0  0  0  0  0  0  0
  194.3230  173.3540  144.3550 O   0  0  0  0  0  1  0  0  0  0  0  0
  193.0440  176.5980  144.8540 C   0  0  0  0  0  2  0  0  0  0  0  0
  192.3060  175.6830  145.8090 C   0  0  2  0  0  3  0  0  0  0  0  0
  1  4  2  0  0  0  0
  1  6  1  0  0  0  0
  2  3  1  0  0  0  0
  4  5  1  0  0  0  0
  5 22  1  0  0  0  0
  5  3  2  0  0  0  0
  6  2  2  0  0  0  0
  7 14  2  0  0  0  0
  8 13  1  6  0  0  0
  9 11  1  0  0  0  0
 10  9  2  0  0  0  0
 11  8  1  0  0  0  0
 11 12  2  0  0  0  0
 12 17  2  0  0  0  0
 15 16  1  0  0  0  0
 15  7  1  0  0  0  0
 16  8  1  0  0  0  0
 17  4  1  0  0  0  0
 18  9  1  0  0  0  0
 18 16  2  0  0  0  0
 19  7  1  0  0  0  0
 20 19  2  0  0  0  0
 21 20  1  0  0  0  0
 22 24  1  0  0  0  0
 24 25  1  0  0  0  0
 24 23  1  1  0  0  0
 26 24  1  0  0  0  0
 26 25  1  1  0  0  0
 29 32  1  0  0  0  0
 29 30  1  0  0  0  0
 30 28  1  1  0  0  0
 30 27  1  0  0  0  0
 31 30  1  0  0  0  0
 33 32  1  6  0  0  0
 33 27  1  0  0  0  0
 33 26  1  0  0  0  0
M  END
>  <MODEL>
2

>  <REMARK>
 VINA RESULT:      -8.1      2.448      6.358
  Name = 
  5 active torsions:
  status: ('A' for Active; 'I' for Inactive)
    1  A    between atoms: C_1  and  N_3
    2  A    between atoms: C_10  and  N_28
    3  A    between atoms: C_22  and  C_31
    4  A    between atoms: C_24  and  N_28
    5  A    between atoms: C_25  and  C_29
                            x       y       z     vdW  Elec       q    Type
                         _______ _______ _______ _____ _____    ______ ____

>  <TORSDO>
F 5

$$$$
=
 OpenBabel11062421113D

 33 36  0  0  1  0  0  0  0  0999 V2000
  191.8930  174.6590  141.5660 C   0  0  0  0  0  3  0  0  0  0  0  0
  189.6600  173.7880  141.2570 C   0  0  0  0  0  3  0  0  0  0  0  0
  189.1860  174.6590  142.2400 C   0  0  0  0  0  3  0  0  0  0  0  0
  191.4320  175.5210  142.5680 C   0  0  0  0  0  0  0  0  0  0  0  0
  190.0590  175.5410  142.8980 C   0  0  0  0  0  0  0  0  0  0  0  0
  191.0130  173.7940  140.9130 C   0  0  0  0  0  3  0  0  0  0  0  0
  196.2700  171.4720  145.3580 C   0  0  0  0  0  0  0  0  0  0  0  0
  195.0250  174.2720  144.7030 C   0  0  2  0  0  3  0  0  0  0  0  0
  195.8650  175.4520  142.8520 C   0  0  0  0  0  0  0  0  0  0  0  0
  195.8600  176.1380  141.7580 N   0  0  0  0  0  2  0  0  0  0  0  0
  194.7880  175.4590  143.8310 C   0  0  0  0  0  0  0  0  0  0  0  0
  193.5920  175.9140  143.5650 C   0  0  0  0  0  0  0  0  0  0  0  0
  195.4260  174.7540  146.0860 C   0  0  0  0  0  1  0  0  0  0  0  0
  195.0800  171.5970  145.7580 O   0  0  0  0  0  0  0  0  0  0  0  0
  196.8340  172.4160  144.4410 N   0  0  0  0  0  2  0  0  0  0  0  0
  196.2220  173.6450  144.0310 C   0  0  0  0  0  0  0  0  0  0  0  0
  192.4120  176.3740  143.2480 C   0  0  0  0  0  3  0  0  0  0  0  0
  196.6830  174.3100  143.0220 N   0  0  0  0  0  0  0  0  0  0  0  0
  197.0670  170.3670  145.7900 N   0  0  0  0  0  0  0  0  0  0  0  0
  196.7320  169.6270  146.7970 C   0  0  0  0  0  3  0  0  0  0  0  0
  197.6000  168.4910  147.2050 C   0  0  0  0  0  1  0  0  0  0  0  0
  189.5550  176.4970  143.8420 N   0  0  0  0  0  2  0  0  0  0  0  0
  189.4800  174.9230  145.7150 O   0  0  0  0  0  1  0  0  0  0  0  0
  189.1010  176.1590  145.1900 C   0  0  1  0  0  0  0  0  0  0  0  0
  189.0260  177.3040  146.1680 C   0  0  0  0  0  2  0  0  0  0  0  0
  187.7390  176.6540  145.6450 C   0  0  1  0  0  3  0  0  0  0  0  0
  186.3720  178.7100  145.3820 C   0  0  0  0  0  2  0  0  0  0  0  0
  183.9220  178.6830  145.7790 C   0  0  0  0  0  1  0  0  0  0  0  0
  184.8860  177.8640  143.6400 C   0  0  0  0  0  2  0  0  0  0  0  0
  185.0080  178.8960  144.7440 C   0  0  2  0  0  0  0  0  0  0  0  0
  184.9030  180.1790  144.2080 O   0  0  0  0  0  1  0  0  0  0  0  0
  185.9600  176.8320  143.9120 C   0  0  0  0  0  2  0  0  0  0  0  0
  187.0580  177.5750  144.6430 C   0  0  2  0  0  3  0  0  0  0  0  0
  1  4  1  0  0  0  0
  2  3  2  0  0  0  0
  3  5  1  0  0  0  0
  4  5  2  0  0  0  0
  4 17  1  0  0  0  0
  5 22  1  0  0  0  0
  6  2  1  0  0  0  0
  6  1  2  0  0  0  0
  7 14  2  0  0  0  0
  7 19  1  0  0  0  0
  8 13  1  1  0  0  0
  9 18  1  0  0  0  0
  9 11  1  0  0  0  0
 10  9  2  0  0  0  0
 11  8  1  0  0  0  0
 12 11  2  0  0  0  0
 15  7  1  0  0  0  0
 16 15  1  0  0  0  0
 16  8  1  0  0  0  0
 17 12  2  0  0  0  0
 18 16  2  0  0  0  0
 19 20  2  0  0  0  0
 20 21  1  0  0  0  0
 22 24  1  0  0  0  0
 24 26  1  0  0  0  0
 24 23  1  1  0  0  0
 24 25  1  0  0  0  0
 26 25  1  1  0  0  0
 29 32  1  0  0  0  0
 29 30  1  0  0  0  0
 30 27  1  0  0  0  0
 30 28  1  1  0  0  0
 31 30  1  0  0  0  0
 33 32  1  1  0  0  0
 33 27  1  0  0  0  0
 33 26  1  0  0  0  0
M  END
>  <MODEL>
3

>  <REMARK>
 VINA RESULT:      -7.7      3.585      6.859
  Name = 
  5 active torsions:
  status: ('A' for Active; 'I' for Inactive)
    1  A    between atoms: C_1  and  N_3
    2  A    between atoms: C_10  and  N_28
    3  A    between atoms: C_22  and  C_31
    4  A    between atoms: C_24  and  N_28
    5  A    between atoms: C_25  and  C_29
                            x       y       z     vdW  Elec       q    Type
                         _______ _______ _______ _____ _____    ______ ____

>  <TORSDO>
F 5

$$$$
=
 OpenBabel11062421113D

 33 36  0  0  1  0  0  0  0  0999 V2000
  188.7450  175.1940  143.2460 C   0  0  0  0  0  3  0  0  0  0  0  0
  190.1930  173.3320  142.7120 C   0  0  0  0  0  3  0  0  0  0  0  0
  191.1510  173.8250  143.5990 C   0  0  0  0  0  3  0  0  0  0  0  0
  189.7090  175.7070  144.1220 C   0  0  0  0  0  0  0  0  0  0  0  0
  190.9190  175.0080  144.3210 C   0  0  0  0  0  0  0  0  0  0  0  0
  188.9850  174.0120  142.5410 C   0  0  0  0  0  3  0  0  0  0  0  0
  183.8540  178.2670  141.5220 C   0  0  0  0  0  0  0  0  0  0  0  0
  186.2940  178.3460  143.4860 C   0  0  2  0  0  3  0  0  0  0  0  0
  185.9790  177.5550  145.6750 C   0  0  0  0  0  0  0  0  0  0  0  0
  186.2090  176.8980  146.7640 N   0  0  0  0  0  2  0  0  0  0  0  0
  187.0100  177.9860  144.7430 C   0  0  0  0  0  0  0  0  0  0  0  0
  188.2220  177.4980  144.7530 C   0  0  0  0  0  0  0  0  0  0  0  0
  186.3820  179.8490  143.2860 C   0  0  0  0  0  1  0  0  0  0  0  0
  184.9700  178.2140  140.9360 O   0  0  0  0  0  0  0  0  0  0  0  0
  183.7630  178.0690  142.9360 N   0  0  0  0  0  2  0  0  0  0  0  0
  184.8740  177.9770  143.8370 C   0  0  0  0  0  0  0  0  0  0  0  0
  189.4180  176.9750  144.7980 C   0  0  0  0  0  3  0  0  0  0  0  0
  184.7110  177.5540  145.0480 N   0  0  0  0  0  0  0  0  0  0  0  0
  182.6560  178.4940  140.7760 N   0  0  0  0  0  0  0  0  0  0  0  0
  181.4870  178.1840  141.2360 C   0  0  0  0  0  3  0  0  0  0  0  0
  180.2740  178.4400  140.4160 C   0  0  0  0  0  1  0  0  0  0  0  0
  191.8660  175.4630  145.2990 N   0  0  0  0  0  2  0  0  0  0  0  0
  192.5290  177.5580  144.2210 O   0  0  0  0  0  1  0  0  0  0  0  0
  192.8770  176.4890  145.0470 C   0  0  1  0  0  0  0  0  0  0  0  0
  193.7940  176.8090  146.2000 C   0  0  0  0  0  2  0  0  0  0  0  0
  194.3350  176.0700  144.9690 C   0  0  1  0  0  3  0  0  0  0  0  0
  195.9390  174.4360  145.9290 C   0  0  0  0  0  2  0  0  0  0  0  0
  197.8620  173.5950  144.6050 C   0  0  0  0  0  1  0  0  0  0  0  0
  195.5790  172.6630  144.2920 C   0  0  0  0  0  2  0  0  0  0  0  0
  196.5710  173.2100  145.3000 C   0  0  2  0  0  0  0  0  0  0  0  0
  196.8310  172.2520  146.2780 O   0  0  0  0  0  1  0  0  0  0  0  0
  194.5900  173.7780  144.0300 C   0  0  0  0  0  2  0  0  0  0  0  0
  194.5680  174.6030  145.3000 C   0  0  2  0  0  3  0  0  0  0  0  0
  1  4  1  0  0  0  0
  2  3  2  0  0  0  0
  3  5  1  0  0  0  0
  4  5  2  0  0  0  0
  4 17  1  0  0  0  0
  5 22  1  0  0  0  0
  6  2  1  0  0  0  0
  6  1  2  0  0  0  0
  7 15  1  0  0  0  0
  8 13  1  1  0  0  0
  8 16  1  0  0  0  0
  8 11  1  0  0  0  0
  9 10  2  0  0  0  0
 11 12  2  0  0  0  0
 11  9  1  0  0  0  0
 12 17  2  0  0  0  0
 14  7  2  0  0  0  0
 15 16  1  0  0  0  0
 16 18  2  0  0  0  0
 18  9  1  0  0  0  0
 19 20  2  0  0  0  0
 19  7  1  0  0  0  0
 21 20  1  0  0  0  0
 24 23  1  6  0  0  0
 24 22  1  0  0  0  0
 24 25  1  0  0  0  0
 26 24  1  0  0  0  0
 26 33  1  0  0  0  0
 26 25  1  1  0  0  0
 29 30  1  0  0  0  0
 30 28  1  6  0  0  0
 30 27  1  0  0  0  0
 30 31  1  0  0  0  0
 32 29  1  0  0  0  0
 33 32  1  6  0  0  0
 33 27  1  0  0  0  0
M  END
>  <MODEL>
4

>  <REMARK>
 VINA RESULT:      -7.6      3.498      7.687
  Name = 
  5 active torsions:
  status: ('A' for Active; 'I' for Inactive)
    1  A    between atoms: C_1  and  N_3
    2  A    between atoms: C_10  and  N_28
    3  A    between atoms: C_22  and  C_31
    4  A    between atoms: C_24  and  N_28
    5  A    between atoms: C_25  and  C_29
                            x       y       z     vdW  Elec       q    Type
                         _______ _______ _______ _____ _____    ______ ____

>  <TORSDO>
F 5

$$$$
=
 OpenBabel11062421113D

 33 36  0  0  1  0  0  0  0  0999 V2000
  192.1660  175.0190  146.2630 C   0  0  0  0  0  3  0  0  0  0  0  0
  193.0450  177.0230  145.2340 C   0  0  0  0  0  3  0  0  0  0  0  0
  191.9960  177.0080  144.3130 C   0  0  0  0  0  3  0  0  0  0  0  0
  191.1230  174.9840  145.3300 C   0  0  0  0  0  0  0  0  0  0  0  0
  191.0190  175.9990  144.3550 C   0  0  0  0  0  0  0  0  0  0  0  0
  193.1260  176.0330  146.2160 C   0  0  0  0  0  3  0  0  0  0  0  0
  188.9510  173.5550  138.9400 C   0  0  0  0  0  0  0  0  0  0  0  0
  189.0300  173.0440  142.0310 C   0  0  2  0  0  3  0  0  0  0  0  0
  190.4610  171.3650  142.8400 C   0  0  0  0  0  0  0  0  0  0  0  0
  191.3560  170.7980  143.5790 N   0  0  0  0  0  2  0  0  0  0  0  0
  189.6110  172.4630  143.2760 C   0  0  0  0  0  0  0  0  0  0  0  0
  189.8690  173.1790  144.3380 C   0  0  0  0  0  0  0  0  0  0  0  0
  187.5410  172.7460  142.0010 C   0  0  0  0  0  1  0  0  0  0  0  0
  188.6430  174.5700  139.6240 O   0  0  0  0  0  0  0  0  0  0  0  0
  189.5610  172.4170  139.5590 N   0  0  0  0  0  2  0  0  0  0  0  0
  189.7200  172.2220  140.9690 C   0  0  0  0  0  0  0  0  0  0  0  0
  190.1730  173.8690  145.4030 C   0  0  0  0  0  3  0  0  0  0  0  0
  190.4950  171.2940  141.4270 N   0  0  0  0  0  0  0  0  0  0  0  0
  188.7240  173.5370  137.5290 N   0  0  0  0  0  0  0  0  0  0  0  0
  189.6040  173.9640  136.6830 C   0  0  0  0  0  3  0  0  0  0  0  0
  189.3140  173.9240  135.2260 C   0  0  0  0  0  1  0  0  0  0  0  0
  189.8940  176.0370  143.4660 N   0  0  0  0  0  2  0  0  0  0  0  0
  190.2190  178.2110  142.3880 O   0  0  0  0  0  1  0  0  0  0  0  0
  189.3320  177.2650  142.9040 C   0  0  1  0  0  0  0  0  0  0  0  0
  188.0190  177.1190  142.1790 C   0  0  0  0  0  2  0  0  0  0  0  0
  188.0760  177.8440  143.5300 C   0  0  1  0  0  3  0  0  0  0  0  0
  186.0120  177.3180  144.8060 C   0  0  0  0  0  2  0  0  0  0  0  0
  185.2670  178.7490  146.6910 C   0  0  0  0  0  1  0  0  0  0  0  0
  187.0650  177.0600  146.9910 C   0  0  0  0  0  2  0  0  0  0  0  0
  185.7520  177.3680  146.2990 C   0  0  2  0  0  0  0  0  0  0  0  0
  184.7950  176.4160  146.6490 O   0  0  0  0  0  1  0  0  0  0  0  0
  188.1440  177.2540  145.9480 C   0  0  0  0  0  2  0  0  0  0  0  0
  187.4760  176.9670  144.6190 C   0  0  2  0  0  3  0  0  0  0  0  0
  2  6  2  0  0  0  0
  3  5  2  0  0  0  0
  3  2  1  0  0  0  0
  4 17  1  0  0  0  0
  4  1  2  0  0  0  0
  5  4  1  0  0  0  0
  6  1  1  0  0  0  0
  7 15  1  0  0  0  0
  7 14  2  0  0  0  0
  8 13  1  1  0  0  0
  8 11  1  0  0  0  0
  9 11  1  0  0  0  0
  9 10  2  0  0  0  0
 11 12  2  0  0  0  0
 12 17  2  0  0  0  0
 15 16  1  0  0  0  0
 16 18  2  0  0  0  0
 16  8  1  0  0  0  0
 18  9  1  0  0  0  0
 19  7  1  0  0  0  0
 20 19  2  0  0  0  0
 21 20  1  0  0  0  0
 22  5  1  0  0  0  0
 24 23  1  6  0  0  0
 24 22  1  0  0  0  0
 24 26  1  0  0  0  0
 25 24  1  0  0  0  0
 26 25  1  6  0  0  0
 26 33  1  0  0  0  0
 27 30  1  0  0  0  0
 30 31  1  0  0  0  0
 30 28  1  1  0  0  0
 30 29  1  0  0  0  0
 32 29  1  0  0  0  0
 33 27  1  1  0  0  0
 33 32  1  0  0  0  0
M  END
>  <MODEL>
5

>  <REMARK>
 VINA RESULT:      -7.4      1.859      2.437
  Name = 
  5 active torsions:
  status: ('A' for Active; 'I' for Inactive)
    1  A    between atoms: C_1  and  N_3
    2  A    between atoms: C_10  and  N_28
    3  A    between atoms: C_22  and  C_31
    4  A    between atoms: C_24  and  N_28
    5  A    between atoms: C_25  and  C_29
                            x       y       z     vdW  Elec       q    Type
                         _______ _______ _______ _____ _____    ______ ____

>  <TORSDO>
F 5

$$$$
=
 OpenBabel11062421113D

 33 36  0  0  1  0  0  0  0  0999 V2000
  193.7920  176.5500  146.0660 C   0  0  0  0  0  3  0  0  0  0  0  0
  195.6870  177.6150  145.0090 C   0  0  0  0  0  3  0  0  0  0  0  0
  195.9960  176.4180  144.3600 C   0  0  0  0  0  3  0  0  0  0  0  0
  194.1060  175.3400  145.4370 C   0  0  0  0  0  0  0  0  0  0  0  0
  195.2070  175.2720  144.5560 C   0  0  0  0  0  0  0  0  0  0  0  0
  194.5800  177.6840  145.8560 C   0  0  0  0  0  3  0  0  0  0  0  0
  187.6000  177.4830  146.2600 C   0  0  0  0  0  0  0  0  0  0  0  0
  189.8000  175.2550  146.1300 C   0  0  2  0  0  3  0  0  0  0  0  0
  190.0580  174.0700  144.1180 C   0  0  0  0  0  0  0  0  0  0  0  0
  190.6520  173.5280  143.1070 N   0  0  0  0  0  2  0  0  0  0  0  0
  190.6780  174.2840  145.4170 C   0  0  0  0  0  0  0  0  0  0  0  0
  191.9710  174.2310  145.6020 C   0  0  0  0  0  0  0  0  0  0  0  0
  189.1190  174.5420  147.2850 C   0  0  0  0  0  1  0  0  0  0  0  0
  188.5560  177.6760  147.0610 O   0  0  0  0  0  0  0  0  0  0  0  0
  187.7090  176.5120  145.2150 N   0  0  0  0  0  2  0  0  0  0  0  0
  188.7740  175.5650  145.0670 C   0  0  0  0  0  0  0  0  0  0  0  0
  193.2680  174.1730  145.7340 C   0  0  0  0  0  3  0  0  0  0  0  0
  188.9200  174.8980  143.9690 N   0  0  0  0  0  0  0  0  0  0  0  0
  186.4030  178.2560  146.3650 N   0  0  0  0  0  0  0  0  0  0  0  0
  185.2630  177.8260  145.9300 C   0  0  0  0  0  3  0  0  0  0  0  0
  184.0490  178.6730  146.0620 C   0  0  0  0  0  1  0  0  0  0  0  0
  195.4720  174.0700  143.8190 N   0  0  0  0  0  2  0  0  0  0  0  0
  197.4600  173.6650  142.4500 O   0  0  0  0  0  1  0  0  0  0  0  0
  196.8000  173.4770  143.6650 C   0  0  1  0  0  0  0  0  0  0  0  0
  197.6660  173.4660  144.8990 C   0  0  0  0  0  2  0  0  0  0  0  0
  197.0910  172.1540  144.3500 C   0  0  1  0  0  3  0  0  0  0  0  0
  196.4640  170.5540  146.1420 C   0  0  0  0  0  2  0  0  0  0  0  0
  195.9850  168.1730  145.6290 C   0  0  0  0  0  1  0  0  0  0  0  0
  194.2780  169.9390  145.2470 C   0  0  0  0  0  2  0  0  0  0  0  0
  195.4020  169.4710  146.1520 C   0  0  2  0  0  0  0  0  0  0  0  0
  194.9220  169.2830  147.4470 O   0  0  0  0  0  1  0  0  0  0  0  0
  194.8580  171.0520  144.4020 C   0  0  0  0  0  2  0  0  0  0  0  0
  195.9580  171.6660  145.2420 C   0  0  2  0  0  3  0  0  0  0  0  0
  2  6  2  0  0  0  0
  3  5  2  0  0  0  0
  3  2  1  0  0  0  0
  4 17  1  0  0  0  0
  4  1  2  0  0  0  0
  5  4  1  0  0  0  0
  6  1  1  0  0  0  0
  7 19  1  0  0  0  0
  7 14  2  0  0  0  0
  8 13  1  1  0  0  0
  9 11  1  0  0  0  0
 10  9  2  0  0  0  0
 11 12  2  0  0  0  0
 11  8  1  0  0  0  0
 12 17  2  0  0  0  0
 15  7  1  0  0  0  0
 16 15  1  0  0  0  0
 16  8  1  0  0  0  0
 18  9  1  0  0  0  0
 18 16  2  0  0  0  0
 20 21  1  0  0  0  0
 20 19  2  0  0  0  0
 22  5  1  0  0  0  0
 24 23  1  6  0  0  0
 24 22  1  0  0  0  0
 24 26  1  0  0  0  0
 24 25  1  0  0  0  0
 26 25  1  1  0  0  0
 26 33  1  0  0  0  0
 27 30  1  0  0  0  0
 29 30  1  0  0  0  0
 30 28  1  6  0  0  0
 30 31  1  0  0  0  0
 32 29  1  0  0  0  0
 33 32  1  6  0  0  0
 33 27  1  0  0  0  0
M  END
>  <MODEL>
6

>  <REMARK>
 VINA RESULT:      -7.4      3.775      8.362
  Name = 
  5 active torsions:
  status: ('A' for Active; 'I' for Inactive)
    1  A    between atoms: C_1  and  N_3
    2  A    between atoms: C_10  and  N_28
    3  A    between atoms: C_22  and  C_31
    4  A    between atoms: C_24  and  N_28
    5  A    between atoms: C_25  and  C_29
                            x       y       z     vdW  Elec       q    Type
                         _______ _______ _______ _____ _____    ______ ____

>  <TORSDO>
F 5

$$$$
=
 OpenBabel11062421113D

 33 36  0  0  1  0  0  0  0  0999 V2000
  190.9540  173.8920  141.0380 C   0  0  0  0  0  3  0  0  0  0  0  0
  189.1320  172.5820  140.1380 C   0  0  0  0  0  3  0  0  0  0  0  0
  188.2330  173.2830  140.9440 C   0  0  0  0  0  3  0  0  0  0  0  0
  190.0630  174.5850  141.8650 C   0  0  0  0  0  0  0  0  0  0  0  0
  188.6830  174.2970  141.8060 C   0  0  0  0  0  0  0  0  0  0  0  0
  190.4930  172.8920  140.1780 C   0  0  0  0  0  3  0  0  0  0  0  0
  195.2050  171.6950  145.4430 C   0  0  0  0  0  0  0  0  0  0  0  0
  193.3770  174.1180  144.6630 C   0  0  2  0  0  3  0  0  0  0  0  0
  194.1950  175.6620  143.0930 C   0  0  0  0  0  0  0  0  0  0  0  0
  194.2110  176.4320  142.0550 N   0  0  0  0  0  2  0  0  0  0  0  0
  192.9910  175.2830  143.8160 C   0  0  0  0  0  0  0  0  0  0  0  0
  191.7910  175.4300  143.3200 C   0  0  0  0  0  0  0  0  0  0  0  0
  193.3500  174.5430  146.1210 C   0  0  0  0  0  1  0  0  0  0  0  0
  193.9740  171.4590  145.5830 O   0  0  0  0  0  0  0  0  0  0  0  0
  195.6490  172.8430  144.7120 N   0  0  0  0  0  2  0  0  0  0  0  0
  194.8090  173.9030  144.2370 C   0  0  0  0  0  0  0  0  0  0  0  0
  190.6140  175.5920  142.7780 C   0  0  0  0  0  3  0  0  0  0  0  0
  195.2510  174.7660  143.3820 N   0  0  0  0  0  0  0  0  0  0  0  0
  196.1800  170.8010  145.9850 N   0  0  0  0  0  0  0  0  0  0  0  0
  195.8570  169.6660  146.5130 C   0  0  0  0  0  3  0  0  0  0  0  0
  196.9120  168.7760  147.0650 C   0  0  0  0  0  1  0  0  0  0  0  0
  187.7470  175.0770  142.5650 N   0  0  0  0  0  2  0  0  0  0  0  0
  187.7970  176.9640  141.0070 O   0  0  0  0  0  1  0  0  0  0  0  0
  187.3160  176.4260  142.2010 C   0  0  1  0  0  0  0  0  0  0  0  0
  185.9020  176.7910  142.5750 C   0  0  0  0  0  2  0  0  0  0  0  0
  187.0830  177.4390  143.3080 C   0  0  1  0  0  3  0  0  0  0  0  0
  185.9820  177.2080  145.5220 C   0  0  0  0  0  2  0  0  0  0  0  0
  186.0270  179.0550  147.1780 C   0  0  0  0  0  1  0  0  0  0  0  0
  187.9760  177.5410  146.8880 C   0  0  0  0  0  2  0  0  0  0  0  0
  186.4630  177.6310  146.8960 C   0  0  2  0  0  0  0  0  0  0  0  0
  185.9410  176.7780  147.8680 O   0  0  0  0  0  1  0  0  0  0  0  0
  188.3840  177.4870  145.4310 C   0  0  0  0  0  2  0  0  0  0  0  0
  187.2130  176.8550  144.7080 C   0  0  2  0  0  3  0  0  0  0  0  0
  1  4  1  0  0  0  0
  2  6  1  0  0  0  0
  2  3  2  0  0  0  0
  3  5  1  0  0  0  0
  4 17  1  0  0  0  0
  5  4  2  0  0  0  0
  5 22  1  0  0  0  0
  6  1  2  0  0  0  0
  7 14  2  0  0  0  0
  7 19  1  0  0  0  0
  8 13  1  1  0  0  0
  9 18  1  0  0  0  0
  9 11  1  0  0  0  0
 10  9  2  0  0  0  0
 11  8  1  0  0  0  0
 12 11  2  0  0  0  0
 15  7  1  0  0  0  0
 16  8  1  0  0  0  0
 16 15  1  0  0  0  0
 17 12  2  0  0  0  0
 18 16  2  0  0  0  0
 19 20  2  0  0  0  0
 20 21  1  0  0  0  0
 24 23  1  6  0  0  0
 24 22  1  0  0  0  0
 24 25  1  0  0  0  0
 24 26  1  0  0  0  0
 26 25  1  6  0  0  0
 26 33  1  0  0  0  0
 27 30  1  0  0  0  0
 29 30  1  0  0  0  0
 30 28  1  1  0  0  0
 30 31  1  0  0  0  0
 32 29  1  0  0  0  0
 33 32  1  1  0  0  0
 33 27  1  0  0  0  0
M  END
>  <MODEL>
7

>  <REMARK>
 VINA RESULT:      -7.3      3.230      6.893
  Name = 
  5 active torsions:
  status: ('A' for Active; 'I' for Inactive)
    1  A    between atoms: C_1  and  N_3
    2  A    between atoms: C_10  and  N_28
    3  A    between atoms: C_22  and  C_31
    4  A    between atoms: C_24  and  N_28
    5  A    between atoms: C_25  and  C_29
                            x       y       z     vdW  Elec       q    Type
                         _______ _______ _______ _____ _____    ______ ____

>  <TORSDO>
F 5

$$$$
=
 OpenBabel11062421113D

 33 36  0  0  1  0  0  0  0  0999 V2000
  187.5110  176.4740  141.3740 C   0  0  0  0  0  3  0  0  0  0  0  0
  187.3450  178.3870  142.8430 C   0  0  0  0  0  3  0  0  0  0  0  0
  187.7170  177.5860  143.9250 C   0  0  0  0  0  3  0  0  0  0  0  0
  187.8640  175.6590  142.4560 C   0  0  0  0  0  0  0  0  0  0  0  0
  187.9910  176.2200  143.7450 C   0  0  0  0  0  0  0  0  0  0  0  0
  187.2500  177.8320  141.5650 C   0  0  0  0  0  3  0  0  0  0  0  0
  194.5790  174.6640  141.2290 C   0  0  0  0  0  0  0  0  0  0  0  0
  191.6370  173.6480  141.5910 C   0  0  2  0  0  3  0  0  0  0  0  0
  191.0160  172.7790  143.6840 C   0  0  0  0  0  0  0  0  0  0  0  0
  190.3120  172.5950  144.7510 N   0  0  0  0  0  2  0  0  0  0  0  0
  190.4700  173.1950  142.4010 C   0  0  0  0  0  0  0  0  0  0  0  0
  189.2770  173.7130  142.2740 C   0  0  0  0  0  0  0  0  0  0  0  0
  191.8570  172.6630  140.4570 C   0  0  0  0  0  1  0  0  0  0  0  0
  193.7560  175.2290  140.4580 O   0  0  0  0  0  0  0  0  0  0  0  0
  194.1220  173.8830  142.3370 N   0  0  0  0  0  2  0  0  0  0  0  0
  192.7610  173.5120  142.5890 C   0  0  0  0  0  0  0  0  0  0  0  0
  188.0810  174.2310  142.2000 C   0  0  0  0  0  3  0  0  0  0  0  0
  192.4090  173.0210  143.7320 N   0  0  0  0  0  0  0  0  0  0  0  0
  195.9850  174.8210  141.0260 N   0  0  0  0  0  0  0  0  0  0  0  0
  196.4680  175.5430  140.0680 C   0  0  0  0  0  3  0  0  0  0  0  0
  197.9400  175.6700  139.9010 C   0  0  0  0  0  1  0  0  0  0  0  0
  188.4610  175.4210  144.8400 N   0  0  0  0  0  2  0  0  0  0  0  0
  187.5990  176.7600  146.7000 O   0  0  0  0  0  1  0  0  0  0  0  0
  188.5900  175.9050  146.2140 C   0  0  1  0  0  0  0  0  0  0  0  0
  189.1750  174.9310  147.2050 C   0  0  0  0  0  2  0  0  0  0  0  0
  189.9810  176.1610  146.7680 C   0  0  1  0  0  3  0  0  0  0  0  0
  192.3610  175.4690  146.6230 C   0  0  0  0  0  2  0  0  0  0  0  0
  194.1940  177.1370  146.7410 C   0  0  0  0  0  1  0  0  0  0  0  0
  192.9310  176.7600  144.6330 C   0  0  0  0  0  2  0  0  0  0  0  0
  193.5140  176.1010  145.8680 C   0  0  2  0  0  0  0  0  0  0  0  0
  194.4340  175.1230  145.4950 O   0  0  0  0  0  1  0  0  0  0  0  0
  191.4440  176.8810  144.8860 C   0  0  0  0  0  2  0  0  0  0  0  0
  191.1000  175.7440  145.8250 C   0  0  2  0  0  3  0  0  0  0  0  0
  1  6  2  0  0  0  0
  1  4  1  0  0  0  0
  2  3  2  0  0  0  0
  4  5  2  0  0  0  0
  5  3  1  0  0  0  0
  5 22  1  0  0  0  0
  6  2  1  0  0  0  0
  7 15  1  0  0  0  0
  8 13  1  6  0  0  0
  8 11  1  0  0  0  0
  8 16  1  0  0  0  0
  9 18  1  0  0  0  0
  9 10  2  0  0  0  0
 11  9  1  0  0  0  0
 12 11  2  0  0  0  0
 14  7  2  0  0  0  0
 15 16  1  0  0  0  0
 16 18  2  0  0  0  0
 17 12  2  0  0  0  0
 17  4  1  0  0  0  0
 19  7  1  0  0  0  0
 20 19  2  0  0  0  0
 21 20  1  0  0  0  0
 22 24  1  0  0  0  0
 24 23  1  1  0  0  0
 24 26  1  0  0  0  0
 24 25  1  0  0  0  0
 26 25  1  1  0  0  0
 29 32  1  0  0  0  0
 29 30  1  0  0  0  0
 30 27  1  0  0  0  0
 30 28  1  1  0  0  0
 31 30  1  0  0  0  0
 33 32  1  6  0  0  0
 33 27  1  0  0  0  0
 33 26  1  0  0  0  0
M  END
>  <MODEL>
8

>  <REMARK>
 VINA RESULT:      -7.3      3.155      6.049
  Name = 
  5 active torsions:
  status: ('A' for Active; 'I' for Inactive)
    1  A    between atoms: C_1  and  N_3
    2  A    between atoms: C_10  and  N_28
    3  A    between atoms: C_22  and  C_31
    4  A    between atoms: C_24  and  N_28
    5  A    between atoms: C_25  and  C_29
                            x       y       z     vdW  Elec       q    Type
                         _______ _______ _______ _____ _____    ______ ____

>  <TORSDO>
F 5

$$$$
=
 OpenBabel11062421113D

 33 36  0  0  1  0  0  0  0  0999 V2000
  190.6360  173.7350  141.5490 C   0  0  0  0  0  3  0  0  0  0  0  0
  188.4110  174.6480  141.3030 C   0  0  0  0  0  3  0  0  0  0  0  0
  188.3920  174.9630  142.6630 C   0  0  0  0  0  3  0  0  0  0  0  0
  190.6180  174.0280  142.9180 C   0  0  0  0  0  0  0  0  0  0  0  0
  189.4940  174.6690  143.4830 C   0  0  0  0  0  0  0  0  0  0  0  0
  189.5370  174.0410  140.7430 C   0  0  0  0  0  3  0  0  0  0  0  0
  196.2890  174.9280  139.0940 C   0  0  0  0  0  0  0  0  0  0  0  0
  194.8190  174.1480  141.7490 C   0  0  2  0  0  3  0  0  0  0  0  0
  194.6730  175.7620  143.4500 C   0  0  0  0  0  0  0  0  0  0  0  0
  194.1440  176.4990  144.3690 N   0  0  0  0  0  2  0  0  0  0  0  0
  194.1760  174.4510  143.0600 C   0  0  0  0  0  0  0  0  0  0  0  0
  192.9840  174.0220  143.3800 C   0  0  0  0  0  0  0  0  0  0  0  0
  195.8070  173.0110  141.9400 C   0  0  0  0  0  1  0  0  0  0  0  0
  195.4200  174.0260  138.9390 O   0  0  0  0  0  0  0  0  0  0  0  0
  196.3390  175.6920  140.3030 N   0  0  0  0  0  2  0  0  0  0  0  0
  195.5790  175.4250  141.4880 C   0  0  0  0  0  0  0  0  0  0  0  0
  191.7830  173.6410  143.7200 C   0  0  0  0  0  3  0  0  0  0  0  0
  195.5020  176.3010  142.4360 N   0  0  0  0  0  0  0  0  0  0  0  0
  197.2190  175.2230  138.0500 N   0  0  0  0  0  0  0  0  0  0  0  0
  196.8980  175.1570  136.7990 C   0  0  0  0  0  3  0  0  0  0  0  0
  197.9070  175.4720  135.7540 C   0  0  0  0  0  1  0  0  0  0  0  0
  189.5070  175.0760  144.8590 N   0  0  0  0  0  2  0  0  0  0  0  0
  191.1680  176.3540  146.1240 O   0  0  0  0  0  1  0  0  0  0  0  0
  190.0200  176.3610  145.3300 C   0  0  1  0  0  0  0  0  0  0  0  0
  189.8770  177.5190  144.3760 C   0  0  0  0  0  2  0  0  0  0  0  0
  189.0290  177.4650  145.6540 C   0  0  1  0  0  3  0  0  0  0  0  0
  186.7960  178.3870  145.0820 C   0  0  0  0  0  2  0  0  0  0  0  0
  185.2920  179.2920  146.8370 C   0  0  0  0  0  1  0  0  0  0  0  0
  185.4770  176.8460  146.4390 C   0  0  0  0  0  2  0  0  0  0  0  0
  185.4630  178.2140  145.7850 C   0  0  2  0  0  0  0  0  0  0  0  0
  184.4220  178.2890  144.8610 O   0  0  0  0  0  1  0  0  0  0  0  0
  186.9280  176.4170  146.4820 C   0  0  0  0  0  2  0  0  0  0  0  0
  187.5890  177.1140  145.3110 C   0  0  2  0  0  3  0  0  0  0  0  0
  1  4  1  0  0  0  0
  2  3  2  0  0  0  0
  3  5  1  0  0  0  0
  4  5  2  0  0  0  0
  4 17  1  0  0  0  0
  5 22  1  0  0  0  0
  6  2  1  0  0  0  0
  6  1  2  0  0  0  0
  7 15  1  0  0  0  0
  8 13  1  1  0  0  0
  8 11  1  0  0  0  0
  9 10  2  0  0  0  0
 11 12  2  0  0  0  0
 11  9  1  0  0  0  0
 12 17  2  0  0  0  0
 14  7  2  0  0  0  0
 15 16  1  0  0  0  0
 16  8  1  0  0  0  0
 16 18  2  0  0  0  0
 18  9  1  0  0  0  0
 19  7  1  0  0  0  0
 20 19  2  0  0  0  0
 21 20  1  0  0  0  0
 22 24  1  0  0  0  0
 24 26  1  0  0  0  0
 24 23  1  1  0  0  0
 25 24  1  0  0  0  0
 26 25  1  6  0  0  0
 27 30  1  0  0  0  0
 29 32  1  0  0  0  0
 30 29  1  0  0  0  0
 30 28  1  1  0  0  0
 31 30  1  0  0  0  0
 33 27  1  1  0  0  0
 33 26  1  0  0  0  0
 33 32  1  0  0  0  0
M  END
>  <MODEL>
9

>  <REMARK>
 VINA RESULT:      -7.3      4.254      5.572
  Name = 
  5 active torsions:
  status: ('A' for Active; 'I' for Inactive)
    1  A    between atoms: C_1  and  N_3
    2  A    between atoms: C_10  and  N_28
    3  A    between atoms: C_22  and  C_31
    4  A    between atoms: C_24  and  N_28
    5  A    between atoms: C_25  and  C_29
                            x       y       z     vdW  Elec       q    Type
                         _______ _______ _______ _____ _____    ______ ____

>  <TORSDO>
F 5

$$$$
