=
 OpenBabel11062422073D

 27 31  0  0  1  0  0  0  0  0999 V2000
  185.3700  178.6200  143.8490 C   0  0  0  0  0  0  0  0  0  0  0  0
  186.1110  178.6590  142.5470 C   0  0  0  0  0  2  0  0  0  0  0  0
  188.2470  177.4900  143.1630 C   0  0  0  0  0  2  0  0  0  0  0  0
  188.9650  176.4690  145.5010 C   0  0  0  0  0  0  0  0  0  0  0  0
  184.0570  179.2280  144.1290 C   0  0  0  0  0  3  0  0  0  0  0  0
  188.4580  176.4070  146.7410 C   0  0  0  0  0  3  0  0  0  0  0  0
  186.9760  177.4840  145.3470 C   0  0  0  0  0  0  0  0  0  0  0  0
  186.9690  177.4140  142.3310 C   0  0  2  0  0  3  0  0  0  0  0  0
  185.0120  177.9910  147.2940 C   0  0  0  0  0  3  0  0  0  0  0  0
  185.8030  178.1480  145.0030 C   0  0  0  0  0  0  0  0  0  0  0  0
  187.1640  177.0730  146.6480 C   0  0  0  0  0  0  0  0  0  0  0  0
  187.3440  177.3250  140.8670 C   0  0  0  0  0  1  0  0  0  0  0  0
  188.0120  177.1370  144.6020 C   0  0  0  0  0  0  0  0  0  0  0  0
  183.7460  179.0860  145.3850 N   0  0  0  0  0  0  0  0  0  0  0  0
  184.8480  178.3940  145.9560 C   0  0  0  0  0  0  0  0  0  0  0  0
  186.2020  177.3120  147.6490 C   0  0  0  0  0  3  0  0  0  0  0  0
  190.2690  175.8630  145.0620 C   0  0  2  0  0  3  0  0  0  0  0  0
  191.7250  172.1850  143.8150 C   0  0  0  0  0  2  0  0  0  0  0  0
  190.9810  174.4070  143.1930 O   0  0  0  0  0  0  0  0  0  0  0  0
  190.0900  174.5470  144.2940 C   0  0  1  0  0  3  0  0  0  0  0  0
  190.3370  172.0610  144.4480 C   0  0  0  0  0  2  0  0  0  0  0  0
  189.9820  173.3220  145.2240 C   0  0  0  0  0  2  0  0  0  0  0  0
  192.1070  173.6490  143.5760 C   0  0  0  0  0  2  0  0  0  0  0  0
  191.2440  175.7110  146.2250 C   0  0  0  0  0  2  0  0  0  0  0  0
  192.5200  176.4280  145.9430 C   0  0  0  0  0  0  0  0  0  0  0  0
  192.6880  177.1010  144.7410 O   0  0  0  0  0  0  0  0  0  0  0  0
  193.4350  176.4490  146.8070 O   0  0  0  0  0  1  0  0  0  0  0  0
  1  5  2  0  0  0  0
  1 10  1  0  0  0  0
  2  1  1  0  0  0  0
  3 13  1  0  0  0  0
  4  6  1  0  0  0  0
  5 14  1  0  0  0  0
  7 11  1  0  0  0  0
  8 12  1  6  0  0  0
  8  2  1  0  0  0  0
  8  3  1  0  0  0  0
  9 16  2  0  0  0  0
 10  7  2  0  0  0  0
 10 15  1  0  0  0  0
 11  6  2  0  0  0  0
 11 16  1  0  0  0  0
 13  7  1  0  0  0  0
 13  4  2  0  0  0  0
 14 15  2  0  0  0  0
 15  9  1  0  0  0  0
 17  4  1  0  0  0  0
 17 24  1  1  0  0  0
 18 21  1  0  0  0  0
 19 23  1  0  0  0  0
 19 20  1  0  0  0  0
 20 17  1  1  0  0  0
 20 22  1  0  0  0  0
 21 22  1  0  0  0  0
 23 18  1  0  0  0  0
 25 24  1  0  0  0  0
 25 27  1  0  0  0  0
 26 25  2  0  0  0  0
M  END
>  <MODEL>
1

>  <REMARK>
 VINA RESULT:      -8.1      0.000      0.000
  Name = 
  4 active torsions:
  status: ('A' for Active; 'I' for Inactive)
    1  A    between atoms: C_3  and  C_14
    2  A    between atoms: C_4  and  C_24
    3  A    between atoms: C_9  and  C_14
    4  A    between atoms: C_14  and  C_24
                            x       y       z     vdW  Elec       q    Type
                         _______ _______ _______ _____ _____    ______ ____

>  <TORSDO>
F 4

$$$$
=
 OpenBabel11062422073D

 27 31  0  0  1  0  0  0  0  0999 V2000
  185.6730  178.4770  143.9010 C   0  0  0  0  0  0  0  0  0  0  0  0
  186.4070  178.4360  142.5950 C   0  0  0  0  0  2  0  0  0  0  0  0
  188.3290  176.9200  143.1610 C   0  0  0  0  0  2  0  0  0  0  0  0
  188.8790  175.7260  145.4620 C   0  0  0  0  0  0  0  0  0  0  0  0
  184.4760  179.2800  144.2090 C   0  0  0  0  0  3  0  0  0  0  0  0
  188.3730  175.7090  146.7040 C   0  0  0  0  0  3  0  0  0  0  0  0
  187.0790  177.0530  145.3530 C   0  0  0  0  0  0  0  0  0  0  0  0
  187.0530  177.0760  142.3360 C   0  0  2  0  0  3  0  0  0  0  0  0
  185.2280  177.8090  147.3280 C   0  0  0  0  0  3  0  0  0  0  0  0
  186.0280  177.9060  145.0380 C   0  0  0  0  0  0  0  0  0  0  0  0
  187.2020  176.5770  146.6400 C   0  0  0  0  0  0  0  0  0  0  0  0
  187.4050  176.9720  140.8680 C   0  0  0  0  0  1  0  0  0  0  0  0
  188.0440  176.5660  144.5910 C   0  0  0  0  0  0  0  0  0  0  0  0
  184.1490  179.1510  145.4620 N   0  0  0  0  0  0  0  0  0  0  0  0
  185.1270  178.2740  146.0040 C   0  0  0  0  0  0  0  0  0  0  0  0
  186.2940  176.9370  147.6540 C   0  0  0  0  0  3  0  0  0  0  0  0
  190.0680  174.9330  144.9960 C   0  0  2  0  0  3  0  0  0  0  0  0
  193.7810  176.1420  146.3940 C   0  0  0  0  0  2  0  0  0  0  0  0
  191.4900  176.7520  145.8840 O   0  0  0  0  0  0  0  0  0  0  0  0
  191.3370  175.7830  144.8510 C   0  0  1  0  0  3  0  0  0  0  0  0
  193.8380  175.7210  144.9240 C   0  0  0  0  0  2  0  0  0  0  0  0
  192.5890  174.9410  144.5360 C   0  0  0  0  0  2  0  0  0  0  0  0
  192.3370  176.2510  146.8940 C   0  0  0  0  0  2  0  0  0  0  0  0
  189.7630  174.1510  143.7210 C   0  0  0  0  0  2  0  0  0  0  0  0
  189.5240  172.7120  144.0270 C   0  0  0  0  0  0  0  0  0  0  0  0
  189.1810  171.8340  143.0080 O   0  0  0  0  0  0  0  0  0  0  0  0
  189.6650  172.2870  145.2030 O   0  0  0  0  0  1  0  0  0  0  0  0
  1  5  2  0  0  0  0
  1 10  1  0  0  0  0
  2  1  1  0  0  0  0
  3 13  1  0  0  0  0
  4  6  1  0  0  0  0
  5 14  1  0  0  0  0
  7 11  1  0  0  0  0
  8 12  1  6  0  0  0
  8  2  1  0  0  0  0
  8  3  1  0  0  0  0
  9 16  2  0  0  0  0
 10  7  2  0  0  0  0
 10 15  1  0  0  0  0
 11  6  2  0  0  0  0
 11 16  1  0  0  0  0
 13  7  1  0  0  0  0
 13  4  2  0  0  0  0
 14 15  2  0  0  0  0
 15  9  1  0  0  0  0
 17 24  1  6  0  0  0
 17  4  1  0  0  0  0
 18 23  1  0  0  0  0
 19 23  1  0  0  0  0
 20 17  1  1  0  0  0
 20 19  1  0  0  0  0
 21 18  1  0  0  0  0
 22 20  1  0  0  0  0
 22 21  1  0  0  0  0
 24 25  1  0  0  0  0
 25 27  1  0  0  0  0
 26 25  2  0  0  0  0
M  END
>  <MODEL>
2

>  <REMARK>
 VINA RESULT:      -8.0      1.204      2.824
  Name = 
  4 active torsions:
  status: ('A' for Active; 'I' for Inactive)
    1  A    between atoms: C_3  and  C_14
    2  A    between atoms: C_4  and  C_24
    3  A    between atoms: C_9  and  C_14
    4  A    between atoms: C_14  and  C_24
                            x       y       z     vdW  Elec       q    Type
                         _______ _______ _______ _____ _____    ______ ____

>  <TORSDO>
F 4

$$$$
=
 OpenBabel11062422073D

 27 31  0  0  1  0  0  0  0  0999 V2000
  184.8930  178.1070  144.2480 C   0  0  0  0  0  0  0  0  0  0  0  0
  184.9790  178.0030  145.7400 C   0  0  0  0  0  2  0  0  0  0  0  0
  187.2820  177.0440  146.0320 C   0  0  0  0  0  2  0  0  0  0  0  0
  189.0600  176.4010  144.1740 C   0  0  0  0  0  0  0  0  0  0  0  0
  183.7220  178.5450  143.4670 C   0  0  0  0  0  3  0  0  0  0  0  0
  189.1130  176.3760  142.8340 C   0  0  0  0  0  3  0  0  0  0  0  0
  187.0740  177.2000  143.5190 C   0  0  0  0  0  0  0  0  0  0  0  0
  186.3930  178.2640  146.2580 C   0  0  2  0  0  3  0  0  0  0  0  0
  186.0060  177.5950  140.9480 C   0  0  0  0  0  3  0  0  0  0  0  0
  185.7910  177.7150  143.3640 C   0  0  0  0  0  0  0  0  0  0  0  0
  187.8180  176.8900  142.4010 C   0  0  0  0  0  0  0  0  0  0  0  0
  186.3260  178.5510  147.7430 C   0  0  0  0  0  1  0  0  0  0  0  0
  187.7680  176.9460  144.6160 C   0  0  0  0  0  0  0  0  0  0  0  0
  183.9560  178.4300  142.1910 N   0  0  0  0  0  0  0  0  0  0  0  0
  185.2740  177.9050  142.1090 C   0  0  0  0  0  0  0  0  0  0  0  0
  187.3140  177.0740  141.0990 C   0  0  0  0  0  3  0  0  0  0  0  0
  190.1840  176.0210  145.0970 C   0  0  2  0  0  3  0  0  0  0  0  0
  194.3100  175.6370  145.2720 C   0  0  0  0  0  2  0  0  0  0  0  0
  192.4040  177.1070  144.9830 O   0  0  0  0  0  0  0  0  0  0  0  0
  191.5620  176.1020  144.4270 C   0  0  1  0  0  3  0  0  0  0  0  0
  193.7210  174.8840  144.0770 C   0  0  0  0  0  2  0  0  0  0  0  0
  192.2150  174.7190  144.2320 C   0  0  0  0  0  2  0  0  0  0  0  0
  193.2680  176.5380  145.9420 C   0  0  0  0  0  2  0  0  0  0  0  0
  189.9500  174.6600  145.7470 C   0  0  0  0  0  2  0  0  0  0  0  0
  189.8390  174.7930  147.2270 C   0  0  0  0  0  0  0  0  0  0  0  0
  190.8610  175.3930  147.9490 O   0  0  0  0  0  1  0  0  0  0  0  0
  188.8050  174.3890  147.8190 O   0  0  0  0  0  0  0  0  0  0  0  0
  1  2  1  0  0  0  0
  2  8  1  0  0  0  0
  3  8  1  0  0  0  0
  4 13  1  0  0  0  0
  4 17  1  0  0  0  0
  5  1  1  0  0  0  0
  6  4  2  0  0  0  0
  7 13  2  0  0  0  0
  8 12  1  1  0  0  0
  9 16  1  0  0  0  0
  9 15  2  0  0  0  0
 10  7  1  0  0  0  0
 10  1  2  0  0  0  0
 11  6  1  0  0  0  0
 11  7  1  0  0  0  0
 13  3  1  0  0  0  0
 14  5  2  0  0  0  0
 15 14  1  0  0  0  0
 15 10  1  0  0  0  0
 16 11  2  0  0  0  0
 17 24  1  6  0  0  0
 18 23  1  0  0  0  0
 19 23  1  0  0  0  0
 20 19  1  0  0  0  0
 20 17  1  1  0  0  0
 21 22  1  0  0  0  0
 21 18  1  0  0  0  0
 22 20  1  0  0  0  0
 24 25  1  0  0  0  0
 25 27  2  0  0  0  0
 25 26  1  0  0  0  0
M  END
>  <MODEL>
3

>  <REMARK>
 VINA RESULT:      -7.9      1.738      3.759
  Name = 
  4 active torsions:
  status: ('A' for Active; 'I' for Inactive)
    1  A    between atoms: C_3  and  C_14
    2  A    between atoms: C_4  and  C_24
    3  A    between atoms: C_9  and  C_14
    4  A    between atoms: C_14  and  C_24
                            x       y       z     vdW  Elec       q    Type
                         _______ _______ _______ _____ _____    ______ ____

>  <TORSDO>
F 4

$$$$
=
 OpenBabel11062422073D

 27 31  0  0  1  0  0  0  0  0999 V2000
  184.9430  177.9850  144.1570 C   0  0  0  0  0  0  0  0  0  0  0  0
  185.0510  177.7510  145.6340 C   0  0  0  0  0  2  0  0  0  0  0  0
  187.2200  176.4920  145.7720 C   0  0  0  0  0  2  0  0  0  0  0  0
  188.8580  175.7860  143.8110 C   0  0  0  0  0  0  0  0  0  0  0  0
  183.8190  178.6270  143.4520 C   0  0  0  0  0  3  0  0  0  0  0  0
  188.8760  175.8640  142.4730 C   0  0  0  0  0  3  0  0  0  0  0  0
  186.9740  176.8760  143.2870 C   0  0  0  0  0  0  0  0  0  0  0  0
  186.4980  177.7910  146.1220 C   0  0  2  0  0  3  0  0  0  0  0  0
  185.9050  177.6080  140.7920 C   0  0  0  0  0  3  0  0  0  0  0  0
  185.7640  177.5570  143.2160 C   0  0  0  0  0  0  0  0  0  0  0  0
  187.6470  176.5680  142.1250 C   0  0  0  0  0  0  0  0  0  0  0  0
  186.5030  177.9630  147.6260 C   0  0  0  0  0  1  0  0  0  0  0  0
  187.6560  176.4500  144.3370 C   0  0  0  0  0  0  0  0  0  0  0  0
  184.0060  178.5870  142.1640 N   0  0  0  0  0  0  0  0  0  0  0  0
  185.2450  177.9120  141.9980 C   0  0  0  0  0  0  0  0  0  0  0  0
  187.1390  176.9180  140.8590 C   0  0  0  0  0  3  0  0  0  0  0  0
  189.9470  175.1960  144.6640 C   0  0  2  0  0  3  0  0  0  0  0  0
  193.5040  176.1480  146.5720 C   0  0  0  0  0  2  0  0  0  0  0  0
  191.0910  176.3750  146.5140 O   0  0  0  0  0  0  0  0  0  0  0  0
  190.9930  176.2310  145.1000 C   0  0  1  0  0  3  0  0  0  0  0  0
  193.4440  176.7350  145.1600 C   0  0  0  0  0  2  0  0  0  0  0  0
  192.3310  176.0820  144.3510 C   0  0  0  0  0  2  0  0  0  0  0  0
  192.1490  175.5830  147.0070 C   0  0  0  0  0  2  0  0  0  0  0  0
  190.5930  173.9840  144.0000 C   0  0  0  0  0  2  0  0  0  0  0  0
  189.7190  172.7830  144.1250 C   0  0  0  0  0  0  0  0  0  0  0  0
  189.0740  172.2740  143.0060 O   0  0  0  0  0  0  0  0  0  0  0  0
  189.5900  172.2120  145.2380 O   0  0  0  0  0  1  0  0  0  0  0  0
  1  2  1  0  0  0  0
  2  8  1  0  0  0  0
  3  8  1  0  0  0  0
  4 13  1  0  0  0  0
  4 17  1  0  0  0  0
  5  1  1  0  0  0  0
  6  4  2  0  0  0  0
  7 13  2  0  0  0  0
  8 12  1  1  0  0  0
  9 16  1  0  0  0  0
  9 15  2  0  0  0  0
 10  7  1  0  0  0  0
 10  1  2  0  0  0  0
 11  6  1  0  0  0  0
 11  7  1  0  0  0  0
 13  3  1  0  0  0  0
 14  5  2  0  0  0  0
 15 14  1  0  0  0  0
 15 10  1  0  0  0  0
 16 11  2  0  0  0  0
 17 24  1  6  0  0  0
 18 23  1  0  0  0  0
 19 23  1  0  0  0  0
 20 17  1  1  0  0  0
 20 19  1  0  0  0  0
 21 18  1  0  0  0  0
 22 20  1  0  0  0  0
 22 21  1  0  0  0  0
 24 25  1  0  0  0  0
 25 27  1  0  0  0  0
 26 25  2  0  0  0  0
M  END
>  <MODEL>
4

>  <REMARK>
 VINA RESULT:      -7.8      1.558      4.161
  Name = 
  4 active torsions:
  status: ('A' for Active; 'I' for Inactive)
    1  A    between atoms: C_3  and  C_14
    2  A    between atoms: C_4  and  C_24
    3  A    between atoms: C_9  and  C_14
    4  A    between atoms: C_14  and  C_24
                            x       y       z     vdW  Elec       q    Type
                         _______ _______ _______ _____ _____    ______ ____

>  <TORSDO>
F 4

$$$$
=
 OpenBabel11062422073D

 27 31  0  0  1  0  0  0  0  0999 V2000
  185.2280  178.4400  144.0140 C   0  0  0  0  0  0  0  0  0  0  0  0
  185.6270  178.6500  142.5850 C   0  0  0  0  0  2  0  0  0  0  0  0
  187.7640  177.3350  142.4740 C   0  0  0  0  0  2  0  0  0  0  0  0
  188.9630  175.9520  144.3920 C   0  0  0  0  0  0  0  0  0  0  0  0
  184.0690  179.0410  144.6970 C   0  0  0  0  0  3  0  0  0  0  0  0
  188.7730  175.7200  145.6990 C   0  0  0  0  0  3  0  0  0  0  0  0
  187.0710  177.0420  144.8860 C   0  0  0  0  0  0  0  0  0  0  0  0
  186.3180  177.4250  141.9900 C   0  0  2  0  0  3  0  0  0  0  0  0
  185.6850  177.3130  147.3170 C   0  0  0  0  0  3  0  0  0  0  0  0
  185.8980  177.7860  144.9450 C   0  0  0  0  0  0  0  0  0  0  0  0
  187.5450  176.4340  146.0290 C   0  0  0  0  0  0  0  0  0  0  0  0
  186.3160  177.5450  140.4810 C   0  0  0  0  0  1  0  0  0  0  0  0
  187.8660  176.7770  143.8630 C   0  0  0  0  0  0  0  0  0  0  0  0
  184.0660  178.7210  145.9600 N   0  0  0  0  0  0  0  0  0  0  0  0
  185.2250  177.9170  146.1320 C   0  0  0  0  0  0  0  0  0  0  0  0
  186.8760  176.5500  147.2630 C   0  0  0  0  0  3  0  0  0  0  0  0
  190.0740  175.3780  143.5580 C   0  0  2  0  0  3  0  0  0  0  0  0
  189.2940  172.7900  140.4130 C   0  0  0  0  0  2  0  0  0  0  0  0
  188.4790  173.8620  142.4290 O   0  0  0  0  0  0  0  0  0  0  0  0
  189.7640  173.9700  143.0330 C   0  0  1  0  0  3  0  0  0  0  0  0
  190.4030  172.2580  141.3230 C   0  0  0  0  0  2  0  0  0  0  0  0
  190.9310  173.3590  142.2320 C   0  0  0  0  0  2  0  0  0  0  0  0
  188.5890  174.0020  141.0300 C   0  0  0  0  0  2  0  0  0  0  0  0
  191.4140  175.4270  144.2870 C   0  0  0  0  0  2  0  0  0  0  0  0
  192.1070  176.7220  144.0350 C   0  0  0  0  0  0  0  0  0  0  0  0
  193.0890  177.1660  144.9100 O   0  0  0  0  0  1  0  0  0  0  0  0
  191.8240  177.3980  143.0130 O   0  0  0  0  0  0  0  0  0  0  0  0
  1  5  2  0  0  0  0
  1 10  1  0  0  0  0
  2  1  1  0  0  0  0
  3 13  1  0  0  0  0
  4  6  1  0  0  0  0
  5 14  1  0  0  0  0
  6 11  2  0  0  0  0
  7 10  2  0  0  0  0
  7 11  1  0  0  0  0
  8 12  1  6  0  0  0
  8  3  1  0  0  0  0
  8  2  1  0  0  0  0
 10 15  1  0  0  0  0
 11 16  1  0  0  0  0
 13  4  2  0  0  0  0
 13  7  1  0  0  0  0
 14 15  2  0  0  0  0
 15  9  1  0  0  0  0
 16  9  2  0  0  0  0
 17 24  1  1  0  0  0
 17  4  1  0  0  0  0
 18 23  1  0  0  0  0
 18 21  1  0  0  0  0
 19 20  1  0  0  0  0
 20 17  1  6  0  0  0
 21 22  1  0  0  0  0
 22 20  1  0  0  0  0
 23 19  1  0  0  0  0
 25 24  1  0  0  0  0
 25 26  1  0  0  0  0
 27 25  2  0  0  0  0
M  END
>  <MODEL>
5

>  <REMARK>
 VINA RESULT:      -7.7      1.629      1.978
  Name = 
  4 active torsions:
  status: ('A' for Active; 'I' for Inactive)
    1  A    between atoms: C_3  and  C_14
    2  A    between atoms: C_4  and  C_24
    3  A    between atoms: C_9  and  C_14
    4  A    between atoms: C_14  and  C_24
                            x       y       z     vdW  Elec       q    Type
                         _______ _______ _______ _____ _____    ______ ____

>  <TORSDO>
F 4

$$$$
=
 OpenBabel11062422073D

 27 31  0  0  1  0  0  0  0  0999 V2000
  191.6780  175.1030  145.6490 C   0  0  0  0  0  0  0  0  0  0  0  0
  191.5370  176.3960  146.3940 C   0  0  0  0  0  2  0  0  0  0  0  0
  189.4980  177.3730  145.3000 C   0  0  0  0  0  2  0  0  0  0  0  0
  188.0140  176.3590  143.3520 C   0  0  0  0  0  0  0  0  0  0  0  0
  192.7590  174.1140  145.8070 C   0  0  0  0  0  3  0  0  0  0  0  0
  188.0390  175.2760  142.5620 C   0  0  0  0  0  3  0  0  0  0  0  0
  189.8000  175.2010  144.0440 C   0  0  0  0  0  0  0  0  0  0  0  0
  190.0760  176.7950  146.5900 C   0  0  2  0  0  3  0  0  0  0  0  0
  190.8870  172.7740  143.1310 C   0  0  0  0  0  3  0  0  0  0  0  0
  190.9400  174.6740  144.6420 C   0  0  0  0  0  0  0  0  0  0  0  0
  189.2060  174.5200  143.0040 C   0  0  0  0  0  0  0  0  0  0  0  0
  189.9970  177.8490  147.6740 C   0  0  0  0  0  1  0  0  0  0  0  0
  189.1240  176.3050  144.3150 C   0  0  0  0  0  0  0  0  0  0  0  0
  192.6270  173.1500  144.9420 N   0  0  0  0  0  0  0  0  0  0  0  0
  191.4670  173.4910  144.1940 C   0  0  0  0  0  0  0  0  0  0  0  0
  189.7250  173.3030  142.5210 C   0  0  0  0  0  3  0  0  0  0  0  0
  186.9570  177.4280  143.3310 C   0  0  2  0  0  3  0  0  0  0  0  0
  184.0280  178.7250  145.9650 C   0  0  0  0  0  2  0  0  0  0  0  0
  186.0890  179.2260  144.7920 O   0  0  0  0  0  0  0  0  0  0  0  0
  186.5250  177.8710  144.7350 C   0  0  1  0  0  3  0  0  0  0  0  0
  184.8120  177.5390  146.5290 C   0  0  0  0  0  2  0  0  0  0  0  0
  185.6080  176.8460  145.4310 C   0  0  0  0  0  2  0  0  0  0  0  0
  184.6830  179.2850  144.6990 C   0  0  0  0  0  2  0  0  0  0  0  0
  185.7610  177.0260  142.4720 C   0  0  0  0  0  2  0  0  0  0  0  0
  185.6980  177.8510  141.2330 C   0  0  0  0  0  0  0  0  0  0  0  0
  186.7330  177.7980  140.3100 O   0  0  0  0  0  0  0  0  0  0  0  0
  184.6920  178.5730  141.0080 O   0  0  0  0  0  1  0  0  0  0  0  0
  1  5  1  0  0  0  0
  1  2  1  0  0  0  0
  2  8  1  0  0  0  0
  3  8  1  0  0  0  0
  4 13  1  0  0  0  0
  6 11  1  0  0  0  0
  6  4  2  0  0  0  0
  7 13  2  0  0  0  0
  7 10  1  0  0  0  0
  8 12  1  1  0  0  0
  9 15  2  0  0  0  0
 10  1  2  0  0  0  0
 11  7  1  0  0  0  0
 13  3  1  0  0  0  0
 14  5  2  0  0  0  0
 15 10  1  0  0  0  0
 15 14  1  0  0  0  0
 16 11  2  0  0  0  0
 16  9  1  0  0  0  0
 17 24  1  1  0  0  0
 17  4  1  0  0  0  0
 18 21  1  0  0  0  0
 20 17  1  6  0  0  0
 20 19  1  0  0  0  0
 20 22  1  0  0  0  0
 22 21  1  0  0  0  0
 23 19  1  0  0  0  0
 23 18  1  0  0  0  0
 25 24  1  0  0  0  0
 26 25  2  0  0  0  0
 27 25  1  0  0  0  0
M  END
>  <MODEL>
6

>  <REMARK>
 VINA RESULT:      -7.4      3.370      7.171
  Name = 
  4 active torsions:
  status: ('A' for Active; 'I' for Inactive)
    1  A    between atoms: C_3  and  C_14
    2  A    between atoms: C_4  and  C_24
    3  A    between atoms: C_9  and  C_14
    4  A    between atoms: C_14  and  C_24
                            x       y       z     vdW  Elec       q    Type
                         _______ _______ _______ _____ _____    ______ ____

>  <TORSDO>
F 4

$$$$
=
 OpenBabel11062422073D

 27 31  0  0  1  0  0  0  0  0999 V2000
  185.3990  177.7710  142.5690 C   0  0  0  0  0  0  0  0  0  0  0  0
  186.3050  177.2680  141.4870 C   0  0  0  0  0  2  0  0  0  0  0  0
  188.3970  176.7800  142.7890 C   0  0  0  0  0  2  0  0  0  0  0  0
  188.8460  177.0840  145.3830 C   0  0  0  0  0  0  0  0  0  0  0  0
  184.0290  178.2880  142.3940 C   0  0  0  0  0  3  0  0  0  0  0  0
  188.1800  177.5640  146.4440 C   0  0  0  0  0  3  0  0  0  0  0  0
  186.8440  177.6740  144.5710 C   0  0  0  0  0  0  0  0  0  0  0  0
  187.2490  176.1750  141.9840 C   0  0  2  0  0  3  0  0  0  0  0  0
  184.6120  178.8240  145.8340 C   0  0  0  0  0  3  0  0  0  0  0  0
  185.6960  177.9580  143.8410 C   0  0  0  0  0  0  0  0  0  0  0  0
  186.8770  177.9560  145.9190 C   0  0  0  0  0  0  0  0  0  0  0  0
  187.8230  175.4420  140.7910 C   0  0  0  0  0  1  0  0  0  0  0  0
  187.9890  177.1320  144.1890 C   0  0  0  0  0  0  0  0  0  0  0  0
  183.5590  178.7270  143.5260 N   0  0  0  0  0  0  0  0  0  0  0  0
  184.6090  178.5190  144.4600 C   0  0  0  0  0  0  0  0  0  0  0  0
  185.7770  178.5330  146.5830 C   0  0  0  0  0  3  0  0  0  0  0  0
  190.2270  176.4920  145.4170 C   0  0  2  0  0  3  0  0  0  0  0  0
  193.6740  176.0530  143.1520 C   0  0  0  0  0  2  0  0  0  0  0  0
  192.1430  177.5620  144.2740 O   0  0  0  0  0  0  0  0  0  0  0  0
  191.0080  176.7180  144.1150 C   0  0  1  0  0  3  0  0  0  0  0  0
  192.4300  175.6010  142.3850 C   0  0  0  0  0  2  0  0  0  0  0  0
  191.2500  175.4140  143.3290 C   0  0  0  0  0  2  0  0  0  0  0  0
  193.3040  176.7810  144.4480 C   0  0  0  0  0  2  0  0  0  0  0  0
  190.2040  175.0200  145.8150 C   0  0  0  0  0  2  0  0  0  0  0  0
  190.0150  174.8720  147.2850 C   0  0  0  0  0  0  0  0  0  0  0  0
  191.0050  175.3010  148.1600 O   0  0  0  0  0  1  0  0  0  0  0  0
  188.9460  174.3870  147.7370 O   0  0  0  0  0  0  0  0  0  0  0  0
  1 10  1  0  0  0  0
  2  8  1  0  0  0  0
  2  1  1  0  0  0  0
  3 13  1  0  0  0  0
  4 17  1  0  0  0  0
  4  6  1  0  0  0  0
  5  1  2  0  0  0  0
  5 14  1  0  0  0  0
  7 11  1  0  0  0  0
  8 12  1  6  0  0  0
  8  3  1  0  0  0  0
  9 16  2  0  0  0  0
 10 15  1  0  0  0  0
 10  7  2  0  0  0  0
 11  6  2  0  0  0  0
 11 16  1  0  0  0  0
 13  7  1  0  0  0  0
 13  4  2  0  0  0  0
 14 15  2  0  0  0  0
 15  9  1  0  0  0  0
 17 24  1  6  0  0  0
 18 23  1  0  0  0  0
 19 23  1  0  0  0  0
 20 19  1  0  0  0  0
 20 17  1  1  0  0  0
 21 18  1  0  0  0  0
 21 22  1  0  0  0  0
 22 20  1  0  0  0  0
 24 25  1  0  0  0  0
 25 27  2  0  0  0  0
 25 26  1  0  0  0  0
M  END
>  <MODEL>
7

>  <REMARK>
 VINA RESULT:      -7.3      1.763      2.499
  Name = 
  4 active torsions:
  status: ('A' for Active; 'I' for Inactive)
    1  A    between atoms: C_3  and  C_14
    2  A    between atoms: C_4  and  C_24
    3  A    between atoms: C_9  and  C_14
    4  A    between atoms: C_14  and  C_24
                            x       y       z     vdW  Elec       q    Type
                         _______ _______ _______ _____ _____    ______ ____

>  <TORSDO>
F 4

$$$$
=
 OpenBabel11062422073D

 27 31  0  0  1  0  0  0  0  0999 V2000
  186.6130  177.3740  146.6230 C   0  0  0  0  0  0  0  0  0  0  0  0
  187.3690  176.2290  147.2260 C   0  0  0  0  0  2  0  0  0  0  0  0
  188.7330  175.4560  145.2630 C   0  0  0  0  0  2  0  0  0  0  0  0
  188.7950  176.4310  142.7990 C   0  0  0  0  0  0  0  0  0  0  0  0
  185.5810  178.1900  147.2890 C   0  0  0  0  0  3  0  0  0  0  0  0
  188.1560  177.3830  142.1050 C   0  0  0  0  0  3  0  0  0  0  0  0
  187.4050  177.3690  144.2820 C   0  0  0  0  0  0  0  0  0  0  0  0
  188.7770  176.0980  146.6480 C   0  0  2  0  0  3  0  0  0  0  0  0
  185.5380  179.4510  143.9930 C   0  0  0  0  0  3  0  0  0  0  0  0
  186.6400  177.7810  145.3680 C   0  0  0  0  0  0  0  0  0  0  0  0
  187.2430  177.9940  143.0640 C   0  0  0  0  0  0  0  0  0  0  0  0
  189.6030  175.2210  147.5660 C   0  0  0  0  0  1  0  0  0  0  0  0
  188.3350  176.4320  144.1950 C   0  0  0  0  0  0  0  0  0  0  0  0
  185.0620  179.0410  146.4520 N   0  0  0  0  0  0  0  0  0  0  0  0
  185.7300  178.7960  145.2230 C   0  0  0  0  0  0  0  0  0  0  0  0
  186.3160  179.0390  142.8840 C   0  0  0  0  0  3  0  0  0  0  0  0
  189.8910  175.5510  142.2650 C   0  0  2  0  0  3  0  0  0  0  0  0
  190.6140  171.7800  140.6980 C   0  0  0  0  0  2  0  0  0  0  0  0
  189.5250  173.9300  140.4320 O   0  0  0  0  0  0  0  0  0  0  0  0
  189.3900  174.1670  141.8300 C   0  0  1  0  0  3  0  0  0  0  0  0
  189.8220  171.7080  142.0050 C   0  0  0  0  0  2  0  0  0  0  0  0
  189.8870  173.0350  142.7500 C   0  0  0  0  0  2  0  0  0  0  0  0
  190.7150  173.2170  140.1760 C   0  0  0  0  0  2  0  0  0  0  0  0
  191.0610  175.4490  143.2380 C   0  0  0  0  0  2  0  0  0  0  0  0
  192.0090  176.5830  143.0480 C   0  0  0  0  0  0  0  0  0  0  0  0
  191.7430  177.8160  143.6290 O   0  0  0  0  0  1  0  0  0  0  0  0
  193.0660  176.4160  142.3870 O   0  0  0  0  0  0  0  0  0  0  0  0
  1  2  1  0  0  0  0
  1  5  1  0  0  0  0
  3  8  1  0  0  0  0
  4 13  1  0  0  0  0
  6  4  2  0  0  0  0
  6 11  1  0  0  0  0
  7 10  1  0  0  0  0
  8  2  1  0  0  0  0
  8 12  1  1  0  0  0
  9 15  2  0  0  0  0
 10  1  2  0  0  0  0
 11  7  1  0  0  0  0
 13  7  2  0  0  0  0
 13  3  1  0  0  0  0
 14  5  2  0  0  0  0
 15 10  1  0  0  0  0
 15 14  1  0  0  0  0
 16 11  2  0  0  0  0
 16  9  1  0  0  0  0
 17  4  1  0  0  0  0
 17 24  1  1  0  0  0
 18 21  1  0  0  0  0
 19 20  1  0  0  0  0
 20 17  1  1  0  0  0
 20 22  1  0  0  0  0
 21 22  1  0  0  0  0
 23 19  1  0  0  0  0
 23 18  1  0  0  0  0
 25 24  1  0  0  0  0
 25 26  1  0  0  0  0
 27 25  2  0  0  0  0
M  END
>  <MODEL>
8

>  <REMARK>
 VINA RESULT:      -7.2      1.850      3.509
  Name = 
  4 active torsions:
  status: ('A' for Active; 'I' for Inactive)
    1  A    between atoms: C_3  and  C_14
    2  A    between atoms: C_4  and  C_24
    3  A    between atoms: C_9  and  C_14
    4  A    between atoms: C_14  and  C_24
                            x       y       z     vdW  Elec       q    Type
                         _______ _______ _______ _____ _____    ______ ____

>  <TORSDO>
F 4

$$$$
=
 OpenBabel11062422073D

 27 31  0  0  1  0  0  0  0  0999 V2000
  191.8900  175.8420  146.5270 C   0  0  0  0  0  0  0  0  0  0  0  0
  190.7900  175.5750  147.5080 C   0  0  0  0  0  2  0  0  0  0  0  0
  188.7900  176.4140  146.2410 C   0  0  0  0  0  2  0  0  0  0  0  0
  188.6880  177.4790  143.8160 C   0  0  0  0  0  0  0  0  0  0  0  0
  193.3310  175.6190  146.7440 C   0  0  0  0  0  3  0  0  0  0  0  0
  189.5630  177.8310  142.8620 C   0  0  0  0  0  3  0  0  0  0  0  0
  190.6850  176.8820  144.6360 C   0  0  0  0  0  0  0  0  0  0  0  0
  189.4830  175.1830  146.8200 C   0  0  2  0  0  3  0  0  0  0  0  0
  193.2680  177.1400  143.5590 C   0  0  0  0  0  3  0  0  0  0  0  0
  191.7890  176.4320  145.3500 C   0  0  0  0  0  0  0  0  0  0  0  0
  190.8670  177.4510  143.3940 C   0  0  0  0  0  0  0  0  0  0  0  0
  188.5660  174.5410  147.8390 C   0  0  0  0  0  1  0  0  0  0  0  0
  189.3980  176.8530  144.9410 C   0  0  0  0  0  0  0  0  0  0  0  0
  194.0180  176.0430  145.7220 N   0  0  0  0  0  0  0  0  0  0  0  0
  193.0480  176.5600  144.8220 C   0  0  0  0  0  0  0  0  0  0  0  0
  192.1470  177.5960  142.8250 C   0  0  0  0  0  3  0  0  0  0  0  0
  187.1940  177.6110  143.7180 C   0  0  2  0  0  3  0  0  0  0  0  0
  183.8770  179.0310  145.7630 C   0  0  0  0  0  2  0  0  0  0  0  0
  185.9690  179.5470  144.6510 O   0  0  0  0  0  0  0  0  0  0  0  0
  186.5710  178.2910  144.9450 C   0  0  1  0  0  3  0  0  0  0  0  0
  184.7400  178.1260  146.6430 C   0  0  0  0  0  2  0  0  0  0  0  0
  185.7230  177.3270  145.7980 C   0  0  0  0  0  2  0  0  0  0  0  0
  184.5830  179.3820  144.4490 C   0  0  0  0  0  2  0  0  0  0  0  0
  186.5250  176.2740  143.4130 C   0  0  0  0  0  2  0  0  0  0  0  0
  187.0670  175.6870  142.1540 C   0  0  0  0  0  0  0  0  0  0  0  0
  187.0240  176.4160  140.9730 O   0  0  0  0  0  0  0  0  0  0  0  0
  187.5910  174.5440  142.1680 O   0  0  0  0  0  1  0  0  0  0  0  0
  1  5  1  0  0  0  0
  1  2  1  0  0  0  0
  3  8  1  0  0  0  0
  4 13  1  0  0  0  0
  6 11  1  0  0  0  0
  6  4  2  0  0  0  0
  7 13  2  0  0  0  0
  7 10  1  0  0  0  0
  8  2  1  0  0  0  0
  8 12  1  1  0  0  0
  9 15  2  0  0  0  0
 10  1  2  0  0  0  0
 11  7  1  0  0  0  0
 13  3  1  0  0  0  0
 14  5  2  0  0  0  0
 15 10  1  0  0  0  0
 15 14  1  0  0  0  0
 16 11  2  0  0  0  0
 16  9  1  0  0  0  0
 17 24  1  1  0  0  0
 17  4  1  0  0  0  0
 18 21  1  0  0  0  0
 19 20  1  0  0  0  0
 20 17  1  6  0  0  0
 20 22  1  0  0  0  0
 22 21  1  0  0  0  0
 23 19  1  0  0  0  0
 23 18  1  0  0  0  0
 25 27  1  0  0  0  0
 25 24  1  0  0  0  0
 26 25  2  0  0  0  0
M  END
>  <MODEL>
9

>  <REMARK>
 VINA RESULT:      -7.2      3.401      7.034
  Name = 
  4 active torsions:
  status: ('A' for Active; 'I' for Inactive)
    1  A    between atoms: C_3  and  C_14
    2  A    between atoms: C_4  and  C_24
    3  A    between atoms: C_9  and  C_14
    4  A    between atoms: C_14  and  C_24
                            x       y       z     vdW  Elec       q    Type
                         _______ _______ _______ _____ _____    ______ ____

>  <TORSDO>
F 4

$$$$
