=
 OpenBabel11072408463D

 36 40  0  0  1  0  0  0  0  0999 V2000
  195.3770  174.7310  141.6480 C   0  0  0  0  0  0  0  0  0  0  0  0
  195.6410  175.2880  137.6080 O   0  0  0  0  0  0  0  0  0  0  0  0
  190.7290  175.8510  147.3690 C   0  0  0  0  0  2  0  0  0  0  0  0
  193.2780  175.0290  143.8880 C   0  0  0  0  0  0  0  0  0  0  0  0
  192.7070  175.0810  146.3870 C   0  0  0  0  0  2  0  0  0  0  0  0
  192.4420  175.3760  144.9400 C   0  0  0  0  0  0  0  0  0  0  0  0
  192.1520  176.1130  147.2520 N   0  0  0  0  0  2  0  0  0  0  0  0
  194.2800  175.0320  140.9200 C   0  0  0  0  0  0  0  0  0  0  0  0
  192.5280  175.1850  142.7320 C   0  0  0  0  0  0  0  0  0  0  0  0
  196.7370  174.9180  141.0280 C   0  0  2  0  0  3  0  0  0  0  0  0
  197.9410  174.7120  138.9300 O   0  0  0  0  0  1  0  0  0  0  0  0
  194.4120  175.3400  139.5570 O   0  0  0  0  0  0  0  0  0  0  0  0
  197.0620  176.2810  141.0890 O   0  0  0  0  0  1  0  0  0  0  0  0
  194.5160  174.5560  144.0190 C   0  0  0  0  0  3  0  0  0  0  0  0
  195.5840  175.0580  138.8460 C   0  0  0  0  0  0  0  0  0  0  0  0
  192.9140  175.1220  141.4570 C   0  0  0  0  0  3  0  0  0  0  0  0
  195.3080  173.9400  142.9150 C   0  0  0  0  0  2  0  0  0  0  0  0
  191.2170  175.6770  144.3530 C   0  0  0  0  0  0  0  0  0  0  0  0
  196.7300  174.4280  139.5690 C   0  0  2  0  0  3  0  0  0  0  0  0
  189.9900  176.6950  146.3510 C   0  0  0  0  0  2  0  0  0  0  0  0
  190.0020  176.1070  145.0050 N   0  0  0  0  0  0  0  0  0  0  0  0
  191.3050  175.5260  143.0480 O   0  0  0  0  0  0  0  0  0  0  0  0
  188.9170  176.5000  144.1040 C   0  0  2  0  0  3  0  0  0  0  0  0
  187.0750  175.4870  142.6130 C   0  0  0  0  0  2  0  0  0  0  0  0
  187.7140  177.0310  144.8910 C   0  0  0  0  0  2  0  0  0  0  0  0
  186.5830  176.9100  142.6630 C   0  0  0  0  0  0  0  0  0  0  0  0
  186.6950  177.7030  143.9510 C   0  0  1  0  0  3  0  0  0  0  0  0
  188.5230  175.3680  143.1380 C   0  0  0  0  0  2  0  0  0  0  0  0
  186.1690  177.4450  141.6440 O   0  0  0  0  0  0  0  0  0  0  0  0
  185.3330  177.8450  144.6560 C   0  0  1  0  0  3  0  0  0  0  0  0
  185.1570  176.5750  146.6460 O   0  0  0  0  0  0  0  0  0  0  0  0
  185.8900  178.7980  146.9880 C   0  0  0  0  0  1  0  0  0  0  0  0
  185.4350  177.6540  146.1340 C   0  0  0  0  0  0  0  0  0  0  0  0
  184.6880  179.1700  144.3730 C   0  0  0  0  0  0  0  0  0  0  0  0
  183.4400  179.2960  144.4800 O   0  0  0  0  0  1  0  0  0  0  0  0
  185.4670  180.2630  144.0010 O   0  0  0  0  0  0  0  0  0  0  0  0
  1 17  1  0  0  0  0
  2 15  2  0  0  0  0
  4 14  2  0  0  0  0
  4  6  1  0  0  0  0
  5  7  1  0  0  0  0
  6  5  1  0  0  0  0
  7  3  1  0  0  0  0
  8 16  1  0  0  0  0
  8  1  2  0  0  0  0
  9 22  1  0  0  0  0
  9  4  1  0  0  0  0
 10 13  1  6  0  0  0
 10  1  1  0  0  0  0
 12  8  1  0  0  0  0
 15 12  1  0  0  0  0
 15 19  1  0  0  0  0
 16  9  2  0  0  0  0
 17 14  1  0  0  0  0
 18  6  2  0  0  0  0
 18 21  1  0  0  0  0
 19 11  1  6  0  0  0
 19 10  1  0  0  0  0
 20  3  1  0  0  0  0
 21 20  1  0  0  0  0
 22 18  1  0  0  0  0
 23 28  1  1  0  0  0
 23 25  1  0  0  0  0
 23 21  1  0  0  0  0
 24 26  1  0  0  0  0
 24 28  1  0  0  0  0
 26 27  1  0  0  0  0
 27 30  1  1  0  0  0
 27 25  1  0  0  0  0
 29 26  2  0  0  0  0
 30 34  1  1  0  0  0
 30 33  1  0  0  0  0
 33 31  2  0  0  0  0
 33 32  1  0  0  0  0
 34 35  1  0  0  0  0
 36 34  2  0  0  0  0
M  END
>  <MODEL>
1

>  <REMARK>
 VINA RESULT:      -8.1      0.000      0.000
  Name = 
  4 active torsions:
  status: ('A' for Active; 'I' for Inactive)
    1  A    between atoms: C_2  and  N_34
    2  A    between atoms: C_10  and  C_11
    3  A    between atoms: C_10  and  C_19
    4  A    between atoms: C_10  and  C_28
                            x       y       z     vdW  Elec       q    Type
                         _______ _______ _______ _____ _____    ______ ____

>  <TORSDO>
F 4

$$$$
=
 OpenBabel11072408463D

 36 40  0  0  1  0  0  0  0  0999 V2000
  191.5890  172.3230  141.8630 C   0  0  0  0  0  0  0  0  0  0  0  0
  189.2820  171.4100  138.6150 O   0  0  0  0  0  0  0  0  0  0  0  0
  191.5520  176.5500  148.0030 C   0  0  0  0  0  2  0  0  0  0  0  0
  191.3540  173.9320  144.4840 C   0  0  0  0  0  0  0  0  0  0  0  0
  192.4700  174.9680  146.5460 C   0  0  0  0  0  2  0  0  0  0  0  0
  191.3650  174.8300  145.5410 C   0  0  0  0  0  0  0  0  0  0  0  0
  192.5950  176.3410  147.0150 N   0  0  0  0  0  2  0  0  0  0  0  0
  190.2830  172.6640  141.8260 C   0  0  0  0  0  0  0  0  0  0  0  0
  190.0490  173.9020  144.0150 C   0  0  0  0  0  0  0  0  0  0  0  0
  192.2680  171.8980  140.5870 C   0  0  2  0  0  3  0  0  0  0  0  0
  191.8940  170.6740  138.5230 O   0  0  0  0  0  1  0  0  0  0  0  0
  189.5410  172.4520  140.6540 O   0  0  0  0  0  0  0  0  0  0  0  0
  192.5830  173.0500  139.8540 O   0  0  0  0  0  1  0  0  0  0  0  0
  192.3950  173.1960  144.0950 C   0  0  0  0  0  3  0  0  0  0  0  0
  190.0070  171.6290  139.6230 C   0  0  0  0  0  0  0  0  0  0  0  0
  189.5540  173.3130  142.9260 C   0  0  0  0  0  3  0  0  0  0  0  0
  192.3130  172.0500  143.1430 C   0  0  0  0  0  2  0  0  0  0  0  0
  190.0460  175.2560  145.6750 C   0  0  0  0  0  0  0  0  0  0  0  0
  191.3420  170.9750  139.7720 C   0  0  2  0  0  3  0  0  0  0  0  0
  190.3540  177.1830  147.3260 C   0  0  0  0  0  2  0  0  0  0  0  0
  189.5130  176.2050  146.6240 N   0  0  0  0  0  0  0  0  0  0  0  0
  189.2980  174.6630  144.7690 O   0  0  0  0  0  0  0  0  0  0  0  0
  188.1100  176.5700  146.4180 C   0  0  2  0  0  3  0  0  0  0  0  0
  186.3620  178.3230  147.1370 C   0  0  0  0  0  2  0  0  0  0  0  0
  187.9060  177.2160  145.0440 C   0  0  0  0  0  2  0  0  0  0  0  0
  185.6340  177.7320  145.9580 C   0  0  0  0  0  0  0  0  0  0  0  0
  186.4070  177.3400  144.7120 C   0  0  1  0  0  3  0  0  0  0  0  0
  187.5630  177.4470  147.5590 C   0  0  0  0  0  2  0  0  0  0  0  0
  184.4370  177.4970  146.0390 O   0  0  0  0  0  0  0  0  0  0  0  0
  186.1960  178.3480  143.5670 C   0  0  1  0  0  3  0  0  0  0  0  0
  186.4690  178.4450  141.2170 O   0  0  0  0  0  0  0  0  0  0  0  0
  186.6910  176.2700  142.1210 C   0  0  0  0  0  1  0  0  0  0  0  0
  186.4500  177.7450  142.2240 C   0  0  0  0  0  0  0  0  0  0  0  0
  184.8190  178.9440  143.5880 C   0  0  0  0  0  0  0  0  0  0  0  0
  184.6340  180.0760  144.1080 O   0  0  0  0  0  1  0  0  0  0  0  0
  183.7490  178.2540  143.0250 O   0  0  0  0  0  0  0  0  0  0  0  0
  1 17  1  0  0  0  0
  2 15  2  0  0  0  0
  4  6  1  0  0  0  0
  5  7  1  0  0  0  0
  6 18  2  0  0  0  0
  6  5  1  0  0  0  0
  7  3  1  0  0  0  0
  8  1  2  0  0  0  0
  8 16  1  0  0  0  0
  9  4  1  0  0  0  0
  9 22  1  0  0  0  0
 10 13  1  6  0  0  0
 10  1  1  0  0  0  0
 12  8  1  0  0  0  0
 14  4  2  0  0  0  0
 15 19  1  0  0  0  0
 15 12  1  0  0  0  0
 16  9  2  0  0  0  0
 17 14  1  0  0  0  0
 18 21  1  0  0  0  0
 19 11  1  6  0  0  0
 19 10  1  0  0  0  0
 20  3  1  0  0  0  0
 21 20  1  0  0  0  0
 22 18  1  0  0  0  0
 23 25  1  6  0  0  0
 23 21  1  0  0  0  0
 23 28  1  0  0  0  0
 24 28  1  0  0  0  0
 26 29  2  0  0  0  0
 26 24  1  0  0  0  0
 27 30  1  6  0  0  0
 27 25  1  0  0  0  0
 27 26  1  0  0  0  0
 30 33  1  6  0  0  0
 30 34  1  0  0  0  0
 31 33  2  0  0  0  0
 32 33  1  0  0  0  0
 34 35  1  0  0  0  0
 36 34  2  0  0  0  0
M  END
>  <MODEL>
2

>  <REMARK>
 VINA RESULT:      -7.9      2.777      4.051
  Name = 
  4 active torsions:
  status: ('A' for Active; 'I' for Inactive)
    1  A    between atoms: C_2  and  N_34
    2  A    between atoms: C_10  and  C_11
    3  A    between atoms: C_10  and  C_19
    4  A    between atoms: C_10  and  C_28
                            x       y       z     vdW  Elec       q    Type
                         _______ _______ _______ _____ _____    ______ ____

>  <TORSDO>
F 4

$$$$
=
 OpenBabel11072408463D

 36 40  0  0  1  0  0  0  0  0999 V2000
  186.7850  176.7000  144.2230 C   0  0  0  0  0  0  0  0  0  0  0  0
  186.7630  178.5480  147.8680 O   0  0  0  0  0  0  0  0  0  0  0  0
  191.2490  172.7470  139.7480 C   0  0  0  0  0  2  0  0  0  0  0  0
  188.6440  174.8770  142.5690 C   0  0  0  0  0  0  0  0  0  0  0  0
  189.2250  173.7590  140.3360 C   0  0  0  0  0  2  0  0  0  0  0  0
  189.5460  174.2620  141.7130 C   0  0  0  0  0  0  0  0  0  0  0  0
  190.3730  173.8660  139.4480 N   0  0  0  0  0  2  0  0  0  0  0  0
  187.7590  176.4550  145.1270 C   0  0  2  0  0  3  0  0  0  0  0  0
  189.2430  174.8840  143.8200 C   0  0  0  0  0  0  0  0  0  0  0  0
  185.8790  177.8860  144.4300 C   0  0  2  0  0  3  0  0  0  0  0  0
  184.7490  179.1660  146.1560 O   0  0  0  0  0  1  0  0  0  0  0  0
  187.8000  177.1910  146.3210 O   0  0  0  0  0  0  0  0  0  0  0  0
  186.5630  179.0370  144.0150 O   0  0  0  0  0  1  0  0  0  0  0  0
  187.4200  175.2780  142.2300 C   0  0  0  0  0  3  0  0  0  0  0  0
  186.7120  177.9550  146.7570 C   0  0  0  0  0  0  0  0  0  0  0  0
  188.8510  175.4890  144.9430 C   0  0  0  0  0  3  0  0  0  0  0  0
  186.3650  175.6920  143.2010 C   0  0  0  0  0  3  0  0  0  0  0  0
  190.6210  173.8920  142.5150 C   0  0  0  0  0  0  0  0  0  0  0  0
  185.4790  177.9980  145.9130 C   0  0  2  0  0  3  0  0  0  0  0  0
  192.3120  173.2050  140.7260 C   0  0  0  0  0  2  0  0  0  0  0  0
  191.8380  173.2240  142.1160 N   0  0  0  0  0  0  0  0  0  0  0  0
  190.3890  174.2560  143.7590 O   0  0  0  0  0  0  0  0  0  0  0  0
  192.8570  173.1080  143.1610 C   0  0  2  0  0  3  0  0  0  0  0  0
  195.2920  172.3420  143.5190 C   0  0  0  0  0  2  0  0  0  0  0  0
  193.4430  174.4790  143.5130 C   0  0  0  0  0  2  0  0  0  0  0  0
  195.0940  173.1090  144.8000 C   0  0  0  0  0  0  0  0  0  0  0  0
  194.2970  174.4000  144.7920 C   0  0  1  0  0  3  0  0  0  0  0  0
  193.9500  172.0860  142.7970 C   0  0  0  0  0  2  0  0  0  0  0  0
  195.5080  172.6470  145.8540 O   0  0  0  0  0  0  0  0  0  0  0  0
  195.2090  175.6360  144.9010 C   0  0  1  0  0  3  0  0  0  0  0  0
  195.2550  176.5360  142.7120 O   0  0  0  0  0  0  0  0  0  0  0  0
  197.3150  175.6060  143.4120 C   0  0  0  0  0  1  0  0  0  0  0  0
  195.8740  175.9680  143.6060 C   0  0  0  0  0  0  0  0  0  0  0  0
  194.4660  176.8410  145.3990 C   0  0  0  0  0  0  0  0  0  0  0  0
  195.0880  177.9130  145.6240 O   0  0  0  0  0  1  0  0  0  0  0  0
  193.0900  176.7810  145.6020 O   0  0  0  0  0  0  0  0  0  0  0  0
  1 10  1  0  0  0  0
  1  8  1  0  0  0  0
  3 20  1  0  0  0  0
  4  9  1  0  0  0  0
  5  6  1  0  0  0  0
  6 18  2  0  0  0  0
  6  4  1  0  0  0  0
  7  3  1  0  0  0  0
  7  5  1  0  0  0  0
  8 16  1  6  0  0  0
  8 12  1  0  0  0  0
  9 16  2  0  0  0  0
 10 13  1  1  0  0  0
 10 19  1  0  0  0  0
 12 15  1  0  0  0  0
 14  4  2  0  0  0  0
 14 17  1  0  0  0  0
 15  2  2  0  0  0  0
 17  1  2  0  0  0  0
 18 22  1  0  0  0  0
 19 11  1  6  0  0  0
 19 15  1  0  0  0  0
 20 21  1  0  0  0  0
 21 18  1  0  0  0  0
 22  9  1  0  0  0  0
 23 21  1  6  0  0  0
 23 25  1  0  0  0  0
 24 26  1  0  0  0  0
 25 27  1  0  0  0  0
 26 29  2  0  0  0  0
 27 26  1  0  0  0  0
 27 30  1  6  0  0  0
 28 23  1  0  0  0  0
 28 24  1  0  0  0  0
 30 33  1  6  0  0  0
 30 34  1  0  0  0  0
 31 33  2  0  0  0  0
 32 33  1  0  0  0  0
 34 36  2  0  0  0  0
 34 35  1  0  0  0  0
M  END
>  <MODEL>
3

>  <REMARK>
 VINA RESULT:      -7.8      2.659      9.196
  Name = 
  4 active torsions:
  status: ('A' for Active; 'I' for Inactive)
    1  A    between atoms: C_2  and  N_34
    2  A    between atoms: C_10  and  C_11
    3  A    between atoms: C_10  and  C_19
    4  A    between atoms: C_10  and  C_28
                            x       y       z     vdW  Elec       q    Type
                         _______ _______ _______ _____ _____    ______ ____

>  <TORSDO>
F 4

$$$$
=
 OpenBabel11072408463D

 36 40  0  0  1  0  0  0  0  0999 V2000
  187.2850  177.6860  145.7450 C   0  0  0  0  0  0  0  0  0  0  0  0
  184.0310  178.2860  143.3460 O   0  0  0  0  0  0  0  0  0  0  0  0
  194.0970  174.6580  145.6330 C   0  0  0  0  0  2  0  0  0  0  0  0
  190.1660  176.6110  145.5020 C   0  0  0  0  0  0  0  0  0  0  0  0
  192.3320  175.8280  146.6270 C   0  0  0  0  0  2  0  0  0  0  0  0
  191.3700  175.9220  145.4800 C   0  0  0  0  0  0  0  0  0  0  0  0
  193.0410  174.5560  146.6250 N   0  0  0  0  0  2  0  0  0  0  0  0
  187.3710  177.5080  144.4080 C   0  0  0  0  0  0  0  0  0  0  0  0
  189.7590  176.7190  144.1810 C   0  0  0  0  0  0  0  0  0  0  0  0
  185.9230  177.7890  146.3810 C   0  0  2  0  0  3  0  0  0  0  0  0
  183.6880  178.6620  146.0120 O   0  0  0  0  0  1  0  0  0  0  0  0
  186.2130  177.5990  143.6190 O   0  0  0  0  0  0  0  0  0  0  0  0
  185.4030  176.4940  146.5130 O   0  0  0  0  0  1  0  0  0  0  0  0
  189.6020  177.1310  146.5920 C   0  0  0  0  0  3  0  0  0  0  0  0
  185.0280  178.1610  144.1060 C   0  0  0  0  0  0  0  0  0  0  0  0
  188.6020  177.1620  143.6840 C   0  0  0  0  0  3  0  0  0  0  0  0
  188.4590  178.0890  146.5780 C   0  0  0  0  0  2  0  0  0  0  0  0
  191.6390  175.6940  144.1340 C   0  0  0  0  0  0  0  0  0  0  0  0
  184.9950  178.6600  145.5140 C   0  0  2  0  0  3  0  0  0  0  0  0
  193.6020  174.0690  144.3280 C   0  0  0  0  0  2  0  0  0  0  0  0
  192.7700  175.0030  143.5590 N   0  0  0  0  0  0  0  0  0  0  0  0
  190.6730  176.2050  143.3990 O   0  0  0  0  0  0  0  0  0  0  0  0
  192.6980  174.7850  142.1130 C   0  0  2  0  0  3  0  0  0  0  0  0
  193.8460  173.4680  140.2180 C   0  0  0  0  0  2  0  0  0  0  0  0
  191.5100  173.8890  141.7510 C   0  0  0  0  0  2  0  0  0  0  0  0
  192.5910  173.8780  139.4950 C   0  0  0  0  0  0  0  0  0  0  0  0
  191.2640  173.8890  140.2300 C   0  0  1  0  0  3  0  0  0  0  0  0
  194.0230  174.2530  141.5380 C   0  0  0  0  0  2  0  0  0  0  0  0
  192.6590  174.2770  138.3400 O   0  0  0  0  0  0  0  0  0  0  0  0
  190.3800  172.6920  139.8330 C   0  0  1  0  0  3  0  0  0  0  0  0
  189.6740  171.5620  141.7900 O   0  0  0  0  0  0  0  0  0  0  0  0
  191.4460  170.4890  140.6480 C   0  0  0  0  0  1  0  0  0  0  0  0
  190.4400  171.5840  140.8320 C   0  0  0  0  0  0  0  0  0  0  0  0
  188.9490  173.0930  139.6270 C   0  0  0  0  0  0  0  0  0  0  0  0
  188.1770  172.3470  138.9680 O   0  0  0  0  0  0  0  0  0  0  0  0
  188.4700  174.2820  140.1700 O   0  0  0  0  0  1  0  0  0  0  0  0
  1 10  1  0  0  0  0
  1 17  1  0  0  0  0
  2 15  2  0  0  0  0
  3  7  1  0  0  0  0
  4 14  2  0  0  0  0
  6  4  1  0  0  0  0
  6  5  1  0  0  0  0
  7  5  1  0  0  0  0
  8  1  2  0  0  0  0
  9  4  1  0  0  0  0
 10 13  1  6  0  0  0
 12 15  1  0  0  0  0
 12  8  1  0  0  0  0
 15 19  1  0  0  0  0
 16  9  2  0  0  0  0
 16  8  1  0  0  0  0
 17 14  1  0  0  0  0
 18  6  2  0  0  0  0
 19 11  1  1  0  0  0
 19 10  1  0  0  0  0
 20  3  1  0  0  0  0
 21 18  1  0  0  0  0
 21 20  1  0  0  0  0
 22 18  1  0  0  0  0
 22  9  1  0  0  0  0
 23 28  1  1  0  0  0
 23 21  1  0  0  0  0
 24 28  1  0  0  0  0
 25 23  1  0  0  0  0
 26 24  1  0  0  0  0
 26 27  1  0  0  0  0
 27 30  1  1  0  0  0
 27 25  1  0  0  0  0
 29 26  2  0  0  0  0
 30 34  1  1  0  0  0
 30 33  1  0  0  0  0
 32 33  1  0  0  0  0
 33 31  2  0  0  0  0
 34 36  1  0  0  0  0
 35 34  2  0  0  0  0
M  END
>  <MODEL>
4

>  <REMARK>
 VINA RESULT:      -7.8      2.459      8.339
  Name = 
  4 active torsions:
  status: ('A' for Active; 'I' for Inactive)
    1  A    between atoms: C_2  and  N_34
    2  A    between atoms: C_10  and  C_11
    3  A    between atoms: C_10  and  C_19
    4  A    between atoms: C_10  and  C_28
                            x       y       z     vdW  Elec       q    Type
                         _______ _______ _______ _____ _____    ______ ____

>  <TORSDO>
F 4

$$$$
=
 OpenBabel11072408463D

 36 40  0  0  1  0  0  0  0  0999 V2000
  187.3870  177.8080  143.7060 C   0  0  0  0  0  0  0  0  0  0  0  0
  185.4120  178.2480  140.1560 O   0  0  0  0  0  0  0  0  0  0  0  0
  193.9410  175.5620  146.4610 C   0  0  0  0  0  2  0  0  0  0  0  0
  190.2140  177.0790  144.7010 C   0  0  0  0  0  0  0  0  0  0  0  0
  191.7820  176.4450  146.6280 C   0  0  0  0  0  2  0  0  0  0  0  0
  191.3940  176.5290  145.1820 C   0  0  0  0  0  0  0  0  0  0  0  0
  192.5890  175.2620  146.8960 N   0  0  0  0  0  2  0  0  0  0  0  0
  188.0550  177.7540  142.5330 C   0  0  0  0  0  0  0  0  0  0  0  0
  190.3960  177.2520  143.3370 C   0  0  0  0  0  0  0  0  0  0  0  0
  185.8840  177.7080  143.6940 C   0  0  2  0  0  3  0  0  0  0  0  0
  183.9220  178.3600  142.4220 O   0  0  0  0  0  1  0  0  0  0  0  0
  187.3420  177.7840  141.3240 O   0  0  0  0  0  0  0  0  0  0  0  0
  185.5370  176.3580  143.5510 O   0  0  0  0  0  1  0  0  0  0  0  0
  189.1770  177.4400  145.4550 C   0  0  0  0  0  3  0  0  0  0  0  0
  185.9990  178.1700  141.2690 C   0  0  0  0  0  0  0  0  0  0  0  0
  189.5120  177.6060  142.4030 C   0  0  0  0  0  3  0  0  0  0  0  0
  188.0300  178.2660  144.9770 C   0  0  0  0  0  2  0  0  0  0  0  0
  192.2370  176.4460  144.0770 C   0  0  0  0  0  0  0  0  0  0  0  0
  185.3030  178.5420  142.5380 C   0  0  2  0  0  3  0  0  0  0  0  0
  194.1310  175.0340  145.0530 C   0  0  0  0  0  2  0  0  0  0  0  0
  193.5870  175.9330  144.0280 N   0  0  0  0  0  0  0  0  0  0  0  0
  191.6160  176.9080  143.0120 O   0  0  0  0  0  0  0  0  0  0  0  0
  194.1660  175.8310  142.6870 C   0  0  2  0  0  3  0  0  0  0  0  0
  196.3260  175.1100  141.4790 C   0  0  0  0  0  2  0  0  0  0  0  0
  193.5740  174.6430  141.9220 C   0  0  0  0  0  2  0  0  0  0  0  0
  195.3990  175.1680  140.2930 C   0  0  0  0  0  0  0  0  0  0  0  0
  193.9630  174.6990  140.4330 C   0  0  1  0  0  3  0  0  0  0  0  0
  195.7050  175.7920  142.7190 C   0  0  0  0  0  2  0  0  0  0  0  0
  195.7850  175.6670  139.2450 O   0  0  0  0  0  0  0  0  0  0  0  0
  193.7430  173.3250  139.7720 C   0  0  1  0  0  3  0  0  0  0  0  0
  192.9860  171.5700  141.1690 O   0  0  0  0  0  0  0  0  0  0  0  0
  191.2490  172.9100  140.2840 C   0  0  0  0  0  1  0  0  0  0  0  0
  192.6860  172.5260  140.4610 C   0  0  0  0  0  0  0  0  0  0  0  0
  193.3980  173.4490  138.3170 C   0  0  0  0  0  0  0  0  0  0  0  0
  193.5240  172.4540  137.5560 O   0  0  0  0  0  0  0  0  0  0  0  0
  192.9310  174.6580  137.8080 O   0  0  0  0  0  1  0  0  0  0  0  0
  1 17  1  0  0  0  0
  2 15  2  0  0  0  0
  3  7  1  0  0  0  0
  4  6  1  0  0  0  0
  4 14  2  0  0  0  0
  5  7  1  0  0  0  0
  6  5  1  0  0  0  0
  8  1  2  0  0  0  0
  9  4  1  0  0  0  0
 10 13  1  6  0  0  0
 10  1  1  0  0  0  0
 12  8  1  0  0  0  0
 15 12  1  0  0  0  0
 15 19  1  0  0  0  0
 16  8  1  0  0  0  0
 16  9  2  0  0  0  0
 17 14  1  0  0  0  0
 18  6  2  0  0  0  0
 19 11  1  6  0  0  0
 19 10  1  0  0  0  0
 20  3  1  0  0  0  0
 21 18  1  0  0  0  0
 21 20  1  0  0  0  0
 22  9  1  0  0  0  0
 22 18  1  0  0  0  0
 23 25  1  1  0  0  0
 23 28  1  0  0  0  0
 23 21  1  0  0  0  0
 24 28  1  0  0  0  0
 26 27  1  0  0  0  0
 26 24  1  0  0  0  0
 27 30  1  1  0  0  0
 27 25  1  0  0  0  0
 29 26  2  0  0  0  0
 30 34  1  6  0  0  0
 30 33  1  0  0  0  0
 32 33  1  0  0  0  0
 33 31  2  0  0  0  0
 35 34  2  0  0  0  0
 36 34  1  0  0  0  0
M  END
>  <MODEL>
5

>  <REMARK>
 VINA RESULT:      -7.6      1.988      8.618
  Name = 
  4 active torsions:
  status: ('A' for Active; 'I' for Inactive)
    1  A    between atoms: C_2  and  N_34
    2  A    between atoms: C_10  and  C_11
    3  A    between atoms: C_10  and  C_19
    4  A    between atoms: C_10  and  C_28
                            x       y       z     vdW  Elec       q    Type
                         _______ _______ _______ _____ _____    ______ ____

>  <TORSDO>
F 4

$$$$
=
 OpenBabel11072408463D

 36 40  0  0  1  0  0  0  0  0999 V2000
  191.4720  172.9100  140.3510 C   0  0  0  0  0  0  0  0  0  0  0  0
  188.9650  172.9860  137.1250 O   0  0  0  0  0  0  0  0  0  0  0  0
  191.9550  175.3370  147.3830 C   0  0  0  0  0  2  0  0  0  0  0  0
  191.4500  173.7660  143.3140 C   0  0  0  0  0  0  0  0  0  0  0  0
  192.7180  174.1710  145.5060 C   0  0  0  0  0  2  0  0  0  0  0  0
  191.5590  174.3470  144.5690 C   0  0  0  0  0  0  0  0  0  0  0  0
  192.9360  175.3620  146.3130 N   0  0  0  0  0  2  0  0  0  0  0  0
  190.1850  173.2970  140.4860 C   0  0  0  0  0  0  0  0  0  0  0  0
  190.1230  173.9120  142.9350 C   0  0  0  0  0  0  0  0  0  0  0  0
  192.0650  172.8170  138.9690 C   0  0  2  0  0  3  0  0  0  0  0  0
  191.5270  172.2050  136.6820 O   0  0  0  0  0  1  0  0  0  0  0  0
  189.3770  173.4340  139.3470 O   0  0  0  0  0  0  0  0  0  0  0  0
  192.4040  174.1110  138.5500 O   0  0  0  0  0  1  0  0  0  0  0  0
  192.4300  173.1230  142.6820 C   0  0  0  0  0  3  0  0  0  0  0  0
  189.7490  172.9000  138.1080 C   0  0  0  0  0  0  0  0  0  0  0  0
  189.5450  173.6540  141.7610 C   0  0  0  0  0  3  0  0  0  0  0  0
  192.2420  172.2780  141.4670 C   0  0  0  0  0  2  0  0  0  0  0  0
  190.2720  174.7700  144.8910 C   0  0  0  0  0  0  0  0  0  0  0  0
  191.0530  172.1800  137.9970 C   0  0  2  0  0  3  0  0  0  0  0  0
  190.7600  176.1730  146.9720 C   0  0  0  0  0  2  0  0  0  0  0  0
  189.8360  175.4500  146.0890 N   0  0  0  0  0  0  0  0  0  0  0  0
  189.4500  174.4700  143.9080 O   0  0  0  0  0  0  0  0  0  0  0  0
  188.4450  175.9090  146.0730 C   0  0  2  0  0  3  0  0  0  0  0  0
  186.8640  177.5750  147.2420 C   0  0  0  0  0  2  0  0  0  0  0  0
  188.1760  176.8060  144.8610 C   0  0  0  0  0  2  0  0  0  0  0  0
  186.0150  177.2450  146.0430 C   0  0  0  0  0  0  0  0  0  0  0  0
  186.6660  177.0560  144.6860 C   0  0  1  0  0  3  0  0  0  0  0  0
  188.0400  176.5850  147.3960 C   0  0  0  0  0  2  0  0  0  0  0  0
  184.8160  177.0520  146.1830 O   0  0  0  0  0  0  0  0  0  0  0  0
  186.4300  178.2660  143.7630 C   0  0  1  0  0  3  0  0  0  0  0  0
  187.3170  178.8950  141.6610 O   0  0  0  0  0  0  0  0  0  0  0  0
  186.6980  176.6160  141.7990 C   0  0  0  0  0  1  0  0  0  0  0  0
  186.8490  177.9990  142.3550 C   0  0  0  0  0  0  0  0  0  0  0  0
  184.9970  178.7120  143.7760 C   0  0  0  0  0  0  0  0  0  0  0  0
  184.6760  179.7740  144.3710 O   0  0  0  0  0  1  0  0  0  0  0  0
  184.0240  177.9600  143.1240 O   0  0  0  0  0  0  0  0  0  0  0  0
  1  8  2  0  0  0  0
  1 17  1  0  0  0  0
  2 15  2  0  0  0  0
  4  6  1  0  0  0  0
  5  7  1  0  0  0  0
  6 18  2  0  0  0  0
  6  5  1  0  0  0  0
  7  3  1  0  0  0  0
  8 16  1  0  0  0  0
  9  4  1  0  0  0  0
  9 22  1  0  0  0  0
 10 13  1  6  0  0  0
 10  1  1  0  0  0  0
 12  8  1  0  0  0  0
 14  4  2  0  0  0  0
 15 12  1  0  0  0  0
 16  9  2  0  0  0  0
 17 14  1  0  0  0  0
 18 21  1  0  0  0  0
 19 11  1  6  0  0  0
 19 15  1  0  0  0  0
 19 10  1  0  0  0  0
 20  3  1  0  0  0  0
 21 20  1  0  0  0  0
 22 18  1  0  0  0  0
 23 25  1  6  0  0  0
 23 21  1  0  0  0  0
 23 28  1  0  0  0  0
 24 28  1  0  0  0  0
 26 29  2  0  0  0  0
 26 24  1  0  0  0  0
 27 30  1  6  0  0  0
 27 25  1  0  0  0  0
 27 26  1  0  0  0  0
 30 33  1  6  0  0  0
 30 34  1  0  0  0  0
 31 33  2  0  0  0  0
 32 33  1  0  0  0  0
 34 35  1  0  0  0  0
 36 34  2  0  0  0  0
M  END
>  <MODEL>
6

>  <REMARK>
 VINA RESULT:      -7.6      2.614      3.954
  Name = 
  4 active torsions:
  status: ('A' for Active; 'I' for Inactive)
    1  A    between atoms: C_2  and  N_34
    2  A    between atoms: C_10  and  C_11
    3  A    between atoms: C_10  and  C_19
    4  A    between atoms: C_10  and  C_28
                            x       y       z     vdW  Elec       q    Type
                         _______ _______ _______ _____ _____    ______ ____

>  <TORSDO>
F 4

$$$$
=
 OpenBabel11072408463D

 36 40  0  0  1  0  0  0  0  0999 V2000
  187.5920  177.5820  143.5790 C   0  0  0  0  0  0  0  0  0  0  0  0
  185.6410  177.9100  140.0020 O   0  0  0  0  0  0  0  0  0  0  0  0
  194.1840  175.5830  146.4310 C   0  0  0  0  0  2  0  0  0  0  0  0
  190.4300  176.9560  144.6120 C   0  0  0  0  0  0  0  0  0  0  0  0
  191.9960  176.3990  146.5640 C   0  0  0  0  0  2  0  0  0  0  0  0
  191.6220  176.4510  145.1120 C   0  0  0  0  0  0  0  0  0  0  0  0
  192.8370  175.2470  146.8560 N   0  0  0  0  0  2  0  0  0  0  0  0
  188.2740  177.5330  142.4140 C   0  0  0  0  0  0  0  0  0  0  0  0
  190.6210  177.1160  143.2480 C   0  0  0  0  0  0  0  0  0  0  0  0
  186.0930  177.4340  143.5530 C   0  0  2  0  0  3  0  0  0  0  0  0
  184.1240  178.0060  142.2510 O   0  0  0  0  0  1  0  0  0  0  0  0
  187.5730  177.5230  141.1970 O   0  0  0  0  0  0  0  0  0  0  0  0
  185.7900  176.0710  143.4250 O   0  0  0  0  0  1  0  0  0  0  0  0
  189.3740  177.2950  145.3500 C   0  0  0  0  0  3  0  0  0  0  0  0
  186.2190  177.8660  141.1220 C   0  0  0  0  0  0  0  0  0  0  0  0
  189.7360  177.4300  142.3000 C   0  0  0  0  0  3  0  0  0  0  0  0
  188.2070  178.0770  144.8490 C   0  0  0  0  0  2  0  0  0  0  0  0
  192.4790  176.3800  144.0180 C   0  0  0  0  0  0  0  0  0  0  0  0
  185.4990  178.2330  142.3790 C   0  0  2  0  0  3  0  0  0  0  0  0
  194.4060  175.0420  145.0330 C   0  0  0  0  0  2  0  0  0  0  0  0
  193.8440  175.9090  143.9900 N   0  0  0  0  0  0  0  0  0  0  0  0
  191.8550  176.8070  142.9400 O   0  0  0  0  0  0  0  0  0  0  0  0
  194.4400  175.8070  142.6560 C   0  0  2  0  0  3  0  0  0  0  0  0
  196.7310  175.6650  141.4830 C   0  0  0  0  0  2  0  0  0  0  0  0
  194.2830  174.3920  142.0910 C   0  0  0  0  0  2  0  0  0  0  0  0
  195.8520  175.2420  140.3370 C   0  0  0  0  0  0  0  0  0  0  0  0
  194.6490  174.3540  140.5950 C   0  0  1  0  0  3  0  0  0  0  0  0
  195.9050  176.2800  142.6360 C   0  0  0  0  0  2  0  0  0  0  0  0
  196.0640  175.6800  139.2150 O   0  0  0  0  0  0  0  0  0  0  0  0
  194.9020  172.9020  140.1450 C   0  0  1  0  0  3  0  0  0  0  0  0
  196.1440  172.2210  142.0420 O   0  0  0  0  0  0  0  0  0  0  0  0
  197.2150  171.7730  139.9810 C   0  0  0  0  0  1  0  0  0  0  0  0
  196.0890  172.2970  140.8190 C   0  0  0  0  0  0  0  0  0  0  0  0
  193.7050  172.0260  140.3720 C   0  0  0  0  0  0  0  0  0  0  0  0
  193.8500  170.8900  140.8970 O   0  0  0  0  0  1  0  0  0  0  0  0
  192.4350  172.4680  140.0140 O   0  0  0  0  0  0  0  0  0  0  0  0
  1 17  1  0  0  0  0
  2 15  2  0  0  0  0
  3  7  1  0  0  0  0
  4  6  1  0  0  0  0
  4 14  2  0  0  0  0
  5  7  1  0  0  0  0
  6  5  1  0  0  0  0
  8  1  2  0  0  0  0
  9  4  1  0  0  0  0
 10 13  1  6  0  0  0
 10  1  1  0  0  0  0
 12  8  1  0  0  0  0
 15 12  1  0  0  0  0
 15 19  1  0  0  0  0
 16  8  1  0  0  0  0
 16  9  2  0  0  0  0
 17 14  1  0  0  0  0
 18  6  2  0  0  0  0
 19 11  1  6  0  0  0
 19 10  1  0  0  0  0
 20  3  1  0  0  0  0
 21 18  1  0  0  0  0
 21 20  1  0  0  0  0
 22  9  1  0  0  0  0
 22 18  1  0  0  0  0
 23 25  1  1  0  0  0
 23 21  1  0  0  0  0
 24 28  1  0  0  0  0
 26 27  1  0  0  0  0
 26 24  1  0  0  0  0
 27 30  1  1  0  0  0
 27 25  1  0  0  0  0
 28 23  1  0  0  0  0
 29 26  2  0  0  0  0
 30 34  1  1  0  0  0
 30 33  1  0  0  0  0
 32 33  1  0  0  0  0
 33 31  2  0  0  0  0
 34 35  1  0  0  0  0
 36 34  2  0  0  0  0
M  END
>  <MODEL>
7

>  <REMARK>
 VINA RESULT:      -7.4      2.123      8.972
  Name = 
  4 active torsions:
  status: ('A' for Active; 'I' for Inactive)
    1  A    between atoms: C_2  and  N_34
    2  A    between atoms: C_10  and  C_11
    3  A    between atoms: C_10  and  C_19
    4  A    between atoms: C_10  and  C_28
                            x       y       z     vdW  Elec       q    Type
                         _______ _______ _______ _____ _____    ______ ____

>  <TORSDO>
F 4

$$$$
=
 OpenBabel11072408463D

 36 40  0  0  1  0  0  0  0  0999 V2000
  189.2380  177.1460  146.3740 C   0  0  0  0  0  0  0  0  0  0  0  0
  185.5750  177.7150  144.6540 O   0  0  0  0  0  0  0  0  0  0  0  0
  196.1470  174.8960  144.7040 C   0  0  0  0  0  2  0  0  0  0  0  0
  192.1090  176.4240  145.5080 C   0  0  0  0  0  0  0  0  0  0  0  0
  194.4960  175.7300  146.1350 C   0  0  0  0  0  2  0  0  0  0  0  0
  193.3420  175.8740  145.1870 C   0  0  0  0  0  0  0  0  0  0  0  0
  195.2940  174.5510  145.8270 N   0  0  0  0  0  2  0  0  0  0  0  0
  189.1010  177.1590  145.0300 C   0  0  0  0  0  0  0  0  0  0  0  0
  191.4680  176.6630  144.3010 C   0  0  0  0  0  0  0  0  0  0  0  0
  188.0060  177.0190  147.2310 C   0  0  2  0  0  3  0  0  0  0  0  0
  185.6770  177.6940  147.3660 O   0  0  0  0  0  1  0  0  0  0  0  0
  187.8200  177.2320  144.4620 O   0  0  0  0  0  0  0  0  0  0  0  0
  187.6240  175.6710  147.2510 O   0  0  0  0  0  1  0  0  0  0  0  0
  191.7060  176.7310  146.7400 C   0  0  0  0  0  3  0  0  0  0  0  0
  186.6980  177.5950  145.2140 C   0  0  0  0  0  0  0  0  0  0  0  0
  190.2100  177.0450  144.0720 C   0  0  0  0  0  3  0  0  0  0  0  0
  190.5050  177.5570  147.0560 C   0  0  0  0  0  2  0  0  0  0  0  0
  193.3870  175.8580  143.7960 C   0  0  0  0  0  0  0  0  0  0  0  0
  186.8720  177.8960  146.6680 C   0  0  2  0  0  3  0  0  0  0  0  0
  195.4790  174.4370  143.4230 C   0  0  0  0  0  2  0  0  0  0  0  0
  194.4520  175.3730  142.9490 N   0  0  0  0  0  0  0  0  0  0  0  0
  192.2690  176.3570  143.3130 O   0  0  0  0  0  0  0  0  0  0  0  0
  194.1440  175.3440  141.5170 C   0  0  2  0  0  3  0  0  0  0  0  0
  195.2740  175.0140  139.2240 C   0  0  0  0  0  2  0  0  0  0  0  0
  193.4320  174.0420  141.1350 C   0  0  0  0  0  2  0  0  0  0  0  0
  193.8360  174.8590  138.8040 C   0  0  0  0  0  0  0  0  0  0  0  0
  192.8600  174.1280  139.7070 C   0  0  1  0  0  3  0  0  0  0  0  0
  195.3890  175.6010  140.6490 C   0  0  0  0  0  2  0  0  0  0  0  0
  193.4430  175.3910  137.7760 O   0  0  0  0  0  0  0  0  0  0  0  0
  192.5360  172.7180  139.1780 C   0  0  1  0  0  3  0  0  0  0  0  0
  192.8300  170.8690  140.6260 O   0  0  0  0  0  0  0  0  0  0  0  0
  190.7700  171.9960  140.9130 C   0  0  0  0  0  1  0  0  0  0  0  0
  192.1030  171.7880  140.2630 C   0  0  0  0  0  0  0  0  0  0  0  0
  191.4870  172.7470  138.1050 C   0  0  0  0  0  0  0  0  0  0  0  0
  191.4380  171.8230  137.2510 O   0  0  0  0  0  0  0  0  0  0  0  0
  190.5630  173.7870  138.0570 O   0  0  0  0  0  1  0  0  0  0  0  0
  1 17  1  0  0  0  0
  1 10  1  0  0  0  0
  2 15  2  0  0  0  0
  3  7  1  0  0  0  0
  4 14  2  0  0  0  0
  6  4  1  0  0  0  0
  6  5  1  0  0  0  0
  7  5  1  0  0  0  0
  8  1  2  0  0  0  0
  9  4  1  0  0  0  0
 10 13  1  6  0  0  0
 12  8  1  0  0  0  0
 12 15  1  0  0  0  0
 14 17  1  0  0  0  0
 15 19  1  0  0  0  0
 16  9  2  0  0  0  0
 16  8  1  0  0  0  0
 18  6  2  0  0  0  0
 19 10  1  0  0  0  0
 19 11  1  1  0  0  0
 20  3  1  0  0  0  0
 21 20  1  0  0  0  0
 21 18  1  0  0  0  0
 22 18  1  0  0  0  0
 22  9  1  0  0  0  0
 23 28  1  6  0  0  0
 23 21  1  0  0  0  0
 24 28  1  0  0  0  0
 25 23  1  0  0  0  0
 26 24  1  0  0  0  0
 26 27  1  0  0  0  0
 27 30  1  6  0  0  0
 27 25  1  0  0  0  0
 29 26  2  0  0  0  0
 30 34  1  6  0  0  0
 30 33  1  0  0  0  0
 33 31  2  0  0  0  0
 33 32  1  0  0  0  0
 35 34  2  0  0  0  0
 36 34  1  0  0  0  0
M  END
>  <MODEL>
8

>  <REMARK>
 VINA RESULT:      -7.1      2.562      8.553
  Name = 
  4 active torsions:
  status: ('A' for Active; 'I' for Inactive)
    1  A    between atoms: C_2  and  N_34
    2  A    between atoms: C_10  and  C_11
    3  A    between atoms: C_10  and  C_19
    4  A    between atoms: C_10  and  C_28
                            x       y       z     vdW  Elec       q    Type
                         _______ _______ _______ _____ _____    ______ ____

>  <TORSDO>
F 4

$$$$
=
 OpenBabel11072408463D

 36 40  0  0  1  0  0  0  0  0999 V2000
  186.9470  177.8560  143.2380 C   0  0  0  0  0  0  0  0  0  0  0  0
  185.9420  177.8790  139.2770 O   0  0  0  0  0  0  0  0  0  0  0  0
  192.6850  176.3760  147.7610 C   0  0  0  0  0  2  0  0  0  0  0  0
  189.4570  177.4420  144.9820 C   0  0  0  0  0  0  0  0  0  0  0  0
  190.5050  177.0790  147.2940 C   0  0  0  0  0  2  0  0  0  0  0  0
  190.5040  177.0300  145.7940 C   0  0  0  0  0  0  0  0  0  0  0  0
  191.2890  175.9920  147.8620 N   0  0  0  0  0  2  0  0  0  0  0  0
  187.9000  177.7790  142.2840 C   0  0  0  0  0  0  0  0  0  0  0  0
  189.9770  177.5360  143.6990 C   0  0  0  0  0  0  0  0  0  0  0  0
  185.5080  177.6270  142.8530 C   0  0  2  0  0  3  0  0  0  0  0  0
  183.9080  178.0190  141.0690 O   0  0  0  0  0  1  0  0  0  0  0  0
  187.5270  177.6640  140.9360 O   0  0  0  0  0  0  0  0  0  0  0  0
  185.2990  176.2450  142.7460 O   0  0  0  0  0  1  0  0  0  0  0  0
  188.2380  177.7650  145.4110 C   0  0  0  0  0  3  0  0  0  0  0  0
  186.2220  177.9280  140.5050 C   0  0  0  0  0  0  0  0  0  0  0  0
  189.3470  177.7480  142.5430 C   0  0  0  0  0  3  0  0  0  0  0  0
  187.2050  178.4540  144.5850 C   0  0  0  0  0  2  0  0  0  0  0  0
  191.6090  176.9440  144.9530 C   0  0  0  0  0  0  0  0  0  0  0  0
  185.1970  178.3270  141.5160 C   0  0  2  0  0  3  0  0  0  0  0  0
  193.2700  175.7700  146.5020 C   0  0  0  0  0  2  0  0  0  0  0  0
  192.9550  176.5460  145.2960 N   0  0  0  0  0  0  0  0  0  0  0  0
  191.2590  177.2760  143.7290 O   0  0  0  0  0  0  0  0  0  0  0  0
  193.8700  176.4020  144.1610 C   0  0  2  0  0  3  0  0  0  0  0  0
  196.3790  176.1700  143.6180 C   0  0  0  0  0  2  0  0  0  0  0  0
  193.8150  174.9820  143.5890 C   0  0  0  0  0  2  0  0  0  0  0  0
  195.8090  175.7520  142.2880 C   0  0  0  0  0  0  0  0  0  0  0  0
  194.5510  174.9050  142.2380 C   0  0  1  0  0  3  0  0  0  0  0  0
  195.3060  176.8300  144.5130 C   0  0  0  0  0  2  0  0  0  0  0  0
  196.3160  176.1630  141.2540 O   0  0  0  0  0  0  0  0  0  0  0  0
  194.8620  173.4380  141.8830 C   0  0  1  0  0  3  0  0  0  0  0  0
  196.2120  172.5360  143.6060 O   0  0  0  0  0  0  0  0  0  0  0  0
  193.9540  171.8340  143.6880 C   0  0  0  0  0  1  0  0  0  0  0  0
  195.0980  172.5980  143.0950 C   0  0  0  0  0  0  0  0  0  0  0  0
  193.7760  172.8170  141.0550 C   0  0  0  0  0  0  0  0  0  0  0  0
  192.7260  173.4660  140.8080 O   0  0  0  0  0  1  0  0  0  0  0  0
  193.9310  171.5280  140.5520 O   0  0  0  0  0  0  0  0  0  0  0  0
  1 17  1  0  0  0  0
  2 15  2  0  0  0  0
  3  7  1  0  0  0  0
  4 14  2  0  0  0  0
  4  6  1  0  0  0  0
  5  7  1  0  0  0  0
  6  5  1  0  0  0  0
  8 16  1  0  0  0  0
  8  1  2  0  0  0  0
  9 22  1  0  0  0  0
  9  4  1  0  0  0  0
 10 13  1  6  0  0  0
 10  1  1  0  0  0  0
 12  8  1  0  0  0  0
 15 12  1  0  0  0  0
 15 19  1  0  0  0  0
 16  9  2  0  0  0  0
 17 14  1  0  0  0  0
 18 21  1  0  0  0  0
 18  6  2  0  0  0  0
 19 11  1  6  0  0  0
 19 10  1  0  0  0  0
 20  3  1  0  0  0  0
 21 20  1  0  0  0  0
 22 18  1  0  0  0  0
 23 25  1  1  0  0  0
 23 28  1  0  0  0  0
 23 21  1  0  0  0  0
 24 28  1  0  0  0  0
 26 24  1  0  0  0  0
 27 30  1  1  0  0  0
 27 26  1  0  0  0  0
 27 25  1  0  0  0  0
 29 26  2  0  0  0  0
 30 34  1  1  0  0  0
 30 33  1  0  0  0  0
 33 31  2  0  0  0  0
 33 32  1  0  0  0  0
 35 34  1  0  0  0  0
 36 34  2  0  0  0  0
M  END
>  <MODEL>
9

>  <REMARK>
 VINA RESULT:      -7.1      2.228      8.648
  Name = 
  4 active torsions:
  status: ('A' for Active; 'I' for Inactive)
    1  A    between atoms: C_2  and  N_34
    2  A    between atoms: C_10  and  C_11
    3  A    between atoms: C_10  and  C_19
    4  A    between atoms: C_10  and  C_28
                            x       y       z     vdW  Elec       q    Type
                         _______ _______ _______ _____ _____    ______ ____

>  <TORSDO>
F 4

$$$$
