=
 OpenBabel11072408373D

 47 52  0  0  1  0  0  0  0  0999 V2000
  192.9580  173.3030  141.6420 C   0  0  1  0  0  3  0  0  0  0  0  0
  192.1250  174.1340  143.8550 C   0  0  0  0  0  0  0  0  0  0  0  0
  193.5050  175.7460  142.4980 C   0  0  1  0  0  3  0  0  0  0  0  0
  193.4020  174.7480  141.3170 C   0  0  1  0  0  3  0  0  0  0  0  0
  191.1630  172.2770  143.2340 C   0  0  0  0  0  3  0  0  0  0  0  0
  193.1580  175.2120  143.9020 C   0  0  1  0  0  3  0  0  0  0  0  0
  190.7680  172.6210  144.4450 O   0  0  0  0  0  0  0  0  0  0  0  0
  192.0400  173.2600  142.8190 C   0  0  0  0  0  0  0  0  0  0  0  0
  194.7360  175.0300  141.9790 C   0  0  0  0  0  2  0  0  0  0  0  0
  191.3430  173.7180  144.8610 N   0  0  0  0  0  0  0  0  0  0  0  0
  191.4720  173.4090  139.6060 N   0  0  0  0  0  2  0  0  0  0  0  0
  192.6590  171.4700  140.1290 O   0  0  0  0  0  0  0  0  0  0  0  0
  192.3450  172.6490  140.4430 C   0  0  0  0  0  0  0  0  0  0  0  0
  188.5610  173.4420  139.2950 C   0  0  0  0  0  3  0  0  0  0  0  0
  190.8260  172.8370  138.4350 C   0  0  2  0  0  3  0  0  0  0  0  0
  189.9170  174.4670  136.7060 C   0  0  0  0  0  3  0  0  0  0  0  0
  190.9410  173.7930  137.2670 C   0  0  0  0  0  0  0  0  0  0  0  0
  189.4280  172.3270  138.7940 C   0  0  0  0  0  2  0  0  0  0  0  0
  188.4510  174.3390  137.0020 C   0  0  1  0  0  3  0  0  0  0  0  0
  188.1300  174.3910  138.4630 C   0  0  0  0  0  3  0  0  0  0  0  0
  187.5700  175.6270  136.1530 Cl  0  0  0  0  0  0  0  0  0  0  0  0
  192.2390  173.9780  136.7690 O   0  0  0  0  0  0  0  0  0  0  0  0
  194.3300  175.0390  136.2630 C   0  0  0  0  0  2  0  0  0  0  0  0
  192.8990  175.2400  136.7240 C   0  0  0  0  0  3  0  0  0  0  0  0
  194.0280  175.2450  137.7340 C   0  0  0  0  0  2  0  0  0  0  0  0
  191.8210  177.3200  144.5550 N   0  0  0  0  0  2  0  0  0  0  0  0
  193.4270  176.3910  145.9420 O   0  0  0  0  0  0  0  0  0  0  0  0
  192.8140  176.3290  144.8440 C   0  0  0  0  0  0  0  0  0  0  0  0
  191.0620  177.4290  143.3200 C   0  0  0  0  0  2  0  0  0  0  0  0
  189.6430  177.8890  143.6180 C   0  0  0  0  0  2  0  0  0  0  0  0
  188.5790  177.2820  142.6740 C   0  0  1  0  0  0  0  0  0  0  0  0
  188.4310  178.1380  141.4910 N   0  0  0  0  0  2  0  0  0  0  0  0
  187.6220  177.5390  140.5820 O   0  0  0  0  0  1  0  0  0  0  0  0
  189.0830  175.9310  142.1430 C   0  0  0  0  0  2  0  0  0  0  0  0
  188.3950  174.7080  142.7430 C   0  0  0  0  0  1  0  0  0  0  0  0
  187.1950  177.1010  143.3460 C   0  0  0  0  0  2  0  0  0  0  0  0
  186.5290  178.3960  143.8360 C   0  0  2  0  0  3  0  0  0  0  0  0
  184.3610  178.0110  146.7700 C   0  0  0  0  0  2  0  0  0  0  0  0
  186.3050  178.4380  145.3540 C   0  0  1  0  0  3  0  0  0  0  0  0
  184.9370  178.9780  145.7510 C   0  0  0  0  0  2  0  0  0  0  0  0
  185.4810  177.0720  147.1620 C   0  0  0  0  0  2  0  0  0  0  0  0
  186.4160  177.0550  145.9750 C   0  0  2  0  0  3  0  0  0  0  0  0
  188.5460  177.6970  147.0980 O   0  0  0  0  0  1  0  0  0  0  0  0
  188.3500  175.6400  146.1100 O   0  0  0  0  0  0  0  0  0  0  0  0
  187.8150  176.7420  146.4030 C   0  0  0  0  0  0  0  0  0  0  0  0
  184.7810  177.5670  142.5890 O   0  0  0  0  0  1  0  0  0  0  0  0
  185.3020  178.7080  143.1040 N   0  0  0  0  0  2  0  0  0  0  0  0
  1 13  1  6  0  0  0
  1  8  1  0  0  0  0
  2  6  1  0  0  0  0
  2 10  2  0  0  0  0
  3  9  1  1  0  0  0
  3  6  1  0  0  0  0
  4  1  1  0  0  0  0
  4  9  1  1  0  0  0
  4  3  1  0  0  0  0
  5  7  1  0  0  0  0
  6 28  1  1  0  0  0
  7 10  1  0  0  0  0
  8  5  2  0  0  0  0
  8  2  1  0  0  0  0
 11 13  1  0  0  0  0
 12 13  2  0  0  0  0
 15 18  1  0  0  0  0
 15 11  1  1  0  0  0
 16 19  1  0  0  0  0
 16 17  2  0  0  0  0
 17 15  1  0  0  0  0
 18 14  1  0  0  0  0
 19 21  1  6  0  0  0
 19 20  1  0  0  0  0
 20 14  2  0  0  0  0
 22 17  1  0  0  0  0
 23 24  1  0  0  0  0
 23 25  1  0  0  0  0
 24 22  1  0  0  0  0
 24 25  1  0  0  0  0
 26 28  1  0  0  0  0
 28 27  2  0  0  0  0
 29 30  1  0  0  0  0
 29 26  1  0  0  0  0
 31 34  1  6  0  0  0
 31 36  1  0  0  0  0
 31 30  1  0  0  0  0
 32 31  1  0  0  0  0
 33 32  1  0  0  0  0
 34 35  1  0  0  0  0
 37 36  1  6  0  0  0
 38 41  1  0  0  0  0
 39 37  1  6  0  0  0
 39 40  1  0  0  0  0
 39 42  1  0  0  0  0
 40 38  1  0  0  0  0
 42 45  1  1  0  0  0
 42 41  1  0  0  0  0
 44 45  2  0  0  0  0
 45 43  1  0  0  0  0
 46 47  1  0  0  0  0
 47 37  1  0  0  0  0
M  END
>  <MODEL>
1

>  <REMARK>
 VINA RESULT:      -6.7      0.000      0.000
  Name = 
  15 active torsions:
  status: ('A' for Active; 'I' for Inactive)
    1  A    between atoms: C_2  and  C_38
    2  A    between atoms: N_3  and  C_18
    3  A    between atoms: C_5  and  N_16
    4  A    between atoms: C_7  and  C_41
    5  A    between atoms: O_9  and  C_23
    6  A    between atoms: O_9  and  C_33
    7  A    between atoms: C_18  and  C_25
    8  A    between atoms: C_18  and  C_37
    9  A    between atoms: C_18  and  C_46
   10  A    between atoms: C_21  and  C_35
   11  A    between atoms: C_27  and  C_39
   12  A    between atoms: N_29  and  C_43
   13  A    between atoms: C_37  and  C_43
   14  A    between atoms: N_40  and  C_41
   15  A    between atoms: C_41  and  C_46
                            x       y       z     vdW  Elec       q    Type
                         _______ _______ _______ _____ _____    ______ ____

>  <TORSDO>
F 15

$$$$
=
 OpenBabel11072408373D

 47 52  0  0  1  0  0  0  0  0999 V2000
  193.2310  173.0310  141.2270 C   0  0  1  0  0  3  0  0  0  0  0  0
  193.2490  173.7550  143.6260 C   0  0  0  0  0  0  0  0  0  0  0  0
  194.0200  175.4550  141.9350 C   0  0  1  0  0  3  0  0  0  0  0  0
  193.5090  174.4980  140.8280 C   0  0  1  0  0  3  0  0  0  0  0  0
  192.1500  171.8960  143.3130 C   0  0  0  0  0  3  0  0  0  0  0  0
  194.2140  174.8590  143.3440 C   0  0  1  0  0  3  0  0  0  0  0  0
  192.2190  172.1840  144.6000 O   0  0  0  0  0  0  0  0  0  0  0  0
  192.8040  172.9180  142.6540 C   0  0  0  0  0  0  0  0  0  0  0  0
  194.9880  174.7930  140.9740 C   0  0  0  0  0  2  0  0  0  0  0  0
  192.8910  173.2800  144.8270 N   0  0  0  0  0  0  0  0  0  0  0  0
  191.1220  173.1810  139.8500 N   0  0  0  0  0  2  0  0  0  0  0  0
  192.4120  171.2370  139.8660 O   0  0  0  0  0  0  0  0  0  0  0  0
  192.2320  172.4040  140.3040 C   0  0  0  0  0  0  0  0  0  0  0  0
  188.3180  173.9940  140.0650 C   0  0  0  0  0  3  0  0  0  0  0  0
  190.1030  172.6360  138.9670 C   0  0  2  0  0  3  0  0  0  0  0  0
  189.2470  174.1560  137.1150 C   0  0  0  0  0  3  0  0  0  0  0  0
  190.1760  173.3170  137.6170 C   0  0  0  0  0  0  0  0  0  0  0  0
  188.7440  172.6120  139.6730 C   0  0  0  0  0  2  0  0  0  0  0  0
  187.9040  174.5020  137.6890 C   0  0  1  0  0  3  0  0  0  0  0  0
  187.9520  174.8790  139.1360 C   0  0  0  0  0  3  0  0  0  0  0  0
  187.1940  175.8330  136.7500 Cl  0  0  0  0  0  0  0  0  0  0  0  0
  191.3280  173.0400  136.8670 O   0  0  0  0  0  0  0  0  0  0  0  0
  193.5520  173.6210  136.1830 C   0  0  0  0  0  2  0  0  0  0  0  0
  192.0930  174.0340  136.1910 C   0  0  0  0  0  3  0  0  0  0  0  0
  193.0630  174.6620  137.1690 C   0  0  0  0  0  2  0  0  0  0  0  0
  193.1460  176.8560  144.5800 N   0  0  0  0  0  2  0  0  0  0  0  0
  195.2250  176.0120  145.1540 O   0  0  0  0  0  0  0  0  0  0  0  0
  194.2230  175.9300  144.3960 C   0  0  0  0  0  0  0  0  0  0  0  0
  191.9450  176.9380  143.7630 C   0  0  0  0  0  2  0  0  0  0  0  0
  190.7310  176.5140  144.5750 C   0  0  0  0  0  2  0  0  0  0  0  0
  189.3820  176.9240  143.9400 C   0  0  1  0  0  0  0  0  0  0  0  0
  189.6230  177.8880  142.8610 N   0  0  0  0  0  2  0  0  0  0  0  0
  188.8470  177.5910  141.7890 O   0  0  0  0  0  1  0  0  0  0  0  0
  188.7460  175.6990  143.2630 C   0  0  0  0  0  2  0  0  0  0  0  0
  189.4400  174.3710  143.5540 C   0  0  0  0  0  1  0  0  0  0  0  0
  188.3870  177.5380  144.9570 C   0  0  0  0  0  2  0  0  0  0  0  0
  187.4120  176.5430  145.6050 C   0  0  2  0  0  3  0  0  0  0  0  0
  184.4610  178.3870  146.7630 C   0  0  0  0  0  2  0  0  0  0  0  0
  185.9380  176.9420  145.4610 C   0  0  1  0  0  3  0  0  0  0  0  0
  185.2090  177.0670  146.7930 C   0  0  0  0  0  2  0  0  0  0  0  0
  184.5300  178.8960  145.3400 C   0  0  0  0  0  2  0  0  0  0  0  0
  185.7850  178.2830  144.7620 C   0  0  2  0  0  3  0  0  0  0  0  0
  186.1010  179.1670  142.4540 O   0  0  0  0  0  0  0  0  0  0  0  0
  185.1610  177.1020  142.7680 O   0  0  0  0  0  1  0  0  0  0  0  0
  185.6720  178.1340  143.2780 C   0  0  0  0  0  0  0  0  0  0  0  0
  188.5170  175.1270  147.0450 O   0  0  0  0  0  1  0  0  0  0  0  0
  187.7550  176.2480  146.9960 N   0  0  0  0  0  2  0  0  0  0  0  0
  1 13  1  6  0  0  0
  1  8  1  0  0  0  0
  2 10  2  0  0  0  0
  3  9  1  6  0  0  0
  3  6  1  0  0  0  0
  4  9  1  6  0  0  0
  4  1  1  0  0  0  0
  4  3  1  0  0  0  0
  5  7  1  0  0  0  0
  6  2  1  0  0  0  0
  6 28  1  1  0  0  0
  7 10  1  0  0  0  0
  8  5  2  0  0  0  0
  8  2  1  0  0  0  0
 11 13  1  0  0  0  0
 12 13  2  0  0  0  0
 15 18  1  0  0  0  0
 15 11  1  1  0  0  0
 16 17  2  0  0  0  0
 16 19  1  0  0  0  0
 17 15  1  0  0  0  0
 18 14  1  0  0  0  0
 19 21  1  6  0  0  0
 19 20  1  0  0  0  0
 20 14  2  0  0  0  0
 22 17  1  0  0  0  0
 23 24  1  0  0  0  0
 23 25  1  0  0  0  0
 24 22  1  0  0  0  0
 24 25  1  0  0  0  0
 28 26  1  0  0  0  0
 28 27  2  0  0  0  0
 29 30  1  0  0  0  0
 29 26  1  0  0  0  0
 31 34  1  6  0  0  0
 31 30  1  0  0  0  0
 31 36  1  0  0  0  0
 32 31  1  0  0  0  0
 33 32  1  0  0  0  0
 34 35  1  0  0  0  0
 37 36  1  1  0  0  0
 37 47  1  0  0  0  0
 38 40  1  0  0  0  0
 39 37  1  1  0  0  0
 39 40  1  0  0  0  0
 41 38  1  0  0  0  0
 42 45  1  6  0  0  0
 42 41  1  0  0  0  0
 42 39  1  0  0  0  0
 43 45  2  0  0  0  0
 44 45  1  0  0  0  0
 47 46  1  0  0  0  0
M  END
>  <MODEL>
2

>  <REMARK>
 VINA RESULT:      -6.7      1.342      2.162
  Name = 
  15 active torsions:
  status: ('A' for Active; 'I' for Inactive)
    1  A    between atoms: C_2  and  C_38
    2  A    between atoms: N_3  and  C_18
    3  A    between atoms: C_5  and  N_16
    4  A    between atoms: C_7  and  C_41
    5  A    between atoms: O_9  and  C_23
    6  A    between atoms: O_9  and  C_33
    7  A    between atoms: C_18  and  C_25
    8  A    between atoms: C_18  and  C_37
    9  A    between atoms: C_18  and  C_46
   10  A    between atoms: C_21  and  C_35
   11  A    between atoms: C_27  and  C_39
   12  A    between atoms: N_29  and  C_43
   13  A    between atoms: C_37  and  C_43
   14  A    between atoms: N_40  and  C_41
   15  A    between atoms: C_41  and  C_46
                            x       y       z     vdW  Elec       q    Type
                         _______ _______ _______ _____ _____    ______ ____

>  <TORSDO>
F 15

$$$$
=
 OpenBabel11072408373D

 47 52  0  0  1  0  0  0  0  0999 V2000
  193.5860  173.9380  142.1640 C   0  0  1  0  0  3  0  0  0  0  0  0
  193.8200  174.3030  144.6330 C   0  0  0  0  0  0  0  0  0  0  0  0
  193.4620  176.3590  143.2240 C   0  0  1  0  0  3  0  0  0  0  0  0
  193.1570  175.4170  142.0320 C   0  0  1  0  0  3  0  0  0  0  0  0
  193.5260  172.2040  144.1130 C   0  0  0  0  0  3  0  0  0  0  0  0
  194.1740  175.7410  144.4430 C   0  0  1  0  0  3  0  0  0  0  0  0
  193.7440  172.3350  145.4080 O   0  0  0  0  0  0  0  0  0  0  0  0
  193.5560  173.4800  143.5850 C   0  0  0  0  0  0  0  0  0  0  0  0
  194.3860  176.3040  142.0230 C   0  0  0  0  0  2  0  0  0  0  0  0
  193.9490  173.5780  145.7530 N   0  0  0  0  0  0  0  0  0  0  0  0
  191.4910  173.5340  140.8200 N   0  0  0  0  0  2  0  0  0  0  0  0
  193.1980  171.9460  140.8910 O   0  0  0  0  0  0  0  0  0  0  0  0
  192.7540  173.0580  141.2850 C   0  0  0  0  0  0  0  0  0  0  0  0
  188.5960  173.9710  140.7530 C   0  0  0  0  0  3  0  0  0  0  0  0
  190.6190  172.7290  139.9780 C   0  0  2  0  0  3  0  0  0  0  0  0
  189.7150  173.8280  137.8690 C   0  0  0  0  0  3  0  0  0  0  0  0
  190.7040  173.2090  138.5440 C   0  0  0  0  0  0  0  0  0  0  0  0
  189.2260  172.6190  140.6040 C   0  0  0  0  0  2  0  0  0  0  0  0
  188.2990  174.0630  138.3080 C   0  0  1  0  0  3  0  0  0  0  0  0
  188.1890  174.6510  139.6810 C   0  0  0  0  0  3  0  0  0  0  0  0
  187.4950  175.1310  137.1380 Cl  0  0  0  0  0  0  0  0  0  0  0  0
  191.9360  172.9900  137.9100 O   0  0  0  0  0  0  0  0  0  0  0  0
  194.1300  173.7180  137.2740 C   0  0  0  0  0  2  0  0  0  0  0  0
  192.6420  173.9890  137.1800 C   0  0  0  0  0  3  0  0  0  0  0  0
  193.4980  174.7910  138.1370 C   0  0  0  0  0  2  0  0  0  0  0  0
  192.7610  176.5630  146.4400 N   0  0  0  0  0  2  0  0  0  0  0  0
  194.9190  177.3130  146.0560 O   0  0  0  0  0  0  0  0  0  0  0  0
  193.9730  176.5740  145.6760 C   0  0  0  0  0  0  0  0  0  0  0  0
  191.5570  175.8160  146.1150 C   0  0  0  0  0  2  0  0  0  0  0  0
  190.4680  176.7610  145.6350 C   0  0  0  0  0  2  0  0  0  0  0  0
  189.5940  176.1820  144.4990 C   0  0  1  0  0  0  0  0  0  0  0  0
  189.5170  177.1510  143.3990 N   0  0  0  0  0  2  0  0  0  0  0  0
  190.3370  178.2020  143.6470 O   0  0  0  0  0  1  0  0  0  0  0  0
  190.2850  174.9430  143.9080 C   0  0  0  0  0  2  0  0  0  0  0  0
  189.6080  173.6140  144.2280 C   0  0  0  0  0  1  0  0  0  0  0  0
  188.1590  175.8170  144.9540 C   0  0  0  0  0  2  0  0  0  0  0  0
  187.0480  176.7370  144.4260 C   0  0  2  0  0  3  0  0  0  0  0  0
  186.4000  177.9110  147.8400 C   0  0  0  0  0  2  0  0  0  0  0  0
  186.0870  177.2310  145.5150 C   0  0  1  0  0  3  0  0  0  0  0  0
  186.4270  176.7140  146.9060 C   0  0  0  0  0  2  0  0  0  0  0  0
  185.7900  179.0570  147.0620 C   0  0  0  0  0  2  0  0  0  0  0  0
  186.0810  178.7480  145.6110 C   0  0  2  0  0  3  0  0  0  0  0  0
  183.7090  179.0710  144.9220 O   0  0  0  0  0  1  0  0  0  0  0  0
  185.3870  180.1160  143.7660 O   0  0  0  0  0  0  0  0  0  0  0  0
  185.0510  179.3650  144.7180 C   0  0  0  0  0  0  0  0  0  0  0  0
  186.2870  177.0430  142.2750 O   0  0  0  0  0  1  0  0  0  0  0  0
  186.3260  176.1530  143.2970 N   0  0  0  0  0  2  0  0  0  0  0  0
  1 13  1  6  0  0  0
  1  8  1  0  0  0  0
  2 10  2  0  0  0  0
  3  9  1  6  0  0  0
  3  6  1  0  0  0  0
  4  9  1  6  0  0  0
  4  1  1  0  0  0  0
  4  3  1  0  0  0  0
  5  7  1  0  0  0  0
  6  2  1  0  0  0  0
  6 28  1  1  0  0  0
  7 10  1  0  0  0  0
  8  5  2  0  0  0  0
  8  2  1  0  0  0  0
 11 13  1  0  0  0  0
 12 13  2  0  0  0  0
 15 18  1  0  0  0  0
 15 11  1  1  0  0  0
 16 19  1  0  0  0  0
 16 17  2  0  0  0  0
 17 15  1  0  0  0  0
 18 14  1  0  0  0  0
 19 21  1  6  0  0  0
 19 20  1  0  0  0  0
 20 14  2  0  0  0  0
 22 17  1  0  0  0  0
 23 25  1  0  0  0  0
 24 23  1  0  0  0  0
 24 22  1  0  0  0  0
 24 25  1  0  0  0  0
 28 27  2  0  0  0  0
 28 26  1  0  0  0  0
 29 26  1  0  0  0  0
 30 29  1  0  0  0  0
 31 34  1  6  0  0  0
 31 36  1  0  0  0  0
 31 30  1  0  0  0  0
 32 33  1  0  0  0  0
 32 31  1  0  0  0  0
 34 35  1  0  0  0  0
 37 36  1  1  0  0  0
 39 37  1  6  0  0  0
 39 42  1  0  0  0  0
 39 40  1  0  0  0  0
 40 38  1  0  0  0  0
 41 38  1  0  0  0  0
 42 45  1  6  0  0  0
 42 41  1  0  0  0  0
 44 45  2  0  0  0  0
 45 43  1  0  0  0  0
 46 47  1  0  0  0  0
 47 37  1  0  0  0  0
M  END
>  <MODEL>
3

>  <REMARK>
 VINA RESULT:      -6.7      1.821      2.323
  Name = 
  15 active torsions:
  status: ('A' for Active; 'I' for Inactive)
    1  A    between atoms: C_2  and  C_38
    2  A    between atoms: N_3  and  C_18
    3  A    between atoms: C_5  and  N_16
    4  A    between atoms: C_7  and  C_41
    5  A    between atoms: O_9  and  C_23
    6  A    between atoms: O_9  and  C_33
    7  A    between atoms: C_18  and  C_25
    8  A    between atoms: C_18  and  C_37
    9  A    between atoms: C_18  and  C_46
   10  A    between atoms: C_21  and  C_35
   11  A    between atoms: C_27  and  C_39
   12  A    between atoms: N_29  and  C_43
   13  A    between atoms: C_37  and  C_43
   14  A    between atoms: N_40  and  C_41
   15  A    between atoms: C_41  and  C_46
                            x       y       z     vdW  Elec       q    Type
                         _______ _______ _______ _____ _____    ______ ____

>  <TORSDO>
F 15

$$$$
=
 OpenBabel11072408373D

 47 52  0  0  1  0  0  0  0  0999 V2000
  192.6640  171.9280  141.1590 C   0  0  1  0  0  3  0  0  0  0  0  0
  191.0960  173.0560  139.5610 C   0  0  0  0  0  0  0  0  0  0  0  0
  190.0580  172.0160  141.6070 C   0  0  1  0  0  3  0  0  0  0  0  0
  191.4920  171.8160  142.1600 C   0  0  1  0  0  3  0  0  0  0  0  0
  193.1890  173.5210  139.1590 C   0  0  0  0  0  3  0  0  0  0  0  0
  189.9210  172.3070  140.0990 C   0  0  1  0  0  3  0  0  0  0  0  0
  192.4110  174.0530  138.2360 O   0  0  0  0  0  0  0  0  0  0  0  0
  192.3510  172.8760  140.0470 C   0  0  0  0  0  0  0  0  0  0  0  0
  190.6280  170.6240  141.7990 C   0  0  0  0  0  2  0  0  0  0  0  0
  191.1490  173.7740  138.4310 N   0  0  0  0  0  0  0  0  0  0  0  0
  193.8800  173.2200  142.9520 N   0  0  0  0  0  2  0  0  0  0  0  0
  195.0220  171.7540  141.5440 O   0  0  0  0  0  0  0  0  0  0  0  0
  193.9330  172.3030  141.8580 C   0  0  0  0  0  0  0  0  0  0  0  0
  194.6090  176.0480  143.1700 C   0  0  0  0  0  3  0  0  0  0  0  0
  195.0720  173.6450  143.6690 C   0  0  2  0  0  3  0  0  0  0  0  0
  194.7280  174.7030  145.9570 C   0  0  0  0  0  3  0  0  0  0  0  0
  194.8110  173.6190  145.1600 C   0  0  0  0  0  0  0  0  0  0  0  0
  195.6180  174.9440  143.0710 C   0  0  0  0  0  2  0  0  0  0  0  0
  194.9960  176.1360  145.6020 C   0  0  1  0  0  3  0  0  0  0  0  0
  194.3030  176.5820  144.3520 C   0  0  0  0  0  3  0  0  0  0  0  0
  194.5050  177.1750  146.9570 Cl  0  0  0  0  0  0  0  0  0  0  0  0
  194.6280  172.3430  145.7140 O   0  0  0  0  0  0  0  0  0  0  0  0
  194.2780  170.1350  144.8470 C   0  0  0  0  0  2  0  0  0  0  0  0
  195.3030  171.1750  145.2560 C   0  0  0  0  0  3  0  0  0  0  0  0
  194.9830  170.0220  146.1840 C   0  0  0  0  0  2  0  0  0  0  0  0
  188.1930  174.2080  140.3420 N   0  0  0  0  0  2  0  0  0  0  0  0
  187.8270  172.3660  138.9860 O   0  0  0  0  0  0  0  0  0  0  0  0
  188.6040  172.9550  139.7840 C   0  0  0  0  0  0  0  0  0  0  0  0
  188.9370  174.9910  141.3150 C   0  0  0  0  0  2  0  0  0  0  0  0
  188.0310  175.3900  142.4690 C   0  0  0  0  0  2  0  0  0  0  0  0
  187.5530  176.8590  142.4090 C   0  0  1  0  0  0  0  0  0  0  0  0
  187.8930  177.4300  141.1000 N   0  0  0  0  0  2  0  0  0  0  0  0
  186.7780  177.5350  140.3350 O   0  0  0  0  0  1  0  0  0  0  0  0
  186.0190  176.8980  142.4890 C   0  0  0  0  0  2  0  0  0  0  0  0
  185.4500  176.9500  143.9040 C   0  0  0  0  0  1  0  0  0  0  0  0
  188.1610  177.7480  143.5230 C   0  0  0  0  0  2  0  0  0  0  0  0
  189.4830  177.2400  144.1200 C   0  0  2  0  0  3  0  0  0  0  0  0
  187.5600  176.3500  147.1140 C   0  0  0  0  0  2  0  0  0  0  0  0
  189.4040  176.9320  145.6210 C   0  0  1  0  0  3  0  0  0  0  0  0
  188.1480  177.4790  146.2880 C   0  0  0  0  0  2  0  0  0  0  0  0
  188.5970  175.2480  147.1460 C   0  0  0  0  0  2  0  0  0  0  0  0
  189.4120  175.4360  145.8880 C   0  0  2  0  0  3  0  0  0  0  0  0
  191.3810  174.1590  145.0490 O   0  0  0  0  0  0  0  0  0  0  0  0
  191.4310  175.0930  147.1390 O   0  0  0  0  0  1  0  0  0  0  0  0
  190.7990  174.9040  146.0670 C   0  0  0  0  0  0  0  0  0  0  0  0
  191.3110  177.6030  142.7690 O   0  0  0  0  0  1  0  0  0  0  0  0
  190.6110  178.1170  143.8110 N   0  0  0  0  0  2  0  0  0  0  0  0
  1 13  1  1  0  0  0
  1  4  1  0  0  0  0
  2  8  1  0  0  0  0
  2  6  1  0  0  0  0
  3  9  1  6  0  0  0
  3  4  1  0  0  0  0
  4  9  1  6  0  0  0
  5  8  2  0  0  0  0
  6 28  1  1  0  0  0
  6  3  1  0  0  0  0
  7 10  1  0  0  0  0
  7  5  1  0  0  0  0
  8  1  1  0  0  0  0
 10  2  2  0  0  0  0
 12 13  2  0  0  0  0
 13 11  1  0  0  0  0
 14 20  2  0  0  0  0
 15 11  1  6  0  0  0
 15 17  1  0  0  0  0
 17 22  1  0  0  0  0
 17 16  2  0  0  0  0
 18 14  1  0  0  0  0
 18 15  1  0  0  0  0
 19 16  1  0  0  0  0
 19 21  1  1  0  0  0
 20 19  1  0  0  0  0
 23 24  1  0  0  0  0
 23 25  1  0  0  0  0
 24 22  1  0  0  0  0
 24 25  1  0  0  0  0
 26 29  1  0  0  0  0
 27 28  2  0  0  0  0
 28 26  1  0  0  0  0
 29 30  1  0  0  0  0
 31 30  1  1  0  0  0
 31 34  1  0  0  0  0
 31 36  1  0  0  0  0
 32 31  1  0  0  0  0
 33 32  1  0  0  0  0
 34 35  1  0  0  0  0
 37 36  1  1  0  0  0
 38 41  1  0  0  0  0
 39 37  1  6  0  0  0
 39 42  1  0  0  0  0
 39 40  1  0  0  0  0
 40 38  1  0  0  0  0
 42 45  1  1  0  0  0
 42 41  1  0  0  0  0
 43 45  2  0  0  0  0
 45 44  1  0  0  0  0
 46 47  1  0  0  0  0
 47 37  1  0  0  0  0
M  END
>  <MODEL>
4

>  <REMARK>
 VINA RESULT:      -6.6      2.993      6.213
  Name = 
  15 active torsions:
  status: ('A' for Active; 'I' for Inactive)
    1  A    between atoms: C_2  and  C_38
    2  A    between atoms: N_3  and  C_18
    3  A    between atoms: C_5  and  N_16
    4  A    between atoms: C_7  and  C_41
    5  A    between atoms: O_9  and  C_23
    6  A    between atoms: O_9  and  C_33
    7  A    between atoms: C_18  and  C_25
    8  A    between atoms: C_18  and  C_37
    9  A    between atoms: C_18  and  C_46
   10  A    between atoms: C_21  and  C_35
   11  A    between atoms: C_27  and  C_39
   12  A    between atoms: N_29  and  C_43
   13  A    between atoms: C_37  and  C_43
   14  A    between atoms: N_40  and  C_41
   15  A    between atoms: C_41  and  C_46
                            x       y       z     vdW  Elec       q    Type
                         _______ _______ _______ _____ _____    ______ ____

>  <TORSDO>
F 15

$$$$
=
 OpenBabel11072408373D

 47 52  0  0  1  0  0  0  0  0999 V2000
  193.6880  173.6520  141.5840 C   0  0  1  0  0  3  0  0  0  0  0  0
  193.3830  174.1840  144.0150 C   0  0  0  0  0  0  0  0  0  0  0  0
  193.9100  176.1250  142.4990 C   0  0  1  0  0  3  0  0  0  0  0  0
  193.6870  175.1710  141.2980 C   0  0  1  0  0  3  0  0  0  0  0  0
  192.7150  172.1720  143.5010 C   0  0  0  0  0  3  0  0  0  0  0  0
  194.1190  175.4770  143.8810 C   0  0  1  0  0  3  0  0  0  0  0  0
  192.6300  172.3700  144.8020 O   0  0  0  0  0  0  0  0  0  0  0  0
  193.1910  173.3510  142.9600 C   0  0  0  0  0  0  0  0  0  0  0  0
  195.0600  175.7440  141.5870 C   0  0  0  0  0  2  0  0  0  0  0  0
  193.0450  173.5590  145.1510 N   0  0  0  0  0  0  0  0  0  0  0  0
  191.6320  173.4100  140.1420 N   0  0  0  0  0  2  0  0  0  0  0  0
  193.4060  171.9050  139.9700 O   0  0  0  0  0  0  0  0  0  0  0  0
  192.9080  172.9100  140.5440 C   0  0  0  0  0  0  0  0  0  0  0  0
  188.7080  173.4890  140.2680 C   0  0  0  0  0  3  0  0  0  0  0  0
  190.8100  172.7330  139.1510 C   0  0  2  0  0  3  0  0  0  0  0  0
  189.6670  174.1940  137.4090 C   0  0  0  0  0  3  0  0  0  0  0  0
  190.7570  173.5560  137.8810 C   0  0  0  0  0  0  0  0  0  0  0  0
  189.4770  172.3030  139.7690 C   0  0  0  0  0  2  0  0  0  0  0  0
  188.2620  174.1380  137.9330 C   0  0  1  0  0  3  0  0  0  0  0  0
  188.1660  174.3550  139.4110 C   0  0  0  0  0  3  0  0  0  0  0  0
  187.2770  175.3520  137.0890 Cl  0  0  0  0  0  0  0  0  0  0  0  0
  191.9670  173.6510  137.1770 O   0  0  0  0  0  0  0  0  0  0  0  0
  193.9560  174.6240  136.2560 C   0  0  0  0  0  2  0  0  0  0  0  0
  192.5540  174.8840  136.7710 C   0  0  0  0  0  3  0  0  0  0  0  0
  193.7500  175.1780  137.6520 C   0  0  0  0  0  2  0  0  0  0  0  0
  192.5610  177.0830  145.1650 N   0  0  0  0  0  2  0  0  0  0  0  0
  194.7540  176.7060  145.8090 O   0  0  0  0  0  0  0  0  0  0  0  0
  193.8320  176.4460  144.9910 C   0  0  0  0  0  0  0  0  0  0  0  0
  191.4100  176.9410  144.2870 C   0  0  0  0  0  2  0  0  0  0  0  0
  190.1230  177.0540  145.0890 C   0  0  0  0  0  2  0  0  0  0  0  0
  189.1110  175.9190  144.8090 C   0  0  1  0  0  0  0  0  0  0  0  0
  189.5380  175.1650  143.6250 N   0  0  0  0  0  2  0  0  0  0  0  0
  189.6280  173.8450  143.9210 O   0  0  0  0  0  1  0  0  0  0  0  0
  189.1410  174.9130  145.9700 C   0  0  0  0  0  2  0  0  0  0  0  0
  189.7810  175.4320  147.2550 C   0  0  0  0  0  1  0  0  0  0  0  0
  187.6640  176.4280  144.5910 C   0  0  0  0  0  2  0  0  0  0  0  0
  187.5450  177.8810  144.1040 C   0  0  2  0  0  3  0  0  0  0  0  0
  184.0950  179.0870  144.4150 C   0  0  0  0  0  2  0  0  0  0  0  0
  186.4680  178.6910  144.8380 C   0  0  1  0  0  3  0  0  0  0  0  0
  185.4910  179.3900  143.9020 C   0  0  0  0  0  2  0  0  0  0  0  0
  184.2610  178.4500  145.7780 C   0  0  0  0  0  2  0  0  0  0  0  0
  185.6300  177.8110  145.7510 C   0  0  2  0  0  3  0  0  0  0  0  0
  186.3560  176.4800  147.7290 O   0  0  0  0  0  0  0  0  0  0  0  0
  186.5180  178.7640  147.7670 O   0  0  0  0  0  1  0  0  0  0  0  0
  186.2050  177.7250  147.1300 C   0  0  0  0  0  0  0  0  0  0  0  0
  186.9120  176.8010  142.1720 O   0  0  0  0  0  1  0  0  0  0  0  0
  187.3920  177.9740  142.6530 N   0  0  0  0  0  2  0  0  0  0  0  0
  1 13  1  6  0  0  0
  1  8  1  0  0  0  0
  2 10  2  0  0  0  0
  3  9  1  6  0  0  0
  3  6  1  0  0  0  0
  4  1  1  0  0  0  0
  4  9  1  6  0  0  0
  4  3  1  0  0  0  0
  5  7  1  0  0  0  0
  6  2  1  0  0  0  0
  6 28  1  1  0  0  0
  7 10  1  0  0  0  0
  8  5  2  0  0  0  0
  8  2  1  0  0  0  0
 11 13  1  0  0  0  0
 12 13  2  0  0  0  0
 15 18  1  0  0  0  0
 15 11  1  1  0  0  0
 16 17  2  0  0  0  0
 16 19  1  0  0  0  0
 17 15  1  0  0  0  0
 18 14  1  0  0  0  0
 19 21  1  6  0  0  0
 19 20  1  0  0  0  0
 20 14  2  0  0  0  0
 22 17  1  0  0  0  0
 23 24  1  0  0  0  0
 23 25  1  0  0  0  0
 24 22  1  0  0  0  0
 24 25  1  0  0  0  0
 28 26  1  0  0  0  0
 28 27  2  0  0  0  0
 29 30  1  0  0  0  0
 29 26  1  0  0  0  0
 31 36  1  6  0  0  0
 31 30  1  0  0  0  0
 31 34  1  0  0  0  0
 32 33  1  0  0  0  0
 32 31  1  0  0  0  0
 34 35  1  0  0  0  0
 37 36  1  1  0  0  0
 38 41  1  0  0  0  0
 39 37  1  6  0  0  0
 39 42  1  0  0  0  0
 40 38  1  0  0  0  0
 40 39  1  0  0  0  0
 42 41  1  0  0  0  0
 42 45  1  1  0  0  0
 45 43  2  0  0  0  0
 45 44  1  0  0  0  0
 46 47  1  0  0  0  0
 47 37  1  0  0  0  0
M  END
>  <MODEL>
5

>  <REMARK>
 VINA RESULT:      -6.6      1.366      1.952
  Name = 
  15 active torsions:
  status: ('A' for Active; 'I' for Inactive)
    1  A    between atoms: C_2  and  C_38
    2  A    between atoms: N_3  and  C_18
    3  A    between atoms: C_5  and  N_16
    4  A    between atoms: C_7  and  C_41
    5  A    between atoms: O_9  and  C_23
    6  A    between atoms: O_9  and  C_33
    7  A    between atoms: C_18  and  C_25
    8  A    between atoms: C_18  and  C_37
    9  A    between atoms: C_18  and  C_46
   10  A    between atoms: C_21  and  C_35
   11  A    between atoms: C_27  and  C_39
   12  A    between atoms: N_29  and  C_43
   13  A    between atoms: C_37  and  C_43
   14  A    between atoms: N_40  and  C_41
   15  A    between atoms: C_41  and  C_46
                            x       y       z     vdW  Elec       q    Type
                         _______ _______ _______ _____ _____    ______ ____

>  <TORSDO>
F 15

$$$$
=
 OpenBabel11072408373D

 47 52  0  0  1  0  0  0  0  0999 V2000
  192.8230  172.7730  142.8560 C   0  0  1  0  0  3  0  0  0  0  0  0
  191.2080  173.8240  144.4580 C   0  0  0  0  0  0  0  0  0  0  0  0
  192.9250  175.3530  143.4300 C   0  0  1  0  0  3  0  0  0  0  0  0
  193.3000  174.1930  142.4740 C   0  0  1  0  0  3  0  0  0  0  0  0
  190.6110  171.8140  143.8550 C   0  0  0  0  0  3  0  0  0  0  0  0
  192.1100  174.9920  144.6880 C   0  0  1  0  0  3  0  0  0  0  0  0
  189.7880  172.2870  144.7720 O   0  0  0  0  0  0  0  0  0  0  0  0
  191.5410  172.8090  143.6210 C   0  0  0  0  0  0  0  0  0  0  0  0
  194.2870  174.6930  143.5090 C   0  0  0  0  0  2  0  0  0  0  0  0
  190.1290  173.4820  145.1750 N   0  0  0  0  0  0  0  0  0  0  0  0
  192.2060  172.4530  140.4310 N   0  0  0  0  0  2  0  0  0  0  0  0
  193.1470  170.7160  141.6710 O   0  0  0  0  0  0  0  0  0  0  0  0
  192.7160  171.8990  141.6450 C   0  0  0  0  0  0  0  0  0  0  0  0
  189.5780  171.9690  139.2350 C   0  0  0  0  0  3  0  0  0  0  0  0
  192.0560  171.6620  139.2190 C   0  0  2  0  0  3  0  0  0  0  0  0
  191.5700  172.9290  137.0670 C   0  0  0  0  0  3  0  0  0  0  0  0
  192.4290  172.4970  138.0120 C   0  0  0  0  0  0  0  0  0  0  0  0
  190.6920  170.9670  139.2020 C   0  0  0  0  0  2  0  0  0  0  0  0
  190.1160  172.5900  136.9110 C   0  0  1  0  0  3  0  0  0  0  0  0
  189.3290  172.7400  138.1760 C   0  0  0  0  0  3  0  0  0  0  0  0
  189.4100  173.6170  135.6460 Cl  0  0  0  0  0  0  0  0  0  0  0  0
  193.7850  172.8430  137.9170 O   0  0  0  0  0  0  0  0  0  0  0  0
  195.6550  174.3400  137.8100 C   0  0  0  0  0  2  0  0  0  0  0  0
  194.2580  174.0390  137.3040 C   0  0  0  0  0  3  0  0  0  0  0  0
  194.4650  175.0930  138.3700 C   0  0  0  0  0  2  0  0  0  0  0  0
  190.5260  177.0170  144.4710 N   0  0  0  0  0  2  0  0  0  0  0  0
  191.5900  176.4830  146.4570 O   0  0  0  0  0  0  0  0  0  0  0  0
  191.4030  176.1930  145.2470 C   0  0  0  0  0  0  0  0  0  0  0  0
  190.2410  176.8590  143.0530 C   0  0  0  0  0  2  0  0  0  0  0  0
  188.9210  177.5290  142.7070 C   0  0  0  0  0  2  0  0  0  0  0  0
  187.7460  176.5380  142.5310 C   0  0  1  0  0  0  0  0  0  0  0  0
  187.2980  176.5560  141.1340 N   0  0  0  0  0  2  0  0  0  0  0  0
  187.4190  177.8050  140.6220 O   0  0  0  0  0  1  0  0  0  0  0  0
  188.2460  175.1070  142.7850 C   0  0  0  0  0  2  0  0  0  0  0  0
  188.2260  174.1930  141.5630 C   0  0  0  0  0  1  0  0  0  0  0  0
  186.5400  176.8470  143.4550 C   0  0  0  0  0  2  0  0  0  0  0  0
  186.3940  178.3180  143.8730 C   0  0  2  0  0  3  0  0  0  0  0  0
  184.2090  178.1870  146.8170 C   0  0  0  0  0  2  0  0  0  0  0  0
  186.1550  178.5100  145.3760 C   0  0  1  0  0  3  0  0  0  0  0  0
  184.7730  179.0570  145.7070 C   0  0  0  0  0  2  0  0  0  0  0  0
  185.3460  177.3200  147.3110 C   0  0  0  0  0  2  0  0  0  0  0  0
  186.2920  177.2020  146.1380 C   0  0  2  0  0  3  0  0  0  0  0  0
  188.1420  175.6650  146.7850 O   0  0  0  0  0  0  0  0  0  0  0  0
  188.4580  177.9310  146.8690 O   0  0  0  0  0  1  0  0  0  0  0  0
  187.6940  176.9670  146.6050 C   0  0  0  0  0  0  0  0  0  0  0  0
  184.6170  178.1340  142.4210 O   0  0  0  0  0  1  0  0  0  0  0  0
  185.3960  179.0300  143.0760 N   0  0  0  0  0  2  0  0  0  0  0  0
  1 13  1  6  0  0  0
  1  8  1  0  0  0  0
  2  6  1  0  0  0  0
  2 10  2  0  0  0  0
  3  9  1  1  0  0  0
  3  6  1  0  0  0  0
  4  1  1  0  0  0  0
  4  3  1  0  0  0  0
  4  9  1  1  0  0  0
  5  7  1  0  0  0  0
  6 28  1  6  0  0  0
  7 10  1  0  0  0  0
  8  5  2  0  0  0  0
  8  2  1  0  0  0  0
 11 13  1  0  0  0  0
 13 12  2  0  0  0  0
 15 11  1  1  0  0  0
 16 17  2  0  0  0  0
 17 15  1  0  0  0  0
 18 15  1  0  0  0  0
 18 14  1  0  0  0  0
 19 21  1  6  0  0  0
 19 16  1  0  0  0  0
 19 20  1  0  0  0  0
 20 14  2  0  0  0  0
 22 17  1  0  0  0  0
 23 25  1  0  0  0  0
 24 23  1  0  0  0  0
 24 22  1  0  0  0  0
 24 25  1  0  0  0  0
 26 28  1  0  0  0  0
 28 27  2  0  0  0  0
 29 26  1  0  0  0  0
 30 29  1  0  0  0  0
 31 30  1  1  0  0  0
 31 34  1  0  0  0  0
 31 36  1  0  0  0  0
 32 31  1  0  0  0  0
 33 32  1  0  0  0  0
 35 34  1  0  0  0  0
 37 36  1  1  0  0  0
 38 41  1  0  0  0  0
 39 37  1  6  0  0  0
 39 40  1  0  0  0  0
 39 42  1  0  0  0  0
 40 38  1  0  0  0  0
 42 45  1  1  0  0  0
 42 41  1  0  0  0  0
 45 43  2  0  0  0  0
 45 44  1  0  0  0  0
 46 47  1  0  0  0  0
 47 37  1  0  0  0  0
M  END
>  <MODEL>
6

>  <REMARK>
 VINA RESULT:      -6.3      1.277      1.495
  Name = 
  15 active torsions:
  status: ('A' for Active; 'I' for Inactive)
    1  A    between atoms: C_2  and  C_38
    2  A    between atoms: N_3  and  C_18
    3  A    between atoms: C_5  and  N_16
    4  A    between atoms: C_7  and  C_41
    5  A    between atoms: O_9  and  C_23
    6  A    between atoms: O_9  and  C_33
    7  A    between atoms: C_18  and  C_25
    8  A    between atoms: C_18  and  C_37
    9  A    between atoms: C_18  and  C_46
   10  A    between atoms: C_21  and  C_35
   11  A    between atoms: C_27  and  C_39
   12  A    between atoms: N_29  and  C_43
   13  A    between atoms: C_37  and  C_43
   14  A    between atoms: N_40  and  C_41
   15  A    between atoms: C_41  and  C_46
                            x       y       z     vdW  Elec       q    Type
                         _______ _______ _______ _____ _____    ______ ____

>  <TORSDO>
F 15

$$$$
=
 OpenBabel11072408373D

 47 52  0  0  1  0  0  0  0  0999 V2000
  189.1950  174.1630  142.2310 C   0  0  1  0  0  3  0  0  0  0  0  0
  190.6930  172.1610  142.3950 C   0  0  0  0  0  0  0  0  0  0  0  0
  189.8980  172.7820  140.0870 C   0  0  1  0  0  3  0  0  0  0  0  0
  189.3500  174.0980  140.6950 C   0  0  1  0  0  3  0  0  0  0  0  0
  190.6490  173.3350  144.2330 C   0  0  0  0  0  3  0  0  0  0  0  0
  190.2400  171.6440  141.0690 C   0  0  1  0  0  3  0  0  0  0  0  0
  191.3690  172.2410  144.3990 O   0  0  0  0  0  0  0  0  0  0  0  0
  190.2090  173.3130  142.9240 C   0  0  0  0  0  0  0  0  0  0  0  0
  188.4070  173.0520  140.1330 C   0  0  0  0  0  2  0  0  0  0  0  0
  191.3980  171.4990  143.3230 N   0  0  0  0  0  0  0  0  0  0  0  0
  188.0890  176.1350  143.3500 N   0  0  0  0  0  2  0  0  0  0  0  0
  190.3090  176.2440  142.6420 O   0  0  0  0  0  0  0  0  0  0  0  0
  189.2420  175.5790  142.7160 C   0  0  0  0  0  0  0  0  0  0  0  0
  185.6280  177.7190  143.2730 C   0  0  0  0  0  3  0  0  0  0  0  0
  188.0530  177.5080  143.8300 C   0  0  2  0  0  3  0  0  0  0  0  0
  186.9300  177.9160  146.0760 C   0  0  0  0  0  3  0  0  0  0  0  0
  187.9900  177.5210  145.3430 C   0  0  0  0  0  0  0  0  0  0  0  0
  186.9910  178.3090  143.0730 C   0  0  0  0  0  2  0  0  0  0  0  0
  185.6530  178.5410  145.5970 C   0  0  1  0  0  3  0  0  0  0  0  0
  185.0190  177.8070  144.4570 C   0  0  0  0  0  3  0  0  0  0  0  0
  184.5070  178.6400  146.9510 Cl  0  0  0  0  0  0  0  0  0  0  0  0
  189.1430  177.0590  145.9950 O   0  0  0  0  0  0  0  0  0  0  0  0
  190.3210  175.4630  147.3430 C   0  0  0  0  0  2  0  0  0  0  0  0
  189.1290  176.3960  147.2570 C   0  0  0  0  0  3  0  0  0  0  0  0
  188.9440  174.9100  147.0330 C   0  0  0  0  0  2  0  0  0  0  0  0
  192.5000  171.0120  139.9950 N   0  0  0  0  0  2  0  0  0  0  0  0
  190.8160  169.4600  140.3450 O   0  0  0  0  0  0  0  0  0  0  0  0
  191.1900  170.6570  140.4550 C   0  0  0  0  0  0  0  0  0  0  0  0
  193.0680  172.3500  139.9960 C   0  0  0  0  0  2  0  0  0  0  0  0
  194.5740  172.2780  140.1950 C   0  0  0  0  0  2  0  0  0  0  0  0
  195.0270  172.5600  141.6460 C   0  0  1  0  0  0  0  0  0  0  0  0
  195.0050  171.3110  142.4160 N   0  0  0  0  0  2  0  0  0  0  0  0
  195.4780  170.2890  141.6590 O   0  0  0  0  0  1  0  0  0  0  0  0
  196.4950  173.0140  141.6410 C   0  0  0  0  0  2  0  0  0  0  0  0
  197.1000  173.2200  140.2550 C   0  0  0  0  0  1  0  0  0  0  0  0
  194.1510  173.6160  142.3680 C   0  0  0  0  0  2  0  0  0  0  0  0
  194.8400  174.9610  142.6450 C   0  0  2  0  0  3  0  0  0  0  0  0
  193.4880  176.5000  145.6870 C   0  0  0  0  0  2  0  0  0  0  0  0
  194.9470  175.3030  144.1370 C   0  0  1  0  0  3  0  0  0  0  0  0
  194.3970  176.6800  144.4850 C   0  0  0  0  0  2  0  0  0  0  0  0
  193.7140  175.0940  146.1980 C   0  0  0  0  0  2  0  0  0  0  0  0
  194.1850  174.3080  144.9960 C   0  0  2  0  0  3  0  0  0  0  0  0
  194.4410  171.9500  145.7600 O   0  0  0  0  0  1  0  0  0  0  0  0
  196.2920  173.2730  145.4940 O   0  0  0  0  0  0  0  0  0  0  0  0
  195.0410  173.1550  145.4150 C   0  0  0  0  0  0  0  0  0  0  0  0
  194.6560  175.9850  140.5910 O   0  0  0  0  0  1  0  0  0  0  0  0
  194.2500  176.0600  141.8830 N   0  0  0  0  0  2  0  0  0  0  0  0
  1 13  1  1  0  0  0
  1  8  1  0  0  0  0
  2  8  1  0  0  0  0
  2 10  2  0  0  0  0
  3  9  1  6  0  0  0
  3  4  1  0  0  0  0
  3  6  1  0  0  0  0
  4  9  1  6  0  0  0
  4  1  1  0  0  0  0
  5  7  1  0  0  0  0
  6 28  1  6  0  0  0
  6  2  1  0  0  0  0
  8  5  2  0  0  0  0
 10  7  1  0  0  0  0
 12 13  2  0  0  0  0
 13 11  1  0  0  0  0
 14 20  2  0  0  0  0
 15 11  1  6  0  0  0
 15 17  1  0  0  0  0
 17 22  1  0  0  0  0
 17 16  2  0  0  0  0
 18 14  1  0  0  0  0
 18 15  1  0  0  0  0
 19 16  1  0  0  0  0
 19 21  1  1  0  0  0
 20 19  1  0  0  0  0
 22 24  1  0  0  0  0
 24 23  1  0  0  0  0
 25 24  1  0  0  0  0
 25 23  1  0  0  0  0
 26 29  1  0  0  0  0
 26 28  1  0  0  0  0
 27 28  2  0  0  0  0
 29 30  1  0  0  0  0
 31 30  1  6  0  0  0
 31 36  1  0  0  0  0
 31 32  1  0  0  0  0
 33 32  1  0  0  0  0
 34 31  1  0  0  0  0
 35 34  1  0  0  0  0
 37 36  1  1  0  0  0
 38 41  1  0  0  0  0
 39 37  1  6  0  0  0
 39 40  1  0  0  0  0
 39 42  1  0  0  0  0
 40 38  1  0  0  0  0
 42 45  1  1  0  0  0
 42 41  1  0  0  0  0
 45 44  2  0  0  0  0
 45 43  1  0  0  0  0
 46 47  1  0  0  0  0
 47 37  1  0  0  0  0
M  END
>  <MODEL>
7

>  <REMARK>
 VINA RESULT:      -6.3      3.042      8.070
  Name = 
  15 active torsions:
  status: ('A' for Active; 'I' for Inactive)
    1  A    between atoms: C_2  and  C_38
    2  A    between atoms: N_3  and  C_18
    3  A    between atoms: C_5  and  N_16
    4  A    between atoms: C_7  and  C_41
    5  A    between atoms: O_9  and  C_23
    6  A    between atoms: O_9  and  C_33
    7  A    between atoms: C_18  and  C_25
    8  A    between atoms: C_18  and  C_37
    9  A    between atoms: C_18  and  C_46
   10  A    between atoms: C_21  and  C_35
   11  A    between atoms: C_27  and  C_39
   12  A    between atoms: N_29  and  C_43
   13  A    between atoms: C_37  and  C_43
   14  A    between atoms: N_40  and  C_41
   15  A    between atoms: C_41  and  C_46
                            x       y       z     vdW  Elec       q    Type
                         _______ _______ _______ _____ _____    ______ ____

>  <TORSDO>
F 15

$$$$
=
 OpenBabel11072408373D

 47 52  0  0  1  0  0  0  0  0999 V2000
  192.9850  173.7050  143.8210 C   0  0  1  0  0  3  0  0  0  0  0  0
  192.3620  175.4600  145.4980 C   0  0  0  0  0  0  0  0  0  0  0  0
  191.0660  173.3030  145.5980 C   0  0  1  0  0  3  0  0  0  0  0  0
  192.0880  172.7120  144.5950 C   0  0  1  0  0  3  0  0  0  0  0  0
  194.2390  175.8980  144.4750 C   0  0  0  0  0  3  0  0  0  0  0  0
  191.0260  174.8380  145.7360 C   0  0  1  0  0  3  0  0  0  0  0  0
  193.9020  176.8940  145.2720 O   0  0  0  0  0  0  0  0  0  0  0  0
  193.2540  174.9400  144.6170 C   0  0  0  0  0  0  0  0  0  0  0  0
  190.6410  172.9160  144.1950 C   0  0  0  0  0  2  0  0  0  0  0  0
  192.7690  176.6780  145.8850 N   0  0  0  0  0  0  0  0  0  0  0  0
  194.5380  172.9540  141.9820 N   0  0  0  0  0  2  0  0  0  0  0  0
  195.1020  172.6600  144.2260 O   0  0  0  0  0  0  0  0  0  0  0  0
  194.2550  173.0480  143.3780 C   0  0  0  0  0  0  0  0  0  0  0  0
  194.6320  171.7680  139.3060 C   0  0  0  0  0  3  0  0  0  0  0  0
  195.7430  172.3150  141.4750 C   0  0  2  0  0  3  0  0  0  0  0  0
  197.0910  173.6010  139.7420 C   0  0  0  0  0  3  0  0  0  0  0  0
  196.7310  173.3680  141.0200 C   0  0  0  0  0  0  0  0  0  0  0  0
  195.3810  171.2100  140.4780 C   0  0  0  0  0  2  0  0  0  0  0  0
  196.7190  172.8160  138.5180 C   0  0  1  0  0  3  0  0  0  0  0  0
  195.2520  172.5370  138.4100 C   0  0  0  0  0  3  0  0  0  0  0  0
  197.2640  173.6960  137.0740 Cl  0  0  0  0  0  0  0  0  0  0  0  0
  197.2790  174.1580  142.0420 O   0  0  0  0  0  0  0  0  0  0  0  0
  197.7690  176.2460  143.1150 C   0  0  0  0  0  2  0  0  0  0  0  0
  197.8510  175.4450  141.8300 C   0  0  0  0  0  3  0  0  0  0  0  0
  196.7770  176.4990  141.9970 C   0  0  0  0  0  2  0  0  0  0  0  0
  189.0690  175.7920  147.1230 N   0  0  0  0  0  2  0  0  0  0  0  0
  191.0640  175.1210  148.0910 O   0  0  0  0  0  0  0  0  0  0  0  0
  190.3940  175.2550  147.0330 C   0  0  0  0  0  0  0  0  0  0  0  0
  188.1840  176.0640  146.0020 C   0  0  0  0  0  2  0  0  0  0  0  0
  187.8750  177.5510  145.9270 C   0  0  0  0  0  2  0  0  0  0  0  0
  186.5730  177.8810  145.1620 C   0  0  1  0  0  0  0  0  0  0  0  0
  185.6660  176.7290  145.2220 N   0  0  0  0  0  2  0  0  0  0  0  0
  184.9340  176.7710  146.3630 O   0  0  0  0  0  1  0  0  0  0  0  0
  185.8360  179.0220  145.8820 C   0  0  0  0  0  2  0  0  0  0  0  0
  184.9120  179.8510  144.9950 C   0  0  0  0  0  1  0  0  0  0  0  0
  186.8120  178.2620  143.6790 C   0  0  0  0  0  2  0  0  0  0  0  0
  186.8210  177.0840  142.6930 C   0  0  2  0  0  3  0  0  0  0  0  0
  190.4880  177.1500  142.7630 C   0  0  0  0  0  2  0  0  0  0  0  0
  188.1800  176.8550  142.0180 C   0  0  1  0  0  3  0  0  0  0  0  0
  189.2240  177.9020  142.3850 C   0  0  0  0  0  2  0  0  0  0  0  0
  190.2720  175.7060  142.3640 C   0  0  0  0  0  2  0  0  0  0  0  0
  188.7730  175.5080  142.3960 C   0  0  2  0  0  3  0  0  0  0  0  0
  187.7880  173.2640  141.9520 O   0  0  0  0  0  1  0  0  0  0  0  0
  188.5530  174.5400  140.2110 O   0  0  0  0  0  0  0  0  0  0  0  0
  188.3590  174.4260  141.4500 C   0  0  0  0  0  0  0  0  0  0  0  0
  184.7350  177.9280  142.2080 O   0  0  0  0  0  1  0  0  0  0  0  0
  185.7410  177.1680  141.7100 N   0  0  0  0  0  2  0  0  0  0  0  0
  1 13  1  1  0  0  0
  1  4  1  0  0  0  0
  1  8  1  0  0  0  0
  2  6  1  0  0  0  0
  2 10  2  0  0  0  0
  3  9  1  6  0  0  0
  3  6  1  0  0  0  0
  4  9  1  6  0  0  0
  4  3  1  0  0  0  0
  5  8  2  0  0  0  0
  5  7  1  0  0  0  0
  6 28  1  1  0  0  0
  7 10  1  0  0  0  0
  8  2  1  0  0  0  0
 11 13  1  0  0  0  0
 13 12  2  0  0  0  0
 14 18  1  0  0  0  0
 15 11  1  6  0  0  0
 16 17  2  0  0  0  0
 17 15  1  0  0  0  0
 17 22  1  0  0  0  0
 18 15  1  0  0  0  0
 19 21  1  6  0  0  0
 19 16  1  0  0  0  0
 20 19  1  0  0  0  0
 20 14  2  0  0  0  0
 24 25  1  0  0  0  0
 24 22  1  0  0  0  0
 24 23  1  0  0  0  0
 25 23  1  0  0  0  0
 28 26  1  0  0  0  0
 28 27  2  0  0  0  0
 29 26  1  0  0  0  0
 30 29  1  0  0  0  0
 31 36  1  6  0  0  0
 31 32  1  0  0  0  0
 31 34  1  0  0  0  0
 31 30  1  0  0  0  0
 32 33  1  0  0  0  0
 35 34  1  0  0  0  0
 37 36  1  6  0  0  0
 39 40  1  0  0  0  0
 39 42  1  0  0  0  0
 39 37  1  1  0  0  0
 40 38  1  0  0  0  0
 41 42  1  0  0  0  0
 41 38  1  0  0  0  0
 42 45  1  6  0  0  0
 44 45  2  0  0  0  0
 45 43  1  0  0  0  0
 47 46  1  0  0  0  0
 47 37  1  0  0  0  0
M  END
>  <MODEL>
8

>  <REMARK>
 VINA RESULT:      -6.3      3.077      5.375
  Name = 
  15 active torsions:
  status: ('A' for Active; 'I' for Inactive)
    1  A    between atoms: C_2  and  C_38
    2  A    between atoms: N_3  and  C_18
    3  A    between atoms: C_5  and  N_16
    4  A    between atoms: C_7  and  C_41
    5  A    between atoms: O_9  and  C_23
    6  A    between atoms: O_9  and  C_33
    7  A    between atoms: C_18  and  C_25
    8  A    between atoms: C_18  and  C_37
    9  A    between atoms: C_18  and  C_46
   10  A    between atoms: C_21  and  C_35
   11  A    between atoms: C_27  and  C_39
   12  A    between atoms: N_29  and  C_43
   13  A    between atoms: C_37  and  C_43
   14  A    between atoms: N_40  and  C_41
   15  A    between atoms: C_41  and  C_46
                            x       y       z     vdW  Elec       q    Type
                         _______ _______ _______ _____ _____    ______ ____

>  <TORSDO>
F 15

$$$$
=
 OpenBabel11072408373D

 47 52  0  0  1  0  0  0  0  0999 V2000
  189.1870  174.1820  142.2690 C   0  0  1  0  0  3  0  0  0  0  0  0
  190.7260  172.2160  142.4880 C   0  0  0  0  0  0  0  0  0  0  0  0
  190.0840  172.8830  140.1450 C   0  0  1  0  0  3  0  0  0  0  0  0
  189.4550  174.1650  140.7470 C   0  0  1  0  0  3  0  0  0  0  0  0
  190.5150  173.3340  144.3490 C   0  0  0  0  0  3  0  0  0  0  0  0
  190.3860  171.7260  141.1190 C   0  0  1  0  0  3  0  0  0  0  0  0
  191.2510  172.2550  144.5370 O   0  0  0  0  0  0  0  0  0  0  0  0
  190.1720  173.3390  143.0110 C   0  0  0  0  0  0  0  0  0  0  0  0
  188.5870  173.1120  140.0890 C   0  0  0  0  0  2  0  0  0  0  0  0
  191.3800  171.5470  143.4470 N   0  0  0  0  0  0  0  0  0  0  0  0
  188.0880  175.9820  143.6530 N   0  0  0  0  0  2  0  0  0  0  0  0
  190.1060  176.3760  142.5510 O   0  0  0  0  0  0  0  0  0  0  0  0
  189.1580  175.5830  142.7940 C   0  0  0  0  0  0  0  0  0  0  0  0
  185.6450  177.5640  143.3410 C   0  0  0  0  0  3  0  0  0  0  0  0
  187.9830  177.3310  144.1870 C   0  0  2  0  0  3  0  0  0  0  0  0
  186.5840  177.6320  146.2910 C   0  0  0  0  0  3  0  0  0  0  0  0
  187.7300  177.2730  145.6790 C   0  0  0  0  0  0  0  0  0  0  0  0
  187.0180  178.1650  143.3400 C   0  0  0  0  0  2  0  0  0  0  0  0
  185.3730  178.2780  145.6840 C   0  0  1  0  0  3  0  0  0  0  0  0
  184.8920  177.5960  144.4410 C   0  0  0  0  0  3  0  0  0  0  0  0
  184.0650  178.3120  146.8870 Cl  0  0  0  0  0  0  0  0  0  0  0  0
  188.7960  176.7830  146.4490 O   0  0  0  0  0  0  0  0  0  0  0  0
  191.1370  176.3170  146.2220 C   0  0  0  0  0  2  0  0  0  0  0  0
  190.0890  177.3810  146.4860 C   0  0  0  0  0  3  0  0  0  0  0  0
  190.8740  176.7900  147.6380 C   0  0  0  0  0  2  0  0  0  0  0  0
  192.6630  171.2170  140.0170 N   0  0  0  0  0  2  0  0  0  0  0  0
  191.1430  169.5520  140.5470 O   0  0  0  0  0  0  0  0  0  0  0  0
  191.4070  170.7830  140.5500 C   0  0  0  0  0  0  0  0  0  0  0  0
  193.1040  172.5970  139.8930 C   0  0  0  0  0  2  0  0  0  0  0  0
  194.1080  172.9260  140.9860 C   0  0  0  0  0  2  0  0  0  0  0  0
  194.9130  174.2200  140.7270 C   0  0  1  0  0  0  0  0  0  0  0  0
  195.2590  174.3030  139.3030 N   0  0  0  0  0  2  0  0  0  0  0  0
  196.4700  173.7350  139.0840 O   0  0  0  0  0  1  0  0  0  0  0  0
  194.0180  175.4390  141.0040 C   0  0  0  0  0  2  0  0  0  0  0  0
  193.1640  175.3360  142.2640 C   0  0  0  0  0  1  0  0  0  0  0  0
  196.2090  174.3160  141.5700 C   0  0  0  0  0  2  0  0  0  0  0  0
  196.3770  173.2280  142.6420 C   0  0  2  0  0  3  0  0  0  0  0  0
  195.3040  175.7300  145.0990 C   0  0  0  0  0  2  0  0  0  0  0  0
  196.3350  173.7650  144.0780 C   0  0  1  0  0  3  0  0  0  0  0  0
  196.4110  175.2840  144.1610 C   0  0  0  0  0  2  0  0  0  0  0  0
  194.7660  174.4820  145.7640 C   0  0  0  0  0  2  0  0  0  0  0  0
  195.0540  173.3610  144.7910 C   0  0  2  0  0  3  0  0  0  0  0  0
  196.4630  171.6090  145.8630 O   0  0  0  0  0  1  0  0  0  0  0  0
  194.1910  171.3430  145.7610 O   0  0  0  0  0  0  0  0  0  0  0  0
  195.1970  172.0560  145.5080 C   0  0  0  0  0  0  0  0  0  0  0  0
  197.1860  171.0920  142.3560 O   0  0  0  0  0  1  0  0  0  0  0  0
  197.5570  172.3950  142.4140 N   0  0  0  0  0  2  0  0  0  0  0  0
  1 13  1  1  0  0  0
  1  8  1  0  0  0  0
  2  8  1  0  0  0  0
  2 10  2  0  0  0  0
  3  9  1  6  0  0  0
  3  4  1  0  0  0  0
  3  6  1  0  0  0  0
  4  9  1  6  0  0  0
  4  1  1  0  0  0  0
  5  7  1  0  0  0  0
  6 28  1  6  0  0  0
  6  2  1  0  0  0  0
  8  5  2  0  0  0  0
 10  7  1  0  0  0  0
 12 13  2  0  0  0  0
 13 11  1  0  0  0  0
 14 20  2  0  0  0  0
 15 11  1  6  0  0  0
 15 17  1  0  0  0  0
 17 16  2  0  0  0  0
 17 22  1  0  0  0  0
 18 14  1  0  0  0  0
 18 15  1  0  0  0  0
 19 16  1  0  0  0  0
 19 21  1  1  0  0  0
 20 19  1  0  0  0  0
 22 24  1  0  0  0  0
 23 24  1  0  0  0  0
 23 25  1  0  0  0  0
 24 25  1  0  0  0  0
 26 28  1  0  0  0  0
 27 28  2  0  0  0  0
 29 26  1  0  0  0  0
 29 30  1  0  0  0  0
 31 30  1  1  0  0  0
 31 34  1  0  0  0  0
 31 36  1  0  0  0  0
 32 31  1  0  0  0  0
 33 32  1  0  0  0  0
 34 35  1  0  0  0  0
 37 36  1  6  0  0  0
 38 41  1  0  0  0  0
 39 37  1  6  0  0  0
 39 40  1  0  0  0  0
 39 42  1  0  0  0  0
 40 38  1  0  0  0  0
 42 45  1  1  0  0  0
 42 41  1  0  0  0  0
 45 44  2  0  0  0  0
 45 43  1  0  0  0  0
 46 47  1  0  0  0  0
 47 37  1  0  0  0  0
M  END
>  <MODEL>
9

>  <REMARK>
 VINA RESULT:      -6.2      3.108      8.398
  Name = 
  15 active torsions:
  status: ('A' for Active; 'I' for Inactive)
    1  A    between atoms: C_2  and  C_38
    2  A    between atoms: N_3  and  C_18
    3  A    between atoms: C_5  and  N_16
    4  A    between atoms: C_7  and  C_41
    5  A    between atoms: O_9  and  C_23
    6  A    between atoms: O_9  and  C_33
    7  A    between atoms: C_18  and  C_25
    8  A    between atoms: C_18  and  C_37
    9  A    between atoms: C_18  and  C_46
   10  A    between atoms: C_21  and  C_35
   11  A    between atoms: C_27  and  C_39
   12  A    between atoms: N_29  and  C_43
   13  A    between atoms: C_37  and  C_43
   14  A    between atoms: N_40  and  C_41
   15  A    between atoms: C_41  and  C_46
                            x       y       z     vdW  Elec       q    Type
                         _______ _______ _______ _____ _____    ______ ____

>  <TORSDO>
F 15

$$$$
