=
 OpenBabel11062422523D

 46 49  0  0  1  0  0  0  0  0999 V2000
  192.9240  175.0080  146.6220 C   0  0  0  0  0  2  0  0  0  0  0  0
  193.5000  177.2850  147.2620 O   0  0  0  0  0  1  0  0  0  0  0  0
  193.5300  176.3610  146.2060 C   0  0  1  0  0  3  0  0  0  0  0  0
  195.6530  173.8410  145.1600 C   0  0  0  0  0  3  0  0  0  0  0  0
  195.0970  176.4620  144.1620 C   0  0  0  0  0  2  0  0  0  0  0  0
  195.5080  174.8310  146.0500 C   0  0  0  0  0  3  0  0  0  0  0  0
  194.9690  176.1860  145.6720 C   0  0  2  0  0  3  0  0  0  0  0  0
  195.3900  173.9990  143.6780 C   0  0  2  0  0  3  0  0  0  0  0  0
  194.6070  175.2770  143.3410 C   0  0  0  0  0  2  0  0  0  0  0  0
  194.7940  172.7320  143.0130 C   0  0  1  0  0  3  0  0  0  0  0  0
  193.4110  172.5180  143.4340 N   0  0  0  0  0  2  0  0  0  0  0  0
  193.7420  170.8760  145.0530 O   0  0  0  0  0  0  0  0  0  0  0  0
  193.0110  171.3510  144.1480 C   0  0  0  0  0  0  0  0  0  0  0  0
  191.8690  170.6700  143.7130 O   0  0  0  0  0  0  0  0  0  0  0  0
  191.6000  170.3490  142.3500 C   0  0  0  0  0  2  0  0  0  0  0  0
  190.3060  170.9890  141.7930 C   0  0  0  0  0  3  0  0  0  0  0  0
  188.5570  173.0380  140.8010 C   0  0  0  0  0  0  0  0  0  0  0  0
  189.5550  171.9040  142.7740 C   0  0  0  0  0  2  0  0  0  0  0  0
  188.2570  172.4330  142.1440 C   0  0  0  0  0  2  0  0  0  0  0  0
  190.6180  171.7270  140.4930 C   0  0  0  0  0  2  0  0  0  0  0  0
  189.3310  172.2000  139.8290 C   0  0  0  0  0  2  0  0  0  0  0  0
  188.5860  174.3210  140.6660 N   0  0  0  0  0  2  0  0  0  0  0  0
  193.8610  172.8560  140.8300 O   0  0  0  0  0  0  0  0  0  0  0  0
  194.8760  172.7700  141.5060 C   0  0  0  0  0  3  0  0  0  0  0  0
  191.7500  174.6030  145.7330 C   0  0  0  0  0  2  0  0  0  0  0  0
  188.4470  176.6720  145.2770 C   0  0  1  0  0  3  0  0  0  0  0  0
  190.0320  177.2170  143.4900 C   0  0  2  0  0  3  0  0  0  0  0  0
  188.8700  177.7770  144.2850 C   0  0  1  0  0  3  0  0  0  0  0  0
  189.4040  175.4750  145.1580 C   0  0  1  0  0  3  0  0  0  0  0  0
  190.3890  175.8710  144.1120 C   0  0  2  0  0  0  0  0  0  0  0  0
  190.8450  175.8160  145.5700 C   0  0  2  0  0  3  0  0  0  0  0  0
  190.6490  174.7930  143.2630 O   0  0  0  0  0  1  0  0  0  0  0  0
  188.2760  177.1690  146.6860 C   0  0  0  0  0  0  0  0  0  0  0  0
  185.9950  176.3660  146.7870 O   0  0  0  0  0  1  0  0  0  0  0  0
  189.2440  177.6910  147.3140 O   0  0  0  0  0  0  0  0  0  0  0  0
  187.0190  177.0530  147.3450 N   0  0  0  0  0  2  0  0  0  0  0  0
  192.0840  177.4230  142.8740 F   0  0  0  0  0  0  0  0  0  0  0  0
  191.1250  178.0940  143.5050 O   0  0  0  0  0  0  0  0  0  0  0  0
  187.7560  178.1390  143.2690 C   0  0  2  0  0  3  0  0  0  0  0  0
  185.8970  176.6360  142.9780 O   0  0  0  0  0  1  0  0  0  0  0  0
  186.3700  177.6880  143.7700 C   0  0  2  0  0  3  0  0  0  0  0  0
  185.3330  178.8140  143.7610 C   0  0  0  0  0  2  0  0  0  0  0  0
  185.2660  179.4000  145.0290 O   0  0  0  0  0  0  0  0  0  0  0  0
  184.0990  178.8830  145.6030 C   0  0  0  0  0  1  0  0  0  0  0  0
  188.0400  177.5720  141.8540 C   0  0  0  0  0  2  0  0  0  0  0  0
  188.5030  178.5770  140.9950 O   0  0  0  0  0  1  0  0  0  0  0  0
  3  1  1  0  0  0  0
  3  2  1  1  0  0  0
  4  6  2  0  0  0  0
  5  7  1  0  0  0  0
  7  6  1  0  0  0  0
  7  3  1  6  0  0  0
  8 10  1  1  0  0  0
  8  4  1  0  0  0  0
  9  8  1  0  0  0  0
  9  5  1  0  0  0  0
 10 24  1  6  0  0  0
 10 11  1  0  0  0  0
 11 13  1  0  0  0  0
 13 12  2  0  0  0  0
 14 13  1  0  0  0  0
 15 14  1  0  0  0  0
 16 15  1  0  0  0  0
 16 18  1  0  0  0  0
 17 19  1  0  0  0  0
 19 18  1  0  0  0  0
 20 16  1  0  0  0  0
 21 20  1  0  0  0  0
 21 17  1  0  0  0  0
 22 17  2  0  0  0  0
 23 24  2  0  0  0  0
 25  1  1  0  0  0  0
 26 33  1  1  0  0  0
 27 38  1  1  0  0  0
 27 30  1  0  0  0  0
 27 28  1  0  0  0  0
 28 39  1  6  0  0  0
 28 26  1  0  0  0  0
 29 26  1  0  0  0  0
 29 31  1  0  0  0  0
 30 29  1  0  0  0  0
 30 31  1  0  0  0  0
 31 25  1  0  0  0  0
 32 30  1  0  0  0  0
 33 35  2  0  0  0  0
 33 36  1  0  0  0  0
 34 36  1  0  0  0  0
 37 38  1  0  0  0  0
 39 41  1  0  0  0  0
 40 41  1  0  0  0  0
 42 41  1  0  0  0  0
 42 43  1  0  0  0  0
 43 44  1  0  0  0  0
 45 39  1  0  0  0  0
 46 45  1  0  0  0  0
M  END
>  <MODEL>
1

>  <REMARK>
 VINA RESULT:      -6.3      0.000      0.000
  Name = 
  17 active torsions:
  status: ('A' for Active; 'I' for Inactive)
    1  A    between atoms: C_1  and  C_14
    2  A    between atoms: N_2  and  CA_43
    3  A    between atoms: C_3  and  C_5
    4  A    between atoms: C_6  and  C_15
    5  A    between atoms: C_6  and  C_16
    6  A    between atoms: C_6  and  C_40
    7  A    between atoms: C_9  and  O_25
    8  A    between atoms: C_12  and  C_17
    9  A    between atoms: C_12  and  C_42
   10  A    between atoms: C_14  and  O_23
   11  A    between atoms: C_17  and  C_27
   12  A    between atoms: C_22  and  C_42
   13  A    between atoms: O_23  and  C_45
   14  A    between atoms: C_31  and  CA_43
   15  A    between atoms: C_33  and  CA_43
   16  A    between atoms: C_34  and  O_36
   17  A    between atoms: C_34  and  C_40
                            x       y       z     vdW  Elec       q    Type
                         _______ _______ _______ _____ _____    ______ ____

>  <TORSDO>
F 17

$$$$
=
 OpenBabel11062422523D

 46 49  0  0  1  0  0  0  0  0999 V2000
  192.4800  174.2050  146.1030 C   0  0  0  0  0  2  0  0  0  0  0  0
  192.1600  175.8240  147.8930 O   0  0  0  0  0  1  0  0  0  0  0  0
  192.5820  175.6710  146.5630 C   0  0  1  0  0  3  0  0  0  0  0  0
  195.5660  174.7520  145.0800 C   0  0  0  0  0  3  0  0  0  0  0  0
  194.1400  177.2260  145.2210 C   0  0  0  0  0  2  0  0  0  0  0  0
  194.9950  175.0780  146.2460 C   0  0  0  0  0  3  0  0  0  0  0  0
  194.0160  176.2150  146.3770 C   0  0  2  0  0  3  0  0  0  0  0  0
  195.3710  175.5360  143.8000 C   0  0  2  0  0  3  0  0  0  0  0  0
  194.1920  176.5180  143.8740 C   0  0  0  0  0  2  0  0  0  0  0  0
  195.3440  174.6540  142.5260 C   0  0  1  0  0  3  0  0  0  0  0  0
  193.9790  174.2600  142.1880 N   0  0  0  0  0  2  0  0  0  0  0  0
  193.8870  172.1920  143.2570 O   0  0  0  0  0  0  0  0  0  0  0  0
  193.5350  172.9090  142.2870 C   0  0  0  0  0  0  0  0  0  0  0  0
  192.8310  172.3640  141.2090 O   0  0  0  0  0  0  0  0  0  0  0  0
  191.7400  171.4560  141.3430 C   0  0  0  0  0  2  0  0  0  0  0  0
  190.6870  171.5600  140.2140 C   0  0  0  0  0  3  0  0  0  0  0  0
  189.6500  171.7190  137.5420 C   0  0  0  0  0  0  0  0  0  0  0  0
  190.6460  172.9100  139.4810 C   0  0  0  0  0  2  0  0  0  0  0  0
  189.5280  172.9270  138.4270 C   0  0  0  0  0  2  0  0  0  0  0  0
  190.8830  170.4120  139.2250 C   0  0  0  0  0  2  0  0  0  0  0  0
  189.7430  170.3830  138.2140 C   0  0  0  0  0  2  0  0  0  0  0  0
  190.1270  171.8410  136.3490 N   0  0  0  0  0  2  0  0  0  0  0  0
  196.9310  176.0960  141.5000 O   0  0  0  0  0  0  0  0  0  0  0  0
  196.0000  175.3200  141.3410 C   0  0  0  0  0  3  0  0  0  0  0  0
  191.3770  174.0000  145.0670 C   0  0  0  0  0  2  0  0  0  0  0  0
  188.3640  176.5040  144.8410 C   0  0  1  0  0  3  0  0  0  0  0  0
  189.7390  176.6590  142.8180 C   0  0  2  0  0  3  0  0  0  0  0  0
  188.7920  177.4510  143.6970 C   0  0  1  0  0  3  0  0  0  0  0  0
  189.1180  175.1690  144.7180 C   0  0  1  0  0  3  0  0  0  0  0  0
  189.9900  175.3280  143.5190 C   0  0  2  0  0  0  0  0  0  0  0  0
  190.6360  175.3200  144.9040 C   0  0  2  0  0  3  0  0  0  0  0  0
  189.9730  174.1600  142.7530 O   0  0  0  0  0  1  0  0  0  0  0  0
  188.4670  177.1310  146.2040 C   0  0  0  0  0  0  0  0  0  0  0  0
  186.2000  176.4940  146.7640 O   0  0  0  0  0  1  0  0  0  0  0  0
  189.5550  177.6380  146.6060 O   0  0  0  0  0  0  0  0  0  0  0  0
  187.3390  177.1560  147.0730 N   0  0  0  0  0  2  0  0  0  0  0  0
  190.9090  178.3230  143.5220 F   0  0  0  0  0  0  0  0  0  0  0  0
  190.9340  177.3590  142.6050 O   0  0  0  0  0  0  0  0  0  0  0  0
  187.6060  177.8960  142.8030 C   0  0  2  0  0  3  0  0  0  0  0  0
  185.3530  177.0470  142.8790 O   0  0  0  0  0  1  0  0  0  0  0  0
  186.2710  177.8440  143.5730 C   0  0  2  0  0  3  0  0  0  0  0  0
  185.6520  179.2250  143.7950 C   0  0  0  0  0  2  0  0  0  0  0  0
  185.5500  179.4780  145.1670 O   0  0  0  0  0  0  0  0  0  0  0  0
  184.2760  179.0220  145.5230 C   0  0  0  0  0  1  0  0  0  0  0  0
  187.5150  177.0770  141.4900 C   0  0  0  0  0  2  0  0  0  0  0  0
  187.2120  177.9050  140.4020 O   0  0  0  0  0  1  0  0  0  0  0  0
  1  3  1  0  0  0  0
  3  2  1  1  0  0  0
  4  6  2  0  0  0  0
  5  7  1  0  0  0  0
  6  7  1  0  0  0  0
  7  3  1  6  0  0  0
  8 10  1  6  0  0  0
  8  9  1  0  0  0  0
  8  4  1  0  0  0  0
  9  5  1  0  0  0  0
 10 24  1  6  0  0  0
 11 13  1  0  0  0  0
 11 10  1  0  0  0  0
 13 12  2  0  0  0  0
 14 15  1  0  0  0  0
 14 13  1  0  0  0  0
 16 15  1  0  0  0  0
 17 21  1  0  0  0  0
 17 19  1  0  0  0  0
 18 16  1  0  0  0  0
 19 18  1  0  0  0  0
 20 16  1  0  0  0  0
 21 20  1  0  0  0  0
 22 17  2  0  0  0  0
 24 23  2  0  0  0  0
 25  1  1  0  0  0  0
 26 33  1  1  0  0  0
 27 38  1  1  0  0  0
 27 30  1  0  0  0  0
 27 28  1  0  0  0  0
 28 39  1  6  0  0  0
 28 26  1  0  0  0  0
 29 26  1  0  0  0  0
 29 31  1  0  0  0  0
 30 29  1  0  0  0  0
 30 31  1  0  0  0  0
 31 25  1  0  0  0  0
 32 30  1  0  0  0  0
 33 35  2  0  0  0  0
 33 36  1  0  0  0  0
 34 36  1  0  0  0  0
 38 37  1  0  0  0  0
 39 41  1  0  0  0  0
 40 41  1  0  0  0  0
 41 42  1  0  0  0  0
 42 43  1  0  0  0  0
 43 44  1  0  0  0  0
 45 39  1  0  0  0  0
 46 45  1  0  0  0  0
M  END
>  <MODEL>
2

>  <REMARK>
 VINA RESULT:      -6.2      1.592      1.946
  Name = 
  17 active torsions:
  status: ('A' for Active; 'I' for Inactive)
    1  A    between atoms: C_1  and  C_14
    2  A    between atoms: N_2  and  CA_43
    3  A    between atoms: C_3  and  C_5
    4  A    between atoms: C_6  and  C_15
    5  A    between atoms: C_6  and  C_16
    6  A    between atoms: C_6  and  C_40
    7  A    between atoms: C_9  and  O_25
    8  A    between atoms: C_12  and  C_17
    9  A    between atoms: C_12  and  C_42
   10  A    between atoms: C_14  and  O_23
   11  A    between atoms: C_17  and  C_27
   12  A    between atoms: C_22  and  C_42
   13  A    between atoms: O_23  and  C_45
   14  A    between atoms: C_31  and  CA_43
   15  A    between atoms: C_33  and  CA_43
   16  A    between atoms: C_34  and  O_36
   17  A    between atoms: C_34  and  C_40
                            x       y       z     vdW  Elec       q    Type
                         _______ _______ _______ _____ _____    ______ ____

>  <TORSDO>
F 17

$$$$
=
 OpenBabel11062422523D

 46 49  0  0  1  0  0  0  0  0999 V2000
  189.8260  175.1820  142.5340 C   0  0  0  0  0  2  0  0  0  0  0  0
  187.4360  174.7620  142.3370 O   0  0  0  0  0  1  0  0  0  0  0  0
  188.5540  175.2870  141.6710 C   0  0  1  0  0  3  0  0  0  0  0  0
  185.9470  177.5470  141.4710 C   0  0  0  0  0  3  0  0  0  0  0  0
  188.6700  177.7820  142.3080 C   0  0  0  0  0  2  0  0  0  0  0  0
  186.8790  176.9070  140.7540 C   0  0  0  0  0  3  0  0  0  0  0  0
  188.2970  176.7450  141.2320 C   0  0  2  0  0  3  0  0  0  0  0  0
  186.2320  178.2560  142.7770 C   0  0  2  0  0  3  0  0  0  0  0  0
  187.5930  177.8750  143.3800 C   0  0  0  0  0  2  0  0  0  0  0  0
  185.0720  178.1670  143.8010 C   0  0  1  0  0  3  0  0  0  0  0  0
  185.4160  177.2820  144.9110 N   0  0  0  0  0  2  0  0  0  0  0  0
  184.0110  178.1480  146.5560 O   0  0  0  0  0  0  0  0  0  0  0  0
  185.1100  177.6130  146.2640 C   0  0  0  0  0  0  0  0  0  0  0  0
  186.1160  177.4660  147.2230 O   0  0  0  0  0  0  0  0  0  0  0  0
  186.8370  176.2560  147.4490 C   0  0  0  0  0  2  0  0  0  0  0  0
  188.1640  176.1540  146.6590 C   0  0  0  0  0  3  0  0  0  0  0  0
  190.9920  175.9510  146.2140 C   0  0  0  0  0  0  0  0  0  0  0  0
  189.0430  177.4140  146.6920 C   0  0  0  0  0  2  0  0  0  0  0  0
  190.3000  177.2270  145.8280 C   0  0  0  0  0  2  0  0  0  0  0  0
  188.9490  174.9320  147.1350 C   0  0  0  0  0  2  0  0  0  0  0  0
  190.1640  174.7030  146.2440 C   0  0  0  0  0  2  0  0  0  0  0  0
  192.0670  175.9930  146.9270 N   0  0  0  0  0  2  0  0  0  0  0  0
  185.3930  180.4860  144.2170 O   0  0  0  0  0  0  0  0  0  0  0  0
  184.6530  179.5190  144.3270 C   0  0  0  0  0  3  0  0  0  0  0  0
  190.7320  174.0350  142.0920 C   0  0  0  0  0  2  0  0  0  0  0  0
  194.6180  174.2240  142.6000 C   0  0  1  0  0  3  0  0  0  0  0  0
  193.6640  172.5010  144.0580 C   0  0  2  0  0  3  0  0  0  0  0  0
  194.8270  173.4640  143.9290 C   0  0  1  0  0  3  0  0  0  0  0  0
  193.2850  173.7980  141.9640 C   0  0  1  0  0  3  0  0  0  0  0  0
  192.7070  172.8020  142.9100 C   0  0  2  0  0  0  0  0  0  0  0  0
  192.0650  174.1860  142.8120 C   0  0  2  0  0  3  0  0  0  0  0  0
  192.1560  171.7310  142.2030 O   0  0  0  0  0  1  0  0  0  0  0  0
  194.7730  175.7140  142.7360 C   0  0  0  0  0  0  0  0  0  0  0  0
  195.4730  175.9400  140.4300 O   0  0  0  0  0  1  0  0  0  0  0  0
  194.4580  176.3060  143.8100 O   0  0  0  0  0  0  0  0  0  0  0  0
  195.2700  176.4890  141.6500 N   0  0  0  0  0  2  0  0  0  0  0  0
  193.7200  173.5990  145.9080 F   0  0  0  0  0  0  0  0  0  0  0  0
  193.0320  172.6360  145.3010 O   0  0  0  0  0  0  0  0  0  0  0  0
  196.1250  172.6160  143.9450 C   0  0  2  0  0  3  0  0  0  0  0  0
  196.3300  170.7490  145.4530 O   0  0  0  0  0  1  0  0  0  0  0  0
  195.8200  171.1270  144.2060 C   0  0  2  0  0  3  0  0  0  0  0  0
  196.4020  170.2000  143.1370 C   0  0  0  0  0  2  0  0  0  0  0  0
  196.3680  170.8380  141.8920 O   0  0  0  0  0  0  0  0  0  0  0  0
  195.2460  170.3060  141.2470 C   0  0  0  0  0  1  0  0  0  0  0  0
  197.1670  173.1500  144.9620 C   0  0  0  0  0  2  0  0  0  0  0  0
  196.7230  174.3360  145.5600 O   0  0  0  0  0  1  0  0  0  0  0  0
  3  2  1  1  0  0  0
  3  1  1  0  0  0  0
  4  8  1  0  0  0  0
  5  9  1  0  0  0  0
  6  7  1  0  0  0  0
  6  4  2  0  0  0  0
  7  3  1  1  0  0  0
  7  5  1  0  0  0  0
  8  9  1  0  0  0  0
  8 10  1  1  0  0  0
 10 24  1  1  0  0  0
 10 11  1  0  0  0  0
 11 13  1  0  0  0  0
 13 12  2  0  0  0  0
 13 14  1  0  0  0  0
 14 15  1  0  0  0  0
 16 18  1  0  0  0  0
 16 20  1  0  0  0  0
 16 15  1  0  0  0  0
 17 21  1  0  0  0  0
 17 22  2  0  0  0  0
 19 17  1  0  0  0  0
 19 18  1  0  0  0  0
 21 20  1  0  0  0  0
 23 24  2  0  0  0  0
 25  1  1  0  0  0  0
 25 31  1  0  0  0  0
 26 33  1  1  0  0  0
 26 28  1  0  0  0  0
 27 38  1  1  0  0  0
 28 39  1  6  0  0  0
 28 27  1  0  0  0  0
 29 26  1  0  0  0  0
 29 31  1  0  0  0  0
 29 30  1  0  0  0  0
 30 27  1  0  0  0  0
 31 30  1  0  0  0  0
 32 30  1  0  0  0  0
 33 35  2  0  0  0  0
 34 36  1  0  0  0  0
 36 33  1  0  0  0  0
 38 37  1  0  0  0  0
 39 41  1  0  0  0  0
 39 45  1  0  0  0  0
 41 40  1  0  0  0  0
 42 41  1  0  0  0  0
 43 42  1  0  0  0  0
 44 43  1  0  0  0  0
 45 46  1  0  0  0  0
M  END
>  <MODEL>
3

>  <REMARK>
 VINA RESULT:      -6.1      2.564      9.053
  Name = 
  17 active torsions:
  status: ('A' for Active; 'I' for Inactive)
    1  A    between atoms: C_1  and  C_14
    2  A    between atoms: N_2  and  CA_43
    3  A    between atoms: C_3  and  C_5
    4  A    between atoms: C_6  and  C_15
    5  A    between atoms: C_6  and  C_16
    6  A    between atoms: C_6  and  C_40
    7  A    between atoms: C_9  and  O_25
    8  A    between atoms: C_12  and  C_17
    9  A    between atoms: C_12  and  C_42
   10  A    between atoms: C_14  and  O_23
   11  A    between atoms: C_17  and  C_27
   12  A    between atoms: C_22  and  C_42
   13  A    between atoms: O_23  and  C_45
   14  A    between atoms: C_31  and  CA_43
   15  A    between atoms: C_33  and  CA_43
   16  A    between atoms: C_34  and  O_36
   17  A    between atoms: C_34  and  C_40
                            x       y       z     vdW  Elec       q    Type
                         _______ _______ _______ _____ _____    ______ ____

>  <TORSDO>
F 17

$$$$
=
 OpenBabel11062422523D

 46 49  0  0  1  0  0  0  0  0999 V2000
  194.5660  171.1080  140.5420 C   0  0  0  0  0  2  0  0  0  0  0  0
  194.2330  172.9440  138.9780 O   0  0  0  0  0  1  0  0  0  0  0  0
  193.6160  172.1850  139.9850 C   0  0  1  0  0  3  0  0  0  0  0  0
  190.6050  171.0230  141.2230 C   0  0  0  0  0  3  0  0  0  0  0  0
  191.2980  172.5950  138.9370 C   0  0  0  0  0  2  0  0  0  0  0  0
  191.6960  170.6720  140.5300 C   0  0  0  0  0  3  0  0  0  0  0  0
  192.3020  171.5570  139.4730 C   0  0  2  0  0  3  0  0  0  0  0  0
  189.8120  172.2850  140.9580 C   0  0  2  0  0  3  0  0  0  0  0  0
  190.5650  173.2920  140.0760 C   0  0  0  0  0  2  0  0  0  0  0  0
  189.2190  172.9280  142.2380 C   0  0  1  0  0  3  0  0  0  0  0  0
  187.9730  173.6330  141.9440 N   0  0  0  0  0  2  0  0  0  0  0  0
  188.7940  175.7990  141.6930 O   0  0  0  0  0  0  0  0  0  0  0  0
  187.8580  175.0480  142.0680 C   0  0  0  0  0  0  0  0  0  0  0  0
  186.7510  175.5630  142.7500 O   0  0  0  0  0  0  0  0  0  0  0  0
  186.2600  176.8930  142.5890 C   0  0  0  0  0  2  0  0  0  0  0  0
  185.4940  177.4370  143.8180 C   0  0  0  0  0  3  0  0  0  0  0  0
  185.0820  178.7670  146.3290 C   0  0  0  0  0  0  0  0  0  0  0  0
  185.7650  176.6970  145.1380 C   0  0  0  0  0  2  0  0  0  0  0  0
  184.9090  177.2760  146.2760 C   0  0  0  0  0  2  0  0  0  0  0  0
  185.7680  178.9330  143.9700 C   0  0  0  0  0  2  0  0  0  0  0  0
  184.8770  179.5280  145.0540 C   0  0  0  0  0  2  0  0  0  0  0  0
  185.8160  179.2970  147.2490 N   0  0  0  0  0  2  0  0  0  0  0  0
  189.3960  172.1580  144.4800 O   0  0  0  0  0  0  0  0  0  0  0  0
  188.9990  171.9280  143.3460 C   0  0  0  0  0  3  0  0  0  0  0  0
  195.3680  171.6090  141.7420 C   0  0  0  0  0  2  0  0  0  0  0  0
  194.6660  175.1240  143.3390 C   0  0  1  0  0  3  0  0  0  0  0  0
  193.9650  173.3480  144.8760 C   0  0  2  0  0  3  0  0  0  0  0  0
  193.6920  174.7880  144.4900 C   0  0  1  0  0  3  0  0  0  0  0  0
  195.4680  173.8690  142.9560 C   0  0  1  0  0  3  0  0  0  0  0  0
  194.9670  172.7990  143.8650 C   0  0  2  0  0  0  0  0  0  0  0  0
  194.5880  172.7460  142.3850 C   0  0  2  0  0  3  0  0  0  0  0  0
  196.0330  172.0290  144.3360 O   0  0  0  0  0  1  0  0  0  0  0  0
  193.9990  175.7930  142.1690 C   0  0  0  0  0  0  0  0  0  0  0  0
  196.0700  176.8310  141.4680 O   0  0  0  0  0  1  0  0  0  0  0  0
  192.7800  175.5740  141.9030 O   0  0  0  0  0  0  0  0  0  0  0  0
  194.7310  176.6810  141.3310 N   0  0  0  0  0  2  0  0  0  0  0  0
  192.0770  173.0920  143.8760 F   0  0  0  0  0  0  0  0  0  0  0  0
  192.7840  172.5950  144.8870 O   0  0  0  0  0  0  0  0  0  0  0  0
  193.9280  175.6510  145.7560 C   0  0  2  0  0  3  0  0  0  0  0  0
  192.1810  175.9680  147.3840 O   0  0  0  0  0  1  0  0  0  0  0  0
  192.6570  176.4290  146.1510 C   0  0  2  0  0  3  0  0  0  0  0  0
  191.5350  176.3110  145.1170 C   0  0  0  0  0  2  0  0  0  0  0  0
  190.2970  176.4810  145.7460 O   0  0  0  0  0  0  0  0  0  0  0  0
  189.5090  177.1610  144.8110 C   0  0  0  0  0  1  0  0  0  0  0  0
  195.1340  176.6140  145.5980 C   0  0  0  0  0  2  0  0  0  0  0  0
  194.7580  177.9360  145.8640 O   0  0  0  0  0  1  0  0  0  0  0  0
  1 25  1  0  0  0  0
  3  2  1  6  0  0  0
  3  1  1  0  0  0  0
  5  7  1  0  0  0  0
  5  9  1  0  0  0  0
  6  4  2  0  0  0  0
  7  3  1  1  0  0  0
  7  6  1  0  0  0  0
  8  4  1  0  0  0  0
  8 10  1  1  0  0  0
  9  8  1  0  0  0  0
 10 24  1  1  0  0  0
 11 13  1  0  0  0  0
 11 10  1  0  0  0  0
 12 13  2  0  0  0  0
 13 14  1  0  0  0  0
 15 14  1  0  0  0  0
 15 16  1  0  0  0  0
 16 20  1  0  0  0  0
 16 18  1  0  0  0  0
 17 22  2  0  0  0  0
 18 19  1  0  0  0  0
 19 17  1  0  0  0  0
 20 21  1  0  0  0  0
 21 17  1  0  0  0  0
 24 23  2  0  0  0  0
 25 31  1  0  0  0  0
 26 33  1  6  0  0  0
 26 28  1  0  0  0  0
 27 38  1  6  0  0  0
 28 27  1  0  0  0  0
 28 39  1  1  0  0  0
 29 26  1  0  0  0  0
 29 30  1  0  0  0  0
 30 32  1  0  0  0  0
 30 27  1  0  0  0  0
 31 29  1  0  0  0  0
 31 30  1  0  0  0  0
 35 33  2  0  0  0  0
 36 34  1  0  0  0  0
 36 33  1  0  0  0  0
 37 38  1  0  0  0  0
 39 41  1  0  0  0  0
 41 40  1  0  0  0  0
 42 43  1  0  0  0  0
 42 41  1  0  0  0  0
 44 43  1  0  0  0  0
 45 39  1  0  0  0  0
 45 46  1  0  0  0  0
M  END
>  <MODEL>
4

>  <REMARK>
 VINA RESULT:      -6.1      2.075      7.294
  Name = 
  17 active torsions:
  status: ('A' for Active; 'I' for Inactive)
    1  A    between atoms: C_1  and  C_14
    2  A    between atoms: N_2  and  CA_43
    3  A    between atoms: C_3  and  C_5
    4  A    between atoms: C_6  and  C_15
    5  A    between atoms: C_6  and  C_16
    6  A    between atoms: C_6  and  C_40
    7  A    between atoms: C_9  and  O_25
    8  A    between atoms: C_12  and  C_17
    9  A    between atoms: C_12  and  C_42
   10  A    between atoms: C_14  and  O_23
   11  A    between atoms: C_17  and  C_27
   12  A    between atoms: C_22  and  C_42
   13  A    between atoms: O_23  and  C_45
   14  A    between atoms: C_31  and  CA_43
   15  A    between atoms: C_33  and  CA_43
   16  A    between atoms: C_34  and  O_36
   17  A    between atoms: C_34  and  C_40
                            x       y       z     vdW  Elec       q    Type
                         _______ _______ _______ _____ _____    ______ ____

>  <TORSDO>
F 17

$$$$
=
 OpenBabel11062422523D

 46 49  0  0  1  0  0  0  0  0999 V2000
  191.4150  175.7160  147.4150 C   0  0  0  0  0  2  0  0  0  0  0  0
  192.3310  176.5380  145.3140 O   0  0  0  0  0  1  0  0  0  0  0  0
  192.1850  175.3980  146.1200 C   0  0  1  0  0  3  0  0  0  0  0  0
  194.6610  173.5880  144.5270 C   0  0  0  0  0  3  0  0  0  0  0  0
  194.7230  175.7740  146.3680 C   0  0  0  0  0  2  0  0  0  0  0  0
  193.7970  173.5680  145.5490 C   0  0  0  0  0  3  0  0  0  0  0  0
  193.5600  174.7660  146.4300 C   0  0  2  0  0  3  0  0  0  0  0  0
  195.5570  174.7650  144.2060 C   0  0  2  0  0  3  0  0  0  0  0  0
  195.1340  176.0530  144.9290 C   0  0  0  0  0  2  0  0  0  0  0  0
  195.7910  174.9740  142.6880 C   0  0  1  0  0  3  0  0  0  0  0  0
  194.7300  174.3500  141.9010 N   0  0  0  0  0  2  0  0  0  0  0  0
  195.9190  172.5740  140.9730 O   0  0  0  0  0  0  0  0  0  0  0  0
  195.0110  173.4330  140.8460 C   0  0  0  0  0  0  0  0  0  0  0  0
  194.3590  173.6150  139.6220 O   0  0  0  0  0  0  0  0  0  0  0  0
  193.0680  174.2050  139.4840 C   0  0  0  0  0  2  0  0  0  0  0  0
  191.9160  173.3480  140.0610 C   0  0  0  0  0  3  0  0  0  0  0  0
  189.2210  172.5190  140.6000 C   0  0  0  0  0  0  0  0  0  0  0  0
  191.1190  174.0050  141.1990 C   0  0  0  0  0  2  0  0  0  0  0  0
  190.0460  173.0470  141.7400 C   0  0  0  0  0  2  0  0  0  0  0  0
  190.9860  172.9130  138.9290 C   0  0  0  0  0  2  0  0  0  0  0  0
  189.9560  171.9140  139.4430 C   0  0  0  0  0  2  0  0  0  0  0  0
  188.0320  172.9800  140.3990 N   0  0  0  0  0  2  0  0  0  0  0  0
  196.5040  176.7560  141.2860 O   0  0  0  0  0  0  0  0  0  0  0  0
  195.9260  176.4300  142.3130 C   0  0  0  0  0  3  0  0  0  0  0  0
  189.9610  175.2530  147.3520 C   0  0  0  0  0  2  0  0  0  0  0  0
  186.7980  177.2140  146.1050 C   0  0  1  0  0  3  0  0  0  0  0  0
  188.5530  177.2760  144.3950 C   0  0  2  0  0  3  0  0  0  0  0  0
  187.3510  178.0360  144.9200 C   0  0  1  0  0  3  0  0  0  0  0  0
  187.7120  176.0050  146.3680 C   0  0  1  0  0  3  0  0  0  0  0  0
  188.7980  176.1150  145.3530 C   0  0  2  0  0  0  0  0  0  0  0  0
  189.1240  176.4080  146.8180 C   0  0  2  0  0  3  0  0  0  0  0  0
  189.0850  174.8580  144.8170 O   0  0  0  0  0  1  0  0  0  0  0  0
  186.5280  178.0430  147.3310 C   0  0  0  0  0  0  0  0  0  0  0  0
  184.1370  177.9690  146.9610 O   0  0  0  0  0  1  0  0  0  0  0  0
  187.4710  178.3930  148.1000 O   0  0  0  0  0  0  0  0  0  0  0  0
  185.2000  178.4420  147.6530 N   0  0  0  0  0  2  0  0  0  0  0  0
  190.2770  177.7110  143.1820 F   0  0  0  0  0  0  0  0  0  0  0  0
  189.6750  178.1090  144.3000 O   0  0  0  0  0  0  0  0  0  0  0  0
  186.3440  178.1610  143.7470 C   0  0  2  0  0  3  0  0  0  0  0  0
  187.5800  178.9380  141.8300 O   0  0  0  0  0  1  0  0  0  0  0  0
  187.0010  177.7980  142.4000 C   0  0  2  0  0  3  0  0  0  0  0  0
  186.0180  177.1930  141.3960 C   0  0  0  0  0  2  0  0  0  0  0  0
  185.7070  178.1390  140.4150 O   0  0  0  0  0  0  0  0  0  0  0  0
  184.3220  178.3120  140.5080 C   0  0  0  0  0  1  0  0  0  0  0  0
  185.6900  179.5660  143.6770 C   0  0  0  0  0  2  0  0  0  0  0  0
  184.3720  179.5280  144.1510 O   0  0  0  0  0  1  0  0  0  0  0  0
  3  2  1  1  0  0  0
  3  1  1  0  0  0  0
  4  6  2  0  0  0  0
  5  7  1  0  0  0  0
  6  7  1  0  0  0  0
  7  3  1  6  0  0  0
  8 10  1  6  0  0  0
  8  4  1  0  0  0  0
  8  9  1  0  0  0  0
  9  5  1  0  0  0  0
 10 24  1  1  0  0  0
 11 10  1  0  0  0  0
 13 12  2  0  0  0  0
 13 11  1  0  0  0  0
 14 13  1  0  0  0  0
 15 14  1  0  0  0  0
 15 16  1  0  0  0  0
 16 18  1  0  0  0  0
 17 19  1  0  0  0  0
 18 19  1  0  0  0  0
 20 21  1  0  0  0  0
 20 16  1  0  0  0  0
 21 17  1  0  0  0  0
 22 17  2  0  0  0  0
 23 24  2  0  0  0  0
 25  1  1  0  0  0  0
 26 29  1  0  0  0  0
 26 33  1  1  0  0  0
 27 38  1  1  0  0  0
 27 28  1  0  0  0  0
 27 30  1  0  0  0  0
 28 39  1  6  0  0  0
 28 26  1  0  0  0  0
 29 31  1  0  0  0  0
 30 29  1  0  0  0  0
 30 31  1  0  0  0  0
 31 25  1  0  0  0  0
 32 30  1  0  0  0  0
 33 36  1  0  0  0  0
 33 35  2  0  0  0  0
 34 36  1  0  0  0  0
 37 38  1  0  0  0  0
 40 41  1  0  0  0  0
 41 39  1  0  0  0  0
 42 41  1  0  0  0  0
 43 44  1  0  0  0  0
 43 42  1  0  0  0  0
 45 39  1  0  0  0  0
 45 46  1  0  0  0  0
M  END
>  <MODEL>
5

>  <REMARK>
 VINA RESULT:      -6.0      1.952      2.907
  Name = 
  17 active torsions:
  status: ('A' for Active; 'I' for Inactive)
    1  A    between atoms: C_1  and  C_14
    2  A    between atoms: N_2  and  CA_43
    3  A    between atoms: C_3  and  C_5
    4  A    between atoms: C_6  and  C_15
    5  A    between atoms: C_6  and  C_16
    6  A    between atoms: C_6  and  C_40
    7  A    between atoms: C_9  and  O_25
    8  A    between atoms: C_12  and  C_17
    9  A    between atoms: C_12  and  C_42
   10  A    between atoms: C_14  and  O_23
   11  A    between atoms: C_17  and  C_27
   12  A    between atoms: C_22  and  C_42
   13  A    between atoms: O_23  and  C_45
   14  A    between atoms: C_31  and  CA_43
   15  A    between atoms: C_33  and  CA_43
   16  A    between atoms: C_34  and  O_36
   17  A    between atoms: C_34  and  C_40
                            x       y       z     vdW  Elec       q    Type
                         _______ _______ _______ _____ _____    ______ ____

>  <TORSDO>
F 17

$$$$
=
 OpenBabel11062422523D

 46 49  0  0  1  0  0  0  0  0999 V2000
  194.9160  172.3650  143.1490 C   0  0  0  0  0  2  0  0  0  0  0  0
  195.5750  174.7030  143.3060 O   0  0  0  0  0  1  0  0  0  0  0  0
  195.7160  173.4420  143.9050 C   0  0  1  0  0  3  0  0  0  0  0  0
  194.1930  175.5970  146.1370 C   0  0  0  0  0  3  0  0  0  0  0  0
  193.9760  172.7820  145.6890 C   0  0  0  0  0  2  0  0  0  0  0  0
  195.3180  174.9150  145.8910 C   0  0  0  0  0  3  0  0  0  0  0  0
  195.3100  173.4940  145.3940 C   0  0  2  0  0  3  0  0  0  0  0  0
  192.8070  174.9960  146.0400 C   0  0  2  0  0  3  0  0  0  0  0  0
  192.7890  173.6520  145.2960 C   0  0  0  0  0  2  0  0  0  0  0  0
  191.7330  175.9860  145.5240 C   0  0  1  0  0  3  0  0  0  0  0  0
  190.9030  176.4810  146.6200 N   0  0  0  0  0  2  0  0  0  0  0  0
  189.2220  174.8680  146.6030 O   0  0  0  0  0  0  0  0  0  0  0  0
  189.5500  176.0670  146.7910 C   0  0  0  0  0  0  0  0  0  0  0  0
  188.5830  177.0500  147.0210 O   0  0  0  0  0  0  0  0  0  0  0  0
  187.1770  176.8030  147.0280 C   0  0  0  0  0  2  0  0  0  0  0  0
  186.3410  177.8890  146.3120 C   0  0  0  0  0  3  0  0  0  0  0  0
  184.4700  179.0180  144.4500 C   0  0  0  0  0  0  0  0  0  0  0  0
  186.7810  178.2120  144.8760 C   0  0  0  0  0  2  0  0  0  0  0  0
  185.9270  179.3440  144.2830 C   0  0  0  0  0  2  0  0  0  0  0  0
  184.8620  177.5050  146.3530 C   0  0  0  0  0  2  0  0  0  0  0  0
  184.0030  178.6480  145.8250 C   0  0  0  0  0  2  0  0  0  0  0  0
  183.7820  178.6100  143.4370 N   0  0  0  0  0  2  0  0  0  0  0  0
  191.8510  177.4900  143.6870 O   0  0  0  0  0  0  0  0  0  0  0  0
  192.3260  177.1450  144.7590 C   0  0  0  0  0  3  0  0  0  0  0  0
  194.4530  172.8460  141.7760 C   0  0  0  0  0  2  0  0  0  0  0  0
  191.1060  172.0590  139.8830 C   0  0  1  0  0  3  0  0  0  0  0  0
  190.6210  173.0770  142.0600 C   0  0  2  0  0  3  0  0  0  0  0  0
  190.0490  172.1480  141.0060 C   0  0  1  0  0  3  0  0  0  0  0  0
  192.3600  172.8520  140.2880 C   0  0  1  0  0  3  0  0  0  0  0  0
  192.0510  173.3980  141.6400 C   0  0  2  0  0  0  0  0  0  0  0  0
  193.0700  172.2640  141.5170 C   0  0  2  0  0  3  0  0  0  0  0  0
  192.4930  174.7200  141.7390 O   0  0  0  0  0  1  0  0  0  0  0  0
  191.3990  170.6490  139.4500 C   0  0  0  0  0  0  0  0  0  0  0  0
  191.9800  171.3630  137.2120 O   0  0  0  0  0  1  0  0  0  0  0  0
  191.3440  169.6910  140.2760 O   0  0  0  0  0  0  0  0  0  0  0  0
  191.7520  170.3670  138.1000 N   0  0  0  0  0  2  0  0  0  0  0  0
  189.8440  173.3260  144.0510 F   0  0  0  0  0  0  0  0  0  0  0  0
  190.5790  172.4860  143.3290 O   0  0  0  0  0  0  0  0  0  0  0  0
  188.7100  172.7690  140.5310 C   0  0  2  0  0  3  0  0  0  0  0  0
  188.2460  175.0500  139.9110 O   0  0  0  0  0  1  0  0  0  0  0  0
  188.9460  173.9050  139.5150 C   0  0  2  0  0  3  0  0  0  0  0  0
  188.5190  173.5350  138.0930 C   0  0  0  0  0  2  0  0  0  0  0  0
  189.4690  174.0060  137.1800 O   0  0  0  0  0  0  0  0  0  0  0  0
  188.7350  174.7520  136.2510 C   0  0  0  0  0  1  0  0  0  0  0  0
  187.8350  173.2630  141.7130 C   0  0  0  0  0  2  0  0  0  0  0  0
  187.0190  172.2330  142.1960 O   0  0  0  0  0  1  0  0  0  0  0  0
  1  3  1  0  0  0  0
  3  2  1  6  0  0  0
  6  4  2  0  0  0  0
  7  3  1  6  0  0  0
  7  5  1  0  0  0  0
  7  6  1  0  0  0  0
  8 10  1  6  0  0  0
  8  4  1  0  0  0  0
  9  5  1  0  0  0  0
  9  8  1  0  0  0  0
 10 24  1  1  0  0  0
 10 11  1  0  0  0  0
 11 13  1  0  0  0  0
 12 13  2  0  0  0  0
 13 14  1  0  0  0  0
 14 15  1  0  0  0  0
 16 20  1  0  0  0  0
 16 15  1  0  0  0  0
 17 21  1  0  0  0  0
 18 16  1  0  0  0  0
 19 17  1  0  0  0  0
 19 18  1  0  0  0  0
 21 20  1  0  0  0  0
 22 17  2  0  0  0  0
 23 24  2  0  0  0  0
 25  1  1  0  0  0  0
 26 33  1  1  0  0  0
 26 29  1  0  0  0  0
 26 28  1  0  0  0  0
 27 38  1  1  0  0  0
 28 39  1  6  0  0  0
 28 27  1  0  0  0  0
 29 31  1  0  0  0  0
 29 30  1  0  0  0  0
 30 32  1  0  0  0  0
 30 27  1  0  0  0  0
 31 30  1  0  0  0  0
 31 25  1  0  0  0  0
 33 35  2  0  0  0  0
 34 36  1  0  0  0  0
 36 33  1  0  0  0  0
 38 37  1  0  0  0  0
 39 45  1  0  0  0  0
 41 40  1  0  0  0  0
 41 39  1  0  0  0  0
 42 41  1  0  0  0  0
 43 42  1  0  0  0  0
 44 43  1  0  0  0  0
 45 46  1  0  0  0  0
M  END
>  <MODEL>
6

>  <REMARK>
 VINA RESULT:      -6.0      2.611      7.033
  Name = 
  17 active torsions:
  status: ('A' for Active; 'I' for Inactive)
    1  A    between atoms: C_1  and  C_14
    2  A    between atoms: N_2  and  CA_43
    3  A    between atoms: C_3  and  C_5
    4  A    between atoms: C_6  and  C_15
    5  A    between atoms: C_6  and  C_16
    6  A    between atoms: C_6  and  C_40
    7  A    between atoms: C_9  and  O_25
    8  A    between atoms: C_12  and  C_17
    9  A    between atoms: C_12  and  C_42
   10  A    between atoms: C_14  and  O_23
   11  A    between atoms: C_17  and  C_27
   12  A    between atoms: C_22  and  C_42
   13  A    between atoms: O_23  and  C_45
   14  A    between atoms: C_31  and  CA_43
   15  A    between atoms: C_33  and  CA_43
   16  A    between atoms: C_34  and  O_36
   17  A    between atoms: C_34  and  C_40
                            x       y       z     vdW  Elec       q    Type
                         _______ _______ _______ _____ _____    ______ ____

>  <TORSDO>
F 17

$$$$
=
 OpenBabel11062422523D

 46 49  0  0  1  0  0  0  0  0999 V2000
  191.6260  173.9530  140.9020 C   0  0  0  0  0  2  0  0  0  0  0  0
  190.9810  171.6650  140.3780 O   0  0  0  0  0  1  0  0  0  0  0  0
  192.0460  172.5790  140.3480 C   0  0  1  0  0  3  0  0  0  0  0  0
  193.9370  174.7760  138.4660 C   0  0  0  0  0  3  0  0  0  0  0  0
  193.9360  171.9290  138.7200 C   0  0  0  0  0  2  0  0  0  0  0  0
  192.7530  174.1550  138.5350 C   0  0  0  0  0  3  0  0  0  0  0  0
  192.6210  172.7060  138.9200 C   0  0  2  0  0  3  0  0  0  0  0  0
  195.2650  174.0780  138.6680 C   0  0  2  0  0  3  0  0  0  0  0  0
  195.1190  172.6880  139.3060 C   0  0  0  0  0  2  0  0  0  0  0  0
  196.3300  174.9560  139.3720 C   0  0  1  0  0  3  0  0  0  0  0  0
  196.2630  174.8040  140.8230 N   0  0  0  0  0  2  0  0  0  0  0  0
  195.7830  177.0020  141.4290 O   0  0  0  0  0  0  0  0  0  0  0  0
  196.3590  175.9200  141.7060 C   0  0  0  0  0  0  0  0  0  0  0  0
  197.2270  175.8250  142.7980 O   0  0  0  0  0  0  0  0  0  0  0  0
  196.9150  175.1410  144.0100 C   0  0  0  0  0  2  0  0  0  0  0  0
  195.3990  174.9650  144.2660 C   0  0  0  0  0  3  0  0  0  0  0  0
  192.9230  174.9620  145.7180 C   0  0  0  0  0  0  0  0  0  0  0  0
  195.0190  173.7600  145.1400 C   0  0  0  0  0  2  0  0  0  0  0  0
  193.4930  173.6430  145.2770 C   0  0  0  0  0  2  0  0  0  0  0  0
  194.8250  176.2580  144.8440 C   0  0  0  0  0  2  0  0  0  0  0  0
  193.3060  176.1740  144.9250 C   0  0  0  0  0  2  0  0  0  0  0  0
  192.5440  175.1220  146.9410 N   0  0  0  0  0  2  0  0  0  0  0  0
  197.9390  174.3890  137.7160 O   0  0  0  0  0  0  0  0  0  0  0  0
  197.7320  174.6750  138.8870 C   0  0  0  0  0  3  0  0  0  0  0  0
  191.3080  173.9020  142.3950 C   0  0  0  0  0  2  0  0  0  0  0  0
  188.8430  176.1460  144.4640 C   0  0  1  0  0  3  0  0  0  0  0  0
  187.7390  175.3430  142.4290 C   0  0  2  0  0  3  0  0  0  0  0  0
  187.7360  176.4740  143.4380 C   0  0  1  0  0  3  0  0  0  0  0  0
  189.5870  174.8710  144.0340 C   0  0  1  0  0  3  0  0  0  0  0  0
  188.9320  174.4530  142.7630 C   0  0  2  0  0  0  0  0  0  0  0  0
  190.3430  175.0370  142.7080 C   0  0  2  0  0  3  0  0  0  0  0  0
  188.7530  173.0670  142.7460 O   0  0  0  0  0  1  0  0  0  0  0  0
  189.7540  177.3090  144.7490 C   0  0  0  0  0  0  0  0  0  0  0  0
  189.7430  176.8490  147.1250 O   0  0  0  0  0  1  0  0  0  0  0  0
  190.2370  178.0030  143.8060 O   0  0  0  0  0  0  0  0  0  0  0  0
  190.0980  177.6440  146.0890 N   0  0  0  0  0  2  0  0  0  0  0  0
  188.1560  177.1130  141.2770 F   0  0  0  0  0  0  0  0  0  0  0  0
  187.8190  175.8350  141.1200 O   0  0  0  0  0  0  0  0  0  0  0  0
  186.3190  176.5170  144.0670 C   0  0  2  0  0  3  0  0  0  0  0  0
  185.0150  177.3810  142.2360 O   0  0  0  0  0  1  0  0  0  0  0  0
  185.4930  177.6950  143.5130 C   0  0  2  0  0  3  0  0  0  0  0  0
  186.2880  179.0000  143.4330 C   0  0  0  0  0  2  0  0  0  0  0  0
  185.4750  180.0700  143.8230 O   0  0  0  0  0  0  0  0  0  0  0  0
  184.3940  179.4760  144.4840 C   0  0  0  0  0  1  0  0  0  0  0  0
  186.3620  176.5570  145.6170 C   0  0  0  0  0  2  0  0  0  0  0  0
  185.0690  176.5670  146.1550 O   0  0  0  0  0  1  0  0  0  0  0  0
  1 25  1  0  0  0  0
  3  2  1  6  0  0  0
  3  1  1  0  0  0  0
  4  6  2  0  0  0  0
  4  8  1  0  0  0  0
  5  7  1  0  0  0  0
  5  9  1  0  0  0  0
  6  7  1  0  0  0  0
  7  3  1  1  0  0  0
  8  9  1  0  0  0  0
  8 10  1  1  0  0  0
 10 24  1  6  0  0  0
 10 11  1  0  0  0  0
 11 13  1  0  0  0  0
 12 13  2  0  0  0  0
 13 14  1  0  0  0  0
 14 15  1  0  0  0  0
 15 16  1  0  0  0  0
 16 20  1  0  0  0  0
 16 18  1  0  0  0  0
 17 22  2  0  0  0  0
 18 19  1  0  0  0  0
 19 17  1  0  0  0  0
 20 21  1  0  0  0  0
 21 17  1  0  0  0  0
 23 24  2  0  0  0  0
 25 31  1  0  0  0  0
 26 33  1  6  0  0  0
 27 38  1  6  0  0  0
 27 30  1  0  0  0  0
 27 28  1  0  0  0  0
 28 39  1  1  0  0  0
 28 26  1  0  0  0  0
 29 26  1  0  0  0  0
 30 29  1  0  0  0  0
 31 30  1  0  0  0  0
 31 29  1  0  0  0  0
 32 30  1  0  0  0  0
 33 36  1  0  0  0  0
 35 33  2  0  0  0  0
 36 34  1  0  0  0  0
 38 37  1  0  0  0  0
 39 45  1  0  0  0  0
 40 41  1  0  0  0  0
 41 39  1  0  0  0  0
 42 41  1  0  0  0  0
 42 43  1  0  0  0  0
 43 44  1  0  0  0  0
 45 46  1  0  0  0  0
M  END
>  <MODEL>
7

>  <REMARK>
 VINA RESULT:      -5.9      2.675      5.295
  Name = 
  17 active torsions:
  status: ('A' for Active; 'I' for Inactive)
    1  A    between atoms: C_1  and  C_14
    2  A    between atoms: N_2  and  CA_43
    3  A    between atoms: C_3  and  C_5
    4  A    between atoms: C_6  and  C_15
    5  A    between atoms: C_6  and  C_16
    6  A    between atoms: C_6  and  C_40
    7  A    between atoms: C_9  and  O_25
    8  A    between atoms: C_12  and  C_17
    9  A    between atoms: C_12  and  C_42
   10  A    between atoms: C_14  and  O_23
   11  A    between atoms: C_17  and  C_27
   12  A    between atoms: C_22  and  C_42
   13  A    between atoms: O_23  and  C_45
   14  A    between atoms: C_31  and  CA_43
   15  A    between atoms: C_33  and  CA_43
   16  A    between atoms: C_34  and  O_36
   17  A    between atoms: C_34  and  C_40
                            x       y       z     vdW  Elec       q    Type
                         _______ _______ _______ _____ _____    ______ ____

>  <TORSDO>
F 17

$$$$
=
 OpenBabel11062422523D

 46 49  0  0  1  0  0  0  0  0999 V2000
  192.1960  175.3650  146.8460 C   0  0  0  0  0  2  0  0  0  0  0  0
  193.5170  177.0170  145.6390 O   0  0  0  0  0  1  0  0  0  0  0  0
  192.9460  175.7370  145.5530 C   0  0  1  0  0  3  0  0  0  0  0  0
  193.1490  172.4320  144.5630 C   0  0  0  0  0  3  0  0  0  0  0  0
  194.5450  174.7950  143.7650 C   0  0  0  0  0  2  0  0  0  0  0  0
  193.5100  173.2970  145.5190 C   0  0  0  0  0  3  0  0  0  0  0  0
  194.0170  174.6800  145.2070 C   0  0  2  0  0  3  0  0  0  0  0  0
  193.3000  172.7040  143.0820 C   0  0  2  0  0  3  0  0  0  0  0  0
  193.5670  174.1840  142.7700 C   0  0  0  0  0  2  0  0  0  0  0  0
  192.1640  172.1000  142.2180 C   0  0  1  0  0  3  0  0  0  0  0  0
  191.1630  173.1110  141.8830 N   0  0  0  0  0  2  0  0  0  0  0  0
  189.2230  171.8450  142.1360 O   0  0  0  0  0  0  0  0  0  0  0  0
  189.8280  172.7630  141.5260 C   0  0  0  0  0  0  0  0  0  0  0  0
  189.2710  173.3600  140.3910 O   0  0  0  0  0  0  0  0  0  0  0  0
  188.5360  172.6530  139.3940 C   0  0  0  0  0  2  0  0  0  0  0  0
  189.3950  172.1640  138.2030 C   0  0  0  0  0  3  0  0  0  0  0  0
  191.5650  170.8810  136.8310 C   0  0  0  0  0  0  0  0  0  0  0  0
  190.7330  172.8980  138.0180 C   0  0  0  0  0  2  0  0  0  0  0  0
  191.4730  172.3790  136.7750 C   0  0  0  0  0  2  0  0  0  0  0  0
  189.6150  170.6560  138.3170 C   0  0  0  0  0  2  0  0  0  0  0  0
  190.2930  170.1230  137.0600 C   0  0  0  0  0  2  0  0  0  0  0  0
  192.6820  170.3160  137.1470 N   0  0  0  0  0  2  0  0  0  0  0  0
  192.2320  170.3580  140.6030 O   0  0  0  0  0  0  0  0  0  0  0  0
  192.6740  171.4400  140.9600 C   0  0  0  0  0  3  0  0  0  0  0  0
  191.2250  176.4590  147.2860 C   0  0  0  0  0  2  0  0  0  0  0  0
  188.5490  177.2990  144.5420 C   0  0  1  0  0  3  0  0  0  0  0  0
  187.4820  177.1770  146.7450 C   0  0  2  0  0  3  0  0  0  0  0  0
  187.2150  177.0040  145.2630 C   0  0  1  0  0  3  0  0  0  0  0  0
  189.6530  177.5590  145.5800 C   0  0  1  0  0  3  0  0  0  0  0  0
  188.9810  177.4110  146.9020 C   0  0  2  0  0  0  0  0  0  0  0  0
  189.9610  176.3290  146.4480 C   0  0  2  0  0  3  0  0  0  0  0  0
  189.4100  178.4130  147.7760 O   0  0  0  0  0  1  0  0  0  0  0  0
  188.9160  176.2590  143.5190 C   0  0  0  0  0  0  0  0  0  0  0  0
  190.8090  177.5580  142.7500 O   0  0  0  0  0  1  0  0  0  0  0  0
  188.2810  175.1670  143.4450 O   0  0  0  0  0  0  0  0  0  0  0  0
  189.9950  176.4840  142.6180 N   0  0  0  0  0  2  0  0  0  0  0  0
  185.7380  176.0560  147.3220 F   0  0  0  0  0  0  0  0  0  0  0  0
  187.0600  176.0540  147.4680 O   0  0  0  0  0  0  0  0  0  0  0  0
  186.0880  177.9990  144.8850 C   0  0  2  0  0  3  0  0  0  0  0  0
  185.8780  180.0090  143.5750 O   0  0  0  0  0  1  0  0  0  0  0  0
  186.3870  178.7060  143.5480 C   0  0  2  0  0  3  0  0  0  0  0  0
  185.8010  177.9750  142.3380 C   0  0  0  0  0  2  0  0  0  0  0  0
  184.6030  178.5860  141.9550 O   0  0  0  0  0  0  0  0  0  0  0  0
  184.4360  178.2390  140.6100 C   0  0  0  0  0  1  0  0  0  0  0  0
  185.8130  179.0350  146.0050 C   0  0  0  0  0  2  0  0  0  0  0  0
  184.5000  178.9260  146.4780 O   0  0  0  0  0  1  0  0  0  0  0  0
  1 25  1  0  0  0  0
  3  2  1  1  0  0  0
  3  1  1  0  0  0  0
  4  6  2  0  0  0  0
  5  7  1  0  0  0  0
  7  6  1  0  0  0  0
  7  3  1  6  0  0  0
  8 10  1  6  0  0  0
  8  4  1  0  0  0  0
  9  8  1  0  0  0  0
  9  5  1  0  0  0  0
 10 24  1  6  0  0  0
 11 10  1  0  0  0  0
 13 11  1  0  0  0  0
 13 12  2  0  0  0  0
 14 13  1  0  0  0  0
 15 14  1  0  0  0  0
 16 20  1  0  0  0  0
 16 15  1  0  0  0  0
 17 21  1  0  0  0  0
 17 22  2  0  0  0  0
 18 16  1  0  0  0  0
 19 17  1  0  0  0  0
 19 18  1  0  0  0  0
 21 20  1  0  0  0  0
 23 24  2  0  0  0  0
 26 33  1  1  0  0  0
 26 28  1  0  0  0  0
 26 29  1  0  0  0  0
 27 30  1  0  0  0  0
 27 38  1  1  0  0  0
 28 39  1  6  0  0  0
 28 27  1  0  0  0  0
 29 31  1  0  0  0  0
 29 30  1  0  0  0  0
 30 32  1  0  0  0  0
 31 30  1  0  0  0  0
 31 25  1  0  0  0  0
 35 33  2  0  0  0  0
 36 34  1  0  0  0  0
 36 33  1  0  0  0  0
 37 38  1  0  0  0  0
 39 45  1  0  0  0  0
 41 40  1  0  0  0  0
 41 39  1  0  0  0  0
 42 41  1  0  0  0  0
 43 42  1  0  0  0  0
 44 43  1  0  0  0  0
 45 46  1  0  0  0  0
M  END
>  <MODEL>
8

>  <REMARK>
 VINA RESULT:      -5.9      2.534      4.044
  Name = 
  17 active torsions:
  status: ('A' for Active; 'I' for Inactive)
    1  A    between atoms: C_1  and  C_14
    2  A    between atoms: N_2  and  CA_43
    3  A    between atoms: C_3  and  C_5
    4  A    between atoms: C_6  and  C_15
    5  A    between atoms: C_6  and  C_16
    6  A    between atoms: C_6  and  C_40
    7  A    between atoms: C_9  and  O_25
    8  A    between atoms: C_12  and  C_17
    9  A    between atoms: C_12  and  C_42
   10  A    between atoms: C_14  and  O_23
   11  A    between atoms: C_17  and  C_27
   12  A    between atoms: C_22  and  C_42
   13  A    between atoms: O_23  and  C_45
   14  A    between atoms: C_31  and  CA_43
   15  A    between atoms: C_33  and  CA_43
   16  A    between atoms: C_34  and  O_36
   17  A    between atoms: C_34  and  C_40
                            x       y       z     vdW  Elec       q    Type
                         _______ _______ _______ _____ _____    ______ ____

>  <TORSDO>
F 17

$$$$
=
 OpenBabel11062422523D

 46 49  0  0  1  0  0  0  0  0999 V2000
  194.1340  173.5440  145.2700 C   0  0  0  0  0  2  0  0  0  0  0  0
  196.5180  174.0070  145.1090 O   0  0  0  0  0  1  0  0  0  0  0  0
  195.3260  174.4010  145.7360 C   0  0  1  0  0  3  0  0  0  0  0  0
  193.1420  176.4380  143.9950 C   0  0  0  0  0  3  0  0  0  0  0  0
  194.2350  176.5570  146.6340 C   0  0  0  0  0  2  0  0  0  0  0  0
  194.4340  176.1240  144.1510 C   0  0  0  0  0  3  0  0  0  0  0  0
  195.0550  175.9040  145.5050 C   0  0  2  0  0  3  0  0  0  0  0  0
  192.1960  176.7010  145.1470 C   0  0  2  0  0  3  0  0  0  0  0  0
  192.7540  176.2300  146.4990 C   0  0  0  0  0  2  0  0  0  0  0  0
  190.7480  176.2140  144.8890 C   0  0  1  0  0  3  0  0  0  0  0  0
  189.8700  176.5540  146.0070 N   0  0  0  0  0  2  0  0  0  0  0  0
  189.1710  174.4180  146.6230 O   0  0  0  0  0  0  0  0  0  0  0  0
  188.8980  175.6400  146.5090 C   0  0  0  0  0  0  0  0  0  0  0  0
  187.6000  176.1110  146.7260 O   0  0  0  0  0  0  0  0  0  0  0  0
  187.2390  177.4910  146.7280 C   0  0  0  0  0  2  0  0  0  0  0  0
  186.7420  178.0170  145.3610 C   0  0  0  0  0  3  0  0  0  0  0  0
  184.8840  178.6900  143.2780 C   0  0  0  0  0  0  0  0  0  0  0  0
  186.2530  176.9360  144.3830 C   0  0  0  0  0  2  0  0  0  0  0  0
  185.8430  177.5580  143.0390 C   0  0  0  0  0  2  0  0  0  0  0  0
  185.6630  179.0760  145.5820 C   0  0  0  0  0  2  0  0  0  0  0  0
  185.2950  179.7430  144.2610 C   0  0  0  0  0  2  0  0  0  0  0  0
  183.6250  178.5250  143.0450 N   0  0  0  0  0  2  0  0  0  0  0  0
  189.9550  177.9440  143.4640 O   0  0  0  0  0  0  0  0  0  0  0  0
  190.1730  176.7480  143.5990 C   0  0  0  0  0  3  0  0  0  0  0  0
  194.5230  172.5610  144.1680 C   0  0  0  0  0  2  0  0  0  0  0  0
  192.2750  171.2210  141.2450 C   0  0  1  0  0  3  0  0  0  0  0  0
  193.0740  173.4790  140.7230 C   0  0  2  0  0  3  0  0  0  0  0  0
  191.9440  172.5050  140.4520 C   0  0  1  0  0  3  0  0  0  0  0  0
  193.5520  171.4390  142.0740 C   0  0  1  0  0  3  0  0  0  0  0  0
  193.9670  172.8400  141.7810 C   0  0  2  0  0  0  0  0  0  0  0  0
  193.3860  172.5160  143.1570 C   0  0  2  0  0  3  0  0  0  0  0  0
  195.3520  172.9060  141.6100 O   0  0  0  0  0  1  0  0  0  0  0  0
  191.1150  170.7020  142.0490 C   0  0  0  0  0  0  0  0  0  0  0  0
  191.5720  168.4160  141.3970 O   0  0  0  0  0  1  0  0  0  0  0  0
  190.4240  171.4800  142.7710 O   0  0  0  0  0  0  0  0  0  0  0  0
  190.7790  169.3190  142.0200 N   0  0  0  0  0  2  0  0  0  0  0  0
  191.4950  174.4070  141.8530 F   0  0  0  0  0  0  0  0  0  0  0  0
  192.5800  174.7180  141.1490 O   0  0  0  0  0  0  0  0  0  0  0  0
  191.8980  172.2760  138.9190 C   0  0  2  0  0  3  0  0  0  0  0  0
  191.1820  174.0720  137.4820 O   0  0  0  0  0  1  0  0  0  0  0  0
  190.7100  173.0190  138.2750 C   0  0  2  0  0  3  0  0  0  0  0  0
  189.7260  173.5820  139.3030 C   0  0  0  0  0  2  0  0  0  0  0  0
  188.5760  172.7850  139.3360 O   0  0  0  0  0  0  0  0  0  0  0  0
  188.0970  172.9010  140.6460 C   0  0  0  0  0  1  0  0  0  0  0  0
  191.8720  170.7710  138.5470 C   0  0  0  0  0  2  0  0  0  0  0  0
  190.5630  170.3410  138.2920 O   0  0  0  0  0  1  0  0  0  0  0  0
  1  3  1  0  0  0  0
  3  2  1  6  0  0  0
  4  6  2  0  0  0  0
  4  8  1  0  0  0  0
  6  7  1  0  0  0  0
  7  3  1  1  0  0  0
  7  5  1  0  0  0  0
  8 10  1  6  0  0  0
  8  9  1  0  0  0  0
  9  5  1  0  0  0  0
 10 24  1  6  0  0  0
 10 11  1  0  0  0  0
 11 13  1  0  0  0  0
 13 12  2  0  0  0  0
 13 14  1  0  0  0  0
 14 15  1  0  0  0  0
 16 20  1  0  0  0  0
 16 15  1  0  0  0  0
 17 21  1  0  0  0  0
 18 16  1  0  0  0  0
 19 17  1  0  0  0  0
 19 18  1  0  0  0  0
 21 20  1  0  0  0  0
 22 17  2  0  0  0  0
 23 24  2  0  0  0  0
 25  1  1  0  0  0  0
 26 33  1  1  0  0  0
 26 29  1  0  0  0  0
 27 38  1  1  0  0  0
 27 30  1  0  0  0  0
 28 39  1  6  0  0  0
 28 27  1  0  0  0  0
 28 26  1  0  0  0  0
 29 31  1  0  0  0  0
 30 29  1  0  0  0  0
 30 31  1  0  0  0  0
 31 25  1  0  0  0  0
 32 30  1  0  0  0  0
 33 35  2  0  0  0  0
 34 36  1  0  0  0  0
 36 33  1  0  0  0  0
 38 37  1  0  0  0  0
 40 41  1  0  0  0  0
 41 39  1  0  0  0  0
 41 42  1  0  0  0  0
 42 43  1  0  0  0  0
 43 44  1  0  0  0  0
 45 39  1  0  0  0  0
 46 45  1  0  0  0  0
M  END
>  <MODEL>
9

>  <REMARK>
 VINA RESULT:      -5.9      2.353      6.880
  Name = 
  17 active torsions:
  status: ('A' for Active; 'I' for Inactive)
    1  A    between atoms: C_1  and  C_14
    2  A    between atoms: N_2  and  CA_43
    3  A    between atoms: C_3  and  C_5
    4  A    between atoms: C_6  and  C_15
    5  A    between atoms: C_6  and  C_16
    6  A    between atoms: C_6  and  C_40
    7  A    between atoms: C_9  and  O_25
    8  A    between atoms: C_12  and  C_17
    9  A    between atoms: C_12  and  C_42
   10  A    between atoms: C_14  and  O_23
   11  A    between atoms: C_17  and  C_27
   12  A    between atoms: C_22  and  C_42
   13  A    between atoms: O_23  and  C_45
   14  A    between atoms: C_31  and  CA_43
   15  A    between atoms: C_33  and  CA_43
   16  A    between atoms: C_34  and  O_36
   17  A    between atoms: C_34  and  C_40
                            x       y       z     vdW  Elec       q    Type
                         _______ _______ _______ _____ _____    ______ ____

>  <TORSDO>
F 17

$$$$
