=
 OpenBabel11062420093D

 35 41  0  0  1  0  0  0  0  0999 V2000
  188.2800  175.4990  141.7930 C   0  0  1  0  0  0  0  0  0  0  0  0
  188.4780  173.5000  139.9500 N   0  0  0  0  0  2  0  0  0  0  0  0
  189.4500  175.9680  142.5940 C   0  0  0  0  0  2  0  0  0  0  0  0
  190.7160  172.9840  140.8010 C   0  0  0  0  0  0  0  0  0  0  0  0
  188.5010  174.2680  140.9710 C   0  0  1  0  0  3  0  0  0  0  0  0
  189.2250  174.5000  142.3120 C   0  0  2  0  0  0  0  0  0  0  0  0
  189.5340  172.4920  139.9540 C   0  0  0  0  0  2  0  0  0  0  0  0
  190.5720  173.9290  141.8290 C   0  0  0  0  0  0  0  0  0  0  0  0
  191.9790  172.5240  140.7540 N   0  0  0  0  0  0  0  0  0  0  0  0
  191.7720  174.0010  142.4410 N   0  0  0  0  0  0  0  0  0  0  0  0
  192.6020  173.1670  141.7720 C   0  0  0  0  0  3  0  0  0  0  0  0
  193.0270  175.9910  145.2380 C   0  0  1  0  0  3  0  0  0  0  0  0
  195.7530  177.2330  144.1280 O   0  0  0  0  0  1  0  0  0  0  0  0
  191.3020  174.4820  144.8820 C   0  0  0  0  0  3  0  0  0  0  0  0
  193.0720  175.6850  143.8000 C   0  0  2  0  0  3  0  0  0  0  0  0
  195.3180  176.0180  144.6640 C   0  0  1  0  0  3  0  0  0  0  0  0
  194.9480  175.4740  142.3260 O   0  0  0  0  0  1  0  0  0  0  0  0
  192.0160  175.3670  145.8490 C   0  0  0  0  0  0  0  0  0  0  0  0
  194.3650  176.3020  145.8230 C   0  0  2  0  0  3  0  0  0  0  0  0
  192.0850  174.6260  143.6630 N   0  0  0  0  0  0  0  0  0  0  0  0
  194.5050  175.2210  143.6260 C   0  0  2  0  0  3  0  0  0  0  0  0
  194.6680  175.4350  146.8580 F   0  0  0  0  0  0  0  0  0  0  0  0
  191.8500  175.2700  147.3360 C   0  0  0  0  0  2  0  0  0  0  0  0
  190.1510  176.9470  147.1940 O   0  0  0  0  0  1  0  0  0  0  0  0
  191.2850  176.5600  147.9090 C   0  0  0  0  0  2  0  0  0  0  0  0
  187.0680  175.4010  142.5940 N   0  0  0  0  0  2  0  0  0  0  0  0
  186.3250  177.5230  145.6490 C   0  0  0  0  0  3  0  0  0  0  0  0
  185.5630  178.7830  145.3870 C   0  0  2  0  0  3  0  0  0  0  0  0
  185.8630  177.4200  142.5440 C   0  0  0  0  0  3  0  0  0  0  0  0
  186.4930  176.5080  143.2950 C   0  0  0  0  0  0  0  0  0  0  0  0
  185.4910  180.7230  144.0260 F   0  0  0  0  0  0  0  0  0  0  0  0
  185.1350  178.6390  143.0030 C   0  0  0  0  0  2  0  0  0  0  0  0
  186.6830  176.5810  144.7700 C   0  0  0  0  0  3  0  0  0  0  0  0
  185.9090  179.4050  144.0490 C   0  0  2  0  0  3  0  0  0  0  0  0
  185.8130  179.6760  146.4130 F   0  0  0  0  0  0  0  0  0  0  0  0
  1  6  1  0  0  0  0
  1  3  1  0  0  0  0
  1 26  1  1  0  0  0
  2  7  1  0  0  0  0
  4  8  2  0  0  0  0
  5  2  1  6  0  0  0
  5  1  1  0  0  0  0
  5  6  1  0  0  0  0
  6  3  1  6  0  0  0
  7  4  1  0  0  0  0
  8  6  1  0  0  0  0
  8 10  1  0  0  0  0
  9  4  1  0  0  0  0
  9 11  2  0  0  0  0
 10 20  1  0  0  0  0
 11 10  1  0  0  0  0
 12 19  1  0  0  0  0
 12 18  1  1  0  0  0
 14 18  2  0  0  0  0
 15 20  1  1  0  0  0
 15 12  1  0  0  0  0
 16 13  1  6  0  0  0
 16 19  1  0  0  0  0
 18 23  1  0  0  0  0
 19 22  1  1  0  0  0
 20 14  1  0  0  0  0
 21 17  1  6  0  0  0
 21 15  1  0  0  0  0
 21 16  1  0  0  0  0
 23 25  1  0  0  0  0
 24 25  1  0  0  0  0
 26 30  1  0  0  0  0
 28 27  1  0  0  0  0
 28 35  1  1  0  0  0
 29 32  1  0  0  0  0
 29 30  2  0  0  0  0
 30 33  1  0  0  0  0
 32 34  1  0  0  0  0
 33 27  2  0  0  0  0
 34 31  1  1  0  0  0
 34 28  1  0  0  0  0
M  END
>  <MODEL>
1

>  <REMARK>
 VINA RESULT:      -8.4      0.000      0.000
  Name = 
  5 active torsions:
  status: ('A' for Active; 'I' for Inactive)
    1  A    between atoms: C_3  and  N_4
    2  A    between atoms: N_4  and  C_19
    3  A    between atoms: C_18  and  C_31
    4  A    between atoms: N_23  and  N_34
    5  A    between atoms: C_24  and  C_31
                            x       y       z     vdW  Elec       q    Type
                         _______ _______ _______ _____ _____    ______ ____

>  <TORSDO>
F 5

$$$$
=
 OpenBabel11062420093D

 35 41  0  0  1  0  0  0  0  0999 V2000
  189.4000  176.3770  143.3360 C   0  0  1  0  0  0  0  0  0  0  0  0
  187.9740  174.8690  141.5680 N   0  0  0  0  0  2  0  0  0  0  0  0
  190.8910  176.4580  143.2980 C   0  0  0  0  0  2  0  0  0  0  0  0
  190.0640  173.8310  140.8210 C   0  0  0  0  0  0  0  0  0  0  0  0
  188.7780  175.3580  142.4330 C   0  0  1  0  0  3  0  0  0  0  0  0
  190.1670  175.1520  143.0680 C   0  0  2  0  0  0  0  0  0  0  0  0
  188.5320  173.7400  140.8280 C   0  0  0  0  0  2  0  0  0  0  0  0
  190.7880  174.5150  141.8100 C   0  0  0  0  0  0  0  0  0  0  0  0
  190.8970  173.2110  139.9670 N   0  0  0  0  0  0  0  0  0  0  0  0
  192.0890  174.2570  141.5650 N   0  0  0  0  0  0  0  0  0  0  0  0
  192.1320  173.4900  140.4510 C   0  0  0  0  0  3  0  0  0  0  0  0
  194.8770  174.2850  143.9290 C   0  0  1  0  0  3  0  0  0  0  0  0
  194.3320  171.7410  145.7820 O   0  0  0  0  0  1  0  0  0  0  0  0
  194.0500  175.6920  142.2800 C   0  0  0  0  0  3  0  0  0  0  0  0
  193.7740  173.5400  143.3040 C   0  0  2  0  0  3  0  0  0  0  0  0
  193.8770  173.0590  145.6830 C   0  0  1  0  0  3  0  0  0  0  0  0
  192.1800  172.0400  144.2750 O   0  0  0  0  0  1  0  0  0  0  0  0
  195.0780  175.4670  143.3390 C   0  0  0  0  0  0  0  0  0  0  0  0
  195.0650  173.9690  145.3760 C   0  0  2  0  0  3  0  0  0  0  0  0
  193.1950  174.5180  142.3970 N   0  0  0  0  0  0  0  0  0  0  0  0
  192.9020  173.2150  144.5000 C   0  0  2  0  0  3  0  0  0  0  0  0
  194.9510  175.1090  146.1520 F   0  0  0  0  0  0  0  0  0  0  0  0
  195.9460  176.5570  143.8920 C   0  0  0  0  0  2  0  0  0  0  0  0
  197.9410  175.5160  143.0850 O   0  0  0  0  0  1  0  0  0  0  0  0
  197.2200  176.7090  143.0760 C   0  0  0  0  0  2  0  0  0  0  0  0
  188.8890  176.2760  144.6950 N   0  0  0  0  0  2  0  0  0  0  0  0
  186.1520  178.8940  144.4810 C   0  0  0  0  0  3  0  0  0  0  0  0
  185.1810  178.9040  145.6190 C   0  0  2  0  0  3  0  0  0  0  0  0
  187.2250  176.5900  146.3260 C   0  0  0  0  0  3  0  0  0  0  0  0
  187.7520  177.0040  145.1680 C   0  0  0  0  0  0  0  0  0  0  0  0
  183.7620  177.5300  146.9300 F   0  0  0  0  0  0  0  0  0  0  0  0
  186.0790  177.1840  147.0760 C   0  0  0  0  0  2  0  0  0  0  0  0
  187.2250  178.1110  144.3230 C   0  0  0  0  0  3  0  0  0  0  0  0
  184.9180  177.5170  146.1710 C   0  0  2  0  0  3  0  0  0  0  0  0
  184.0010  179.4860  145.1920 F   0  0  0  0  0  0  0  0  0  0  0  0
  1 26  1  1  0  0  0
  3  1  1  0  0  0  0
  4  7  1  0  0  0  0
  4  8  2  0  0  0  0
  5  2  1  6  0  0  0
  5  6  1  0  0  0  0
  5  1  1  0  0  0  0
  6  3  1  6  0  0  0
  6  1  1  0  0  0  0
  7  2  1  0  0  0  0
  8  6  1  0  0  0  0
  9 11  2  0  0  0  0
  9  4  1  0  0  0  0
 10  8  1  0  0  0  0
 10 20  1  0  0  0  0
 11 10  1  0  0  0  0
 12 18  1  1  0  0  0
 12 19  1  0  0  0  0
 14 20  1  0  0  0  0
 14 18  2  0  0  0  0
 15 20  1  6  0  0  0
 15 12  1  0  0  0  0
 15 21  1  0  0  0  0
 16 13  1  6  0  0  0
 18 23  1  0  0  0  0
 19 16  1  0  0  0  0
 19 22  1  1  0  0  0
 21 17  1  6  0  0  0
 21 16  1  0  0  0  0
 25 24  1  0  0  0  0
 25 23  1  0  0  0  0
 26 30  1  0  0  0  0
 27 28  1  0  0  0  0
 28 35  1  6  0  0  0
 28 34  1  0  0  0  0
 29 32  1  0  0  0  0
 30 29  2  0  0  0  0
 33 27  2  0  0  0  0
 33 30  1  0  0  0  0
 34 31  1  1  0  0  0
 34 32  1  0  0  0  0
M  END
>  <MODEL>
2

>  <REMARK>
 VINA RESULT:      -8.4      2.181      3.464
  Name = 
  5 active torsions:
  status: ('A' for Active; 'I' for Inactive)
    1  A    between atoms: C_3  and  N_4
    2  A    between atoms: N_4  and  C_19
    3  A    between atoms: C_18  and  C_31
    4  A    between atoms: N_23  and  N_34
    5  A    between atoms: C_24  and  C_31
                            x       y       z     vdW  Elec       q    Type
                         _______ _______ _______ _____ _____    ______ ____

>  <TORSDO>
F 5

$$$$
=
 OpenBabel11062420093D

 35 41  0  0  1  0  0  0  0  0999 V2000
  189.3500  175.9960  143.5120 C   0  0  1  0  0  0  0  0  0  0  0  0
  187.9730  174.2330  141.9540 N   0  0  0  0  0  2  0  0  0  0  0  0
  190.8380  176.1120  143.4650 C   0  0  0  0  0  2  0  0  0  0  0  0
  190.0930  173.1650  141.3490 C   0  0  0  0  0  0  0  0  0  0  0  0
  188.7590  174.8520  142.7480 C   0  0  1  0  0  3  0  0  0  0  0  0
  190.1510  174.7680  143.4060 C   0  0  2  0  0  0  0  0  0  0  0  0
  188.5640  173.0340  141.3660 C   0  0  0  0  0  2  0  0  0  0  0  0
  190.7940  173.9910  142.2410 C   0  0  0  0  0  0  0  0  0  0  0  0
  190.9460  172.4620  140.5840 N   0  0  0  0  0  0  0  0  0  0  0  0
  192.1030  173.7380  142.0340 N   0  0  0  0  0  0  0  0  0  0  0  0
  192.1720  172.8350  141.0280 C   0  0  0  0  0  3  0  0  0  0  0  0
  195.0200  175.2640  143.6200 C   0  0  1  0  0  3  0  0  0  0  0  0
  196.2760  177.0860  141.3160 O   0  0  0  0  0  1  0  0  0  0  0  0
  193.4670  173.6310  144.1650 C   0  0  0  0  0  3  0  0  0  0  0  0
  194.0490  175.2720  142.5160 C   0  0  2  0  0  3  0  0  0  0  0  0
  196.2820  175.7370  141.6800 C   0  0  1  0  0  3  0  0  0  0  0  0
  194.3790  175.6420  140.1730 O   0  0  0  0  0  1  0  0  0  0  0  0
  194.6860  174.3900  144.5730 C   0  0  0  0  0  0  0  0  0  0  0  0
  196.4040  175.6360  143.1990 C   0  0  2  0  0  3  0  0  0  0  0  0
  193.1970  174.1350  142.8250 N   0  0  0  0  0  0  0  0  0  0  0  0
  194.9450  175.0640  141.3120 C   0  0  2  0  0  3  0  0  0  0  0  0
  197.3020  174.6260  143.4970 F   0  0  0  0  0  0  0  0  0  0  0  0
  195.5880  173.9640  145.6920 C   0  0  0  0  0  2  0  0  0  0  0  0
  197.2110  172.2150  145.5450 O   0  0  0  0  0  1  0  0  0  0  0  0
  195.8430  172.4660  145.6500 C   0  0  0  0  0  2  0  0  0  0  0  0
  188.8360  176.0580  144.8730 N   0  0  0  0  0  2  0  0  0  0  0  0
  186.2670  178.8110  144.4140 C   0  0  0  0  0  3  0  0  0  0  0  0
  185.2620  178.9430  145.5140 C   0  0  2  0  0  3  0  0  0  0  0  0
  187.1410  176.5610  146.4230 C   0  0  0  0  0  3  0  0  0  0  0  0
  187.7290  176.8770  145.2630 C   0  0  0  0  0  0  0  0  0  0  0  0
  183.7220  177.7320  146.8490 F   0  0  0  0  0  0  0  0  0  0  0  0
  186.0090  177.2640  147.0970 C   0  0  0  0  0  2  0  0  0  0  0  0
  187.2970  177.9600  144.3380 C   0  0  0  0  0  3  0  0  0  0  0  0
  184.9000  177.6090  146.1340 C   0  0  2  0  0  3  0  0  0  0  0  0
  184.1330  179.5660  145.0130 F   0  0  0  0  0  0  0  0  0  0  0  0
  1 26  1  1  0  0  0
  3  1  1  0  0  0  0
  4  7  1  0  0  0  0
  4  8  2  0  0  0  0
  5  2  1  6  0  0  0
  5  6  1  0  0  0  0
  5  1  1  0  0  0  0
  6  3  1  6  0  0  0
  6  1  1  0  0  0  0
  7  2  1  0  0  0  0
  8  6  1  0  0  0  0
  9 11  2  0  0  0  0
  9  4  1  0  0  0  0
 10  8  1  0  0  0  0
 10 20  1  0  0  0  0
 11 10  1  0  0  0  0
 12 18  1  6  0  0  0
 14 18  2  0  0  0  0
 15 20  1  1  0  0  0
 15 12  1  0  0  0  0
 16 13  1  1  0  0  0
 16 19  1  0  0  0  0
 18 23  1  0  0  0  0
 19 22  1  6  0  0  0
 19 12  1  0  0  0  0
 20 14  1  0  0  0  0
 21 17  1  6  0  0  0
 21 16  1  0  0  0  0
 21 15  1  0  0  0  0
 24 25  1  0  0  0  0
 25 23  1  0  0  0  0
 26 30  1  0  0  0  0
 27 28  1  0  0  0  0
 28 35  1  6  0  0  0
 28 34  1  0  0  0  0
 29 32  1  0  0  0  0
 30 29  2  0  0  0  0
 33 27  2  0  0  0  0
 33 30  1  0  0  0  0
 34 31  1  1  0  0  0
 34 32  1  0  0  0  0
M  END
>  <MODEL>
3

>  <REMARK>
 VINA RESULT:      -8.0      2.443      3.103
  Name = 
  5 active torsions:
  status: ('A' for Active; 'I' for Inactive)
    1  A    between atoms: C_3  and  N_4
    2  A    between atoms: N_4  and  C_19
    3  A    between atoms: C_18  and  C_31
    4  A    between atoms: N_23  and  N_34
    5  A    between atoms: C_24  and  C_31
                            x       y       z     vdW  Elec       q    Type
                         _______ _______ _______ _____ _____    ______ ____

>  <TORSDO>
F 5

$$$$
=
 OpenBabel11062420093D

 35 41  0  0  1  0  0  0  0  0999 V2000
  190.2100  175.6800  146.7040 C   0  0  1  0  0  0  0  0  0  0  0  0
  192.8140  176.4180  147.0370 N   0  0  0  0  0  2  0  0  0  0  0  0
  189.7050  175.0790  145.4340 C   0  0  0  0  0  2  0  0  0  0  0  0
  193.1740  176.1030  144.6340 C   0  0  0  0  0  0  0  0  0  0  0  0
  191.6090  176.2130  146.6640 C   0  0  1  0  0  3  0  0  0  0  0  0
  190.6920  176.2240  145.4260 C   0  0  2  0  0  0  0  0  0  0  0  0
  193.7240  176.7110  145.9320 C   0  0  0  0  0  2  0  0  0  0  0  0
  191.8090  175.8410  144.4370 C   0  0  0  0  0  0  0  0  0  0  0  0
  193.8720  175.8470  143.5140 N   0  0  0  0  0  0  0  0  0  0  0  0
  191.6840  175.4600  143.1480 N   0  0  0  0  0  0  0  0  0  0  0  0
  192.9300  175.4550  142.6210 C   0  0  0  0  0  3  0  0  0  0  0  0
  188.7890  174.4080  141.1810 C   0  0  1  0  0  3  0  0  0  0  0  0
  189.6370  171.5440  140.0490 O   0  0  0  0  0  1  0  0  0  0  0  0
  189.4690  176.3320  142.2830 C   0  0  0  0  0  3  0  0  0  0  0  0
  190.0390  174.0400  141.8640 C   0  0  2  0  0  3  0  0  0  0  0  0
  189.8690  172.8860  139.7340 C   0  0  1  0  0  3  0  0  0  0  0  0
  191.7980  172.5690  141.1760 O   0  0  0  0  0  1  0  0  0  0  0  0
  188.4300  175.6680  141.4420 C   0  0  0  0  0  0  0  0  0  0  0  0
  188.5670  173.6650  139.9050 C   0  0  2  0  0  3  0  0  0  0  0  0
  190.5010  175.3100  142.4010 N   0  0  0  0  0  0  0  0  0  0  0  0
  190.8770  173.5130  140.7170 C   0  0  2  0  0  3  0  0  0  0  0  0
  188.4390  174.5380  138.8390 F   0  0  0  0  0  0  0  0  0  0  0  0
  187.3590  176.4170  140.7090 C   0  0  0  0  0  2  0  0  0  0  0  0
  185.9440  178.2920  141.1570 O   0  0  0  0  0  1  0  0  0  0  0  0
  187.2680  177.8560  141.1910 C   0  0  0  0  0  2  0  0  0  0  0  0
  189.2810  176.6510  147.2620 N   0  0  0  0  0  2  0  0  0  0  0  0
  185.5050  176.7980  146.9230 C   0  0  0  0  0  3  0  0  0  0  0  0
  184.9930  177.6050  145.7730 C   0  0  2  0  0  3  0  0  0  0  0  0
  188.1470  177.7990  145.5510 C   0  0  0  0  0  3  0  0  0  0  0  0
  188.0480  177.0160  146.6330 C   0  0  0  0  0  0  0  0  0  0  0  0
  185.1700  179.7050  144.6860 F   0  0  0  0  0  0  0  0  0  0  0  0
  187.0440  178.2910  144.6730 C   0  0  0  0  0  2  0  0  0  0  0  0
  186.7780  176.5480  147.2510 C   0  0  0  0  0  3  0  0  0  0  0  0
  185.8690  178.8040  145.4690 C   0  0  2  0  0  3  0  0  0  0  0  0
  183.7010  178.0100  146.0540 F   0  0  0  0  0  0  0  0  0  0  0  0
  1 26  1  1  0  0  0
  3  1  1  0  0  0  0
  4  7  1  0  0  0  0
  5  1  1  0  0  0  0
  5  2  1  6  0  0  0
  6  3  1  1  0  0  0
  6  5  1  0  0  0  0
  6  1  1  0  0  0  0
  7  2  1  0  0  0  0
  8  4  2  0  0  0  0
  8  6  1  0  0  0  0
  9  4  1  0  0  0  0
 10  8  1  0  0  0  0
 11 10  1  0  0  0  0
 11  9  2  0  0  0  0
 12 18  1  6  0  0  0
 12 15  1  0  0  0  0
 14 20  1  0  0  0  0
 15 20  1  6  0  0  0
 16 19  1  0  0  0  0
 16 13  1  1  0  0  0
 16 21  1  0  0  0  0
 18 14  2  0  0  0  0
 19 22  1  6  0  0  0
 19 12  1  0  0  0  0
 20 10  1  0  0  0  0
 21 17  1  1  0  0  0
 21 15  1  0  0  0  0
 23 25  1  0  0  0  0
 23 18  1  0  0  0  0
 24 25  1  0  0  0  0
 27 33  2  0  0  0  0
 28 35  1  1  0  0  0
 28 27  1  0  0  0  0
 29 30  2  0  0  0  0
 30 33  1  0  0  0  0
 30 26  1  0  0  0  0
 32 34  1  0  0  0  0
 32 29  1  0  0  0  0
 34 31  1  6  0  0  0
 34 28  1  0  0  0  0
M  END
>  <MODEL>
4

>  <REMARK>
 VINA RESULT:      -7.9      3.021      5.519
  Name = 
  5 active torsions:
  status: ('A' for Active; 'I' for Inactive)
    1  A    between atoms: C_3  and  N_4
    2  A    between atoms: N_4  and  C_19
    3  A    between atoms: C_18  and  C_31
    4  A    between atoms: N_23  and  N_34
    5  A    between atoms: C_24  and  C_31
                            x       y       z     vdW  Elec       q    Type
                         _______ _______ _______ _____ _____    ______ ____

>  <TORSDO>
F 5

$$$$
=
 OpenBabel11062420093D

 35 41  0  0  1  0  0  0  0  0999 V2000
  189.3220  176.0440  142.9380 C   0  0  1  0  0  0  0  0  0  0  0  0
  188.1330  173.9290  141.6940 N   0  0  0  0  0  2  0  0  0  0  0  0
  190.8050  176.2230  142.9700 C   0  0  0  0  0  2  0  0  0  0  0  0
  190.3300  172.8680  141.4730 C   0  0  0  0  0  0  0  0  0  0  0  0
  188.8330  174.7380  142.3930 C   0  0  1  0  0  3  0  0  0  0  0  0
  190.1720  174.8620  143.1470 C   0  0  2  0  0  0  0  0  0  0  0  0
  188.8100  172.6650  141.4130 C   0  0  0  0  0  2  0  0  0  0  0  0
  190.9300  173.8940  142.2190 C   0  0  0  0  0  0  0  0  0  0  0  0
  191.2650  172.0660  140.9330 N   0  0  0  0  0  0  0  0  0  0  0  0
  192.2600  173.6710  142.1590 N   0  0  0  0  0  0  0  0  0  0  0  0
  192.4380  172.5840  141.3730 C   0  0  0  0  0  3  0  0  0  0  0  0
  194.9650  175.6620  143.6000 C   0  0  1  0  0  3  0  0  0  0  0  0
  196.2300  177.1660  141.0820 O   0  0  0  0  0  1  0  0  0  0  0  0
  193.4960  174.0270  144.3410 C   0  0  0  0  0  3  0  0  0  0  0  0
  194.0640  175.4100  142.4650 C   0  0  2  0  0  3  0  0  0  0  0  0
  196.3060  175.9000  141.6700 C   0  0  1  0  0  3  0  0  0  0  0  0
  194.5090  175.4090  140.1120 O   0  0  0  0  0  1  0  0  0  0  0  0
  194.6340  174.9350  144.6710 C   0  0  0  0  0  0  0  0  0  0  0  0
  196.3430  176.0640  143.1880 C   0  0  2  0  0  3  0  0  0  0  0  0
  193.2750  174.2780  142.9230 N   0  0  0  0  0  0  0  0  0  0  0  0
  195.0430  175.0740  141.3590 C   0  0  2  0  0  3  0  0  0  0  0  0
  197.2880  175.1900  143.6970 F   0  0  0  0  0  0  0  0  0  0  0  0
  195.4940  174.7730  145.8880 C   0  0  0  0  0  2  0  0  0  0  0  0
  197.1900  173.4170  146.8880 O   0  0  0  0  0  1  0  0  0  0  0  0
  196.2760  173.4700  145.8360 C   0  0  0  0  0  2  0  0  0  0  0  0
  188.7020  176.3590  144.2170 N   0  0  0  0  0  2  0  0  0  0  0  0
  185.4650  177.3530  145.9280 C   0  0  0  0  0  3  0  0  0  0  0  0
  184.6740  178.4180  145.2380 C   0  0  2  0  0  3  0  0  0  0  0  0
  187.2050  177.9710  143.3870 C   0  0  0  0  0  3  0  0  0  0  0  0
  187.4660  177.0700  144.3410 C   0  0  0  0  0  0  0  0  0  0  0  0
  184.8190  180.5750  144.2640 F   0  0  0  0  0  0  0  0  0  0  0  0
  185.9830  178.8150  143.2340 C   0  0  0  0  0  2  0  0  0  0  0  0
  186.6120  176.7910  145.5280 C   0  0  0  0  0  3  0  0  0  0  0  0
  185.5540  179.4370  144.5410 C   0  0  2  0  0  3  0  0  0  0  0  0
  183.8600  179.0400  146.1670 F   0  0  0  0  0  0  0  0  0  0  0  0
  1  3  1  0  0  0  0
  1  6  1  0  0  0  0
  1 26  1  1  0  0  0
  4  8  2  0  0  0  0
  5  2  1  6  0  0  0
  5  1  1  0  0  0  0
  5  6  1  0  0  0  0
  6  3  1  6  0  0  0
  7  4  1  0  0  0  0
  7  2  1  0  0  0  0
  8  6  1  0  0  0  0
  9 11  2  0  0  0  0
  9  4  1  0  0  0  0
 10  8  1  0  0  0  0
 10 20  1  0  0  0  0
 11 10  1  0  0  0  0
 12 18  1  6  0  0  0
 14 18  2  0  0  0  0
 15 20  1  1  0  0  0
 15 12  1  0  0  0  0
 16 13  1  6  0  0  0
 16 19  1  0  0  0  0
 18 23  1  0  0  0  0
 19 12  1  0  0  0  0
 19 22  1  1  0  0  0
 20 14  1  0  0  0  0
 21 17  1  6  0  0  0
 21 16  1  0  0  0  0
 21 15  1  0  0  0  0
 25 23  1  0  0  0  0
 25 24  1  0  0  0  0
 26 30  1  0  0  0  0
 28 27  1  0  0  0  0
 28 35  1  1  0  0  0
 29 30  2  0  0  0  0
 30 33  1  0  0  0  0
 32 29  1  0  0  0  0
 32 34  1  0  0  0  0
 33 27  2  0  0  0  0
 34 31  1  6  0  0  0
 34 28  1  0  0  0  0
M  END
>  <MODEL>
5

>  <REMARK>
 VINA RESULT:      -7.8      2.301      2.601
  Name = 
  5 active torsions:
  status: ('A' for Active; 'I' for Inactive)
    1  A    between atoms: C_3  and  N_4
    2  A    between atoms: N_4  and  C_19
    3  A    between atoms: C_18  and  C_31
    4  A    between atoms: N_23  and  N_34
    5  A    between atoms: C_24  and  C_31
                            x       y       z     vdW  Elec       q    Type
                         _______ _______ _______ _____ _____    ______ ____

>  <TORSDO>
F 5

$$$$
=
 OpenBabel11062420093D

 35 41  0  0  1  0  0  0  0  0999 V2000
  189.8790  174.1490  141.5050 C   0  0  1  0  0  0  0  0  0  0  0  0
  192.4540  174.9870  141.8180 N   0  0  0  0  0  2  0  0  0  0  0  0
  188.7100  174.9840  141.9140 C   0  0  0  0  0  2  0  0  0  0  0  0
  191.6460  176.8450  143.1960 C   0  0  0  0  0  0  0  0  0  0  0  0
  191.2240  174.6580  141.9210 C   0  0  1  0  0  3  0  0  0  0  0  0
  189.9570  174.9040  142.7650 C   0  0  2  0  0  0  0  0  0  0  0  0
  192.8650  176.0130  142.7730 C   0  0  0  0  0  2  0  0  0  0  0  0
  190.3340  176.3500  143.1390 C   0  0  0  0  0  0  0  0  0  0  0  0
  191.6690  178.0680  143.7540 N   0  0  0  0  0  0  0  0  0  0  0  0
  189.5570  177.2870  143.7220 N   0  0  0  0  0  0  0  0  0  0  0  0
  190.3720  178.3110  144.0660 C   0  0  0  0  0  3  0  0  0  0  0  0
  185.9310  176.9990  144.0750 C   0  0  1  0  0  3  0  0  0  0  0  0
  184.8120  177.9100  141.2250 O   0  0  0  0  0  1  0  0  0  0  0  0
  187.7780  176.8400  145.4680 C   0  0  0  0  0  3  0  0  0  0  0  0
  187.0960  177.1170  143.1850 C   0  0  2  0  0  3  0  0  0  0  0  0
  185.2810  178.5220  142.3900 C   0  0  1  0  0  3  0  0  0  0  0  0
  187.4030  178.4380  141.2110 O   0  0  0  0  0  1  0  0  0  0  0  0
  186.2910  176.7950  145.3450 C   0  0  0  0  0  0  0  0  0  0  0  0
  184.7390  177.7620  143.5990 C   0  0  2  0  0  3  0  0  0  0  0  0
  188.2110  177.1710  144.1170 N   0  0  0  0  0  0  0  0  0  0  0  0
  186.8160  178.4290  142.4790 C   0  0  2  0  0  3  0  0  0  0  0  0
  184.3300  178.6850  144.5460 F   0  0  0  0  0  0  0  0  0  0  0  0
  185.3620  176.8850  146.5180 C   0  0  0  0  0  2  0  0  0  0  0  0
  185.7630  179.1270  147.2470 O   0  0  0  0  0  1  0  0  0  0  0  0
  185.9320  177.7880  147.6000 C   0  0  0  0  0  2  0  0  0  0  0  0
  189.7020  172.7470  141.8560 N   0  0  0  0  0  2  0  0  0  0  0  0
  189.6880  171.0260  138.4750 C   0  0  0  0  0  3  0  0  0  0  0  0
  190.3360  169.6790  138.4360 C   0  0  2  0  0  3  0  0  0  0  0  0
  190.6020  170.6130  141.4510 C   0  0  0  0  0  3  0  0  0  0  0  0
  189.9510  171.6690  140.9480 C   0  0  0  0  0  0  0  0  0  0  0  0
  192.2960  168.4860  139.0320 F   0  0  0  0  0  0  0  0  0  0  0  0
  190.9510  169.3370  140.7580 C   0  0  0  0  0  2  0  0  0  0  0  0
  189.5190  171.8280  139.5330 C   0  0  0  0  0  3  0  0  0  0  0  0
  191.5180  169.5750  139.3790 C   0  0  2  0  0  3  0  0  0  0  0  0
  190.7300  169.4120  137.1370 F   0  0  0  0  0  0  0  0  0  0  0  0
  1 26  1  1  0  0  0
  1  3  1  0  0  0  0
  1  5  1  0  0  0  0
  1  6  1  0  0  0  0
  2  7  1  0  0  0  0
  4  9  1  0  0  0  0
  5  2  1  6  0  0  0
  5  6  1  0  0  0  0
  6  3  1  6  0  0  0
  6  8  1  0  0  0  0
  7  4  1  0  0  0  0
  8  4  2  0  0  0  0
  8 10  1  0  0  0  0
  9 11  2  0  0  0  0
 10 11  1  0  0  0  0
 10 20  1  0  0  0  0
 12 18  1  1  0  0  0
 15 12  1  0  0  0  0
 15 20  1  1  0  0  0
 16 13  1  6  0  0  0
 16 21  1  0  0  0  0
 16 19  1  0  0  0  0
 18 14  2  0  0  0  0
 18 23  1  0  0  0  0
 19 12  1  0  0  0  0
 19 22  1  1  0  0  0
 20 14  1  0  0  0  0
 21 17  1  6  0  0  0
 21 15  1  0  0  0  0
 23 25  1  0  0  0  0
 24 25  1  0  0  0  0
 27 33  2  0  0  0  0
 28 35  1  6  0  0  0
 28 27  1  0  0  0  0
 28 34  1  0  0  0  0
 30 29  2  0  0  0  0
 30 26  1  0  0  0  0
 32 29  1  0  0  0  0
 33 30  1  0  0  0  0
 34 31  1  6  0  0  0
 34 32  1  0  0  0  0
M  END
>  <MODEL>
6

>  <REMARK>
 VINA RESULT:      -7.8      3.854      7.951
  Name = 
  5 active torsions:
  status: ('A' for Active; 'I' for Inactive)
    1  A    between atoms: C_3  and  N_4
    2  A    between atoms: N_4  and  C_19
    3  A    between atoms: C_18  and  C_31
    4  A    between atoms: N_23  and  N_34
    5  A    between atoms: C_24  and  C_31
                            x       y       z     vdW  Elec       q    Type
                         _______ _______ _______ _____ _____    ______ ____

>  <TORSDO>
F 5

$$$$
=
 OpenBabel11062420093D

 35 41  0  0  1  0  0  0  0  0999 V2000
  191.5040  175.8760  146.6120 C   0  0  1  0  0  0  0  0  0  0  0  0
  194.0820  176.7640  146.6120 N   0  0  0  0  0  2  0  0  0  0  0  0
  190.9890  174.9150  145.5920 C   0  0  0  0  0  2  0  0  0  0  0  0
  194.3850  175.7760  144.3900 C   0  0  0  0  0  0  0  0  0  0  0  0
  192.8760  176.4200  146.3630 C   0  0  1  0  0  3  0  0  0  0  0  0
  191.9240  176.0400  145.2120 C   0  0  2  0  0  0  0  0  0  0  0  0
  194.9450  176.7530  145.4340 C   0  0  0  0  0  2  0  0  0  0  0  0
  193.0280  175.4230  144.3330 C   0  0  0  0  0  0  0  0  0  0  0  0
  195.0610  175.2280  143.3650 N   0  0  0  0  0  0  0  0  0  0  0  0
  192.8820  174.6800  143.2160 N   0  0  0  0  0  0  0  0  0  0  0  0
  194.1120  174.5620  142.6630 C   0  0  0  0  0  3  0  0  0  0  0  0
  189.9270  173.0210  141.8480 C   0  0  1  0  0  3  0  0  0  0  0  0
  190.6510  169.9140  142.0130 O   0  0  0  0  0  1  0  0  0  0  0  0
  190.6930  175.2010  142.0540 C   0  0  0  0  0  3  0  0  0  0  0  0
  191.1690  172.9210  142.6290 C   0  0  2  0  0  3  0  0  0  0  0  0
  190.9310  170.9940  141.1700 C   0  0  1  0  0  3  0  0  0  0  0  0
  192.8630  171.2280  142.6240 O   0  0  0  0  0  1  0  0  0  0  0  0
  189.6190  174.2890  141.5600 C   0  0  0  0  0  0  0  0  0  0  0  0
  189.6620  171.8250  140.9950 C   0  0  2  0  0  3  0  0  0  0  0  0
  191.6860  174.2800  142.5920 N   0  0  0  0  0  0  0  0  0  0  0  0
  191.9730  171.9320  141.8090 C   0  0  2  0  0  3  0  0  0  0  0  0
  189.5550  172.1800  139.6620 F   0  0  0  0  0  0  0  0  0  0  0  0
  188.5690  174.7070  140.5760 C   0  0  0  0  0  2  0  0  0  0  0  0
  187.0840  175.1860  142.3880 O   0  0  0  0  0  1  0  0  0  0  0  0
  187.5990  175.6990  141.1990 C   0  0  0  0  0  2  0  0  0  0  0  0
  190.5490  176.9360  146.9010 N   0  0  0  0  0  2  0  0  0  0  0  0
  186.7970  176.4150  146.6960 C   0  0  0  0  0  3  0  0  0  0  0  0
  186.1300  177.0080  145.4960 C   0  0  2  0  0  3  0  0  0  0  0  0
  189.1990  177.7030  145.1360 C   0  0  0  0  0  3  0  0  0  0  0  0
  189.2590  177.0260  146.2890 C   0  0  0  0  0  0  0  0  0  0  0  0
  185.9230  178.9900  144.2110 F   0  0  0  0  0  0  0  0  0  0  0  0
  188.0100  177.9150  144.2590 C   0  0  0  0  0  2  0  0  0  0  0  0
  188.1010  176.4150  146.9970 C   0  0  0  0  0  3  0  0  0  0  0  0
  186.7820  178.3010  145.0480 C   0  0  2  0  0  3  0  0  0  0  0  0
  184.7940  177.2170  145.7870 F   0  0  0  0  0  0  0  0  0  0  0  0
  1 26  1  1  0  0  0
  3  1  1  0  0  0  0
  4  7  1  0  0  0  0
  5  2  1  1  0  0  0
  5  1  1  0  0  0  0
  6  3  1  1  0  0  0
  6  5  1  0  0  0  0
  6  1  1  0  0  0  0
  7  2  1  0  0  0  0
  8  4  2  0  0  0  0
  8  6  1  0  0  0  0
  9  4  1  0  0  0  0
 10  8  1  0  0  0  0
 11 10  1  0  0  0  0
 11  9  2  0  0  0  0
 12 18  1  6  0  0  0
 12 15  1  0  0  0  0
 14 20  1  0  0  0  0
 15 20  1  6  0  0  0
 16 21  1  0  0  0  0
 16 13  1  1  0  0  0
 18 14  2  0  0  0  0
 19 22  1  6  0  0  0
 19 16  1  0  0  0  0
 19 12  1  0  0  0  0
 20 10  1  0  0  0  0
 21 17  1  1  0  0  0
 21 15  1  0  0  0  0
 23 25  1  0  0  0  0
 23 18  1  0  0  0  0
 25 24  1  0  0  0  0
 27 33  2  0  0  0  0
 28 35  1  1  0  0  0
 28 27  1  0  0  0  0
 29 30  2  0  0  0  0
 30 26  1  0  0  0  0
 30 33  1  0  0  0  0
 32 34  1  0  0  0  0
 32 29  1  0  0  0  0
 34 31  1  6  0  0  0
 34 28  1  0  0  0  0
M  END
>  <MODEL>
7

>  <REMARK>
 VINA RESULT:      -7.7      2.944      5.433
  Name = 
  5 active torsions:
  status: ('A' for Active; 'I' for Inactive)
    1  A    between atoms: C_3  and  N_4
    2  A    between atoms: N_4  and  C_19
    3  A    between atoms: C_18  and  C_31
    4  A    between atoms: N_23  and  N_34
    5  A    between atoms: C_24  and  C_31
                            x       y       z     vdW  Elec       q    Type
                         _______ _______ _______ _____ _____    ______ ____

>  <TORSDO>
F 5

$$$$
=
 OpenBabel11062420093D

 35 41  0  0  1  0  0  0  0  0999 V2000
  189.0440  176.5050  143.6160 C   0  0  1  0  0  0  0  0  0  0  0  0
  188.4910  177.1590  146.2040 N   0  0  0  0  0  2  0  0  0  0  0  0
  190.2560  175.7210  143.2300 C   0  0  0  0  0  2  0  0  0  0  0  0
  190.7400  176.4220  146.8350 C   0  0  0  0  0  0  0  0  0  0  0  0
  188.9830  176.9530  145.0430 C   0  0  1  0  0  3  0  0  0  0  0  0
  190.3180  176.7980  144.2890 C   0  0  2  0  0  0  0  0  0  0  0  0
  189.4970  177.2140  147.2620 C   0  0  0  0  0  2  0  0  0  0  0  0
  191.0730  176.1970  145.4900 C   0  0  0  0  0  0  0  0  0  0  0  0
  191.7000  175.9440  147.6470 N   0  0  0  0  0  0  0  0  0  0  0  0
  192.2870  175.6090  145.4990 N   0  0  0  0  0  0  0  0  0  0  0  0
  192.6350  175.4520  146.7970 C   0  0  0  0  0  3  0  0  0  0  0  0
  194.1690  174.4700  142.5810 C   0  0  1  0  0  3  0  0  0  0  0  0
  193.4080  171.3770  142.3410 O   0  0  0  0  0  1  0  0  0  0  0  0
  194.0540  176.3980  143.8650 C   0  0  0  0  0  3  0  0  0  0  0  0
  193.0770  174.2320  143.5360 C   0  0  2  0  0  3  0  0  0  0  0  0
  194.2790  172.1680  143.0960 C   0  0  1  0  0  3  0  0  0  0  0  0
  192.4020  172.2160  144.6380 O   0  0  0  0  0  1  0  0  0  0  0  0
  194.6940  175.6910  142.7160 C   0  0  0  0  0  0  0  0  0  0  0  0
  194.8970  173.2270  142.1860 C   0  0  2  0  0  3  0  0  0  0  0  0
  193.1520  175.3920  144.4100 N   0  0  0  0  0  0  0  0  0  0  0  0
  193.5120  172.9370  144.1900 C   0  0  2  0  0  3  0  0  0  0  0  0
  196.2440  173.3250  142.4860 F   0  0  0  0  0  0  0  0  0  0  0  0
  195.9710  176.1450  142.0760 C   0  0  0  0  0  2  0  0  0  0  0  0
  197.4870  175.6620  143.8610 O   0  0  0  0  0  1  0  0  0  0  0  0
  196.9360  176.7000  143.1110 C   0  0  0  0  0  2  0  0  0  0  0  0
  188.7820  177.6010  142.6950 N   0  0  0  0  0  2  0  0  0  0  0  0
  185.9640  177.6680  140.1560 C   0  0  0  0  0  3  0  0  0  0  0  0
  184.6880  178.2900  140.6280 C   0  0  2  0  0  3  0  0  0  0  0  0
  186.6610  178.5350  143.0930 C   0  0  0  0  0  3  0  0  0  0  0  0
  187.4760  177.9350  142.2170 C   0  0  0  0  0  0  0  0  0  0  0  0
  183.1000  178.2890  142.3870 F   0  0  0  0  0  0  0  0  0  0  0  0
  185.2750  179.0370  142.8600 C   0  0  0  0  0  2  0  0  0  0  0  0
  187.1170  177.5490  140.8250 C   0  0  0  0  0  3  0  0  0  0  0  0
  184.4300  178.0430  142.1000 C   0  0  2  0  0  3  0  0  0  0  0  0
  183.6450  177.7980  139.8650 F   0  0  0  0  0  0  0  0  0  0  0  0
  1 26  1  6  0  0  0
  1  6  1  0  0  0  0
  1  5  1  0  0  0  0
  2  7  1  0  0  0  0
  3  1  1  0  0  0  0
  4  7  1  0  0  0  0
  4  9  1  0  0  0  0
  5  2  1  1  0  0  0
  6  3  1  1  0  0  0
  6  5  1  0  0  0  0
  6  8  1  0  0  0  0
  8 10  1  0  0  0  0
  8  4  2  0  0  0  0
 10 11  1  0  0  0  0
 11  9  2  0  0  0  0
 12 18  1  1  0  0  0
 12 15  1  0  0  0  0
 14 20  1  0  0  0  0
 15 21  1  0  0  0  0
 15 20  1  1  0  0  0
 16 13  1  6  0  0  0
 16 21  1  0  0  0  0
 18 14  2  0  0  0  0
 19 22  1  1  0  0  0
 19 12  1  0  0  0  0
 19 16  1  0  0  0  0
 20 10  1  0  0  0  0
 21 17  1  6  0  0  0
 23 18  1  0  0  0  0
 23 25  1  0  0  0  0
 25 24  1  0  0  0  0
 27 28  1  0  0  0  0
 27 33  2  0  0  0  0
 28 35  1  6  0  0  0
 28 34  1  0  0  0  0
 30 26  1  0  0  0  0
 30 29  2  0  0  0  0
 32 29  1  0  0  0  0
 33 30  1  0  0  0  0
 34 31  1  6  0  0  0
 34 32  1  0  0  0  0
M  END
>  <MODEL>
8

>  <REMARK>
 VINA RESULT:      -7.6      2.885      4.919
  Name = 
  5 active torsions:
  status: ('A' for Active; 'I' for Inactive)
    1  A    between atoms: C_3  and  N_4
    2  A    between atoms: N_4  and  C_19
    3  A    between atoms: C_18  and  C_31
    4  A    between atoms: N_23  and  N_34
    5  A    between atoms: C_24  and  C_31
                            x       y       z     vdW  Elec       q    Type
                         _______ _______ _______ _____ _____    ______ ____

>  <TORSDO>
F 5

$$$$
=
 OpenBabel11062420093D

 35 41  0  0  1  0  0  0  0  0999 V2000
  188.3050  173.0510  141.1620 C   0  0  1  0  0  0  0  0  0  0  0  0
  188.2440  173.7730  138.5340 N   0  0  0  0  0  2  0  0  0  0  0  0
  187.6270  173.8490  142.2270 C   0  0  0  0  0  2  0  0  0  0  0  0
  187.3110  175.9420  139.1870 C   0  0  0  0  0  0  0  0  0  0  0  0
  188.3500  173.6790  139.8030 C   0  0  1  0  0  3  0  0  0  0  0  0
  188.3740  174.5180  141.0960 C   0  0  2  0  0  0  0  0  0  0  0  0
  187.9860  175.1340  138.0700 C   0  0  0  0  0  2  0  0  0  0  0  0
  187.4520  175.6230  140.5460 C   0  0  0  0  0  0  0  0  0  0  0  0
  186.6080  177.0780  139.0360 N   0  0  0  0  0  0  0  0  0  0  0  0
  186.8550  176.6230  141.2280 N   0  0  0  0  0  0  0  0  0  0  0  0
  186.3430  177.4720  140.3070 C   0  0  0  0  0  3  0  0  0  0  0  0
  187.6060  177.6530  144.6530 C   0  0  1  0  0  3  0  0  0  0  0  0
  190.6830  178.5000  144.5390 O   0  0  0  0  0  1  0  0  0  0  0  0
  185.8300  176.6550  143.5430 C   0  0  0  0  0  3  0  0  0  0  0  0
  187.9850  177.6610  143.2330 C   0  0  2  0  0  3  0  0  0  0  0  0
  189.9440  177.3180  144.6280 C   0  0  1  0  0  3  0  0  0  0  0  0
  190.1320  177.3810  142.2070 O   0  0  0  0  0  1  0  0  0  0  0  0
  186.3860  177.1400  144.8410 C   0  0  0  0  0  0  0  0  0  0  0  0
  188.7710  177.5410  145.5810 C   0  0  2  0  0  3  0  0  0  0  0  0
  186.9220  176.8900  142.6080 N   0  0  0  0  0  0  0  0  0  0  0  0
  189.3250  176.9530  143.2650 C   0  0  2  0  0  3  0  0  0  0  0  0
  188.6530  176.4270  146.3940 F   0  0  0  0  0  0  0  0  0  0  0  0
  185.8190  176.7620  146.1760 C   0  0  0  0  0  2  0  0  0  0  0  0
  184.9570  178.6110  147.4240 O   0  0  0  0  0  1  0  0  0  0  0  0
  184.6050  177.6140  146.5150 C   0  0  0  0  0  2  0  0  0  0  0  0
  189.6160  172.5770  141.5800 N   0  0  0  0  0  2  0  0  0  0  0  0
  190.7520  173.5790  145.0580 C   0  0  0  0  0  3  0  0  0  0  0  0
  191.9730  174.4420  145.1120 C   0  0  2  0  0  3  0  0  0  0  0  0
  191.4710  173.9520  142.0230 C   0  0  0  0  0  3  0  0  0  0  0  0
  190.4390  173.2640  142.5270 C   0  0  0  0  0  0  0  0  0  0  0  0
  194.2010  174.6490  144.3270 F   0  0  0  0  0  0  0  0  0  0  0  0
  192.4570  174.7960  142.7610 C   0  0  0  0  0  2  0  0  0  0  0  0
  190.1180  173.1180  143.9730 C   0  0  0  0  0  3  0  0  0  0  0  0
  192.9630  174.1180  144.0110 C   0  0  2  0  0  3  0  0  0  0  0  0
  192.5660  174.2960  146.3530 F   0  0  0  0  0  0  0  0  0  0  0  0
  1 26  1  1  0  0  0
  1  3  1  0  0  0  0
  4  8  2  0  0  0  0
  5  2  1  6  0  0  0
  5  6  1  0  0  0  0
  5  1  1  0  0  0  0
  6  1  1  0  0  0  0
  6  3  1  6  0  0  0
  7  2  1  0  0  0  0
  7  4  1  0  0  0  0
  8  6  1  0  0  0  0
  8 10  1  0  0  0  0
  9  4  1  0  0  0  0
  9 11  2  0  0  0  0
 10 20  1  0  0  0  0
 11 10  1  0  0  0  0
 12 18  1  6  0  0  0
 12 19  1  0  0  0  0
 14 18  2  0  0  0  0
 15 20  1  6  0  0  0
 15 21  1  0  0  0  0
 15 12  1  0  0  0  0
 16 13  1  6  0  0  0
 16 19  1  0  0  0  0
 18 23  1  0  0  0  0
 19 22  1  1  0  0  0
 20 14  1  0  0  0  0
 21 17  1  6  0  0  0
 21 16  1  0  0  0  0
 23 25  1  0  0  0  0
 25 24  1  0  0  0  0
 26 30  1  0  0  0  0
 27 28  1  0  0  0  0
 28 35  1  1  0  0  0
 29 30  2  0  0  0  0
 29 32  1  0  0  0  0
 30 33  1  0  0  0  0
 32 34  1  0  0  0  0
 33 27  2  0  0  0  0
 34 31  1  1  0  0  0
 34 28  1  0  0  0  0
M  END
>  <MODEL>
9

>  <REMARK>
 VINA RESULT:      -7.6      2.596      5.917
  Name = 
  5 active torsions:
  status: ('A' for Active; 'I' for Inactive)
    1  A    between atoms: C_3  and  N_4
    2  A    between atoms: N_4  and  C_19
    3  A    between atoms: C_18  and  C_31
    4  A    between atoms: N_23  and  N_34
    5  A    between atoms: C_24  and  C_31
                            x       y       z     vdW  Elec       q    Type
                         _______ _______ _______ _____ _____    ______ ____

>  <TORSDO>
F 5

$$$$
