=
 OpenBabel11062423073D

 57 61  0  0  1  0  0  0  0  0999 V2000
  193.5800  176.7060  144.4810 F   0  0  0  0  0  0  0  0  0  0  0  0
  190.0390  173.8490  137.4800 C   0  0  0  0  0  2  0  0  0  0  0  0
  188.4200  175.6270  140.8220 C   0  0  1  0  0  3  0  0  0  0  0  0
  188.8890  175.7810  142.2620 C   0  0  0  0  0  2  0  0  0  0  0  0
  192.0830  173.1950  138.9240 C   0  0  0  0  0  0  0  0  0  0  0  0
  193.1850  170.8320  144.5790 O   0  0  0  0  0  1  0  0  0  0  0  0
  190.4700  177.1920  144.2460 O   0  0  0  0  0  0  0  0  0  0  0  0
  193.3930  173.3790  145.7460 C   0  0  0  0  0  2  0  0  0  0  0  0
  189.7360  172.4790  139.5210 O   0  0  0  0  0  0  0  0  0  0  0  0
  194.5070  172.0480  142.8990 C   0  0  2  0  0  0  0  0  0  0  0  0
  192.2180  176.7140  146.2770 F   0  0  0  0  0  0  0  0  0  0  0  0
  193.0810  171.8640  143.6350 C   0  0  2  0  0  0  0  0  0  0  0  0
  190.4090  172.4060  137.1510 C   0  0  2  0  0  3  0  0  0  0  0  0
  193.9430  174.7740  141.3090 C   0  0  0  0  0  1  0  0  0  0  0  0
  192.4750  173.1290  140.2650 O   0  0  0  0  0  0  0  0  0  0  0  0
  190.8540  176.1590  143.7160 C   0  0  0  0  0  0  0  0  0  0  0  0
  192.8110  175.9100  145.3180 C   0  0  0  0  0  0  0  0  0  0  0  0
  192.9270  173.4780  138.0280 O   0  0  0  0  0  0  0  0  0  0  0  0
  195.9880  175.2860  144.9040 C   0  0  0  0  0  2  0  0  0  0  0  0
  188.2830  174.1620  140.4340 C   0  0  0  0  0  2  0  0  0  0  0  0
  193.8090  173.4110  140.6580 C   0  0  2  0  0  3  0  0  0  0  0  0
  192.5730  173.1090  144.4510 C   0  0  2  0  0  3  0  0  0  0  0  0
  193.6770  174.8660  146.0500 C   0  0  2  0  0  3  0  0  0  0  0  0
  189.2440  171.6340  137.1020 O   0  0  0  0  0  1  0  0  0  0  0  0
  195.1790  175.1950  146.2100 C   0  0  0  0  0  2  0  0  0  0  0  0
  190.6380  172.9600  138.5510 C   0  0  1  0  0  0  0  0  0  0  0  0
  190.4080  175.8580  142.3210 C   0  0  0  0  0  2  0  0  0  0  0  0
  195.2400  173.1880  143.4720 C   0  0  0  0  0  0  0  0  0  0  0  0
  191.7310  175.2000  144.4900 C   0  0  2  0  0  3  0  0  0  0  0  0
  189.6300  173.4730  140.5000 C   0  0  0  0  0  2  0  0  0  0  0  0
  192.3500  174.2520  143.6550 O   0  0  0  0  0  0  0  0  0  0  0  0
  195.6860  174.1390  144.0570 C   0  0  0  0  0  0  0  0  0  0  0  0
  194.4810  172.2190  141.3550 C   0  0  0  0  0  2  0  0  0  0  0  0
  190.8440  171.9150  142.7210 O   0  0  0  0  0  1  0  0  0  0  0  0
  192.2310  170.3460  141.8150 O   0  0  0  0  0  0  0  0  0  0  0  0
  191.9990  171.4130  142.6750 C   0  0  0  0  0  0  0  0  0  0  0  0
  195.2690  169.8410  142.3000 O   0  0  0  0  0  0  0  0  0  0  0  0
  195.3640  170.8060  143.1100 C   0  0  0  0  0  0  0  0  0  0  0  0
  196.2460  170.7170  144.1960 O   0  0  0  0  0  0  0  0  0  0  0  0
  196.4260  169.5090  144.9250 C   0  0  0  0  0  2  0  0  0  0  0  0
  196.2280  169.7480  146.2840 O   0  0  0  0  0  0  0  0  0  0  0  0
  195.6120  168.5900  146.7670 C   0  0  0  0  0  2  0  0  0  0  0  0
  194.5910  168.9400  147.6520 O   0  0  0  0  0  1  0  0  0  0  0  0
  187.0720  176.3050  140.6420 C   0  0  0  0  0  2  0  0  0  0  0  0
  186.5650  176.7060  141.8830 O   0  0  0  0  0  0  0  0  0  0  0  0
  185.9940  177.9590  141.6540 C   0  0  1  0  0  3  0  0  0  0  0  0
  185.9280  178.2060  140.2850 O   0  0  0  0  0  1  0  0  0  0  0  0
  184.4160  178.2150  143.6650 N   0  0  0  0  0  2  0  0  0  0  0  0
  184.6240  178.0260  142.2590 C   0  0  0  0  0  0  0  0  0  0  0  0
  183.6210  177.9260  141.5020 O   0  0  0  0  0  0  0  0  0  0  0  0
  185.0390  176.8210  146.6650 C   0  0  0  0  0  2  0  0  0  0  0  0
  187.2240  176.6850  145.4300 C   0  0  0  0  0  1  0  0  0  0  0  0
  185.4110  177.9420  147.6520 C   0  0  0  0  0  2  0  0  0  0  0  0
  185.8620  179.2370  146.9680 C   0  0  0  0  0  2  0  0  0  0  0  0
  185.7340  176.9550  145.3050 C   0  0  2  0  0  3  0  0  0  0  0  0
  185.4860  178.3250  144.6450 C   0  0  2  0  0  3  0  0  0  0  0  0
  185.1370  179.4360  145.6410 C   0  0  0  0  0  2  0  0  0  0  0  0
  1 17  1  0  0  0  0
  3 44  1  1  0  0  0
  3  4  1  0  0  0  0
  4 27  1  0  0  0  0
  5 15  1  0  0  0  0
  9 30  1  0  0  0  0
 10 38  1  1  0  0  0
 10 28  1  0  0  0  0
 10 12  1  0  0  0  0
 12 22  1  0  0  0  0
 12  6  1  1  0  0  0
 13 24  1  1  0  0  0
 13  2  1  0  0  0  0
 13 26  1  0  0  0  0
 15 21  1  0  0  0  0
 16  7  2  0  0  0  0
 16 29  1  0  0  0  0
 17 23  1  0  0  0  0
 17 11  1  0  0  0  0
 18  5  2  0  0  0  0
 19 25  1  0  0  0  0
 20 30  1  0  0  0  0
 20  3  1  0  0  0  0
 21 14  1  1  0  0  0
 21 33  1  0  0  0  0
 22  8  1  1  0  0  0
 23  8  1  6  0  0  0
 23 25  1  0  0  0  0
 26  2  1  6  0  0  0
 26  5  1  0  0  0  0
 26  9  1  0  0  0  0
 27 16  1  0  0  0  0
 28 32  3  0  0  0  0
 29 31  1  6  0  0  0
 29 17  1  0  0  0  0
 31 22  1  0  0  0  0
 32 19  1  0  0  0  0
 33 10  1  0  0  0  0
 35 36  2  0  0  0  0
 36 34  1  0  0  0  0
 36 12  1  0  0  0  0
 37 38  2  0  0  0  0
 38 39  1  0  0  0  0
 39 40  1  0  0  0  0
 40 41  1  0  0  0  0
 41 42  1  0  0  0  0
 42 43  1  0  0  0  0
 44 45  1  0  0  0  0
 46 47  1  6  0  0  0
 46 45  1  0  0  0  0
 46 49  1  0  0  0  0
 49 48  1  0  0  0  0
 50 49  2  0  0  0  0
 51 53  1  0  0  0  0
 54 53  1  0  0  0  0
 55 52  1  1  0  0  0
 55 51  1  0  0  0  0
 56 48  1  6  0  0  0
 56 55  1  0  0  0  0
 56 57  1  0  0  0  0
 57 54  1  0  0  0  0
M  END
>  <MODEL>
1

>  <REMARK>
 VINA RESULT:      -8.4      0.000      0.000
  Name = 
  11 active torsions:
  status: ('A' for Active; 'I' for Inactive)
    1  A    between atoms: O_4  and  C_24
    2  A    between atoms: O_4  and  C_40
    3  A    between atoms: C_5  and  O_46
    4  A    between atoms: C_6  and  C_27
    5  A    between atoms: N_9  and  C_53
    6  A    between atoms: C_11  and  O_18
    7  A    between atoms: C_11  and  C_49
    8  A    between atoms: O_18  and  C_27
    9  A    between atoms: C_21  and  C_40
   10  A    between atoms: C_24  and  O_46
   11  A    between atoms: C_25  and  C_41
                            x       y       z     vdW  Elec       q    Type
                         _______ _______ _______ _____ _____    ______ ____

>  <TORSDO>
F 11

$$$$
=
 OpenBabel11062423073D

 57 61  0  0  1  0  0  0  0  0999 V2000
  193.4510  176.8680  144.5380 F   0  0  0  0  0  0  0  0  0  0  0  0
  190.0200  174.0510  137.4670 C   0  0  0  0  0  2  0  0  0  0  0  0
  188.3410  175.7450  140.8230 C   0  0  1  0  0  3  0  0  0  0  0  0
  188.7960  175.8860  142.2690 C   0  0  0  0  0  2  0  0  0  0  0  0
  192.0650  173.4150  138.9170 C   0  0  0  0  0  0  0  0  0  0  0  0
  193.1720  170.9870  144.5430 O   0  0  0  0  0  1  0  0  0  0  0  0
  190.3340  177.2970  144.2860 O   0  0  0  0  0  0  0  0  0  0  0  0
  193.3200  173.5190  145.7510 C   0  0  0  0  0  2  0  0  0  0  0  0
  189.7290  172.6430  139.4850 O   0  0  0  0  0  0  0  0  0  0  0  0
  194.4820  172.2550  142.8930 C   0  0  2  0  0  0  0  0  0  0  0  0
  192.0750  176.8230  146.3240 F   0  0  0  0  0  0  0  0  0  0  0  0
  193.0540  172.0310  143.6150 C   0  0  2  0  0  0  0  0  0  0  0  0
  190.4200  172.6210  137.1190 C   0  0  2  0  0  3  0  0  0  0  0  0
  193.8760  174.9930  141.3400 C   0  0  0  0  0  1  0  0  0  0  0  0
  192.4490  173.3360  140.2590 O   0  0  0  0  0  0  0  0  0  0  0  0
  190.7420  176.2800  143.7440 C   0  0  0  0  0  0  0  0  0  0  0  0
  192.6920  176.0450  145.3570 C   0  0  0  0  0  0  0  0  0  0  0  0
  192.9100  173.7280  138.0320 O   0  0  0  0  0  0  0  0  0  0  0  0
  195.8830  175.4900  144.9580 C   0  0  0  0  0  2  0  0  0  0  0  0
  188.2360  174.2840  140.4120 C   0  0  0  0  0  2  0  0  0  0  0  0
  193.7730  173.6380  140.6670 C   0  0  2  0  0  3  0  0  0  0  0  0
  192.5160  173.2530  144.4450 C   0  0  2  0  0  3  0  0  0  0  0  0
  193.5730  175.0070  146.0800 C   0  0  2  0  0  3  0  0  0  0  0  0
  189.2710  171.8270  137.0500 O   0  0  0  0  0  1  0  0  0  0  0  0
  195.0670  175.3630  146.2560 C   0  0  0  0  0  2  0  0  0  0  0  0
  190.6280  173.1580  138.5290 C   0  0  1  0  0  0  0  0  0  0  0  0
  190.3130  175.9920  142.3410 C   0  0  0  0  0  2  0  0  0  0  0  0
  195.1880  173.4000  143.4890 C   0  0  0  0  0  0  0  0  0  0  0  0
  191.6320  175.3260  144.5100 C   0  0  2  0  0  3  0  0  0  0  0  0
  189.5950  173.6210  140.4780 C   0  0  0  0  0  2  0  0  0  0  0  0
  192.2760  174.4040  143.6650 O   0  0  0  0  0  0  0  0  0  0  0  0
  195.6110  174.3500  144.0910 C   0  0  0  0  0  0  0  0  0  0  0  0
  194.4640  172.4490  141.3510 C   0  0  0  0  0  2  0  0  0  0  0  0
  190.8230  172.0500  142.6860 O   0  0  0  0  0  1  0  0  0  0  0  0
  192.2490  170.5270  141.7630 O   0  0  0  0  0  0  0  0  0  0  0  0
  191.9880  171.5740  142.6400 C   0  0  0  0  0  0  0  0  0  0  0  0
  196.1810  170.9980  144.0530 O   0  0  0  0  0  0  0  0  0  0  0  0
  195.3610  171.0260  143.0910 C   0  0  0  0  0  0  0  0  0  0  0  0
  195.2780  169.9340  142.2170 O   0  0  0  0  0  0  0  0  0  0  0  0
  196.3120  168.9620  142.1240 C   0  0  0  0  0  2  0  0  0  0  0  0
  196.1070  168.1660  140.9970 O   0  0  0  0  0  0  0  0  0  0  0  0
  195.5700  169.0290  140.0390 C   0  0  0  0  0  2  0  0  0  0  0  0
  194.4370  168.4460  139.4680 O   0  0  0  0  0  1  0  0  0  0  0  0
  186.9810  176.3990  140.6440 C   0  0  0  0  0  2  0  0  0  0  0  0
  186.4580  176.7730  141.8860 O   0  0  0  0  0  0  0  0  0  0  0  0
  185.8590  178.0140  141.6690 C   0  0  1  0  0  3  0  0  0  0  0  0
  185.7560  178.2570  140.3020 O   0  0  0  0  0  1  0  0  0  0  0  0
  184.3250  178.2320  143.7180 N   0  0  0  0  0  2  0  0  0  0  0  0
  184.5020  178.0570  142.3070 C   0  0  0  0  0  0  0  0  0  0  0  0
  183.4840  177.9490  141.5720 O   0  0  0  0  0  0  0  0  0  0  0  0
  185.0380  176.8190  146.6890 C   0  0  0  0  0  2  0  0  0  0  0  0
  187.1960  176.7270  145.4020 C   0  0  0  0  0  1  0  0  0  0  0  0
  185.4180  177.9360  147.6780 C   0  0  0  0  0  2  0  0  0  0  0  0
  185.8330  179.2440  146.9960 C   0  0  0  0  0  2  0  0  0  0  0  0
  185.7000  176.9760  145.3150 C   0  0  2  0  0  3  0  0  0  0  0  0
  185.4160  178.3480  144.6740 C   0  0  2  0  0  3  0  0  0  0  0  0
  185.0750  179.4440  145.6890 C   0  0  0  0  0  2  0  0  0  0  0  0
  1 17  1  0  0  0  0
  3 44  1  1  0  0  0
  3  4  1  0  0  0  0
  4 27  1  0  0  0  0
  5 15  1  0  0  0  0
  9 30  1  0  0  0  0
 10 38  1  1  0  0  0
 10 28  1  0  0  0  0
 10 12  1  0  0  0  0
 12 22  1  0  0  0  0
 12  6  1  1  0  0  0
 13 24  1  1  0  0  0
 13  2  1  0  0  0  0
 13 26  1  0  0  0  0
 15 21  1  0  0  0  0
 16  7  2  0  0  0  0
 16 29  1  0  0  0  0
 17 23  1  0  0  0  0
 17 11  1  0  0  0  0
 18  5  2  0  0  0  0
 19 25  1  0  0  0  0
 20 30  1  0  0  0  0
 20  3  1  0  0  0  0
 21 14  1  1  0  0  0
 21 33  1  0  0  0  0
 22  8  1  1  0  0  0
 23  8  1  6  0  0  0
 23 25  1  0  0  0  0
 26  2  1  6  0  0  0
 26  5  1  0  0  0  0
 26  9  1  0  0  0  0
 27 16  1  0  0  0  0
 28 32  3  0  0  0  0
 29 31  1  6  0  0  0
 29 17  1  0  0  0  0
 31 22  1  0  0  0  0
 32 19  1  0  0  0  0
 33 10  1  0  0  0  0
 35 36  2  0  0  0  0
 36 34  1  0  0  0  0
 36 12  1  0  0  0  0
 38 37  2  0  0  0  0
 39 38  1  0  0  0  0
 40 39  1  0  0  0  0
 41 40  1  0  0  0  0
 42 41  1  0  0  0  0
 43 42  1  0  0  0  0
 44 45  1  0  0  0  0
 46 47  1  6  0  0  0
 46 45  1  0  0  0  0
 46 49  1  0  0  0  0
 49 48  1  0  0  0  0
 50 49  2  0  0  0  0
 51 53  1  0  0  0  0
 54 53  1  0  0  0  0
 55 52  1  1  0  0  0
 55 51  1  0  0  0  0
 56 48  1  6  0  0  0
 56 55  1  0  0  0  0
 56 57  1  0  0  0  0
 57 54  1  0  0  0  0
M  END
>  <MODEL>
2

>  <REMARK>
 VINA RESULT:      -7.9      0.940      1.694
  Name = 
  11 active torsions:
  status: ('A' for Active; 'I' for Inactive)
    1  A    between atoms: O_4  and  C_24
    2  A    between atoms: O_4  and  C_40
    3  A    between atoms: C_5  and  O_46
    4  A    between atoms: C_6  and  C_27
    5  A    between atoms: N_9  and  C_53
    6  A    between atoms: C_11  and  O_18
    7  A    between atoms: C_11  and  C_49
    8  A    between atoms: O_18  and  C_27
    9  A    between atoms: C_21  and  C_40
   10  A    between atoms: C_24  and  O_46
   11  A    between atoms: C_25  and  C_41
                            x       y       z     vdW  Elec       q    Type
                         _______ _______ _______ _____ _____    ______ ____

>  <TORSDO>
F 11

$$$$
=
 OpenBabel11062423073D

 57 61  0  0  1  0  0  0  0  0999 V2000
  189.2850  171.0750  138.7780 F   0  0  0  0  0  0  0  0  0  0  0  0
  194.4010  171.9450  145.3200 C   0  0  0  0  0  2  0  0  0  0  0  0
  190.6250  173.4200  144.6000 C   0  0  1  0  0  3  0  0  0  0  0  0
  189.8200  173.6750  143.3320 C   0  0  0  0  0  2  0  0  0  0  0  0
  194.6890  171.6760  142.7640 C   0  0  0  0  0  0  0  0  0  0  0  0
  193.5410  174.9720  137.6060 O   0  0  0  0  0  1  0  0  0  0  0  0
  188.0950  172.6860  141.2180 O   0  0  0  0  0  0  0  0  0  0  0  0
  191.0070  173.8070  137.2690 C   0  0  0  0  0  2  0  0  0  0  0  0
  194.1610  173.9060  143.8240 O   0  0  0  0  0  0  0  0  0  0  0  0
  194.0030  172.6090  138.1100 C   0  0  2  0  0  0  0  0  0  0  0  0
  187.8190  172.7660  138.5110 F   0  0  0  0  0  0  0  0  0  0  0  0
  193.2760  173.9800  138.5610 C   0  0  2  0  0  0  0  0  0  0  0  0
  195.7950  172.4400  144.9460 C   0  0  2  0  0  3  0  0  0  0  0  0
  192.6920  170.5850  140.2210 C   0  0  0  0  0  1  0  0  0  0  0  0
  194.0840  172.0700  141.5650 O   0  0  0  0  0  0  0  0  0  0  0  0
  189.3000  172.8290  141.0670 C   0  0  0  0  0  0  0  0  0  0  0  0
  189.1640  172.4400  138.5590 C   0  0  0  0  0  0  0  0  0  0  0  0
  195.2540  170.5500  142.8490 O   0  0  0  0  0  0  0  0  0  0  0  0
  190.8550  170.5760  136.4810 C   0  0  0  0  0  2  0  0  0  0  0  0
  191.9130  174.2300  144.6130 C   0  0  0  0  0  2  0  0  0  0  0  0
  194.0550  171.2120  140.4360 C   0  0  2  0  0  3  0  0  0  0  0  0
  191.7070  173.9150  138.6540 C   0  0  2  0  0  3  0  0  0  0  0  0
  189.7960  172.8500  137.2140 C   0  0  2  0  0  3  0  0  0  0  0  0
  196.0460  173.6460  145.6090 O   0  0  0  0  0  1  0  0  0  0  0  0
  189.9180  171.7470  136.1380 C   0  0  0  0  0  2  0  0  0  0  0  0
  194.6360  172.5870  143.9670 C   0  0  1  0  0  0  0  0  0  0  0  0
  190.1960  172.6700  142.2530 C   0  0  0  0  0  2  0  0  0  0  0  0
  193.0370  171.6960  137.4790 C   0  0  0  0  0  0  0  0  0  0  0  0
  189.8460  173.1990  139.7060 C   0  0  2  0  0  3  0  0  0  0  0  0
  192.8100  173.8090  143.4690 C   0  0  0  0  0  2  0  0  0  0  0  0
  191.2360  173.0000  139.6180 O   0  0  0  0  0  0  0  0  0  0  0  0
  192.1190  171.0900  136.9960 C   0  0  0  0  0  0  0  0  0  0  0  0
  194.7590  171.8220  139.2160 C   0  0  0  0  0  2  0  0  0  0  0  0
  193.0730  174.9030  140.7850 O   0  0  0  0  0  1  0  0  0  0  0  0
  195.2060  174.7260  139.9950 O   0  0  0  0  0  0  0  0  0  0  0  0
  193.8380  174.5220  139.8590 C   0  0  0  0  0  0  0  0  0  0  0  0
  194.8010  172.8490  135.8480 O   0  0  0  0  0  0  0  0  0  0  0  0
  195.0830  172.9110  137.0780 C   0  0  0  0  0  0  0  0  0  0  0  0
  196.3840  173.2460  137.4770 O   0  0  0  0  0  0  0  0  0  0  0  0
  197.2200  174.0870  136.6930 C   0  0  0  0  0  2  0  0  0  0  0  0
  197.0830  175.4090  137.1160 O   0  0  0  0  0  0  0  0  0  0  0  0
  197.0170  176.1590  135.9380 C   0  0  0  0  0  2  0  0  0  0  0  0
  195.6810  176.3740  135.5970 O   0  0  0  0  0  1  0  0  0  0  0  0
  189.8010  173.7970  145.8190 C   0  0  0  0  0  2  0  0  0  0  0  0
  189.0200  174.9250  145.5440 O   0  0  0  0  0  0  0  0  0  0  0  0
  188.6400  175.4170  146.7930 C   0  0  1  0  0  3  0  0  0  0  0  0
  189.3550  174.7660  147.7950 O   0  0  0  0  0  1  0  0  0  0  0  0
  187.8870  177.8510  146.4620 N   0  0  0  0  0  2  0  0  0  0  0  0
  188.8770  176.8960  146.8650 C   0  0  0  0  0  0  0  0  0  0  0  0
  189.9810  177.3120  147.3090 O   0  0  0  0  0  0  0  0  0  0  0  0
  185.8810  179.1490  144.0920 C   0  0  0  0  0  2  0  0  0  0  0  0
  185.8760  176.6750  143.6480 C   0  0  0  0  0  1  0  0  0  0  0  0
  184.4600  179.2720  144.6740 C   0  0  0  0  0  2  0  0  0  0  0  0
  184.2210  178.3840  145.8990 C   0  0  0  0  0  2  0  0  0  0  0  0
  186.5500  177.8060  144.4060 C   0  0  2  0  0  3  0  0  0  0  0  0
  186.5840  177.5010  145.9150 C   0  0  2  0  0  3  0  0  0  0  0  0
  185.4970  178.2250  146.7170 C   0  0  0  0  0  2  0  0  0  0  0  0
  3 20  1  0  0  0  0
  3 44  1  1  0  0  0
  4  3  1  0  0  0  0
  5 18  2  0  0  0  0
  5 26  1  0  0  0  0
  9 26  1  0  0  0  0
 10 38  1  6  0  0  0
 10 12  1  0  0  0  0
 10 33  1  0  0  0  0
 11 17  1  0  0  0  0
 12  6  1  6  0  0  0
 12 22  1  0  0  0  0
 12 36  1  0  0  0  0
 13  2  1  0  0  0  0
 13 24  1  1  0  0  0
 15  5  1  0  0  0  0
 16  7  2  0  0  0  0
 16 27  1  0  0  0  0
 17  1  1  0  0  0  0
 17 29  1  0  0  0  0
 19 32  1  0  0  0  0
 21 14  1  6  0  0  0
 21 15  1  0  0  0  0
 22  8  1  6  0  0  0
 22 31  1  0  0  0  0
 23 25  1  1  0  0  0
 23  8  1  0  0  0  0
 23 17  1  0  0  0  0
 25 19  1  0  0  0  0
 26 13  1  0  0  0  0
 26  2  1  1  0  0  0
 27  4  1  0  0  0  0
 28 10  1  0  0  0  0
 29 31  1  1  0  0  0
 29 16  1  0  0  0  0
 30  9  1  0  0  0  0
 30 20  1  0  0  0  0
 32 28  3  0  0  0  0
 33 21  1  0  0  0  0
 36 35  2  0  0  0  0
 36 34  1  0  0  0  0
 37 38  2  0  0  0  0
 38 39  1  0  0  0  0
 40 41  1  0  0  0  0
 40 39  1  0  0  0  0
 42 41  1  0  0  0  0
 43 42  1  0  0  0  0
 45 44  1  0  0  0  0
 45 46  1  0  0  0  0
 46 49  1  0  0  0  0
 46 47  1  1  0  0  0
 48 49  1  0  0  0  0
 49 50  2  0  0  0  0
 51 55  1  0  0  0  0
 51 53  1  0  0  0  0
 53 54  1  0  0  0  0
 54 57  1  0  0  0  0
 55 52  1  6  0  0  0
 55 56  1  0  0  0  0
 56 48  1  1  0  0  0
 56 57  1  0  0  0  0
M  END
>  <MODEL>
3

>  <REMARK>
 VINA RESULT:      -7.7      3.087      6.992
  Name = 
  11 active torsions:
  status: ('A' for Active; 'I' for Inactive)
    1  A    between atoms: O_4  and  C_24
    2  A    between atoms: O_4  and  C_40
    3  A    between atoms: C_5  and  O_46
    4  A    between atoms: C_6  and  C_27
    5  A    between atoms: N_9  and  C_53
    6  A    between atoms: C_11  and  O_18
    7  A    between atoms: C_11  and  C_49
    8  A    between atoms: O_18  and  C_27
    9  A    between atoms: C_21  and  C_40
   10  A    between atoms: C_24  and  O_46
   11  A    between atoms: C_25  and  C_41
                            x       y       z     vdW  Elec       q    Type
                         _______ _______ _______ _____ _____    ______ ____

>  <TORSDO>
F 11

$$$$
=
 OpenBabel11062423073D

 57 61  0  0  1  0  0  0  0  0999 V2000
  194.5830  175.7270  144.6810 F   0  0  0  0  0  0  0  0  0  0  0  0
  190.1930  173.7880  137.8480 C   0  0  0  0  0  2  0  0  0  0  0  0
  189.0010  174.7360  141.6730 C   0  0  1  0  0  3  0  0  0  0  0  0
  189.6870  174.6810  143.0320 C   0  0  0  0  0  2  0  0  0  0  0  0
  192.4960  173.1250  138.8230 C   0  0  0  0  0  0  0  0  0  0  0  0
  194.7140  169.9250  143.6830 O   0  0  0  0  0  1  0  0  0  0  0  0
  191.4460  175.8840  145.0020 O   0  0  0  0  0  0  0  0  0  0  0  0
  194.8930  172.2270  145.2840 C   0  0  0  0  0  2  0  0  0  0  0  0
  190.3500  172.0460  139.6030 O   0  0  0  0  0  0  0  0  0  0  0  0
  195.6330  171.5680  142.0990 C   0  0  2  0  0  0  0  0  0  0  0  0
  193.5400  175.2540  146.6230 F   0  0  0  0  0  0  0  0  0  0  0  0
  194.3680  171.0910  142.9850 C   0  0  2  0  0  0  0  0  0  0  0  0
  190.6260  172.4800  137.1920 C   0  0  2  0  0  3  0  0  0  0  0  0
  194.5820  174.4520  141.1740 C   0  0  0  0  0  1  0  0  0  0  0  0
  193.1090  172.8640  140.0530 O   0  0  0  0  0  0  0  0  0  0  0  0
  191.8250  175.0150  144.2290 C   0  0  0  0  0  0  0  0  0  0  0  0
  194.0340  174.7100  145.4490 C   0  0  0  0  0  0  0  0  0  0  0  0
  193.1530  173.6600  137.8870 O   0  0  0  0  0  0  0  0  0  0  0  0
  197.1400  174.5420  144.4620 C   0  0  0  0  0  2  0  0  0  0  0  0
  188.9280  173.3590  141.0300 C   0  0  0  0  0  2  0  0  0  0  0  0
  194.4590  173.2230  140.2950 C   0  0  2  0  0  3  0  0  0  0  0  0
  193.8970  172.1020  144.0930 C   0  0  2  0  0  3  0  0  0  0  0  0
  195.0950  173.6580  145.8280 C   0  0  2  0  0  3  0  0  0  0  0  0
  189.5400  171.6000  137.1640 O   0  0  0  0  0  1  0  0  0  0  0  0
  196.5690  174.1250  145.8280 C   0  0  0  0  0  2  0  0  0  0  0  0
  191.0350  172.7960  138.6260 C   0  0  1  0  0  0  0  0  0  0  0  0
  191.1830  174.9210  142.8830 C   0  0  0  0  0  2  0  0  0  0  0  0
  196.3490  172.6640  142.7720 C   0  0  0  0  0  0  0  0  0  0  0  0
  192.8970  174.0400  144.6650 C   0  0  2  0  0  3  0  0  0  0  0  0
  190.3220  172.8300  140.7630 C   0  0  0  0  0  2  0  0  0  0  0  0
  193.4480  173.3360  143.5780 O   0  0  0  0  0  0  0  0  0  0  0  0
  196.8020  173.5390  143.4600 C   0  0  0  0  0  0  0  0  0  0  0  0
  195.3370  172.0110  140.6400 C   0  0  0  0  0  2  0  0  0  0  0  0
  193.3490  170.0370  141.0640 O   0  0  0  0  0  0  0  0  0  0  0  0
  191.9150  171.1760  142.4250 O   0  0  0  0  0  1  0  0  0  0  0  0
  193.1850  170.6990  142.1240 C   0  0  0  0  0  0  0  0  0  0  0  0
  197.5360  170.2600  142.7870 O   0  0  0  0  0  0  0  0  0  0  0  0
  196.6150  170.4160  141.9360 C   0  0  0  0  0  0  0  0  0  0  0  0
  196.5150  169.5350  140.8500 O   0  0  0  0  0  0  0  0  0  0  0  0
  197.6130  169.2790  139.9830 C   0  0  0  0  0  2  0  0  0  0  0  0
  197.1980  168.4670  138.9270 O   0  0  0  0  0  0  0  0  0  0  0  0
  195.8270  168.7110  138.8030 C   0  0  0  0  0  2  0  0  0  0  0  0
  195.5890  169.4510  137.6430 O   0  0  0  0  0  1  0  0  0  0  0  0
  187.5900  175.2740  141.8290 C   0  0  0  0  0  2  0  0  0  0  0  0
  187.3990  176.3780  140.9900 O   0  0  0  0  0  0  0  0  0  0  0  0
  187.4890  177.4910  141.8260 C   0  0  1  0  0  3  0  0  0  0  0  0
  188.4560  178.3690  141.3430 O   0  0  0  0  0  1  0  0  0  0  0  0
  185.6460  178.6860  143.1590 N   0  0  0  0  0  2  0  0  0  0  0  0
  186.1620  178.1820  141.9200 C   0  0  0  0  0  0  0  0  0  0  0  0
  185.4830  178.3370  140.8690 O   0  0  0  0  0  0  0  0  0  0  0  0
  185.1760  176.7950  145.9030 C   0  0  0  0  0  2  0  0  0  0  0  0
  187.6480  176.6770  145.4610 C   0  0  0  0  0  1  0  0  0  0  0  0
  185.2150  177.7150  147.1370 C   0  0  0  0  0  2  0  0  0  0  0  0
  185.9020  179.0590  146.8790 C   0  0  0  0  0  2  0  0  0  0  0  0
  186.2960  177.0820  144.8970 C   0  0  2  0  0  3  0  0  0  0  0  0
  186.3200  178.5540  144.4420 C   0  0  2  0  0  3  0  0  0  0  0  0
  185.6790  179.5200  145.4430 C   0  0  0  0  0  2  0  0  0  0  0  0
  1 17  1  0  0  0  0
  3 44  1  1  0  0  0
  3  4  1  0  0  0  0
  5 15  1  0  0  0  0
  9 30  1  0  0  0  0
 10 38  1  6  0  0  0
 10 28  1  0  0  0  0
 10 12  1  0  0  0  0
 12  6  1  1  0  0  0
 12 22  1  0  0  0  0
 13 24  1  1  0  0  0
 13  2  1  0  0  0  0
 13 26  1  0  0  0  0
 15 21  1  0  0  0  0
 16 29  1  0  0  0  0
 16  7  2  0  0  0  0
 17 23  1  0  0  0  0
 17 11  1  0  0  0  0
 18  5  2  0  0  0  0
 19 25  1  0  0  0  0
 20  3  1  0  0  0  0
 21 33  1  0  0  0  0
 21 14  1  1  0  0  0
 22  8  1  1  0  0  0
 23  8  1  6  0  0  0
 25 23  1  0  0  0  0
 26  2  1  1  0  0  0
 26  5  1  0  0  0  0
 26  9  1  0  0  0  0
 27  4  1  0  0  0  0
 27 16  1  0  0  0  0
 28 32  3  0  0  0  0
 29 31  1  6  0  0  0
 29 17  1  0  0  0  0
 30 20  1  0  0  0  0
 31 22  1  0  0  0  0
 32 19  1  0  0  0  0
 33 10  1  0  0  0  0
 34 36  2  0  0  0  0
 36 35  1  0  0  0  0
 36 12  1  0  0  0  0
 38 37  2  0  0  0  0
 39 38  1  0  0  0  0
 40 39  1  0  0  0  0
 41 40  1  0  0  0  0
 42 41  1  0  0  0  0
 43 42  1  0  0  0  0
 45 46  1  0  0  0  0
 45 44  1  0  0  0  0
 46 47  1  6  0  0  0
 46 49  1  0  0  0  0
 49 48  1  0  0  0  0
 50 49  2  0  0  0  0
 51 53  1  0  0  0  0
 54 53  1  0  0  0  0
 55 52  1  1  0  0  0
 55 51  1  0  0  0  0
 56 48  1  6  0  0  0
 56 55  1  0  0  0  0
 56 57  1  0  0  0  0
 57 54  1  0  0  0  0
M  END
>  <MODEL>
4

>  <REMARK>
 VINA RESULT:      -7.2      1.655      2.551
  Name = 
  11 active torsions:
  status: ('A' for Active; 'I' for Inactive)
    1  A    between atoms: O_4  and  C_24
    2  A    between atoms: O_4  and  C_40
    3  A    between atoms: C_5  and  O_46
    4  A    between atoms: C_6  and  C_27
    5  A    between atoms: N_9  and  C_53
    6  A    between atoms: C_11  and  O_18
    7  A    between atoms: C_11  and  C_49
    8  A    between atoms: O_18  and  C_27
    9  A    between atoms: C_21  and  C_40
   10  A    between atoms: C_24  and  O_46
   11  A    between atoms: C_25  and  C_41
                            x       y       z     vdW  Elec       q    Type
                         _______ _______ _______ _____ _____    ______ ____

>  <TORSDO>
F 11

$$$$
=
 OpenBabel11062423073D

 57 61  0  0  1  0  0  0  0  0999 V2000
  189.3110  171.9810  140.4860 F   0  0  0  0  0  0  0  0  0  0  0  0
  195.8420  173.2630  145.5270 C   0  0  0  0  0  2  0  0  0  0  0  0
  192.4530  175.4970  144.8400 C   0  0  1  0  0  3  0  0  0  0  0  0
  191.4620  175.5750  143.6860 C   0  0  0  0  0  2  0  0  0  0  0  0
  195.4690  172.1470  143.2250 C   0  0  0  0  0  0  0  0  0  0  0  0
  193.9750  173.8770  137.4320 O   0  0  0  0  0  1  0  0  0  0  0  0
  189.1180  174.5430  142.3200 O   0  0  0  0  0  0  0  0  0  0  0  0
  191.2310  173.4740  137.8790 C   0  0  0  0  0  2  0  0  0  0  0  0
  195.7310  174.6460  143.4750 O   0  0  0  0  0  0  0  0  0  0  0  0
  193.9760  171.7600  138.6830 C   0  0  2  0  0  0  0  0  0  0  0  0
  188.2580  173.8630  139.8290 F   0  0  0  0  0  0  0  0  0  0  0  0
  193.7110  173.3540  138.7060 C   0  0  2  0  0  0  0  0  0  0  0  0
  197.1900  173.1810  144.8170 C   0  0  2  0  0  3  0  0  0  0  0  0
  192.7470  170.9710  141.5370 C   0  0  0  0  0  1  0  0  0  0  0  0
  194.7160  172.3130  142.0580 O   0  0  0  0  0  0  0  0  0  0  0  0
  190.2560  174.2670  141.9670 C   0  0  0  0  0  0  0  0  0  0  0  0
  189.4650  173.1830  139.8090 C   0  0  0  0  0  0  0  0  0  0  0  0
  195.7610  170.9880  143.6320 O   0  0  0  0  0  0  0  0  0  0  0  0
  190.1550  170.3560  138.3320 C   0  0  0  0  0  2  0  0  0  0  0  0
  193.8620  175.8500  144.3890 C   0  0  0  0  0  2  0  0  0  0  0  0
  194.2310  171.1980  141.3270 C   0  0  2  0  0  3  0  0  0  0  0  0
  192.2350  173.7900  139.0260 C   0  0  2  0  0  3  0  0  0  0  0  0
  189.8510  172.9510  138.3350 C   0  0  2  0  0  3  0  0  0  0  0  0
  197.8600  174.4000  144.9630 O   0  0  0  0  0  1  0  0  0  0  0  0
  189.4640  171.5870  137.7200 C   0  0  0  0  0  2  0  0  0  0  0  0
  195.9060  173.3560  144.0160 C   0  0  1  0  0  0  0  0  0  0  0  0
  191.3370  174.2220  142.9990 C   0  0  0  0  0  2  0  0  0  0  0  0
  192.7060  171.0270  138.5590 C   0  0  0  0  0  0  0  0  0  0  0  0
  190.5480  174.0200  140.5040 C   0  0  2  0  0  3  0  0  0  0  0  0
  194.3510  174.8500  143.3620 C   0  0  0  0  0  2  0  0  0  0  0  0
  191.7960  173.4000  140.3080 O   0  0  0  0  0  0  0  0  0  0  0  0
  191.5870  170.6040  138.4530 C   0  0  0  0  0  0  0  0  0  0  0  0
  194.7600  171.1640  139.8860 C   0  0  0  0  0  2  0  0  0  0  0  0
  194.2570  174.9990  140.3910 O   0  0  0  0  0  1  0  0  0  0  0  0
  196.0290  173.8190  139.5710 O   0  0  0  0  0  0  0  0  0  0  0  0
  194.6650  174.0770  139.6350 C   0  0  0  0  0  0  0  0  0  0  0  0
  194.2710  171.0350  136.4030 O   0  0  0  0  0  0  0  0  0  0  0  0
  194.8320  171.3940  137.4780 C   0  0  0  0  0  0  0  0  0  0  0  0
  196.2310  171.4410  137.5480 O   0  0  0  0  0  0  0  0  0  0  0  0
  197.0560  170.6450  136.7050 C   0  0  0  0  0  2  0  0  0  0  0  0
  197.3470  169.4380  137.3390 O   0  0  0  0  0  0  0  0  0  0  0  0
  196.9220  168.4500  136.4470 C   0  0  0  0  0  2  0  0  0  0  0  0
  197.0250  168.9290  135.1390 O   0  0  0  0  0  1  0  0  0  0  0  0
  192.0400  176.4570  145.9410 C   0  0  0  0  0  2  0  0  0  0  0  0
  191.3360  175.7740  146.9400 O   0  0  0  0  0  0  0  0  0  0  0  0
  190.0810  176.3830  146.9810 C   0  0  1  0  0  3  0  0  0  0  0  0
  190.1230  177.5990  146.3050 O   0  0  0  0  0  1  0  0  0  0  0  0
  187.7730  175.9740  145.9300 N   0  0  0  0  0  2  0  0  0  0  0  0
  189.0460  175.4860  146.3700 C   0  0  0  0  0  0  0  0  0  0  0  0
  189.3130  174.2620  146.2270 O   0  0  0  0  0  0  0  0  0  0  0  0
  184.8230  177.4880  146.5090 C   0  0  0  0  0  2  0  0  0  0  0  0
  186.4550  178.6720  148.0110 C   0  0  0  0  0  1  0  0  0  0  0  0
  184.6370  178.6020  145.4630 C   0  0  0  0  0  2  0  0  0  0  0  0
  185.9440  179.0420  144.7960 C   0  0  0  0  0  2  0  0  0  0  0  0
  186.2280  177.4610  147.1220 C   0  0  2  0  0  3  0  0  0  0  0  0
  187.3370  177.3570  146.0560 C   0  0  2  0  0  3  0  0  0  0  0  0
  186.9170  177.8750  144.6770 C   0  0  0  0  0  2  0  0  0  0  0  0
  3 44  1  1  0  0  0
  4  3  1  0  0  0  0
  5 18  2  0  0  0  0
  5 26  1  0  0  0  0
  8 23  1  0  0  0  0
  9 26  1  0  0  0  0
 10 38  1  6  0  0  0
 10 12  1  0  0  0  0
 10 33  1  0  0  0  0
 12  6  1  6  0  0  0
 12 22  1  0  0  0  0
 12 36  1  0  0  0  0
 13 24  1  1  0  0  0
 13  2  1  0  0  0  0
 15  5  1  0  0  0  0
 16  7  2  0  0  0  0
 16 27  1  0  0  0  0
 17 11  1  0  0  0  0
 17  1  1  0  0  0  0
 17 29  1  0  0  0  0
 19 32  1  0  0  0  0
 20  3  1  0  0  0  0
 21 14  1  6  0  0  0
 21 15  1  0  0  0  0
 22  8  1  6  0  0  0
 22 31  1  0  0  0  0
 23 25  1  1  0  0  0
 23 17  1  0  0  0  0
 25 19  1  0  0  0  0
 26 13  1  0  0  0  0
 26  2  1  1  0  0  0
 27  4  1  0  0  0  0
 28 10  1  0  0  0  0
 29 31  1  1  0  0  0
 29 16  1  0  0  0  0
 30  9  1  0  0  0  0
 30 20  1  0  0  0  0
 32 28  3  0  0  0  0
 33 21  1  0  0  0  0
 35 36  2  0  0  0  0
 36 34  1  0  0  0  0
 37 38  2  0  0  0  0
 38 39  1  0  0  0  0
 40 41  1  0  0  0  0
 40 39  1  0  0  0  0
 42 41  1  0  0  0  0
 43 42  1  0  0  0  0
 44 45  1  0  0  0  0
 45 46  1  0  0  0  0
 46 47  1  6  0  0  0
 48 49  1  0  0  0  0
 49 46  1  0  0  0  0
 50 49  2  0  0  0  0
 51 55  1  0  0  0  0
 53 51  1  0  0  0  0
 54 53  1  0  0  0  0
 55 52  1  6  0  0  0
 56 48  1  6  0  0  0
 56 55  1  0  0  0  0
 57 54  1  0  0  0  0
 57 56  1  0  0  0  0
M  END
>  <MODEL>
5

>  <REMARK>
 VINA RESULT:      -6.9      2.977      6.634
  Name = 
  11 active torsions:
  status: ('A' for Active; 'I' for Inactive)
    1  A    between atoms: O_4  and  C_24
    2  A    between atoms: O_4  and  C_40
    3  A    between atoms: C_5  and  O_46
    4  A    between atoms: C_6  and  C_27
    5  A    between atoms: N_9  and  C_53
    6  A    between atoms: C_11  and  O_18
    7  A    between atoms: C_11  and  C_49
    8  A    between atoms: O_18  and  C_27
    9  A    between atoms: C_21  and  C_40
   10  A    between atoms: C_24  and  O_46
   11  A    between atoms: C_25  and  C_41
                            x       y       z     vdW  Elec       q    Type
                         _______ _______ _______ _____ _____    ______ ____

>  <TORSDO>
F 11

$$$$
=
 OpenBabel11062423073D

 57 61  0  0  1  0  0  0  0  0999 V2000
  188.5050  176.6030  140.8760 F   0  0  0  0  0  0  0  0  0  0  0  0
  195.9900  174.5760  143.9720 C   0  0  0  0  0  2  0  0  0  0  0  0
  193.3610  172.4710  141.6040 C   0  0  1  0  0  3  0  0  0  0  0  0
  191.8620  172.5670  141.3550 C   0  0  0  0  0  2  0  0  0  0  0  0
  193.9950  176.0280  144.7470 C   0  0  0  0  0  0  0  0  0  0  0  0
  188.1010  175.1920  146.5780 O   0  0  0  0  0  1  0  0  0  0  0  0
  189.6250  173.7930  139.9710 O   0  0  0  0  0  0  0  0  0  0  0  0
  187.1070  175.5230  143.9720 C   0  0  0  0  0  2  0  0  0  0  0  0
  194.0190  173.5200  145.0400 O   0  0  0  0  0  0  0  0  0  0  0  0
  189.4330  177.0960  145.7700 C   0  0  2  0  0  0  0  0  0  0  0  0
  187.1610  174.8410  140.4610 F   0  0  0  0  0  0  0  0  0  0  0  0
  189.1080  175.5170  145.6580 C   0  0  2  0  0  0  0  0  0  0  0  0
  196.1000  174.7650  145.4820 C   0  0  2  0  0  3  0  0  0  0  0  0
  191.3070  177.4440  143.1930 C   0  0  0  0  0  1  0  0  0  0  0  0
  192.5960  176.0400  144.7150 O   0  0  0  0  0  0  0  0  0  0  0  0
  189.9530  174.1190  141.1030 C   0  0  0  0  0  0  0  0  0  0  0  0
  187.8580  175.5180  141.4490 C   0  0  0  0  0  0  0  0  0  0  0  0
  194.6400  177.1120  144.6960 O   0  0  0  0  0  0  0  0  0  0  0  0
  187.3340  178.5360  142.5730 C   0  0  0  0  0  2  0  0  0  0  0  0
  193.6660  172.1900  143.0680 C   0  0  0  0  0  2  0  0  0  0  0  0
  191.8710  177.2520  144.5870 C   0  0  2  0  0  3  0  0  0  0  0  0
  188.5560  175.0370  144.2660 C   0  0  2  0  0  3  0  0  0  0  0  0
  186.8430  175.9690  142.5170 C   0  0  2  0  0  3  0  0  0  0  0  0
  196.4140  173.5380  146.0760 O   0  0  0  0  0  1  0  0  0  0  0  0
  186.2990  177.4110  142.3940 C   0  0  0  0  0  2  0  0  0  0  0  0
  194.7340  174.7130  144.8100 C   0  0  1  0  0  0  0  0  0  0  0  0
  191.3920  174.0080  141.4940 C   0  0  0  0  0  2  0  0  0  0  0  0
  188.7630  177.8390  144.6910 C   0  0  0  0  0  0  0  0  0  0  0  0
  188.9000  174.5850  142.0850 C   0  0  2  0  0  3  0  0  0  0  0  0
  193.1820  173.3340  143.9340 C   0  0  0  0  0  2  0  0  0  0  0  0
  189.4620  175.2280  143.2030 O   0  0  0  0  0  0  0  0  0  0  0  0
  188.1470  178.2730  143.7550 C   0  0  0  0  0  0  0  0  0  0  0  0
  190.9320  177.5030  145.7760 C   0  0  0  0  0  2  0  0  0  0  0  0
  190.6250  173.6580  145.3690 O   0  0  0  0  0  0  0  0  0  0  0  0
  190.9580  174.9020  147.2520 O   0  0  0  0  0  1  0  0  0  0  0  0
  190.2950  174.6630  146.0540 C   0  0  0  0  0  0  0  0  0  0  0  0
  189.7130  178.1450  147.9220 O   0  0  0  0  0  0  0  0  0  0  0  0
  188.9050  177.6410  147.0920 C   0  0  0  0  0  0  0  0  0  0  0  0
  187.5390  177.5810  147.3990 O   0  0  0  0  0  0  0  0  0  0  0  0
  186.8100  178.7280  147.8200 C   0  0  0  0  0  2  0  0  0  0  0  0
  185.4630  178.5740  147.4900 O   0  0  0  0  0  0  0  0  0  0  0  0
  185.3740  178.9670  146.1520 C   0  0  0  0  0  2  0  0  0  0  0  0
  184.6190  178.0320  145.4410 O   0  0  0  0  0  1  0  0  0  0  0  0
  193.9540  171.3550  140.7620 C   0  0  0  0  0  2  0  0  0  0  0  0
  193.5660  170.1090  141.2690 O   0  0  0  0  0  0  0  0  0  0  0  0
  193.2580  169.3390  140.1460 C   0  0  1  0  0  3  0  0  0  0  0  0
  194.0070  168.1660  140.1580 O   0  0  0  0  0  1  0  0  0  0  0  0
  190.9540  169.3600  139.0100 N   0  0  0  0  0  2  0  0  0  0  0  0
  191.7930  169.0190  140.1200 C   0  0  0  0  0  0  0  0  0  0  0  0
  191.2870  168.4160  141.1050 O   0  0  0  0  0  0  0  0  0  0  0  0
  189.6980  171.8240  137.0910 C   0  0  0  0  0  2  0  0  0  0  0  0
  192.1010  172.4630  137.4600 C   0  0  0  0  0  1  0  0  0  0  0  0
  189.8080  171.3930  135.6170 C   0  0  0  0  0  2  0  0  0  0  0  0
  190.8300  170.2770  135.3780 C   0  0  0  0  0  2  0  0  0  0  0  0
  190.9710  171.5470  137.8990 C   0  0  2  0  0  3  0  0  0  0  0  0
  191.4110  170.0730  137.8250 C   0  0  2  0  0  3  0  0  0  0  0  0
  190.9060  169.3400  136.5780 C   0  0  0  0  0  2  0  0  0  0  0  0
  1 17  1  0  0  0  0
  2 13  1  0  0  0  0
  3 44  1  6  0  0  0
  3 20  1  0  0  0  0
  4 27  1  0  0  0  0
  4  3  1  0  0  0  0
  5 26  1  0  0  0  0
  7 16  2  0  0  0  0
 10 33  1  0  0  0  0
 10 38  1  1  0  0  0
 11 17  1  0  0  0  0
 12 10  1  0  0  0  0
 12 36  1  0  0  0  0
 12  6  1  1  0  0  0
 13 24  1  1  0  0  0
 15  5  1  0  0  0  0
 16 27  1  0  0  0  0
 17 29  1  0  0  0  0
 17 23  1  0  0  0  0
 18  5  2  0  0  0  0
 19 32  1  0  0  0  0
 20 30  1  0  0  0  0
 21 14  1  6  0  0  0
 21 15  1  0  0  0  0
 21 33  1  0  0  0  0
 22  8  1  6  0  0  0
 22 12  1  0  0  0  0
 23 25  1  1  0  0  0
 23  8  1  0  0  0  0
 25 19  1  0  0  0  0
 26  2  1  6  0  0  0
 26  9  1  0  0  0  0
 26 13  1  0  0  0  0
 28 10  1  0  0  0  0
 29 16  1  6  0  0  0
 29 31  1  0  0  0  0
 30  9  1  0  0  0  0
 31 22  1  0  0  0  0
 32 28  3  0  0  0  0
 34 36  2  0  0  0  0
 36 35  1  0  0  0  0
 38 39  1  0  0  0  0
 38 37  2  0  0  0  0
 39 40  1  0  0  0  0
 41 40  1  0  0  0  0
 42 41  1  0  0  0  0
 43 42  1  0  0  0  0
 44 45  1  0  0  0  0
 46 47  1  1  0  0  0
 46 45  1  0  0  0  0
 48 49  1  0  0  0  0
 49 46  1  0  0  0  0
 49 50  2  0  0  0  0
 51 55  1  0  0  0  0
 53 51  1  0  0  0  0
 54 53  1  0  0  0  0
 54 57  1  0  0  0  0
 55 52  1  6  0  0  0
 56 55  1  0  0  0  0
 56 48  1  1  0  0  0
 57 56  1  0  0  0  0
M  END
>  <MODEL>
6

>  <REMARK>
 VINA RESULT:      -6.7      3.140      9.271
  Name = 
  11 active torsions:
  status: ('A' for Active; 'I' for Inactive)
    1  A    between atoms: O_4  and  C_24
    2  A    between atoms: O_4  and  C_40
    3  A    between atoms: C_5  and  O_46
    4  A    between atoms: C_6  and  C_27
    5  A    between atoms: N_9  and  C_53
    6  A    between atoms: C_11  and  O_18
    7  A    between atoms: C_11  and  C_49
    8  A    between atoms: O_18  and  C_27
    9  A    between atoms: C_21  and  C_40
   10  A    between atoms: C_24  and  O_46
   11  A    between atoms: C_25  and  C_41
                            x       y       z     vdW  Elec       q    Type
                         _______ _______ _______ _____ _____    ______ ____

>  <TORSDO>
F 11

$$$$
=
 OpenBabel11062423073D

 57 61  0  0  1  0  0  0  0  0999 V2000
  188.7800  171.7210  138.7080 F   0  0  0  0  0  0  0  0  0  0  0  0
  194.0300  171.1160  145.1730 C   0  0  0  0  0  2  0  0  0  0  0  0
  190.7840  173.5630  144.5200 C   0  0  1  0  0  3  0  0  0  0  0  0
  190.0600  174.0370  143.2670 C   0  0  0  0  0  2  0  0  0  0  0  0
  194.2000  170.8030  142.6110 C   0  0  0  0  0  0  0  0  0  0  0  0
  193.9140  174.3340  137.4890 O   0  0  0  0  0  1  0  0  0  0  0  0
  188.1030  173.5710  141.1750 O   0  0  0  0  0  0  0  0  0  0  0  0
  191.1550  173.9000  137.1860 C   0  0  0  0  0  2  0  0  0  0  0  0
  194.3080  173.0820  143.6910 O   0  0  0  0  0  0  0  0  0  0  0  0
  193.7270  171.9300  137.9730 C   0  0  2  0  0  0  0  0  0  0  0  0
  187.8220  173.7480  138.4740 F   0  0  0  0  0  0  0  0  0  0  0  0
  193.4040  173.4420  138.4430 C   0  0  2  0  0  0  0  0  0  0  0  0
  195.5010  171.2190  144.7800 C   0  0  2  0  0  3  0  0  0  0  0  0
  191.9470  170.3160  140.0950 C   0  0  0  0  0  1  0  0  0  0  0  0
  193.7080  171.3560  141.4240 O   0  0  0  0  0  0  0  0  0  0  0  0
  189.3000  173.3850  141.0060 C   0  0  0  0  0  0  0  0  0  0  0  0
  189.0290  173.0700  138.4980 C   0  0  0  0  0  0  0  0  0  0  0  0
  194.4410  169.5650  142.6820 O   0  0  0  0  0  0  0  0  0  0  0  0
  190.1240  170.8380  136.3840 C   0  0  0  0  0  2  0  0  0  0  0  0
  192.2430  173.9940  144.5180 C   0  0  0  0  0  2  0  0  0  0  0  0
  193.4320  170.5490  140.2910 C   0  0  2  0  0  3  0  0  0  0  0  0
  191.8780  173.8030  138.5610 C   0  0  2  0  0  3  0  0  0  0  0  0
  189.7300  173.3060  137.1460 C   0  0  2  0  0  3  0  0  0  0  0  0
  196.0780  172.3060  145.4450 O   0  0  0  0  0  1  0  0  0  0  0  0
  189.5350  172.2220  136.0620 C   0  0  0  0  0  2  0  0  0  0  0  0
  194.4120  171.6820  143.8190 C   0  0  1  0  0  0  0  0  0  0  0  0
  190.1360  172.9780  142.1760 C   0  0  0  0  0  2  0  0  0  0  0  0
  192.5420  171.3180  137.3530 C   0  0  0  0  0  0  0  0  0  0  0  0
  189.9070  173.6060  139.6380 C   0  0  2  0  0  3  0  0  0  0  0  0
  192.9770  173.3580  143.3570 C   0  0  0  0  0  2  0  0  0  0  0  0
  191.1900  173.0400  139.5280 O   0  0  0  0  0  0  0  0  0  0  0  0
  191.4870  170.9870  136.8810 C   0  0  0  0  0  0  0  0  0  0  0  0
  194.2570  170.9570  139.0630 C   0  0  0  0  0  2  0  0  0  0  0  0
  195.2640  173.3620  139.9840 O   0  0  0  0  0  0  0  0  0  0  0  0
  193.4380  174.5130  140.7220 O   0  0  0  0  0  1  0  0  0  0  0  0
  194.1090  173.8000  139.7350 C   0  0  0  0  0  0  0  0  0  0  0  0
  194.5320  172.0560  135.7050 O   0  0  0  0  0  0  0  0  0  0  0  0
  194.8340  171.9380  136.9270 C   0  0  0  0  0  0  0  0  0  0  0  0
  196.1780  171.8070  137.3010 O   0  0  0  0  0  0  0  0  0  0  0  0
  197.0390  170.8500  136.6960 C   0  0  0  0  0  2  0  0  0  0  0  0
  197.9390  170.3630  137.6450 O   0  0  0  0  0  0  0  0  0  0  0  0
  197.7120  168.9850  137.6830 C   0  0  0  0  0  2  0  0  0  0  0  0
  197.4780  168.5880  139.0010 O   0  0  0  0  0  1  0  0  0  0  0  0
  190.1100  174.1370  145.7540 C   0  0  0  0  0  2  0  0  0  0  0  0
  189.3150  175.2330  145.4040 O   0  0  0  0  0  0  0  0  0  0  0  0
  188.6020  175.5500  146.5620 C   0  0  1  0  0  3  0  0  0  0  0  0
  189.0570  174.7730  147.6240 O   0  0  0  0  0  1  0  0  0  0  0  0
  187.7110  177.9590  146.6270 N   0  0  0  0  0  2  0  0  0  0  0  0
  188.7520  177.0070  146.8830 C   0  0  0  0  0  0  0  0  0  0  0  0
  189.8260  177.4040  147.4100 O   0  0  0  0  0  0  0  0  0  0  0  0
  185.8900  179.2670  144.1170 C   0  0  0  0  0  2  0  0  0  0  0  0
  185.8480  176.7870  143.7120 C   0  0  0  0  0  1  0  0  0  0  0  0
  184.4400  179.4360  144.6080 C   0  0  0  0  0  2  0  0  0  0  0  0
  184.1020  178.5760  145.8290 C   0  0  0  0  0  2  0  0  0  0  0  0
  186.5030  177.9130  144.4930 C   0  0  2  0  0  3  0  0  0  0  0  0
  186.4360  177.6320  146.0060 C   0  0  2  0  0  3  0  0  0  0  0  0
  185.3210  178.3970  146.7270 C   0  0  0  0  0  2  0  0  0  0  0  0
  3 44  1  1  0  0  0
  4  3  1  0  0  0  0
  5 18  2  0  0  0  0
  5 26  1  0  0  0  0
  9 26  1  0  0  0  0
 10 38  1  6  0  0  0
 10 12  1  0  0  0  0
 10 33  1  0  0  0  0
 11 17  1  0  0  0  0
 12  6  1  6  0  0  0
 12 22  1  0  0  0  0
 12 36  1  0  0  0  0
 13  2  1  0  0  0  0
 13 24  1  1  0  0  0
 15  5  1  0  0  0  0
 16  7  2  0  0  0  0
 16 27  1  0  0  0  0
 17  1  1  0  0  0  0
 17 29  1  0  0  0  0
 19 32  1  0  0  0  0
 20  3  1  0  0  0  0
 21 14  1  6  0  0  0
 21 15  1  0  0  0  0
 22  8  1  6  0  0  0
 22 31  1  0  0  0  0
 23 25  1  1  0  0  0
 23  8  1  0  0  0  0
 23 17  1  0  0  0  0
 25 19  1  0  0  0  0
 26 13  1  0  0  0  0
 26  2  1  1  0  0  0
 27  4  1  0  0  0  0
 28 10  1  0  0  0  0
 29 31  1  1  0  0  0
 29 16  1  0  0  0  0
 30  9  1  0  0  0  0
 30 20  1  0  0  0  0
 32 28  3  0  0  0  0
 33 21  1  0  0  0  0
 36 34  2  0  0  0  0
 36 35  1  0  0  0  0
 37 38  2  0  0  0  0
 38 39  1  0  0  0  0
 40 39  1  0  0  0  0
 40 41  1  0  0  0  0
 41 42  1  0  0  0  0
 42 43  1  0  0  0  0
 45 44  1  0  0  0  0
 45 46  1  0  0  0  0
 46 49  1  0  0  0  0
 46 47  1  1  0  0  0
 48 49  1  0  0  0  0
 49 50  2  0  0  0  0
 51 55  1  0  0  0  0
 51 53  1  0  0  0  0
 53 54  1  0  0  0  0
 54 57  1  0  0  0  0
 55 52  1  6  0  0  0
 55 56  1  0  0  0  0
 56 48  1  1  0  0  0
 56 57  1  0  0  0  0
M  END
>  <MODEL>
7

>  <REMARK>
 VINA RESULT:      -6.7      2.947      6.623
  Name = 
  11 active torsions:
  status: ('A' for Active; 'I' for Inactive)
    1  A    between atoms: O_4  and  C_24
    2  A    between atoms: O_4  and  C_40
    3  A    between atoms: C_5  and  O_46
    4  A    between atoms: C_6  and  C_27
    5  A    between atoms: N_9  and  C_53
    6  A    between atoms: C_11  and  O_18
    7  A    between atoms: C_11  and  C_49
    8  A    between atoms: O_18  and  C_27
    9  A    between atoms: C_21  and  C_40
   10  A    between atoms: C_24  and  O_46
   11  A    between atoms: C_25  and  C_41
                            x       y       z     vdW  Elec       q    Type
                         _______ _______ _______ _____ _____    ______ ____

>  <TORSDO>
F 11

$$$$
=
 OpenBabel11062423073D

 57 61  0  0  1  0  0  0  0  0999 V2000
  193.0260  174.4690  147.0450 F   0  0  0  0  0  0  0  0  0  0  0  0
  191.9630  170.2150  139.9390 C   0  0  0  0  0  2  0  0  0  0  0  0
  195.1480  172.4110  141.3490 C   0  0  1  0  0  3  0  0  0  0  0  0
  195.2820  173.5290  142.3750 C   0  0  0  0  0  2  0  0  0  0  0  0
  190.4400  171.5560  141.5430 C   0  0  0  0  0  0  0  0  0  0  0  0
  189.6370  177.4800  143.2870 O   0  0  0  0  0  1  0  0  0  0  0  0
  195.5410  174.3750  145.1390 O   0  0  0  0  0  0  0  0  0  0  0  0
  191.3990  177.2160  145.4590 C   0  0  0  0  0  2  0  0  0  0  0  0
  191.8590  172.6850  139.7850 O   0  0  0  0  0  0  0  0  0  0  0  0
  188.9950  175.2840  144.1910 C   0  0  2  0  0  0  0  0  0  0  0  0
  194.4990  176.1690  146.9010 F   0  0  0  0  0  0  0  0  0  0  0  0
  190.1140  176.1690  143.4330 C   0  0  2  0  0  0  0  0  0  0  0  0
  190.6970  170.5970  139.1790 C   0  0  2  0  0  3  0  0  0  0  0  0
  190.7060  172.6350  144.7690 C   0  0  0  0  0  1  0  0  0  0  0  0
  190.4650  172.7030  142.3420 O   0  0  0  0  0  0  0  0  0  0  0  0
  194.4690  174.3800  144.5500 C   0  0  0  0  0  0  0  0  0  0  0  0
  193.3060  175.6690  146.4070 C   0  0  0  0  0  0  0  0  0  0  0  0
  189.7660  170.5490  141.8980 O   0  0  0  0  0  0  0  0  0  0  0  0
  190.4850  175.2620  147.9960 C   0  0  0  0  0  2  0  0  0  0  0  0
  194.2220  172.8100  140.2090 C   0  0  0  0  0  2  0  0  0  0  0  0
  189.7730  172.7560  143.5790 C   0  0  2  0  0  3  0  0  0  0  0  0
  191.4850  176.3200  144.1900 C   0  0  2  0  0  3  0  0  0  0  0  0
  192.2080  176.7170  146.6760 C   0  0  2  0  0  3  0  0  0  0  0  0
  191.0480  171.0640  137.9090 O   0  0  0  0  0  1  0  0  0  0  0  0
  191.3620  176.5260  147.9550 C   0  0  0  0  0  2  0  0  0  0  0  0
  191.2480  171.5100  140.2680 C   0  0  1  0  0  0  0  0  0  0  0  0
  194.2370  173.3720  143.4710 C   0  0  0  0  0  2  0  0  0  0  0  0
  189.3300  175.1380  145.6160 C   0  0  0  0  0  0  0  0  0  0  0  0
  193.4290  175.4220  144.8960 C   0  0  2  0  0  3  0  0  0  0  0  0
  192.8220  173.0550  140.7310 C   0  0  0  0  0  2  0  0  0  0  0  0
  192.1590  175.0960  144.3850 O   0  0  0  0  0  0  0  0  0  0  0  0
  189.7580  175.1270  146.7390 C   0  0  0  0  0  0  0  0  0  0  0  0
  188.7150  173.8680  143.6140 C   0  0  0  0  0  2  0  0  0  0  0  0
  189.4080  175.4340  141.2420 O   0  0  0  0  0  0  0  0  0  0  0  0
  191.6590  175.3780  141.6090 O   0  0  0  0  0  1  0  0  0  0  0  0
  190.3670  175.6820  142.0210 C   0  0  0  0  0  0  0  0  0  0  0  0
  186.8840  175.7530  143.1260 O   0  0  0  0  0  0  0  0  0  0  0  0
  187.6420  175.9800  144.1110 C   0  0  0  0  0  0  0  0  0  0  0  0
  187.2340  176.8740  145.1110 O   0  0  0  0  0  0  0  0  0  0  0  0
  185.8970  176.9050  145.5950 C   0  0  0  0  0  2  0  0  0  0  0  0
  185.1560  177.8340  144.8630 O   0  0  0  0  0  0  0  0  0  0  0  0
  184.4060  178.5280  145.8160 C   0  0  0  0  0  2  0  0  0  0  0  0
  184.9190  178.2710  147.0890 O   0  0  0  0  0  1  0  0  0  0  0  0
  196.5110  172.0740  140.7710 C   0  0  0  0  0  2  0  0  0  0  0  0
  196.5480  170.7340  140.3700 O   0  0  0  0  0  0  0  0  0  0  0  0
  196.0380  170.0160  141.4530 C   0  0  1  0  0  3  0  0  0  0  0  0
  194.9920  169.2010  141.0290 O   0  0  0  0  0  1  0  0  0  0  0  0
  197.2380  169.0420  143.5050 N   0  0  0  0  0  2  0  0  0  0  0  0
  197.1170  169.1880  142.0840 C   0  0  0  0  0  0  0  0  0  0  0  0
  197.9370  168.5900  141.3370 O   0  0  0  0  0  0  0  0  0  0  0  0
  197.0860  169.1450  146.8660 C   0  0  0  0  0  2  0  0  0  0  0  0
  196.7870  171.5330  146.1390 C   0  0  0  0  0  1  0  0  0  0  0  0
  195.6340  168.8610  147.2940 C   0  0  0  0  0  2  0  0  0  0  0  0
  194.6100  169.0850  146.1770 C   0  0  0  0  0  2  0  0  0  0  0  0
  197.1910  170.1360  145.7000 C   0  0  2  0  0  3  0  0  0  0  0  0
  196.3700  169.6960  144.4730 C   0  0  2  0  0  3  0  0  0  0  0  0
  195.2070  168.7560  144.8130 C   0  0  0  0  0  2  0  0  0  0  0  0
  3 44  1  6  0  0  0
  3  4  1  0  0  0  0
  4 27  1  0  0  0  0
  5 18  2  0  0  0  0
  5 15  1  0  0  0  0
  9 26  1  0  0  0  0
  9 30  1  0  0  0  0
 10 38  1  6  0  0  0
 10 28  1  0  0  0  0
 12  6  1  6  0  0  0
 12 22  1  0  0  0  0
 12 10  1  0  0  0  0
 13 24  1  6  0  0  0
 13  2  1  0  0  0  0
 13 26  1  0  0  0  0
 15 21  1  0  0  0  0
 16 29  1  0  0  0  0
 16  7  2  0  0  0  0
 17 23  1  0  0  0  0
 17 11  1  0  0  0  0
 17  1  1  0  0  0  0
 20 30  1  0  0  0  0
 20  3  1  0  0  0  0
 21 33  1  0  0  0  0
 21 14  1  1  0  0  0
 22 31  1  0  0  0  0
 22  8  1  1  0  0  0
 23  8  1  6  0  0  0
 23 25  1  0  0  0  0
 25 19  1  0  0  0  0
 26  2  1  1  0  0  0
 26  5  1  0  0  0  0
 27 16  1  0  0  0  0
 28 32  3  0  0  0  0
 29 31  1  1  0  0  0
 29 17  1  0  0  0  0
 32 19  1  0  0  0  0
 33 10  1  0  0  0  0
 34 36  2  0  0  0  0
 35 36  1  0  0  0  0
 36 12  1  0  0  0  0
 37 38  2  0  0  0  0
 38 39  1  0  0  0  0
 39 40  1  0  0  0  0
 41 40  1  0  0  0  0
 41 42  1  0  0  0  0
 42 43  1  0  0  0  0
 45 44  1  0  0  0  0
 45 46  1  0  0  0  0
 46 47  1  6  0  0  0
 46 49  1  0  0  0  0
 49 48  1  0  0  0  0
 50 49  2  0  0  0  0
 51 53  1  0  0  0  0
 54 53  1  0  0  0  0
 55 52  1  1  0  0  0
 55 51  1  0  0  0  0
 56 48  1  6  0  0  0
 56 57  1  0  0  0  0
 56 55  1  0  0  0  0
 57 54  1  0  0  0  0
M  END
>  <MODEL>
8

>  <REMARK>
 VINA RESULT:      -6.7      3.126      8.898
  Name = 
  11 active torsions:
  status: ('A' for Active; 'I' for Inactive)
    1  A    between atoms: O_4  and  C_24
    2  A    between atoms: O_4  and  C_40
    3  A    between atoms: C_5  and  O_46
    4  A    between atoms: C_6  and  C_27
    5  A    between atoms: N_9  and  C_53
    6  A    between atoms: C_11  and  O_18
    7  A    between atoms: C_11  and  C_49
    8  A    between atoms: O_18  and  C_27
    9  A    between atoms: C_21  and  C_40
   10  A    between atoms: C_24  and  O_46
   11  A    between atoms: C_25  and  C_41
                            x       y       z     vdW  Elec       q    Type
                         _______ _______ _______ _____ _____    ______ ____

>  <TORSDO>
F 11

$$$$
=
 OpenBabel11062423073D

 57 61  0  0  1  0  0  0  0  0999 V2000
  189.2030  175.6630  140.5590 F   0  0  0  0  0  0  0  0  0  0  0  0
  196.6700  174.0260  143.9180 C   0  0  0  0  0  2  0  0  0  0  0  0
  194.0270  171.6350  141.8570 C   0  0  1  0  0  3  0  0  0  0  0  0
  192.5290  171.7070  141.5940 C   0  0  0  0  0  2  0  0  0  0  0  0
  194.6850  175.5850  144.4820 C   0  0  0  0  0  0  0  0  0  0  0  0
  188.7840  175.0520  146.4000 O   0  0  0  0  0  1  0  0  0  0  0  0
  190.3020  172.7480  140.0510 O   0  0  0  0  0  0  0  0  0  0  0  0
  187.7940  175.0290  143.7710 C   0  0  0  0  0  2  0  0  0  0  0  0
  194.6900  173.1410  145.1170 O   0  0  0  0  0  0  0  0  0  0  0  0
  190.1300  176.8170  145.3410 C   0  0  2  0  0  0  0  0  0  0  0  0
  187.8460  173.8710  140.3880 F   0  0  0  0  0  0  0  0  0  0  0  0
  189.7940  175.2400  145.4460 C   0  0  2  0  0  0  0  0  0  0  0  0
  196.7800  174.4200  145.3880 C   0  0  2  0  0  3  0  0  0  0  0  0
  192.0090  176.7940  142.7440 C   0  0  0  0  0  1  0  0  0  0  0  0
  193.2860  175.6030  144.4460 O   0  0  0  0  0  0  0  0  0  0  0  0
  190.6310  173.2240  141.1280 C   0  0  0  0  0  0  0  0  0  0  0  0
  188.5470  174.6710  141.2750 C   0  0  0  0  0  0  0  0  0  0  0  0
  195.3380  176.6470  144.2840 O   0  0  0  0  0  0  0  0  0  0  0  0
  188.0440  177.8190  141.9730 C   0  0  0  0  0  2  0  0  0  0  0  0
  194.3290  171.5560  143.3460 C   0  0  0  0  0  2  0  0  0  0  0  0
  192.5700  176.7910  144.1520 C   0  0  2  0  0  3  0  0  0  0  0  0
  189.2390  174.5770  144.1320 C   0  0  2  0  0  3  0  0  0  0  0  0
  187.5350  175.2730  142.2690 C   0  0  2  0  0  3  0  0  0  0  0  0
  197.0840  173.2840  146.1450 O   0  0  0  0  0  1  0  0  0  0  0  0
  187.0010  176.6880  141.9480 C   0  0  0  0  0  2  0  0  0  0  0  0
  195.4140  174.2860  144.7260 C   0  0  1  0  0  0  0  0  0  0  0  0
  192.0690  173.1570  141.5330 C   0  0  0  0  0  2  0  0  0  0  0  0
  189.4660  177.4090  144.1680 C   0  0  0  0  0  0  0  0  0  0  0  0
  189.5810  173.8280  142.0340 C   0  0  2  0  0  3  0  0  0  0  0  0
  193.8520  172.8110  144.0450 C   0  0  0  0  0  2  0  0  0  0  0  0
  190.1470  174.6140  143.0540 O   0  0  0  0  0  0  0  0  0  0  0  0
  188.8550  177.7150  143.1800 C   0  0  0  0  0  0  0  0  0  0  0  0
  191.6320  177.2100  145.2930 C   0  0  0  0  0  2  0  0  0  0  0  0
  191.3150  173.3630  145.3990 O   0  0  0  0  0  0  0  0  0  0  0  0
  191.6160  174.8170  147.1310 O   0  0  0  0  0  1  0  0  0  0  0  0
  190.9740  174.4390  145.9570 C   0  0  0  0  0  0  0  0  0  0  0  0
  190.2890  177.5340  147.6370 O   0  0  0  0  0  0  0  0  0  0  0  0
  189.6050  177.5420  146.5740 C   0  0  0  0  0  0  0  0  0  0  0  0
  188.3720  178.2090  146.5450 O   0  0  0  0  0  0  0  0  0  0  0  0
  187.3100  177.8670  147.4270 C   0  0  0  0  0  2  0  0  0  0  0  0
  186.1460  178.5280  147.0360 O   0  0  0  0  0  0  0  0  0  0  0  0
  185.1890  177.5190  146.8930 C   0  0  0  0  0  2  0  0  0  0  0  0
  185.4660  176.7750  145.7450 O   0  0  0  0  0  1  0  0  0  0  0  0
  194.6120  170.4090  141.1770 C   0  0  0  0  0  2  0  0  0  0  0  0
  193.8660  170.0860  140.0380 O   0  0  0  0  0  0  0  0  0  0  0  0
  194.6280  170.5450  138.9620 C   0  0  1  0  0  3  0  0  0  0  0  0
  194.7690  169.5320  138.0170 O   0  0  0  0  0  1  0  0  0  0  0  0
  194.7080  172.9530  138.0700 N   0  0  0  0  0  2  0  0  0  0  0  0
  193.9820  171.7470  138.3400 C   0  0  0  0  0  0  0  0  0  0  0  0
  192.7610  171.6880  138.0330 O   0  0  0  0  0  0  0  0  0  0  0  0
  196.4000  175.0470  140.0910 C   0  0  0  0  0  2  0  0  0  0  0  0
  197.4210  172.7890  140.5110 C   0  0  0  0  0  1  0  0  0  0  0  0
  197.5570  175.6660  139.2860 C   0  0  0  0  0  2  0  0  0  0  0  0
  197.9290  174.8690  138.0320 C   0  0  0  0  0  2  0  0  0  0  0  0
  196.2580  173.5350  139.8810 C   0  0  2  0  0  3  0  0  0  0  0  0
  196.1130  173.1540  138.3950 C   0  0  2  0  0  3  0  0  0  0  0  0
  196.7020  174.1910  137.4320 C   0  0  0  0  0  2  0  0  0  0  0  0
  1 17  1  0  0  0  0
  2 13  1  0  0  0  0
  3 44  1  6  0  0  0
  3 20  1  0  0  0  0
  4  3  1  0  0  0  0
  5 26  1  0  0  0  0
  7 16  2  0  0  0  0
 10 12  1  0  0  0  0
 10 38  1  1  0  0  0
 11 17  1  0  0  0  0
 12 36  1  0  0  0  0
 12  6  1  1  0  0  0
 13 24  1  1  0  0  0
 15  5  1  0  0  0  0
 16 27  1  0  0  0  0
 17 29  1  0  0  0  0
 17 23  1  0  0  0  0
 18  5  2  0  0  0  0
 19 32  1  0  0  0  0
 20 30  1  0  0  0  0
 21 14  1  6  0  0  0
 21 15  1  0  0  0  0
 21 33  1  0  0  0  0
 22  8  1  6  0  0  0
 22 12  1  0  0  0  0
 23 25  1  1  0  0  0
 23  8  1  0  0  0  0
 25 19  1  0  0  0  0
 26  2  1  6  0  0  0
 26  9  1  0  0  0  0
 26 13  1  0  0  0  0
 27  4  1  0  0  0  0
 28 10  1  0  0  0  0
 29 16  1  6  0  0  0
 29 31  1  0  0  0  0
 30  9  1  0  0  0  0
 31 22  1  0  0  0  0
 32 28  3  0  0  0  0
 33 10  1  0  0  0  0
 34 36  2  0  0  0  0
 36 35  1  0  0  0  0
 38 37  2  0  0  0  0
 39 38  1  0  0  0  0
 39 40  1  0  0  0  0
 41 40  1  0  0  0  0
 42 41  1  0  0  0  0
 43 42  1  0  0  0  0
 45 44  1  0  0  0  0
 46 47  1  6  0  0  0
 46 45  1  0  0  0  0
 48 49  1  0  0  0  0
 49 46  1  0  0  0  0
 50 49  2  0  0  0  0
 53 51  1  0  0  0  0
 54 53  1  0  0  0  0
 55 51  1  0  0  0  0
 55 52  1  6  0  0  0
 56 48  1  6  0  0  0
 56 55  1  0  0  0  0
 57 54  1  0  0  0  0
 57 56  1  0  0  0  0
M  END
>  <MODEL>
9

>  <REMARK>
 VINA RESULT:      -6.7      3.291      9.268
  Name = 
  11 active torsions:
  status: ('A' for Active; 'I' for Inactive)
    1  A    between atoms: O_4  and  C_24
    2  A    between atoms: O_4  and  C_40
    3  A    between atoms: C_5  and  O_46
    4  A    between atoms: C_6  and  C_27
    5  A    between atoms: N_9  and  C_53
    6  A    between atoms: C_11  and  O_18
    7  A    between atoms: C_11  and  C_49
    8  A    between atoms: O_18  and  C_27
    9  A    between atoms: C_21  and  C_40
   10  A    between atoms: C_24  and  O_46
   11  A    between atoms: C_25  and  C_41
                            x       y       z     vdW  Elec       q    Type
                         _______ _______ _______ _____ _____    ______ ____

>  <TORSDO>
F 11

$$$$
