=
 OpenBabel11062422263D

 36 39  0  0  1  0  0  0  0  0999 V2000
  190.0230  176.3420  143.4430 C   0  0  1  0  0  3  0  0  0  0  0  0
  194.8090  175.9960  144.5870 N   0  0  0  0  0  2  0  0  0  0  0  0
  195.1170  176.1350  143.2210 N   0  0  0  0  0  0  0  0  0  0  0  0
  190.7630  176.0130  145.8740 C   0  0  0  0  0  0  0  0  0  0  0  0
  193.4500  175.9900  145.0330 C   0  0  0  0  0  0  0  0  0  0  0  0
  192.8020  176.2770  142.7120 N   0  0  0  0  0  2  0  0  0  0  0  0
  193.1420  175.8370  146.3820 C   0  0  0  0  0  3  0  0  0  0  0  0
  192.4330  176.1530  144.0920 C   0  0  0  0  0  0  0  0  0  0  0  0
  191.8150  175.8420  146.8110 C   0  0  0  0  0  0  0  0  0  0  0  0
  194.1830  176.2670  142.3240 C   0  0  0  0  0  0  0  0  0  0  0  0
  191.0860  176.1770  144.4980 C   0  0  0  0  0  0  0  0  0  0  0  0
  194.5500  176.3700  140.8860 C   0  0  0  0  0  1  0  0  0  0  0  0
  191.5760  175.6660  148.2740 C   0  0  0  0  0  1  0  0  0  0  0  0
  189.3100  176.0580  146.3010 C   0  0  1  0  0  3  0  0  0  0  0  0
  188.6770  174.6930  146.5960 C   0  0  1  0  0  3  0  0  0  0  0  0
  189.6730  173.3870  145.9110 Cl  0  0  0  0  0  0  0  0  0  0  0  0
  188.5830  174.5010  147.9620 F   0  0  0  0  0  0  0  0  0  0  0  0
  189.0300  177.1220  147.3670 C   0  0  0  0  0  2  0  0  0  0  0  0
  189.5860  178.3500  147.0120 O   0  0  0  0  0  1  0  0  0  0  0  0
  189.3080  175.1260  143.2440 O   0  0  0  0  0  0  0  0  0  0  0  0
  189.6910  174.1720  142.2990 C   0  0  0  0  0  0  0  0  0  0  0  0
  190.5920  173.3460  142.5890 O   0  0  0  0  0  0  0  0  0  0  0  0
  189.0270  174.0850  140.9660 C   0  0  0  0  0  1  0  0  0  0  0  0
  189.0840  177.5010  143.7830 C   0  0  0  0  0  2  0  0  0  0  0  0
  185.8980  177.9430  140.9750 C   0  0  0  0  0  3  0  0  0  0  0  0
  186.5920  177.7930  143.2520 C   0  0  0  0  0  0  0  0  0  0  0  0
  187.9290  177.5810  142.8340 C   0  0  0  0  0  0  0  0  0  0  0  0
  187.2000  177.7100  140.5290 C   0  0  0  0  0  3  0  0  0  0  0  0
  185.6260  177.9820  142.3070 N   0  0  0  0  0  0  0  0  0  0  0  0
  188.2150  177.5370  141.4650 C   0  0  0  0  0  3  0  0  0  0  0  0
  185.8630  176.6970  145.3450 N   0  0  0  0  0  0  0  0  0  0  0  0
  186.1990  177.8370  144.6790 C   0  0  0  0  0  0  0  0  0  0  0  0
  185.7020  179.1120  146.6790 C   0  0  0  0  0  3  0  0  0  0  0  0
  186.1120  179.0700  145.3410 C   0  0  0  0  0  3  0  0  0  0  0  0
  185.3730  177.9290  147.3400 C   0  0  0  0  0  3  0  0  0  0  0  0
  185.4570  176.7180  146.6480 C   0  0  0  0  0  3  0  0  0  0  0  0
  1 24  1  1  0  0  0
  1 11  1  0  0  0  0
  2  5  1  0  0  0  0
  3  2  1  0  0  0  0
  4 14  1  0  0  0  0
  4  9  1  0  0  0  0
  5  7  1  0  0  0  0
  6  8  1  0  0  0  0
  7  9  2  0  0  0  0
  8 11  1  0  0  0  0
  8  5  2  0  0  0  0
  9 13  1  0  0  0  0
 10  6  1  0  0  0  0
 10  3  2  0  0  0  0
 11  4  2  0  0  0  0
 12 10  1  0  0  0  0
 14 15  1  0  0  0  0
 14 18  1  1  0  0  0
 15 16  1  1  0  0  0
 15 17  1  0  0  0  0
 19 18  1  0  0  0  0
 20  1  1  0  0  0  0
 21 22  2  0  0  0  0
 21 20  1  0  0  0  0
 23 21  1  0  0  0  0
 25 29  1  0  0  0  0
 26 32  1  0  0  0  0
 27 26  1  0  0  0  0
 27 24  1  0  0  0  0
 28 25  2  0  0  0  0
 28 30  1  0  0  0  0
 29 26  2  0  0  0  0
 30 27  2  0  0  0  0
 31 36  1  0  0  0  0
 32 34  1  0  0  0  0
 32 31  2  0  0  0  0
 33 35  1  0  0  0  0
 34 33  2  0  0  0  0
 36 35  2  0  0  0  0
M  END
>  <MODEL>
1

>  <REMARK>
 VINA RESULT:      -7.0      0.000      0.000
  Name = 
  9 active torsions:
  status: ('A' for Active; 'I' for Inactive)
    1  A    between atoms: C_2  and  C_31
    2  A    between atoms: C_3  and  O_6
    3  A    between atoms: C_4  and  C_31
    4  A    between atoms: O_6  and  C_22
    5  A    between atoms: C_7  and  C_10
    6  A    between atoms: C_11  and  C_33
    7  A    between atoms: C_13  and  C_31
    8  A    between atoms: C_22  and  C_28
    9  A    between atoms: C_22  and  C_33
                            x       y       z     vdW  Elec       q    Type
                         _______ _______ _______ _____ _____    ______ ____

>  <TORSDO>
F 9

$$$$
=
 OpenBabel11062422263D

 36 39  0  0  1  0  0  0  0  0999 V2000
  191.1260  174.4010  143.7210 C   0  0  1  0  0  3  0  0  0  0  0  0
  195.4480  175.2930  145.9250 N   0  0  0  0  0  2  0  0  0  0  0  0
  196.0830  174.5290  144.9280 N   0  0  0  0  0  0  0  0  0  0  0  0
  191.2340  175.8070  145.8600 C   0  0  0  0  0  0  0  0  0  0  0  0
  194.0270  175.4660  145.9200 C   0  0  0  0  0  0  0  0  0  0  0  0
  193.9790  174.1080  143.9100 N   0  0  0  0  0  2  0  0  0  0  0  0
  193.3960  176.2080  146.9140 C   0  0  0  0  0  3  0  0  0  0  0  0
  193.2830  174.8870  144.8930 C   0  0  0  0  0  0  0  0  0  0  0  0
  192.0120  176.3810  146.8990 C   0  0  0  0  0  0  0  0  0  0  0  0
  195.4050  173.9620  143.9720 C   0  0  0  0  0  0  0  0  0  0  0  0
  191.8870  175.0570  144.8430 C   0  0  0  0  0  0  0  0  0  0  0  0
  196.1100  173.1290  142.9610 C   0  0  0  0  0  1  0  0  0  0  0  0
  191.4170  177.1860  148.0070 C   0  0  0  0  0  1  0  0  0  0  0  0
  189.7330  175.9980  145.7860 C   0  0  1  0  0  3  0  0  0  0  0  0
  188.9540  175.5140  147.0160 C   0  0  1  0  0  3  0  0  0  0  0  0
  187.2940  176.1570  146.9900 Cl  0  0  0  0  0  0  0  0  0  0  0  0
  188.8890  174.1330  147.0200 F   0  0  0  0  0  0  0  0  0  0  0  0
  189.3280  177.3920  145.2970 C   0  0  0  0  0  2  0  0  0  0  0  0
  190.3870  178.0280  144.6520 O   0  0  0  0  0  1  0  0  0  0  0  0
  190.0570  173.6060  144.2250 O   0  0  0  0  0  0  0  0  0  0  0  0
  190.1990  172.2490  144.5180 C   0  0  0  0  0  0  0  0  0  0  0  0
  189.3280  171.6760  145.2210 O   0  0  0  0  0  0  0  0  0  0  0  0
  191.3400  171.4510  143.9820 C   0  0  0  0  0  1  0  0  0  0  0  0
  190.6320  175.4370  142.7100 C   0  0  0  0  0  2  0  0  0  0  0  0
  188.9180  173.7060  139.2030 C   0  0  0  0  0  3  0  0  0  0  0  0
  188.6700  175.1530  141.0830 C   0  0  0  0  0  0  0  0  0  0  0  0
  189.9650  174.7960  141.5330 C   0  0  0  0  0  0  0  0  0  0  0  0
  190.1860  173.3130  139.6320 C   0  0  0  0  0  3  0  0  0  0  0  0
  188.1980  174.6070  139.9250 N   0  0  0  0  0  0  0  0  0  0  0  0
  190.7090  173.8690  140.7960 C   0  0  0  0  0  3  0  0  0  0  0  0
  187.9270  177.4550  141.5980 N   0  0  0  0  0  0  0  0  0  0  0  0
  187.8090  176.1140  141.8100 C   0  0  0  0  0  0  0  0  0  0  0  0
  186.1160  176.5620  143.4850 C   0  0  0  0  0  3  0  0  0  0  0  0
  186.9010  175.6490  142.7720 C   0  0  0  0  0  3  0  0  0  0  0  0
  186.2510  177.9300  143.2410 C   0  0  0  0  0  3  0  0  0  0  0  0
  187.1740  178.3620  142.2850 C   0  0  0  0  0  3  0  0  0  0  0  0
  1 24  1  6  0  0  0
  1 20  1  0  0  0  0
  1 11  1  0  0  0  0
  3  2  1  0  0  0  0
  4  9  1  0  0  0  0
  5  2  1  0  0  0  0
  5  7  1  0  0  0  0
  6 10  1  0  0  0  0
  6  8  1  0  0  0  0
  8  5  2  0  0  0  0
  9  7  2  0  0  0  0
  9 13  1  0  0  0  0
 10  3  2  0  0  0  0
 11  8  1  0  0  0  0
 11  4  2  0  0  0  0
 12 10  1  0  0  0  0
 14 18  1  1  0  0  0
 14  4  1  0  0  0  0
 14 15  1  0  0  0  0
 15 16  1  6  0  0  0
 15 17  1  0  0  0  0
 19 18  1  0  0  0  0
 20 21  1  0  0  0  0
 21 22  2  0  0  0  0
 23 21  1  0  0  0  0
 25 28  2  0  0  0  0
 25 29  1  0  0  0  0
 26 27  1  0  0  0  0
 26 32  1  0  0  0  0
 27 24  1  0  0  0  0
 28 30  1  0  0  0  0
 29 26  2  0  0  0  0
 30 27  2  0  0  0  0
 31 32  2  0  0  0  0
 31 36  1  0  0  0  0
 32 34  1  0  0  0  0
 34 33  2  0  0  0  0
 35 33  1  0  0  0  0
 36 35  2  0  0  0  0
M  END
>  <MODEL>
2

>  <REMARK>
 VINA RESULT:      -7.0      2.202      3.260
  Name = 
  9 active torsions:
  status: ('A' for Active; 'I' for Inactive)
    1  A    between atoms: C_2  and  C_31
    2  A    between atoms: C_3  and  O_6
    3  A    between atoms: C_4  and  C_31
    4  A    between atoms: O_6  and  C_22
    5  A    between atoms: C_7  and  C_10
    6  A    between atoms: C_11  and  C_33
    7  A    between atoms: C_13  and  C_31
    8  A    between atoms: C_22  and  C_28
    9  A    between atoms: C_22  and  C_33
                            x       y       z     vdW  Elec       q    Type
                         _______ _______ _______ _____ _____    ______ ____

>  <TORSDO>
F 9

$$$$
=
 OpenBabel11062422263D

 36 39  0  0  1  0  0  0  0  0999 V2000
  190.7000  176.1570  143.3390 C   0  0  1  0  0  3  0  0  0  0  0  0
  195.2650  176.5440  145.1670 N   0  0  0  0  0  2  0  0  0  0  0  0
  195.7650  176.5110  143.8520 N   0  0  0  0  0  0  0  0  0  0  0  0
  191.0860  176.2840  145.8680 C   0  0  0  0  0  0  0  0  0  0  0  0
  193.8600  176.4480  145.4180 C   0  0  0  0  0  0  0  0  0  0  0  0
  193.5520  176.3060  143.0150 N   0  0  0  0  0  2  0  0  0  0  0  0
  193.3650  176.4640  146.7190 C   0  0  0  0  0  3  0  0  0  0  0  0
  192.9890  176.3490  144.3330 C   0  0  0  0  0  0  0  0  0  0  0  0
  191.9930  176.3790  146.9560 C   0  0  0  0  0  0  0  0  0  0  0  0
  194.9710  176.3980  142.8270 C   0  0  0  0  0  0  0  0  0  0  0  0
  191.5990  176.2760  144.5410 C   0  0  0  0  0  0  0  0  0  0  0  0
  195.5440  176.3260  141.4550 C   0  0  0  0  0  1  0  0  0  0  0  0
  191.5490  176.3970  148.3810 C   0  0  0  0  0  1  0  0  0  0  0  0
  189.5870  176.2240  146.0800 C   0  0  1  0  0  3  0  0  0  0  0  0
  189.0470  174.8590  146.5250 C   0  0  1  0  0  3  0  0  0  0  0  0
  189.9330  173.5480  145.7110 Cl  0  0  0  0  0  0  0  0  0  0  0  0
  189.2050  174.7120  147.8900 F   0  0  0  0  0  0  0  0  0  0  0  0
  189.0460  177.4060  146.8900 C   0  0  0  0  0  2  0  0  0  0  0  0
  187.6530  177.4220  146.8900 O   0  0  0  0  0  1  0  0  0  0  0  0
  190.3670  177.4430  142.8220 O   0  0  0  0  0  0  0  0  0  0  0  0
  189.0660  177.7960  142.4590 C   0  0  0  0  0  0  0  0  0  0  0  0
  188.8850  178.5380  141.4610 O   0  0  0  0  0  0  0  0  0  0  0  0
  187.8810  177.2810  143.2060 C   0  0  0  0  0  1  0  0  0  0  0  0
  191.3260  175.2620  142.2690 C   0  0  0  0  0  2  0  0  0  0  0  0
  189.5300  171.3960  142.5170 C   0  0  0  0  0  3  0  0  0  0  0  0
  191.4860  172.7450  142.7320 C   0  0  0  0  0  0  0  0  0  0  0  0
  190.7560  173.8780  142.2940 C   0  0  0  0  0  0  0  0  0  0  0  0
  188.7890  172.4860  142.0580 C   0  0  0  0  0  3  0  0  0  0  0  0
  190.8420  171.5470  142.8420 N   0  0  0  0  0  0  0  0  0  0  0  0
  189.4070  173.7290  141.9560 C   0  0  0  0  0  3  0  0  0  0  0  0
  193.8850  172.7510  142.1330 N   0  0  0  0  0  0  0  0  0  0  0  0
  192.9200  172.8090  143.0940 C   0  0  0  0  0  0  0  0  0  0  0  0
  194.6550  172.8910  144.7840 C   0  0  0  0  0  3  0  0  0  0  0  0
  193.2970  172.8700  144.4430 C   0  0  0  0  0  3  0  0  0  0  0  0
  195.6220  172.8410  143.7800 C   0  0  0  0  0  3  0  0  0  0  0  0
  195.2130  172.7670  142.4460 C   0  0  0  0  0  3  0  0  0  0  0  0
  1 24  1  6  0  0  0
  1 11  1  0  0  0  0
  2  5  1  0  0  0  0
  3  2  1  0  0  0  0
  4 14  1  0  0  0  0
  4  9  1  0  0  0  0
  5  7  1  0  0  0  0
  6  8  1  0  0  0  0
  7  9  2  0  0  0  0
  8 11  1  0  0  0  0
  8  5  2  0  0  0  0
  9 13  1  0  0  0  0
 10  6  1  0  0  0  0
 10  3  2  0  0  0  0
 11  4  2  0  0  0  0
 12 10  1  0  0  0  0
 14 15  1  0  0  0  0
 14 18  1  1  0  0  0
 15 16  1  6  0  0  0
 15 17  1  0  0  0  0
 19 18  1  0  0  0  0
 20  1  1  0  0  0  0
 21 20  1  0  0  0  0
 21 23  1  0  0  0  0
 22 21  2  0  0  0  0
 24 27  1  0  0  0  0
 25 29  1  0  0  0  0
 26 29  2  0  0  0  0
 26 32  1  0  0  0  0
 27 26  1  0  0  0  0
 28 25  2  0  0  0  0
 30 28  1  0  0  0  0
 30 27  2  0  0  0  0
 31 36  2  0  0  0  0
 31 32  1  0  0  0  0
 32 34  2  0  0  0  0
 34 33  1  0  0  0  0
 35 33  2  0  0  0  0
 36 35  1  0  0  0  0
M  END
>  <MODEL>
3

>  <REMARK>
 VINA RESULT:      -6.9      2.597      5.244
  Name = 
  9 active torsions:
  status: ('A' for Active; 'I' for Inactive)
    1  A    between atoms: C_2  and  C_31
    2  A    between atoms: C_3  and  O_6
    3  A    between atoms: C_4  and  C_31
    4  A    between atoms: O_6  and  C_22
    5  A    between atoms: C_7  and  C_10
    6  A    between atoms: C_11  and  C_33
    7  A    between atoms: C_13  and  C_31
    8  A    between atoms: C_22  and  C_28
    9  A    between atoms: C_22  and  C_33
                            x       y       z     vdW  Elec       q    Type
                         _______ _______ _______ _____ _____    ______ ____

>  <TORSDO>
F 9

$$$$
=
 OpenBabel11062422263D

 36 39  0  0  1  0  0  0  0  0999 V2000
  189.2720  176.2980  143.5360 C   0  0  1  0  0  3  0  0  0  0  0  0
  184.5940  177.8090  143.1290 N   0  0  0  0  0  2  0  0  0  0  0  0
  184.7580  177.8530  141.7320 N   0  0  0  0  0  0  0  0  0  0  0  0
  187.8240  176.6370  145.6230 C   0  0  0  0  0  0  0  0  0  0  0  0
  185.6770  177.4250  143.9820 C   0  0  0  0  0  0  0  0  0  0  0  0
  187.0120  177.1440  141.9750 N   0  0  0  0  0  2  0  0  0  0  0  0
  185.5210  177.3960  145.3640 C   0  0  0  0  0  3  0  0  0  0  0  0
  186.8940  177.0680  143.4020 C   0  0  0  0  0  0  0  0  0  0  0  0
  186.5770  177.0110  146.1890 C   0  0  0  0  0  0  0  0  0  0  0  0
  185.8920  177.5450  141.1720 C   0  0  0  0  0  0  0  0  0  0  0  0
  187.9740  176.6620  144.2080 C   0  0  0  0  0  0  0  0  0  0  0  0
  186.0370  177.6440  139.6950 C   0  0  0  0  0  1  0  0  0  0  0  0
  186.3240  177.0140  147.6600 C   0  0  0  0  0  1  0  0  0  0  0  0
  188.9870  176.1810  146.4800 C   0  0  1  0  0  3  0  0  0  0  0  0
  189.6730  177.2890  147.2890 C   0  0  1  0  0  3  0  0  0  0  0  0
  191.1410  176.6630  148.0770 Cl  0  0  0  0  0  0  0  0  0  0  0  0
  190.0350  178.3290  146.4530 F   0  0  0  0  0  0  0  0  0  0  0  0
  188.6800  174.9150  147.2860 C   0  0  0  0  0  2  0  0  0  0  0  0
  189.4080  173.8260  146.8110 O   0  0  0  0  0  1  0  0  0  0  0  0
  190.2970  177.2300  143.8680 O   0  0  0  0  0  0  0  0  0  0  0  0
  191.6540  176.9480  143.7060 C   0  0  0  0  0  0  0  0  0  0  0  0
  192.1500  176.9530  142.5510 O   0  0  0  0  0  0  0  0  0  0  0  0
  192.5410  176.6790  144.8750 C   0  0  0  0  0  1  0  0  0  0  0  0
  189.6830  174.8630  143.8700 C   0  0  0  0  0  2  0  0  0  0  0  0
  189.7000  172.2740  140.4740 C   0  0  0  0  0  3  0  0  0  0  0  0
  190.8830  173.2060  142.3250 C   0  0  0  0  0  0  0  0  0  0  0  0
  189.7580  174.0040  142.6460 C   0  0  0  0  0  0  0  0  0  0  0  0
  188.5840  173.0670  140.7470 C   0  0  0  0  0  3  0  0  0  0  0  0
  190.8080  172.3570  141.2590 N   0  0  0  0  0  0  0  0  0  0  0  0
  188.6160  173.9260  141.8420 C   0  0  0  0  0  3  0  0  0  0  0  0
  193.2600  173.8240  142.6090 N   0  0  0  0  0  0  0  0  0  0  0  0
  192.1370  173.2380  143.1110 C   0  0  0  0  0  0  0  0  0  0  0  0
  193.3910  172.6070  145.0870 C   0  0  0  0  0  3  0  0  0  0  0  0
  192.1930  172.6080  144.3630 C   0  0  0  0  0  3  0  0  0  0  0  0
  194.5230  173.2230  144.5530 C   0  0  0  0  0  3  0  0  0  0  0  0
  194.4380  173.8300  143.2980 C   0  0  0  0  0  3  0  0  0  0  0  0
  1 20  1  0  0  0  0
  1 24  1  1  0  0  0
  1 11  1  0  0  0  0
  2  5  1  0  0  0  0
  3  2  1  0  0  0  0
  4  9  1  0  0  0  0
  4 14  1  0  0  0  0
  5  7  1  0  0  0  0
  6  8  1  0  0  0  0
  7  9  2  0  0  0  0
  8  5  2  0  0  0  0
  8 11  1  0  0  0  0
  9 13  1  0  0  0  0
 10  3  2  0  0  0  0
 10  6  1  0  0  0  0
 11  4  2  0  0  0  0
 12 10  1  0  0  0  0
 14 18  1  1  0  0  0
 14 15  1  0  0  0  0
 15 17  1  6  0  0  0
 15 16  1  0  0  0  0
 19 18  1  0  0  0  0
 21 20  1  0  0  0  0
 21 23  1  0  0  0  0
 22 21  2  0  0  0  0
 25 28  2  0  0  0  0
 25 29  1  0  0  0  0
 26 27  1  0  0  0  0
 26 32  1  0  0  0  0
 27 24  1  0  0  0  0
 28 30  1  0  0  0  0
 29 26  2  0  0  0  0
 30 27  2  0  0  0  0
 31 32  2  0  0  0  0
 31 36  1  0  0  0  0
 32 34  1  0  0  0  0
 34 33  2  0  0  0  0
 35 33  1  0  0  0  0
 36 35  2  0  0  0  0
M  END
>  <MODEL>
4

>  <REMARK>
 VINA RESULT:      -6.8      2.224      6.484
  Name = 
  9 active torsions:
  status: ('A' for Active; 'I' for Inactive)
    1  A    between atoms: C_2  and  C_31
    2  A    between atoms: C_3  and  O_6
    3  A    between atoms: C_4  and  C_31
    4  A    between atoms: O_6  and  C_22
    5  A    between atoms: C_7  and  C_10
    6  A    between atoms: C_11  and  C_33
    7  A    between atoms: C_13  and  C_31
    8  A    between atoms: C_22  and  C_28
    9  A    between atoms: C_22  and  C_33
                            x       y       z     vdW  Elec       q    Type
                         _______ _______ _______ _____ _____    ______ ____

>  <TORSDO>
F 9

$$$$
=
 OpenBabel11062422263D

 36 39  0  0  1  0  0  0  0  0999 V2000
  190.6420  174.6380  145.0680 C   0  0  1  0  0  3  0  0  0  0  0  0
  190.2120  171.7490  141.0930 N   0  0  0  0  0  2  0  0  0  0  0  0
  191.0660  170.8180  141.7110 N   0  0  0  0  0  0  0  0  0  0  0  0
  189.2120  175.3690  143.0730 C   0  0  0  0  0  0  0  0  0  0  0  0
  189.8740  172.9770  141.7450 C   0  0  0  0  0  0  0  0  0  0  0  0
  191.2620  172.2480  143.5970 N   0  0  0  0  0  2  0  0  0  0  0  0
  189.0420  173.9070  141.1280 C   0  0  0  0  0  3  0  0  0  0  0  0
  190.3850  173.2240  143.0190 C   0  0  0  0  0  0  0  0  0  0  0  0
  188.7090  175.0980  141.7730 C   0  0  0  0  0  0  0  0  0  0  0  0
  191.5710  171.0380  142.8910 C   0  0  0  0  0  0  0  0  0  0  0  0
  190.0550  174.4110  143.7000 C   0  0  0  0  0  0  0  0  0  0  0  0
  192.5030  170.0450  143.4910 C   0  0  0  0  0  1  0  0  0  0  0  0
  187.8160  176.0410  141.0370 C   0  0  0  0  0  1  0  0  0  0  0  0
  188.8490  176.6350  143.8230 C   0  0  1  0  0  3  0  0  0  0  0  0
  189.6160  177.8900  143.3890 C   0  0  1  0  0  3  0  0  0  0  0  0
  191.2470  177.8950  144.1010 Cl  0  0  0  0  0  0  0  0  0  0  0  0
  189.7390  177.9160  142.0130 F   0  0  0  0  0  0  0  0  0  0  0  0
  187.3370  176.8400  143.9580 C   0  0  0  0  0  2  0  0  0  0  0  0
  187.0010  178.1890  143.8590 O   0  0  0  0  0  1  0  0  0  0  0  0
  189.7610  174.1720  146.0850 O   0  0  0  0  0  0  0  0  0  0  0  0
  189.3250  174.9820  147.1350 C   0  0  0  0  0  0  0  0  0  0  0  0
  188.5660  174.4970  148.0130 O   0  0  0  0  0  0  0  0  0  0  0  0
  189.7700  176.4000  147.2630 C   0  0  0  0  0  1  0  0  0  0  0  0
  192.0280  174.0030  145.1870 C   0  0  0  0  0  2  0  0  0  0  0  0
  194.9410  177.1180  145.3880 C   0  0  0  0  0  3  0  0  0  0  0  0
  193.9190  175.3710  144.1250 C   0  0  0  0  0  0  0  0  0  0  0  0
  193.1130  175.0330  145.2400 C   0  0  0  0  0  0  0  0  0  0  0  0
  194.1820  176.7930  146.5130 C   0  0  0  0  0  3  0  0  0  0  0  0
  194.7940  176.4130  144.2340 N   0  0  0  0  0  0  0  0  0  0  0  0
  193.2610  175.7520  146.4300 C   0  0  0  0  0  3  0  0  0  0  0  0
  194.5180  173.4860  142.6410 N   0  0  0  0  0  0  0  0  0  0  0  0
  193.8390  174.6520  142.8330 C   0  0  0  0  0  0  0  0  0  0  0  0
  193.0660  174.5410  140.5390 C   0  0  0  0  0  3  0  0  0  0  0  0
  193.1080  175.2030  141.7720 C   0  0  0  0  0  3  0  0  0  0  0  0
  193.7620  173.3430  140.3730 C   0  0  0  0  0  3  0  0  0  0  0  0
  194.4930  172.8270  141.4460 C   0  0  0  0  0  3  0  0  0  0  0  0
  1 24  1  6  0  0  0
  1 20  1  0  0  0  0
  2  3  1  0  0  0  0
  2  5  1  0  0  0  0
  3 10  2  0  0  0  0
  4 11  1  0  0  0  0
  4 14  1  0  0  0  0
  5  8  1  0  0  0  0
  7  5  2  0  0  0  0
  7  9  1  0  0  0  0
  8  6  1  0  0  0  0
  8 11  2  0  0  0  0
  9  4  2  0  0  0  0
 10 12  1  0  0  0  0
 10  6  1  0  0  0  0
 11  1  1  0  0  0  0
 13  9  1  0  0  0  0
 14 18  1  6  0  0  0
 15 17  1  6  0  0  0
 15 14  1  0  0  0  0
 15 16  1  0  0  0  0
 19 18  1  0  0  0  0
 20 21  1  0  0  0  0
 21 23  1  0  0  0  0
 21 22  2  0  0  0  0
 24 27  1  0  0  0  0
 25 28  1  0  0  0  0
 26 29  1  0  0  0  0
 26 27  2  0  0  0  0
 27 30  1  0  0  0  0
 29 25  2  0  0  0  0
 30 28  2  0  0  0  0
 31 32  1  0  0  0  0
 32 26  1  0  0  0  0
 33 34  1  0  0  0  0
 34 32  2  0  0  0  0
 35 33  2  0  0  0  0
 35 36  1  0  0  0  0
 36 31  2  0  0  0  0
M  END
>  <MODEL>
5

>  <REMARK>
 VINA RESULT:      -6.5      3.058      6.952
  Name = 
  9 active torsions:
  status: ('A' for Active; 'I' for Inactive)
    1  A    between atoms: C_2  and  C_31
    2  A    between atoms: C_3  and  O_6
    3  A    between atoms: C_4  and  C_31
    4  A    between atoms: O_6  and  C_22
    5  A    between atoms: C_7  and  C_10
    6  A    between atoms: C_11  and  C_33
    7  A    between atoms: C_13  and  C_31
    8  A    between atoms: C_22  and  C_28
    9  A    between atoms: C_22  and  C_33
                            x       y       z     vdW  Elec       q    Type
                         _______ _______ _______ _____ _____    ______ ____

>  <TORSDO>
F 9

$$$$
=
 OpenBabel11062422263D

 36 39  0  0  1  0  0  0  0  0999 V2000
  190.7660  174.4110  143.6260 C   0  0  1  0  0  3  0  0  0  0  0  0
  191.1510  177.2020  147.6750 N   0  0  0  0  0  2  0  0  0  0  0  0
  189.7590  177.4040  147.6350 N   0  0  0  0  0  0  0  0  0  0  0  0
  193.0490  174.8280  144.7110 C   0  0  0  0  0  0  0  0  0  0  0  0
  191.8050  176.4120  146.6770 C   0  0  0  0  0  0  0  0  0  0  0  0
  189.6210  176.0700  145.6750 N   0  0  0  0  0  2  0  0  0  0  0  0
  193.1830  176.2250  146.7060 C   0  0  0  0  0  3  0  0  0  0  0  0
  191.0340  175.8210  145.6770 C   0  0  0  0  0  0  0  0  0  0  0  0
  193.8130  175.4460  145.7360 C   0  0  0  0  0  0  0  0  0  0  0  0
  189.0230  176.8790  146.6980 C   0  0  0  0  0  0  0  0  0  0  0  0
  191.6390  175.0180  144.6930 C   0  0  0  0  0  0  0  0  0  0  0  0
  187.5610  177.1510  146.6690 C   0  0  0  0  0  1  0  0  0  0  0  0
  195.2960  175.3020  145.8390 C   0  0  0  0  0  1  0  0  0  0  0  0
  193.6880  173.9470  143.6580 C   0  0  1  0  0  3  0  0  0  0  0  0
  194.4350  174.6970  142.5480 C   0  0  1  0  0  3  0  0  0  0  0  0
  193.7630  176.3340  142.3470 Cl  0  0  0  0  0  0  0  0  0  0  0  0
  195.7740  174.8110  142.8720 F   0  0  0  0  0  0  0  0  0  0  0  0
  194.4680  172.7690  144.2510 C   0  0  0  0  0  2  0  0  0  0  0  0
  193.6580  171.9940  145.0790 O   0  0  0  0  0  1  0  0  0  0  0  0
  189.7180  173.6380  144.2030 O   0  0  0  0  0  0  0  0  0  0  0  0
  189.8010  172.2530  144.3580 C   0  0  0  0  0  0  0  0  0  0  0  0
  189.3150  171.7180  145.3870 O   0  0  0  0  0  0  0  0  0  0  0  0
  190.4170  171.3860  143.3110 C   0  0  0  0  0  1  0  0  0  0  0  0
  190.2220  175.4840  142.6820 C   0  0  0  0  0  2  0  0  0  0  0  0
  188.5720  173.8750  139.0880 C   0  0  0  0  0  3  0  0  0  0  0  0
  188.3110  175.3010  140.9820 C   0  0  0  0  0  0  0  0  0  0  0  0
  189.5740  174.8880  141.4710 C   0  0  0  0  0  0  0  0  0  0  0  0
  189.8080  173.4270  139.5550 C   0  0  0  0  0  3  0  0  0  0  0  0
  187.8610  174.7920  139.7990 N   0  0  0  0  0  0  0  0  0  0  0  0
  190.3090  173.9440  140.7460 C   0  0  0  0  0  3  0  0  0  0  0  0
  187.4780  177.6010  141.3470 N   0  0  0  0  0  0  0  0  0  0  0  0
  187.4610  176.2830  141.6940 C   0  0  0  0  0  0  0  0  0  0  0  0
  185.8990  176.8060  143.4710 C   0  0  0  0  0  3  0  0  0  0  0  0
  186.6720  175.8680  142.7760 C   0  0  0  0  0  3  0  0  0  0  0  0
  185.9280  178.1470  143.0890 C   0  0  0  0  0  3  0  0  0  0  0  0
  186.7350  178.5310  142.0150 C   0  0  0  0  0  3  0  0  0  0  0  0
  1 24  1  1  0  0  0
  1 20  1  0  0  0  0
  1 11  1  0  0  0  0
  3  2  1  0  0  0  0
  4  9  1  0  0  0  0
  5  7  1  0  0  0  0
  5  2  1  0  0  0  0
  6  8  1  0  0  0  0
  6 10  1  0  0  0  0
  8  5  2  0  0  0  0
  9 13  1  0  0  0  0
  9  7  2  0  0  0  0
 10  3  2  0  0  0  0
 11  4  2  0  0  0  0
 11  8  1  0  0  0  0
 12 10  1  0  0  0  0
 14 18  1  1  0  0  0
 14  4  1  0  0  0  0
 15 16  1  1  0  0  0
 15 17  1  0  0  0  0
 15 14  1  0  0  0  0
 18 19  1  0  0  0  0
 20 21  1  0  0  0  0
 21 22  2  0  0  0  0
 23 21  1  0  0  0  0
 25 28  2  0  0  0  0
 25 29  1  0  0  0  0
 26 27  1  0  0  0  0
 26 32  1  0  0  0  0
 27 24  1  0  0  0  0
 28 30  1  0  0  0  0
 29 26  2  0  0  0  0
 30 27  2  0  0  0  0
 31 32  2  0  0  0  0
 31 36  1  0  0  0  0
 32 34  1  0  0  0  0
 34 33  2  0  0  0  0
 35 33  1  0  0  0  0
 36 35  2  0  0  0  0
M  END
>  <MODEL>
6

>  <REMARK>
 VINA RESULT:      -6.4      2.991      4.888
  Name = 
  9 active torsions:
  status: ('A' for Active; 'I' for Inactive)
    1  A    between atoms: C_2  and  C_31
    2  A    between atoms: C_3  and  O_6
    3  A    between atoms: C_4  and  C_31
    4  A    between atoms: O_6  and  C_22
    5  A    between atoms: C_7  and  C_10
    6  A    between atoms: C_11  and  C_33
    7  A    between atoms: C_13  and  C_31
    8  A    between atoms: C_22  and  C_28
    9  A    between atoms: C_22  and  C_33
                            x       y       z     vdW  Elec       q    Type
                         _______ _______ _______ _____ _____    ______ ____

>  <TORSDO>
F 9

$$$$
=
 OpenBabel11062422263D

 36 39  0  0  1  0  0  0  0  0999 V2000
  193.2080  174.9440  142.2240 C   0  0  1  0  0  3  0  0  0  0  0  0
  188.9530  172.5210  142.8200 N   0  0  0  0  0  2  0  0  0  0  0  0
  188.2830  173.6060  142.2260 N   0  0  0  0  0  0  0  0  0  0  0  0
  193.1670  172.6330  143.3290 C   0  0  0  0  0  0  0  0  0  0  0  0
  190.3710  172.5500  143.0070 C   0  0  0  0  0  0  0  0  0  0  0  0
  190.3510  174.7470  141.9760 N   0  0  0  0  0  2  0  0  0  0  0  0
  191.0340  171.4840  143.6090 C   0  0  0  0  0  3  0  0  0  0  0  0
  191.0850  173.6630  142.5620 C   0  0  0  0  0  0  0  0  0  0  0  0
  192.4180  171.5150  143.7780 C   0  0  0  0  0  0  0  0  0  0  0  0
  188.9270  174.6640  141.8240 C   0  0  0  0  0  0  0  0  0  0  0  0
  192.4840  173.7160  142.7070 C   0  0  0  0  0  0  0  0  0  0  0  0
  188.1760  175.8070  141.2380 C   0  0  0  0  0  1  0  0  0  0  0  0
  193.0450  170.3320  144.4390 C   0  0  0  0  0  1  0  0  0  0  0  0
  194.6750  172.6930  143.4630 C   0  0  1  0  0  3  0  0  0  0  0  0
  195.1990  172.7130  144.9040 C   0  0  1  0  0  3  0  0  0  0  0  0
  196.7590  173.5680  144.9840 Cl  0  0  0  0  0  0  0  0  0  0  0  0
  194.2990  173.3680  145.7250 F   0  0  0  0  0  0  0  0  0  0  0  0
  195.3990  171.7020  142.5470 C   0  0  0  0  0  2  0  0  0  0  0  0
  194.9760  171.8350  141.2260 O   0  0  0  0  0  1  0  0  0  0  0  0
  193.2430  174.9890  140.8000 O   0  0  0  0  0  0  0  0  0  0  0  0
  194.4180  175.2110  140.0810 C   0  0  0  0  0  0  0  0  0  0  0  0
  194.3560  175.3830  138.8370 O   0  0  0  0  0  0  0  0  0  0  0  0
  195.7450  175.2880  140.7590 C   0  0  0  0  0  1  0  0  0  0  0  0
  192.5950  176.2150  142.8140 C   0  0  0  0  0  2  0  0  0  0  0  0
  194.0050  176.6620  146.8200 C   0  0  0  0  0  3  0  0  0  0  0  0
  192.1540  176.5490  145.3190 C   0  0  0  0  0  0  0  0  0  0  0  0
  193.0460  176.4520  144.2220 C   0  0  0  0  0  0  0  0  0  0  0  0
  194.9100  176.5960  145.7600 C   0  0  0  0  0  3  0  0  0  0  0  0
  192.6660  176.6350  146.5810 N   0  0  0  0  0  0  0  0  0  0  0  0
  194.4240  176.4820  144.4610 C   0  0  0  0  0  3  0  0  0  0  0  0
  190.0290  177.6370  144.6770 N   0  0  0  0  0  0  0  0  0  0  0  0
  190.6830  176.5410  145.1550 C   0  0  0  0  0  0  0  0  0  0  0  0
  188.5480  175.4290  145.4300 C   0  0  0  0  0  3  0  0  0  0  0  0
  189.9420  175.4180  145.5500 C   0  0  0  0  0  3  0  0  0  0  0  0
  187.9040  176.5610  144.9290 C   0  0  0  0  0  3  0  0  0  0  0  0
  188.6700  177.6690  144.5570 C   0  0  0  0  0  3  0  0  0  0  0  0
  1 11  1  0  0  0  0
  1 24  1  6  0  0  0
  2  5  1  0  0  0  0
  3  2  1  0  0  0  0
  4 14  1  0  0  0  0
  4  9  1  0  0  0  0
  5  7  1  0  0  0  0
  6  8  1  0  0  0  0
  7  9  2  0  0  0  0
  8 11  1  0  0  0  0
  8  5  2  0  0  0  0
  9 13  1  0  0  0  0
 10  6  1  0  0  0  0
 10  3  2  0  0  0  0
 11  4  2  0  0  0  0
 12 10  1  0  0  0  0
 14 18  1  6  0  0  0
 14 15  1  0  0  0  0
 15 16  1  6  0  0  0
 15 17  1  0  0  0  0
 19 18  1  0  0  0  0
 20  1  1  0  0  0  0
 21 23  1  0  0  0  0
 21 20  1  0  0  0  0
 22 21  2  0  0  0  0
 24 27  1  0  0  0  0
 26 29  2  0  0  0  0
 27 30  2  0  0  0  0
 27 26  1  0  0  0  0
 28 25  2  0  0  0  0
 29 25  1  0  0  0  0
 30 28  1  0  0  0  0
 31 32  1  0  0  0  0
 32 26  1  0  0  0  0
 32 34  2  0  0  0  0
 33 34  1  0  0  0  0
 35 33  2  0  0  0  0
 36 31  2  0  0  0  0
 36 35  1  0  0  0  0
M  END
>  <MODEL>
7

>  <REMARK>
 VINA RESULT:      -6.4      3.372      6.232
  Name = 
  9 active torsions:
  status: ('A' for Active; 'I' for Inactive)
    1  A    between atoms: C_2  and  C_31
    2  A    between atoms: C_3  and  O_6
    3  A    between atoms: C_4  and  C_31
    4  A    between atoms: O_6  and  C_22
    5  A    between atoms: C_7  and  C_10
    6  A    between atoms: C_11  and  C_33
    7  A    between atoms: C_13  and  C_31
    8  A    between atoms: C_22  and  C_28
    9  A    between atoms: C_22  and  C_33
                            x       y       z     vdW  Elec       q    Type
                         _______ _______ _______ _____ _____    ______ ____

>  <TORSDO>
F 9

$$$$
=
 OpenBabel11062422263D

 36 39  0  0  1  0  0  0  0  0999 V2000
  189.5070  175.1460  143.1490 C   0  0  1  0  0  3  0  0  0  0  0  0
  185.7550  177.8100  141.3700 N   0  0  0  0  0  2  0  0  0  0  0  0
  186.0260  177.2870  140.0920 N   0  0  0  0  0  0  0  0  0  0  0  0
  188.1380  176.6660  144.6920 C   0  0  0  0  0  0  0  0  0  0  0  0
  186.5570  177.4400  142.4960 C   0  0  0  0  0  0  0  0  0  0  0  0
  187.8360  176.0370  140.9860 N   0  0  0  0  0  2  0  0  0  0  0  0
  186.3010  177.9690  143.7580 C   0  0  0  0  0  3  0  0  0  0  0  0
  187.5960  176.5280  142.3120 C   0  0  0  0  0  0  0  0  0  0  0  0
  187.0790  177.5970  144.8540 C   0  0  0  0  0  0  0  0  0  0  0  0
  187.0040  176.4510  139.8930 C   0  0  0  0  0  0  0  0  0  0  0  0
  188.3890  176.1230  143.4010 C   0  0  0  0  0  0  0  0  0  0  0  0
  187.2810  175.9530  138.5190 C   0  0  0  0  0  1  0  0  0  0  0  0
  186.7390  178.2170  146.1680 C   0  0  0  0  0  1  0  0  0  0  0  0
  188.9870  176.2090  145.8610 C   0  0  1  0  0  3  0  0  0  0  0  0
  190.1020  177.1780  146.2730 C   0  0  1  0  0  3  0  0  0  0  0  0
  190.4970  178.2750  144.9280 Cl  0  0  0  0  0  0  0  0  0  0  0  0
  189.6920  177.9380  147.3520 F   0  0  0  0  0  0  0  0  0  0  0  0
  188.1580  175.6730  147.0330 C   0  0  0  0  0  2  0  0  0  0  0  0
  188.7980  174.6030  147.6560 O   0  0  0  0  0  1  0  0  0  0  0  0
  189.0270  173.9830  142.4800 O   0  0  0  0  0  0  0  0  0  0  0  0
  189.2360  172.6920  142.9690 C   0  0  0  0  0  0  0  0  0  0  0  0
  189.0630  171.7100  142.2050 O   0  0  0  0  0  0  0  0  0  0  0  0
  189.7010  172.4530  144.3660 C   0  0  0  0  0  1  0  0  0  0  0  0
  190.6540  175.8060  142.3820 C   0  0  0  0  0  2  0  0  0  0  0  0
  193.4410  172.7920  141.2090 C   0  0  0  0  0  3  0  0  0  0  0  0
  192.8080  174.4720  142.7790 C   0  0  0  0  0  0  0  0  0  0  0  0
  191.6960  174.8130  141.9700 C   0  0  0  0  0  0  0  0  0  0  0  0
  192.3710  173.1210  140.3760 C   0  0  0  0  0  3  0  0  0  0  0  0
  193.6330  173.4620  142.3770 N   0  0  0  0  0  0  0  0  0  0  0  0
  191.4950  174.1290  140.7670 C   0  0  0  0  0  3  0  0  0  0  0  0
  193.7690  176.3440  144.0770 N   0  0  0  0  0  0  0  0  0  0  0  0
  193.1040  175.1550  144.0590 C   0  0  0  0  0  0  0  0  0  0  0  0
  193.0690  175.1760  146.4820 C   0  0  0  0  0  3  0  0  0  0  0  0
  192.7530  174.5470  145.2730 C   0  0  0  0  0  3  0  0  0  0  0  0
  193.7420  176.3990  146.4710 C   0  0  0  0  0  3  0  0  0  0  0  0
  194.0900  176.9720  145.2460 C   0  0  0  0  0  3  0  0  0  0  0  0
  1 24  1  6  0  0  0
  1 11  1  0  0  0  0
  2  5  1  0  0  0  0
  3  2  1  0  0  0  0
  4  9  1  0  0  0  0
  4 14  1  0  0  0  0
  5  7  1  0  0  0  0
  6  8  1  0  0  0  0
  7  9  2  0  0  0  0
  8  5  2  0  0  0  0
  8 11  1  0  0  0  0
  9 13  1  0  0  0  0
 10  3  2  0  0  0  0
 10  6  1  0  0  0  0
 11  4  2  0  0  0  0
 12 10  1  0  0  0  0
 14 15  1  0  0  0  0
 14 18  1  1  0  0  0
 15 16  1  6  0  0  0
 15 17  1  0  0  0  0
 18 19  1  0  0  0  0
 20 21  1  0  0  0  0
 20  1  1  0  0  0  0
 21 23  1  0  0  0  0
 22 21  2  0  0  0  0
 25 29  1  0  0  0  0
 26 32  1  0  0  0  0
 27 24  1  0  0  0  0
 27 26  1  0  0  0  0
 28 30  1  0  0  0  0
 28 25  2  0  0  0  0
 29 26  2  0  0  0  0
 30 27  2  0  0  0  0
 31 36  1  0  0  0  0
 32 31  2  0  0  0  0
 32 34  1  0  0  0  0
 34 33  2  0  0  0  0
 35 33  1  0  0  0  0
 36 35  2  0  0  0  0
M  END
>  <MODEL>
8

>  <REMARK>
 VINA RESULT:      -6.4      2.187      6.167
  Name = 
  9 active torsions:
  status: ('A' for Active; 'I' for Inactive)
    1  A    between atoms: C_2  and  C_31
    2  A    between atoms: C_3  and  O_6
    3  A    between atoms: C_4  and  C_31
    4  A    between atoms: O_6  and  C_22
    5  A    between atoms: C_7  and  C_10
    6  A    between atoms: C_11  and  C_33
    7  A    between atoms: C_13  and  C_31
    8  A    between atoms: C_22  and  C_28
    9  A    between atoms: C_22  and  C_33
                            x       y       z     vdW  Elec       q    Type
                         _______ _______ _______ _____ _____    ______ ____

>  <TORSDO>
F 9

$$$$
=
 OpenBabel11062422263D

 36 39  0  0  1  0  0  0  0  0999 V2000
  191.9450  172.5470  143.6650 C   0  0  1  0  0  3  0  0  0  0  0  0
  193.6680  176.7300  145.6300 N   0  0  0  0  0  2  0  0  0  0  0  0
  192.8480  176.5090  146.7520 N   0  0  0  0  0  0  0  0  0  0  0  0
  193.6530  173.9760  142.3990 C   0  0  0  0  0  0  0  0  0  0  0  0
  193.6650  175.8150  144.5300 C   0  0  0  0  0  0  0  0  0  0  0  0
  192.0300  174.5120  145.7600 N   0  0  0  0  0  2  0  0  0  0  0  0
  194.4640  176.0410  143.4120 C   0  0  0  0  0  3  0  0  0  0  0  0
  192.8550  174.6820  144.6000 C   0  0  0  0  0  0  0  0  0  0  0  0
  194.4640  175.1400  142.3480 C   0  0  0  0  0  0  0  0  0  0  0  0
  192.0680  175.4690  146.8280 C   0  0  0  0  0  0  0  0  0  0  0  0
  192.8460  173.7480  143.5480 C   0  0  0  0  0  0  0  0  0  0  0  0
  191.1870  175.2930  148.0140 C   0  0  0  0  0  1  0  0  0  0  0  0
  195.3460  175.4630  141.1870 C   0  0  0  0  0  1  0  0  0  0  0  0
  193.6490  172.9550  141.2800 C   0  0  1  0  0  3  0  0  0  0  0  0
  192.9290  173.3960  140.0000 C   0  0  1  0  0  3  0  0  0  0  0  0
  192.2160  171.9890  139.1740 Cl  0  0  0  0  0  0  0  0  0  0  0  0
  191.9140  174.2820  140.3100 F   0  0  0  0  0  0  0  0  0  0  0  0
  195.0220  172.3210  141.0390 C   0  0  0  0  0  2  0  0  0  0  0  0
  195.5490  171.7970  142.2180 O   0  0  0  0  0  1  0  0  0  0  0  0
  192.4480  171.6240  144.6270 O   0  0  0  0  0  0  0  0  0  0  0  0
  193.0670  170.4250  144.2700 C   0  0  0  0  0  0  0  0  0  0  0  0
  192.6310  169.7750  143.2870 O   0  0  0  0  0  0  0  0  0  0  0  0
  194.2630  169.9160  145.0050 C   0  0  0  0  0  1  0  0  0  0  0  0
  190.5080  172.9630  143.9780 C   0  0  0  0  0  2  0  0  0  0  0  0
  188.5660  173.9860  140.3150 C   0  0  0  0  0  3  0  0  0  0  0  0
  189.3370  174.6720  142.4650 C   0  0  0  0  0  0  0  0  0  0  0  0
  189.7540  173.3470  142.7420 C   0  0  0  0  0  0  0  0  0  0  0  0
  188.9400  172.6650  140.5660 C   0  0  0  0  0  3  0  0  0  0  0  0
  188.7720  174.9480  141.2550 N   0  0  0  0  0  0  0  0  0  0  0  0
  189.5430  172.3520  141.7810 C   0  0  0  0  0  3  0  0  0  0  0  0
  188.7470  175.8450  144.5600 N   0  0  0  0  0  0  0  0  0  0  0  0
  189.5070  175.7810  143.4310 C   0  0  0  0  0  0  0  0  0  0  0  0
  190.5470  177.8800  144.0540 C   0  0  0  0  0  3  0  0  0  0  0  0
  190.4170  176.8130  143.1570 C   0  0  0  0  0  3  0  0  0  0  0  0
  189.7630  177.9150  145.2070 C   0  0  0  0  0  3  0  0  0  0  0  0
  188.8560  176.8790  145.4440 C   0  0  0  0  0  3  0  0  0  0  0  0
  1 24  1  1  0  0  0
  1 20  1  0  0  0  0
  2  3  1  0  0  0  0
  3 10  2  0  0  0  0
  4 11  1  0  0  0  0
  5  8  1  0  0  0  0
  5  2  1  0  0  0  0
  6 10  1  0  0  0  0
  7  5  2  0  0  0  0
  8  6  1  0  0  0  0
  9  4  2  0  0  0  0
  9  7  1  0  0  0  0
 10 12  1  0  0  0  0
 11  1  1  0  0  0  0
 11  8  2  0  0  0  0
 13  9  1  0  0  0  0
 14 18  1  6  0  0  0
 14  4  1  0  0  0  0
 15 16  1  1  0  0  0
 15 17  1  0  0  0  0
 15 14  1  0  0  0  0
 18 19  1  0  0  0  0
 21 20  1  0  0  0  0
 21 23  1  0  0  0  0
 22 21  2  0  0  0  0
 25 28  2  0  0  0  0
 25 29  1  0  0  0  0
 26 27  1  0  0  0  0
 26 32  1  0  0  0  0
 27 24  1  0  0  0  0
 28 30  1  0  0  0  0
 29 26  2  0  0  0  0
 30 27  2  0  0  0  0
 31 36  1  0  0  0  0
 32 31  2  0  0  0  0
 33 35  1  0  0  0  0
 34 32  1  0  0  0  0
 34 33  2  0  0  0  0
 35 36  2  0  0  0  0
M  END
>  <MODEL>
9

>  <REMARK>
 VINA RESULT:      -6.3      3.441      5.625
  Name = 
  9 active torsions:
  status: ('A' for Active; 'I' for Inactive)
    1  A    between atoms: C_2  and  C_31
    2  A    between atoms: C_3  and  O_6
    3  A    between atoms: C_4  and  C_31
    4  A    between atoms: O_6  and  C_22
    5  A    between atoms: C_7  and  C_10
    6  A    between atoms: C_11  and  C_33
    7  A    between atoms: C_13  and  C_31
    8  A    between atoms: C_22  and  C_28
    9  A    between atoms: C_22  and  C_33
                            x       y       z     vdW  Elec       q    Type
                         _______ _______ _______ _____ _____    ______ ____

>  <TORSDO>
F 9

$$$$
