=
 OpenBabel11062419303D

 40 44  0  0  1  0  0  0  0  0999 V2000
  186.9060  177.9320  140.0250 O   0  0  0  0  0  0  0  0  0  0  0  0
  187.7140  175.3040  142.3320 C   0  0  2  0  0  3  0  0  0  0  0  0
  188.3350  174.7320  140.1140 N   0  0  0  0  0  2  0  0  0  0  0  0
  188.3020  173.9510  142.3620 N   0  0  1  0  0  0  0  0  0  0  0  0
  186.4170  175.2590  142.8480 O   0  0  0  0  0  1  0  0  0  0  0  0
  190.3400  173.7400  141.0380 C   0  0  0  0  0  2  0  0  0  0  0  0
  187.6730  175.6770  140.9110 C   0  0  0  0  0  0  0  0  0  0  0  0
  187.2820  176.8360  140.4570 C   0  0  0  0  0  0  0  0  0  0  0  0
  188.8210  173.6900  140.9990 C   0  0  2  0  0  3  0  0  0  0  0  0
  190.6990  174.2010  142.4290 C   0  0  1  0  0  3  0  0  0  0  0  0
  189.4690  173.8710  143.2590 C   0  0  1  0  0  3  0  0  0  0  0  0
  189.8430  176.8590  145.7570 C   0  0  2  0  0  3  0  0  0  0  0  0
  189.6090  174.6900  147.0400 C   0  0  0  0  0  2  0  0  0  0  0  0
  189.8670  173.9120  145.7540 C   0  0  0  0  0  2  0  0  0  0  0  0
  189.3300  174.6950  144.5560 C   0  0  1  0  0  3  0  0  0  0  0  0
  190.0550  176.0420  144.4740 C   0  0  0  0  0  2  0  0  0  0  0  0
  190.2990  176.0520  146.9810 C   0  0  0  0  0  2  0  0  0  0  0  0
  185.8990  178.4500  146.3400 C   0  0  0  0  0  3  0  0  0  0  0  0
  187.8710  177.3850  147.1640 N   0  0  0  0  0  0  0  0  0  0  0  0
  186.6280  177.8890  147.3900 C   0  0  0  0  0  3  0  0  0  0  0  0
  186.4580  178.4940  145.0580 C   0  0  0  0  0  0  0  0  0  0  0  0
  188.4430  177.4010  145.9270 C   0  0  0  0  0  0  0  0  0  0  0  0
  187.7390  177.9710  144.8540 C   0  0  0  0  0  3  0  0  0  0  0  0
  185.7000  179.0790  143.9410 C   0  0  0  0  0  0  0  0  0  0  0  0
  185.4020  180.3060  143.9490 O   0  0  0  0  0  0  0  0  0  0  0  0
  183.9530  178.1910  142.4440 C   0  0  0  0  0  1  0  0  0  0  0  0
  185.3050  178.2650  142.8740 O   0  0  0  0  0  0  0  0  0  0  0  0
  191.9240  173.4810  142.9120 C   0  0  0  0  0  0  0  0  0  0  0  0
  193.2170  174.0790  142.7940 N   0  0  0  0  0  2  0  0  0  0  0  0
  191.8200  172.3400  143.4350 O   0  0  0  0  0  0  0  0  0  0  0  0
  193.4380  175.3970  142.1990 C   0  0  1  0  0  3  0  0  0  0  0  0
  195.5720  176.3230  142.9140 O   0  0  0  0  0  0  0  0  0  0  0  0
  193.9070  175.9480  144.5950 C   0  0  2  0  0  3  0  0  0  0  0  0
  196.1830  175.7400  144.0370 C   0  0  0  0  0  2  0  0  0  0  0  0
  195.3470  174.7140  146.0030 O   0  0  0  0  0  1  0  0  0  0  0  0
  194.1830  176.3290  143.1570 C   0  0  2  0  0  3  0  0  0  0  0  0
  193.1750  176.9450  145.2110 F   0  0  0  0  0  0  0  0  0  0  0  0
  195.2600  175.8610  145.2190 C   0  0  2  0  0  3  0  0  0  0  0  0
  194.1300  175.2920  140.8380 C   0  0  0  0  0  2  0  0  0  0  0  0
  194.6790  173.9020  140.5650 C   0  0  0  0  0  1  0  0  0  0  0  0
  1  8  2  0  0  0  0
  2  4  1  0  0  0  0
  2  5  1  6  0  0  0
  3  7  1  0  0  0  0
  3  9  1  0  0  0  0
  4 11  1  0  0  0  0
  6 10  1  0  0  0  0
  7  2  1  0  0  0  0
  8  7  2  0  0  0  0
  9  6  1  0  0  0  0
  9  4  1  0  0  0  0
 10 28  1  0  0  0  0
 10 11  1  0  0  0  0
 11 15  1  0  0  0  0
 12 22  1  0  0  0  0
 12 17  1  0  0  0  0
 14 13  1  0  0  0  0
 15 14  1  0  0  0  0
 16 15  1  0  0  0  0
 16 12  1  0  0  0  0
 17 13  1  0  0  0  0
 18 20  1  0  0  0  0
 19 20  2  0  0  0  0
 21 18  2  0  0  0  0
 22 19  1  0  0  0  0
 23 21  1  0  0  0  0
 23 22  2  0  0  0  0
 24 25  2  0  0  0  0
 24 21  1  0  0  0  0
 26 27  1  0  0  0  0
 27 24  1  0  0  0  0
 28 30  2  0  0  0  0
 29 28  1  0  0  0  0
 31 29  1  0  0  0  0
 31 36  1  0  0  0  0
 32 36  1  0  0  0  0
 32 34  1  0  0  0  0
 33 37  1  0  0  0  0
 33 38  1  0  0  0  0
 34 38  1  0  0  0  0
 36 33  1  0  0  0  0
 38 35  1  0  0  0  0
 39 31  1  0  0  0  0
 40 39  1  0  0  0  0
M  END
>  <MODEL>
1

>  <REMARK>
 VINA RESULT:      -8.2      0.000      0.000
  Name = 
  8 active torsions:
  status: ('A' for Active; 'I' for Inactive)
    1  A    between atoms: C_2  and  C_19
    2  A    between atoms: C_4  and  C_35
    3  A    between atoms: C_12  and  C_28
    4  A    between atoms: O_13  and  C_28
    5  A    between atoms: C_14  and  C_18
    6  A    between atoms: C_14  and  C_29
    7  A    between atoms: C_14  and  N_30
    8  A    between atoms: C_27  and  C_38
                            x       y       z     vdW  Elec       q    Type
                         _______ _______ _______ _____ _____    ______ ____

>  <TORSDO>
F 8

$$$$
=
 OpenBabel11062419303D

 40 44  0  0  1  0  0  0  0  0999 V2000
  187.8980  174.3940  138.1060 O   0  0  0  0  0  0  0  0  0  0  0  0
  188.5910  173.1130  141.3870 C   0  0  2  0  0  3  0  0  0  0  0  0
  189.7890  171.9220  139.7200 N   0  0  0  0  0  2  0  0  0  0  0  0
  189.3760  172.0610  142.0590 N   0  0  1  0  0  0  0  0  0  0  0  0
  187.2360  172.9470  141.6870 O   0  0  0  0  0  1  0  0  0  0  0  0
  191.6670  171.8770  141.2440 C   0  0  0  0  0  2  0  0  0  0  0  0
  188.8120  172.9010  139.9490 C   0  0  0  0  0  0  0  0  0  0  0  0
  188.3450  173.6700  139.0040 C   0  0  0  0  0  0  0  0  0  0  0  0
  190.2280  171.4430  141.0170 C   0  0  2  0  0  3  0  0  0  0  0  0
  191.6160  172.9000  142.3520 C   0  0  1  0  0  3  0  0  0  0  0  0
  190.3040  172.6140  143.0630 C   0  0  1  0  0  3  0  0  0  0  0  0
  189.7110  176.3070  144.2120 C   0  0  2  0  0  3  0  0  0  0  0  0
  189.2930  174.7270  146.1450 C   0  0  0  0  0  2  0  0  0  0  0  0
  189.9680  173.6060  145.3620 C   0  0  0  0  0  2  0  0  0  0  0  0
  189.7350  173.8030  143.8650 C   0  0  1  0  0  3  0  0  0  0  0  0
  190.3450  175.1420  143.4370 C   0  0  0  0  0  2  0  0  0  0  0  0
  189.8620  176.0810  145.7230 C   0  0  0  0  0  2  0  0  0  0  0  0
  185.6490  177.0690  143.0510 C   0  0  0  0  0  3  0  0  0  0  0  0
  187.8830  176.3960  142.5390 N   0  0  0  0  0  0  0  0  0  0  0  0
  186.6040  176.6170  142.1370 C   0  0  0  0  0  3  0  0  0  0  0  0
  186.0200  177.2890  144.3810 C   0  0  0  0  0  0  0  0  0  0  0  0
  188.2830  176.6100  143.8250 C   0  0  0  0  0  0  0  0  0  0  0  0
  187.3420  177.0520  144.7700 C   0  0  0  0  0  3  0  0  0  0  0  0
  185.0270  177.7690  145.3550 C   0  0  0  0  0  0  0  0  0  0  0  0
  184.0670  178.4970  144.9770 O   0  0  0  0  0  0  0  0  0  0  0  0
  185.4570  178.3820  147.7040 C   0  0  0  0  0  1  0  0  0  0  0  0
  185.1580  177.4200  146.7030 O   0  0  0  0  0  0  0  0  0  0  0  0
  192.8020  172.7400  143.2580 C   0  0  0  0  0  0  0  0  0  0  0  0
  193.9070  173.6460  143.1820 N   0  0  0  0  0  2  0  0  0  0  0  0
  192.8300  171.8060  144.1020 O   0  0  0  0  0  0  0  0  0  0  0  0
  193.9670  174.7560  142.2330 C   0  0  1  0  0  3  0  0  0  0  0  0
  195.7890  176.2060  142.9420 O   0  0  0  0  0  0  0  0  0  0  0  0
  193.8350  176.1240  144.3260 C   0  0  2  0  0  3  0  0  0  0  0  0
  196.1870  176.1290  144.2870 C   0  0  0  0  0  2  0  0  0  0  0  0
  195.0360  175.6700  146.3080 O   0  0  0  0  0  1  0  0  0  0  0  0
  194.3860  176.0600  142.9180 C   0  0  2  0  0  3  0  0  0  0  0  0
  192.8910  177.1300  144.4120 F   0  0  0  0  0  0  0  0  0  0  0  0
  195.0160  176.4710  145.1680 C   0  0  2  0  0  3  0  0  0  0  0  0
  194.8520  174.4240  141.0300 C   0  0  0  0  0  2  0  0  0  0  0  0
  194.1910  174.7620  139.7050 C   0  0  0  0  0  1  0  0  0  0  0  0
  1  8  2  0  0  0  0
  2  5  1  6  0  0  0
  2  4  1  0  0  0  0
  3  7  1  0  0  0  0
  3  9  1  0  0  0  0
  4 11  1  0  0  0  0
  6 10  1  0  0  0  0
  7  2  1  0  0  0  0
  8  7  2  0  0  0  0
  9  6  1  0  0  0  0
  9  4  1  0  0  0  0
 10 11  1  0  0  0  0
 10 28  1  0  0  0  0
 11 15  1  0  0  0  0
 12 17  1  0  0  0  0
 14 13  1  0  0  0  0
 15 14  1  0  0  0  0
 16 15  1  0  0  0  0
 16 12  1  0  0  0  0
 17 13  1  0  0  0  0
 18 21  1  0  0  0  0
 19 22  2  0  0  0  0
 20 19  1  0  0  0  0
 20 18  2  0  0  0  0
 21 23  2  0  0  0  0
 21 24  1  0  0  0  0
 22 12  1  0  0  0  0
 22 23  1  0  0  0  0
 24 27  1  0  0  0  0
 25 24  2  0  0  0  0
 27 26  1  0  0  0  0
 28 30  2  0  0  0  0
 29 28  1  0  0  0  0
 31 36  1  0  0  0  0
 31 29  1  0  0  0  0
 32 34  1  0  0  0  0
 33 37  1  0  0  0  0
 33 38  1  0  0  0  0
 34 38  1  0  0  0  0
 36 32  1  0  0  0  0
 36 33  1  0  0  0  0
 38 35  1  0  0  0  0
 39 31  1  0  0  0  0
 40 39  1  0  0  0  0
M  END
>  <MODEL>
2

>  <REMARK>
 VINA RESULT:      -7.6      1.737      2.420
  Name = 
  8 active torsions:
  status: ('A' for Active; 'I' for Inactive)
    1  A    between atoms: C_2  and  C_19
    2  A    between atoms: C_4  and  C_35
    3  A    between atoms: C_12  and  C_28
    4  A    between atoms: O_13  and  C_28
    5  A    between atoms: C_14  and  C_18
    6  A    between atoms: C_14  and  C_29
    7  A    between atoms: C_14  and  N_30
    8  A    between atoms: C_27  and  C_38
                            x       y       z     vdW  Elec       q    Type
                         _______ _______ _______ _____ _____    ______ ____

>  <TORSDO>
F 8

$$$$
=
 OpenBabel11062419303D

 40 44  0  0  1  0  0  0  0  0999 V2000
  190.2550  172.6790  139.4870 O   0  0  0  0  0  0  0  0  0  0  0  0
  189.9200  172.9480  143.0510 C   0  0  2  0  0  3  0  0  0  0  0  0
  191.8400  171.6860  142.4520 N   0  0  0  0  0  2  0  0  0  0  0  0
  190.5820  172.5150  144.2950 N   0  0  1  0  0  0  0  0  0  0  0  0
  188.6040  172.4800  143.0350 O   0  0  0  0  0  1  0  0  0  0  0  0
  193.0050  172.7900  144.2630 C   0  0  0  0  0  2  0  0  0  0  0  0
  190.6860  172.3180  141.9660 C   0  0  0  0  0  0  0  0  0  0  0  0
  190.4660  172.5060  140.6930 C   0  0  0  0  0  0  0  0  0  0  0  0
  191.8540  171.8700  143.8920 C   0  0  2  0  0  3  0  0  0  0  0  0
  192.3680  174.0680  144.7490 C   0  0  1  0  0  3  0  0  0  0  0  0
  190.9620  173.6540  145.1500 C   0  0  1  0  0  3  0  0  0  0  0  0
  189.4830  177.2500  144.7120 C   0  0  2  0  0  3  0  0  0  0  0  0
  188.2180  176.0140  146.5230 C   0  0  0  0  0  2  0  0  0  0  0  0
  189.3170  174.9570  146.5570 C   0  0  0  0  0  2  0  0  0  0  0  0
  189.9350  174.8040  145.1670 C   0  0  1  0  0  3  0  0  0  0  0  0
  190.5480  176.1440  144.7430 C   0  0  0  0  0  2  0  0  0  0  0  0
  188.7930  177.3590  146.0790 C   0  0  0  0  0  2  0  0  0  0  0  0
  186.6820  176.7840  141.4930 C   0  0  0  0  0  3  0  0  0  0  0  0
  188.8390  176.4430  142.4580 N   0  0  0  0  0  0  0  0  0  0  0  0
  187.9770  176.2660  141.4230 C   0  0  0  0  0  3  0  0  0  0  0  0
  186.2800  177.4810  142.6370 C   0  0  0  0  0  0  0  0  0  0  0  0
  188.4860  177.1250  143.5840 C   0  0  0  0  0  0  0  0  0  0  0  0
  187.1870  177.6460  143.6900 C   0  0  0  0  0  3  0  0  0  0  0  0
  184.9200  178.0350  142.7250 C   0  0  0  0  0  0  0  0  0  0  0  0
  184.3520  178.1510  143.8470 O   0  0  0  0  0  0  0  0  0  0  0  0
  182.8790  178.1540  141.3460 C   0  0  0  0  0  1  0  0  0  0  0  0
  184.2580  178.4260  141.5570 O   0  0  0  0  0  0  0  0  0  0  0  0
  193.1490  174.6290  145.9020 C   0  0  0  0  0  0  0  0  0  0  0  0
  194.5150  175.0200  145.7370 N   0  0  0  0  0  2  0  0  0  0  0  0
  192.6010  174.7670  147.0270 O   0  0  0  0  0  0  0  0  0  0  0  0
  195.2360  174.8950  144.4720 C   0  0  1  0  0  3  0  0  0  0  0  0
  194.1550  176.3160  142.8190 O   0  0  0  0  0  0  0  0  0  0  0  0
  196.5470  176.3700  142.9320 C   0  0  2  0  0  3  0  0  0  0  0  0
  194.6720  176.2940  141.5130 C   0  0  0  0  0  2  0  0  0  0  0  0
  196.8460  175.9770  140.6220 O   0  0  0  0  0  1  0  0  0  0  0  0
  195.2520  176.2160  143.6990 C   0  0  2  0  0  3  0  0  0  0  0  0
  197.2840  177.4110  143.4640 F   0  0  0  0  0  0  0  0  0  0  0  0
  196.1150  176.7190  141.5470 C   0  0  2  0  0  3  0  0  0  0  0  0
  196.6430  174.3280  144.6780 C   0  0  0  0  0  2  0  0  0  0  0  0
  196.8520  173.7740  146.0770 C   0  0  0  0  0  1  0  0  0  0  0  0
  1  8  2  0  0  0  0
  2  5  1  1  0  0  0
  2  4  1  0  0  0  0
  3  9  1  0  0  0  0
  4 11  1  0  0  0  0
  6 10  1  0  0  0  0
  7  3  1  0  0  0  0
  7  2  1  0  0  0  0
  8  7  2  0  0  0  0
  9  6  1  0  0  0  0
  9  4  1  0  0  0  0
 10 11  1  0  0  0  0
 10 28  1  0  0  0  0
 11 15  1  0  0  0  0
 12 16  1  0  0  0  0
 12 17  1  0  0  0  0
 13 14  1  0  0  0  0
 15 14  1  0  0  0  0
 16 15  1  0  0  0  0
 17 13  1  0  0  0  0
 18 21  1  0  0  0  0
 19 22  2  0  0  0  0
 20 18  2  0  0  0  0
 20 19  1  0  0  0  0
 21 24  1  0  0  0  0
 21 23  2  0  0  0  0
 22 23  1  0  0  0  0
 22 12  1  0  0  0  0
 24 25  2  0  0  0  0
 26 27  1  0  0  0  0
 27 24  1  0  0  0  0
 28 30  2  0  0  0  0
 29 28  1  0  0  0  0
 31 39  1  0  0  0  0
 31 29  1  0  0  0  0
 32 36  1  0  0  0  0
 33 37  1  0  0  0  0
 33 36  1  0  0  0  0
 34 38  1  0  0  0  0
 34 32  1  0  0  0  0
 35 38  1  0  0  0  0
 36 31  1  0  0  0  0
 38 33  1  0  0  0  0
 39 40  1  0  0  0  0
M  END
>  <MODEL>
3

>  <REMARK>
 VINA RESULT:      -7.5      2.148      3.658
  Name = 
  8 active torsions:
  status: ('A' for Active; 'I' for Inactive)
    1  A    between atoms: C_2  and  C_19
    2  A    between atoms: C_4  and  C_35
    3  A    between atoms: C_12  and  C_28
    4  A    between atoms: O_13  and  C_28
    5  A    between atoms: C_14  and  C_18
    6  A    between atoms: C_14  and  C_29
    7  A    between atoms: C_14  and  N_30
    8  A    between atoms: C_27  and  C_38
                            x       y       z     vdW  Elec       q    Type
                         _______ _______ _______ _____ _____    ______ ____

>  <TORSDO>
F 8

$$$$
=
 OpenBabel11062419303D

 40 44  0  0  1  0  0  0  0  0999 V2000
  187.7300  174.7410  138.1740 O   0  0  0  0  0  0  0  0  0  0  0  0
  188.5550  173.2450  141.3310 C   0  0  2  0  0  3  0  0  0  0  0  0
  189.7090  172.1920  139.5440 N   0  0  0  0  0  2  0  0  0  0  0  0
  189.3770  172.1610  141.9000 N   0  0  1  0  0  0  0  0  0  0  0  0
  187.2140  173.0370  141.6650 O   0  0  0  0  0  1  0  0  0  0  0  0
  191.6400  172.0710  140.9960 C   0  0  0  0  0  2  0  0  0  0  0  0
  188.7280  173.1380  139.8750 C   0  0  0  0  0  0  0  0  0  0  0  0
  188.2180  173.9630  139.0030 C   0  0  0  0  0  0  0  0  0  0  0  0
  190.2000  171.6300  140.7890 C   0  0  2  0  0  3  0  0  0  0  0  0
  191.6150  173.0130  142.1750 C   0  0  1  0  0  3  0  0  0  0  0  0
  190.3320  172.6570  142.9080 C   0  0  1  0  0  3  0  0  0  0  0  0
  189.7410  176.2490  144.3400 C   0  0  2  0  0  3  0  0  0  0  0  0
  189.3940  174.5280  146.1640 C   0  0  0  0  0  2  0  0  0  0  0  0
  190.0560  173.4750  145.2820 C   0  0  0  0  0  2  0  0  0  0  0  0
  189.7770  173.7780  143.8100 C   0  0  1  0  0  3  0  0  0  0  0  0
  190.3620  175.1520  143.4640 C   0  0  0  0  0  2  0  0  0  0  0  0
  189.9380  175.9160  145.8260 C   0  0  0  0  0  2  0  0  0  0  0  0
  185.6360  177.2050  143.5220 C   0  0  0  0  0  3  0  0  0  0  0  0
  187.3720  176.5330  145.0180 N   0  0  0  0  0  0  0  0  0  0  0  0
  186.0660  176.8390  144.7990 C   0  0  0  0  0  3  0  0  0  0  0  0
  186.5600  177.2590  142.4730 C   0  0  0  0  0  0  0  0  0  0  0  0
  188.2990  176.5640  144.0180 C   0  0  0  0  0  0  0  0  0  0  0  0
  187.8990  176.9420  142.7260 C   0  0  0  0  0  3  0  0  0  0  0  0
  186.1220  177.6400  141.1210 C   0  0  0  0  0  0  0  0  0  0  0  0
  186.6890  177.1450  140.1070 O   0  0  0  0  0  0  0  0  0  0  0  0
  183.8360  178.1980  140.3830 C   0  0  0  0  0  1  0  0  0  0  0  0
  185.0800  178.5590  140.9680 O   0  0  0  0  0  0  0  0  0  0  0  0
  192.8350  172.8080  143.0250 C   0  0  0  0  0  0  0  0  0  0  0  0
  193.9550  173.6910  142.9200 N   0  0  0  0  0  2  0  0  0  0  0  0
  192.8770  171.8570  143.8490 O   0  0  0  0  0  0  0  0  0  0  0  0
  194.0000  174.8200  141.9920 C   0  0  1  0  0  3  0  0  0  0  0  0
  195.7850  176.3260  142.6750 O   0  0  0  0  0  0  0  0  0  0  0  0
  193.8950  176.1130  144.1320 C   0  0  2  0  0  3  0  0  0  0  0  0
  196.2420  176.2250  144.0000 C   0  0  0  0  0  2  0  0  0  0  0  0
  195.1970  175.6510  146.0490 O   0  0  0  0  0  1  0  0  0  0  0  0
  194.3900  176.1180  142.7020 C   0  0  2  0  0  3  0  0  0  0  0  0
  192.9140  177.0720  144.2900 F   0  0  0  0  0  0  0  0  0  0  0  0
  195.0950  176.4850  144.9380 C   0  0  2  0  0  3  0  0  0  0  0  0
  194.8990  174.5250  140.7890 C   0  0  0  0  0  2  0  0  0  0  0  0
  194.2990  175.0050  139.4780 C   0  0  0  0  0  1  0  0  0  0  0  0
  1  8  2  0  0  0  0
  2  5  1  6  0  0  0
  2  4  1  0  0  0  0
  3  7  1  0  0  0  0
  3  9  1  0  0  0  0
  4 11  1  0  0  0  0
  6 10  1  0  0  0  0
  7  2  1  0  0  0  0
  8  7  2  0  0  0  0
  9  6  1  0  0  0  0
  9  4  1  0  0  0  0
 10 11  1  0  0  0  0
 10 28  1  0  0  0  0
 11 15  1  0  0  0  0
 12 17  1  0  0  0  0
 14 13  1  0  0  0  0
 15 14  1  0  0  0  0
 16 15  1  0  0  0  0
 16 12  1  0  0  0  0
 17 13  1  0  0  0  0
 18 20  1  0  0  0  0
 20 19  2  0  0  0  0
 21 23  1  0  0  0  0
 21 18  2  0  0  0  0
 22 12  1  0  0  0  0
 22 19  1  0  0  0  0
 23 22  2  0  0  0  0
 24 21  1  0  0  0  0
 25 24  2  0  0  0  0
 26 27  1  0  0  0  0
 27 24  1  0  0  0  0
 28 30  2  0  0  0  0
 29 28  1  0  0  0  0
 31 36  1  0  0  0  0
 31 29  1  0  0  0  0
 32 36  1  0  0  0  0
 32 34  1  0  0  0  0
 33 37  1  0  0  0  0
 33 38  1  0  0  0  0
 34 38  1  0  0  0  0
 36 33  1  0  0  0  0
 38 35  1  0  0  0  0
 39 31  1  0  0  0  0
 40 39  1  0  0  0  0
M  END
>  <MODEL>
4

>  <REMARK>
 VINA RESULT:      -7.3      1.615      2.131
  Name = 
  8 active torsions:
  status: ('A' for Active; 'I' for Inactive)
    1  A    between atoms: C_2  and  C_19
    2  A    between atoms: C_4  and  C_35
    3  A    between atoms: C_12  and  C_28
    4  A    between atoms: O_13  and  C_28
    5  A    between atoms: C_14  and  C_18
    6  A    between atoms: C_14  and  C_29
    7  A    between atoms: C_14  and  N_30
    8  A    between atoms: C_27  and  C_38
                            x       y       z     vdW  Elec       q    Type
                         _______ _______ _______ _____ _____    ______ ____

>  <TORSDO>
F 8

$$$$
=
 OpenBabel11062419303D

 40 44  0  0  1  0  0  0  0  0999 V2000
  188.9040  174.1720  138.2890 O   0  0  0  0  0  0  0  0  0  0  0  0
  189.0160  173.3050  141.7700 C   0  0  2  0  0  3  0  0  0  0  0  0
  190.2680  171.7770  140.4550 N   0  0  0  0  0  2  0  0  0  0  0  0
  189.5790  172.2860  142.6750 N   0  0  1  0  0  0  0  0  0  0  0  0
  187.6240  173.3190  141.8930 O   0  0  0  0  0  1  0  0  0  0  0  0
  191.9180  171.7610  142.2250 C   0  0  0  0  0  2  0  0  0  0  0  0
  189.3920  172.8710  140.4170 C   0  0  0  0  0  0  0  0  0  0  0  0
  189.1440  173.5410  139.3250 C   0  0  0  0  0  0  0  0  0  0  0  0
  190.4790  171.4440  141.8520 C   0  0  2  0  0  3  0  0  0  0  0  0
  191.8470  172.9300  143.1760 C   0  0  1  0  0  3  0  0  0  0  0  0
  190.4300  172.8800  143.7230 C   0  0  1  0  0  3  0  0  0  0  0  0
  190.2590  176.7170  144.4660 C   0  0  2  0  0  3  0  0  0  0  0  0
  189.0890  175.4310  146.3060 C   0  0  0  0  0  2  0  0  0  0  0  0
  189.7190  174.1420  145.7930 C   0  0  0  0  0  2  0  0  0  0  0  0
  189.9080  174.2210  144.2780 C   0  0  1  0  0  3  0  0  0  0  0  0
  190.8410  175.3920  143.9520 C   0  0  0  0  0  2  0  0  0  0  0  0
  189.9830  176.6250  145.9740 C   0  0  0  0  0  2  0  0  0  0  0  0
  186.8330  178.0130  142.2280 C   0  0  0  0  0  3  0  0  0  0  0  0
  189.0030  177.0240  142.3500 N   0  0  0  0  0  0  0  0  0  0  0  0
  187.9310  177.4120  141.6100 C   0  0  0  0  0  3  0  0  0  0  0  0
  186.8430  178.2090  143.6130 C   0  0  0  0  0  0  0  0  0  0  0  0
  189.0530  177.2080  143.7000 C   0  0  0  0  0  0  0  0  0  0  0  0
  187.9580  177.7980  144.3520 C   0  0  0  0  0  3  0  0  0  0  0  0
  185.6950  178.8450  144.2780 C   0  0  0  0  0  0  0  0  0  0  0  0
  185.5150  180.0910  144.1810 O   0  0  0  0  0  0  0  0  0  0  0  0
  184.8800  177.9890  146.4420 C   0  0  0  0  0  1  0  0  0  0  0  0
  184.8100  178.0610  145.0240 O   0  0  0  0  0  0  0  0  0  0  0  0
  192.8810  172.7830  144.2540 C   0  0  0  0  0  0  0  0  0  0  0  0
  194.2360  173.1800  144.0270 N   0  0  0  0  0  2  0  0  0  0  0  0
  192.5580  172.3120  145.3770 O   0  0  0  0  0  0  0  0  0  0  0  0
  194.7050  173.7330  142.7570 C   0  0  1  0  0  3  0  0  0  0  0  0
  194.1750  176.0100  142.0830 O   0  0  0  0  0  0  0  0  0  0  0  0
  196.4740  175.4850  142.5020 C   0  0  2  0  0  3  0  0  0  0  0  0
  194.9630  176.5830  141.0710 C   0  0  0  0  0  2  0  0  0  0  0  0
  197.2340  176.3390  140.4350 O   0  0  0  0  0  1  0  0  0  0  0  0
  195.0320  175.2230  142.8790 C   0  0  2  0  0  3  0  0  0  0  0  0
  197.1820  175.8920  143.6160 F   0  0  0  0  0  0  0  0  0  0  0  0
  196.4000  176.6050  141.5180 C   0  0  2  0  0  3  0  0  0  0  0  0
  195.8750  172.9280  142.1890 C   0  0  0  0  0  2  0  0  0  0  0  0
  195.6120  171.4310  142.1910 C   0  0  0  0  0  1  0  0  0  0  0  0
  1  8  2  0  0  0  0
  2  5  1  6  0  0  0
  2  4  1  0  0  0  0
  3  9  1  0  0  0  0
  4 11  1  0  0  0  0
  6 10  1  0  0  0  0
  7  3  1  0  0  0  0
  7  2  1  0  0  0  0
  8  7  2  0  0  0  0
  9  6  1  0  0  0  0
  9  4  1  0  0  0  0
 10 11  1  0  0  0  0
 10 28  1  0  0  0  0
 11 15  1  0  0  0  0
 12 17  1  0  0  0  0
 14 13  1  0  0  0  0
 15 14  1  0  0  0  0
 16 15  1  0  0  0  0
 16 12  1  0  0  0  0
 17 13  1  0  0  0  0
 18 21  1  0  0  0  0
 19 22  2  0  0  0  0
 20 18  2  0  0  0  0
 20 19  1  0  0  0  0
 21 24  1  0  0  0  0
 21 23  2  0  0  0  0
 22 23  1  0  0  0  0
 22 12  1  0  0  0  0
 24 27  1  0  0  0  0
 25 24  2  0  0  0  0
 27 26  1  0  0  0  0
 28 30  2  0  0  0  0
 29 28  1  0  0  0  0
 31 36  1  0  0  0  0
 31 29  1  0  0  0  0
 32 36  1  0  0  0  0
 33 36  1  0  0  0  0
 33 37  1  0  0  0  0
 34 38  1  0  0  0  0
 34 32  1  0  0  0  0
 35 38  1  0  0  0  0
 38 33  1  0  0  0  0
 39 40  1  0  0  0  0
 39 31  1  0  0  0  0
M  END
>  <MODEL>
5

>  <REMARK>
 VINA RESULT:      -6.8      2.128      2.953
  Name = 
  8 active torsions:
  status: ('A' for Active; 'I' for Inactive)
    1  A    between atoms: C_2  and  C_19
    2  A    between atoms: C_4  and  C_35
    3  A    between atoms: C_12  and  C_28
    4  A    between atoms: O_13  and  C_28
    5  A    between atoms: C_14  and  C_18
    6  A    between atoms: C_14  and  C_29
    7  A    between atoms: C_14  and  N_30
    8  A    between atoms: C_27  and  C_38
                            x       y       z     vdW  Elec       q    Type
                         _______ _______ _______ _____ _____    ______ ____

>  <TORSDO>
F 8

$$$$
=
 OpenBabel11062419303D

 40 44  0  0  1  0  0  0  0  0999 V2000
  195.8270  176.7180  143.0510 O   0  0  0  0  0  0  0  0  0  0  0  0
  193.5140  174.2430  144.2380 C   0  0  2  0  0  3  0  0  0  0  0  0
  194.2230  175.6780  145.9900 N   0  0  0  0  0  2  0  0  0  0  0  0
  192.8540  173.7990  145.4800 N   0  0  1  0  0  0  0  0  0  0  0  0
  194.2570  173.1870  143.7030 O   0  0  0  0  0  1  0  0  0  0  0  0
  191.9480  175.6290  146.8140 C   0  0  0  0  0  2  0  0  0  0  0  0
  194.4150  175.3300  144.6450 C   0  0  0  0  0  0  0  0  0  0  0  0
  195.1380  176.0440  143.8260 C   0  0  0  0  0  0  0  0  0  0  0  0
  193.1890  174.8050  146.5150 C   0  0  2  0  0  3  0  0  0  0  0  0
  190.9130  175.1900  145.8080 C   0  0  1  0  0  3  0  0  0  0  0  0
  191.3840  173.8150  145.3660 C   0  0  1  0  0  3  0  0  0  0  0  0
  189.8850  174.0640  141.7600 C   0  0  2  0  0  3  0  0  0  0  0  0
  189.2880  171.8290  142.7880 C   0  0  0  0  0  2  0  0  0  0  0  0
  189.7180  172.3530  144.1530 C   0  0  0  0  0  2  0  0  0  0  0  0
  190.8500  173.3660  143.9900 C   0  0  1  0  0  3  0  0  0  0  0  0
  190.3500  174.5420  143.1430 C   0  0  0  0  0  2  0  0  0  0  0  0
  188.8060  172.9820  141.9080 C   0  0  0  0  0  2  0  0  0  0  0  0
  192.9870  172.8170  139.0660 C   0  0  0  0  0  3  0  0  0  0  0  0
  190.7530  172.6740  139.8980 N   0  0  0  0  0  0  0  0  0  0  0  0
  191.7060  172.2620  139.0220 C   0  0  0  0  0  3  0  0  0  0  0  0
  193.2780  173.8030  140.0150 C   0  0  0  0  0  0  0  0  0  0  0  0
  191.0030  173.6250  140.8430 C   0  0  0  0  0  0  0  0  0  0  0  0
  192.2770  174.2120  140.9030 C   0  0  0  0  0  3  0  0  0  0  0  0
  194.6230  174.3960  140.0760 C   0  0  0  0  0  0  0  0  0  0  0  0
  194.7690  175.6480  140.0070 O   0  0  0  0  0  0  0  0  0  0  0  0
  196.7070  173.7500  141.2250 C   0  0  0  0  0  1  0  0  0  0  0  0
  195.7390  173.5620  140.2030 O   0  0  0  0  0  0  0  0  0  0  0  0
  189.5550  175.1500  146.4480 C   0  0  0  0  0  0  0  0  0  0  0  0
  188.4380  175.7980  145.8330 N   0  0  0  0  0  2  0  0  0  0  0  0
  189.3880  174.5350  147.5340 O   0  0  0  0  0  0  0  0  0  0  0  0
  188.5350  176.5380  144.5760 C   0  0  1  0  0  3  0  0  0  0  0  0
  187.3280  177.0180  142.5190 O   0  0  0  0  0  0  0  0  0  0  0  0
  186.2490  177.5560  144.5880 C   0  0  2  0  0  3  0  0  0  0  0  0
  186.7290  178.2840  142.4030 C   0  0  0  0  0  2  0  0  0  0  0  0
  185.7640  179.7820  143.9660 O   0  0  0  0  0  1  0  0  0  0  0  0
  187.1840  176.6140  143.8620 C   0  0  2  0  0  3  0  0  0  0  0  0
  185.1990  176.8430  145.1350 F   0  0  0  0  0  0  0  0  0  0  0  0
  185.7370  178.4630  143.5200 C   0  0  2  0  0  3  0  0  0  0  0  0
  189.1600  177.9200  144.7810 C   0  0  0  0  0  2  0  0  0  0  0  0
  190.3510  178.1660  143.8700 C   0  0  0  0  0  1  0  0  0  0  0  0
  1  8  2  0  0  0  0
  2  5  1  1  0  0  0
  2  7  1  0  0  0  0
  2  4  1  0  0  0  0
  3  9  1  0  0  0  0
  4  9  1  0  0  0  0
  7  3  1  0  0  0  0
  8  7  2  0  0  0  0
  9  6  1  0  0  0  0
 10 28  1  0  0  0  0
 10  6  1  0  0  0  0
 11  4  1  0  0  0  0
 11 10  1  0  0  0  0
 12 17  1  0  0  0  0
 12 16  1  0  0  0  0
 13 14  1  0  0  0  0
 15 14  1  0  0  0  0
 15 11  1  0  0  0  0
 16 15  1  0  0  0  0
 17 13  1  0  0  0  0
 18 21  1  0  0  0  0
 19 22  2  0  0  0  0
 20 18  2  0  0  0  0
 20 19  1  0  0  0  0
 21 24  1  0  0  0  0
 21 23  2  0  0  0  0
 22 23  1  0  0  0  0
 22 12  1  0  0  0  0
 24 27  1  0  0  0  0
 25 24  2  0  0  0  0
 27 26  1  0  0  0  0
 28 30  2  0  0  0  0
 29 28  1  0  0  0  0
 31 39  1  0  0  0  0
 31 29  1  0  0  0  0
 32 36  1  0  0  0  0
 33 37  1  0  0  0  0
 34 32  1  0  0  0  0
 34 38  1  0  0  0  0
 36 31  1  0  0  0  0
 36 33  1  0  0  0  0
 38 35  1  0  0  0  0
 38 33  1  0  0  0  0
 40 39  1  0  0  0  0
M  END
>  <MODEL>
6

>  <REMARK>
 VINA RESULT:      -6.8      2.447      7.928
  Name = 
  8 active torsions:
  status: ('A' for Active; 'I' for Inactive)
    1  A    between atoms: C_2  and  C_19
    2  A    between atoms: C_4  and  C_35
    3  A    between atoms: C_12  and  C_28
    4  A    between atoms: O_13  and  C_28
    5  A    between atoms: C_14  and  C_18
    6  A    between atoms: C_14  and  C_29
    7  A    between atoms: C_14  and  N_30
    8  A    between atoms: C_27  and  C_38
                            x       y       z     vdW  Elec       q    Type
                         _______ _______ _______ _____ _____    ______ ____

>  <TORSDO>
F 8

$$$$
=
 OpenBabel11062419303D

 40 44  0  0  1  0  0  0  0  0999 V2000
  196.0390  176.6130  141.8620 O   0  0  0  0  0  0  0  0  0  0  0  0
  194.0410  174.3750  143.8320 C   0  0  2  0  0  3  0  0  0  0  0  0
  195.1850  175.9450  145.1960 N   0  0  0  0  0  2  0  0  0  0  0  0
  193.6970  174.0880  145.2370 N   0  0  1  0  0  0  0  0  0  0  0  0
  194.6100  173.2390  143.2500 O   0  0  0  0  0  1  0  0  0  0  0  0
  193.1810  176.0810  146.5450 C   0  0  0  0  0  2  0  0  0  0  0  0
  195.0350  175.4570  143.8900 C   0  0  0  0  0  0  0  0  0  0  0  0
  195.5480  176.0520  142.8480 C   0  0  0  0  0  0  0  0  0  0  0  0
  194.2950  175.1760  146.0460 C   0  0  2  0  0  3  0  0  0  0  0  0
  191.9220  175.5900  145.8730 C   0  0  1  0  0  3  0  0  0  0  0  0
  192.2440  174.1580  145.4800 C   0  0  1  0  0  3  0  0  0  0  0  0
  190.1480  174.0810  142.1780 C   0  0  2  0  0  3  0  0  0  0  0  0
  189.3600  172.2510  143.7400 C   0  0  0  0  0  2  0  0  0  0  0  0
  190.1360  172.9030  144.8790 C   0  0  0  0  0  2  0  0  0  0  0  0
  191.3810  173.5980  144.3310 C   0  0  1  0  0  3  0  0  0  0  0  0
  190.9510  174.6850  143.3390 C   0  0  0  0  0  2  0  0  0  0  0  0
  188.9370  173.3050  142.7180 C   0  0  0  0  0  2  0  0  0  0  0  0
  192.5700  171.7420  139.5140 C   0  0  0  0  0  3  0  0  0  0  0  0
  192.2150  173.6760  140.8700 N   0  0  0  0  0  0  0  0  0  0  0  0
  193.0150  172.9580  140.0380 C   0  0  0  0  0  3  0  0  0  0  0  0
  191.2990  171.2690  139.8560 C   0  0  0  0  0  0  0  0  0  0  0  0
  190.9670  173.2510  141.2170 C   0  0  0  0  0  0  0  0  0  0  0  0
  190.4970  172.0260  140.7170 C   0  0  0  0  0  3  0  0  0  0  0  0
  190.8140  169.9920  139.3100 C   0  0  0  0  0  0  0  0  0  0  0  0
  191.3160  168.9010  139.7030 O   0  0  0  0  0  0  0  0  0  0  0  0
  189.8570  170.8240  137.1950 C   0  0  0  0  0  1  0  0  0  0  0  0
  189.8000  169.9940  138.3470 O   0  0  0  0  0  0  0  0  0  0  0  0
  190.7630  175.6750  146.8220 C   0  0  0  0  0  0  0  0  0  0  0  0
  189.5000  176.1900  146.3900 N   0  0  0  0  0  2  0  0  0  0  0  0
  190.8920  175.2840  148.0120 O   0  0  0  0  0  0  0  0  0  0  0  0
  189.2560  176.6710  145.0310 C   0  0  1  0  0  3  0  0  0  0  0  0
  187.6180  176.6700  143.2310 O   0  0  0  0  0  0  0  0  0  0  0  0
  186.8820  177.3750  145.3990 C   0  0  2  0  0  3  0  0  0  0  0  0
  186.8170  177.8150  143.0880 C   0  0  0  0  0  2  0  0  0  0  0  0
  185.9420  179.3980  144.6210 O   0  0  0  0  0  1  0  0  0  0  0  0
  187.7980  176.4610  144.6140 C   0  0  2  0  0  3  0  0  0  0  0  0
  186.0810  176.6240  146.2380 F   0  0  0  0  0  0  0  0  0  0  0  0
  186.0390  178.0340  144.3580 C   0  0  2  0  0  3  0  0  0  0  0  0
  189.7040  178.1240  144.8570 C   0  0  0  0  0  2  0  0  0  0  0  0
  190.7280  178.2920  143.7470 C   0  0  0  0  0  1  0  0  0  0  0  0
  1  8  2  0  0  0  0
  2  5  1  1  0  0  0
  2  7  1  0  0  0  0
  2  4  1  0  0  0  0
  3  9  1  0  0  0  0
  4 11  1  0  0  0  0
  4  9  1  0  0  0  0
  7  3  1  0  0  0  0
  8  7  2  0  0  0  0
  9  6  1  0  0  0  0
 10  6  1  0  0  0  0
 10 28  1  0  0  0  0
 11 10  1  0  0  0  0
 12 17  1  0  0  0  0
 12 16  1  0  0  0  0
 13 14  1  0  0  0  0
 15 14  1  0  0  0  0
 15 11  1  0  0  0  0
 16 15  1  0  0  0  0
 17 13  1  0  0  0  0
 18 21  2  0  0  0  0
 18 20  1  0  0  0  0
 19 22  1  0  0  0  0
 20 19  2  0  0  0  0
 21 23  1  0  0  0  0
 22 12  1  0  0  0  0
 23 22  2  0  0  0  0
 24 25  2  0  0  0  0
 24 21  1  0  0  0  0
 26 27  1  0  0  0  0
 27 24  1  0  0  0  0
 28 30  2  0  0  0  0
 29 28  1  0  0  0  0
 31 29  1  0  0  0  0
 32 36  1  0  0  0  0
 33 37  1  0  0  0  0
 34 32  1  0  0  0  0
 34 38  1  0  0  0  0
 36 31  1  0  0  0  0
 36 33  1  0  0  0  0
 38 35  1  0  0  0  0
 38 33  1  0  0  0  0
 39 31  1  0  0  0  0
 40 39  1  0  0  0  0
M  END
>  <MODEL>
7

>  <REMARK>
 VINA RESULT:      -6.7      2.731      7.807
  Name = 
  8 active torsions:
  status: ('A' for Active; 'I' for Inactive)
    1  A    between atoms: C_2  and  C_19
    2  A    between atoms: C_4  and  C_35
    3  A    between atoms: C_12  and  C_28
    4  A    between atoms: O_13  and  C_28
    5  A    between atoms: C_14  and  C_18
    6  A    between atoms: C_14  and  C_29
    7  A    between atoms: C_14  and  N_30
    8  A    between atoms: C_27  and  C_38
                            x       y       z     vdW  Elec       q    Type
                         _______ _______ _______ _____ _____    ______ ____

>  <TORSDO>
F 8

$$$$
=
 OpenBabel11062419303D

 40 44  0  0  1  0  0  0  0  0999 V2000
  187.4450  172.4880  140.0600 O   0  0  0  0  0  0  0  0  0  0  0  0
  189.5470  173.2240  142.8750 C   0  0  2  0  0  3  0  0  0  0  0  0
  190.8180  172.9640  140.8870 N   0  0  0  0  0  2  0  0  0  0  0  0
  190.9690  173.4080  143.2200 N   0  0  1  0  0  0  0  0  0  0  0  0
  189.0130  172.1830  143.6380 O   0  0  0  0  0  1  0  0  0  0  0  0
  192.1870  174.8110  141.6410 C   0  0  0  0  0  2  0  0  0  0  0  0
  189.5400  172.8540  141.4520 C   0  0  0  0  0  0  0  0  0  0  0  0
  188.4640  172.6690  140.7370 C   0  0  0  0  0  0  0  0  0  0  0  0
  191.7170  173.3970  141.9410 C   0  0  2  0  0  3  0  0  0  0  0  0
  191.5570  175.6860  142.6960 C   0  0  1  0  0  3  0  0  0  0  0  0
  191.2290  174.7260  143.8280 C   0  0  1  0  0  3  0  0  0  0  0  0
  189.1090  177.1620  146.0360 C   0  0  2  0  0  3  0  0  0  0  0  0
  188.9390  174.8060  146.9470 C   0  0  0  0  0  2  0  0  0  0  0  0
  190.1160  174.3930  146.0710 C   0  0  0  0  0  2  0  0  0  0  0  0
  190.1200  175.2140  144.7820 C   0  0  1  0  0  3  0  0  0  0  0  0
  190.2630  176.6980  145.1360 C   0  0  0  0  0  2  0  0  0  0  0  0
  189.0380  176.2900  147.2980 C   0  0  0  0  0  2  0  0  0  0  0  0
  185.2690  177.4860  144.1440 C   0  0  0  0  0  3  0  0  0  0  0  0
  186.6310  177.0560  146.0580 N   0  0  0  0  0  0  0  0  0  0  0  0
  185.3980  177.1600  145.4960 C   0  0  0  0  0  3  0  0  0  0  0  0
  186.4160  177.7080  143.3760 C   0  0  0  0  0  0  0  0  0  0  0  0
  187.7720  177.2550  145.3380 C   0  0  0  0  0  0  0  0  0  0  0  0
  187.6730  177.5980  143.9800 C   0  0  0  0  0  3  0  0  0  0  0  0
  186.2970  178.0490  141.9500 C   0  0  0  0  0  0  0  0  0  0  0  0
  185.2790  178.6660  141.5270 O   0  0  0  0  0  0  0  0  0  0  0  0
  187.4390  176.3490  140.5760 C   0  0  0  0  0  1  0  0  0  0  0  0
  187.3130  177.6780  141.0640 O   0  0  0  0  0  0  0  0  0  0  0  0
  192.5170  176.7600  143.1180 C   0  0  0  0  0  0  0  0  0  0  0  0
  193.6850  176.4380  143.8790 N   0  0  0  0  0  2  0  0  0  0  0  0
  192.3040  177.9590  142.7970 O   0  0  0  0  0  0  0  0  0  0  0  0
  194.0140  175.0780  144.3020 C   0  0  1  0  0  3  0  0  0  0  0  0
  196.4400  175.2370  144.4160 O   0  0  0  0  0  0  0  0  0  0  0  0
  195.4510  174.9190  142.2580 C   0  0  2  0  0  3  0  0  0  0  0  0
  197.0740  176.0880  143.4960 C   0  0  0  0  0  2  0  0  0  0  0  0
  196.5890  176.7360  141.2680 O   0  0  0  0  0  1  0  0  0  0  0  0
  195.3640  174.6250  143.7400 C   0  0  2  0  0  3  0  0  0  0  0  0
  195.4800  173.7330  141.5480 F   0  0  0  0  0  0  0  0  0  0  0  0
  196.7530  175.6300  142.0990 C   0  0  2  0  0  3  0  0  0  0  0  0
  193.9400  174.9260  145.8230 C   0  0  0  0  0  2  0  0  0  0  0  0
  193.7120  176.2490  146.5330 C   0  0  0  0  0  1  0  0  0  0  0  0
  1  8  2  0  0  0  0
  2  4  1  0  0  0  0
  2  5  1  1  0  0  0
  3  7  1  0  0  0  0
  3  9  1  0  0  0  0
  4 11  1  0  0  0  0
  6  9  1  0  0  0  0
  6 10  1  0  0  0  0
  7  2  1  0  0  0  0
  8  7  2  0  0  0  0
  9  4  1  0  0  0  0
 10 28  1  0  0  0  0
 10 11  1  0  0  0  0
 11 15  1  0  0  0  0
 12 17  1  0  0  0  0
 13 17  1  0  0  0  0
 14 13  1  0  0  0  0
 15 16  1  0  0  0  0
 15 14  1  0  0  0  0
 16 12  1  0  0  0  0
 18 20  1  0  0  0  0
 20 19  2  0  0  0  0
 21 23  1  0  0  0  0
 21 18  2  0  0  0  0
 22 12  1  0  0  0  0
 22 19  1  0  0  0  0
 23 22  2  0  0  0  0
 24 21  1  0  0  0  0
 25 24  2  0  0  0  0
 26 27  1  0  0  0  0
 27 24  1  0  0  0  0
 28 29  1  0  0  0  0
 29 31  1  0  0  0  0
 30 28  2  0  0  0  0
 31 39  1  0  0  0  0
 33 36  1  0  0  0  0
 34 32  1  0  0  0  0
 35 38  1  0  0  0  0
 36 31  1  0  0  0  0
 36 32  1  0  0  0  0
 37 33  1  0  0  0  0
 38 33  1  0  0  0  0
 38 34  1  0  0  0  0
 39 40  1  0  0  0  0
M  END
>  <MODEL>
8

>  <REMARK>
 VINA RESULT:      -6.3      1.973      3.165
  Name = 
  8 active torsions:
  status: ('A' for Active; 'I' for Inactive)
    1  A    between atoms: C_2  and  C_19
    2  A    between atoms: C_4  and  C_35
    3  A    between atoms: C_12  and  C_28
    4  A    between atoms: O_13  and  C_28
    5  A    between atoms: C_14  and  C_18
    6  A    between atoms: C_14  and  C_29
    7  A    between atoms: C_14  and  N_30
    8  A    between atoms: C_27  and  C_38
                            x       y       z     vdW  Elec       q    Type
                         _______ _______ _______ _____ _____    ______ ____

>  <TORSDO>
F 8

$$$$
=
 OpenBabel11062419303D

 40 44  0  0  1  0  0  0  0  0999 V2000
  191.3570  176.8030  148.4520 O   0  0  0  0  0  0  0  0  0  0  0  0
  192.3970  176.4630  145.0340 C   0  0  2  0  0  3  0  0  0  0  0  0
  194.2580  176.5000  146.5070 N   0  0  0  0  0  2  0  0  0  0  0  0
  193.6210  176.3520  144.2180 N   0  0  1  0  0  0  0  0  0  0  0  0
  191.6640  177.5800  144.6240 O   0  0  0  0  0  1  0  0  0  0  0  0
  195.2600  174.7870  145.1220 C   0  0  0  0  0  2  0  0  0  0  0  0
  192.8670  176.6540  146.4130 C   0  0  0  0  0  0  0  0  0  0  0  0
  192.0910  176.7270  147.4600 C   0  0  0  0  0  0  0  0  0  0  0  0
  194.7480  176.2180  145.1700 C   0  0  2  0  0  3  0  0  0  0  0  0
  194.2970  174.0380  144.2340 C   0  0  1  0  0  3  0  0  0  0  0  0
  193.6360  175.1250  143.4010 C   0  0  1  0  0  3  0  0  0  0  0  0
  190.1090  173.4540  143.1290 C   0  0  2  0  0  3  0  0  0  0  0  0
  191.0560  173.8450  140.8150 C   0  0  0  0  0  2  0  0  0  0  0  0
  192.4260  174.1070  141.4300 C   0  0  0  0  0  2  0  0  0  0  0  0
  192.2640  174.7370  142.8130 C   0  0  1  0  0  3  0  0  0  0  0  0
  191.4930  173.7680  143.7160 C   0  0  0  0  0  2  0  0  0  0  0  0
  190.2500  172.8990  141.7050 C   0  0  0  0  0  2  0  0  0  0  0  0
  187.2460  176.6510  143.2570 C   0  0  0  0  0  3  0  0  0  0  0  0
  188.3550  174.8780  142.1050 N   0  0  0  0  0  0  0  0  0  0  0  0
  187.4320  175.8750  142.1120 C   0  0  0  0  0  3  0  0  0  0  0  0
  188.0140  176.3910  144.3970 C   0  0  0  0  0  0  0  0  0  0  0  0
  189.1290  174.6030  143.1940 C   0  0  0  0  0  0  0  0  0  0  0  0
  188.9550  175.3570  144.3650 C   0  0  0  0  0  3  0  0  0  0  0  0
  187.8320  177.2020  145.6120 C   0  0  0  0  0  0  0  0  0  0  0  0
  188.8190  177.4610  146.3560 O   0  0  0  0  0  0  0  0  0  0  0  0
  185.5410  176.8210  146.4420 C   0  0  0  0  0  1  0  0  0  0  0  0
  186.5580  177.6770  145.9390 O   0  0  0  0  0  0  0  0  0  0  0  0
  195.0400  173.0440  143.3890 C   0  0  0  0  0  0  0  0  0  0  0  0
  195.0940  171.6640  143.7610 N   0  0  0  0  0  2  0  0  0  0  0  0
  195.6190  173.4200  142.3350 O   0  0  0  0  0  0  0  0  0  0  0  0
  194.4570  171.1360  144.9670 C   0  0  1  0  0  3  0  0  0  0  0  0
  194.0580  168.7430  144.7800 O   0  0  0  0  0  0  0  0  0  0  0  0
  192.9270  170.1780  143.2320 C   0  0  2  0  0  3  0  0  0  0  0  0
  194.1320  168.1750  143.4970 C   0  0  0  0  0  2  0  0  0  0  0  0
  193.6380  168.9820  141.3230 O   0  0  0  0  0  1  0  0  0  0  0  0
  193.4680  170.0150  144.6350 C   0  0  2  0  0  3  0  0  0  0  0  0
  191.5800  170.4810  143.2830 F   0  0  0  0  0  0  0  0  0  0  0  0
  193.1160  168.8370  142.6060 C   0  0  2  0  0  3  0  0  0  0  0  0
  195.4910  170.7060  146.0090 C   0  0  0  0  0  2  0  0  0  0  0  0
  196.8150  171.4360  145.8560 C   0  0  0  0  0  1  0  0  0  0  0  0
  2  5  1  6  0  0  0
  2  7  1  0  0  0  0
  4  2  1  0  0  0  0
  4  9  1  0  0  0  0
  6  9  1  0  0  0  0
  7  3  1  0  0  0  0
  7  8  2  0  0  0  0
  8  1  2  0  0  0  0
  9  3  1  0  0  0  0
 10  6  1  0  0  0  0
 11  4  1  0  0  0  0
 11 10  1  0  0  0  0
 12 22  1  0  0  0  0
 12 16  1  0  0  0  0
 13 14  1  0  0  0  0
 13 17  1  0  0  0  0
 14 15  1  0  0  0  0
 15 11  1  0  0  0  0
 15 16  1  0  0  0  0
 17 12  1  0  0  0  0
 18 21  1  0  0  0  0
 19 20  1  0  0  0  0
 19 22  2  0  0  0  0
 20 18  2  0  0  0  0
 21 24  1  0  0  0  0
 22 23  1  0  0  0  0
 23 21  2  0  0  0  0
 24 27  1  0  0  0  0
 24 25  2  0  0  0  0
 27 26  1  0  0  0  0
 28 29  1  0  0  0  0
 28 10  1  0  0  0  0
 29 31  1  0  0  0  0
 30 28  2  0  0  0  0
 31 39  1  0  0  0  0
 33 37  1  0  0  0  0
 33 36  1  0  0  0  0
 34 32  1  0  0  0  0
 35 38  1  0  0  0  0
 36 32  1  0  0  0  0
 36 31  1  0  0  0  0
 38 33  1  0  0  0  0
 38 34  1  0  0  0  0
 40 39  1  0  0  0  0
M  END
>  <MODEL>
9

>  <REMARK>
 VINA RESULT:      -6.3      3.211      5.886
  Name = 
  8 active torsions:
  status: ('A' for Active; 'I' for Inactive)
    1  A    between atoms: C_2  and  C_19
    2  A    between atoms: C_4  and  C_35
    3  A    between atoms: C_12  and  C_28
    4  A    between atoms: O_13  and  C_28
    5  A    between atoms: C_14  and  C_18
    6  A    between atoms: C_14  and  C_29
    7  A    between atoms: C_14  and  N_30
    8  A    between atoms: C_27  and  C_38
                            x       y       z     vdW  Elec       q    Type
                         _______ _______ _______ _____ _____    ______ ____

>  <TORSDO>
F 8

$$$$
