=
 OpenBabel11062419443D

 30 34  0  0  1  0  0  0  0  0999 V2000
  188.5180  176.0930  144.2610 C   0  0  2  0  0  3  0  0  0  0  0  0
  193.8100  175.9290  144.6890 N   0  0  0  0  0  0  0  0  0  0  0  0
  190.8770  175.3390  147.0310 C   0  0  0  0  0  2  0  0  0  0  0  0
  186.0370  176.6710  145.4200 O   0  0  0  0  0  0  0  0  0  0  0  0
  186.7840  176.8910  146.5870 C   0  0  0  0  0  0  0  0  0  0  0  0
  191.0660  176.3730  144.8710 C   0  0  0  0  0  0  0  0  0  0  0  0
  187.7450  177.3130  143.7330 C   0  0  2  0  0  3  0  0  0  0  0  0
  191.7770  175.6830  145.9070 C   0  0  0  0  0  0  0  0  0  0  0  0
  193.1570  176.6550  143.5820 C   0  0  0  0  0  2  0  0  0  0  0  0
  189.3300  177.2850  146.5270 C   0  0  2  0  0  3  0  0  0  0  0  0
  191.6720  176.8560  143.7880 C   0  0  0  0  0  3  0  0  0  0  0  0
  187.9350  177.7440  146.5680 N   0  0  0  0  0  2  0  0  0  0  0  0
  189.6340  176.5190  145.2300 C   0  0  1  0  0  0  0  0  0  0  0  0
  189.4710  175.7620  146.5570 C   0  0  1  0  0  3  0  0  0  0  0  0
  186.4680  176.2940  147.6480 O   0  0  0  0  0  0  0  0  0  0  0  0
  193.0850  175.4780  145.8450 C   0  0  0  0  0  3  0  0  0  0  0  0
  186.2700  177.3330  144.1670 C   0  0  2  0  0  3  0  0  0  0  0  0
  195.7470  174.4030  144.5380 N   0  0  0  0  0  0  0  0  0  0  0  0
  195.7420  175.1030  145.7440 O   0  0  0  0  0  0  0  0  0  0  0  0
  196.0590  176.8260  144.2410 O   0  0  0  0  0  1  0  0  0  0  0  0
  195.2540  175.7590  144.6630 C   0  0  2  0  0  0  0  0  0  0  0  0
  197.1260  174.3890  144.0750 C   0  0  0  0  0  1  0  0  0  0  0  0
  187.9500  177.6320  142.2810 C   0  0  0  0  0  0  0  0  0  0  0  0
  188.9760  178.2570  141.8980 O   0  0  0  0  0  1  0  0  0  0  0  0
  186.9790  177.2660  141.3540 O   0  0  0  0  0  0  0  0  0  0  0  0
  185.6630  179.0480  144.2400 S   0  0  0  0  0  0  0  0  0  0  0  0
  184.0950  178.6180  143.4320 C   0  0  0  0  0  1  0  0  0  0  0  0
  188.9330  175.0450  143.2220 C   0  0  0  0  0  2  0  0  0  0  0  0
  190.4180  173.0720  143.5620 C   0  0  0  0  0  1  0  0  0  0  0  0
  189.0550  173.6720  143.8610 C   0  0  0  0  0  2  0  0  0  0  0  0
  1 28  1  6  0  0  0
  1 13  1  0  0  0  0
  2 16  1  0  0  0  0
  4  5  1  0  0  0  0
  5 15  2  0  0  0  0
  6  8  1  0  0  0  0
  7 23  1  6  0  0  0
  7 17  1  0  0  0  0
  7  1  1  0  0  0  0
  8  3  1  0  0  0  0
  9 11  1  0  0  0  0
  9  2  1  0  0  0  0
 10 14  1  0  0  0  0
 10 12  1  6  0  0  0
 11  6  2  0  0  0  0
 12  5  1  0  0  0  0
 13  6  1  6  0  0  0
 13 10  1  0  0  0  0
 13 14  1  0  0  0  0
 14  3  1  1  0  0  0
 16  8  2  0  0  0  0
 17 26  1  1  0  0  0
 17  4  1  0  0  0  0
 18 21  1  0  0  0  0
 18 19  1  0  0  0  0
 21 20  1  6  0  0  0
 21  2  1  0  0  0  0
 21 19  1  0  0  0  0
 22 18  1  0  0  0  0
 24 23  1  0  0  0  0
 25 23  2  0  0  0  0
 27 26  1  0  0  0  0
 28 30  1  0  0  0  0
 29 30  1  0  0  0  0
M  END
>  <MODEL>
1

>  <REMARK>
 VINA RESULT:      -7.0      0.000      0.000
  Name = 
  5 active torsions:
  status: ('A' for Active; 'I' for Inactive)
    1  A    between atoms: C_1  and  C_22
    2  A    between atoms: S_2  and  C_30
    3  A    between atoms: N_3  and  C_21
    4  A    between atoms: C_9  and  C_14
    5  A    between atoms: C_15  and  C_22
                            x       y       z     vdW  Elec       q    Type
                         _______ _______ _______ _____ _____    ______ ____

>  <TORSDO>
F 5

$$$$
=
 OpenBabel11062419443D

 30 34  0  0  1  0  0  0  0  0999 V2000
  188.5790  176.9270  144.2220 C   0  0  2  0  0  3  0  0  0  0  0  0
  191.2050  172.3760  143.4390 N   0  0  0  0  0  0  0  0  0  0  0  0
  189.4070  174.8880  141.2280 C   0  0  0  0  0  2  0  0  0  0  0  0
  186.4830  178.6370  143.5060 O   0  0  0  0  0  0  0  0  0  0  0  0
  186.2800  177.7310  142.4550 C   0  0  0  0  0  0  0  0  0  0  0  0
  189.4190  174.5080  143.5990 C   0  0  0  0  0  0  0  0  0  0  0  0
  187.4040  177.0720  145.2020 C   0  0  2  0  0  3  0  0  0  0  0  0
  189.9680  174.0920  142.3420 C   0  0  0  0  0  0  0  0  0  0  0  0
  190.6810  172.7340  144.7710 C   0  0  0  0  0  2  0  0  0  0  0  0
  187.2590  175.3480  142.4960 C   0  0  2  0  0  3  0  0  0  0  0  0
  189.7090  173.8930  144.7440 C   0  0  0  0  0  3  0  0  0  0  0  0
  186.1830  176.3250  142.7100 N   0  0  0  0  0  2  0  0  0  0  0  0
  188.4650  175.6280  143.4060 C   0  0  1  0  0  0  0  0  0  0  0  0
  188.5300  175.9610  141.9080 C   0  0  1  0  0  3  0  0  0  0  0  0
  186.2340  178.1540  141.2710 O   0  0  0  0  0  0  0  0  0  0  0  0
  190.8050  173.0690  142.2440 C   0  0  0  0  0  3  0  0  0  0  0  0
  186.5030  178.2800  144.8960 C   0  0  2  0  0  3  0  0  0  0  0  0
  193.1610  171.1100  144.2590 N   0  0  0  0  0  0  0  0  0  0  0  0
  193.3360  171.5190  142.9370 O   0  0  0  0  0  0  0  0  0  0  0  0
  191.5680  170.0530  142.7090 O   0  0  0  0  0  1  0  0  0  0  0  0
  192.0700  171.2140  143.3120 C   0  0  2  0  0  0  0  0  0  0  0  0
  193.6560  169.7430  144.3360 C   0  0  0  0  0  1  0  0  0  0  0  0
  187.7500  176.9330  146.6560 C   0  0  0  0  0  0  0  0  0  0  0  0
  187.8240  177.9490  147.4000 O   0  0  0  0  0  1  0  0  0  0  0  0
  188.0290  175.6740  147.1780 O   0  0  0  0  0  0  0  0  0  0  0  0
  184.8100  177.9630  145.4880 S   0  0  0  0  0  0  0  0  0  0  0  0
  184.1340  179.3820  144.5800 C   0  0  0  0  0  1  0  0  0  0  0  0
  189.9770  177.2140  144.7830 C   0  0  0  0  0  2  0  0  0  0  0  0
  191.8100  177.3450  143.0980 C   0  0  0  0  0  1  0  0  0  0  0  0
  190.7520  178.1320  143.8520 C   0  0  0  0  0  2  0  0  0  0  0  0
  1 28  1  1  0  0  0
  1  7  1  0  0  0  0
  2  9  1  0  0  0  0
  3  8  1  0  0  0  0
  4 17  1  0  0  0  0
  5 12  1  0  0  0  0
  5  4  1  0  0  0  0
  6 11  2  0  0  0  0
  7 23  1  1  0  0  0
  8  6  1  0  0  0  0
 10 12  1  1  0  0  0
 10 13  1  0  0  0  0
 11  9  1  0  0  0  0
 13  6  1  1  0  0  0
 13  1  1  0  0  0  0
 14  3  1  6  0  0  0
 14 10  1  0  0  0  0
 14 13  1  0  0  0  0
 15  5  2  0  0  0  0
 16  8  2  0  0  0  0
 16  2  1  0  0  0  0
 17  7  1  0  0  0  0
 17 26  1  6  0  0  0
 18 22  1  0  0  0  0
 19 21  1  0  0  0  0
 19 18  1  0  0  0  0
 21 20  1  6  0  0  0
 21  2  1  0  0  0  0
 21 18  1  0  0  0  0
 23 25  2  0  0  0  0
 23 24  1  0  0  0  0
 27 26  1  0  0  0  0
 29 30  1  0  0  0  0
 30 28  1  0  0  0  0
M  END
>  <MODEL>
2

>  <REMARK>
 VINA RESULT:      -6.7      2.884      4.528
  Name = 
  5 active torsions:
  status: ('A' for Active; 'I' for Inactive)
    1  A    between atoms: C_1  and  C_22
    2  A    between atoms: S_2  and  C_30
    3  A    between atoms: N_3  and  C_21
    4  A    between atoms: C_9  and  C_14
    5  A    between atoms: C_15  and  C_22
                            x       y       z     vdW  Elec       q    Type
                         _______ _______ _______ _____ _____    ______ ____

>  <TORSDO>
F 5

$$$$
=
 OpenBabel11062419443D

 30 34  0  0  1  0  0  0  0  0999 V2000
  189.1630  176.0430  143.8800 C   0  0  2  0  0  3  0  0  0  0  0  0
  190.4230  171.4160  141.5960 N   0  0  0  0  0  0  0  0  0  0  0  0
  188.6330  174.5840  140.5040 C   0  0  0  0  0  2  0  0  0  0  0  0
  187.3610  178.1660  144.1570 O   0  0  0  0  0  0  0  0  0  0  0  0
  186.6740  177.5460  143.1030 C   0  0  0  0  0  0  0  0  0  0  0  0
  189.2540  173.7130  142.6540 C   0  0  0  0  0  0  0  0  0  0  0  0
  188.3820  176.1550  145.2000 C   0  0  2  0  0  3  0  0  0  0  0  0
  189.3120  173.4940  141.2380 C   0  0  0  0  0  0  0  0  0  0  0  0
  190.3970  171.5590  143.0640 C   0  0  0  0  0  2  0  0  0  0  0  0
  187.0950  175.0870  142.4570 C   0  0  2  0  0  3  0  0  0  0  0  0
  189.7270  172.8320  143.5330 C   0  0  0  0  0  3  0  0  0  0  0  0
  186.3600  176.1490  143.1570 N   0  0  0  0  0  2  0  0  0  0  0  0
  188.5440  174.9800  142.9570 C   0  0  1  0  0  0  0  0  0  0  0  0
  188.2400  175.6090  141.5880 C   0  0  1  0  0  3  0  0  0  0  0  0
  186.3760  178.2120  142.0790 O   0  0  0  0  0  0  0  0  0  0  0  0
  189.8490  172.3990  140.7180 C   0  0  0  0  0  3  0  0  0  0  0  0
  187.7080  177.5240  145.3930 C   0  0  2  0  0  3  0  0  0  0  0  0
  192.1840  170.2990  140.2720 N   0  0  0  0  0  0  0  0  0  0  0  0
  190.9360  170.1800  139.6620 O   0  0  0  0  0  0  0  0  0  0  0  0
  190.5950  168.9600  141.5920 O   0  0  0  0  0  1  0  0  0  0  0  0
  190.9480  170.1890  141.0180 C   0  0  2  0  0  0  0  0  0  0  0  0
  192.8320  169.0010  140.1420 C   0  0  0  0  0  1  0  0  0  0  0  0
  189.0990  175.6590  146.4220 C   0  0  0  0  0  0  0  0  0  0  0  0
  189.1090  174.4300  146.7060 O   0  0  0  0  0  0  0  0  0  0  0  0
  189.7250  176.5690  147.2660 O   0  0  0  0  0  1  0  0  0  0  0  0
  186.2330  177.3510  146.4470 S   0  0  0  0  0  0  0  0  0  0  0  0
  185.7450  179.0810  146.1960 C   0  0  0  0  0  1  0  0  0  0  0  0
  190.6910  175.9880  143.9920 C   0  0  0  0  0  2  0  0  0  0  0  0
  190.9630  178.4470  143.6870 C   0  0  0  0  0  1  0  0  0  0  0  0
  191.3330  177.0760  143.1480 C   0  0  0  0  0  2  0  0  0  0  0  0
  1 28  1  1  0  0  0
  1  7  1  0  0  0  0
  2  9  1  0  0  0  0
  3  8  1  0  0  0  0
  4 17  1  0  0  0  0
  5 12  1  0  0  0  0
  5  4  1  0  0  0  0
  6 11  2  0  0  0  0
  7 17  1  0  0  0  0
  7 23  1  1  0  0  0
  8  6  1  0  0  0  0
  9 11  1  0  0  0  0
 10 13  1  0  0  0  0
 10 12  1  1  0  0  0
 13  6  1  1  0  0  0
 13  1  1  0  0  0  0
 14  3  1  6  0  0  0
 14 10  1  0  0  0  0
 14 13  1  0  0  0  0
 15  5  2  0  0  0  0
 16  8  2  0  0  0  0
 16  2  1  0  0  0  0
 17 26  1  1  0  0  0
 18 21  1  0  0  0  0
 19 18  1  0  0  0  0
 19 21  1  0  0  0  0
 21 20  1  1  0  0  0
 21  2  1  0  0  0  0
 22 18  1  0  0  0  0
 23 24  2  0  0  0  0
 23 25  1  0  0  0  0
 27 26  1  0  0  0  0
 30 29  1  0  0  0  0
 30 28  1  0  0  0  0
M  END
>  <MODEL>
3

>  <REMARK>
 VINA RESULT:      -6.6      3.626      5.496
  Name = 
  5 active torsions:
  status: ('A' for Active; 'I' for Inactive)
    1  A    between atoms: C_1  and  C_22
    2  A    between atoms: S_2  and  C_30
    3  A    between atoms: N_3  and  C_21
    4  A    between atoms: C_9  and  C_14
    5  A    between atoms: C_15  and  C_22
                            x       y       z     vdW  Elec       q    Type
                         _______ _______ _______ _____ _____    ______ ____

>  <TORSDO>
F 5

$$$$
=
 OpenBabel11062419443D

 30 34  0  0  1  0  0  0  0  0999 V2000
  191.8560  174.6800  145.3780 C   0  0  2  0  0  3  0  0  0  0  0  0
  187.7580  176.7290  142.6920 N   0  0  0  0  0  0  0  0  0  0  0  0
  189.1410  173.2420  143.2890 C   0  0  0  0  0  2  0  0  0  0  0  0
  193.8680  172.7440  145.5700 O   0  0  0  0  0  0  0  0  0  0  0  0
  193.2570  172.1890  144.4350 C   0  0  0  0  0  0  0  0  0  0  0  0
  190.0460  175.4410  143.6220 C   0  0  0  0  0  0  0  0  0  0  0  0
  193.3120  175.1350  145.1860 C   0  0  2  0  0  3  0  0  0  0  0  0
  188.8920  174.6980  143.2060 C   0  0  0  0  0  0  0  0  0  0  0  0
  188.9040  177.5690  143.0910 C   0  0  0  0  0  2  0  0  0  0  0  0
  191.6380  173.5410  142.9550 C   0  0  2  0  0  3  0  0  0  0  0  0
  190.0990  176.7710  143.5640 C   0  0  0  0  0  3  0  0  0  0  0  0
  192.9610  173.0010  143.2930 N   0  0  0  0  0  2  0  0  0  0  0  0
  191.1400  174.5240  144.0270 C   0  0  1  0  0  0  0  0  0  0  0  0
  190.5390  173.1130  143.9290 C   0  0  1  0  0  3  0  0  0  0  0  0
  192.9190  170.9770  144.4430 O   0  0  0  0  0  0  0  0  0  0  0  0
  187.8010  175.2930  142.7460 C   0  0  0  0  0  3  0  0  0  0  0  0
  194.3420  174.0960  145.6600 C   0  0  2  0  0  3  0  0  0  0  0  0
  186.6690  177.7670  140.7320 N   0  0  0  0  0  0  0  0  0  0  0  0
  186.7790  178.6680  141.7900 O   0  0  0  0  0  0  0  0  0  0  0  0
  185.3260  177.1150  142.6890 O   0  0  0  0  0  1  0  0  0  0  0  0
  186.5820  177.3680  142.1210 C   0  0  2  0  0  0  0  0  0  0  0  0
  185.3440  177.9610  140.1610 C   0  0  0  0  0  1  0  0  0  0  0  0
  193.6190  176.5350  145.6340 C   0  0  0  0  0  0  0  0  0  0  0  0
  193.3490  177.5200  144.8940 O   0  0  0  0  0  0  0  0  0  0  0  0
  194.2400  176.7420  146.8600 O   0  0  0  0  0  1  0  0  0  0  0  0
  195.8930  174.2820  144.7250 S   0  0  0  0  0  0  0  0  0  0  0  0
  196.8880  173.5730  146.0670 C   0  0  0  0  0  1  0  0  0  0  0  0
  191.0470  175.4130  146.4550 C   0  0  0  0  0  2  0  0  0  0  0  0
  188.6130  175.3590  146.9930 C   0  0  0  0  0  1  0  0  0  0  0  0
  189.8980  174.5490  146.9460 C   0  0  0  0  0  2  0  0  0  0  0  0
  1 28  1  1  0  0  0
  2 16  1  0  0  0  0
  2  9  1  0  0  0  0
  4 17  1  0  0  0  0
  5 15  2  0  0  0  0
  5  4  1  0  0  0  0
  7  1  1  0  0  0  0
  7 23  1  1  0  0  0
  7 17  1  0  0  0  0
  8  3  1  0  0  0  0
  8  6  1  0  0  0  0
  9 11  1  0  0  0  0
 10 12  1  1  0  0  0
 10 14  1  0  0  0  0
 10 13  1  0  0  0  0
 11  6  2  0  0  0  0
 12  5  1  0  0  0  0
 13  6  1  6  0  0  0
 13  1  1  0  0  0  0
 14  3  1  6  0  0  0
 14 13  1  0  0  0  0
 16  8  2  0  0  0  0
 17 26  1  6  0  0  0
 18 19  1  0  0  0  0
 18 21  1  0  0  0  0
 19 21  1  0  0  0  0
 21 20  1  1  0  0  0
 21  2  1  0  0  0  0
 22 18  1  0  0  0  0
 23 25  1  0  0  0  0
 24 23  2  0  0  0  0
 26 27  1  0  0  0  0
 28 30  1  0  0  0  0
 30 29  1  0  0  0  0
M  END
>  <MODEL>
4

>  <REMARK>
 VINA RESULT:      -6.5      3.152      7.579
  Name = 
  5 active torsions:
  status: ('A' for Active; 'I' for Inactive)
    1  A    between atoms: C_1  and  C_22
    2  A    between atoms: S_2  and  C_30
    3  A    between atoms: N_3  and  C_21
    4  A    between atoms: C_9  and  C_14
    5  A    between atoms: C_15  and  C_22
                            x       y       z     vdW  Elec       q    Type
                         _______ _______ _______ _____ _____    ______ ____

>  <TORSDO>
F 5

$$$$
=
 OpenBabel11062419443D

 30 34  0  0  1  0  0  0  0  0999 V2000
  188.7210  176.6420  144.1760 C   0  0  2  0  0  3  0  0  0  0  0  0
  190.6060  172.0980  142.1720 N   0  0  0  0  0  0  0  0  0  0  0  0
  188.5550  175.0070  140.8430 C   0  0  0  0  0  2  0  0  0  0  0  0
  186.6880  178.5630  144.2580 O   0  0  0  0  0  0  0  0  0  0  0  0
  186.1360  177.8310  143.1960 C   0  0  0  0  0  0  0  0  0  0  0  0
  189.1360  174.2910  143.0610 C   0  0  0  0  0  0  0  0  0  0  0  0
  187.8550  176.7170  145.4440 C   0  0  2  0  0  3  0  0  0  0  0  0
  189.3010  174.0260  141.6620 C   0  0  0  0  0  0  0  0  0  0  0  0
  190.4770  172.2930  143.6290 C   0  0  0  0  0  2  0  0  0  0  0  0
  186.8570  175.4110  142.6840 C   0  0  2  0  0  3  0  0  0  0  0  0
  189.6470  173.5010  144.0040 C   0  0  0  0  0  3  0  0  0  0  0  0
  185.9720  176.4110  143.2950 N   0  0  0  0  0  2  0  0  0  0  0  0
  188.2770  175.4830  143.2680 C   0  0  1  0  0  0  0  0  0  0  0  0
  187.9900  176.0220  141.8580 C   0  0  1  0  0  3  0  0  0  0  0  0
  185.8310  178.4220  142.1290 O   0  0  0  0  0  0  0  0  0  0  0  0
  189.9830  172.9780  141.2210 C   0  0  0  0  0  3  0  0  0  0  0  0
  187.0280  178.0100  145.5390 C   0  0  2  0  0  3  0  0  0  0  0  0
  192.6640  171.0920  141.2490 N   0  0  0  0  0  0  0  0  0  0  0  0
  191.5970  170.9750  140.3590 O   0  0  0  0  0  0  0  0  0  0  0  0
  190.8600  169.6500  142.1000 O   0  0  0  0  0  1  0  0  0  0  0  0
  191.2930  170.9150  141.6790 C   0  0  2  0  0  0  0  0  0  0  0  0
  193.3690  169.8180  141.2160 C   0  0  0  0  0  1  0  0  0  0  0  0
  188.5460  176.3500  146.7250 C   0  0  0  0  0  0  0  0  0  0  0  0
  189.1410  177.2270  147.4090 O   0  0  0  0  0  1  0  0  0  0  0  0
  188.5610  175.0230  147.1400 O   0  0  0  0  0  0  0  0  0  0  0  0
  185.5190  177.7160  146.5170 S   0  0  0  0  0  0  0  0  0  0  0  0
  185.9190  179.0410  147.6910 C   0  0  0  0  0  1  0  0  0  0  0  0
  190.2370  176.7590  144.3750 C   0  0  0  0  0  2  0  0  0  0  0  0
  192.1560  176.7850  142.7840 C   0  0  0  0  0  1  0  0  0  0  0  0
  190.8790  177.4900  143.2070 C   0  0  0  0  0  2  0  0  0  0  0  0
  1 28  1  1  0  0  0
  1  7  1  0  0  0  0
  2  9  1  0  0  0  0
  3  8  1  0  0  0  0
  4 17  1  0  0  0  0
  5 12  1  0  0  0  0
  5  4  1  0  0  0  0
  6 11  2  0  0  0  0
  7 17  1  0  0  0  0
  7 23  1  1  0  0  0
  8  6  1  0  0  0  0
  9 11  1  0  0  0  0
 10 13  1  0  0  0  0
 10 12  1  1  0  0  0
 13  6  1  1  0  0  0
 13  1  1  0  0  0  0
 14  3  1  6  0  0  0
 14 10  1  0  0  0  0
 14 13  1  0  0  0  0
 15  5  2  0  0  0  0
 16  8  2  0  0  0  0
 16  2  1  0  0  0  0
 17 26  1  6  0  0  0
 18 21  1  0  0  0  0
 19 18  1  0  0  0  0
 19 21  1  0  0  0  0
 21 20  1  1  0  0  0
 21  2  1  0  0  0  0
 22 18  1  0  0  0  0
 23 25  2  0  0  0  0
 23 24  1  0  0  0  0
 26 27  1  0  0  0  0
 29 30  1  0  0  0  0
 30 28  1  0  0  0  0
M  END
>  <MODEL>
5

>  <REMARK>
 VINA RESULT:      -6.4      3.235      5.025
  Name = 
  5 active torsions:
  status: ('A' for Active; 'I' for Inactive)
    1  A    between atoms: C_1  and  C_22
    2  A    between atoms: S_2  and  C_30
    3  A    between atoms: N_3  and  C_21
    4  A    between atoms: C_9  and  C_14
    5  A    between atoms: C_15  and  C_22
                            x       y       z     vdW  Elec       q    Type
                         _______ _______ _______ _____ _____    ______ ____

>  <TORSDO>
F 5

$$$$
=
 OpenBabel11062419443D

 30 34  0  0  1  0  0  0  0  0999 V2000
  193.5280  175.0180  144.3160 C   0  0  2  0  0  3  0  0  0  0  0  0
  188.6380  176.9740  143.6250 N   0  0  0  0  0  0  0  0  0  0  0  0
  190.1180  173.8730  145.2450 C   0  0  0  0  0  2  0  0  0  0  0  0
  195.2190  172.7940  144.4690 O   0  0  0  0  0  0  0  0  0  0  0  0
  194.0310  172.0520  144.3890 C   0  0  0  0  0  0  0  0  0  0  0  0
  191.0070  175.5120  143.7310 C   0  0  0  0  0  0  0  0  0  0  0  0
  194.5240  174.7930  143.1660 C   0  0  2  0  0  3  0  0  0  0  0  0
  189.8600  175.1250  144.5000 C   0  0  0  0  0  0  0  0  0  0  0  0
  189.7680  177.4360  142.7950 C   0  0  0  0  0  2  0  0  0  0  0  0
  191.8280  173.0870  143.5440 C   0  0  2  0  0  3  0  0  0  0  0  0
  190.9980  176.5640  142.9150 C   0  0  0  0  0  3  0  0  0  0  0  0
  193.0680  172.3220  143.3630 N   0  0  0  0  0  2  0  0  0  0  0  0
  192.1160  174.5470  143.9290 C   0  0  1  0  0  0  0  0  0  0  0  0
  191.6040  173.5540  144.9830 C   0  0  1  0  0  3  0  0  0  0  0  0
  193.7870  171.1770  145.2580 O   0  0  0  0  0  0  0  0  0  0  0  0
  188.7200  175.7990  144.4490 C   0  0  0  0  0  3  0  0  0  0  0  0
  195.6290  173.7810  143.5100 C   0  0  2  0  0  3  0  0  0  0  0  0
  186.4600  177.2160  142.4840 N   0  0  0  0  0  0  0  0  0  0  0  0
  187.2220  178.3800  142.3810 O   0  0  0  0  0  0  0  0  0  0  0  0
  186.8440  178.3080  144.6560 O   0  0  0  0  0  1  0  0  0  0  0  0
  187.3620  177.6660  143.5240 C   0  0  2  0  0  0  0  0  0  0  0  0
  185.0950  177.6400  142.7590 C   0  0  0  0  0  1  0  0  0  0  0  0
  195.0320  176.0360  142.4950 C   0  0  0  0  0  0  0  0  0  0  0  0
  194.4040  176.5460  141.5280 O   0  0  0  0  0  0  0  0  0  0  0  0
  196.2260  176.6070  142.9220 O   0  0  0  0  0  1  0  0  0  0  0  0
  196.2290  172.9720  141.9920 S   0  0  0  0  0  0  0  0  0  0  0  0
  197.9410  173.4990  142.2840 C   0  0  0  0  0  1  0  0  0  0  0  0
  193.5830  176.3850  145.0100 C   0  0  0  0  0  2  0  0  0  0  0  0
  192.3490  176.4220  147.1760 C   0  0  0  0  0  1  0  0  0  0  0  0
  193.7020  176.2190  146.5160 C   0  0  0  0  0  2  0  0  0  0  0  0
  1 28  1  6  0  0  0
  2 16  1  0  0  0  0
  5  4  1  0  0  0  0
  5 15  2  0  0  0  0
  6  8  1  0  0  0  0
  7 23  1  1  0  0  0
  7 17  1  0  0  0  0
  7  1  1  0  0  0  0
  8  3  1  0  0  0  0
  9 11  1  0  0  0  0
  9  2  1  0  0  0  0
 10 12  1  1  0  0  0
 10 13  1  0  0  0  0
 10 14  1  0  0  0  0
 11  6  2  0  0  0  0
 12  5  1  0  0  0  0
 13  6  1  6  0  0  0
 13  1  1  0  0  0  0
 13 14  1  0  0  0  0
 14  3  1  6  0  0  0
 16  8  2  0  0  0  0
 17 26  1  6  0  0  0
 17  4  1  0  0  0  0
 18 22  1  0  0  0  0
 18 21  1  0  0  0  0
 19 18  1  0  0  0  0
 19 21  1  0  0  0  0
 21  2  1  0  0  0  0
 21 20  1  1  0  0  0
 23 25  1  0  0  0  0
 24 23  2  0  0  0  0
 26 27  1  0  0  0  0
 28 30  1  0  0  0  0
 30 29  1  0  0  0  0
M  END
>  <MODEL>
6

>  <REMARK>
 VINA RESULT:      -6.2      3.193      7.719
  Name = 
  5 active torsions:
  status: ('A' for Active; 'I' for Inactive)
    1  A    between atoms: C_1  and  C_22
    2  A    between atoms: S_2  and  C_30
    3  A    between atoms: N_3  and  C_21
    4  A    between atoms: C_9  and  C_14
    5  A    between atoms: C_15  and  C_22
                            x       y       z     vdW  Elec       q    Type
                         _______ _______ _______ _____ _____    ______ ____

>  <TORSDO>
F 5

$$$$
=
 OpenBabel11062419443D

 30 34  0  0  1  0  0  0  0  0999 V2000
  191.4020  174.7360  144.3760 C   0  0  2  0  0  3  0  0  0  0  0  0
  186.9560  177.0390  142.6040 N   0  0  0  0  0  0  0  0  0  0  0  0
  188.4970  173.5750  142.3710 C   0  0  0  0  0  2  0  0  0  0  0  0
  193.4750  172.9010  143.9710 O   0  0  0  0  0  0  0  0  0  0  0  0
  192.7490  172.5350  142.8280 C   0  0  0  0  0  0  0  0  0  0  0  0
  189.3740  175.7180  143.0100 C   0  0  0  0  0  0  0  0  0  0  0  0
  192.8110  175.2910  144.1110 C   0  0  2  0  0  3  0  0  0  0  0  0
  188.2000  175.0070  142.5940 C   0  0  0  0  0  0  0  0  0  0  0  0
  188.1180  177.8470  143.0230 C   0  0  0  0  0  2  0  0  0  0  0  0
  190.9270  174.0550  141.8220 C   0  0  2  0  0  3  0  0  0  0  0  0
  189.3830  177.0360  143.2000 C   0  0  0  0  0  3  0  0  0  0  0  0
  192.2960  173.5290  141.9000 N   0  0  0  0  0  2  0  0  0  0  0  0
  190.5330  174.7970  143.1090 C   0  0  1  0  0  0  0  0  0  0  0  0
  189.9650  173.4000  142.8140 C   0  0  1  0  0  3  0  0  0  0  0  0
  192.4480  171.3280  142.6440 O   0  0  0  0  0  0  0  0  0  0  0  0
  187.0460  175.6220  142.3800 C   0  0  0  0  0  3  0  0  0  0  0  0
  193.9190  174.2350  144.2610 C   0  0  2  0  0  3  0  0  0  0  0  0
  185.4680  178.0540  140.9130 N   0  0  0  0  0  0  0  0  0  0  0  0
  185.8640  178.9880  141.8690 O   0  0  0  0  0  0  0  0  0  0  0  0
  184.6120  177.5440  143.1630 O   0  0  0  0  0  1  0  0  0  0  0  0
  185.7030  177.7140  142.3010 C   0  0  2  0  0  0  0  0  0  0  0  0
  184.0530  178.2910  140.6660 C   0  0  0  0  0  1  0  0  0  0  0  0
  193.1300  176.5980  144.7780 C   0  0  0  0  0  0  0  0  0  0  0  0
  192.6820  177.6820  144.3160 O   0  0  0  0  0  0  0  0  0  0  0  0
  193.9580  176.6130  145.8950 O   0  0  0  0  0  1  0  0  0  0  0  0
  195.3410  174.6680  143.2100 S   0  0  0  0  0  0  0  0  0  0  0  0
  196.3230  173.2640  143.8110 C   0  0  0  0  0  1  0  0  0  0  0  0
  190.7080  175.2170  145.6560 C   0  0  0  0  0  2  0  0  0  0  0  0
  188.9430  174.7100  147.3420 C   0  0  0  0  0  1  0  0  0  0  0  0
  189.7470  174.1610  146.1760 C   0  0  0  0  0  2  0  0  0  0  0  0
  1 28  1  1  0  0  0
  2  9  1  0  0  0  0
  3  8  1  0  0  0  0
  4 17  1  0  0  0  0
  5  4  1  0  0  0  0
  6 11  2  0  0  0  0
  7 17  1  0  0  0  0
  7  1  1  0  0  0  0
  7 23  1  1  0  0  0
  8  6  1  0  0  0  0
  9 11  1  0  0  0  0
 10 12  1  1  0  0  0
 10 14  1  0  0  0  0
 10 13  1  0  0  0  0
 12  5  1  0  0  0  0
 13  6  1  6  0  0  0
 13  1  1  0  0  0  0
 14  3  1  6  0  0  0
 14 13  1  0  0  0  0
 15  5  2  0  0  0  0
 16  8  2  0  0  0  0
 16  2  1  0  0  0  0
 17 26  1  6  0  0  0
 18 19  1  0  0  0  0
 18 21  1  0  0  0  0
 19 21  1  0  0  0  0
 21  2  1  0  0  0  0
 21 20  1  1  0  0  0
 22 18  1  0  0  0  0
 23 25  1  0  0  0  0
 24 23  2  0  0  0  0
 26 27  1  0  0  0  0
 28 30  1  0  0  0  0
 30 29  1  0  0  0  0
M  END
>  <MODEL>
7

>  <REMARK>
 VINA RESULT:      -6.1      3.266      7.729
  Name = 
  5 active torsions:
  status: ('A' for Active; 'I' for Inactive)
    1  A    between atoms: C_1  and  C_22
    2  A    between atoms: S_2  and  C_30
    3  A    between atoms: N_3  and  C_21
    4  A    between atoms: C_9  and  C_14
    5  A    between atoms: C_15  and  C_22
                            x       y       z     vdW  Elec       q    Type
                         _______ _______ _______ _____ _____    ______ ____

>  <TORSDO>
F 5

$$$$
=
 OpenBabel11062419443D

 30 34  0  0  1  0  0  0  0  0999 V2000
  192.8900  174.9690  144.4870 C   0  0  2  0  0  3  0  0  0  0  0  0
  188.2890  176.9220  146.2850 N   0  0  0  0  0  0  0  0  0  0  0  0
  189.5750  175.6410  142.9470 C   0  0  0  0  0  2  0  0  0  0  0  0
  194.7390  174.7300  142.4000 O   0  0  0  0  0  0  0  0  0  0  0  0
  193.7710  175.4070  141.6430 C   0  0  0  0  0  0  0  0  0  0  0  0
  190.6710  176.3010  144.9800 C   0  0  0  0  0  0  0  0  0  0  0  0
  194.2370  175.6950  144.6350 C   0  0  2  0  0  3  0  0  0  0  0  0
  189.4020  176.1170  144.3380 C   0  0  0  0  0  0  0  0  0  0  0  0
  189.5510  177.1510  147.0150 C   0  0  0  0  0  2  0  0  0  0  0  0
  191.8560  176.7330  142.7450 C   0  0  2  0  0  3  0  0  0  0  0  0
  190.7840  176.7970  146.2110 C   0  0  0  0  0  3  0  0  0  0  0  0
  193.1830  176.6220  142.1260 N   0  0  0  0  0  2  0  0  0  0  0  0
  191.7780  175.9430  144.0600 C   0  0  1  0  0  0  0  0  0  0  0  0
  191.0930  175.4090  142.7930 C   0  0  1  0  0  3  0  0  0  0  0  0
  193.3800  174.9160  140.5540 O   0  0  0  0  0  0  0  0  0  0  0  0
  188.2600  176.4220  144.9370 C   0  0  0  0  0  3  0  0  0  0  0  0
  195.2990  175.2170  143.6290 C   0  0  2  0  0  3  0  0  0  0  0  0
  186.3440  178.4450  146.3150 N   0  0  0  0  0  0  0  0  0  0  0  0
  187.0830  178.5390  147.4940 O   0  0  0  0  0  0  0  0  0  0  0  0
  186.3080  176.3690  147.6380 O   0  0  0  0  0  1  0  0  0  0  0  0
  187.0350  177.3180  146.9070 C   0  0  2  0  0  0  0  0  0  0  0  0
  184.9420  178.4600  146.7060 C   0  0  0  0  0  1  0  0  0  0  0  0
  194.7530  175.8260  146.0380 C   0  0  0  0  0  0  0  0  0  0  0  0
  194.3690  176.7730  146.7780 O   0  0  0  0  0  1  0  0  0  0  0  0
  195.6900  174.9150  146.5130 O   0  0  0  0  0  0  0  0  0  0  0  0
  196.4880  176.5540  143.2930 S   0  0  0  0  0  0  0  0  0  0  0  0
  197.5340  175.4820  142.2670 C   0  0  0  0  0  1  0  0  0  0  0  0
  192.5040  174.0070  145.6160 C   0  0  0  0  0  2  0  0  0  0  0  0
  192.7620  172.1830  143.9350 C   0  0  0  0  0  1  0  0  0  0  0  0
  193.0680  172.6190  145.3580 C   0  0  0  0  0  2  0  0  0  0  0  0
  1  7  1  0  0  0  0
  1 28  1  1  0  0  0
  2 21  1  0  0  0  0
  2  9  1  0  0  0  0
  3  8  1  0  0  0  0
  4 17  1  0  0  0  0
  5 12  1  0  0  0  0
  5  4  1  0  0  0  0
  6 11  2  0  0  0  0
  7 23  1  1  0  0  0
  8 16  2  0  0  0  0
  8  6  1  0  0  0  0
 10 12  1  6  0  0  0
 10 14  1  0  0  0  0
 10 13  1  0  0  0  0
 11  9  1  0  0  0  0
 13  1  1  0  0  0  0
 13  6  1  1  0  0  0
 14  3  1  1  0  0  0
 14 13  1  0  0  0  0
 15  5  2  0  0  0  0
 16  2  1  0  0  0  0
 17 26  1  6  0  0  0
 17  7  1  0  0  0  0
 18 22  1  0  0  0  0
 18 21  1  0  0  0  0
 18 19  1  0  0  0  0
 21 19  1  0  0  0  0
 21 20  1  1  0  0  0
 23 25  2  0  0  0  0
 23 24  1  0  0  0  0
 27 26  1  0  0  0  0
 29 30  1  0  0  0  0
 30 28  1  0  0  0  0
M  END
>  <MODEL>
8

>  <REMARK>
 VINA RESULT:      -6.1      3.138      7.674
  Name = 
  5 active torsions:
  status: ('A' for Active; 'I' for Inactive)
    1  A    between atoms: C_1  and  C_22
    2  A    between atoms: S_2  and  C_30
    3  A    between atoms: N_3  and  C_21
    4  A    between atoms: C_9  and  C_14
    5  A    between atoms: C_15  and  C_22
                            x       y       z     vdW  Elec       q    Type
                         _______ _______ _______ _____ _____    ______ ____

>  <TORSDO>
F 5

$$$$
=
 OpenBabel11062419443D

 30 34  0  0  1  0  0  0  0  0999 V2000
  191.8820  174.5480  144.8110 C   0  0  2  0  0  3  0  0  0  0  0  0
  187.5090  177.2220  143.4190 N   0  0  0  0  0  0  0  0  0  0  0  0
  188.8890  173.7440  142.7620 C   0  0  0  0  0  2  0  0  0  0  0  0
  193.8630  172.6840  144.1510 O   0  0  0  0  0  0  0  0  0  0  0  0
  193.0980  172.4800  142.9930 C   0  0  0  0  0  0  0  0  0  0  0  0
  189.8730  175.7620  143.6140 C   0  0  0  0  0  0  0  0  0  0  0  0
  193.3090  175.0690  144.5740 C   0  0  2  0  0  3  0  0  0  0  0  0
  188.6610  175.1530  143.1510 C   0  0  0  0  0  0  0  0  0  0  0  0
  188.7140  177.9270  143.8970 C   0  0  0  0  0  2  0  0  0  0  0  0
  191.3260  174.1790  142.2090 C   0  0  2  0  0  3  0  0  0  0  0  0
  189.9440  177.0480  143.9500 C   0  0  0  0  0  3  0  0  0  0  0  0
  192.6710  173.5900  142.1930 N   0  0  0  0  0  2  0  0  0  0  0  0
  190.9920  174.7870  143.5800 C   0  0  1  0  0  0  0  0  0  0  0  0
  190.3560  173.4580  143.1450 C   0  0  1  0  0  3  0  0  0  0  0  0
  192.7400  171.3150  142.6830 O   0  0  0  0  0  0  0  0  0  0  0  0
  187.5310  175.8360  143.0360 C   0  0  0  0  0  3  0  0  0  0  0  0
  194.3710  173.9570  144.5770 C   0  0  2  0  0  3  0  0  0  0  0  0
  185.3350  177.9740  144.3200 N   0  0  0  0  0  0  0  0  0  0  0  0
  185.1710  177.2040  143.1690 O   0  0  0  0  0  0  0  0  0  0  0  0
  186.2740  179.0410  142.3100 O   0  0  0  0  0  1  0  0  0  0  0  0
  186.2820  177.9780  143.2240 C   0  0  2  0  0  0  0  0  0  0  0  0
  184.4030  179.0860  144.2080 C   0  0  0  0  0  1  0  0  0  0  0  0
  193.7000  176.2770  145.3750 C   0  0  0  0  0  0  0  0  0  0  0  0
  193.3550  177.4330  145.0050 O   0  0  0  0  0  0  0  0  0  0  0  0
  194.4800  176.1210  146.5150 O   0  0  0  0  0  1  0  0  0  0  0  0
  195.7900  174.4450  143.5460 S   0  0  0  0  0  0  0  0  0  0  0  0
  196.9740  174.1790  144.8960 C   0  0  0  0  0  1  0  0  0  0  0  0
  191.2360  174.9090  146.1530 C   0  0  0  0  0  2  0  0  0  0  0  0
  188.9750  174.9100  147.2040 C   0  0  0  0  0  1  0  0  0  0  0  0
  189.9620  174.1100  146.3700 C   0  0  0  0  0  2  0  0  0  0  0  0
  1 28  1  1  0  0  0
  2  9  1  0  0  0  0
  3  8  1  0  0  0  0
  4 17  1  0  0  0  0
  5  4  1  0  0  0  0
  6 11  2  0  0  0  0
  7 17  1  0  0  0  0
  7  1  1  0  0  0  0
  7 23  1  1  0  0  0
  8  6  1  0  0  0  0
  9 11  1  0  0  0  0
 10 12  1  1  0  0  0
 10 14  1  0  0  0  0
 10 13  1  0  0  0  0
 12  5  1  0  0  0  0
 13  6  1  1  0  0  0
 13  1  1  0  0  0  0
 14  3  1  6  0  0  0
 14 13  1  0  0  0  0
 15  5  2  0  0  0  0
 16  8  2  0  0  0  0
 16  2  1  0  0  0  0
 17 26  1  6  0  0  0
 19 21  1  0  0  0  0
 19 18  1  0  0  0  0
 21 20  1  6  0  0  0
 21  2  1  0  0  0  0
 21 18  1  0  0  0  0
 22 18  1  0  0  0  0
 23 25  1  0  0  0  0
 24 23  2  0  0  0  0
 26 27  1  0  0  0  0
 28 30  1  0  0  0  0
 30 29  1  0  0  0  0
M  END
>  <MODEL>
9

>  <REMARK>
 VINA RESULT:      -6.1      2.989      7.673
  Name = 
  5 active torsions:
  status: ('A' for Active; 'I' for Inactive)
    1  A    between atoms: C_1  and  C_22
    2  A    between atoms: S_2  and  C_30
    3  A    between atoms: N_3  and  C_21
    4  A    between atoms: C_9  and  C_14
    5  A    between atoms: C_15  and  C_22
                            x       y       z     vdW  Elec       q    Type
                         _______ _______ _______ _____ _____    ______ ____

>  <TORSDO>
F 5

$$$$
