=
 OpenBabel11062420053D

 35 39  0  0  1  0  0  0  0  0999 V2000
  189.7390  175.8350  145.7950 C   0  0  1  0  0  0  0  0  0  0  0  0
  191.0250  175.2170  147.7820 C   0  0  0  0  0  3  0  0  0  0  0  0
  188.7700  175.0420  145.0340 N   0  0  0  0  0  2  0  0  0  0  0  0
  188.5800  176.5000  145.1930 C   0  0  1  0  0  3  0  0  0  0  0  0
  189.8230  175.4030  147.2280 C   0  0  0  0  0  3  0  0  0  0  0  0
  192.2350  175.3970  147.0250 N   0  0  0  0  0  0  0  0  0  0  0  0
  191.0000  175.9470  145.0720 N   0  0  0  0  0  2  0  0  0  0  0  0
  192.2440  175.7250  145.7640 C   0  0  0  0  0  0  0  0  0  0  0  0
  185.2560  178.1190  147.4610 C   0  0  0  0  0  3  0  0  0  0  0  0
  187.4370  176.7630  146.1780 C   0  0  2  0  0  3  0  0  0  0  0  0
  186.1040  176.8860  145.4300 C   0  0  1  0  0  3  0  0  0  0  0  0
  187.7210  178.0180  147.0130 C   0  0  0  0  0  2  0  0  0  0  0  0
  186.5040  178.5150  147.7530 C   0  0  0  0  0  3  0  0  0  0  0  0
  184.9630  177.0620  146.4360 C   0  0  0  0  0  2  0  0  0  0  0  0
  186.1470  178.0000  144.4820 N   0  0  0  0  0  2  0  0  0  0  0  0
  184.1310  178.2740  143.1520 C   0  0  0  0  0  2  0  0  0  0  0  0
  183.4520  178.0000  141.8030 C   0  0  2  0  0  3  0  0  0  0  0  0
  185.6960  177.8220  140.6710 C   0  0  0  0  0  2  0  0  0  0  0  0
  186.3180  177.9950  142.0220 C   0  0  0  0  0  0  0  0  0  0  0  0
  184.3300  178.4990  140.6520 C   0  0  0  0  0  2  0  0  0  0  0  0
  187.4600  178.4170  142.1210 O   0  0  0  0  0  0  0  0  0  0  0  0
  185.5040  177.6030  143.2340 C   0  0  1  0  0  3  0  0  0  0  0  0
  182.2190  178.6520  141.7580 O   0  0  0  0  0  0  0  0  0  0  0  0
  181.6320  178.2490  140.5560 C   0  0  0  0  0  1  0  0  0  0  0  0
  194.6210  175.4310  145.5830 C   0  0  0  0  0  0  0  0  0  0  0  0
  193.5260  175.9180  145.0660 C   0  0  0  0  0  0  0  0  0  0  0  0
  195.6820  174.8830  146.1190 C   0  0  0  0  0  3  0  0  0  0  0  0
  193.5330  176.3330  143.7050 N   0  0  0  0  0  1  0  0  0  0  0  0
  196.9630  174.1880  144.1570 C   0  0  0  0  0  3  0  0  0  0  0  0
  197.7480  173.1940  143.4010 C   0  0  0  0  0  3  0  0  0  0  0  0
  196.8860  172.6370  146.0980 C   0  0  0  0  0  2  0  0  0  0  0  0
  197.4190  170.3860  145.4770 O   0  0  0  0  0  0  0  0  0  0  0  0
  196.5090  173.9140  145.3910 C   0  0  0  0  0  0  0  0  0  0  0  0
  197.4170  171.6020  145.1440 C   0  0  0  0  0  0  0  0  0  0  0  0
  197.9350  171.9950  143.8680 N   0  0  0  0  0  0  0  0  0  0  0  0
  1  5  1  1  0  0  0
  3  1  1  0  0  0  0
  4  3  1  6  0  0  0
  4  1  1  0  0  0  0
  4 10  1  0  0  0  0
  5  2  2  0  0  0  0
  6  2  1  0  0  0  0
  7  8  1  0  0  0  0
  7  1  1  0  0  0  0
  8  6  2  0  0  0  0
  9 13  2  0  0  0  0
 10 12  1  6  0  0  0
 11 15  1  6  0  0  0
 11 10  1  0  0  0  0
 11 14  1  0  0  0  0
 12 13  1  0  0  0  0
 14  9  1  0  0  0  0
 16 22  1  0  0  0  0
 17 23  1  1  0  0  0
 17 16  1  0  0  0  0
 18 19  1  0  0  0  0
 19 21  2  0  0  0  0
 19 22  1  0  0  0  0
 20 18  1  0  0  0  0
 20 17  1  0  0  0  0
 22 15  1  1  0  0  0
 24 23  1  0  0  0  0
 25 27  2  0  0  0  0
 26 25  2  0  0  0  0
 26  8  1  0  0  0  0
 28 26  1  0  0  0  0
 29 33  2  0  0  0  0
 30 35  2  0  0  0  0
 30 29  1  0  0  0  0
 33 31  1  0  0  0  0
 33 27  1  0  0  0  0
 34 32  2  0  0  0  0
 34 31  1  0  0  0  0
 35 34  1  0  0  0  0
M  END
>  <MODEL>
1

>  <REMARK>
 VINA RESULT:      -9.0      0.000      0.000
  Name = 
  6 active torsions:
  status: ('A' for Active; 'I' for Inactive)
    1  A    between atoms: C_3  and  O_17
    2  A    between atoms: C_9  and  C_31
    3  A    between atoms: C_11  and  C_24
    4  A    between atoms: C_12  and  C_16
    5  A    between atoms: N_14  and  C_19
    6  A    between atoms: N_14  and  C_35
                            x       y       z     vdW  Elec       q    Type
                         _______ _______ _______ _____ _____    ______ ____

>  <TORSDO>
F 6

$$$$
=
 OpenBabel11062420053D

 35 39  0  0  1  0  0  0  0  0999 V2000
  190.0520  176.1340  145.9770 C   0  0  1  0  0  0  0  0  0  0  0  0
  191.1100  175.1380  147.9450 C   0  0  0  0  0  3  0  0  0  0  0  0
  189.2040  175.5050  144.9620 N   0  0  0  0  0  2  0  0  0  0  0  0
  188.9550  176.9010  145.3810 C   0  0  1  0  0  3  0  0  0  0  0  0
  189.9770  175.4260  147.2970 C   0  0  0  0  0  3  0  0  0  0  0  0
  192.3950  175.4690  147.3930 N   0  0  0  0  0  0  0  0  0  0  0  0
  191.3870  176.3930  145.4500 N   0  0  0  0  0  2  0  0  0  0  0  0
  192.5460  176.0420  146.2310 C   0  0  0  0  0  0  0  0  0  0  0  0
  185.2170  177.9260  147.3270 C   0  0  0  0  0  3  0  0  0  0  0  0
  187.6960  176.9580  146.2510 C   0  0  2  0  0  3  0  0  0  0  0  0
  186.4380  176.8900  145.3770 C   0  0  1  0  0  3  0  0  0  0  0  0
  187.6980  178.2210  147.1220 C   0  0  0  0  0  2  0  0  0  0  0  0
  186.3530  178.5040  147.7430 C   0  0  0  0  0  3  0  0  0  0  0  0
  185.1920  176.8610  146.2680 C   0  0  0  0  0  2  0  0  0  0  0  0
  186.3950  178.0210  144.4480 N   0  0  0  0  0  2  0  0  0  0  0  0
  184.3710  178.2660  143.1250 C   0  0  0  0  0  2  0  0  0  0  0  0
  183.6890  177.9750  141.7800 C   0  0  2  0  0  3  0  0  0  0  0  0
  185.9300  177.8040  140.6410 C   0  0  0  0  0  2  0  0  0  0  0  0
  186.5570  177.9940  141.9880 C   0  0  0  0  0  0  0  0  0  0  0  0
  184.5580  178.4700  140.6210 C   0  0  0  0  0  2  0  0  0  0  0  0
  187.6950  178.4260  142.0780 O   0  0  0  0  0  0  0  0  0  0  0  0
  185.7510  177.6070  143.2070 C   0  0  1  0  0  3  0  0  0  0  0  0
  182.4510  178.6160  141.7350 O   0  0  0  0  0  0  0  0  0  0  0  0
  181.8590  178.1920  140.5440 C   0  0  0  0  0  1  0  0  0  0  0  0
  194.5440  175.5180  145.0050 C   0  0  0  0  0  0  0  0  0  0  0  0
  193.8960  176.3750  145.7470 C   0  0  0  0  0  0  0  0  0  0  0  0
  195.1320  174.6460  144.2270 C   0  0  0  0  0  3  0  0  0  0  0  0
  194.3530  177.7210  145.8040 N   0  0  0  0  0  1  0  0  0  0  0  0
  195.8060  176.2700  142.5290 C   0  0  0  0  0  3  0  0  0  0  0  0
  196.2080  176.6250  141.1550 C   0  0  0  0  0  3  0  0  0  0  0  0
  195.8570  173.8620  141.9130 C   0  0  0  0  0  2  0  0  0  0  0  0
  195.8100  173.5370  139.5410 O   0  0  0  0  0  0  0  0  0  0  0  0
  195.5840  174.9910  142.8750 C   0  0  0  0  0  0  0  0  0  0  0  0
  195.9650  174.3470  140.4930 C   0  0  0  0  0  0  0  0  0  0  0  0
  196.2620  175.7220  140.2210 N   0  0  0  0  0  0  0  0  0  0  0  0
  1  5  1  1  0  0  0
  3  1  1  0  0  0  0
  4  3  1  6  0  0  0
  4  1  1  0  0  0  0
  4 10  1  0  0  0  0
  5  2  2  0  0  0  0
  6  2  1  0  0  0  0
  7  1  1  0  0  0  0
  7  8  1  0  0  0  0
  8  6  2  0  0  0  0
  9 13  2  0  0  0  0
 10 12  1  6  0  0  0
 11 15  1  6  0  0  0
 11 10  1  0  0  0  0
 11 14  1  0  0  0  0
 12 13  1  0  0  0  0
 14  9  1  0  0  0  0
 16 22  1  0  0  0  0
 17 23  1  1  0  0  0
 17 16  1  0  0  0  0
 18 19  1  0  0  0  0
 19 21  2  0  0  0  0
 19 22  1  0  0  0  0
 20 18  1  0  0  0  0
 20 17  1  0  0  0  0
 22 15  1  1  0  0  0
 24 23  1  0  0  0  0
 25 26  2  0  0  0  0
 26 28  1  0  0  0  0
 26  8  1  0  0  0  0
 27 25  2  0  0  0  0
 29 33  2  0  0  0  0
 30 29  1  0  0  0  0
 31 33  1  0  0  0  0
 32 34  2  0  0  0  0
 33 27  1  0  0  0  0
 34 31  1  0  0  0  0
 35 34  1  0  0  0  0
 35 30  2  0  0  0  0
M  END
>  <MODEL>
2

>  <REMARK>
 VINA RESULT:      -8.3      1.939      2.269
  Name = 
  6 active torsions:
  status: ('A' for Active; 'I' for Inactive)
    1  A    between atoms: C_3  and  O_17
    2  A    between atoms: C_9  and  C_31
    3  A    between atoms: C_11  and  C_24
    4  A    between atoms: C_12  and  C_16
    5  A    between atoms: N_14  and  C_19
    6  A    between atoms: N_14  and  C_35
                            x       y       z     vdW  Elec       q    Type
                         _______ _______ _______ _____ _____    ______ ____

>  <TORSDO>
F 6

$$$$
=
 OpenBabel11062420053D

 35 39  0  0  1  0  0  0  0  0999 V2000
  185.8570  178.1650  143.0350 C   0  0  1  0  0  0  0  0  0  0  0  0
  184.0910  179.3980  144.1930 C   0  0  0  0  0  3  0  0  0  0  0  0
  187.1060  178.6620  142.4510 N   0  0  0  0  0  2  0  0  0  0  0  0
  187.0580  177.3270  143.0850 C   0  0  1  0  0  3  0  0  0  0  0  0
  185.3750  179.0290  144.1610 C   0  0  0  0  0  3  0  0  0  0  0  0
  183.1720  179.0060  143.1580 N   0  0  0  0  0  0  0  0  0  0  0  0
  184.8880  177.8480  141.9930 N   0  0  0  0  0  2  0  0  0  0  0  0
  183.5250  178.2960  142.1230 C   0  0  0  0  0  0  0  0  0  0  0  0
  189.1140  176.4390  146.8000 C   0  0  0  0  0  3  0  0  0  0  0  0
  187.7890  177.3730  144.4300 C   0  0  2  0  0  3  0  0  0  0  0  0
  189.1910  176.7660  144.2990 C   0  0  1  0  0  3  0  0  0  0  0  0
  186.9730  176.6530  145.5130 C   0  0  0  0  0  2  0  0  0  0  0  0
  187.7750  176.3740  146.7600 C   0  0  0  0  0  3  0  0  0  0  0  0
  189.9370  176.8980  145.6300 C   0  0  0  0  0  2  0  0  0  0  0  0
  189.1090  175.3660  143.8790 N   0  0  0  0  0  2  0  0  0  0  0  0
  191.1550  174.6050  142.8110 C   0  0  0  0  0  2  0  0  0  0  0  0
  191.8520  174.2910  141.4790 C   0  0  2  0  0  3  0  0  0  0  0  0
  189.6270  173.9020  140.3640 C   0  0  0  0  0  2  0  0  0  0  0  0
  188.9830  174.3090  141.6550 C   0  0  0  0  0  0  0  0  0  0  0  0
  191.0070  173.3210  140.6490 C   0  0  0  0  0  2  0  0  0  0  0  0
  187.8490  173.9390  141.9170 O   0  0  0  0  0  0  0  0  0  0  0  0
  189.7650  175.2060  142.5860 C   0  0  1  0  0  3  0  0  0  0  0  0
  193.1000  173.7180  141.7290 O   0  0  0  0  0  0  0  0  0  0  0  0
  193.5610  174.3330  142.8950 C   0  0  0  0  0  1  0  0  0  0  0  0
  181.2750  178.2760  141.2820 C   0  0  0  0  0  0  0  0  0  0  0  0
  182.5180  177.9100  141.1210 C   0  0  0  0  0  0  0  0  0  0  0  0
  180.0530  178.7070  141.4660 C   0  0  0  0  0  3  0  0  0  0  0  0
  182.9370  177.4380  139.8460 N   0  0  0  0  0  1  0  0  0  0  0  0
  178.3710  179.0170  139.7200 C   0  0  0  0  0  3  0  0  0  0  0  0
  177.7110  179.8240  138.6770 C   0  0  0  0  0  3  0  0  0  0  0  0
  179.7500  180.9830  140.3590 C   0  0  0  0  0  2  0  0  0  0  0  0
  179.7670  182.6660  138.6550 O   0  0  0  0  0  0  0  0  0  0  0  0
  179.3610  179.5300  140.4670 C   0  0  0  0  0  0  0  0  0  0  0  0
  179.2360  181.6100  139.0920 C   0  0  0  0  0  0  0  0  0  0  0  0
  178.1350  181.0190  138.3900 N   0  0  0  0  0  0  0  0  0  0  0  0
  1  4  1  0  0  0  0
  1  5  1  1  0  0  0
  3  1  1  0  0  0  0
  4  3  1  6  0  0  0
  4 10  1  0  0  0  0
  5  2  2  0  0  0  0
  6  2  1  0  0  0  0
  7  8  1  0  0  0  0
  7  1  1  0  0  0  0
  8  6  2  0  0  0  0
 10 12  1  1  0  0  0
 11 15  1  1  0  0  0
 11 10  1  0  0  0  0
 11 14  1  0  0  0  0
 12 13  1  0  0  0  0
 13  9  2  0  0  0  0
 14  9  1  0  0  0  0
 17 23  1  1  0  0  0
 17 16  1  0  0  0  0
 18 20  1  0  0  0  0
 18 19  1  0  0  0  0
 19 21  2  0  0  0  0
 19 22  1  0  0  0  0
 20 17  1  0  0  0  0
 22 16  1  0  0  0  0
 22 15  1  1  0  0  0
 23 24  1  0  0  0  0
 25 27  2  0  0  0  0
 26 25  2  0  0  0  0
 26  8  1  0  0  0  0
 28 26  1  0  0  0  0
 29 33  2  0  0  0  0
 30 29  1  0  0  0  0
 31 33  1  0  0  0  0
 32 34  2  0  0  0  0
 33 27  1  0  0  0  0
 34 31  1  0  0  0  0
 35 30  2  0  0  0  0
 35 34  1  0  0  0  0
M  END
>  <MODEL>
3

>  <REMARK>
 VINA RESULT:      -7.8      3.715     11.927
  Name = 
  6 active torsions:
  status: ('A' for Active; 'I' for Inactive)
    1  A    between atoms: C_3  and  O_17
    2  A    between atoms: C_9  and  C_31
    3  A    between atoms: C_11  and  C_24
    4  A    between atoms: C_12  and  C_16
    5  A    between atoms: N_14  and  C_19
    6  A    between atoms: N_14  and  C_35
                            x       y       z     vdW  Elec       q    Type
                         _______ _______ _______ _____ _____    ______ ____

>  <TORSDO>
F 6

$$$$
=
 OpenBabel11062420053D

 35 39  0  0  1  0  0  0  0  0999 V2000
  190.2210  175.9700  145.8630 C   0  0  1  0  0  0  0  0  0  0  0  0
  190.9830  174.9160  147.9340 C   0  0  0  0  0  3  0  0  0  0  0  0
  189.5920  175.3600  144.6890 N   0  0  0  0  0  2  0  0  0  0  0  0
  189.2000  176.7180  145.1240 C   0  0  1  0  0  3  0  0  0  0  0  0
  189.9620  175.1870  147.1150 C   0  0  0  0  0  3  0  0  0  0  0  0
  192.3240  175.3370  147.6270 N   0  0  0  0  0  0  0  0  0  0  0  0
  191.6090  176.3190  145.5860 N   0  0  0  0  0  2  0  0  0  0  0  0
  192.6370  175.9790  146.5370 C   0  0  0  0  0  0  0  0  0  0  0  0
  185.2630  177.5770  146.7300 C   0  0  0  0  0  3  0  0  0  0  0  0
  187.8110  176.6680  145.7660 C   0  0  2  0  0  3  0  0  0  0  0  0
  186.7350  177.0610  144.7460 C   0  0  1  0  0  3  0  0  0  0  0  0
  187.7560  177.5720  147.0050 C   0  0  0  0  0  2  0  0  0  0  0  0
  186.3470  177.8260  147.4800 C   0  0  0  0  0  3  0  0  0  0  0  0
  185.3480  176.9230  145.3800 C   0  0  0  0  0  2  0  0  0  0  0  0
  186.9590  178.4240  144.2610 N   0  0  0  0  0  2  0  0  0  0  0  0
  187.4670  177.0700  142.3080 C   0  0  0  0  0  2  0  0  0  0  0  0
  187.3760  176.9600  140.7800 C   0  0  2  0  0  3  0  0  0  0  0  0
  185.4030  178.5280  140.7500 C   0  0  0  0  0  2  0  0  0  0  0  0
  185.5880  178.6840  142.2290 C   0  0  0  0  0  0  0  0  0  0  0  0
  185.9310  177.1650  140.3150 C   0  0  0  0  0  2  0  0  0  0  0  0
  184.6510  179.0320  142.9290 O   0  0  0  0  0  0  0  0  0  0  0  0
  186.9630  178.4280  142.8030 C   0  0  1  0  0  3  0  0  0  0  0  0
  187.8160  175.7000  140.3740 O   0  0  0  0  0  0  0  0  0  0  0  0
  188.1930  175.0450  141.5480 C   0  0  0  0  0  1  0  0  0  0  0  0
  194.9420  175.5010  146.0640 C   0  0  0  0  0  0  0  0  0  0  0  0
  194.0290  176.4010  146.3080 C   0  0  0  0  0  0  0  0  0  0  0  0
  195.8110  174.5650  145.7770 C   0  0  0  0  0  3  0  0  0  0  0  0
  194.3160  177.7670  146.0320 N   0  0  0  0  0  1  0  0  0  0  0  0
  196.7870  175.7310  143.8630 C   0  0  0  0  0  3  0  0  0  0  0  0
  197.5250  175.7450  142.5860 C   0  0  0  0  0  3  0  0  0  0  0  0
  197.2260  173.2940  144.0810 C   0  0  0  0  0  2  0  0  0  0  0  0
  197.8790  172.3050  141.9990 O   0  0  0  0  0  0  0  0  0  0  0  0
  196.5930  174.5850  144.5350 C   0  0  0  0  0  0  0  0  0  0  0  0
  197.6860  173.3670  142.6500 C   0  0  0  0  0  0  0  0  0  0  0  0
  197.9210  174.6370  142.0320 N   0  0  0  0  0  0  0  0  0  0  0  0
  1  5  1  1  0  0  0
  3  1  1  0  0  0  0
  4  3  1  6  0  0  0
  4 10  1  0  0  0  0
  4  1  1  0  0  0  0
  5  2  2  0  0  0  0
  6  2  1  0  0  0  0
  7  1  1  0  0  0  0
  7  8  1  0  0  0  0
  8  6  2  0  0  0  0
  9 13  2  0  0  0  0
 10 12  1  1  0  0  0
 11 15  1  1  0  0  0
 11 14  1  0  0  0  0
 11 10  1  0  0  0  0
 12 13  1  0  0  0  0
 14  9  1  0  0  0  0
 16 22  1  0  0  0  0
 17 23  1  1  0  0  0
 17 16  1  0  0  0  0
 18 19  1  0  0  0  0
 19 22  1  0  0  0  0
 19 21  2  0  0  0  0
 20 18  1  0  0  0  0
 20 17  1  0  0  0  0
 22 15  1  1  0  0  0
 23 24  1  0  0  0  0
 25 26  2  0  0  0  0
 26  8  1  0  0  0  0
 27 25  2  0  0  0  0
 28 26  1  0  0  0  0
 29 33  2  0  0  0  0
 30 29  1  0  0  0  0
 31 33  1  0  0  0  0
 32 34  2  0  0  0  0
 33 27  1  0  0  0  0
 34 31  1  0  0  0  0
 35 30  2  0  0  0  0
 35 34  1  0  0  0  0
M  END
>  <MODEL>
4

>  <REMARK>
 VINA RESULT:      -7.7      1.678      2.483
  Name = 
  6 active torsions:
  status: ('A' for Active; 'I' for Inactive)
    1  A    between atoms: C_3  and  O_17
    2  A    between atoms: C_9  and  C_31
    3  A    between atoms: C_11  and  C_24
    4  A    between atoms: C_12  and  C_16
    5  A    between atoms: N_14  and  C_19
    6  A    between atoms: N_14  and  C_35
                            x       y       z     vdW  Elec       q    Type
                         _______ _______ _______ _____ _____    ______ ____

>  <TORSDO>
F 6

$$$$
=
 OpenBabel11062420053D

 35 39  0  0  1  0  0  0  0  0999 V2000
  190.4220  175.8530  145.9810 C   0  0  1  0  0  0  0  0  0  0  0  0
  188.6650  174.9840  147.4440 C   0  0  0  0  0  3  0  0  0  0  0  0
  191.7130  176.4500  146.3350 N   0  0  0  0  0  2  0  0  0  0  0  0
  191.5850  175.6170  145.1200 C   0  0  1  0  0  3  0  0  0  0  0  0
  189.9330  174.8990  147.0290 C   0  0  0  0  0  3  0  0  0  0  0  0
  187.7720  175.9850  146.9240 N   0  0  0  0  0  0  0  0  0  0  0  0
  189.4820  176.8750  145.5360 N   0  0  0  0  0  2  0  0  0  0  0  0
  188.1350  176.8780  146.0470 C   0  0  0  0  0  0  0  0  0  0  0  0
  193.7550  171.8750  144.7940 C   0  0  0  0  0  3  0  0  0  0  0  0
  192.2630  174.2640  145.3530 C   0  0  2  0  0  3  0  0  0  0  0  0
  193.7760  174.3770  145.1260 C   0  0  1  0  0  3  0  0  0  0  0  0
  191.6460  173.1870  144.4500 C   0  0  0  0  0  2  0  0  0  0  0  0
  192.4780  171.9300  144.3880 C   0  0  0  0  0  3  0  0  0  0  0  0
  194.4470  173.0380  145.4470 C   0  0  0  0  0  2  0  0  0  0  0  0
  194.0600  174.7920  143.7510 N   0  0  0  0  0  2  0  0  0  0  0  0
  195.5670  174.0270  142.0050 C   0  0  0  0  0  2  0  0  0  0  0  0
  197.0310  173.8590  141.5750 C   0  0  2  0  0  3  0  0  0  0  0  0
  197.7390  175.7090  143.1320 C   0  0  0  0  0  2  0  0  0  0  0  0
  196.3150  175.7740  143.5960 C   0  0  0  0  0  0  0  0  0  0  0  0
  197.7820  175.1880  141.7000 C   0  0  0  0  0  2  0  0  0  0  0  0
  195.8830  176.7990  144.1000 O   0  0  0  0  0  0  0  0  0  0  0  0
  195.4620  174.5360  143.4450 C   0  0  1  0  0  3  0  0  0  0  0  0
  197.0830  173.4230  140.2500 O   0  0  0  0  0  0  0  0  0  0  0  0
  196.5520  174.4720  139.4960 C   0  0  0  0  0  1  0  0  0  0  0  0
  187.1520  178.1690  144.2760 C   0  0  0  0  0  0  0  0  0  0  0  0
  187.1530  177.8520  145.5420 C   0  0  0  0  0  0  0  0  0  0  0  0
  187.1620  178.4170  142.9910 C   0  0  0  0  0  3  0  0  0  0  0  0
  186.0230  178.1910  146.3380 N   0  0  0  0  0  1  0  0  0  0  0  0
  186.0960  178.0810  140.8170 C   0  0  0  0  0  3  0  0  0  0  0  0
  184.9050  177.9240  139.9630 C   0  0  0  0  0  3  0  0  0  0  0  0
  184.6430  178.0670  142.8340 C   0  0  0  0  0  2  0  0  0  0  0  0
  182.3490  178.5000  142.2960 O   0  0  0  0  0  0  0  0  0  0  0  0
  185.9790  178.2060  142.1490 C   0  0  0  0  0  0  0  0  0  0  0  0
  183.4990  178.2100  141.8670 C   0  0  0  0  0  0  0  0  0  0  0  0
  183.7080  178.0010  140.4660 N   0  0  0  0  0  0  0  0  0  0  0  0
  1  3  1  0  0  0  0
  1  5  1  1  0  0  0
  4 10  1  0  0  0  0
  4  1  1  0  0  0  0
  4  3  1  1  0  0  0
  5  2  2  0  0  0  0
  6  2  1  0  0  0  0
  7  1  1  0  0  0  0
  7  8  1  0  0  0  0
  8  6  2  0  0  0  0
  9 14  1  0  0  0  0
 10 12  1  6  0  0  0
 11 15  1  6  0  0  0
 11 10  1  0  0  0  0
 11 14  1  0  0  0  0
 13 12  1  0  0  0  0
 13  9  2  0  0  0  0
 16 22  1  0  0  0  0
 17 23  1  6  0  0  0
 17 20  1  0  0  0  0
 17 16  1  0  0  0  0
 18 19  1  0  0  0  0
 19 21  2  0  0  0  0
 20 18  1  0  0  0  0
 22 19  1  0  0  0  0
 22 15  1  6  0  0  0
 24 23  1  0  0  0  0
 25 26  2  0  0  0  0
 26  8  1  0  0  0  0
 26 28  1  0  0  0  0
 27 25  2  0  0  0  0
 29 33  2  0  0  0  0
 30 35  2  0  0  0  0
 30 29  1  0  0  0  0
 33 31  1  0  0  0  0
 33 27  1  0  0  0  0
 34 32  2  0  0  0  0
 34 31  1  0  0  0  0
 35 34  1  0  0  0  0
M  END
>  <MODEL>
5

>  <REMARK>
 VINA RESULT:      -7.7      2.547     10.459
  Name = 
  6 active torsions:
  status: ('A' for Active; 'I' for Inactive)
    1  A    between atoms: C_3  and  O_17
    2  A    between atoms: C_9  and  C_31
    3  A    between atoms: C_11  and  C_24
    4  A    between atoms: C_12  and  C_16
    5  A    between atoms: N_14  and  C_19
    6  A    between atoms: N_14  and  C_35
                            x       y       z     vdW  Elec       q    Type
                         _______ _______ _______ _____ _____    ______ ____

>  <TORSDO>
F 6

$$$$
=
 OpenBabel11062420053D

 35 39  0  0  1  0  0  0  0  0999 V2000
  192.9120  175.8890  145.0460 C   0  0  1  0  0  0  0  0  0  0  0  0
  192.1300  175.6310  147.3500 C   0  0  0  0  0  3  0  0  0  0  0  0
  193.5950  177.0230  144.4200 N   0  0  0  0  0  2  0  0  0  0  0  0
  193.9260  175.6390  144.0180 C   0  0  1  0  0  3  0  0  0  0  0  0
  193.1630  175.8210  146.5230 C   0  0  0  0  0  3  0  0  0  0  0  0
  190.7840  175.5170  146.8550 N   0  0  0  0  0  0  0  0  0  0  0  0
  191.5200  175.8190  144.6160 N   0  0  0  0  0  2  0  0  0  0  0  0
  190.4790  175.6120  145.5910 C   0  0  0  0  0  0  0  0  0  0  0  0
  197.7100  173.7550  144.9890 C   0  0  0  0  0  3  0  0  0  0  0  0
  195.2970  175.2570  144.5820 C   0  0  2  0  0  3  0  0  0  0  0  0
  196.3480  175.2340  143.4640 C   0  0  1  0  0  3  0  0  0  0  0  0
  195.2270  173.9050  145.3040 C   0  0  0  0  0  2  0  0  0  0  0  0
  196.5890  173.3210  145.5850 C   0  0  0  0  0  3  0  0  0  0  0  0
  197.7270  174.9340  144.0600 C   0  0  0  0  0  2  0  0  0  0  0  0
  195.9900  174.2480  142.4430 N   0  0  0  0  0  2  0  0  0  0  0  0
  196.9930  174.7110  140.2780 C   0  0  0  0  0  2  0  0  0  0  0  0
  196.7720  175.2910  138.8730 C   0  0  2  0  0  3  0  0  0  0  0  0
  194.2930  174.8780  139.0540 C   0  0  0  0  0  2  0  0  0  0  0  0
  194.5400  174.4100  140.4560 C   0  0  0  0  0  0  0  0  0  0  0  0
  195.5470  174.6490  138.2160 C   0  0  0  0  0  2  0  0  0  0  0  0
  193.7470  173.6560  140.9980 O   0  0  0  0  0  0  0  0  0  0  0  0
  195.7680  174.9260  141.1700 C   0  0  1  0  0  3  0  0  0  0  0  0
  197.8980  175.0490  138.0850 O   0  0  0  0  0  0  0  0  0  0  0  0
  197.5930  175.5850  136.8320 C   0  0  0  0  0  1  0  0  0  0  0  0
  188.1200  175.9330  145.9040 C   0  0  0  0  0  0  0  0  0  0  0  0
  189.0800  175.4550  145.1600 C   0  0  0  0  0  0  0  0  0  0  0  0
  187.1980  176.4700  146.6610 C   0  0  0  0  0  3  0  0  0  0  0  0
  188.7930  175.0890  143.8150 N   0  0  0  0  0  1  0  0  0  0  0  0
  185.0830  177.6920  146.7610 C   0  0  0  0  0  3  0  0  0  0  0  0
  184.1110  178.6580  146.2160 C   0  0  0  0  0  3  0  0  0  0  0  0
  186.6800  178.2890  144.9530 C   0  0  0  0  0  2  0  0  0  0  0  0
  185.6030  179.4130  143.1320 O   0  0  0  0  0  0  0  0  0  0  0  0
  186.2560  177.4720  146.1470 C   0  0  0  0  0  0  0  0  0  0  0  0
  185.5180  179.0070  144.3220 C   0  0  0  0  0  0  0  0  0  0  0  0
  184.3240  179.2480  145.0760 N   0  0  0  0  0  0  0  0  0  0  0  0
  1  5  1  1  0  0  0
  3  1  1  0  0  0  0
  4  3  1  1  0  0  0
  4 10  1  0  0  0  0
  4  1  1  0  0  0  0
  5  2  2  0  0  0  0
  6  2  1  0  0  0  0
  7  1  1  0  0  0  0
  7  8  1  0  0  0  0
  8  6  2  0  0  0  0
  9 13  2  0  0  0  0
 10 12  1  6  0  0  0
 11 15  1  6  0  0  0
 11 14  1  0  0  0  0
 11 10  1  0  0  0  0
 12 13  1  0  0  0  0
 14  9  1  0  0  0  0
 16 22  1  0  0  0  0
 17 23  1  6  0  0  0
 17 16  1  0  0  0  0
 18 19  1  0  0  0  0
 19 21  2  0  0  0  0
 19 22  1  0  0  0  0
 20 17  1  0  0  0  0
 20 18  1  0  0  0  0
 22 15  1  1  0  0  0
 24 23  1  0  0  0  0
 25 27  2  0  0  0  0
 26  8  1  0  0  0  0
 26 25  2  0  0  0  0
 28 26  1  0  0  0  0
 30 29  1  0  0  0  0
 31 33  1  0  0  0  0
 32 34  2  0  0  0  0
 33 27  1  0  0  0  0
 33 29  2  0  0  0  0
 34 31  1  0  0  0  0
 34 35  1  0  0  0  0
 35 30  2  0  0  0  0
M  END
>  <MODEL>
6

>  <REMARK>
 VINA RESULT:      -7.5      3.203     10.462
  Name = 
  6 active torsions:
  status: ('A' for Active; 'I' for Inactive)
    1  A    between atoms: C_3  and  O_17
    2  A    between atoms: C_9  and  C_31
    3  A    between atoms: C_11  and  C_24
    4  A    between atoms: C_12  and  C_16
    5  A    between atoms: N_14  and  C_19
    6  A    between atoms: N_14  and  C_35
                            x       y       z     vdW  Elec       q    Type
                         _______ _______ _______ _____ _____    ______ ____

>  <TORSDO>
F 6

$$$$
=
 OpenBabel11062420053D

 35 39  0  0  1  0  0  0  0  0999 V2000
  190.2740  175.6100  145.2060 C   0  0  1  0  0  0  0  0  0  0  0  0
  189.3210  174.9470  147.3590 C   0  0  0  0  0  3  0  0  0  0  0  0
  191.4840  176.3860  144.9270 N   0  0  0  0  0  2  0  0  0  0  0  0
  191.0790  175.2870  144.0250 C   0  0  1  0  0  3  0  0  0  0  0  0
  190.3550  174.8840  146.5150 C   0  0  0  0  0  3  0  0  0  0  0  0
  188.1460  175.7160  147.0480 N   0  0  0  0  0  0  0  0  0  0  0  0
  189.0780  176.4120  144.9770 N   0  0  0  0  0  2  0  0  0  0  0  0
  188.0180  176.4120  145.9530 C   0  0  0  0  0  0  0  0  0  0  0  0
  193.5700  171.7640  143.5830 C   0  0  0  0  0  3  0  0  0  0  0  0
  192.0150  174.0910  144.2220 C   0  0  2  0  0  3  0  0  0  0  0  0
  193.2870  174.2630  143.3820 C   0  0  1  0  0  3  0  0  0  0  0  0
  191.2960  172.7800  143.8770 C   0  0  0  0  0  2  0  0  0  0  0  0
  192.2440  171.6160  143.7280 C   0  0  0  0  0  3  0  0  0  0  0  0
  194.2470  173.1020  143.6570 C   0  0  0  0  0  2  0  0  0  0  0  0
  192.9560  174.3460  141.9580 N   0  0  0  0  0  2  0  0  0  0  0  0
  194.8490  175.8260  142.3240 C   0  0  0  0  0  2  0  0  0  0  0  0
  195.9970  176.6060  141.6680 C   0  0  2  0  0  3  0  0  0  0  0  0
  195.9850  175.0360  139.6980 C   0  0  0  0  0  2  0  0  0  0  0  0
  194.8030  174.3620  140.3250 C   0  0  0  0  0  0  0  0  0  0  0  0
  196.8380  175.6790  140.7860 C   0  0  0  0  0  2  0  0  0  0  0  0
  194.5390  173.2030  140.0450 O   0  0  0  0  0  0  0  0  0  0  0  0
  193.9480  175.1690  141.2750 C   0  0  1  0  0  3  0  0  0  0  0  0
  196.8090  177.1640  142.6560 O   0  0  0  0  0  0  0  0  0  0  0  0
  196.2840  176.7060  143.8660 C   0  0  0  0  0  1  0  0  0  0  0  0
  186.6820  177.9140  144.6400 C   0  0  0  0  0  0  0  0  0  0  0  0
  186.7710  177.1500  145.6950 C   0  0  0  0  0  0  0  0  0  0  0  0
  186.6260  178.6280  143.5440 C   0  0  0  0  0  3  0  0  0  0  0  0
  185.5820  176.7910  146.3880 N   0  0  0  0  0  1  0  0  0  0  0  0
  185.9290  178.2970  141.2250 C   0  0  0  0  0  3  0  0  0  0  0  0
  184.8930  178.1270  140.1890 C   0  0  0  0  0  3  0  0  0  0  0  0
  184.1730  178.2290  142.9820 C   0  0  0  0  0  2  0  0  0  0  0  0
  181.9860  178.6230  142.0870 O   0  0  0  0  0  0  0  0  0  0  0  0
  185.5980  178.4040  142.5220 C   0  0  0  0  0  0  0  0  0  0  0  0
  183.1950  178.3620  141.8460 C   0  0  0  0  0  0  0  0  0  0  0  0
  183.6300  178.1750  140.4940 N   0  0  0  0  0  0  0  0  0  0  0  0
  1  5  1  1  0  0  0
  3  1  1  0  0  0  0
  4 10  1  0  0  0  0
  4  3  1  1  0  0  0
  4  1  1  0  0  0  0
  5  2  2  0  0  0  0
  6  2  1  0  0  0  0
  7  1  1  0  0  0  0
  7  8  1  0  0  0  0
  8  6  2  0  0  0  0
  9 14  1  0  0  0  0
  9 13  2  0  0  0  0
 10 12  1  6  0  0  0
 11 15  1  6  0  0  0
 11 14  1  0  0  0  0
 11 10  1  0  0  0  0
 13 12  1  0  0  0  0
 17 16  1  0  0  0  0
 17 23  1  1  0  0  0
 18 19  1  0  0  0  0
 18 20  1  0  0  0  0
 19 22  1  0  0  0  0
 20 17  1  0  0  0  0
 21 19  2  0  0  0  0
 22 15  1  1  0  0  0
 22 16  1  0  0  0  0
 23 24  1  0  0  0  0
 25 26  2  0  0  0  0
 26  8  1  0  0  0  0
 26 28  1  0  0  0  0
 27 25  2  0  0  0  0
 29 33  2  0  0  0  0
 30 35  2  0  0  0  0
 30 29  1  0  0  0  0
 33 31  1  0  0  0  0
 33 27  1  0  0  0  0
 34 32  2  0  0  0  0
 34 31  1  0  0  0  0
 35 34  1  0  0  0  0
M  END
>  <MODEL>
7

>  <REMARK>
 VINA RESULT:      -7.5      3.047     10.250
  Name = 
  6 active torsions:
  status: ('A' for Active; 'I' for Inactive)
    1  A    between atoms: C_3  and  O_17
    2  A    between atoms: C_9  and  C_31
    3  A    between atoms: C_11  and  C_24
    4  A    between atoms: C_12  and  C_16
    5  A    between atoms: N_14  and  C_19
    6  A    between atoms: N_14  and  C_35
                            x       y       z     vdW  Elec       q    Type
                         _______ _______ _______ _____ _____    ______ ____

>  <TORSDO>
F 6

$$$$
=
 OpenBabel11062420053D

 35 39  0  0  1  0  0  0  0  0999 V2000
  189.7650  173.2500  142.1130 C   0  0  1  0  0  0  0  0  0  0  0  0
  190.4400  170.9000  142.1030 C   0  0  0  0  0  3  0  0  0  0  0  0
  188.4730  173.8430  142.4690 N   0  0  0  0  0  2  0  0  0  0  0  0
  189.7310  174.5550  142.7790 C   0  0  1  0  0  3  0  0  0  0  0  0
  190.0010  171.9450  142.8110 C   0  0  0  0  0  3  0  0  0  0  0  0
  190.6650  170.9950  140.6850 N   0  0  0  0  0  0  0  0  0  0  0  0
  189.9610  173.2640  140.6680 N   0  0  0  0  0  2  0  0  0  0  0  0
  190.4380  172.0810  140.0000 C   0  0  0  0  0  0  0  0  0  0  0  0
  190.6070  175.3750  146.9470 C   0  0  0  0  0  3  0  0  0  0  0  0
  189.9990  174.4880  144.2850 C   0  0  2  0  0  3  0  0  0  0  0  0
  188.9410  175.2890  145.0540 C   0  0  1  0  0  3  0  0  0  0  0  0
  191.4140  174.9900  144.6050 C   0  0  0  0  0  2  0  0  0  0  0  0
  191.6190  175.2620  146.0740 C   0  0  0  0  0  3  0  0  0  0  0  0
  189.1750  175.1390  146.5610 C   0  0  0  0  0  2  0  0  0  0  0  0
  188.9700  176.6960  144.6540 N   0  0  0  0  0  2  0  0  0  0  0  0
  186.9470  177.9060  145.2490 C   0  0  0  0  0  2  0  0  0  0  0  0
  185.6060  178.4610  144.7490 C   0  0  2  0  0  3  0  0  0  0  0  0
  186.4820  178.5500  142.3880 C   0  0  0  0  0  2  0  0  0  0  0  0
  187.7390  177.9170  142.9000 C   0  0  0  0  0  0  0  0  0  0  0  0
  185.8180  179.3380  143.5120 C   0  0  0  0  0  2  0  0  0  0  0  0
  188.7870  178.0540  142.2880 O   0  0  0  0  0  0  0  0  0  0  0  0
  187.6540  177.0900  144.1630 C   0  0  1  0  0  3  0  0  0  0  0  0
  185.0090  179.2210  145.7560 O   0  0  0  0  0  0  0  0  0  0  0  0
  184.4770  178.2910  146.6520 C   0  0  0  0  0  1  0  0  0  0  0  0
  189.9180  172.7540  137.7530 C   0  0  0  0  0  0  0  0  0  0  0  0
  190.7210  172.1080  138.5550 C   0  0  0  0  0  0  0  0  0  0  0  0
  189.1100  173.4540  136.9990 C   0  0  0  0  0  3  0  0  0  0  0  0
  192.0060  171.7240  138.0800 N   0  0  0  0  0  1  0  0  0  0  0  0
  190.9060  174.7840  136.0100 C   0  0  0  0  0  3  0  0  0  0  0  0
  191.3920  175.9240  135.2100 C   0  0  0  0  0  3  0  0  0  0  0  0
  188.5660  175.3750  135.4150 C   0  0  0  0  0  2  0  0  0  0  0  0
  188.3820  177.6160  134.5900 O   0  0  0  0  0  0  0  0  0  0  0  0
  189.5920  174.5560  136.1580 C   0  0  0  0  0  0  0  0  0  0  0  0
  189.1470  176.6590  134.8890 C   0  0  0  0  0  0  0  0  0  0  0  0
  190.5620  176.7910  134.7100 N   0  0  0  0  0  0  0  0  0  0  0  0
  1  3  1  0  0  0  0
  1  4  1  0  0  0  0
  1  5  1  1  0  0  0
  2  5  2  0  0  0  0
  4  3  1  1  0  0  0
  4 10  1  0  0  0  0
  6  2  1  0  0  0  0
  7  1  1  0  0  0  0
  8  7  1  0  0  0  0
  8  6  2  0  0  0  0
 10 12  1  6  0  0  0
 10 11  1  0  0  0  0
 11 15  1  6  0  0  0
 11 14  1  0  0  0  0
 12 13  1  0  0  0  0
 13  9  2  0  0  0  0
 14  9  1  0  0  0  0
 17 16  1  0  0  0  0
 17 23  1  1  0  0  0
 18 19  1  0  0  0  0
 18 20  1  0  0  0  0
 19 22  1  0  0  0  0
 20 17  1  0  0  0  0
 21 19  2  0  0  0  0
 22 15  1  1  0  0  0
 22 16  1  0  0  0  0
 23 24  1  0  0  0  0
 25 26  2  0  0  0  0
 26  8  1  0  0  0  0
 27 25  2  0  0  0  0
 28 26  1  0  0  0  0
 29 33  2  0  0  0  0
 30 29  1  0  0  0  0
 31 33  1  0  0  0  0
 32 34  2  0  0  0  0
 33 27  1  0  0  0  0
 34 31  1  0  0  0  0
 35 34  1  0  0  0  0
 35 30  2  0  0  0  0
M  END
>  <MODEL>
8

>  <REMARK>
 VINA RESULT:      -7.4      5.023      7.632
  Name = 
  6 active torsions:
  status: ('A' for Active; 'I' for Inactive)
    1  A    between atoms: C_3  and  O_17
    2  A    between atoms: C_9  and  C_31
    3  A    between atoms: C_11  and  C_24
    4  A    between atoms: C_12  and  C_16
    5  A    between atoms: N_14  and  C_19
    6  A    between atoms: N_14  and  C_35
                            x       y       z     vdW  Elec       q    Type
                         _______ _______ _______ _____ _____    ______ ____

>  <TORSDO>
F 6

$$$$
=
 OpenBabel11062420053D

 35 39  0  0  1  0  0  0  0  0999 V2000
  190.3810  172.6130  143.3660 C   0  0  1  0  0  0  0  0  0  0  0  0
  192.2850  171.2000  142.7650 C   0  0  0  0  0  3  0  0  0  0  0  0
  189.3140  172.3660  144.3400 N   0  0  0  0  0  2  0  0  0  0  0  0
  189.8290  173.7360  144.1270 C   0  0  1  0  0  3  0  0  0  0  0  0
  191.6460  171.8880  143.7160 C   0  0  0  0  0  3  0  0  0  0  0  0
  191.7720  171.1210  141.4240 N   0  0  0  0  0  0  0  0  0  0  0  0
  189.8880  172.4470  142.0040 N   0  0  0  0  0  2  0  0  0  0  0  0
  190.6560  171.6830  141.0530 C   0  0  0  0  0  0  0  0  0  0  0  0
  192.0470  175.8590  147.1910 C   0  0  0  0  0  3  0  0  0  0  0  0
  190.6860  174.1530  145.3260 C   0  0  2  0  0  3  0  0  0  0  0  0
  189.8520  174.9650  146.3250 C   0  0  1  0  0  3  0  0  0  0  0  0
  191.9170  174.9420  144.8610 C   0  0  0  0  0  2  0  0  0  0  0  0
  192.6130  175.6580  145.9920 C   0  0  0  0  0  3  0  0  0  0  0  0
  190.7020  175.2980  147.5550 C   0  0  0  0  0  2  0  0  0  0  0  0
  189.3370  176.1820  145.6950 N   0  0  0  0  0  2  0  0  0  0  0  0
  187.3890  177.0210  146.8820 C   0  0  0  0  0  2  0  0  0  0  0  0
  185.8590  177.1460  146.8840 C   0  0  2  0  0  3  0  0  0  0  0  0
  185.8000  176.9000  144.3770 C   0  0  0  0  0  2  0  0  0  0  0  0
  187.2820  176.6850  144.4290 C   0  0  0  0  0  0  0  0  0  0  0  0
  185.3700  177.7530  145.5650 C   0  0  0  0  0  2  0  0  0  0  0  0
  187.9680  176.9090  143.4430 O   0  0  0  0  0  0  0  0  0  0  0  0
  187.8790  176.1600  145.7140 C   0  0  1  0  0  3  0  0  0  0  0  0
  185.4570  177.9610  147.9430 O   0  0  0  0  0  0  0  0  0  0  0  0
  185.9480  179.2320  147.6370 C   0  0  0  0  0  1  0  0  0  0  0  0
  189.1980  172.2930  139.2450 C   0  0  0  0  0  0  0  0  0  0  0  0
  190.2120  171.5800  139.6530 C   0  0  0  0  0  0  0  0  0  0  0  0
  188.2070  173.0640  138.8730 C   0  0  0  0  0  3  0  0  0  0  0  0
  191.0620  170.9740  138.6870 N   0  0  0  0  0  1  0  0  0  0  0  0
  187.4440  175.0100  137.6070 C   0  0  0  0  0  3  0  0  0  0  0  0
  187.5440  175.9450  136.4700 C   0  0  0  0  0  3  0  0  0  0  0  0
  189.5530  173.9130  136.8830 C   0  0  0  0  0  2  0  0  0  0  0  0
  190.1080  174.4360  134.6120 O   0  0  0  0  0  0  0  0  0  0  0  0
  188.3410  174.0260  137.7730 C   0  0  0  0  0  0  0  0  0  0  0  0
  189.3940  174.7060  135.6140 C   0  0  0  0  0  0  0  0  0  0  0  0
  188.4460  175.7790  135.5480 N   0  0  0  0  0  0  0  0  0  0  0  0
  1  5  1  1  0  0  0
  1  4  1  0  0  0  0
  1  3  1  0  0  0  0
  2  5  2  0  0  0  0
  4  3  1  1  0  0  0
  4 10  1  0  0  0  0
  6  2  1  0  0  0  0
  7  1  1  0  0  0  0
  8  6  2  0  0  0  0
  8  7  1  0  0  0  0
  9 14  1  0  0  0  0
 10 12  1  6  0  0  0
 10 11  1  0  0  0  0
 11 15  1  6  0  0  0
 11 14  1  0  0  0  0
 12 13  1  0  0  0  0
 13  9  2  0  0  0  0
 16 17  1  0  0  0  0
 17 23  1  1  0  0  0
 18 19  1  0  0  0  0
 18 20  1  0  0  0  0
 19 22  1  0  0  0  0
 20 17  1  0  0  0  0
 21 19  2  0  0  0  0
 22 15  1  6  0  0  0
 22 16  1  0  0  0  0
 24 23  1  0  0  0  0
 25 26  2  0  0  0  0
 26  8  1  0  0  0  0
 27 25  2  0  0  0  0
 28 26  1  0  0  0  0
 29 33  2  0  0  0  0
 30 29  1  0  0  0  0
 31 33  1  0  0  0  0
 32 34  2  0  0  0  0
 33 27  1  0  0  0  0
 34 31  1  0  0  0  0
 35 34  1  0  0  0  0
 35 30  2  0  0  0  0
M  END
>  <MODEL>
9

>  <REMARK>
 VINA RESULT:      -7.3      4.675      7.709
  Name = 
  6 active torsions:
  status: ('A' for Active; 'I' for Inactive)
    1  A    between atoms: C_3  and  O_17
    2  A    between atoms: C_9  and  C_31
    3  A    between atoms: C_11  and  C_24
    4  A    between atoms: C_12  and  C_16
    5  A    between atoms: N_14  and  C_19
    6  A    between atoms: N_14  and  C_35
                            x       y       z     vdW  Elec       q    Type
                         _______ _______ _______ _____ _____    ______ ____

>  <TORSDO>
F 6

$$$$
