=
 OpenBabel11062421083D

 27 28  0  0  1  0  0  0  0  0999 V2000
  190.8660  175.3710  145.8990 C   0  0  2  0  0  3  0  0  0  0  0  0
  188.4090  173.5350  141.9740 C   0  0  0  0  0  3  0  0  0  0  0  0
  188.6300  175.9090  142.2730 C   0  0  0  0  0  0  0  0  0  0  0  0
  188.8890  174.7090  142.7210 C   0  0  0  0  0  0  0  0  0  0  0  0
  189.4230  172.0700  143.6650 C   0  0  0  0  0  3  0  0  0  0  0  0
  189.6570  174.4880  143.9670 C   0  0  0  0  0  0  0  0  0  0  0  0
  189.8900  173.0900  144.3930 C   0  0  0  0  0  3  0  0  0  0  0  0
  188.3860  177.0460  141.8500 O   0  0  0  0  0  0  0  0  0  0  0  0
  190.0980  175.4970  144.6620 N   0  0  0  0  0  0  0  0  0  0  0  0
  188.6610  172.2990  142.4190 C   0  0  0  0  0  3  0  0  0  0  0  0
  189.1130  174.6730  147.3910 O   0  0  0  0  0  1  0  0  0  0  0  0
  189.9890  175.7220  147.1070 C   0  0  2  0  0  3  0  0  0  0  0  0
  189.1770  176.9800  146.8280 C   0  0  0  0  0  2  0  0  0  0  0  0
  187.7530  176.6640  146.8380 N   0  0  0  0  0  0  0  0  0  0  0  0
  187.8090  178.1300  144.8990 O   0  0  0  0  0  1  0  0  0  0  0  0
  187.0100  177.4410  145.8200 C   0  0  2  0  0  0  0  0  0  0  0  0
  187.0580  177.9220  147.1910 C   0  0  0  0  0  2  0  0  0  0  0  0
  184.8190  176.5580  146.3220 F   0  0  0  0  0  0  0  0  0  0  0  0
  185.7460  176.7490  145.3090 C   0  0  1  0  0  3  0  0  0  0  0  0
  185.1300  177.5210  144.1920 C   0  0  0  0  0  0  0  0  0  0  0  0
  184.4290  178.7330  144.4530 N   0  0  0  0  0  1  0  0  0  0  0  0
  185.2520  177.1130  143.0080 O   0  0  0  0  0  0  0  0  0  0  0  0
  192.1470  176.2190  145.8050 C   0  0  2  0  0  3  0  0  0  0  0  0
  192.0770  177.1350  144.7520 O   0  0  0  0  0  1  0  0  0  0  0  0
  193.4350  175.3950  145.7450 C   0  0  0  0  0  3  0  0  0  0  0  0
  193.1470  174.0540  145.9920 O   0  0  0  0  0  1  0  0  0  0  0  0
  194.3640  175.8510  146.6830 O   0  0  0  0  0  1  0  0  0  0  0  0
  1  9  1  6  0  0  0
  1 12  1  0  0  0  0
  2 10  2  0  0  0  0
  2  4  1  0  0  0  0
  3  4  2  0  0  0  0
  4  6  1  0  0  0  0
  5  7  2  0  0  0  0
  6  7  1  0  0  0  0
  6  9  2  0  0  0  0
  8  3  2  0  0  0  0
 10  5  1  0  0  0  0
 12 11  1  6  0  0  0
 13 14  1  0  0  0  0
 13 12  1  0  0  0  0
 14 17  1  0  0  0  0
 16 15  1  6  0  0  0
 16 14  1  0  0  0  0
 16 17  1  0  0  0  0
 19 16  1  0  0  0  0
 19 18  1  1  0  0  0
 20 21  1  0  0  0  0
 20 19  1  0  0  0  0
 22 20  2  0  0  0  0
 23 24  1  6  0  0  0
 23  1  1  0  0  0  0
 25 23  1  0  0  0  0
 25 26  1  0  0  0  0
 25 27  1  0  0  0  0
M  END
>  <MODEL>
1

>  <REMARK>
 VINA RESULT:      -6.2      0.000      0.000
  Name = 
  8 active torsions:
  status: ('A' for Active; 'I' for Inactive)
    1  A    between atoms: C_1  and  C_26
    2  A    between atoms: C_5  and  C_8
    3  A    between atoms: C_5  and  C_11
    4  A    between atoms: C_7  and  C_11
    5  A    between atoms: C_7  and  C_14
    6  A    between atoms: C_8  and  N_10
    7  A    between atoms: C_11  and  N_24
    8  A    between atoms: C_20  and  C_26
                            x       y       z     vdW  Elec       q    Type
                         _______ _______ _______ _____ _____    ______ ____

>  <TORSDO>
F 8

$$$$
=
 OpenBabel11062421083D

 27 28  0  0  1  0  0  0  0  0999 V2000
  190.2730  176.1860  144.7730 C   0  0  2  0  0  3  0  0  0  0  0  0
  194.8800  174.4800  145.6010 C   0  0  0  0  0  3  0  0  0  0  0  0
  194.4280  176.8390  145.6390 C   0  0  0  0  0  0  0  0  0  0  0  0
  193.9660  175.6270  145.4810 C   0  0  0  0  0  0  0  0  0  0  0  0
  193.0040  172.9640  145.1350 C   0  0  0  0  0  3  0  0  0  0  0  0
  192.5400  175.3670  145.1810 C   0  0  0  0  0  0  0  0  0  0  0  0
  192.1180  173.9580  145.0130 C   0  0  0  0  0  3  0  0  0  0  0  0
  194.8640  177.9880  145.7880 O   0  0  0  0  0  0  0  0  0  0  0  0
  191.6970  176.3510  145.0630 N   0  0  0  0  0  0  0  0  0  0  0  0
  194.4260  173.2320  145.4390 C   0  0  0  0  0  3  0  0  0  0  0  0
  190.2770  178.2710  143.5740 O   0  0  0  0  0  1  0  0  0  0  0  0
  189.9040  176.9290  143.4830 C   0  0  2  0  0  3  0  0  0  0  0  0
  188.4050  176.8490  143.2320 C   0  0  0  0  0  2  0  0  0  0  0  0
  187.7980  178.1610  143.4270 N   0  0  0  0  0  0  0  0  0  0  0  0
  186.0630  176.7820  144.4300 O   0  0  0  0  0  1  0  0  0  0  0  0
  186.4280  178.0580  143.9790 C   0  0  2  0  0  0  0  0  0  0  0  0
  186.6110  178.1980  142.5430 C   0  0  0  0  0  2  0  0  0  0  0  0
  185.5670  180.3140  144.0000 F   0  0  0  0  0  0  0  0  0  0  0  0
  185.9960  179.2710  144.8040 C   0  0  1  0  0  3  0  0  0  0  0  0
  184.9260  178.9010  145.7750 C   0  0  0  0  0  0  0  0  0  0  0  0
  185.2440  178.6660  147.1440 N   0  0  0  0  0  1  0  0  0  0  0  0
  183.7310  178.8200  145.3880 O   0  0  0  0  0  0  0  0  0  0  0  0
  189.4400  176.6210  145.9920 C   0  0  2  0  0  3  0  0  0  0  0  0
  190.2290  177.2730  146.9430 O   0  0  0  0  0  1  0  0  0  0  0  0
  188.6230  175.4920  146.6210 C   0  0  0  0  0  3  0  0  0  0  0  0
  187.5060  176.0230  147.2650 O   0  0  0  0  0  1  0  0  0  0  0  0
  189.3890  174.7710  147.5390 O   0  0  0  0  0  1  0  0  0  0  0  0
  1  9  1  1  0  0  0
  1 23  1  0  0  0  0
  3  8  2  0  0  0  0
  4  2  1  0  0  0  0
  4  3  2  0  0  0  0
  5 10  1  0  0  0  0
  6  4  1  0  0  0  0
  7  5  2  0  0  0  0
  7  6  1  0  0  0  0
  9  6  2  0  0  0  0
 10  2  2  0  0  0  0
 12 11  1  1  0  0  0
 12  1  1  0  0  0  0
 13 14  1  0  0  0  0
 13 12  1  0  0  0  0
 14 16  1  0  0  0  0
 16 15  1  1  0  0  0
 16 19  1  0  0  0  0
 17 14  1  0  0  0  0
 17 16  1  0  0  0  0
 19 18  1  6  0  0  0
 19 20  1  0  0  0  0
 20 21  1  0  0  0  0
 22 20  2  0  0  0  0
 23 25  1  0  0  0  0
 23 24  1  1  0  0  0
 25 26  1  0  0  0  0
 25 27  1  0  0  0  0
M  END
>  <MODEL>
2

>  <REMARK>
 VINA RESULT:      -6.2      2.543      4.436
  Name = 
  8 active torsions:
  status: ('A' for Active; 'I' for Inactive)
    1  A    between atoms: C_1  and  C_26
    2  A    between atoms: C_5  and  C_8
    3  A    between atoms: C_5  and  C_11
    4  A    between atoms: C_7  and  C_11
    5  A    between atoms: C_7  and  C_14
    6  A    between atoms: C_8  and  N_10
    7  A    between atoms: C_11  and  N_24
    8  A    between atoms: C_20  and  C_26
                            x       y       z     vdW  Elec       q    Type
                         _______ _______ _______ _____ _____    ______ ____

>  <TORSDO>
F 8

$$$$
=
 OpenBabel11062421083D

 27 28  0  0  1  0  0  0  0  0999 V2000
  189.5240  176.5890  145.0410 C   0  0  2  0  0  3  0  0  0  0  0  0
  185.1360  178.8490  145.7160 C   0  0  0  0  0  3  0  0  0  0  0  0
  186.1210  178.7270  143.5280 C   0  0  0  0  0  0  0  0  0  0  0  0
  186.2110  178.4370  144.8000 C   0  0  0  0  0  0  0  0  0  0  0  0
  186.3690  177.8350  147.5830 C   0  0  0  0  0  3  0  0  0  0  0  0
  187.3700  177.7020  145.3540 C   0  0  0  0  0  0  0  0  0  0  0  0
  187.3800  177.4300  146.8090 C   0  0  0  0  0  3  0  0  0  0  0  0
  186.0370  179.0010  142.3240 O   0  0  0  0  0  0  0  0  0  0  0  0
  188.3460  177.3220  144.5800 N   0  0  0  0  0  0  0  0  0  0  0  0
  185.2120  178.5640  147.0210 C   0  0  0  0  0  3  0  0  0  0  0  0
  190.5360  178.4750  143.9420 O   0  0  0  0  0  1  0  0  0  0  0  0
  190.7880  177.4340  144.8380 C   0  0  2  0  0  3  0  0  0  0  0  0
  191.9210  176.5770  144.2930 C   0  0  0  0  0  2  0  0  0  0  0  0
  193.0740  176.6530  145.1820 N   0  0  0  0  0  0  0  0  0  0  0  0
  193.5190  174.4910  144.1600 O   0  0  0  0  0  1  0  0  0  0  0  0
  193.8640  175.4000  145.1690 C   0  0  2  0  0  0  0  0  0  0  0  0
  192.8680  175.6060  146.2080 C   0  0  0  0  0  2  0  0  0  0  0  0
  195.7860  174.6860  146.4440 F   0  0  0  0  0  0  0  0  0  0  0  0
  195.3440  175.5950  145.4970 C   0  0  1  0  0  3  0  0  0  0  0  0
  196.1800  175.4960  144.2650 C   0  0  0  0  0  0  0  0  0  0  0  0
  196.1940  176.5570  143.3150 N   0  0  0  0  0  1  0  0  0  0  0  0
  196.8960  174.4790  144.0750 O   0  0  0  0  0  0  0  0  0  0  0  0
  189.5870  175.2160  144.3490 C   0  0  2  0  0  3  0  0  0  0  0  0
  188.6340  175.1130  143.3320 O   0  0  0  0  0  1  0  0  0  0  0  0
  189.5090  174.0300  145.3120 C   0  0  0  0  0  3  0  0  0  0  0  0
  189.5530  174.4890  146.6270 O   0  0  0  0  0  1  0  0  0  0  0  0
  190.5630  173.1400  145.0950 O   0  0  0  0  0  1  0  0  0  0  0  0
  1  9  1  6  0  0  0
  2 10  2  0  0  0  0
  3  4  2  0  0  0  0
  4  6  1  0  0  0  0
  4  2  1  0  0  0  0
  6  7  1  0  0  0  0
  7  5  2  0  0  0  0
  8  3  2  0  0  0  0
  9  6  2  0  0  0  0
 10  5  1  0  0  0  0
 12 11  1  6  0  0  0
 12  1  1  0  0  0  0
 13 12  1  0  0  0  0
 13 14  1  0  0  0  0
 14 17  1  0  0  0  0
 16 15  1  6  0  0  0
 16 14  1  0  0  0  0
 16 19  1  0  0  0  0
 16 17  1  0  0  0  0
 19 18  1  1  0  0  0
 20 19  1  0  0  0  0
 21 20  1  0  0  0  0
 22 20  2  0  0  0  0
 23 24  1  6  0  0  0
 23  1  1  0  0  0  0
 23 25  1  0  0  0  0
 25 26  1  0  0  0  0
 27 25  1  0  0  0  0
M  END
>  <MODEL>
3

>  <REMARK>
 VINA RESULT:      -6.1      3.137      6.743
  Name = 
  8 active torsions:
  status: ('A' for Active; 'I' for Inactive)
    1  A    between atoms: C_1  and  C_26
    2  A    between atoms: C_5  and  C_8
    3  A    between atoms: C_5  and  C_11
    4  A    between atoms: C_7  and  C_11
    5  A    between atoms: C_7  and  C_14
    6  A    between atoms: C_8  and  N_10
    7  A    between atoms: C_11  and  N_24
    8  A    between atoms: C_20  and  C_26
                            x       y       z     vdW  Elec       q    Type
                         _______ _______ _______ _____ _____    ______ ____

>  <TORSDO>
F 8

$$$$
=
 OpenBabel11062421083D

 27 28  0  0  1  0  0  0  0  0999 V2000
  188.7300  176.2670  143.2010 C   0  0  2  0  0  3  0  0  0  0  0  0
  184.7800  177.6750  145.8900 C   0  0  0  0  0  3  0  0  0  0  0  0
  184.7530  177.8580  143.4940 C   0  0  0  0  0  0  0  0  0  0  0  0
  185.4110  177.5140  144.5700 C   0  0  0  0  0  0  0  0  0  0  0  0
  186.8130  176.7850  146.9450 C   0  0  0  0  0  3  0  0  0  0  0  0
  186.7830  176.9630  144.5040 C   0  0  0  0  0  0  0  0  0  0  0  0
  187.4450  176.6120  145.7810 C   0  0  0  0  0  3  0  0  0  0  0  0
  184.1310  178.1840  142.4750 O   0  0  0  0  0  0  0  0  0  0  0  0
  187.3810  176.8070  143.3580 N   0  0  0  0  0  0  0  0  0  0  0  0
  185.4400  177.3320  147.0020 C   0  0  0  0  0  3  0  0  0  0  0  0
  189.5700  178.2650  142.1570 O   0  0  0  0  0  1  0  0  0  0  0  0
  189.7630  177.4010  143.2360 C   0  0  2  0  0  3  0  0  0  0  0  0
  191.1750  176.8370  143.1710 C   0  0  0  0  0  2  0  0  0  0  0  0
  191.9720  177.3650  144.2730 N   0  0  0  0  0  0  0  0  0  0  0  0
  192.8100  175.0820  144.2520 O   0  0  0  0  0  1  0  0  0  0  0  0
  192.7720  176.3070  144.9310 C   0  0  2  0  0  0  0  0  0  0  0  0
  191.4840  176.6850  145.4930 C   0  0  0  0  0  2  0  0  0  0  0  0
  193.9790  176.7760  146.9700 F   0  0  0  0  0  0  0  0  0  0  0  0
  194.0560  176.8150  145.5870 C   0  0  1  0  0  3  0  0  0  0  0  0
  195.2380  176.0340  145.1180 C   0  0  0  0  0  0  0  0  0  0  0  0
  195.9170  176.4010  143.9210 N   0  0  0  0  0  1  0  0  0  0  0  0
  195.6520  175.0600  145.7980 O   0  0  0  0  0  0  0  0  0  0  0  0
  188.8020  175.4110  141.9230 C   0  0  2  0  0  3  0  0  0  0  0  0
  187.7430  175.6950  141.0580 O   0  0  0  0  0  1  0  0  0  0  0  0
  188.9220  173.9100  142.1880 C   0  0  0  0  0  3  0  0  0  0  0  0
  187.6910  173.2940  141.9690 O   0  0  0  0  0  1  0  0  0  0  0  0
  189.3400  173.6640  143.4980 O   0  0  0  0  0  1  0  0  0  0  0  0
  1 12  1  0  0  0  0
  1  9  1  6  0  0  0
  2 10  2  0  0  0  0
  3  4  2  0  0  0  0
  4  2  1  0  0  0  0
  5 10  1  0  0  0  0
  6  4  1  0  0  0  0
  6  7  1  0  0  0  0
  7  5  2  0  0  0  0
  8  3  2  0  0  0  0
  9  6  2  0  0  0  0
 12 11  1  6  0  0  0
 13 12  1  0  0  0  0
 13 14  1  0  0  0  0
 14 16  1  0  0  0  0
 14 17  1  0  0  0  0
 16 15  1  6  0  0  0
 16 17  1  0  0  0  0
 16 19  1  0  0  0  0
 19 18  1  1  0  0  0
 20 19  1  0  0  0  0
 20 22  2  0  0  0  0
 21 20  1  0  0  0  0
 23 24  1  6  0  0  0
 23 25  1  0  0  0  0
 23  1  1  0  0  0  0
 25 27  1  0  0  0  0
 26 25  1  0  0  0  0
M  END
>  <MODEL>
4

>  <REMARK>
 VINA RESULT:      -6.1      2.828      6.551
  Name = 
  8 active torsions:
  status: ('A' for Active; 'I' for Inactive)
    1  A    between atoms: C_1  and  C_26
    2  A    between atoms: C_5  and  C_8
    3  A    between atoms: C_5  and  C_11
    4  A    between atoms: C_7  and  C_11
    5  A    between atoms: C_7  and  C_14
    6  A    between atoms: C_8  and  N_10
    7  A    between atoms: C_11  and  N_24
    8  A    between atoms: C_20  and  C_26
                            x       y       z     vdW  Elec       q    Type
                         _______ _______ _______ _____ _____    ______ ____

>  <TORSDO>
F 8

$$$$
=
 OpenBabel11062421083D

 27 28  0  0  1  0  0  0  0  0999 V2000
  190.0770  175.5410  142.7530 C   0  0  2  0  0  3  0  0  0  0  0  0
  192.1580  175.8980  147.2650 C   0  0  0  0  0  3  0  0  0  0  0  0
  189.9390  175.0140  147.0130 C   0  0  0  0  0  0  0  0  0  0  0  0
  191.0020  175.5140  146.4400 C   0  0  0  0  0  0  0  0  0  0  0  0
  193.3400  176.6180  145.2350 C   0  0  0  0  0  3  0  0  0  0  0  0
  191.0820  175.7090  144.9750 C   0  0  0  0  0  0  0  0  0  0  0  0
  192.3280  176.2900  144.4260 C   0  0  0  0  0  3  0  0  0  0  0  0
  188.9310  174.5410  147.5530 O   0  0  0  0  0  0  0  0  0  0  0  0
  190.0820  175.3870  144.2070 N   0  0  0  0  0  0  0  0  0  0  0  0
  193.2540  176.4140  146.6970 C   0  0  0  0  0  3  0  0  0  0  0  0
  189.4060  177.7660  142.1290 O   0  0  0  0  0  1  0  0  0  0  0  0
  188.9320  176.4670  142.3220 C   0  0  2  0  0  3  0  0  0  0  0  0
  187.8390  176.4920  143.3810 C   0  0  0  0  0  2  0  0  0  0  0  0
  187.3180  177.8470  143.5250 N   0  0  0  0  0  0  0  0  0  0  0  0
  185.8210  176.6950  145.0560 O   0  0  0  0  0  1  0  0  0  0  0  0
  186.1020  177.8830  144.3690 C   0  0  2  0  0  0  0  0  0  0  0  0
  185.9660  177.8310  142.9220 C   0  0  0  0  0  2  0  0  0  0  0  0
  185.3550  180.1770  144.2600 F   0  0  0  0  0  0  0  0  0  0  0  0
  185.8900  179.2110  145.0970 C   0  0  1  0  0  3  0  0  0  0  0  0
  185.0150  179.0290  146.2920 C   0  0  0  0  0  0  0  0  0  0  0  0
  185.5750  179.0200  147.6020 N   0  0  0  0  0  1  0  0  0  0  0  0
  183.7710  178.9070  146.1440 O   0  0  0  0  0  0  0  0  0  0  0  0
  190.0310  174.1570  142.0830 C   0  0  2  0  0  3  0  0  0  0  0  0
  189.4290  174.2180  140.8240 O   0  0  0  0  0  1  0  0  0  0  0  0
  189.4020  173.0660  142.9520 C   0  0  0  0  0  3  0  0  0  0  0  0
  190.3100  172.0240  143.1310 O   0  0  0  0  0  1  0  0  0  0  0  0
  188.2350  172.5710  142.3660 O   0  0  0  0  0  1  0  0  0  0  0  0
  1  9  1  1  0  0  0
  3  8  2  0  0  0  0
  4  3  2  0  0  0  0
  4  2  1  0  0  0  0
  5 10  1  0  0  0  0
  6  4  1  0  0  0  0
  7  6  1  0  0  0  0
  7  5  2  0  0  0  0
  9  6  2  0  0  0  0
 10  2  2  0  0  0  0
 12 11  1  1  0  0  0
 12  1  1  0  0  0  0
 12 13  1  0  0  0  0
 13 14  1  0  0  0  0
 14 16  1  0  0  0  0
 16 15  1  1  0  0  0
 16 19  1  0  0  0  0
 17 14  1  0  0  0  0
 17 16  1  0  0  0  0
 19 18  1  6  0  0  0
 19 20  1  0  0  0  0
 20 21  1  0  0  0  0
 22 20  2  0  0  0  0
 23 24  1  6  0  0  0
 23  1  1  0  0  0  0
 23 25  1  0  0  0  0
 25 26  1  0  0  0  0
 27 25  1  0  0  0  0
M  END
>  <MODEL>
5

>  <REMARK>
 VINA RESULT:      -6.1      2.375      4.719
  Name = 
  8 active torsions:
  status: ('A' for Active; 'I' for Inactive)
    1  A    between atoms: C_1  and  C_26
    2  A    between atoms: C_5  and  C_8
    3  A    between atoms: C_5  and  C_11
    4  A    between atoms: C_7  and  C_11
    5  A    between atoms: C_7  and  C_14
    6  A    between atoms: C_8  and  N_10
    7  A    between atoms: C_11  and  N_24
    8  A    between atoms: C_20  and  C_26
                            x       y       z     vdW  Elec       q    Type
                         _______ _______ _______ _____ _____    ______ ____

>  <TORSDO>
F 8

$$$$
=
 OpenBabel11062421083D

 27 28  0  0  1  0  0  0  0  0999 V2000
  189.5750  176.7370  144.9130 C   0  0  2  0  0  3  0  0  0  0  0  0
  185.5200  178.4000  142.5430 C   0  0  0  0  0  3  0  0  0  0  0  0
  187.1060  176.9960  141.4090 C   0  0  0  0  0  0  0  0  0  0  0  0
  186.7630  177.6120  142.5090 C   0  0  0  0  0  0  0  0  0  0  0  0
  185.9790  178.9820  144.8860 C   0  0  0  0  0  3  0  0  0  0  0  0
  187.5920  177.5440  143.7340 C   0  0  0  0  0  0  0  0  0  0  0  0
  187.1190  178.2840  144.9260 C   0  0  0  0  0  3  0  0  0  0  0  0
  187.4320  176.4110  140.3680 O   0  0  0  0  0  0  0  0  0  0  0  0
  188.7000  176.8620  143.7480 N   0  0  0  0  0  0  0  0  0  0  0  0
  185.1550  179.0400  143.6600 C   0  0  0  0  0  3  0  0  0  0  0  0
  191.1810  177.5220  143.3020 O   0  0  0  0  0  1  0  0  0  0  0  0
  190.8930  177.4820  144.6680 C   0  0  2  0  0  3  0  0  0  0  0  0
  192.0390  176.7900  145.3930 C   0  0  0  0  0  2  0  0  0  0  0  0
  193.3100  177.1610  144.7810 N   0  0  0  0  0  0  0  0  0  0  0  0
  193.8140  174.8500  145.3470 O   0  0  0  0  0  1  0  0  0  0  0  0
  194.3160  176.0800  144.9030 C   0  0  2  0  0  0  0  0  0  0  0  0
  194.3060  177.1610  145.8760 C   0  0  0  0  0  2  0  0  0  0  0  0
  196.2210  177.1640  143.8890 F   0  0  0  0  0  0  0  0  0  0  0  0
  195.3650  176.0790  143.7900 C   0  0  1  0  0  3  0  0  0  0  0  0
  196.1460  174.8080  143.7970 C   0  0  0  0  0  0  0  0  0  0  0  0
  195.8810  173.7930  142.8330 N   0  0  0  0  0  1  0  0  0  0  0  0
  197.0620  174.6420  144.6440 O   0  0  0  0  0  0  0  0  0  0  0  0
  189.7660  175.2510  145.2630 C   0  0  2  0  0  3  0  0  0  0  0  0
  189.3200  174.4210  144.2310 O   0  0  0  0  0  1  0  0  0  0  0  0
  189.1610  174.8460  146.6080 C   0  0  0  0  0  3  0  0  0  0  0  0
  188.0900  175.6840  146.9130 O   0  0  0  0  0  1  0  0  0  0  0  0
  190.1140  174.9190  147.6270 O   0  0  0  0  0  1  0  0  0  0  0  0
  1  9  1  6  0  0  0
  1 23  1  0  0  0  0
  2 10  2  0  0  0  0
  3  4  2  0  0  0  0
  4  2  1  0  0  0  0
  4  6  1  0  0  0  0
  5  7  2  0  0  0  0
  6  9  2  0  0  0  0
  6  7  1  0  0  0  0
  8  3  2  0  0  0  0
 10  5  1  0  0  0  0
 12 11  1  6  0  0  0
 12  1  1  0  0  0  0
 12 13  1  0  0  0  0
 14 16  1  0  0  0  0
 14 13  1  0  0  0  0
 14 17  1  0  0  0  0
 16 15  1  1  0  0  0
 16 17  1  0  0  0  0
 19 20  1  0  0  0  0
 19 18  1  1  0  0  0
 19 16  1  0  0  0  0
 20 22  2  0  0  0  0
 21 20  1  0  0  0  0
 23 24  1  6  0  0  0
 23 25  1  0  0  0  0
 25 26  1  0  0  0  0
 25 27  1  0  0  0  0
M  END
>  <MODEL>
6

>  <REMARK>
 VINA RESULT:      -5.7      3.311      6.752
  Name = 
  8 active torsions:
  status: ('A' for Active; 'I' for Inactive)
    1  A    between atoms: C_1  and  C_26
    2  A    between atoms: C_5  and  C_8
    3  A    between atoms: C_5  and  C_11
    4  A    between atoms: C_7  and  C_11
    5  A    between atoms: C_7  and  C_14
    6  A    between atoms: C_8  and  N_10
    7  A    between atoms: C_11  and  N_24
    8  A    between atoms: C_20  and  C_26
                            x       y       z     vdW  Elec       q    Type
                         _______ _______ _______ _____ _____    ______ ____

>  <TORSDO>
F 8

$$$$
=
 OpenBabel11062421083D

 27 28  0  0  1  0  0  0  0  0999 V2000
  188.9750  176.3370  144.7100 C   0  0  2  0  0  3  0  0  0  0  0  0
  184.9610  179.2260  145.3100 C   0  0  0  0  0  3  0  0  0  0  0  0
  185.8970  178.0350  147.1750 C   0  0  0  0  0  0  0  0  0  0  0  0
  185.9570  178.3180  145.9010 C   0  0  0  0  0  0  0  0  0  0  0  0
  186.0450  178.9560  143.1220 C   0  0  0  0  0  3  0  0  0  0  0  0
  187.0050  177.7490  145.0230 C   0  0  0  0  0  0  0  0  0  0  0  0
  186.9820  178.1260  143.5910 C   0  0  0  0  0  3  0  0  0  0  0  0
  185.8410  177.7670  148.3820 O   0  0  0  0  0  0  0  0  0  0  0  0
  187.9040  176.9400  145.5020 N   0  0  0  0  0  0  0  0  0  0  0  0
  185.0050  179.5240  144.0060 C   0  0  0  0  0  3  0  0  0  0  0  0
  189.1950  174.5230  146.2750 O   0  0  0  0  0  1  0  0  0  0  0  0
  189.0030  174.8180  144.9240 C   0  0  2  0  0  3  0  0  0  0  0  0
  190.1280  174.1870  144.1160 C   0  0  0  0  0  2  0  0  0  0  0  0
  191.0880  173.5530  145.0120 N   0  0  0  0  0  0  0  0  0  0  0  0
  192.6390  174.7490  143.5710 O   0  0  0  0  0  1  0  0  0  0  0  0
  192.4850  173.7910  144.5810 C   0  0  2  0  0  0  0  0  0  0  0  0
  191.8170  172.5580  144.1930 C   0  0  0  0  0  2  0  0  0  0  0  0
  194.5320  172.8760  145.4780 F   0  0  0  0  0  0  0  0  0  0  0  0
  193.5010  173.7680  145.7230 C   0  0  1  0  0  3  0  0  0  0  0  0
  194.0530  175.1320  145.9710 C   0  0  0  0  0  0  0  0  0  0  0  0
  195.3650  175.4700  145.5290 N   0  0  0  0  0  1  0  0  0  0  0  0
  193.3470  175.9970  146.5510 O   0  0  0  0  0  0  0  0  0  0  0  0
  190.3130  177.0260  145.0330 C   0  0  2  0  0  3  0  0  0  0  0  0
  190.2730  177.6600  146.2770 O   0  0  0  0  0  1  0  0  0  0  0  0
  190.8040  177.9740  143.9370 C   0  0  0  0  0  3  0  0  0  0  0  0
  190.3190  177.5530  142.7000 O   0  0  0  0  0  1  0  0  0  0  0  0
  192.1990  178.0150  143.9010 O   0  0  0  0  0  1  0  0  0  0  0  0
  1 12  1  0  0  0  0
  1 23  1  0  0  0  0
  1  9  1  1  0  0  0
  2  4  1  0  0  0  0
  3  8  2  0  0  0  0
  4  3  2  0  0  0  0
  5  7  2  0  0  0  0
  5 10  1  0  0  0  0
  6  9  2  0  0  0  0
  6  4  1  0  0  0  0
  7  6  1  0  0  0  0
 10  2  2  0  0  0  0
 12 11  1  1  0  0  0
 13 12  1  0  0  0  0
 13 14  1  0  0  0  0
 16 15  1  6  0  0  0
 16 14  1  0  0  0  0
 16 19  1  0  0  0  0
 17 16  1  0  0  0  0
 17 14  1  0  0  0  0
 19 18  1  6  0  0  0
 19 20  1  0  0  0  0
 20 22  2  0  0  0  0
 21 20  1  0  0  0  0
 23 24  1  1  0  0  0
 25 23  1  0  0  0  0
 26 25  1  0  0  0  0
 27 25  1  0  0  0  0
M  END
>  <MODEL>
7

>  <REMARK>
 VINA RESULT:      -5.7      2.984      6.409
  Name = 
  8 active torsions:
  status: ('A' for Active; 'I' for Inactive)
    1  A    between atoms: C_1  and  C_26
    2  A    between atoms: C_5  and  C_8
    3  A    between atoms: C_5  and  C_11
    4  A    between atoms: C_7  and  C_11
    5  A    between atoms: C_7  and  C_14
    6  A    between atoms: C_8  and  N_10
    7  A    between atoms: C_11  and  N_24
    8  A    between atoms: C_20  and  C_26
                            x       y       z     vdW  Elec       q    Type
                         _______ _______ _______ _____ _____    ______ ____

>  <TORSDO>
F 8

$$$$
=
 OpenBabel11062421083D

 27 28  0  0  1  0  0  0  0  0999 V2000
  187.3690  177.5010  146.2090 C   0  0  2  0  0  3  0  0  0  0  0  0
  186.2860  177.1960  141.3560 C   0  0  0  0  0  3  0  0  0  0  0  0
  187.4110  175.3890  142.4710 C   0  0  0  0  0  0  0  0  0  0  0  0
  186.8770  176.5790  142.5540 C   0  0  0  0  0  0  0  0  0  0  0  0
  185.7080  179.1780  142.6870 C   0  0  0  0  0  3  0  0  0  0  0  0
  186.8460  177.3340  143.8270 C   0  0  0  0  0  0  0  0  0  0  0  0
  186.2250  178.6780  143.8140 C   0  0  0  0  0  3  0  0  0  0  0  0
  187.9170  174.2620  142.3930 O   0  0  0  0  0  0  0  0  0  0  0  0
  187.3590  176.8290  144.9110 N   0  0  0  0  0  0  0  0  0  0  0  0
  185.7380  178.4150  141.4210 C   0  0  0  0  0  3  0  0  0  0  0  0
  189.0890  178.2950  147.6910 O   0  0  0  0  0  1  0  0  0  0  0  0
  188.6660  177.1820  146.9630 C   0  0  2  0  0  3  0  0  0  0  0  0
  189.7650  176.7840  145.9870 C   0  0  0  0  0  2  0  0  0  0  0  0
  190.6260  175.7760  146.5950 N   0  0  0  0  0  0  0  0  0  0  0  0
  191.8500  176.1300  144.5230 O   0  0  0  0  0  1  0  0  0  0  0  0
  191.7040  175.3460  145.6750 C   0  0  2  0  0  0  0  0  0  0  0  0
  190.4840  174.5610  145.7620 C   0  0  0  0  0  2  0  0  0  0  0  0
  193.3130  173.5720  145.9890 F   0  0  0  0  0  0  0  0  0  0  0  0
  192.9670  174.8550  146.3830 C   0  0  1  0  0  3  0  0  0  0  0  0
  194.1080  175.7870  146.1470 C   0  0  0  0  0  0  0  0  0  0  0  0
  194.1640  177.0420  146.8180 N   0  0  0  0  0  1  0  0  0  0  0  0
  195.0380  175.4520  145.3700 O   0  0  0  0  0  0  0  0  0  0  0  0
  186.0970  177.1350  146.9940 C   0  0  2  0  0  3  0  0  0  0  0  0
  185.3000  176.2340  146.2830 O   0  0  0  0  0  1  0  0  0  0  0  0
  185.2890  178.3440  147.4680 C   0  0  0  0  0  3  0  0  0  0  0  0
  184.1080  178.4380  146.7340 O   0  0  0  0  0  1  0  0  0  0  0  0
  186.0230  179.5230  147.3230 O   0  0  0  0  0  1  0  0  0  0  0  0
  1  9  1  6  0  0  0
  1 12  1  0  0  0  0
  1 23  1  0  0  0  0
  2 10  2  0  0  0  0
  2  4  1  0  0  0  0
  3  4  2  0  0  0  0
  4  6  1  0  0  0  0
  5  7  2  0  0  0  0
  6  9  2  0  0  0  0
  7  6  1  0  0  0  0
  8  3  2  0  0  0  0
 10  5  1  0  0  0  0
 12 11  1  6  0  0  0
 13 14  1  0  0  0  0
 13 12  1  0  0  0  0
 16 15  1  6  0  0  0
 16 17  1  0  0  0  0
 16 19  1  0  0  0  0
 16 14  1  0  0  0  0
 17 14  1  0  0  0  0
 19 18  1  6  0  0  0
 20 19  1  0  0  0  0
 20 21  1  0  0  0  0
 22 20  2  0  0  0  0
 23 24  1  6  0  0  0
 23 25  1  0  0  0  0
 26 25  1  0  0  0  0
 27 25  1  0  0  0  0
M  END
>  <MODEL>
8

>  <REMARK>
 VINA RESULT:      -5.6      2.833      6.436
  Name = 
  8 active torsions:
  status: ('A' for Active; 'I' for Inactive)
    1  A    between atoms: C_1  and  C_26
    2  A    between atoms: C_5  and  C_8
    3  A    between atoms: C_5  and  C_11
    4  A    between atoms: C_7  and  C_11
    5  A    between atoms: C_7  and  C_14
    6  A    between atoms: C_8  and  N_10
    7  A    between atoms: C_11  and  N_24
    8  A    between atoms: C_20  and  C_26
                            x       y       z     vdW  Elec       q    Type
                         _______ _______ _______ _____ _____    ______ ____

>  <TORSDO>
F 8

$$$$
=
 OpenBabel11062421083D

 27 28  0  0  1  0  0  0  0  0999 V2000
  189.9220  176.1290  144.3810 C   0  0  2  0  0  3  0  0  0  0  0  0
  185.4120  177.9670  145.4310 C   0  0  0  0  0  3  0  0  0  0  0  0
  186.3910  178.3010  143.2620 C   0  0  0  0  0  0  0  0  0  0  0  0
  186.5050  177.7920  144.4610 C   0  0  0  0  0  0  0  0  0  0  0  0
  186.7140  176.7070  147.0910 C   0  0  0  0  0  3  0  0  0  0  0  0
  187.7080  177.0390  144.8790 C   0  0  0  0  0  0  0  0  0  0  0  0
  187.7430  176.5100  146.2610 C   0  0  0  0  0  3  0  0  0  0  0  0
  186.2840  178.7820  142.1270 O   0  0  0  0  0  0  0  0  0  0  0  0
  188.7000  176.8630  144.0540 N   0  0  0  0  0  0  0  0  0  0  0  0
  185.5130  177.4570  146.6640 C   0  0  0  0  0  3  0  0  0  0  0  0
  191.8530  177.1860  143.4110 O   0  0  0  0  0  1  0  0  0  0  0  0
  191.0900  177.1050  144.5760 C   0  0  2  0  0  3  0  0  0  0  0  0
  191.9830  176.6450  145.7200 C   0  0  0  0  0  2  0  0  0  0  0  0
  193.3530  176.4850  145.2470 N   0  0  0  0  0  0  0  0  0  0  0  0
  193.0760  174.3380  146.3540 O   0  0  0  0  0  1  0  0  0  0  0  0
  193.9660  175.2320  145.7450 C   0  0  2  0  0  0  0  0  0  0  0  0
  194.2050  176.4770  146.4580 C   0  0  0  0  0  2  0  0  0  0  0  0
  195.9910  175.6300  144.4900 F   0  0  0  0  0  0  0  0  0  0  0  0
  195.0540  174.6670  144.8320 C   0  0  1  0  0  3  0  0  0  0  0  0
  195.7310  173.5000  145.4700 C   0  0  0  0  0  0  0  0  0  0  0  0
  196.8590  173.6960  146.3180 N   0  0  0  0  0  1  0  0  0  0  0  0
  195.2870  172.3390  145.2790 O   0  0  0  0  0  0  0  0  0  0  0  0
  190.1900  175.0590  143.3080 C   0  0  2  0  0  3  0  0  0  0  0  0
  189.3650  175.2360  142.1940 O   0  0  0  0  0  1  0  0  0  0  0  0
  190.1240  173.6240  143.8320 C   0  0  0  0  0  3  0  0  0  0  0  0
  189.1570  172.9100  143.1260 O   0  0  0  0  0  1  0  0  0  0  0  0
  189.8160  173.6020  145.1940 O   0  0  0  0  0  1  0  0  0  0  0  0
  1  9  1  6  0  0  0
  1 12  1  0  0  0  0
  2 10  2  0  0  0  0
  3  4  2  0  0  0  0
  4  6  1  0  0  0  0
  4  2  1  0  0  0  0
  6  7  1  0  0  0  0
  7  5  2  0  0  0  0
  8  3  2  0  0  0  0
  9  6  2  0  0  0  0
 10  5  1  0  0  0  0
 12 11  1  6  0  0  0
 12 13  1  0  0  0  0
 14 13  1  0  0  0  0
 14 16  1  0  0  0  0
 14 17  1  0  0  0  0
 16 15  1  1  0  0  0
 16 17  1  0  0  0  0
 19 18  1  1  0  0  0
 19 20  1  0  0  0  0
 19 16  1  0  0  0  0
 20 21  1  0  0  0  0
 22 20  2  0  0  0  0
 23 24  1  6  0  0  0
 23 25  1  0  0  0  0
 23  1  1  0  0  0  0
 25 27  1  0  0  0  0
 26 25  1  0  0  0  0
M  END
>  <MODEL>
9

>  <REMARK>
 VINA RESULT:      -5.6      3.216      6.689
  Name = 
  8 active torsions:
  status: ('A' for Active; 'I' for Inactive)
    1  A    between atoms: C_1  and  C_26
    2  A    between atoms: C_5  and  C_8
    3  A    between atoms: C_5  and  C_11
    4  A    between atoms: C_7  and  C_11
    5  A    between atoms: C_7  and  C_14
    6  A    between atoms: C_8  and  N_10
    7  A    between atoms: C_11  and  N_24
    8  A    between atoms: C_20  and  C_26
                            x       y       z     vdW  Elec       q    Type
                         _______ _______ _______ _____ _____    ______ ____

>  <TORSDO>
F 8

$$$$
