=
 OpenBabel11072408513D

 26 30  0  0  1  0  0  0  0  0999 V2000
  193.7350  175.2680  144.4770 O   0  0  0  0  0  1  0  0  0  0  0  0
  191.5520  176.5140  147.1660 C   0  0  0  0  0  3  0  0  0  0  0  0
  192.6770  176.0740  146.4730 C   0  0  0  0  0  3  0  0  0  0  0  0
  186.8610  177.4560  147.1950 C   0  0  0  0  0  3  0  0  0  0  0  0
  191.3700  175.8370  144.4300 C   0  0  0  0  0  0  0  0  0  0  0  0
  186.5520  176.9140  144.9770 C   0  0  0  0  0  0  0  0  0  0  0  0
  192.5920  175.7260  145.1240 C   0  0  0  0  0  0  0  0  0  0  0  0
  189.2520  177.0040  147.2220 O   0  0  0  0  0  0  0  0  0  0  0  0
  188.0670  177.0790  146.6420 C   0  0  0  0  0  0  0  0  0  0  0  0
  190.2140  176.2490  145.1350 C   0  0  0  0  0  0  0  0  0  0  0  0
  188.9550  176.3150  144.5020 C   0  0  0  0  0  3  0  0  0  0  0  0
  187.8810  176.7380  145.2660 C   0  0  0  0  0  0  0  0  0  0  0  0
  185.9370  177.3520  146.1520 C   0  0  0  0  0  0  0  0  0  0  0  0
  190.3180  176.6010  146.5230 C   0  0  0  0  0  0  0  0  0  0  0  0
  189.3330  171.7370  142.4640 O   0  0  0  0  0  0  0  0  0  0  0  0
  190.7890  172.9980  143.9090 C   0  0  0  0  0  2  0  0  0  0  0  0
  191.3150  175.4300  142.9720 C   0  0  2  0  0  3  0  0  0  0  0  0
  190.9510  173.9970  142.7620 C   0  0  0  0  0  0  0  0  0  0  0  0
  189.4400  172.2960  143.7520 C   0  0  0  0  0  2  0  0  0  0  0  0
  190.4280  173.5920  141.3900 C   0  0  0  0  0  2  0  0  0  0  0  0
  189.1280  172.8110  141.5780 C   0  0  0  0  0  2  0  0  0  0  0  0
  192.2800  174.4380  142.6820 O   0  0  0  0  0  0  0  0  0  0  0  0
  184.4780  177.6140  146.3050 C   0  0  0  0  0  2  0  0  0  0  0  0
  184.1800  178.8960  145.8430 O   0  0  0  0  0  1  0  0  0  0  0  0
  185.8840  177.8700  142.8060 C   0  0  0  0  0  1  0  0  0  0  0  0
  185.8840  176.6270  143.6730 C   0  0  0  0  0  2  0  0  0  0  0  0
  1  7  1  0  0  0  0
  3  2  2  0  0  0  0
  5  7  2  0  0  0  0
  5 10  1  0  0  0  0
  6 12  1  0  0  0  0
  6 13  2  0  0  0  0
  7  3  1  0  0  0  0
  9  4  2  0  0  0  0
  9  8  1  0  0  0  0
 10 14  2  0  0  0  0
 11 10  1  0  0  0  0
 11 12  2  0  0  0  0
 12  9  1  0  0  0  0
 13 23  1  0  0  0  0
 13  4  1  0  0  0  0
 14  2  1  0  0  0  0
 14  8  1  0  0  0  0
 15 19  1  0  0  0  0
 17  5  1  1  0  0  0
 18 17  1  0  0  0  0
 18 16  1  0  0  0  0
 19 16  1  0  0  0  0
 20 21  1  0  0  0  0
 20 18  1  0  0  0  0
 21 15  1  0  0  0  0
 22 18  1  0  0  0  0
 22 17  1  0  0  0  0
 24 23  1  0  0  0  0
 25 26  1  0  0  0  0
 26  6  1  0  0  0  0
M  END
>  <MODEL>
1

>  <REMARK>
 VINA RESULT:      -7.3      0.000      0.000
  Name = 
  3 active torsions:
  status: ('A' for Active; 'I' for Inactive)
    1  A    between atoms: C_7  and  C_10
    2  A    between atoms: C_9  and  C_25
    3  A    between atoms: C_11  and  C_23
                            x       y       z     vdW  Elec       q    Type
                         _______ _______ _______ _____ _____    ______ ____

>  <TORSDO>
F 3

$$$$
=
 OpenBabel11072408513D

 26 30  0  0  1  0  0  0  0  0999 V2000
  193.8360  175.9620  146.1330 O   0  0  0  0  0  1  0  0  0  0  0  0
  190.8200  176.9830  147.9800 C   0  0  0  0  0  3  0  0  0  0  0  0
  192.1250  176.5900  147.6920 C   0  0  0  0  0  3  0  0  0  0  0  0
  186.4110  178.0160  146.4330 C   0  0  0  0  0  3  0  0  0  0  0  0
  191.6340  176.5820  145.3050 C   0  0  0  0  0  0  0  0  0  0  0  0
  186.9200  177.7010  144.2080 C   0  0  0  0  0  0  0  0  0  0  0  0
  192.5310  176.3780  146.3730 C   0  0  0  0  0  0  0  0  0  0  0  0
  188.6430  177.5130  147.2630 O   0  0  0  0  0  0  0  0  0  0  0  0
  187.7410  177.6710  146.3100 C   0  0  0  0  0  0  0  0  0  0  0  0
  190.2970  176.9470  145.5910 C   0  0  0  0  0  0  0  0  0  0  0  0
  189.3440  177.1010  144.5610 C   0  0  0  0  0  3  0  0  0  0  0  0
  188.0620  177.4700  144.9310 C   0  0  0  0  0  0  0  0  0  0  0  0
  185.9210  178.0350  145.1250 C   0  0  0  0  0  0  0  0  0  0  0  0
  189.8940  177.1590  146.9520 C   0  0  0  0  0  0  0  0  0  0  0  0
  190.1960  172.9540  142.2070 O   0  0  0  0  0  0  0  0  0  0  0  0
  191.0820  173.8940  144.2400 C   0  0  0  0  0  2  0  0  0  0  0  0
  192.1070  176.3220  143.8900 C   0  0  2  0  0  3  0  0  0  0  0  0
  191.7440  174.9680  143.3740 C   0  0  0  0  0  0  0  0  0  0  0  0
  189.8470  173.3750  143.5050 C   0  0  0  0  0  2  0  0  0  0  0  0
  191.7530  174.7580  141.8660 C   0  0  0  0  0  2  0  0  0  0  0  0
  190.4240  174.1230  141.4570 C   0  0  0  0  0  2  0  0  0  0  0  0
  193.0320  175.2530  143.8500 O   0  0  0  0  0  0  0  0  0  0  0  0
  184.4990  178.3110  144.7750 C   0  0  0  0  0  2  0  0  0  0  0  0
  183.8960  179.0400  145.8000 O   0  0  0  0  0  1  0  0  0  0  0  0
  186.7110  176.0900  142.3540 C   0  0  0  0  0  1  0  0  0  0  0  0
  186.7640  177.5580  142.7300 C   0  0  0  0  0  2  0  0  0  0  0  0
  1  7  1  0  0  0  0
  3  2  1  0  0  0  0
  5 10  2  0  0  0  0
  5  7  1  0  0  0  0
  6 12  1  0  0  0  0
  6 13  2  0  0  0  0
  7  3  2  0  0  0  0
  9  4  2  0  0  0  0
  9  8  1  0  0  0  0
 10 14  1  0  0  0  0
 11 12  2  0  0  0  0
 11 10  1  0  0  0  0
 12  9  1  0  0  0  0
 13  4  1  0  0  0  0
 14  8  1  0  0  0  0
 14  2  2  0  0  0  0
 15 19  1  0  0  0  0
 17  5  1  1  0  0  0
 18 22  1  0  0  0  0
 18 17  1  0  0  0  0
 18 16  1  0  0  0  0
 19 16  1  0  0  0  0
 20 18  1  0  0  0  0
 21 20  1  0  0  0  0
 21 15  1  0  0  0  0
 22 17  1  0  0  0  0
 23 13  1  0  0  0  0
 23 24  1  0  0  0  0
 25 26  1  0  0  0  0
 26  6  1  0  0  0  0
M  END
>  <MODEL>
2

>  <REMARK>
 VINA RESULT:      -7.1      1.099      1.328
  Name = 
  3 active torsions:
  status: ('A' for Active; 'I' for Inactive)
    1  A    between atoms: C_7  and  C_10
    2  A    between atoms: C_9  and  C_25
    3  A    between atoms: C_11  and  C_23
                            x       y       z     vdW  Elec       q    Type
                         _______ _______ _______ _____ _____    ______ ____

>  <TORSDO>
F 3

$$$$
=
 OpenBabel11072408513D

 26 30  0  0  1  0  0  0  0  0999 V2000
  191.2510  172.3680  142.1420 O   0  0  0  0  0  1  0  0  0  0  0  0
  188.5300  174.4720  140.8300 C   0  0  0  0  0  3  0  0  0  0  0  0
  189.5560  173.5330  140.9070 C   0  0  0  0  0  3  0  0  0  0  0  0
  185.8570  177.8140  142.9710 C   0  0  0  0  0  3  0  0  0  0  0  0
  189.8390  173.9870  143.2850 C   0  0  0  0  0  0  0  0  0  0  0  0
  186.8490  177.5470  145.0330 C   0  0  0  0  0  0  0  0  0  0  0  0
  190.2150  173.2970  142.1140 C   0  0  0  0  0  0  0  0  0  0  0  0
  187.1830  176.1120  141.8450 O   0  0  0  0  0  0  0  0  0  0  0  0
  186.8190  176.8280  142.8940 C   0  0  0  0  0  0  0  0  0  0  0  0
  188.8220  174.9680  143.2070 C   0  0  0  0  0  0  0  0  0  0  0  0
  188.4530  175.7300  144.3350 C   0  0  0  0  0  3  0  0  0  0  0  0
  187.4410  176.6610  144.1710 C   0  0  0  0  0  0  0  0  0  0  0  0
  185.8860  178.2440  144.3000 C   0  0  0  0  0  0  0  0  0  0  0  0
  188.1550  175.2010  141.9580 C   0  0  0  0  0  0  0  0  0  0  0  0
  193.1760  176.9080  145.5560 O   0  0  0  0  0  0  0  0  0  0  0  0
  192.2340  175.6370  143.7400 C   0  0  0  0  0  2  0  0  0  0  0  0
  190.5940  173.7170  144.5700 C   0  0  2  0  0  3  0  0  0  0  0  0
  191.7590  174.6250  144.7850 C   0  0  0  0  0  0  0  0  0  0  0  0
  192.3590  177.0040  144.4140 C   0  0  0  0  0  2  0  0  0  0  0  0
  192.3020  174.7600  146.2010 C   0  0  0  0  0  2  0  0  0  0  0  0
  192.4140  176.2470  146.5370 C   0  0  0  0  0  2  0  0  0  0  0  0
  191.9240  173.3170  144.3070 O   0  0  0  0  0  0  0  0  0  0  0  0
  185.0400  179.3480  144.8340 C   0  0  0  0  0  2  0  0  0  0  0  0
  183.9270  178.8150  145.4840 O   0  0  0  0  0  1  0  0  0  0  0  0
  186.3590  176.8900  147.3580 C   0  0  0  0  0  1  0  0  0  0  0  0
  187.2140  177.7670  146.4650 C   0  0  0  0  0  2  0  0  0  0  0  0
  2  3  2  0  0  0  0
  2 14  1  0  0  0  0
  3  7  1  0  0  0  0
  4 13  1  0  0  0  0
  6 26  1  0  0  0  0
  7  1  1  0  0  0  0
  7  5  2  0  0  0  0
  8 14  1  0  0  0  0
  8  9  1  0  0  0  0
  9  4  2  0  0  0  0
  9 12  1  0  0  0  0
 10  5  1  0  0  0  0
 10 11  1  0  0  0  0
 12 11  2  0  0  0  0
 12  6  1  0  0  0  0
 13 23  1  0  0  0  0
 13  6  2  0  0  0  0
 14 10  2  0  0  0  0
 15 21  1  0  0  0  0
 16 19  1  0  0  0  0
 16 18  1  0  0  0  0
 17  5  1  6  0  0  0
 17 18  1  0  0  0  0
 18 20  1  0  0  0  0
 19 15  1  0  0  0  0
 20 21  1  0  0  0  0
 22 17  1  0  0  0  0
 22 18  1  0  0  0  0
 23 24  1  0  0  0  0
 26 25  1  0  0  0  0
M  END
>  <MODEL>
3

>  <REMARK>
 VINA RESULT:      -7.1      1.703      4.291
  Name = 
  3 active torsions:
  status: ('A' for Active; 'I' for Inactive)
    1  A    between atoms: C_7  and  C_10
    2  A    between atoms: C_9  and  C_25
    3  A    between atoms: C_11  and  C_23
                            x       y       z     vdW  Elec       q    Type
                         _______ _______ _______ _____ _____    ______ ____

>  <TORSDO>
F 3

$$$$
=
 OpenBabel11072408513D

 26 30  0  0  1  0  0  0  0  0999 V2000
  183.9470  178.6720  145.6370 O   0  0  0  0  0  1  0  0  0  0  0  0
  186.8950  178.7970  147.8370 C   0  0  0  0  0  3  0  0  0  0  0  0
  185.6290  179.0350  147.3070 C   0  0  0  0  0  3  0  0  0  0  0  0
  191.1320  176.5960  147.5090 C   0  0  0  0  0  3  0  0  0  0  0  0
  186.0510  177.4580  145.4980 C   0  0  0  0  0  0  0  0  0  0  0  0
  190.5940  175.4520  145.5820 C   0  0  0  0  0  0  0  0  0  0  0  0
  185.2100  178.3860  146.1450 C   0  0  0  0  0  0  0  0  0  0  0  0
  188.9860  177.7260  147.7240 O   0  0  0  0  0  0  0  0  0  0  0  0
  189.8410  176.9070  147.1350 C   0  0  0  0  0  0  0  0  0  0  0  0
  187.3520  177.2370  146.0090 C   0  0  0  0  0  0  0  0  0  0  0  0
  188.2540  176.3670  145.3620 C   0  0  0  0  0  3  0  0  0  0  0  0
  189.5020  176.2020  145.9380 C   0  0  0  0  0  0  0  0  0  0  0  0
  191.5810  175.6940  146.5410 C   0  0  0  0  0  0  0  0  0  0  0  0
  187.7690  177.9140  147.2040 C   0  0  0  0  0  0  0  0  0  0  0  0
  187.9040  177.9100  140.8950 O   0  0  0  0  0  0  0  0  0  0  0  0
  186.9660  178.6740  142.9780 C   0  0  0  0  0  2  0  0  0  0  0  0
  185.5660  176.7910  144.2270 C   0  0  2  0  0  3  0  0  0  0  0  0
  186.1120  177.4040  142.9800 C   0  0  0  0  0  0  0  0  0  0  0  0
  188.2370  178.4000  142.1720 C   0  0  0  0  0  2  0  0  0  0  0  0
  186.0740  176.5720  141.7060 C   0  0  0  0  0  2  0  0  0  0  0  0
  187.4680  176.5850  141.0770 C   0  0  0  0  0  2  0  0  0  0  0  0
  184.8160  177.6880  143.4330 O   0  0  0  0  0  0  0  0  0  0  0  0
  192.9560  175.1230  146.5130 C   0  0  0  0  0  2  0  0  0  0  0  0
  193.8940  176.1560  146.5010 O   0  0  0  0  0  1  0  0  0  0  0  0
  190.1700  173.2110  144.6470 C   0  0  0  0  0  1  0  0  0  0  0  0
  190.7210  174.5950  144.3660 C   0  0  0  0  0  2  0  0  0  0  0  0
  1  7  1  0  0  0  0
  3  2  1  0  0  0  0
  5 10  2  0  0  0  0
  5  7  1  0  0  0  0
  6 12  1  0  0  0  0
  6 13  2  0  0  0  0
  7  3  2  0  0  0  0
  9  4  2  0  0  0  0
  9  8  1  0  0  0  0
 10 14  1  0  0  0  0
 11 12  2  0  0  0  0
 11 10  1  0  0  0  0
 12  9  1  0  0  0  0
 13  4  1  0  0  0  0
 14  8  1  0  0  0  0
 14  2  2  0  0  0  0
 15 21  1  0  0  0  0
 15 19  1  0  0  0  0
 16 18  1  0  0  0  0
 17  5  1  1  0  0  0
 18 22  1  0  0  0  0
 18 17  1  0  0  0  0
 19 16  1  0  0  0  0
 20 18  1  0  0  0  0
 21 20  1  0  0  0  0
 22 17  1  0  0  0  0
 23 13  1  0  0  0  0
 24 23  1  0  0  0  0
 26 25  1  0  0  0  0
 26  6  1  0  0  0  0
M  END
>  <MODEL>
4

>  <REMARK>
 VINA RESULT:      -7.0      2.079      6.067
  Name = 
  3 active torsions:
  status: ('A' for Active; 'I' for Inactive)
    1  A    between atoms: C_7  and  C_10
    2  A    between atoms: C_9  and  C_25
    3  A    between atoms: C_11  and  C_23
                            x       y       z     vdW  Elec       q    Type
                         _______ _______ _______ _____ _____    ______ ____

>  <TORSDO>
F 3

$$$$
=
 OpenBabel11072408513D

 26 30  0  0  1  0  0  0  0  0999 V2000
  192.9400  174.0540  145.6250 O   0  0  0  0  0  1  0  0  0  0  0  0
  190.8010  176.3420  147.5590 C   0  0  0  0  0  3  0  0  0  0  0  0
  191.8690  175.5300  147.1830 C   0  0  0  0  0  3  0  0  0  0  0  0
  186.4840  178.1570  146.5800 C   0  0  0  0  0  3  0  0  0  0  0  0
  190.7920  175.0420  145.0520 C   0  0  0  0  0  0  0  0  0  0  0  0
  186.3220  177.1420  144.5180 C   0  0  0  0  0  0  0  0  0  0  0  0
  191.8650  174.8740  145.9500 C   0  0  0  0  0  0  0  0  0  0  0  0
  188.6860  177.2690  147.1130 O   0  0  0  0  0  0  0  0  0  0  0  0
  187.6270  177.4250  146.3380 C   0  0  0  0  0  0  0  0  0  0  0  0
  189.6880  175.8370  145.4400 C   0  0  0  0  0  0  0  0  0  0  0  0
  188.5610  175.9850  144.6040 C   0  0  0  0  0  3  0  0  0  0  0  0
  187.5310  176.7890  145.0600 C   0  0  0  0  0  0  0  0  0  0  0  0
  185.6900  177.9750  145.4440 C   0  0  0  0  0  0  0  0  0  0  0  0
  189.7050  176.5020  146.7130 C   0  0  0  0  0  0  0  0  0  0  0  0
  193.9900  175.6010  141.2720 O   0  0  0  0  0  0  0  0  0  0  0  0
  192.3540  176.2980  142.8960 C   0  0  0  0  0  2  0  0  0  0  0  0
  190.8170  174.2980  143.7320 C   0  0  2  0  0  3  0  0  0  0  0  0
  191.6760  174.9410  142.6950 C   0  0  0  0  0  0  0  0  0  0  0  0
  193.8380  176.1510  142.5590 C   0  0  0  0  0  2  0  0  0  0  0  0
  192.1380  174.0830  141.5250 C   0  0  0  0  0  2  0  0  0  0  0  0
  193.6520  174.2390  141.3790 C   0  0  0  0  0  2  0  0  0  0  0  0
  190.2820  175.0890  142.6900 O   0  0  0  0  0  0  0  0  0  0  0  0
  184.3240  178.5470  145.2850 C   0  0  0  0  0  2  0  0  0  0  0  0
  184.3650  179.6220  144.3980 O   0  0  0  0  0  1  0  0  0  0  0  0
  186.2220  177.5820  142.0950 C   0  0  0  0  0  1  0  0  0  0  0  0
  185.7640  176.6690  143.2160 C   0  0  0  0  0  2  0  0  0  0  0  0
  1  7  1  0  0  0  0
  3  2  1  0  0  0  0
  5 10  2  0  0  0  0
  5  7  1  0  0  0  0
  6 12  1  0  0  0  0
  6 13  2  0  0  0  0
  7  3  2  0  0  0  0
  9  4  2  0  0  0  0
  9  8  1  0  0  0  0
 10 14  1  0  0  0  0
 11 12  2  0  0  0  0
 11 10  1  0  0  0  0
 12  9  1  0  0  0  0
 13  4  1  0  0  0  0
 14  8  1  0  0  0  0
 14  2  2  0  0  0  0
 15 21  1  0  0  0  0
 15 19  1  0  0  0  0
 17  5  1  1  0  0  0
 18 16  1  0  0  0  0
 18 17  1  0  0  0  0
 19 16  1  0  0  0  0
 20 18  1  0  0  0  0
 21 20  1  0  0  0  0
 22 18  1  0  0  0  0
 22 17  1  0  0  0  0
 23 13  1  0  0  0  0
 24 23  1  0  0  0  0
 25 26  1  0  0  0  0
 26  6  1  0  0  0  0
M  END
>  <MODEL>
5

>  <REMARK>
 VINA RESULT:      -7.0      1.487      2.326
  Name = 
  3 active torsions:
  status: ('A' for Active; 'I' for Inactive)
    1  A    between atoms: C_7  and  C_10
    2  A    between atoms: C_9  and  C_25
    3  A    between atoms: C_11  and  C_23
                            x       y       z     vdW  Elec       q    Type
                         _______ _______ _______ _____ _____    ______ ____

>  <TORSDO>
F 3

$$$$
=
 OpenBabel11072408513D

 26 30  0  0  1  0  0  0  0  0999 V2000
  184.4770  178.6950  141.8640 O   0  0  0  0  0  1  0  0  0  0  0  0
  187.3830  176.6290  140.9510 C   0  0  0  0  0  3  0  0  0  0  0  0
  186.1510  177.2760  140.8960 C   0  0  0  0  0  3  0  0  0  0  0  0
  191.3830  175.6210  143.3760 C   0  0  0  0  0  3  0  0  0  0  0  0
  186.5450  178.2860  143.0790 C   0  0  0  0  0  0  0  0  0  0  0  0
  190.8240  176.9170  145.1970 C   0  0  0  0  0  0  0  0  0  0  0  0
  185.7250  178.0870  141.9490 C   0  0  0  0  0  0  0  0  0  0  0  0
  189.3710  176.1180  142.1010 O   0  0  0  0  0  0  0  0  0  0  0  0
  190.1620  176.2230  143.1540 C   0  0  0  0  0  0  0  0  0  0  0  0
  187.7820  177.6050  143.1580 C   0  0  0  0  0  0  0  0  0  0  0  0
  188.6100  177.7200  144.2950 C   0  0  0  0  0  3  0  0  0  0  0  0
  189.8080  177.0260  144.2830 C   0  0  0  0  0  0  0  0  0  0  0  0
  191.7800  176.0640  144.6410 C   0  0  0  0  0  0  0  0  0  0  0  0
  188.2050  176.7720  142.0680 C   0  0  0  0  0  0  0  0  0  0  0  0
  185.9420  177.0550  147.8680 O   0  0  0  0  0  0  0  0  0  0  0  0
  185.6320  176.8620  145.4880 C   0  0  0  0  0  2  0  0  0  0  0  0
  186.0370  179.1570  144.2090 C   0  0  2  0  0  3  0  0  0  0  0  0
  185.6500  178.3920  145.4310 C   0  0  0  0  0  0  0  0  0  0  0  0
  186.4300  176.4160  146.7130 C   0  0  0  0  0  2  0  0  0  0  0  0
  185.5660  179.1520  146.7470 C   0  0  0  0  0  2  0  0  0  0  0  0
  186.3750  178.3920  147.7980 C   0  0  0  0  0  2  0  0  0  0  0  0
  184.6910  178.8570  144.5200 O   0  0  0  0  0  0  0  0  0  0  0  0
  193.0290  175.6240  145.3210 C   0  0  0  0  0  2  0  0  0  0  0  0
  194.0260  176.5830  145.1410 O   0  0  0  0  0  1  0  0  0  0  0  0
  190.0680  176.7020  147.5340 C   0  0  0  0  0  1  0  0  0  0  0  0
  190.8640  177.5410  146.5540 C   0  0  0  0  0  2  0  0  0  0  0  0
  1  7  1  0  0  0  0
  2 14  1  0  0  0  0
  3  2  2  0  0  0  0
  3  7  1  0  0  0  0
  4 13  1  0  0  0  0
  5 10  1  0  0  0  0
  6 26  1  0  0  0  0
  7  5  2  0  0  0  0
  8  9  1  0  0  0  0
  9  4  2  0  0  0  0
  9 12  1  0  0  0  0
 10 11  1  0  0  0  0
 12 11  2  0  0  0  0
 12  6  1  0  0  0  0
 13  6  2  0  0  0  0
 13 23  1  0  0  0  0
 14  8  1  0  0  0  0
 14 10  2  0  0  0  0
 16 19  1  0  0  0  0
 17  5  1  6  0  0  0
 17 22  1  0  0  0  0
 17 18  1  0  0  0  0
 18 16  1  0  0  0  0
 18 20  1  0  0  0  0
 19 15  1  0  0  0  0
 20 21  1  0  0  0  0
 21 15  1  0  0  0  0
 22 18  1  0  0  0  0
 24 23  1  0  0  0  0
 26 25  1  0  0  0  0
M  END
>  <MODEL>
6

>  <REMARK>
 VINA RESULT:      -6.9      2.144      6.945
  Name = 
  3 active torsions:
  status: ('A' for Active; 'I' for Inactive)
    1  A    between atoms: C_7  and  C_10
    2  A    between atoms: C_9  and  C_25
    3  A    between atoms: C_11  and  C_23
                            x       y       z     vdW  Elec       q    Type
                         _______ _______ _______ _____ _____    ______ ____

>  <TORSDO>
F 3

$$$$
=
 OpenBabel11072408513D

 26 30  0  0  1  0  0  0  0  0999 V2000
  187.9800  175.1380  139.1390 O   0  0  0  0  0  1  0  0  0  0  0  0
  186.0940  177.9810  140.5210 C   0  0  0  0  0  3  0  0  0  0  0  0
  186.6900  177.1020  139.6200 C   0  0  0  0  0  3  0  0  0  0  0  0
  185.2110  179.2350  145.0540 C   0  0  0  0  0  3  0  0  0  0  0  0
  187.4610  175.6910  141.4510 C   0  0  0  0  0  0  0  0  0  0  0  0
  186.3140  177.4270  145.9620 C   0  0  0  0  0  0  0  0  0  0  0  0
  187.3780  175.9750  140.0730 C   0  0  0  0  0  0  0  0  0  0  0  0
  185.6230  178.6270  142.7330 O   0  0  0  0  0  0  0  0  0  0  0  0
  185.7100  178.4440  144.0400 C   0  0  0  0  0  0  0  0  0  0  0  0
  186.8880  176.5970  142.3750 C   0  0  0  0  0  0  0  0  0  0  0  0
  186.9980  176.3900  143.7660 C   0  0  0  0  0  3  0  0  0  0  0  0
  186.3980  177.3220  144.5970 C   0  0  0  0  0  0  0  0  0  0  0  0
  185.5900  178.5890  146.2340 C   0  0  0  0  0  0  0  0  0  0  0  0
  186.1860  177.7530  141.8940 C   0  0  0  0  0  0  0  0  0  0  0  0
  191.5240  175.5210  144.3290 O   0  0  0  0  0  0  0  0  0  0  0  0
  190.1890  176.1880  142.4390 C   0  0  0  0  0  2  0  0  0  0  0  0
  188.2340  174.4690  141.9030 C   0  0  2  0  0  3  0  0  0  0  0  0
  189.5840  174.7830  142.4570 C   0  0  0  0  0  0  0  0  0  0  0  0
  190.6630  176.5280  143.8520 C   0  0  0  0  0  2  0  0  0  0  0  0
  190.2500  173.7350  143.3380 C   0  0  0  0  0  2  0  0  0  0  0  0
  190.7130  174.4110  144.6290 C   0  0  0  0  0  2  0  0  0  0  0  0
  189.4180  174.3070  141.1480 O   0  0  0  0  0  0  0  0  0  0  0  0
  185.3070  179.1190  147.5970 C   0  0  0  0  0  2  0  0  0  0  0  0
  186.3860  179.8880  148.0360 O   0  0  0  0  0  1  0  0  0  0  0  0
  188.4450  176.6380  146.9160 C   0  0  0  0  0  1  0  0  0  0  0  0
  186.9350  176.5070  146.9600 C   0  0  0  0  0  2  0  0  0  0  0  0
  1  7  1  0  0  0  0
  2 14  1  0  0  0  0
  3  7  1  0  0  0  0
  3  2  2  0  0  0  0
  4 13  1  0  0  0  0
  5 10  1  0  0  0  0
  6 13  2  0  0  0  0
  6 26  1  0  0  0  0
  7  5  2  0  0  0  0
  8  9  1  0  0  0  0
  9 12  1  0  0  0  0
  9  4  2  0  0  0  0
 10 11  1  0  0  0  0
 11 12  2  0  0  0  0
 12  6  1  0  0  0  0
 13 23  1  0  0  0  0
 14 10  2  0  0  0  0
 14  8  1  0  0  0  0
 15 21  1  0  0  0  0
 16 18  1  0  0  0  0
 16 19  1  0  0  0  0
 17  5  1  6  0  0  0
 17 18  1  0  0  0  0
 18 20  1  0  0  0  0
 19 15  1  0  0  0  0
 20 21  1  0  0  0  0
 22 17  1  0  0  0  0
 22 18  1  0  0  0  0
 23 24  1  0  0  0  0
 25 26  1  0  0  0  0
M  END
>  <MODEL>
7

>  <REMARK>
 VINA RESULT:      -6.9      2.243      4.715
  Name = 
  3 active torsions:
  status: ('A' for Active; 'I' for Inactive)
    1  A    between atoms: C_7  and  C_10
    2  A    between atoms: C_9  and  C_25
    3  A    between atoms: C_11  and  C_23
                            x       y       z     vdW  Elec       q    Type
                         _______ _______ _______ _____ _____    ______ ____

>  <TORSDO>
F 3

$$$$
=
 OpenBabel11072408513D

 26 30  0  0  1  0  0  0  0  0999 V2000
  187.1660  178.9290  143.5250 O   0  0  0  0  0  1  0  0  0  0  0  0
  185.1010  177.9600  140.6360 C   0  0  0  0  0  3  0  0  0  0  0  0
  186.2040  178.2070  141.4500 C   0  0  0  0  0  3  0  0  0  0  0  0
  180.3550  178.0230  140.0290 C   0  0  0  0  0  3  0  0  0  0  0  0
  184.7460  178.8740  143.2840 C   0  0  0  0  0  0  0  0  0  0  0  0
  179.9090  178.7910  142.1550 C   0  0  0  0  0  0  0  0  0  0  0  0
  186.0370  178.6710  142.7550 C   0  0  0  0  0  0  0  0  0  0  0  0
  182.7730  177.9600  140.2980 O   0  0  0  0  0  0  0  0  0  0  0  0
  181.5390  178.1810  140.7180 C   0  0  0  0  0  0  0  0  0  0  0  0
  183.6210  178.6590  142.4530 C   0  0  0  0  0  0  0  0  0  0  0  0
  182.3110  178.9090  142.9150 C   0  0  0  0  0  3  0  0  0  0  0  0
  181.2690  178.6610  142.0380 C   0  0  0  0  0  0  0  0  0  0  0  0
  179.3580  178.4000  140.9320 C   0  0  0  0  0  0  0  0  0  0  0  0
  183.8100  178.1850  141.1120 C   0  0  0  0  0  0  0  0  0  0  0  0
  186.5200  176.8690  147.4860 O   0  0  0  0  0  0  0  0  0  0  0  0
  185.2650  176.9290  145.4320 C   0  0  0  0  0  2  0  0  0  0  0  0
  184.6070  179.3980  144.6990 C   0  0  2  0  0  3  0  0  0  0  0  0
  184.9460  178.3910  145.7480 C   0  0  0  0  0  0  0  0  0  0  0  0
  186.5830  176.5630  146.1140 C   0  0  0  0  0  2  0  0  0  0  0  0
  185.2820  178.9050  147.1420 C   0  0  0  0  0  2  0  0  0  0  0  0
  186.5990  178.2710  147.5870 C   0  0  0  0  0  2  0  0  0  0  0  0
  183.6160  178.6850  145.4120 O   0  0  0  0  0  0  0  0  0  0  0  0
  177.9070  178.4390  140.5990 C   0  0  0  0  0  2  0  0  0  0  0  0
  177.7440  178.6400  139.2280 O   0  0  0  0  0  1  0  0  0  0  0  0
  178.4480  178.1810  144.0430 C   0  0  0  0  0  1  0  0  0  0  0  0
  179.1690  179.3140  143.3420 C   0  0  0  0  0  2  0  0  0  0  0  0
  2 14  2  0  0  0  0
  2  3  1  0  0  0  0
  3  7  2  0  0  0  0
  4  9  2  0  0  0  0
  4 13  1  0  0  0  0
  6 26  1  0  0  0  0
  7  5  1  0  0  0  0
  7  1  1  0  0  0  0
  8  9  1  0  0  0  0
  8 14  1  0  0  0  0
  9 12  1  0  0  0  0
 10 11  1  0  0  0  0
 10  5  2  0  0  0  0
 12  6  1  0  0  0  0
 12 11  2  0  0  0  0
 13  6  2  0  0  0  0
 14 10  1  0  0  0  0
 15 21  1  0  0  0  0
 16 18  1  0  0  0  0
 16 19  1  0  0  0  0
 17  5  1  6  0  0  0
 17 22  1  0  0  0  0
 17 18  1  0  0  0  0
 18 20  1  0  0  0  0
 19 15  1  0  0  0  0
 20 21  1  0  0  0  0
 22 18  1  0  0  0  0
 23 13  1  0  0  0  0
 24 23  1  0  0  0  0
 26 25  1  0  0  0  0
M  END
>  <MODEL>
8

>  <REMARK>
 VINA RESULT:      -6.7      4.651      8.226
  Name = 
  3 active torsions:
  status: ('A' for Active; 'I' for Inactive)
    1  A    between atoms: C_7  and  C_10
    2  A    between atoms: C_9  and  C_25
    3  A    between atoms: C_11  and  C_23
                            x       y       z     vdW  Elec       q    Type
                         _______ _______ _______ _____ _____    ______ ____

>  <TORSDO>
F 3

$$$$
=
 OpenBabel11072408513D

 26 30  0  0  1  0  0  0  0  0999 V2000
  188.1640  177.5420  146.0410 O   0  0  0  0  0  1  0  0  0  0  0  0
  190.7920  175.3410  147.3830 C   0  0  0  0  0  3  0  0  0  0  0  0
  189.5890  176.0280  147.2380 C   0  0  0  0  0  3  0  0  0  0  0  0
  195.1890  174.3780  145.7600 C   0  0  0  0  0  3  0  0  0  0  0  0
  190.3540  176.9930  145.1350 C   0  0  0  0  0  0  0  0  0  0  0  0
  194.9880  175.7080  143.8890 C   0  0  0  0  0  0  0  0  0  0  0  0
  189.3700  176.8550  146.1350 C   0  0  0  0  0  0  0  0  0  0  0  0
  192.9550  174.8270  146.6150 O   0  0  0  0  0  0  0  0  0  0  0  0
  193.9360  174.9550  145.7390 C   0  0  0  0  0  0  0  0  0  0  0  0
  191.5930  176.3270  145.2930 C   0  0  0  0  0  0  0  0  0  0  0  0
  192.6330  176.4820  144.3520 C   0  0  0  0  0  3  0  0  0  0  0  0
  193.8070  175.7850  144.5810 C   0  0  0  0  0  0  0  0  0  0  0  0
  195.8240  174.8510  144.6080 C   0  0  0  0  0  0  0  0  0  0  0  0
  191.8030  175.4810  146.4340 C   0  0  0  0  0  0  0  0  0  0  0  0
  186.8690  176.5400  141.6040 O   0  0  0  0  0  0  0  0  0  0  0  0
  188.7500  175.8580  142.9430 C   0  0  0  0  0  2  0  0  0  0  0  0
  190.0860  177.9160  143.9640 C   0  0  2  0  0  3  0  0  0  0  0  0
  189.2140  177.3160  142.9120 C   0  0  0  0  0  0  0  0  0  0  0  0
  187.2320  175.8290  142.7630 C   0  0  0  0  0  2  0  0  0  0  0  0
  188.5160  178.2620  141.9450 C   0  0  0  0  0  2  0  0  0  0  0  0
  187.0300  177.9050  141.9050 C   0  0  0  0  0  2  0  0  0  0  0  0
  190.6060  177.3820  142.7630 O   0  0  0  0  0  0  0  0  0  0  0  0
  197.2310  174.5260  144.2430 C   0  0  0  0  0  2  0  0  0  0  0  0
  197.9410  174.1600  145.3870 O   0  0  0  0  0  1  0  0  0  0  0  0
  194.8940  175.6600  141.4270 C   0  0  0  0  0  1  0  0  0  0  0  0
  195.3330  176.4530  142.6420 C   0  0  0  0  0  2  0  0  0  0  0  0
  1  7  1  0  0  0  0
  3  2  1  0  0  0  0
  5 10  2  0  0  0  0
  5  7  1  0  0  0  0
  6 12  1  0  0  0  0
  6 13  2  0  0  0  0
  7  3  2  0  0  0  0
  9  4  2  0  0  0  0
  9  8  1  0  0  0  0
 10 14  1  0  0  0  0
 11 12  2  0  0  0  0
 11 10  1  0  0  0  0
 12  9  1  0  0  0  0
 13  4  1  0  0  0  0
 14  8  1  0  0  0  0
 14  2  2  0  0  0  0
 15 21  1  0  0  0  0
 15 19  1  0  0  0  0
 17  5  1  1  0  0  0
 18 16  1  0  0  0  0
 18 17  1  0  0  0  0
 19 16  1  0  0  0  0
 20 18  1  0  0  0  0
 21 20  1  0  0  0  0
 22 18  1  0  0  0  0
 22 17  1  0  0  0  0
 23 13  1  0  0  0  0
 23 24  1  0  0  0  0
 25 26  1  0  0  0  0
 26  6  1  0  0  0  0
M  END
>  <MODEL>
9

>  <REMARK>
 VINA RESULT:      -6.7      2.764      6.680
  Name = 
  3 active torsions:
  status: ('A' for Active; 'I' for Inactive)
    1  A    between atoms: C_7  and  C_10
    2  A    between atoms: C_9  and  C_25
    3  A    between atoms: C_11  and  C_23
                            x       y       z     vdW  Elec       q    Type
                         _______ _______ _______ _____ _____    ______ ____

>  <TORSDO>
F 3

$$$$
