=
 OpenBabel11072409413D

 25 27  0  0  1  0  0  0  0  0999 V2000
  186.0850  177.0470  146.6500 C   0  0  0  0  0  2  0  0  0  0  0  0
  187.0250  178.2740  144.8250 C   0  0  2  0  0  3  0  0  0  0  0  0
  185.4830  178.3710  146.6970 N   0  0  0  0  0  0  0  0  0  0  0  0
  187.3190  177.1380  145.7840 C   0  0  1  0  0  3  0  0  0  0  0  0
  185.8820  179.0480  145.4690 C   0  0  0  0  0  2  0  0  0  0  0  0
  184.0460  178.1850  146.6320 C   0  0  0  0  0  1  0  0  0  0  0  0
  187.3950  176.6880  141.4850 C   0  0  0  0  0  2  0  0  0  0  0  0
  185.4550  177.9450  140.3680 C   0  0  0  0  0  2  0  0  0  0  0  0
  186.9400  177.5610  140.3220 C   0  0  0  0  0  2  0  0  0  0  0  0
  187.7640  177.5410  142.6060 N   0  0  0  0  0  2  0  0  0  0  0  0
  185.6170  178.7050  142.7940 C   0  0  0  0  0  2  0  0  0  0  0  0
  184.7960  177.9600  141.7520 C   0  0  0  0  0  2  0  0  0  0  0  0
  186.5940  177.7350  143.4580 C   0  0  2  0  0  3  0  0  0  0  0  0
  188.4630  177.4820  146.6200 N   0  0  0  0  0  2  0  0  0  0  0  0
  192.1190  175.3520  146.1110 C   0  0  2  0  0  3  0  0  0  0  0  0
  191.7980  175.6700  143.7490 O   0  0  0  0  0  1  0  0  0  0  0  0
  189.7840  176.9680  146.4180 C   0  0  0  0  0  0  0  0  0  0  0  0
  191.6900  176.3050  144.9870 C   0  0  1  0  0  3  0  0  0  0  0  0
  190.2760  176.7760  145.1860 C   0  0  0  0  0  3  0  0  0  0  0  0
  190.6040  176.6230  147.5960 C   0  0  0  0  0  3  0  0  0  0  0  0
  191.7200  175.9000  147.4590 C   0  0  0  0  0  3  0  0  0  0  0  0
  193.6220  175.1150  146.0590 C   0  0  0  0  0  2  0  0  0  0  0  0
  194.9890  176.6840  144.6830 O   0  0  0  0  0  0  0  0  0  0  0  0
  194.4190  177.2220  146.8380 O   0  0  0  0  0  1  0  0  0  0  0  0
  194.3540  176.4020  145.8860 C   0  0  0  0  0  0  0  0  0  0  0  0
  1  3  1  0  0  0  0
  2  5  1  1  0  0  0
  2  4  1  0  0  0  0
  4 14  1  1  0  0  0
  4  1  1  0  0  0  0
  5  3  1  0  0  0  0
  6  3  1  0  0  0  0
  7 10  1  0  0  0  0
  8 12  1  0  0  0  0
  9  8  1  0  0  0  0
  9  7  1  0  0  0  0
 10 13  1  0  0  0  0
 12 11  1  0  0  0  0
 13 11  1  6  0  0  0
 13  2  1  0  0  0  0
 15 22  1  1  0  0  0
 15 21  1  0  0  0  0
 17 14  1  0  0  0  0
 17 20  1  0  0  0  0
 18 16  1  6  0  0  0
 18 19  1  0  0  0  0
 18 15  1  0  0  0  0
 19 17  2  0  0  0  0
 21 20  2  0  0  0  0
 23 25  2  0  0  0  0
 25 22  1  0  0  0  0
 25 24  1  0  0  0  0
M  END
>  <MODEL>
1

>  <REMARK>
 VINA RESULT:      -7.2      0.000      0.000
  Name = 
  5 active torsions:
  status: ('A' for Active; 'I' for Inactive)
    1  A    between atoms: C_4  and  C_16
    2  A    between atoms: C_6  and  N_19
    3  A    between atoms: C_11  and  C_22
    4  A    between atoms: C_13  and  N_19
    5  A    between atoms: C_16  and  C_25
                            x       y       z     vdW  Elec       q    Type
                         _______ _______ _______ _____ _____    ______ ____

>  <TORSDO>
F 5

$$$$
=
 OpenBabel11072409413D

 25 27  0  0  1  0  0  0  0  0999 V2000
  190.2420  177.4320  144.9380 C   0  0  0  0  0  2  0  0  0  0  0  0
  188.2210  176.5010  145.8140 C   0  0  2  0  0  3  0  0  0  0  0  0
  189.7190  176.5500  143.9060 N   0  0  0  0  0  0  0  0  0  0  0  0
  189.5620  177.0670  146.2360 C   0  0  1  0  0  3  0  0  0  0  0  0
  188.3860  176.1530  144.3410 C   0  0  0  0  0  2  0  0  0  0  0  0
  189.5540  177.3530  142.7090 C   0  0  0  0  0  1  0  0  0  0  0  0
  185.3180  178.1940  147.4000 C   0  0  0  0  0  2  0  0  0  0  0  0
  184.3080  179.1040  145.2230 C   0  0  0  0  0  2  0  0  0  0  0  0
  184.0870  178.2960  146.5090 C   0  0  0  0  0  2  0  0  0  0  0  0
  186.1320  177.0680  146.9640 N   0  0  0  0  0  2  0  0  0  0  0  0
  186.4290  177.8150  144.6500 C   0  0  0  0  0  2  0  0  0  0  0  0
  185.7460  179.1740  144.6990 C   0  0  0  0  0  2  0  0  0  0  0  0
  187.1120  177.5420  145.9910 C   0  0  2  0  0  3  0  0  0  0  0  0
  190.3430  176.0350  146.9100 N   0  0  0  0  0  2  0  0  0  0  0  0
  194.2940  175.4000  145.4420 C   0  0  2  0  0  3  0  0  0  0  0  0
  194.8370  177.5270  146.4230 O   0  0  0  0  0  1  0  0  0  0  0  0
  191.7200  175.7620  146.6270 C   0  0  0  0  0  0  0  0  0  0  0  0
  194.1240  176.3460  146.6370 C   0  0  1  0  0  3  0  0  0  0  0  0
  192.6740  176.6710  146.8710 C   0  0  0  0  0  3  0  0  0  0  0  0
  192.0820  174.4610  146.0310 C   0  0  0  0  0  3  0  0  0  0  0  0
  193.2980  174.2680  145.5090 C   0  0  0  0  0  3  0  0  0  0  0  0
  195.7130  174.8530  145.3950 C   0  0  0  0  0  2  0  0  0  0  0  0
  195.7930  176.2090  143.3030 O   0  0  0  0  0  0  0  0  0  0  0  0
  197.6130  174.9800  143.9620 O   0  0  0  0  0  1  0  0  0  0  0  0
  196.4330  175.3530  144.1900 C   0  0  0  0  0  0  0  0  0  0  0  0
  1  4  1  0  0  0  0
  2  5  1  6  0  0  0
  2 13  1  0  0  0  0
  2  4  1  0  0  0  0
  3  5  1  0  0  0  0
  3  1  1  0  0  0  0
  4 14  1  6  0  0  0
  6  3  1  0  0  0  0
  8  9  1  0  0  0  0
  9  7  1  0  0  0  0
 10  7  1  0  0  0  0
 11 12  1  0  0  0  0
 12  8  1  0  0  0  0
 13 11  1  6  0  0  0
 13 10  1  0  0  0  0
 15 22  1  1  0  0  0
 15 21  1  0  0  0  0
 15 18  1  0  0  0  0
 17 19  2  0  0  0  0
 17 14  1  0  0  0  0
 18 16  1  6  0  0  0
 18 19  1  0  0  0  0
 20 17  1  0  0  0  0
 21 20  2  0  0  0  0
 23 25  2  0  0  0  0
 24 25  1  0  0  0  0
 25 22  1  0  0  0  0
M  END
>  <MODEL>
2

>  <REMARK>
 VINA RESULT:      -7.2      2.015      3.964
  Name = 
  5 active torsions:
  status: ('A' for Active; 'I' for Inactive)
    1  A    between atoms: C_4  and  C_16
    2  A    between atoms: C_6  and  N_19
    3  A    between atoms: C_11  and  C_22
    4  A    between atoms: C_13  and  N_19
    5  A    between atoms: C_16  and  C_25
                            x       y       z     vdW  Elec       q    Type
                         _______ _______ _______ _____ _____    ______ ____

>  <TORSDO>
F 5

$$$$
=
 OpenBabel11072409413D

 25 27  0  0  1  0  0  0  0  0999 V2000
  187.7530  178.0910  141.6380 C   0  0  0  0  0  2  0  0  0  0  0  0
  187.4460  176.7650  143.6040 C   0  0  2  0  0  3  0  0  0  0  0  0
  186.7020  177.1350  141.3240 N   0  0  0  0  0  0  0  0  0  0  0  0
  188.4820  177.5820  142.8590 C   0  0  1  0  0  3  0  0  0  0  0  0
  186.3600  176.4740  142.5770 C   0  0  0  0  0  2  0  0  0  0  0  0
  185.5410  177.9030  140.9170 C   0  0  0  0  0  1  0  0  0  0  0  0
  187.0840  177.9520  147.1070 C   0  0  0  0  0  2  0  0  0  0  0  0
  184.5630  178.4180  146.9800 C   0  0  0  0  0  2  0  0  0  0  0  0
  185.7090  177.7070  147.7130 C   0  0  0  0  0  2  0  0  0  0  0  0
  187.3160  176.9860  146.0420 N   0  0  0  0  0  2  0  0  0  0  0  0
  185.3390  177.5550  144.7120 C   0  0  0  0  0  2  0  0  0  0  0  0
  184.7950  178.7380  145.4990 C   0  0  0  0  0  2  0  0  0  0  0  0
  186.8660  177.5600  144.7770 C   0  0  2  0  0  3  0  0  0  0  0  0
  189.5790  176.7190  142.4340 N   0  0  0  0  0  2  0  0  0  0  0  0
  192.3590  175.2620  145.3170 C   0  0  2  0  0  3  0  0  0  0  0  0
  192.9130  173.5690  143.7030 O   0  0  0  0  0  1  0  0  0  0  0  0
  190.6680  176.3340  143.2790 C   0  0  0  0  0  0  0  0  0  0  0  0
  192.6230  174.9260  143.8440 C   0  0  1  0  0  3  0  0  0  0  0  0
  191.4380  175.2770  142.9870 C   0  0  0  0  0  3  0  0  0  0  0  0
  190.9250  177.1090  144.5090 C   0  0  0  0  0  3  0  0  0  0  0  0
  191.7460  176.6350  145.4520 C   0  0  0  0  0  3  0  0  0  0  0  0
  193.6490  175.1780  146.1190 C   0  0  0  0  0  2  0  0  0  0  0  0
  195.1660  176.7020  144.8550 O   0  0  0  0  0  0  0  0  0  0  0  0
  194.4380  177.2670  146.9540 O   0  0  0  0  0  1  0  0  0  0  0  0
  194.4280  176.4440  146.0030 C   0  0  0  0  0  0  0  0  0  0  0  0
  1  4  1  0  0  0  0
  2  5  1  6  0  0  0
  2 13  1  0  0  0  0
  3  1  1  0  0  0  0
  3  5  1  0  0  0  0
  4 14  1  6  0  0  0
  4  2  1  0  0  0  0
  6  3  1  0  0  0  0
  7  9  1  0  0  0  0
  8  9  1  0  0  0  0
 10  7  1  0  0  0  0
 11 12  1  0  0  0  0
 12  8  1  0  0  0  0
 13 11  1  1  0  0  0
 13 10  1  0  0  0  0
 14 17  1  0  0  0  0
 15 21  1  0  0  0  0
 15 22  1  1  0  0  0
 17 20  1  0  0  0  0
 18 16  1  1  0  0  0
 18 15  1  0  0  0  0
 19 17  2  0  0  0  0
 19 18  1  0  0  0  0
 20 21  2  0  0  0  0
 23 25  2  0  0  0  0
 25 22  1  0  0  0  0
 25 24  1  0  0  0  0
M  END
>  <MODEL>
3

>  <REMARK>
 VINA RESULT:      -6.9      1.429      3.779
  Name = 
  5 active torsions:
  status: ('A' for Active; 'I' for Inactive)
    1  A    between atoms: C_4  and  C_16
    2  A    between atoms: C_6  and  N_19
    3  A    between atoms: C_11  and  C_22
    4  A    between atoms: C_13  and  N_19
    5  A    between atoms: C_16  and  C_25
                            x       y       z     vdW  Elec       q    Type
                         _______ _______ _______ _____ _____    ______ ____

>  <TORSDO>
F 5

$$$$
=
 OpenBabel11072409413D

 25 27  0  0  1  0  0  0  0  0999 V2000
  187.8780  176.2090  146.2710 C   0  0  0  0  0  2  0  0  0  0  0  0
  187.9950  177.8600  144.5460 C   0  0  2  0  0  3  0  0  0  0  0  0
  187.1400  177.3630  146.7620 N   0  0  0  0  0  0  0  0  0  0  0  0
  188.7420  176.6750  145.1230 C   0  0  1  0  0  3  0  0  0  0  0  0
  187.0210  178.2830  145.6380 C   0  0  0  0  0  2  0  0  0  0  0  0
  185.8010  176.9040  147.0790 C   0  0  0  0  0  1  0  0  0  0  0  0
  187.4910  176.5460  141.1070 C   0  0  0  0  0  2  0  0  0  0  0  0
  185.4330  177.9810  140.5640 C   0  0  0  0  0  2  0  0  0  0  0  0
  186.8410  177.5330  140.1470 C   0  0  0  0  0  2  0  0  0  0  0  0
  188.1610  177.2820  142.1700 N   0  0  0  0  0  2  0  0  0  0  0  0
  186.1930  178.5260  142.9340 C   0  0  0  0  0  2  0  0  0  0  0  0
  185.1090  177.9110  142.0600 C   0  0  0  0  0  2  0  0  0  0  0  0
  187.2310  177.4590  143.2820 C   0  0  2  0  0  3  0  0  0  0  0  0
  190.0330  177.1110  145.6450 N   0  0  0  0  0  2  0  0  0  0  0  0
  193.9470  176.3450  144.1430 C   0  0  2  0  0  3  0  0  0  0  0  0
  194.5650  175.8820  146.4200 O   0  0  0  0  0  1  0  0  0  0  0  0
  191.2930  176.6370  145.1580 C   0  0  0  0  0  0  0  0  0  0  0  0
  193.5570  175.6900  145.4740 C   0  0  1  0  0  3  0  0  0  0  0  0
  192.2650  176.2540  145.9980 C   0  0  0  0  0  3  0  0  0  0  0  0
  191.5260  176.5970  143.7010 C   0  0  0  0  0  3  0  0  0  0  0  0
  192.7590  176.4210  143.2150 C   0  0  0  0  0  3  0  0  0  0  0  0
  195.0830  175.5740  143.4860 C   0  0  0  0  0  2  0  0  0  0  0  0
  195.7820  176.7690  141.4110 O   0  0  0  0  0  0  0  0  0  0  0  0
  196.9780  177.0140  143.3510 O   0  0  0  0  0  1  0  0  0  0  0  0
  195.9970  176.4990  142.7560 C   0  0  0  0  0  0  0  0  0  0  0  0
  1  3  1  0  0  0  0
  2  4  1  0  0  0  0
  2  5  1  1  0  0  0
  3  6  1  0  0  0  0
  4 14  1  1  0  0  0
  4  1  1  0  0  0  0
  5  3  1  0  0  0  0
  7 10  1  0  0  0  0
  8 12  1  0  0  0  0
  9  8  1  0  0  0  0
  9  7  1  0  0  0  0
 10 13  1  0  0  0  0
 12 11  1  0  0  0  0
 13 11  1  6  0  0  0
 13  2  1  0  0  0  0
 15 22  1  6  0  0  0
 15 18  1  0  0  0  0
 17 14  1  0  0  0  0
 17 19  2  0  0  0  0
 18 19  1  0  0  0  0
 18 16  1  1  0  0  0
 20 17  1  0  0  0  0
 21 20  2  0  0  0  0
 21 15  1  0  0  0  0
 23 25  2  0  0  0  0
 25 24  1  0  0  0  0
 25 22  1  0  0  0  0
M  END
>  <MODEL>
4

>  <REMARK>
 VINA RESULT:      -6.8      1.584      2.423
  Name = 
  5 active torsions:
  status: ('A' for Active; 'I' for Inactive)
    1  A    between atoms: C_4  and  C_16
    2  A    between atoms: C_6  and  N_19
    3  A    between atoms: C_11  and  C_22
    4  A    between atoms: C_13  and  N_19
    5  A    between atoms: C_16  and  C_25
                            x       y       z     vdW  Elec       q    Type
                         _______ _______ _______ _____ _____    ______ ____

>  <TORSDO>
F 5

$$$$
=
 OpenBabel11072409413D

 25 27  0  0  1  0  0  0  0  0999 V2000
  189.6150  172.9260  143.3390 C   0  0  0  0  0  2  0  0  0  0  0  0
  190.9530  174.9080  143.3740 C   0  0  2  0  0  3  0  0  0  0  0  0
  190.5770  172.7870  142.2560 N   0  0  0  0  0  0  0  0  0  0  0  0
  189.5750  174.3850  143.7270 C   0  0  1  0  0  3  0  0  0  0  0  0
  191.5290  173.8800  142.4080 C   0  0  0  0  0  2  0  0  0  0  0  0
  191.3040  171.5540  142.4930 C   0  0  0  0  0  1  0  0  0  0  0  0
  192.2820  176.3500  146.5300 C   0  0  0  0  0  2  0  0  0  0  0  0
  194.6570  175.4070  146.2840 C   0  0  0  0  0  2  0  0  0  0  0  0
  193.7760  176.6450  146.5050 C   0  0  0  0  0  2  0  0  0  0  0  0
  191.7690  176.3650  145.1670 N   0  0  0  0  0  2  0  0  0  0  0  0
  193.2780  174.6530  144.2790 C   0  0  0  0  0  2  0  0  0  0  0  0
  194.0090  174.2310  145.5450 C   0  0  0  0  0  2  0  0  0  0  0  0
  191.8330  175.0120  144.6220 C   0  0  2  0  0  3  0  0  0  0  0  0
  188.5670  175.0650  142.9220 N   0  0  0  0  0  2  0  0  0  0  0  0
  186.2360  178.4360  144.0940 C   0  0  2  0  0  3  0  0  0  0  0  0
  184.6200  177.6870  142.4790 O   0  0  0  0  0  1  0  0  0  0  0  0
  187.6650  176.0510  143.4370 C   0  0  0  0  0  0  0  0  0  0  0  0
  185.4980  177.2450  143.4690 C   0  0  1  0  0  3  0  0  0  0  0  0
  186.4660  176.2580  142.8760 C   0  0  0  0  0  3  0  0  0  0  0  0
  188.0840  176.8690  144.5930 C   0  0  0  0  0  3  0  0  0  0  0  0
  187.3990  177.9650  144.9330 C   0  0  0  0  0  3  0  0  0  0  0  0
  185.2800  179.2700  144.9340 C   0  0  0  0  0  2  0  0  0  0  0  0
  185.7920  179.2510  147.3760 O   0  0  0  0  0  1  0  0  0  0  0  0
  184.4130  177.6620  146.4650 O   0  0  0  0  0  0  0  0  0  0  0  0
  185.1260  178.6850  146.2970 C   0  0  0  0  0  0  0  0  0  0  0  0
  1  4  1  0  0  0  0
  2  5  1  6  0  0  0
  2  4  1  0  0  0  0
  2 13  1  0  0  0  0
  3  5  1  0  0  0  0
  3  6  1  0  0  0  0
  3  1  1  0  0  0  0
  4 14  1  6  0  0  0
  8  9  1  0  0  0  0
  9  7  1  0  0  0  0
 10  7  1  0  0  0  0
 11 12  1  0  0  0  0
 12  8  1  0  0  0  0
 13 11  1  6  0  0  0
 13 10  1  0  0  0  0
 14 17  1  0  0  0  0
 15 21  1  0  0  0  0
 15 22  1  1  0  0  0
 17 20  1  0  0  0  0
 18 16  1  6  0  0  0
 18 15  1  0  0  0  0
 19 17  2  0  0  0  0
 19 18  1  0  0  0  0
 20 21  2  0  0  0  0
 22 25  1  0  0  0  0
 25 24  2  0  0  0  0
 25 23  1  0  0  0  0
M  END
>  <MODEL>
5

>  <REMARK>
 VINA RESULT:      -6.8      3.733      7.694
  Name = 
  5 active torsions:
  status: ('A' for Active; 'I' for Inactive)
    1  A    between atoms: C_4  and  C_16
    2  A    between atoms: C_6  and  N_19
    3  A    between atoms: C_11  and  C_22
    4  A    between atoms: C_13  and  N_19
    5  A    between atoms: C_16  and  C_25
                            x       y       z     vdW  Elec       q    Type
                         _______ _______ _______ _____ _____    ______ ____

>  <TORSDO>
F 5

$$$$
=
 OpenBabel11072409413D

 25 27  0  0  1  0  0  0  0  0999 V2000
  187.8850  177.9370  141.7320 C   0  0  0  0  0  2  0  0  0  0  0  0
  187.3620  176.6300  143.6650 C   0  0  2  0  0  3  0  0  0  0  0  0
  186.7060  177.1560  141.3890 N   0  0  0  0  0  0  0  0  0  0  0  0
  188.5160  177.2990  142.9460 C   0  0  1  0  0  3  0  0  0  0  0  0
  186.2550  176.5270  142.6240 C   0  0  0  0  0  2  0  0  0  0  0  0
  185.6760  178.0970  140.9910 C   0  0  0  0  0  1  0  0  0  0  0  0
  187.2340  177.8660  147.1680 C   0  0  0  0  0  2  0  0  0  0  0  0
  184.7570  178.5360  147.1320 C   0  0  0  0  0  2  0  0  0  0  0  0
  185.8680  177.7380  147.8280 C   0  0  0  0  0  2  0  0  0  0  0  0
  187.3450  176.8770  146.1040 N   0  0  0  0  0  2  0  0  0  0  0  0
  185.3710  177.5980  144.8440 C   0  0  0  0  0  2  0  0  0  0  0  0
  184.9570  178.8270  145.6410 C   0  0  0  0  0  2  0  0  0  0  0  0
  186.8950  177.4780  144.8510 C   0  0  2  0  0  3  0  0  0  0  0  0
  189.4760  176.2910  142.5100 N   0  0  0  0  0  2  0  0  0  0  0  0
  192.8010  174.6140  144.5830 C   0  0  2  0  0  3  0  0  0  0  0  0
  192.8710  176.6730  145.8240 O   0  0  0  0  0  1  0  0  0  0  0  0
  190.4470  175.6860  143.3700 C   0  0  0  0  0  0  0  0  0  0  0  0
  192.0040  175.7160  145.2930 C   0  0  1  0  0  3  0  0  0  0  0  0
  191.0400  176.3820  144.3500 C   0  0  0  0  0  3  0  0  0  0  0  0
  190.8130  174.2720  143.1510 C   0  0  0  0  0  3  0  0  0  0  0  0
  191.8910  173.7500  143.7450 C   0  0  0  0  0  3  0  0  0  0  0  0
  193.5510  173.7650  145.5980 C   0  0  0  0  0  2  0  0  0  0  0  0
  195.6500  173.0120  144.4790 O   0  0  0  0  0  0  0  0  0  0  0  0
  195.7020  174.6910  146.0400 O   0  0  0  0  0  1  0  0  0  0  0  0
  195.0230  173.8600  145.3830 C   0  0  0  0  0  0  0  0  0  0  0  0
  1  4  1  0  0  0  0
  2  5  1  6  0  0  0
  2 13  1  0  0  0  0
  3  1  1  0  0  0  0
  3  5  1  0  0  0  0
  4 14  1  6  0  0  0
  4  2  1  0  0  0  0
  6  3  1  0  0  0  0
  7  9  1  0  0  0  0
  8  9  1  0  0  0  0
 10  7  1  0  0  0  0
 11 12  1  0  0  0  0
 12  8  1  0  0  0  0
 13 11  1  1  0  0  0
 13 10  1  0  0  0  0
 14 17  1  0  0  0  0
 15 18  1  0  0  0  0
 15 22  1  1  0  0  0
 17 19  2  0  0  0  0
 18 16  1  6  0  0  0
 19 18  1  0  0  0  0
 20 17  1  0  0  0  0
 20 21  2  0  0  0  0
 21 15  1  0  0  0  0
 23 25  2  0  0  0  0
 25 22  1  0  0  0  0
 25 24  1  0  0  0  0
M  END
>  <MODEL>
6

>  <REMARK>
 VINA RESULT:      -6.7      1.835      4.071
  Name = 
  5 active torsions:
  status: ('A' for Active; 'I' for Inactive)
    1  A    between atoms: C_4  and  C_16
    2  A    between atoms: C_6  and  N_19
    3  A    between atoms: C_11  and  C_22
    4  A    between atoms: C_13  and  N_19
    5  A    between atoms: C_16  and  C_25
                            x       y       z     vdW  Elec       q    Type
                         _______ _______ _______ _____ _____    ______ ____

>  <TORSDO>
F 5

$$$$
=
 OpenBabel11072409413D

 25 27  0  0  1  0  0  0  0  0999 V2000
  189.6840  175.4700  145.0070 C   0  0  0  0  0  2  0  0  0  0  0  0
  188.6850  177.6310  145.2330 C   0  0  2  0  0  3  0  0  0  0  0  0
  189.9280  175.8890  146.3790 N   0  0  0  0  0  0  0  0  0  0  0  0
  189.3110  176.7010  144.2140 C   0  0  1  0  0  3  0  0  0  0  0  0
  189.1380  177.0970  146.5860 C   0  0  0  0  0  2  0  0  0  0  0  0
  189.3680  174.8640  147.2390 C   0  0  0  0  0  1  0  0  0  0  0  0
  185.3120  178.3510  143.8500 C   0  0  0  0  0  2  0  0  0  0  0  0
  184.0690  178.2580  146.0940 C   0  0  0  0  0  2  0  0  0  0  0  0
  184.3740  179.0570  144.8190 C   0  0  0  0  0  2  0  0  0  0  0  0
  186.6900  178.6360  144.2240 N   0  0  0  0  0  2  0  0  0  0  0  0
  186.5370  177.7930  146.5200 C   0  0  0  0  0  2  0  0  0  0  0  0
  185.1230  177.2320  146.5250 C   0  0  0  0  0  2  0  0  0  0  0  0
  187.1570  177.5950  145.1360 C   0  0  2  0  0  3  0  0  0  0  0  0
  190.5230  177.3050  143.6740 N   0  0  0  0  0  2  0  0  0  0  0  0
  194.5970  176.0510  143.6260 C   0  0  2  0  0  3  0  0  0  0  0  0
  194.8770  177.4040  145.5940 O   0  0  0  0  0  1  0  0  0  0  0  0
  191.8310  176.7410  143.8190 C   0  0  0  0  0  0  0  0  0  0  0  0
  194.0100  176.5080  144.9680 C   0  0  1  0  0  3  0  0  0  0  0  0
  192.6670  177.1580  144.7800 C   0  0  0  0  0  3  0  0  0  0  0  0
  192.2680  175.6970  142.8710 C   0  0  0  0  0  3  0  0  0  0  0  0
  193.5540  175.3380  142.8010 C   0  0  0  0  0  3  0  0  0  0  0  0
  195.8000  175.1480  143.8530 C   0  0  0  0  0  2  0  0  0  0  0  0
  197.1620  177.1150  143.1460 O   0  0  0  0  0  1  0  0  0  0  0  0
  197.9260  174.9830  142.7880 O   0  0  0  0  0  0  0  0  0  0  0  0
  197.0260  175.7360  143.2410 C   0  0  0  0  0  0  0  0  0  0  0  0
  1  3  1  0  0  0  0
  2  5  1  1  0  0  0
  3  5  1  0  0  0  0
  3  6  1  0  0  0  0
  4 14  1  1  0  0  0
  4  1  1  0  0  0  0
  4  2  1  0  0  0  0
  7 10  1  0  0  0  0
  7  9  1  0  0  0  0
  8 12  1  0  0  0  0
  9  8  1  0  0  0  0
 10 13  1  0  0  0  0
 11 12  1  0  0  0  0
 13  2  1  0  0  0  0
 13 11  1  1  0  0  0
 14 17  1  0  0  0  0
 15 22  1  1  0  0  0
 15 18  1  0  0  0  0
 17 19  2  0  0  0  0
 18 16  1  6  0  0  0
 19 18  1  0  0  0  0
 20 17  1  0  0  0  0
 21 20  2  0  0  0  0
 21 15  1  0  0  0  0
 23 25  1  0  0  0  0
 24 25  2  0  0  0  0
 25 22  1  0  0  0  0
M  END
>  <MODEL>
7

>  <REMARK>
 VINA RESULT:      -6.7      2.121      4.068
  Name = 
  5 active torsions:
  status: ('A' for Active; 'I' for Inactive)
    1  A    between atoms: C_4  and  C_16
    2  A    between atoms: C_6  and  N_19
    3  A    between atoms: C_11  and  C_22
    4  A    between atoms: C_13  and  N_19
    5  A    between atoms: C_16  and  C_25
                            x       y       z     vdW  Elec       q    Type
                         _______ _______ _______ _____ _____    ______ ____

>  <TORSDO>
F 5

$$$$
=
 OpenBabel11072409413D

 25 27  0  0  1  0  0  0  0  0999 V2000
  193.0320  176.8000  144.3760 C   0  0  0  0  0  2  0  0  0  0  0  0
  192.5750  175.2330  146.1230 C   0  0  2  0  0  3  0  0  0  0  0  0
  194.1180  176.9330  145.3360 N   0  0  0  0  0  0  0  0  0  0  0  0
  191.8970  176.0840  145.0680 C   0  0  1  0  0  3  0  0  0  0  0  0
  193.9640  175.8370  146.2850 C   0  0  0  0  0  2  0  0  0  0  0  0
  195.3530  176.6980  144.6120 C   0  0  0  0  0  1  0  0  0  0  0  0
  194.2080  171.9910  145.3290 C   0  0  0  0  0  2  0  0  0  0  0  0
  192.5590  171.2960  143.4890 C   0  0  0  0  0  2  0  0  0  0  0  0
  194.0220  171.5300  143.8890 C   0  0  0  0  0  2  0  0  0  0  0  0
  194.0760  173.4400  145.3880 N   0  0  0  0  0  2  0  0  0  0  0  0
  191.8340  173.5580  144.4090 C   0  0  0  0  0  2  0  0  0  0  0  0
  191.5020  172.0800  144.2740 C   0  0  0  0  0  2  0  0  0  0  0  0
  192.6820  173.7770  145.6620 C   0  0  2  0  0  3  0  0  0  0  0  0
  191.0330  177.0680  145.7090 N   0  0  0  0  0  2  0  0  0  0  0  0
  186.8040  177.5970  145.7850 C   0  0  2  0  0  3  0  0  0  0  0  0
  186.9940  178.2280  143.4720 O   0  0  0  0  0  1  0  0  0  0  0  0
  189.6030  177.0460  145.6330 C   0  0  0  0  0  0  0  0  0  0  0  0
  187.4610  177.3220  144.4260 C   0  0  1  0  0  3  0  0  0  0  0  0
  188.9590  177.4180  144.5180 C   0  0  0  0  0  3  0  0  0  0  0  0
  188.8310  176.6280  146.8200 C   0  0  0  0  0  3  0  0  0  0  0  0
  187.5140  176.8450  146.8840 C   0  0  0  0  0  3  0  0  0  0  0  0
  185.3310  177.2150  145.7480 C   0  0  0  0  0  2  0  0  0  0  0  0
  184.5050  178.6290  147.6300 O   0  0  0  0  0  1  0  0  0  0  0  0
  183.7330  178.9650  145.4970 O   0  0  0  0  0  0  0  0  0  0  0  0
  184.4850  178.3240  146.2750 C   0  0  0  0  0  0  0  0  0  0  0  0
  1  4  1  0  0  0  0
  1  3  1  0  0  0  0
  2  5  1  6  0  0  0
  3  5  1  0  0  0  0
  4 14  1  1  0  0  0
  4  2  1  0  0  0  0
  6  3  1  0  0  0  0
  7 10  1  0  0  0  0
  8  9  1  0  0  0  0
  8 12  1  0  0  0  0
  9  7  1  0  0  0  0
 10 13  1  0  0  0  0
 12 11  1  0  0  0  0
 13 11  1  6  0  0  0
 13  2  1  0  0  0  0
 15 22  1  6  0  0  0
 15 21  1  0  0  0  0
 17 14  1  0  0  0  0
 17 20  1  0  0  0  0
 18 16  1  6  0  0  0
 18 19  1  0  0  0  0
 18 15  1  0  0  0  0
 19 17  2  0  0  0  0
 20 21  2  0  0  0  0
 22 25  1  0  0  0  0
 24 25  2  0  0  0  0
 25 23  1  0  0  0  0
M  END
>  <MODEL>
8

>  <REMARK>
 VINA RESULT:      -6.6      3.827      7.749
  Name = 
  5 active torsions:
  status: ('A' for Active; 'I' for Inactive)
    1  A    between atoms: C_4  and  C_16
    2  A    between atoms: C_6  and  N_19
    3  A    between atoms: C_11  and  C_22
    4  A    between atoms: C_13  and  N_19
    5  A    between atoms: C_16  and  C_25
                            x       y       z     vdW  Elec       q    Type
                         _______ _______ _______ _____ _____    ______ ____

>  <TORSDO>
F 5

$$$$
=
 OpenBabel11072409413D

 25 27  0  0  1  0  0  0  0  0999 V2000
  193.3120  176.7680  144.8540 C   0  0  0  0  0  2  0  0  0  0  0  0
  191.5760  175.1390  145.0800 C   0  0  2  0  0  3  0  0  0  0  0  0
  193.5410  176.1040  146.1290 N   0  0  0  0  0  0  0  0  0  0  0  0
  191.8910  176.4740  144.4360 C   0  0  1  0  0  3  0  0  0  0  0  0
  192.6250  174.9700  146.1720 C   0  0  0  0  0  2  0  0  0  0  0  0
  194.8860  175.5610  146.0860 C   0  0  0  0  0  1  0  0  0  0  0  0
  191.6190  173.5120  141.7400 C   0  0  0  0  0  2  0  0  0  0  0  0
  190.7420  171.2340  142.5330 C   0  0  0  0  0  2  0  0  0  0  0  0
  190.5800  172.4130  141.5640 C   0  0  0  0  0  2  0  0  0  0  0  0
  191.1660  174.4390  142.7680 N   0  0  0  0  0  2  0  0  0  0  0  0
  190.9130  172.7780  144.5510 C   0  0  0  0  0  2  0  0  0  0  0  0
  191.4480  171.5330  143.8600 C   0  0  0  0  0  2  0  0  0  0  0  0
  191.6860  174.0030  144.0600 C   0  0  2  0  0  3  0  0  0  0  0  0
  191.0120  177.5040  144.9790 N   0  0  0  0  0  2  0  0  0  0  0  0
  186.8240  177.6220  145.7610 C   0  0  2  0  0  3  0  0  0  0  0  0
  186.5730  178.3410  143.4800 O   0  0  0  0  0  1  0  0  0  0  0  0
  189.5980  177.3470  145.1340 C   0  0  0  0  0  0  0  0  0  0  0  0
  187.2690  177.4540  144.3020 C   0  0  1  0  0  3  0  0  0  0  0  0
  188.7470  177.6900  144.1560 C   0  0  0  0  0  3  0  0  0  0  0  0
  189.0720  176.8200  146.4080 C   0  0  0  0  0  3  0  0  0  0  0  0
  187.7690  176.9070  146.6950 C   0  0  0  0  0  3  0  0  0  0  0  0
  185.4050  177.1020  145.9450 C   0  0  0  0  0  2  0  0  0  0  0  0
  184.4450  178.6560  147.6430 O   0  0  0  0  0  1  0  0  0  0  0  0
  183.7200  178.7180  145.4690 O   0  0  0  0  0  0  0  0  0  0  0  0
  184.4830  178.2080  146.3290 C   0  0  0  0  0  0  0  0  0  0  0  0
  1  3  1  0  0  0  0
  2  5  1  1  0  0  0
  3  5  1  0  0  0  0
  4  1  1  0  0  0  0
  4 14  1  1  0  0  0
  4  2  1  0  0  0  0
  6  3  1  0  0  0  0
  7 10  1  0  0  0  0
  8 12  1  0  0  0  0
  9  7  1  0  0  0  0
  9  8  1  0  0  0  0
 10 13  1  0  0  0  0
 12 11  1  0  0  0  0
 13 11  1  1  0  0  0
 13  2  1  0  0  0  0
 14 17  1  0  0  0  0
 15 22  1  6  0  0  0
 15 21  1  0  0  0  0
 17 20  1  0  0  0  0
 18 16  1  6  0  0  0
 18 15  1  0  0  0  0
 19 18  1  0  0  0  0
 19 17  2  0  0  0  0
 20 21  2  0  0  0  0
 22 25  1  0  0  0  0
 24 25  2  0  0  0  0
 25 23  1  0  0  0  0
M  END
>  <MODEL>
9

>  <REMARK>
 VINA RESULT:      -6.5      3.887      7.133
  Name = 
  5 active torsions:
  status: ('A' for Active; 'I' for Inactive)
    1  A    between atoms: C_4  and  C_16
    2  A    between atoms: C_6  and  N_19
    3  A    between atoms: C_11  and  C_22
    4  A    between atoms: C_13  and  N_19
    5  A    between atoms: C_16  and  C_25
                            x       y       z     vdW  Elec       q    Type
                         _______ _______ _______ _____ _____    ______ ____

>  <TORSDO>
F 5

$$$$
