=
 OpenBabel11062422063D

 34 39  0  0  1  0  0  0  0  0999 V2000
  192.0120  171.7280  144.4290 N   0  0  0  0  0  2  0  0  0  0  0  0
  191.1430  175.7570  145.0530 C   0  0  0  0  0  0  0  0  0  0  0  0
  191.7530  172.9890  144.5240 C   0  0  0  0  0  0  0  0  0  0  0  0
  190.3910  173.4960  144.1420 C   0  0  1  0  0  3  0  0  0  0  0  0
  190.1070  174.8770  144.6800 C   0  0  0  0  0  0  0  0  0  0  0  0
  188.7800  175.3190  144.7240 C   0  0  0  0  0  3  0  0  0  0  0  0
  190.8340  177.0610  145.4670 C   0  0  0  0  0  3  0  0  0  0  0  0
  189.5060  177.4890  145.5110 C   0  0  0  0  0  3  0  0  0  0  0  0
  193.4900  176.0790  145.2760 O   0  0  0  0  0  0  0  0  0  0  0  0
  192.5380  175.2850  145.0500 C   0  0  0  0  0  0  0  0  0  0  0  0
  188.4750  176.6200  145.1440 C   0  0  0  0  0  0  0  0  0  0  0  0
  192.8110  173.9030  144.8230 N   0  0  0  0  0  2  0  0  0  0  0  0
  184.8040  178.8430  145.1170 C   0  0  1  0  0  3  0  0  0  0  0  0
  186.7600  177.8470  146.4960 C   0  0  1  0  0  3  0  0  0  0  0  0
  186.6680  176.8790  147.6630 C   0  0  0  0  0  1  0  0  0  0  0  0
  186.8060  177.9380  144.0940 O   0  0  0  0  0  0  0  0  0  0  0  0
  187.0590  177.1010  145.1870 C   0  0  1  0  0  3  0  0  0  0  0  0
  185.4090  177.9910  143.9940 C   0  0  2  0  0  3  0  0  0  0  0  0
  184.3560  177.9820  146.1390 O   0  0  0  0  0  0  0  0  0  0  0  0
  185.5020  178.7410  146.4410 C   0  0  2  0  0  3  0  0  0  0  0  0
  185.9580  178.1330  141.5380 C   0  0  0  0  0  3  0  0  0  0  0  0
  183.5570  178.0640  142.3000 C   0  0  0  0  0  2  0  0  0  0  0  0
  183.2040  178.5190  140.8910 C   0  0  0  0  0  2  0  0  0  0  0  0
  184.9800  178.5140  142.6250 C   0  0  1  0  0  3  0  0  0  0  0  0
  186.5440  177.5770  139.3330 O   0  0  0  0  0  1  0  0  0  0  0  0
  184.1250  177.8340  139.8800 C   0  0  0  0  0  2  0  0  0  0  0  0
  185.5770  177.8790  140.2820 C   0  0  0  0  0  0  0  0  0  0  0  0
  190.2660  173.5020  142.6920 N   0  0  0  0  0  2  0  0  0  0  0  0
  188.6290  172.6690  141.0340 C   0  0  1  0  0  3  0  0  0  0  0  0
  189.3290  172.4420  142.3400 C   0  0  2  0  0  3  0  0  0  0  0  0
  188.0290  172.9790  142.2720 O   0  0  0  0  0  0  0  0  0  0  0  0
  188.4040  175.0110  140.5770 O   0  0  0  0  0  1  0  0  0  0  0  0
  188.9990  173.9330  140.3150 C   0  0  0  0  0  0  0  0  0  0  0  0
  189.9760  173.9070  139.3280 O   0  0  0  0  0  0  0  0  0  0  0  0
  1  3  2  0  0  0  0
  2  7  1  0  0  0  0
  3 12  1  0  0  0  0
  4 28  1  6  0  0  0
  4  3  1  0  0  0  0
  4  5  1  0  0  0  0
  5  6  1  0  0  0  0
  5  2  2  0  0  0  0
  6 11  2  0  0  0  0
  7  8  2  0  0  0  0
 10  2  1  0  0  0  0
 10  9  2  0  0  0  0
 11  8  1  0  0  0  0
 12 10  1  0  0  0  0
 13 19  1  1  0  0  0
 13 20  1  0  0  0  0
 14 15  1  1  0  0  0
 16 17  1  0  0  0  0
 17 11  1  1  0  0  0
 17 14  1  0  0  0  0
 18 16  1  6  0  0  0
 18 13  1  0  0  0  0
 20 19  1  1  0  0  0
 20 14  1  0  0  0  0
 22 24  1  0  0  0  0
 23 22  1  0  0  0  0
 24 21  1  6  0  0  0
 24 18  1  0  0  0  0
 25 27  1  0  0  0  0
 26 27  1  0  0  0  0
 26 23  1  0  0  0  0
 27 21  2  0  0  0  0
 29 33  1  6  0  0  0
 29 31  1  0  0  0  0
 29 30  1  0  0  0  0
 30 28  1  6  0  0  0
 31 30  1  0  0  0  0
 33 32  1  0  0  0  0
 34 33  2  0  0  0  0
M  END
>  <MODEL>
1

>  <REMARK>
 VINA RESULT:      -8.0      0.000      0.000
  Name = 
  5 active torsions:
  status: ('A' for Active; 'I' for Inactive)
    1  A    between atoms: C_3  and  C_19
    2  A    between atoms: C_11  and  N_17
    3  A    between atoms: N_17  and  C_23
    4  A    between atoms: C_20  and  C_32
    5  A    between atoms: C_21  and  C_24
                            x       y       z     vdW  Elec       q    Type
                         _______ _______ _______ _____ _____    ______ ____

>  <TORSDO>
F 5

$$$$
=
 OpenBabel11062422063D

 34 39  0  0  1  0  0  0  0  0999 V2000
  184.7930  178.3870  141.9580 N   0  0  0  0  0  2  0  0  0  0  0  0
  186.6260  177.4400  145.5810 C   0  0  0  0  0  0  0  0  0  0  0  0
  185.3440  177.9980  143.0590 C   0  0  0  0  0  0  0  0  0  0  0  0
  186.7400  177.4410  143.0320 C   0  0  1  0  0  3  0  0  0  0  0  0
  187.3880  177.4160  144.3940 C   0  0  0  0  0  0  0  0  0  0  0  0
  188.7780  177.2780  144.4720 C   0  0  0  0  0  3  0  0  0  0  0  0
  187.2690  177.3310  146.8220 C   0  0  0  0  0  3  0  0  0  0  0  0
  188.6570  177.1970  146.8880 C   0  0  0  0  0  3  0  0  0  0  0  0
  184.4530  177.5480  146.5420 O   0  0  0  0  0  0  0  0  0  0  0  0
  185.1680  177.6280  145.5070 C   0  0  0  0  0  0  0  0  0  0  0  0
  189.4160  177.1750  145.7150 C   0  0  0  0  0  0  0  0  0  0  0  0
  184.5620  177.9400  144.2540 N   0  0  0  0  0  2  0  0  0  0  0  0
  193.4960  175.8420  145.7330 C   0  0  1  0  0  3  0  0  0  0  0  0
  191.3100  176.2460  147.0670 C   0  0  1  0  0  3  0  0  0  0  0  0
  191.1320  177.1000  148.3100 C   0  0  0  0  0  1  0  0  0  0  0  0
  191.3830  176.3640  144.6670 O   0  0  0  0  0  0  0  0  0  0  0  0
  190.9020  177.0210  145.8060 C   0  0  1  0  0  3  0  0  0  0  0  0
  192.7590  176.6340  144.6470 C   0  0  2  0  0  3  0  0  0  0  0  0
  193.6940  176.6850  146.8450 O   0  0  0  0  0  0  0  0  0  0  0  0
  192.7390  175.6650  147.0170 C   0  0  2  0  0  3  0  0  0  0  0  0
  194.8270  176.0400  143.3350 C   0  0  0  0  0  3  0  0  0  0  0  0
  192.5640  175.2410  142.5680 C   0  0  0  0  0  2  0  0  0  0  0  0
  193.2410  174.9160  141.2440 C   0  0  0  0  0  2  0  0  0  0  0  0
  193.3500  176.3470  143.2690 C   0  0  1  0  0  3  0  0  0  0  0  0
  196.7940  174.9890  142.6000 O   0  0  0  0  0  1  0  0  0  0  0  0
  194.6450  174.3650  141.5020 C   0  0  0  0  0  2  0  0  0  0  0  0
  195.4240  175.1830  142.5000 C   0  0  0  0  0  0  0  0  0  0  0  0
  186.7120  176.0940  142.4810 N   0  0  0  0  0  2  0  0  0  0  0  0
  188.3180  174.9400  140.9940 C   0  0  1  0  0  3  0  0  0  0  0  0
  187.4410  176.1340  141.2190 C   0  0  2  0  0  3  0  0  0  0  0  0
  188.8230  176.1600  141.4840 O   0  0  0  0  0  0  0  0  0  0  0  0
  189.0990  174.0130  143.0610 O   0  0  0  0  0  1  0  0  0  0  0  0
  188.3050  173.9140  142.0890 C   0  0  0  0  0  0  0  0  0  0  0  0
  187.4410  172.8300  142.0130 O   0  0  0  0  0  0  0  0  0  0  0  0
  1  3  2  0  0  0  0
  2  7  1  0  0  0  0
  3 12  1  0  0  0  0
  4 28  1  1  0  0  0
  4  3  1  0  0  0  0
  4  5  1  0  0  0  0
  5  6  1  0  0  0  0
  5  2  2  0  0  0  0
  6 11  2  0  0  0  0
  7  8  2  0  0  0  0
 10  2  1  0  0  0  0
 10  9  2  0  0  0  0
 11  8  1  0  0  0  0
 12 10  1  0  0  0  0
 13 19  1  1  0  0  0
 13 20  1  0  0  0  0
 14 15  1  1  0  0  0
 16 17  1  0  0  0  0
 17 11  1  6  0  0  0
 17 14  1  0  0  0  0
 18 16  1  6  0  0  0
 18 13  1  0  0  0  0
 20 19  1  1  0  0  0
 20 14  1  0  0  0  0
 23 26  1  0  0  0  0
 23 22  1  0  0  0  0
 24 22  1  1  0  0  0
 24 21  1  0  0  0  0
 24 18  1  0  0  0  0
 26 27  1  0  0  0  0
 27 25  1  0  0  0  0
 27 21  2  0  0  0  0
 29 30  1  0  0  0  0
 29 31  1  0  0  0  0
 29 33  1  1  0  0  0
 30 31  1  0  0  0  0
 30 28  1  1  0  0  0
 33 32  1  0  0  0  0
 34 33  2  0  0  0  0
M  END
>  <MODEL>
2

>  <REMARK>
 VINA RESULT:      -7.8      2.822      7.006
  Name = 
  5 active torsions:
  status: ('A' for Active; 'I' for Inactive)
    1  A    between atoms: C_3  and  C_19
    2  A    between atoms: C_11  and  N_17
    3  A    between atoms: N_17  and  C_23
    4  A    between atoms: C_20  and  C_32
    5  A    between atoms: C_21  and  C_24
                            x       y       z     vdW  Elec       q    Type
                         _______ _______ _______ _____ _____    ______ ____

>  <TORSDO>
F 5

$$$$
=
 OpenBabel11062422063D

 34 39  0  0  1  0  0  0  0  0999 V2000
  186.0450  179.4580  143.8100 N   0  0  0  0  0  2  0  0  0  0  0  0
  187.4470  176.5660  146.4660 C   0  0  0  0  0  0  0  0  0  0  0  0
  186.4120  178.5000  144.5930 C   0  0  0  0  0  0  0  0  0  0  0  0
  187.2980  177.4070  144.0620 C   0  0  1  0  0  3  0  0  0  0  0  0
  187.9640  176.6090  145.1540 C   0  0  0  0  0  0  0  0  0  0  0  0
  189.0750  175.8240  144.8280 C   0  0  0  0  0  3  0  0  0  0  0  0
  188.0520  175.7430  147.4260 C   0  0  0  0  0  3  0  0  0  0  0  0
  189.1620  174.9670  147.0900 C   0  0  0  0  0  3  0  0  0  0  0  0
  185.7580  177.3260  147.9580 O   0  0  0  0  0  0  0  0  0  0  0  0
  186.3050  177.4230  146.8270 C   0  0  0  0  0  0  0  0  0  0  0  0
  189.6800  175.0070  145.7920 C   0  0  0  0  0  0  0  0  0  0  0  0
  185.8360  178.3970  145.8970 N   0  0  0  0  0  2  0  0  0  0  0  0
  193.1080  173.1160  144.0320 C   0  0  1  0  0  3  0  0  0  0  0  0
  190.5330  173.1600  144.3310 C   0  0  1  0  0  3  0  0  0  0  0  0
  189.6450  172.0420  144.8500 C   0  0  0  0  0  1  0  0  0  0  0  0
  191.9340  174.9730  145.0560 O   0  0  0  0  0  0  0  0  0  0  0  0
  190.8650  174.1600  145.4480 C   0  0  1  0  0  3  0  0  0  0  0  0
  193.0690  174.1560  145.1590 C   0  0  2  0  0  3  0  0  0  0  0  0
  192.6050  171.8970  144.5300 O   0  0  0  0  0  0  0  0  0  0  0  0
  191.7710  172.5730  143.6190 C   0  0  2  0  0  3  0  0  0  0  0  0
  195.5800  174.1470  145.3610 C   0  0  0  0  0  3  0  0  0  0  0  0
  194.4290  175.8600  143.9160 C   0  0  0  0  0  2  0  0  0  0  0  0
  195.7580  176.6030  143.9160 C   0  0  0  0  0  2  0  0  0  0  0  0
  194.3440  174.9940  145.1710 C   0  0  1  0  0  3  0  0  0  0  0  0
  197.8550  173.6450  145.0620 O   0  0  0  0  0  1  0  0  0  0  0  0
  196.9110  175.6020  143.8410 C   0  0  0  0  0  2  0  0  0  0  0  0
  196.7560  174.4520  144.8030 C   0  0  0  0  0  0  0  0  0  0  0  0
  186.5150  176.5190  143.2160 N   0  0  0  0  0  2  0  0  0  0  0  0
  187.4400  176.2960  140.9320 C   0  0  1  0  0  3  0  0  0  0  0  0
  186.5570  177.0670  141.8650 C   0  0  2  0  0  3  0  0  0  0  0  0
  187.8720  177.4750  141.5730 O   0  0  0  0  0  0  0  0  0  0  0  0
  189.3790  175.1070  141.6880 O   0  0  0  0  0  0  0  0  0  0  0  0
  188.1300  175.1060  141.5310 C   0  0  0  0  0  0  0  0  0  0  0  0
  187.3930  173.9820  141.8800 O   0  0  0  0  0  1  0  0  0  0  0  0
  1  3  2  0  0  0  0
  2 10  1  0  0  0  0
  2  7  1  0  0  0  0
  3 12  1  0  0  0  0
  4 28  1  1  0  0  0
  4  3  1  0  0  0  0
  4  5  1  0  0  0  0
  5  2  2  0  0  0  0
  6  5  1  0  0  0  0
  6 11  2  0  0  0  0
  8  7  2  0  0  0  0
 10  9  2  0  0  0  0
 11  8  1  0  0  0  0
 12 10  1  0  0  0  0
 13 19  1  1  0  0  0
 13 18  1  0  0  0  0
 14 15  1  1  0  0  0
 14 17  1  0  0  0  0
 16 17  1  0  0  0  0
 17 11  1  6  0  0  0
 18 16  1  6  0  0  0
 18 24  1  0  0  0  0
 20 13  1  0  0  0  0
 20 14  1  0  0  0  0
 20 19  1  1  0  0  0
 23 22  1  0  0  0  0
 24 22  1  6  0  0  0
 24 21  1  0  0  0  0
 26 23  1  0  0  0  0
 26 27  1  0  0  0  0
 27 25  1  0  0  0  0
 27 21  2  0  0  0  0
 29 33  1  1  0  0  0
 29 31  1  0  0  0  0
 29 30  1  0  0  0  0
 30 28  1  1  0  0  0
 31 30  1  0  0  0  0
 33 32  2  0  0  0  0
 33 34  1  0  0  0  0
M  END
>  <MODEL>
3

>  <REMARK>
 VINA RESULT:      -7.7      2.996      7.816
  Name = 
  5 active torsions:
  status: ('A' for Active; 'I' for Inactive)
    1  A    between atoms: C_3  and  C_19
    2  A    between atoms: C_11  and  N_17
    3  A    between atoms: N_17  and  C_23
    4  A    between atoms: C_20  and  C_32
    5  A    between atoms: C_21  and  C_24
                            x       y       z     vdW  Elec       q    Type
                         _______ _______ _______ _____ _____    ______ ____

>  <TORSDO>
F 5

$$$$
=
 OpenBabel11062422063D

 34 39  0  0  1  0  0  0  0  0999 V2000
  194.3490  171.8080  143.4340 N   0  0  0  0  0  2  0  0  0  0  0  0
  192.8900  175.6580  144.0890 C   0  0  0  0  0  0  0  0  0  0  0  0
  193.8870  173.0100  143.5380 C   0  0  0  0  0  0  0  0  0  0  0  0
  192.4090  173.2480  143.4060 C   0  0  1  0  0  3  0  0  0  0  0  0
  191.9800  174.5900  143.9450 C   0  0  0  0  0  0  0  0  0  0  0  0
  190.6260  174.7980  144.2260 C   0  0  0  0  0  3  0  0  0  0  0  0
  192.4290  176.9120  144.5150 C   0  0  0  0  0  3  0  0  0  0  0  0
  191.0750  177.1070  144.7960 C   0  0  0  0  0  3  0  0  0  0  0  0
  195.1400  176.3940  143.8550 O   0  0  0  0  0  0  0  0  0  0  0  0
  194.3230  175.4350  143.8370 C   0  0  0  0  0  0  0  0  0  0  0  0
  190.1710  176.0510  144.6570 C   0  0  0  0  0  0  0  0  0  0  0  0
  194.7970  174.1100  143.6040 N   0  0  0  0  0  2  0  0  0  0  0  0
  186.2830  177.6110  145.5920 C   0  0  1  0  0  3  0  0  0  0  0  0
  188.4920  176.5580  146.4460 C   0  0  1  0  0  3  0  0  0  0  0  0
  188.6530  175.2870  147.2630 C   0  0  0  0  0  1  0  0  0  0  0  0
  188.2450  177.3550  144.1920 O   0  0  0  0  0  0  0  0  0  0  0  0
  188.7220  176.2820  144.9530 C   0  0  1  0  0  3  0  0  0  0  0  0
  186.8490  177.2270  144.2190 C   0  0  2  0  0  3  0  0  0  0  0  0
  186.0630  176.4320  146.3320 O   0  0  0  0  0  0  0  0  0  0  0  0
  187.1390  177.2300  146.7640 C   0  0  2  0  0  3  0  0  0  0  0  0
  186.7880  177.7510  141.7550 C   0  0  0  0  0  3  0  0  0  0  0  0
  184.6860  177.8950  143.1350 C   0  0  0  0  0  2  0  0  0  0  0  0
  184.0890  178.6570  141.9600 C   0  0  0  0  0  2  0  0  0  0  0  0
  186.2040  178.0580  143.1130 C   0  0  1  0  0  3  0  0  0  0  0  0
  186.6900  177.5440  139.4170 O   0  0  0  0  0  1  0  0  0  0  0  0
  184.5800  178.0490  140.6450 C   0  0  0  0  0  2  0  0  0  0  0  0
  186.0660  177.7990  140.6310 C   0  0  0  0  0  0  0  0  0  0  0  0
  192.0250  173.1400  142.0060 N   0  0  0  0  0  2  0  0  0  0  0  0
  190.0850  172.0150  140.9600 C   0  0  1  0  0  3  0  0  0  0  0  0
  191.2750  171.8980  141.8630 C   0  0  2  0  0  3  0  0  0  0  0  0
  189.9730  172.0840  142.3630 O   0  0  0  0  0  0  0  0  0  0  0  0
  189.1680  174.2290  140.9710 O   0  0  0  0  0  1  0  0  0  0  0  0
  189.8610  173.3720  140.3610 C   0  0  0  0  0  0  0  0  0  0  0  0
  190.3870  173.6740  139.1120 O   0  0  0  0  0  0  0  0  0  0  0  0
  1  3  2  0  0  0  0
  2  7  1  0  0  0  0
  3 12  1  0  0  0  0
  4 28  1  6  0  0  0
  4  3  1  0  0  0  0
  4  5  1  0  0  0  0
  5  2  2  0  0  0  0
  5  6  1  0  0  0  0
  6 11  2  0  0  0  0
  7  8  2  0  0  0  0
 10  9  2  0  0  0  0
 10  2  1  0  0  0  0
 11  8  1  0  0  0  0
 12 10  1  0  0  0  0
 13 19  1  1  0  0  0
 13 20  1  0  0  0  0
 14 20  1  0  0  0  0
 14 15  1  1  0  0  0
 16 17  1  0  0  0  0
 17 11  1  1  0  0  0
 17 14  1  0  0  0  0
 18 16  1  1  0  0  0
 18 13  1  0  0  0  0
 20 19  1  1  0  0  0
 23 22  1  0  0  0  0
 24 21  1  6  0  0  0
 24 22  1  0  0  0  0
 24 18  1  0  0  0  0
 25 27  1  0  0  0  0
 26 23  1  0  0  0  0
 27 26  1  0  0  0  0
 27 21  2  0  0  0  0
 29 33  1  6  0  0  0
 29 30  1  0  0  0  0
 29 31  1  0  0  0  0
 30 28  1  6  0  0  0
 30 31  1  0  0  0  0
 33 32  1  0  0  0  0
 34 33  2  0  0  0  0
M  END
>  <MODEL>
4

>  <REMARK>
 VINA RESULT:      -7.4      1.520      1.830
  Name = 
  5 active torsions:
  status: ('A' for Active; 'I' for Inactive)
    1  A    between atoms: C_3  and  C_19
    2  A    between atoms: C_11  and  N_17
    3  A    between atoms: N_17  and  C_23
    4  A    between atoms: C_20  and  C_32
    5  A    between atoms: C_21  and  C_24
                            x       y       z     vdW  Elec       q    Type
                         _______ _______ _______ _____ _____    ______ ____

>  <TORSDO>
F 5

$$$$
=
 OpenBabel11062422063D

 34 39  0  0  1  0  0  0  0  0999 V2000
  183.7190  178.4640  144.2070 N   0  0  0  0  0  2  0  0  0  0  0  0
  186.8880  176.9740  141.9440 C   0  0  0  0  0  0  0  0  0  0  0  0
  184.7540  178.0820  143.5350 C   0  0  0  0  0  0  0  0  0  0  0  0
  185.9100  177.4450  144.2530 C   0  0  1  0  0  3  0  0  0  0  0  0
  186.8360  176.6970  143.3260 C   0  0  0  0  0  0  0  0  0  0  0  0
  187.7240  175.7660  143.8750 C   0  0  0  0  0  3  0  0  0  0  0  0
  187.8240  176.3120  141.1370 C   0  0  0  0  0  3  0  0  0  0  0  0
  188.7030  175.3830  141.6950 C   0  0  0  0  0  3  0  0  0  0  0  0
  186.0200  178.2650  140.1450 O   0  0  0  0  0  0  0  0  0  0  0  0
  185.9270  177.9200  141.3540 C   0  0  0  0  0  0  0  0  0  0  0  0
  188.6540  175.1030  143.0630 C   0  0  0  0  0  0  0  0  0  0  0  0
  184.8580  178.4250  142.1510 N   0  0  0  0  0  2  0  0  0  0  0  0
  192.0370  172.7310  144.2250 C   0  0  1  0  0  3  0  0  0  0  0  0
  190.0470  173.0730  142.5990 C   0  0  1  0  0  3  0  0  0  0  0  0
  188.9210  172.0980  142.3010 C   0  0  0  0  0  1  0  0  0  0  0  0
  190.7340  174.7730  144.1530 O   0  0  0  0  0  0  0  0  0  0  0  0
  189.6120  174.1110  143.6440 C   0  0  1  0  0  3  0  0  0  0  0  0
  191.3430  173.8480  145.0130 C   0  0  2  0  0  3  0  0  0  0  0  0
  191.1800  171.6130  144.1840 O   0  0  0  0  0  0  0  0  0  0  0  0
  191.3350  172.3060  142.9690 C   0  0  2  0  0  3  0  0  0  0  0  0
  193.7620  174.2550  145.5890 C   0  0  0  0  0  3  0  0  0  0  0  0
  192.0380  176.0410  146.0180 C   0  0  0  0  0  2  0  0  0  0  0  0
  193.0970  176.7110  146.8830 C   0  0  0  0  0  2  0  0  0  0  0  0
  192.3250  174.5430  145.9530 C   0  0  1  0  0  3  0  0  0  0  0  0
  196.0460  174.7870  145.4450 O   0  0  0  0  0  1  0  0  0  0  0  0
  194.4720  176.5530  146.2340 C   0  0  0  0  0  2  0  0  0  0  0  0
  194.7440  175.1450  145.7660 C   0  0  0  0  0  0  0  0  0  0  0  0
  186.6580  178.4690  144.9680 N   0  0  0  0  0  2  0  0  0  0  0  0
  186.6960  178.0240  147.4020 C   0  0  1  0  0  3  0  0  0  0  0  0
  185.9900  178.6700  146.2490 C   0  0  2  0  0  3  0  0  0  0  0  0
  185.5930  177.4210  146.7640 O   0  0  0  0  0  0  0  0  0  0  0  0
  187.9350  176.0350  146.8990 O   0  0  0  0  0  0  0  0  0  0  0  0
  187.9550  177.2840  147.0560 C   0  0  0  0  0  0  0  0  0  0  0  0
  189.1550  177.9740  146.9460 O   0  0  0  0  0  1  0  0  0  0  0  0
  2  5  1  0  0  0  0
  3  1  2  0  0  0  0
  3  4  1  0  0  0  0
  4 28  1  6  0  0  0
  5  6  2  0  0  0  0
  5  4  1  0  0  0  0
  7  8  1  0  0  0  0
  7  2  2  0  0  0  0
  8 11  2  0  0  0  0
  9 10  2  0  0  0  0
 10  2  1  0  0  0  0
 10 12  1  0  0  0  0
 11  6  1  0  0  0  0
 12  3  1  0  0  0  0
 13 19  1  1  0  0  0
 13 18  1  0  0  0  0
 14 15  1  1  0  0  0
 14 20  1  0  0  0  0
 14 17  1  0  0  0  0
 17 11  1  6  0  0  0
 17 16  1  0  0  0  0
 18 16  1  6  0  0  0
 18 24  1  0  0  0  0
 20 19  1  1  0  0  0
 20 13  1  0  0  0  0
 21 27  2  0  0  0  0
 22 23  1  0  0  0  0
 24 21  1  6  0  0  0
 24 22  1  0  0  0  0
 25 27  1  0  0  0  0
 26 23  1  0  0  0  0
 27 26  1  0  0  0  0
 29 33  1  6  0  0  0
 30 28  1  6  0  0  0
 30 31  1  0  0  0  0
 30 29  1  0  0  0  0
 31 29  1  0  0  0  0
 32 33  2  0  0  0  0
 34 33  1  0  0  0  0
M  END
>  <MODEL>
5

>  <REMARK>
 VINA RESULT:      -7.3      2.992      8.131
  Name = 
  5 active torsions:
  status: ('A' for Active; 'I' for Inactive)
    1  A    between atoms: C_3  and  C_19
    2  A    between atoms: C_11  and  N_17
    3  A    between atoms: N_17  and  C_23
    4  A    between atoms: C_20  and  C_32
    5  A    between atoms: C_21  and  C_24
                            x       y       z     vdW  Elec       q    Type
                         _______ _______ _______ _____ _____    ______ ____

>  <TORSDO>
F 5

$$$$
=
 OpenBabel11062422063D

 34 39  0  0  1  0  0  0  0  0999 V2000
  195.6030  176.4290  141.1140 N   0  0  0  0  0  2  0  0  0  0  0  0
  191.9190  174.4890  141.3180 C   0  0  0  0  0  0  0  0  0  0  0  0
  194.5050  175.7600  141.2350 C   0  0  0  0  0  0  0  0  0  0  0  0
  193.6980  175.8850  142.4980 C   0  0  1  0  0  3  0  0  0  0  0  0
  192.2820  175.3910  142.3400 C   0  0  0  0  0  0  0  0  0  0  0  0
  191.3290  175.7760  143.2880 C   0  0  0  0  0  3  0  0  0  0  0  0
  190.6080  173.9920  141.2620 C   0  0  0  0  0  3  0  0  0  0  0  0
  189.6650  174.3860  142.2120 C   0  0  0  0  0  3  0  0  0  0  0  0
  192.6400  173.2310  139.4320 O   0  0  0  0  0  0  0  0  0  0  0  0
  192.9050  174.1140  140.2920 C   0  0  0  0  0  0  0  0  0  0  0  0
  190.0190  175.2810  143.2250 C   0  0  0  0  0  0  0  0  0  0  0  0
  194.1640  174.7840  140.2490 N   0  0  0  0  0  2  0  0  0  0  0  0
  187.5170  177.2710  146.0880 C   0  0  1  0  0  3  0  0  0  0  0  0
  189.6180  175.8210  145.6380 C   0  0  1  0  0  3  0  0  0  0  0  0
  189.9400  174.4570  146.2250 C   0  0  0  0  0  1  0  0  0  0  0  0
  188.4010  176.8930  143.8640 O   0  0  0  0  0  0  0  0  0  0  0  0
  188.9960  175.6830  144.2410 C   0  0  1  0  0  3  0  0  0  0  0  0
  187.2200  176.9650  144.6150 C   0  0  2  0  0  3  0  0  0  0  0  0
  187.4970  176.0600  146.8100 O   0  0  0  0  0  0  0  0  0  0  0  0
  188.7670  176.6420  146.6310 C   0  0  2  0  0  3  0  0  0  0  0  0
  186.1310  177.8670  142.5290 C   0  0  0  0  0  3  0  0  0  0  0  0
  184.9090  177.9380  144.7310 C   0  0  0  0  0  2  0  0  0  0  0  0
  183.9550  178.9120  144.0530 C   0  0  0  0  0  2  0  0  0  0  0  0
  186.2630  177.9990  144.0270 C   0  0  1  0  0  3  0  0  0  0  0  0
  184.9690  178.0310  140.4940 O   0  0  0  0  0  1  0  0  0  0  0  0
  183.7190  178.4820  142.6040 C   0  0  0  0  0  2  0  0  0  0  0  0
  184.9950  178.1370  141.8780 C   0  0  0  0  0  0  0  0  0  0  0  0
  194.3560  175.1480  143.5660 N   0  0  0  0  0  2  0  0  0  0  0  0
  195.2270  175.5160  145.8530 C   0  0  1  0  0  3  0  0  0  0  0  0
  194.3400  176.0020  144.7480 C   0  0  2  0  0  3  0  0  0  0  0  0
  193.8390  175.2700  145.8410 O   0  0  0  0  0  0  0  0  0  0  0  0
  195.4510  173.1300  145.8250 O   0  0  0  0  0  1  0  0  0  0  0  0
  195.9750  174.2460  145.5690 C   0  0  0  0  0  0  0  0  0  0  0  0
  197.2640  174.3010  145.0580 O   0  0  0  0  0  0  0  0  0  0  0  0
  1  3  2  0  0  0  0
  2  5  1  0  0  0  0
  3  4  1  0  0  0  0
  4 28  1  1  0  0  0
  5  4  1  0  0  0  0
  5  6  2  0  0  0  0
  7  2  2  0  0  0  0
  7  8  1  0  0  0  0
  8 11  2  0  0  0  0
  9 10  2  0  0  0  0
 10  2  1  0  0  0  0
 11  6  1  0  0  0  0
 12 10  1  0  0  0  0
 12  3  1  0  0  0  0
 13 20  1  0  0  0  0
 13 19  1  1  0  0  0
 14 15  1  1  0  0  0
 14 20  1  0  0  0  0
 16 17  1  0  0  0  0
 17 11  1  6  0  0  0
 17 14  1  0  0  0  0
 18 16  1  6  0  0  0
 18 13  1  0  0  0  0
 20 19  1  1  0  0  0
 23 22  1  0  0  0  0
 24 21  1  6  0  0  0
 24 18  1  0  0  0  0
 24 22  1  0  0  0  0
 25 27  1  0  0  0  0
 26 23  1  0  0  0  0
 27 21  2  0  0  0  0
 27 26  1  0  0  0  0
 29 33  1  6  0  0  0
 30 28  1  6  0  0  0
 30 31  1  0  0  0  0
 30 29  1  0  0  0  0
 31 29  1  0  0  0  0
 33 32  1  0  0  0  0
 34 33  2  0  0  0  0
M  END
>  <MODEL>
6

>  <REMARK>
 VINA RESULT:      -7.2      2.575      4.946
  Name = 
  5 active torsions:
  status: ('A' for Active; 'I' for Inactive)
    1  A    between atoms: C_3  and  C_19
    2  A    between atoms: C_11  and  N_17
    3  A    between atoms: N_17  and  C_23
    4  A    between atoms: C_20  and  C_32
    5  A    between atoms: C_21  and  C_24
                            x       y       z     vdW  Elec       q    Type
                         _______ _______ _______ _____ _____    ______ ____

>  <TORSDO>
F 5

$$$$
=
 OpenBabel11062422063D

 34 39  0  0  1  0  0  0  0  0999 V2000
  186.4250  177.4250  139.4940 N   0  0  0  0  0  2  0  0  0  0  0  0
  186.5340  177.7870  143.6460 C   0  0  0  0  0  0  0  0  0  0  0  0
  186.4320  177.4410  140.7850 C   0  0  0  0  0  0  0  0  0  0  0  0
  187.5910  176.8370  141.5270 C   0  0  1  0  0  3  0  0  0  0  0  0
  187.6630  177.2820  142.9670 C   0  0  0  0  0  0  0  0  0  0  0  0
  188.8630  177.1060  143.6630 C   0  0  0  0  0  3  0  0  0  0  0  0
  186.6280  178.1090  145.0070 C   0  0  0  0  0  3  0  0  0  0  0  0
  187.8310  177.9330  145.6910 C   0  0  0  0  0  3  0  0  0  0  0  0
  184.2300  178.3630  143.5100 O   0  0  0  0  0  0  0  0  0  0  0  0
  185.2810  178.0150  142.9080 C   0  0  0  0  0  0  0  0  0  0  0  0
  188.9530  177.4350  145.0230 C   0  0  0  0  0  0  0  0  0  0  0  0
  185.2650  177.8740  141.4880 N   0  0  0  0  0  2  0  0  0  0  0  0
  192.3630  175.9800  147.1840 C   0  0  1  0  0  3  0  0  0  0  0  0
  189.9710  176.9740  147.2650 C   0  0  1  0  0  3  0  0  0  0  0  0
  189.5210  178.2400  147.9740 C   0  0  0  0  0  1  0  0  0  0  0  0
  190.9570  176.1830  145.2210 O   0  0  0  0  0  0  0  0  0  0  0  0
  190.2320  177.2440  145.7760 C   0  0  1  0  0  3  0  0  0  0  0  0
  192.2650  176.3490  145.6990 C   0  0  2  0  0  3  0  0  0  0  0  0
  192.3010  177.1650  147.9450 O   0  0  0  0  0  0  0  0  0  0  0  0
  191.1630  176.3380  148.0110 C   0  0  2  0  0  3  0  0  0  0  0  0
  194.3490  176.3950  144.2820 C   0  0  0  0  0  3  0  0  0  0  0  0
  193.8150  174.3750  145.6890 C   0  0  0  0  0  2  0  0  0  0  0  0
  194.8690  173.6490  144.8640 C   0  0  0  0  0  2  0  0  0  0  0  0
  193.2550  175.5350  144.8700 C   0  0  1  0  0  3  0  0  0  0  0  0
  196.5320  176.7910  143.5110 O   0  0  0  0  0  1  0  0  0  0  0  0
  196.0390  174.5910  144.5740 C   0  0  0  0  0  2  0  0  0  0  0  0
  195.5960  175.9510  144.0980 C   0  0  0  0  0  0  0  0  0  0  0  0
  187.4980  175.3850  141.4700 N   0  0  0  0  0  2  0  0  0  0  0  0
  189.2550  173.6870  141.0810 C   0  0  1  0  0  3  0  0  0  0  0  0
  188.5650  174.9230  140.5900 C   0  0  2  0  0  3  0  0  0  0  0  0
  189.7900  174.9750  141.2830 O   0  0  0  0  0  0  0  0  0  0  0  0
  189.3190  173.4240  143.4620 O   0  0  0  0  0  1  0  0  0  0  0  0
  188.7440  173.1350  142.3800 C   0  0  0  0  0  0  0  0  0  0  0  0
  187.6560  172.2730  142.3860 O   0  0  0  0  0  0  0  0  0  0  0  0
  1  3  2  0  0  0  0
  2  7  1  0  0  0  0
  3 12  1  0  0  0  0
  3  4  1  0  0  0  0
  4 28  1  1  0  0  0
  4  5  1  0  0  0  0
  5  2  2  0  0  0  0
  5  6  1  0  0  0  0
  6 11  2  0  0  0  0
  7  8  2  0  0  0  0
 10  9  2  0  0  0  0
 10  2  1  0  0  0  0
 11  8  1  0  0  0  0
 12 10  1  0  0  0  0
 13 19  1  1  0  0  0
 13 20  1  0  0  0  0
 14 15  1  1  0  0  0
 14 20  1  0  0  0  0
 16 17  1  0  0  0  0
 17 11  1  6  0  0  0
 17 14  1  0  0  0  0
 18 16  1  6  0  0  0
 18 13  1  0  0  0  0
 20 19  1  1  0  0  0
 23 22  1  0  0  0  0
 24 21  1  1  0  0  0
 24 22  1  0  0  0  0
 24 18  1  0  0  0  0
 25 27  1  0  0  0  0
 26 23  1  0  0  0  0
 27 21  2  0  0  0  0
 27 26  1  0  0  0  0
 29 31  1  0  0  0  0
 29 33  1  1  0  0  0
 30 29  1  0  0  0  0
 30 31  1  0  0  0  0
 30 28  1  1  0  0  0
 33 34  2  0  0  0  0
 33 32  1  0  0  0  0
M  END
>  <MODEL>
7

>  <REMARK>
 VINA RESULT:      -7.2      2.586      7.107
  Name = 
  5 active torsions:
  status: ('A' for Active; 'I' for Inactive)
    1  A    between atoms: C_3  and  C_19
    2  A    between atoms: C_11  and  N_17
    3  A    between atoms: N_17  and  C_23
    4  A    between atoms: C_20  and  C_32
    5  A    between atoms: C_21  and  C_24
                            x       y       z     vdW  Elec       q    Type
                         _______ _______ _______ _____ _____    ______ ____

>  <TORSDO>
F 5

$$$$
=
 OpenBabel11062422063D

 34 39  0  0  1  0  0  0  0  0999 V2000
  188.9230  177.8970  142.5580 N   0  0  0  0  0  2  0  0  0  0  0  0
  191.3030  176.3060  145.5900 C   0  0  0  0  0  0  0  0  0  0  0  0
  189.6010  177.3240  143.4970 C   0  0  0  0  0  0  0  0  0  0  0  0
  190.5670  176.2260  143.1480 C   0  0  1  0  0  3  0  0  0  0  0  0
  191.5580  175.9450  144.2500 C   0  0  0  0  0  0  0  0  0  0  0  0
  192.7200  175.2310  143.9390 C   0  0  0  0  0  3  0  0  0  0  0  0
  192.2170  175.9500  146.5920 C   0  0  0  0  0  3  0  0  0  0  0  0
  193.3740  175.2390  146.2700 C   0  0  0  0  0  3  0  0  0  0  0  0
  189.7990  177.3400  147.1150 O   0  0  0  0  0  0  0  0  0  0  0  0
  190.1050  177.0950  145.9160 C   0  0  0  0  0  0  0  0  0  0  0  0
  193.6320  174.8810  144.9440 C   0  0  0  0  0  0  0  0  0  0  0  0
  189.2990  177.6200  144.8620 N   0  0  0  0  0  2  0  0  0  0  0  0
  197.2530  172.5760  144.9480 C   0  0  1  0  0  3  0  0  0  0  0  0
  196.1370  174.9160  144.9580 C   0  0  1  0  0  3  0  0  0  0  0  0
  196.3460  176.0420  143.9610 C   0  0  0  0  0  1  0  0  0  0  0  0
  194.8800  172.9000  145.3190 O   0  0  0  0  0  0  0  0  0  0  0  0
  194.8740  174.1110  144.6190 C   0  0  1  0  0  3  0  0  0  0  0  0
  195.8240  172.1020  144.6560 C   0  0  2  0  0  3  0  0  0  0  0  0
  197.6850  173.3810  143.8750 O   0  0  0  0  0  0  0  0  0  0  0  0
  197.4180  174.0620  145.0770 C   0  0  2  0  0  3  0  0  0  0  0  0
  196.5870  170.2110  146.1370 C   0  0  0  0  0  3  0  0  0  0  0  0
  194.1930  170.3300  145.3620 C   0  0  0  0  0  2  0  0  0  0  0  0
  194.0800  168.8830  145.8230 C   0  0  0  0  0  2  0  0  0  0  0  0
  195.6520  170.6320  145.0280 C   0  0  1  0  0  3  0  0  0  0  0  0
  197.1910  168.9300  148.0100 O   0  0  0  0  0  1  0  0  0  0  0  0
  194.8780  168.6860  147.1120 C   0  0  0  0  0  2  0  0  0  0  0  0
  196.2570  169.2910  147.0490 C   0  0  0  0  0  0  0  0  0  0  0  0
  189.8260  175.0120  142.8370 N   0  0  0  0  0  2  0  0  0  0  0  0
  189.5720  173.3340  141.0380 C   0  0  1  0  0  3  0  0  0  0  0  0
  190.1950  174.6210  141.4820 C   0  0  2  0  0  3  0  0  0  0  0  0
  190.8920  173.3990  141.5270 O   0  0  0  0  0  0  0  0  0  0  0  0
  187.4390  172.8410  142.0110 O   0  0  0  0  0  0  0  0  0  0  0  0
  188.6850  172.6640  142.0460 C   0  0  0  0  0  0  0  0  0  0  0  0
  189.2420  171.8770  143.0440 O   0  0  0  0  0  1  0  0  0  0  0  0
  1  3  2  0  0  0  0
  2 10  1  0  0  0  0
  2  7  1  0  0  0  0
  3 12  1  0  0  0  0
  4 28  1  1  0  0  0
  4  3  1  0  0  0  0
  4  5  1  0  0  0  0
  5  2  2  0  0  0  0
  6  5  1  0  0  0  0
  6 11  2  0  0  0  0
  8  7  2  0  0  0  0
 10  9  2  0  0  0  0
 11  8  1  0  0  0  0
 12 10  1  0  0  0  0
 13 19  1  6  0  0  0
 13 20  1  0  0  0  0
 14 15  1  6  0  0  0
 14 20  1  0  0  0  0
 17 11  1  1  0  0  0
 17 14  1  0  0  0  0
 17 16  1  0  0  0  0
 18 13  1  0  0  0  0
 18 24  1  0  0  0  0
 18 16  1  1  0  0  0
 20 19  1  6  0  0  0
 21 27  2  0  0  0  0
 22 23  1  0  0  0  0
 23 26  1  0  0  0  0
 24 22  1  1  0  0  0
 24 21  1  0  0  0  0
 27 26  1  0  0  0  0
 27 25  1  0  0  0  0
 29 30  1  0  0  0  0
 29 31  1  0  0  0  0
 29 33  1  1  0  0  0
 30 31  1  0  0  0  0
 30 28  1  1  0  0  0
 32 33  2  0  0  0  0
 33 34  1  0  0  0  0
M  END
>  <MODEL>
8

>  <REMARK>
 VINA RESULT:      -7.1      3.777      9.212
  Name = 
  5 active torsions:
  status: ('A' for Active; 'I' for Inactive)
    1  A    between atoms: C_3  and  C_19
    2  A    between atoms: C_11  and  N_17
    3  A    between atoms: N_17  and  C_23
    4  A    between atoms: C_20  and  C_32
    5  A    between atoms: C_21  and  C_24
                            x       y       z     vdW  Elec       q    Type
                         _______ _______ _______ _____ _____    ______ ____

>  <TORSDO>
F 5

$$$$
=
 OpenBabel11062422063D

 34 39  0  0  1  0  0  0  0  0999 V2000
  185.4180  179.5000  143.7730 N   0  0  0  0  0  2  0  0  0  0  0  0
  187.7310  177.1870  146.3580 C   0  0  0  0  0  0  0  0  0  0  0  0
  186.0870  178.7040  144.5380 C   0  0  0  0  0  0  0  0  0  0  0  0
  187.2220  177.9040  143.9630 C   0  0  1  0  0  3  0  0  0  0  0  0
  188.1460  177.3530  145.0200 C   0  0  0  0  0  0  0  0  0  0  0  0
  189.4190  176.9160  144.6360 C   0  0  0  0  0  3  0  0  0  0  0  0
  188.5970  176.5930  147.2870 C   0  0  0  0  0  3  0  0  0  0  0  0
  189.8650  176.1640  146.8930 C   0  0  0  0  0  3  0  0  0  0  0  0
  185.9720  177.4540  147.9370 O   0  0  0  0  0  0  0  0  0  0  0  0
  186.4100  177.6840  146.7780 C   0  0  0  0  0  0  0  0  0  0  0  0
  190.2820  176.3270  145.5700 C   0  0  0  0  0  0  0  0  0  0  0  0
  185.6320  178.4630  145.8720 N   0  0  0  0  0  2  0  0  0  0  0  0
  193.8550  174.1240  144.6730 C   0  0  1  0  0  3  0  0  0  0  0  0
  192.5100  175.5280  146.3890 C   0  0  1  0  0  3  0  0  0  0  0  0
  192.9550  176.7990  147.0910 C   0  0  0  0  0  1  0  0  0  0  0  0
  191.5290  174.7220  144.3480 O   0  0  0  0  0  0  0  0  0  0  0  0
  191.6420  175.8530  145.1640 C   0  0  1  0  0  3  0  0  0  0  0  0
  192.7700  174.6120  143.7050 C   0  0  2  0  0  3  0  0  0  0  0  0
  194.5780  175.2430  145.1350 O   0  0  0  0  0  0  0  0  0  0  0  0
  193.7300  174.6330  146.0790 C   0  0  2  0  0  3  0  0  0  0  0  0
  191.5240  172.7210  142.5980 C   0  0  0  0  0  3  0  0  0  0  0  0
  192.6120  174.5140  141.2020 C   0  0  0  0  0  2  0  0  0  0  0  0
  192.4170  173.5700  140.0230 C   0  0  0  0  0  2  0  0  0  0  0  0
  192.6740  173.6940  142.4890 C   0  0  1  0  0  3  0  0  0  0  0  0
  189.8190  171.3680  141.7170 O   0  0  0  0  0  1  0  0  0  0  0  0
  191.0740  172.8490  140.1530 C   0  0  0  0  0  2  0  0  0  0  0  0
  190.8340  172.2970  141.5350 C   0  0  0  0  0  0  0  0  0  0  0  0
  186.6880  176.8110  143.1640 N   0  0  0  0  0  2  0  0  0  0  0  0
  187.4340  176.4770  140.8290 C   0  0  1  0  0  3  0  0  0  0  0  0
  186.6140  177.2850  141.7870 C   0  0  2  0  0  3  0  0  0  0  0  0
  187.8940  177.6950  141.3690 O   0  0  0  0  0  0  0  0  0  0  0  0
  187.6460  174.2010  141.5480 O   0  0  0  0  0  0  0  0  0  0  0  0
  188.1900  175.3310  141.4340 C   0  0  0  0  0  0  0  0  0  0  0  0
  189.4820  175.5240  141.9040 O   0  0  0  0  0  1  0  0  0  0  0  0
  1  3  2  0  0  0  0
  2 10  1  0  0  0  0
  2  7  1  0  0  0  0
  3 12  1  0  0  0  0
  4 28  1  1  0  0  0
  4  3  1  0  0  0  0
  4  5  1  0  0  0  0
  5  2  2  0  0  0  0
  6  5  1  0  0  0  0
  6 11  2  0  0  0  0
  8  7  2  0  0  0  0
 10  9  2  0  0  0  0
 11  8  1  0  0  0  0
 12 10  1  0  0  0  0
 13 19  1  6  0  0  0
 13 20  1  0  0  0  0
 14 15  1  6  0  0  0
 16 17  1  0  0  0  0
 17 11  1  1  0  0  0
 17 14  1  0  0  0  0
 18 16  1  1  0  0  0
 18 13  1  0  0  0  0
 20 19  1  6  0  0  0
 20 14  1  0  0  0  0
 23 26  1  0  0  0  0
 23 22  1  0  0  0  0
 24 22  1  6  0  0  0
 24 21  1  0  0  0  0
 24 18  1  0  0  0  0
 26 27  1  0  0  0  0
 27 25  1  0  0  0  0
 27 21  2  0  0  0  0
 29 31  1  0  0  0  0
 29 33  1  1  0  0  0
 29 30  1  0  0  0  0
 30 28  1  1  0  0  0
 31 30  1  0  0  0  0
 33 32  2  0  0  0  0
 33 34  1  0  0  0  0
M  END
>  <MODEL>
9

>  <REMARK>
 VINA RESULT:      -7.1      2.764      6.812
  Name = 
  5 active torsions:
  status: ('A' for Active; 'I' for Inactive)
    1  A    between atoms: C_3  and  C_19
    2  A    between atoms: C_11  and  N_17
    3  A    between atoms: N_17  and  C_23
    4  A    between atoms: C_20  and  C_32
    5  A    between atoms: C_21  and  C_24
                            x       y       z     vdW  Elec       q    Type
                         _______ _______ _______ _____ _____    ______ ____

>  <TORSDO>
F 5

$$$$
