=
 OpenBabel11062420173D

 25 28  0  0  1  0  0  0  0  0999 V2000
  189.8420  177.1670  145.7130 C   0  0  0  0  0  3  0  0  0  0  0  0
  187.4430  177.2040  145.3080 C   0  0  0  0  0  0  0  0  0  0  0  0
  187.2730  176.2720  146.3460 C   0  0  0  0  0  3  0  0  0  0  0  0
  188.3750  175.7940  147.0590 C   0  0  0  0  0  3  0  0  0  0  0  0
  188.7400  177.6460  145.0010 C   0  0  0  0  0  3  0  0  0  0  0  0
  189.6630  176.2360  146.7490 C   0  0  0  0  0  0  0  0  0  0  0  0
  185.1540  178.2260  145.2160 C   0  0  0  0  0  3  0  0  0  0  0  0
  186.2600  177.6940  143.1530 C   0  0  0  0  0  3  0  0  0  0  0  0
  184.0900  178.6640  143.1680 N   0  0  0  0  0  0  0  0  0  0  0  0
  184.0940  178.6880  144.5030 N   0  0  0  0  0  0  0  0  0  0  0  0
  186.2740  177.7130  144.5520 C   0  0  0  0  0  0  0  0  0  0  0  0
  185.1460  178.1780  142.4620 C   0  0  0  0  0  0  0  0  0  0  0  0
  184.0730  178.5350  140.3760 O   0  0  0  0  0  0  0  0  0  0  0  0
  186.2490  177.7440  140.2510 N   0  0  0  0  0  1  0  0  0  0  0  0
  185.1100  178.1680  140.9920 C   0  0  0  0  0  0  0  0  0  0  0  0
  191.9430  175.4010  146.9690 C   0  0  0  0  0  0  0  0  0  0  0  0
  193.0820  175.0960  146.4090 C   0  0  0  0  0  3  0  0  0  0  0  0
  190.8000  175.7100  147.5210 C   0  0  0  0  0  3  0  0  0  0  0  0
  192.0660  174.4190  144.2540 C   0  0  2  0  0  3  0  0  0  0  0  0
  192.5410  176.4830  143.1500 O   0  0  0  0  0  0  0  0  0  0  0  0
  193.6070  174.2490  142.3760 O   0  0  0  0  0  1  0  0  0  0  0  0
  191.6280  175.4090  143.1900 C   0  0  1  0  0  3  0  0  0  0  0  0
  193.2270  175.1170  144.9250 C   0  0  1  0  0  3  0  0  0  0  0  0
  192.2730  174.0880  142.7740 C   0  0  2  0  0  3  0  0  0  0  0  0
  193.1260  176.5330  144.4220 C   0  0  0  0  0  2  0  0  0  0  0  0
  1  6  1  0  0  0  0
  2  3  2  0  0  0  0
  3  4  1  0  0  0  0
  5  2  1  0  0  0  0
  5  1  2  0  0  0  0
  6  4  2  0  0  0  0
  6 18  1  0  0  0  0
  8 11  2  0  0  0  0
  9 10  1  0  0  0  0
 10  7  2  0  0  0  0
 11  7  1  0  0  0  0
 11  2  1  0  0  0  0
 12  8  1  0  0  0  0
 12  9  2  0  0  0  0
 13 15  2  0  0  0  0
 14 15  1  0  0  0  0
 15 12  1  0  0  0  0
 16 18  2  0  0  0  0
 17 16  2  0  0  0  0
 19 23  1  0  0  0  0
 20 22  1  0  0  0  0
 20 25  1  0  0  0  0
 21 24  1  0  0  0  0
 22 19  1  0  0  0  0
 23 17  1  0  0  0  0
 24 22  1  0  0  0  0
 24 19  1  0  0  0  0
 25 23  1  0  0  0  0
M  END
>  <MODEL>
1

>  <REMARK>
 VINA RESULT:      -7.4      0.000      0.000
  Name = 
  4 active torsions:
  status: ('A' for Active; 'I' for Inactive)
    1  A    between atoms: C_5  and  C_24
    2  A    between atoms: C_9  and  C_13
    3  A    between atoms: C_19  and  C_20
    4  A    between atoms: C_23  and  C_25
                            x       y       z     vdW  Elec       q    Type
                         _______ _______ _______ _____ _____    ______ ____

>  <TORSDO>
F 4

$$$$
=
 OpenBabel11062420173D

 25 28  0  0  1  0  0  0  0  0999 V2000
  189.3130  177.8900  142.3800 C   0  0  0  0  0  3  0  0  0  0  0  0
  190.6790  176.6000  143.9250 C   0  0  0  0  0  0  0  0  0  0  0  0
  189.7440  175.5540  143.8480 C   0  0  0  0  0  3  0  0  0  0  0  0
  188.6070  175.6750  143.0460 C   0  0  0  0  0  3  0  0  0  0  0  0
  190.4510  177.7690  143.1810 C   0  0  0  0  0  3  0  0  0  0  0  0
  188.3840  176.8400  142.3080 C   0  0  0  0  0  0  0  0  0  0  0  0
  191.7910  176.5140  146.1720 C   0  0  0  0  0  3  0  0  0  0  0  0
  193.1530  176.3040  144.2060 C   0  0  0  0  0  3  0  0  0  0  0  0
  194.1140  176.2350  146.3790 N   0  0  0  0  0  0  0  0  0  0  0  0
  192.9100  176.3940  146.9320 N   0  0  0  0  0  0  0  0  0  0  0  0
  191.8860  176.4720  144.7760 C   0  0  0  0  0  0  0  0  0  0  0  0
  194.2760  176.1860  145.0290 C   0  0  0  0  0  0  0  0  0  0  0  0
  196.1150  176.8980  143.7100 O   0  0  0  0  0  0  0  0  0  0  0  0
  196.3650  174.8300  144.7300 N   0  0  0  0  0  1  0  0  0  0  0  0
  195.6160  176.0100  144.4520 C   0  0  0  0  0  0  0  0  0  0  0  0
  186.0420  177.3980  141.9260 C   0  0  0  0  0  0  0  0  0  0  0  0
  184.9140  177.8670  142.3870 C   0  0  0  0  0  3  0  0  0  0  0  0
  187.1750  176.9320  141.4740 C   0  0  0  0  0  3  0  0  0  0  0  0
  185.5930  177.2530  144.6890 C   0  0  2  0  0  3  0  0  0  0  0  0
  185.8460  179.5080  145.4330 O   0  0  0  0  0  0  0  0  0  0  0  0
  184.0560  177.9310  146.4520 O   0  0  0  0  0  1  0  0  0  0  0  0
  186.3280  178.1960  145.6220 C   0  0  1  0  0  3  0  0  0  0  0  0
  184.7590  178.1820  143.8360 C   0  0  1  0  0  3  0  0  0  0  0  0
  185.2570  177.2620  146.1820 C   0  0  2  0  0  3  0  0  0  0  0  0
  185.3370  179.5420  144.1280 C   0  0  0  0  0  2  0  0  0  0  0  0
  1  5  1  0  0  0  0
  2 11  1  0  0  0  0
  3  2  1  0  0  0  0
  4  3  2  0  0  0  0
  5  2  2  0  0  0  0
  6  1  2  0  0  0  0
  6  4  1  0  0  0  0
  7 10  1  0  0  0  0
  8 11  1  0  0  0  0
  8 12  2  0  0  0  0
  9 10  2  0  0  0  0
 11  7  2  0  0  0  0
 12  9  1  0  0  0  0
 13 15  2  0  0  0  0
 15 14  1  0  0  0  0
 15 12  1  0  0  0  0
 16 17  2  0  0  0  0
 17 23  1  0  0  0  0
 18 16  2  0  0  0  0
 18  6  1  0  0  0  0
 19 22  1  0  0  0  0
 19 24  1  0  0  0  0
 20 22  1  0  0  0  0
 22 24  1  0  0  0  0
 23 25  1  0  0  0  0
 23 19  1  0  0  0  0
 24 21  1  0  0  0  0
 25 20  1  0  0  0  0
M  END
>  <MODEL>
2

>  <REMARK>
 VINA RESULT:      -7.3      4.302      8.077
  Name = 
  4 active torsions:
  status: ('A' for Active; 'I' for Inactive)
    1  A    between atoms: C_5  and  C_24
    2  A    between atoms: C_9  and  C_13
    3  A    between atoms: C_19  and  C_20
    4  A    between atoms: C_23  and  C_25
                            x       y       z     vdW  Elec       q    Type
                         _______ _______ _______ _____ _____    ______ ____

>  <TORSDO>
F 4

$$$$
=
 OpenBabel11062420173D

 25 28  0  0  1  0  0  0  0  0999 V2000
  188.2830  175.9380  147.2470 C   0  0  0  0  0  3  0  0  0  0  0  0
  187.3850  177.2110  145.3790 C   0  0  0  0  0  0  0  0  0  0  0  0
  188.6970  177.5270  144.9880 C   0  0  0  0  0  3  0  0  0  0  0  0
  189.7900  177.0520  145.7180 C   0  0  0  0  0  3  0  0  0  0  0  0
  187.1910  176.4110  146.5160 C   0  0  0  0  0  3  0  0  0  0  0  0
  189.5910  176.2560  146.8500 C   0  0  0  0  0  0  0  0  0  0  0  0
  185.0950  178.2270  145.2510 C   0  0  0  0  0  3  0  0  0  0  0  0
  186.2310  177.6910  143.2060 C   0  0  0  0  0  3  0  0  0  0  0  0
  184.0590  178.6560  143.1870 N   0  0  0  0  0  0  0  0  0  0  0  0
  184.0450  178.6840  144.5220 N   0  0  0  0  0  0  0  0  0  0  0  0
  186.2250  177.7140  144.6040 C   0  0  0  0  0  0  0  0  0  0  0  0
  185.1260  178.1700  142.4980 C   0  0  0  0  0  0  0  0  0  0  0  0
  184.1310  178.6330  140.3940 O   0  0  0  0  0  0  0  0  0  0  0  0
  186.2050  177.5980  140.3060 N   0  0  0  0  0  1  0  0  0  0  0  0
  185.1100  178.1550  141.0270 C   0  0  0  0  0  0  0  0  0  0  0  0
  191.8650  175.3900  147.0010 C   0  0  0  0  0  0  0  0  0  0  0  0
  192.9580  175.0080  146.4000 C   0  0  0  0  0  3  0  0  0  0  0  0
  190.7660  175.7750  147.5930 C   0  0  0  0  0  3  0  0  0  0  0  0
  193.2070  176.2420  144.2660 C   0  0  2  0  0  3  0  0  0  0  0  0
  194.6470  174.6230  143.2630 O   0  0  0  0  0  0  0  0  0  0  0  0
  192.2930  175.1330  142.3000 O   0  0  0  0  0  1  0  0  0  0  0  0
  194.3420  175.9990  143.2890 C   0  0  1  0  0  3  0  0  0  0  0  0
  193.0060  174.8900  144.9130 C   0  0  1  0  0  3  0  0  0  0  0  0
  192.9380  176.2890  142.7600 C   0  0  2  0  0  3  0  0  0  0  0  0
  194.2310  174.1170  144.5020 C   0  0  0  0  0  2  0  0  0  0  0  0
  2  5  1  0  0  0  0
  3  2  2  0  0  0  0
  3  4  1  0  0  0  0
  4  6  2  0  0  0  0
  5  1  2  0  0  0  0
  6  1  1  0  0  0  0
  6 18  1  0  0  0  0
  8 11  2  0  0  0  0
  9 10  1  0  0  0  0
 10  7  2  0  0  0  0
 11  7  1  0  0  0  0
 11  2  1  0  0  0  0
 12  9  2  0  0  0  0
 12  8  1  0  0  0  0
 13 15  2  0  0  0  0
 14 15  1  0  0  0  0
 15 12  1  0  0  0  0
 16 18  2  0  0  0  0
 17 16  2  0  0  0  0
 19 23  1  0  0  0  0
 20 22  1  0  0  0  0
 20 25  1  0  0  0  0
 21 24  1  0  0  0  0
 22 19  1  0  0  0  0
 23 17  1  0  0  0  0
 24 22  1  0  0  0  0
 24 19  1  0  0  0  0
 25 23  1  0  0  0  0
M  END
>  <MODEL>
3

>  <REMARK>
 VINA RESULT:      -7.3      0.764      1.532
  Name = 
  4 active torsions:
  status: ('A' for Active; 'I' for Inactive)
    1  A    between atoms: C_5  and  C_24
    2  A    between atoms: C_9  and  C_13
    3  A    between atoms: C_19  and  C_20
    4  A    between atoms: C_23  and  C_25
                            x       y       z     vdW  Elec       q    Type
                         _______ _______ _______ _____ _____    ______ ____

>  <TORSDO>
F 4

$$$$
=
 OpenBabel11062420173D

 25 28  0  0  1  0  0  0  0  0999 V2000
  189.0020  175.0140  147.1370 C   0  0  0  0  0  3  0  0  0  0  0  0
  190.9890  175.8680  146.0230 C   0  0  0  0  0  0  0  0  0  0  0  0
  190.2900  177.0500  145.7250 C   0  0  0  0  0  3  0  0  0  0  0  0
  188.9620  177.2120  146.1300 C   0  0  0  0  0  3  0  0  0  0  0  0
  190.3290  174.8520  146.7340 C   0  0  0  0  0  3  0  0  0  0  0  0
  188.3110  176.1980  146.8370 C   0  0  0  0  0  0  0  0  0  0  0  0
  193.0910  176.7360  144.9650 C   0  0  0  0  0  3  0  0  0  0  0  0
  193.0710  174.4890  145.8080 C   0  0  0  0  0  3  0  0  0  0  0  0
  195.0150  175.4000  144.7900 N   0  0  0  0  0  0  0  0  0  0  0  0
  194.3810  176.5570  144.5820 N   0  0  0  0  0  0  0  0  0  0  0  0
  192.3970  175.6960  145.5940 C   0  0  0  0  0  0  0  0  0  0  0  0
  194.3980  174.3500  145.3950 C   0  0  0  0  0  0  0  0  0  0  0  0
  196.3480  173.1030  145.9170 O   0  0  0  0  0  0  0  0  0  0  0  0
  194.4530  171.8430  145.4720 N   0  0  0  0  0  1  0  0  0  0  0  0
  195.1260  173.0910  145.6090 C   0  0  0  0  0  0  0  0  0  0  0  0
  186.0220  176.9460  146.4590 C   0  0  0  0  0  0  0  0  0  0  0  0
  185.1380  177.4880  145.6660 C   0  0  0  0  0  3  0  0  0  0  0  0
  186.9130  176.4040  147.2460 C   0  0  0  0  0  3  0  0  0  0  0  0
  185.7740  176.9930  143.3230 C   0  0  2  0  0  3  0  0  0  0  0  0
  184.5040  178.7850  142.3860 O   0  0  0  0  0  0  0  0  0  0  0  0
  187.0910  178.7110  142.2080 O   0  0  0  0  0  1  0  0  0  0  0  0
  184.9880  177.4870  142.1230 C   0  0  1  0  0  3  0  0  0  0  0  0
  185.5510  178.0730  144.3570 C   0  0  1  0  0  3  0  0  0  0  0  0
  186.5150  177.4420  142.0620 C   0  0  2  0  0  3  0  0  0  0  0  0
  184.4210  178.8840  143.7820 C   0  0  0  0  0  2  0  0  0  0  0  0
  2  5  1  0  0  0  0
  3  2  2  0  0  0  0
  3  4  1  0  0  0  0
  4  6  2  0  0  0  0
  5  1  2  0  0  0  0
  6  1  1  0  0  0  0
  6 18  1  0  0  0  0
  7 11  1  0  0  0  0
  9 12  2  0  0  0  0
 10  9  1  0  0  0  0
 10  7  2  0  0  0  0
 11  8  2  0  0  0  0
 11  2  1  0  0  0  0
 12 15  1  0  0  0  0
 12  8  1  0  0  0  0
 14 15  1  0  0  0  0
 15 13  2  0  0  0  0
 16 18  2  0  0  0  0
 17 16  2  0  0  0  0
 19 23  1  0  0  0  0
 20 25  1  0  0  0  0
 22 20  1  0  0  0  0
 22 19  1  0  0  0  0
 23 17  1  0  0  0  0
 24 22  1  0  0  0  0
 24 21  1  0  0  0  0
 24 19  1  0  0  0  0
 25 23  1  0  0  0  0
M  END
>  <MODEL>
4

>  <REMARK>
 VINA RESULT:      -7.3      4.031      8.022
  Name = 
  4 active torsions:
  status: ('A' for Active; 'I' for Inactive)
    1  A    between atoms: C_5  and  C_24
    2  A    between atoms: C_9  and  C_13
    3  A    between atoms: C_19  and  C_20
    4  A    between atoms: C_23  and  C_25
                            x       y       z     vdW  Elec       q    Type
                         _______ _______ _______ _____ _____    ______ ____

>  <TORSDO>
F 4

$$$$
=
 OpenBabel11062420173D

 25 28  0  0  1  0  0  0  0  0999 V2000
  189.2830  175.2920  147.2860 C   0  0  0  0  0  3  0  0  0  0  0  0
  191.1530  176.1570  145.9920 C   0  0  0  0  0  0  0  0  0  0  0  0
  190.3120  177.1640  145.4880 C   0  0  0  0  0  3  0  0  0  0  0  0
  188.9730  177.2340  145.8800 C   0  0  0  0  0  3  0  0  0  0  0  0
  190.6230  175.2220  146.8960 C   0  0  0  0  0  3  0  0  0  0  0  0
  188.4500  176.3010  146.7790 C   0  0  0  0  0  0  0  0  0  0  0  0
  193.5980  175.9930  146.5270 C   0  0  0  0  0  3  0  0  0  0  0  0
  192.9290  176.0980  144.2240 C   0  0  0  0  0  3  0  0  0  0  0  0
  195.2220  175.9420  144.8310 N   0  0  0  0  0  0  0  0  0  0  0  0
  194.8930  175.9250  146.1250 N   0  0  0  0  0  0  0  0  0  0  0  0
  192.5740  176.0820  145.5770 C   0  0  0  0  0  0  0  0  0  0  0  0
  194.2750  176.0270  143.8580 C   0  0  0  0  0  0  0  0  0  0  0  0
  195.7840  176.5210  142.0950 O   0  0  0  0  0  0  0  0  0  0  0  0
  193.7990  175.5110  141.4490 N   0  0  0  0  0  1  0  0  0  0  0  0
  194.6720  176.0420  142.4420 C   0  0  0  0  0  0  0  0  0  0  0  0
  186.1210  176.8940  146.3730 C   0  0  0  0  0  0  0  0  0  0  0  0
  185.2150  177.3830  145.5710 C   0  0  0  0  0  3  0  0  0  0  0  0
  187.0360  176.4070  147.1690 C   0  0  0  0  0  3  0  0  0  0  0  0
  186.2840  177.0060  143.3680 C   0  0  2  0  0  3  0  0  0  0  0  0
  184.6720  178.2710  142.1420 O   0  0  0  0  0  0  0  0  0  0  0  0
  187.1590  178.9970  142.2730 O   0  0  0  0  0  1  0  0  0  0  0  0
  185.5570  177.1780  142.0470 C   0  0  1  0  0  3  0  0  0  0  0  0
  185.6060  178.0080  144.2750 C   0  0  1  0  0  3  0  0  0  0  0  0
  187.0190  177.6070  142.1680 C   0  0  2  0  0  3  0  0  0  0  0  0
  184.3720  178.4020  143.5050 C   0  0  0  0  0  2  0  0  0  0  0  0
  2  5  2  0  0  0  0
  3  4  2  0  0  0  0
  3  2  1  0  0  0  0
  4  6  1  0  0  0  0
  5  1  1  0  0  0  0
  6 18  1  0  0  0  0
  6  1  2  0  0  0  0
  8 11  1  0  0  0  0
  9 10  2  0  0  0  0
 10  7  1  0  0  0  0
 11  2  1  0  0  0  0
 11  7  2  0  0  0  0
 12  8  2  0  0  0  0
 12  9  1  0  0  0  0
 13 15  2  0  0  0  0
 14 15  1  0  0  0  0
 15 12  1  0  0  0  0
 16 18  2  0  0  0  0
 17 16  2  0  0  0  0
 19 23  1  0  0  0  0
 20 25  1  0  0  0  0
 22 20  1  0  0  0  0
 22 24  1  0  0  0  0
 22 19  1  0  0  0  0
 23 17  1  0  0  0  0
 24 21  1  0  0  0  0
 24 19  1  0  0  0  0
 25 23  1  0  0  0  0
M  END
>  <MODEL>
5

>  <REMARK>
 VINA RESULT:      -7.3      3.688      7.474
  Name = 
  4 active torsions:
  status: ('A' for Active; 'I' for Inactive)
    1  A    between atoms: C_5  and  C_24
    2  A    between atoms: C_9  and  C_13
    3  A    between atoms: C_19  and  C_20
    4  A    between atoms: C_23  and  C_25
                            x       y       z     vdW  Elec       q    Type
                         _______ _______ _______ _____ _____    ______ ____

>  <TORSDO>
F 4

$$$$
=
 OpenBabel11062420173D

 25 28  0  0  1  0  0  0  0  0999 V2000
  189.8880  177.5120  145.0180 C   0  0  0  0  0  3  0  0  0  0  0  0
  187.4600  177.6540  145.0560 C   0  0  0  0  0  0  0  0  0  0  0  0
  187.4660  177.0940  146.3440 C   0  0  0  0  0  3  0  0  0  0  0  0
  188.6710  176.7480  146.9630 C   0  0  0  0  0  3  0  0  0  0  0  0
  188.6840  177.8590  144.4000 C   0  0  0  0  0  3  0  0  0  0  0  0
  189.8870  176.9550  146.3060 C   0  0  0  0  0  0  0  0  0  0  0  0
  185.0910  178.4740  145.1500 C   0  0  0  0  0  3  0  0  0  0  0  0
  186.0340  177.9250  143.0120 C   0  0  0  0  0  3  0  0  0  0  0  0
  183.7990  178.7100  143.2020 N   0  0  0  0  0  0  0  0  0  0  0  0
  183.9310  178.8060  144.5270 N   0  0  0  0  0  0  0  0  0  0  0  0
  186.1820  178.0210  144.3990 C   0  0  0  0  0  0  0  0  0  0  0  0
  184.8200  178.2760  142.4160 C   0  0  0  0  0  0  0  0  0  0  0  0
  185.6410  178.0930  140.1970 O   0  0  0  0  0  0  0  0  0  0  0  0
  183.3330  178.1930  140.3970 N   0  0  0  0  0  1  0  0  0  0  0  0
  184.6420  178.1830  140.9590 C   0  0  0  0  0  0  0  0  0  0  0  0
  191.8920  175.5970  146.5790 C   0  0  0  0  0  0  0  0  0  0  0  0
  192.6430  174.6140  146.1610 C   0  0  0  0  0  3  0  0  0  0  0  0
  191.1340  176.5780  146.9890 C   0  0  0  0  0  3  0  0  0  0  0  0
  190.6860  173.5110  145.1180 C   0  0  2  0  0  3  0  0  0  0  0  0
  191.3690  173.9660  142.8750 O   0  0  0  0  0  0  0  0  0  0  0  0
  191.1830  171.5400  143.7770 O   0  0  0  0  0  1  0  0  0  0  0  0
  190.2360  173.7810  143.6940 C   0  0  1  0  0  3  0  0  0  0  0  0
  192.1820  173.7210  145.0590 C   0  0  1  0  0  3  0  0  0  0  0  0
  190.1550  172.3620  144.2570 C   0  0  2  0  0  3  0  0  0  0  0  0
  192.3900  174.4000  143.7310 C   0  0  0  0  0  2  0  0  0  0  0  0
  1  6  1  0  0  0  0
  2  3  2  0  0  0  0
  3  4  1  0  0  0  0
  5  1  2  0  0  0  0
  5  2  1  0  0  0  0
  6  4  2  0  0  0  0
  6 18  1  0  0  0  0
  8 11  1  0  0  0  0
  9 10  2  0  0  0  0
 10  7  1  0  0  0  0
 11  2  1  0  0  0  0
 11  7  2  0  0  0  0
 12  8  2  0  0  0  0
 12  9  1  0  0  0  0
 13 15  2  0  0  0  0
 14 15  1  0  0  0  0
 15 12  1  0  0  0  0
 16 18  2  0  0  0  0
 17 16  2  0  0  0  0
 20 22  1  0  0  0  0
 20 25  1  0  0  0  0
 21 24  1  0  0  0  0
 22 24  1  0  0  0  0
 22 19  1  0  0  0  0
 23 19  1  0  0  0  0
 23 17  1  0  0  0  0
 24 19  1  0  0  0  0
 25 23  1  0  0  0  0
M  END
>  <MODEL>
6

>  <REMARK>
 VINA RESULT:      -7.3      1.478      1.642
  Name = 
  4 active torsions:
  status: ('A' for Active; 'I' for Inactive)
    1  A    between atoms: C_5  and  C_24
    2  A    between atoms: C_9  and  C_13
    3  A    between atoms: C_19  and  C_20
    4  A    between atoms: C_23  and  C_25
                            x       y       z     vdW  Elec       q    Type
                         _______ _______ _______ _____ _____    ______ ____

>  <TORSDO>
F 4

$$$$
=
 OpenBabel11062420173D

 25 28  0  0  1  0  0  0  0  0999 V2000
  186.7370  176.9860  146.0280 C   0  0  0  0  0  3  0  0  0  0  0  0
  186.4900  177.5910  143.6840 C   0  0  0  0  0  0  0  0  0  0  0  0
  187.8820  177.7550  143.6000 C   0  0  0  0  0  3  0  0  0  0  0  0
  188.6930  177.5360  144.7170 C   0  0  0  0  0  3  0  0  0  0  0  0
  185.9260  177.2040  144.9110 C   0  0  0  0  0  3  0  0  0  0  0  0
  188.1280  177.1520  145.9350 C   0  0  0  0  0  0  0  0  0  0  0  0
  186.1630  177.7920  141.2050 C   0  0  0  0  0  3  0  0  0  0  0  0
  184.2610  178.0740  142.6420 C   0  0  0  0  0  3  0  0  0  0  0  0
  184.0510  178.2470  140.2820 N   0  0  0  0  0  0  0  0  0  0  0  0
  185.3560  178.0050  140.1340 N   0  0  0  0  0  0  0  0  0  0  0  0
  185.6290  177.8220  142.4990 C   0  0  0  0  0  0  0  0  0  0  0  0
  183.4710  178.2900  141.5110 C   0  0  0  0  0  0  0  0  0  0  0  0
  181.5670  179.0740  142.6890 O   0  0  0  0  0  0  0  0  0  0  0  0
  181.1460  178.2350  140.5690 N   0  0  0  0  0  1  0  0  0  0  0  0
  182.0310  178.5570  141.6380 C   0  0  0  0  0  0  0  0  0  0  0  0
  190.0390  176.1240  147.0450 C   0  0  0  0  0  0  0  0  0  0  0  0
  191.0630  175.3160  146.9910 C   0  0  0  0  0  3  0  0  0  0  0  0
  189.0120  176.9310  147.0890 C   0  0  0  0  0  3  0  0  0  0  0  0
  190.0000  173.7880  145.3550 C   0  0  2  0  0  3  0  0  0  0  0  0
  191.1610  174.6760  143.4660 O   0  0  0  0  0  0  0  0  0  0  0  0
  191.5050  172.2270  144.2480 O   0  0  0  0  0  1  0  0  0  0  0  0
  189.9550  174.0630  143.8630 C   0  0  1  0  0  3  0  0  0  0  0  0
  191.2850  174.4520  145.7950 C   0  0  1  0  0  3  0  0  0  0  0  0
  190.1700  172.6350  144.3630 C   0  0  2  0  0  3  0  0  0  0  0  0
  191.6640  175.3050  144.6130 C   0  0  0  0  0  2  0  0  0  0  0  0
  2  5  1  0  0  0  0
  3  2  2  0  0  0  0
  3  4  1  0  0  0  0
  4  6  2  0  0  0  0
  5  1  2  0  0  0  0
  6  1  1  0  0  0  0
  6 18  1  0  0  0  0
  7 11  1  0  0  0  0
  9 12  2  0  0  0  0
 10  9  1  0  0  0  0
 10  7  2  0  0  0  0
 11  8  2  0  0  0  0
 11  2  1  0  0  0  0
 12 15  1  0  0  0  0
 12  8  1  0  0  0  0
 14 15  1  0  0  0  0
 15 13  2  0  0  0  0
 16 18  2  0  0  0  0
 17 16  2  0  0  0  0
 19 23  1  0  0  0  0
 20 22  1  0  0  0  0
 20 25  1  0  0  0  0
 21 24  1  0  0  0  0
 22 24  1  0  0  0  0
 22 19  1  0  0  0  0
 23 17  1  0  0  0  0
 24 19  1  0  0  0  0
 25 23  1  0  0  0  0
M  END
>  <MODEL>
7

>  <REMARK>
 VINA RESULT:      -7.2      1.946      2.910
  Name = 
  4 active torsions:
  status: ('A' for Active; 'I' for Inactive)
    1  A    between atoms: C_5  and  C_24
    2  A    between atoms: C_9  and  C_13
    3  A    between atoms: C_19  and  C_20
    4  A    between atoms: C_23  and  C_25
                            x       y       z     vdW  Elec       q    Type
                         _______ _______ _______ _____ _____    ______ ____

>  <TORSDO>
F 4

$$$$
=
 OpenBabel11062420173D

 25 28  0  0  1  0  0  0  0  0999 V2000
  190.3920  176.9360  145.6890 C   0  0  0  0  0  3  0  0  0  0  0  0
  188.0080  176.8760  146.1710 C   0  0  0  0  0  0  0  0  0  0  0  0
  188.2170  175.7340  146.9620 C   0  0  0  0  0  3  0  0  0  0  0  0
  189.4990  175.1990  147.1150 C   0  0  0  0  0  3  0  0  0  0  0  0
  189.1110  177.4710  145.5370 C   0  0  0  0  0  3  0  0  0  0  0  0
  190.5930  175.7950  146.4820 C   0  0  0  0  0  0  0  0  0  0  0  0
  185.8900  177.8240  147.1220 C   0  0  0  0  0  3  0  0  0  0  0  0
  186.0870  177.6130  144.7390 C   0  0  0  0  0  3  0  0  0  0  0  0
  184.1200  178.5000  145.7340 N   0  0  0  0  0  0  0  0  0  0  0  0
  184.6460  178.3430  146.9500 N   0  0  0  0  0  0  0  0  0  0  0  0
  186.6480  177.4430  146.0090 C   0  0  0  0  0  0  0  0  0  0  0  0
  184.8040  178.1490  144.6120 C   0  0  0  0  0  0  0  0  0  0  0  0
  183.0740  178.9030  143.1730 O   0  0  0  0  0  0  0  0  0  0  0  0
  184.8690  177.8810  142.1180 N   0  0  0  0  0  1  0  0  0  0  0  0
  184.1940  178.3370  143.2870 C   0  0  0  0  0  0  0  0  0  0  0  0
  192.4180  174.3060  145.8540 C   0  0  0  0  0  0  0  0  0  0  0  0
  192.8990  173.4090  145.0370 C   0  0  0  0  0  3  0  0  0  0  0  0
  191.9280  175.2050  146.6660 C   0  0  0  0  0  3  0  0  0  0  0  0
  190.6020  172.7250  144.4100 C   0  0  2  0  0  3  0  0  0  0  0  0
  190.7260  173.6080  142.1940 O   0  0  0  0  0  0  0  0  0  0  0  0
  190.4490  171.0660  142.6340 O   0  0  0  0  0  1  0  0  0  0  0  0
  189.8350  173.3380  143.2530 C   0  0  1  0  0  3  0  0  0  0  0  0
  192.0430  172.8220  143.9650 C   0  0  1  0  0  3  0  0  0  0  0  0
  189.7090  171.8410  143.5350 C   0  0  2  0  0  3  0  0  0  0  0  0
  191.9870  173.7590  142.7870 C   0  0  0  0  0  2  0  0  0  0  0  0
  1  6  1  0  0  0  0
  2  3  2  0  0  0  0
  3  4  1  0  0  0  0
  5  1  2  0  0  0  0
  5  2  1  0  0  0  0
  6 18  1  0  0  0  0
  6  4  2  0  0  0  0
  8 11  1  0  0  0  0
  9 10  2  0  0  0  0
 10  7  1  0  0  0  0
 11  2  1  0  0  0  0
 11  7  2  0  0  0  0
 12  8  2  0  0  0  0
 12  9  1  0  0  0  0
 13 15  2  0  0  0  0
 14 15  1  0  0  0  0
 15 12  1  0  0  0  0
 16 18  2  0  0  0  0
 17 16  2  0  0  0  0
 20 25  1  0  0  0  0
 20 22  1  0  0  0  0
 21 24  1  0  0  0  0
 22 24  1  0  0  0  0
 22 19  1  0  0  0  0
 23 19  1  0  0  0  0
 23 17  1  0  0  0  0
 24 19  1  0  0  0  0
 25 23  1  0  0  0  0
M  END
>  <MODEL>
8

>  <REMARK>
 VINA RESULT:      -7.2      1.904      2.368
  Name = 
  4 active torsions:
  status: ('A' for Active; 'I' for Inactive)
    1  A    between atoms: C_5  and  C_24
    2  A    between atoms: C_9  and  C_13
    3  A    between atoms: C_19  and  C_20
    4  A    between atoms: C_23  and  C_25
                            x       y       z     vdW  Elec       q    Type
                         _______ _______ _______ _____ _____    ______ ____

>  <TORSDO>
F 4

$$$$
=
 OpenBabel11062420173D

 25 28  0  0  1  0  0  0  0  0999 V2000
  187.6160  176.8100  146.1210 C   0  0  0  0  0  3  0  0  0  0  0  0
  187.5510  177.4220  143.7670 C   0  0  0  0  0  0  0  0  0  0  0  0
  188.9260  177.7050  143.8230 C   0  0  0  0  0  3  0  0  0  0  0  0
  189.6380  177.5410  145.0140 C   0  0  0  0  0  3  0  0  0  0  0  0
  186.9040  176.9720  144.9300 C   0  0  0  0  0  3  0  0  0  0  0  0
  188.9900  177.0930  146.1680 C   0  0  0  0  0  0  0  0  0  0  0  0
  187.4400  177.5180  141.2630 C   0  0  0  0  0  3  0  0  0  0  0  0
  185.4190  177.8410  142.5170 C   0  0  0  0  0  3  0  0  0  0  0  0
  185.4140  177.9140  140.1420 N   0  0  0  0  0  0  0  0  0  0  0  0
  186.7280  177.6790  140.1180 N   0  0  0  0  0  0  0  0  0  0  0  0
  186.7960  177.5960  142.5040 C   0  0  0  0  0  0  0  0  0  0  0  0
  184.7290  178.0020  141.3140 C   0  0  0  0  0  0  0  0  0  0  0  0
  182.6150  178.1260  140.2430 O   0  0  0  0  0  0  0  0  0  0  0  0
  182.6190  178.6660  142.4990 N   0  0  0  0  0  1  0  0  0  0  0  0
  183.2810  178.2610  141.3040 C   0  0  0  0  0  0  0  0  0  0  0  0
  191.0460  176.6460  147.3980 C   0  0  0  0  0  0  0  0  0  0  0  0
  192.3200  176.3600  147.3820 C   0  0  0  0  0  3  0  0  0  0  0  0
  189.7720  176.9320  147.4040 C   0  0  0  0  0  3  0  0  0  0  0  0
  194.4620  176.4250  146.1400 C   0  0  2  0  0  3  0  0  0  0  0  0
  194.2360  174.2280  145.2310 O   0  0  0  0  0  0  0  0  0  0  0  0
  194.2720  176.3320  143.7140 O   0  0  0  0  0  1  0  0  0  0  0  0
  195.1840  175.1810  145.6550 C   0  0  1  0  0  3  0  0  0  0  0  0
  193.0060  176.0220  146.1010 C   0  0  1  0  0  3  0  0  0  0  0  0
  195.1710  176.4370  144.7830 C   0  0  2  0  0  3  0  0  0  0  0  0
  193.0570  174.5270  145.9280 C   0  0  0  0  0  2  0  0  0  0  0  0
  1  6  1  0  0  0  0
  2  3  2  0  0  0  0
  2  5  1  0  0  0  0
  3  4  1  0  0  0  0
  4  6  2  0  0  0  0
  5  1  2  0  0  0  0
  6 18  1  0  0  0  0
  7 11  1  0  0  0  0
  9 12  2  0  0  0  0
 10  9  1  0  0  0  0
 10  7  2  0  0  0  0
 11  8  2  0  0  0  0
 11  2  1  0  0  0  0
 12  8  1  0  0  0  0
 13 15  2  0  0  0  0
 15 12  1  0  0  0  0
 15 14  1  0  0  0  0
 16 18  2  0  0  0  0
 17 16  2  0  0  0  0
 20 22  1  0  0  0  0
 20 25  1  0  0  0  0
 21 24  1  0  0  0  0
 22 19  1  0  0  0  0
 23 19  1  0  0  0  0
 23 17  1  0  0  0  0
 24 22  1  0  0  0  0
 24 19  1  0  0  0  0
 25 23  1  0  0  0  0
M  END
>  <MODEL>
9

>  <REMARK>
 VINA RESULT:      -7.1      1.627      2.903
  Name = 
  4 active torsions:
  status: ('A' for Active; 'I' for Inactive)
    1  A    between atoms: C_5  and  C_24
    2  A    between atoms: C_9  and  C_13
    3  A    between atoms: C_19  and  C_20
    4  A    between atoms: C_23  and  C_25
                            x       y       z     vdW  Elec       q    Type
                         _______ _______ _______ _____ _____    ______ ____

>  <TORSDO>
F 4

$$$$
