=
 OpenBabel11062422483D

 67 74  0  0  1  0  0  0  0  0999 V2000
  189.7140  171.3220  138.0980 C   0  0  1  0  0  3  0  0  0  0  0  0
  190.8620  171.4830  140.3030 O   0  0  0  0  0  0  0  0  0  0  0  0
  190.4890  174.0640  139.8190 O   0  0  0  0  0  0  0  0  0  0  0  0
  190.0390  173.2190  136.3930 C   0  0  0  0  0  2  0  0  0  0  0  0
  190.3080  172.7350  137.8210 C   0  0  1  0  0  3  0  0  0  0  0  0
  190.1560  172.0750  135.3930 C   0  0  0  0  0  2  0  0  0  0  0  0
  189.2280  171.0780  135.7320 O   0  0  0  0  0  0  0  0  0  0  0  0
  189.7910  173.6310  140.9530 C   0  0  1  0  0  3  0  0  0  0  0  0
  189.7660  170.4220  136.8450 C   0  0  0  0  0  2  0  0  0  0  0  0
  190.0710  172.1870  141.2060 C   0  0  0  0  0  0  0  0  0  0  0  0
  190.2790  170.5970  139.3580 C   0  0  2  0  0  3  0  0  0  0  0  0
  189.6570  173.7680  138.7340 C   0  0  0  0  0  2  0  0  0  0  0  0
  189.5170  171.5910  142.1700 O   0  0  0  0  0  0  0  0  0  0  0  0
  191.2420  169.4830  139.0760 C   0  0  0  0  0  3  0  0  0  0  0  0
  192.4560  169.7660  138.7790 N   0  0  0  0  0  0  0  0  0  0  0  0
  193.3890  168.7200  138.4650 C   0  0  0  0  0  2  0  0  0  0  0  0
  193.7340  170.4600  136.7450 C   0  0  0  0  0  2  0  0  0  0  0  0
  194.7870  171.3900  136.9080 O   0  0  0  0  0  0  0  0  0  0  0  0
  194.1780  169.0800  137.2080 C   0  0  1  0  0  3  0  0  0  0  0  0
  195.6730  169.2610  137.4190 C   0  0  0  0  0  0  0  0  0  0  0  0
  196.2880  168.3800  138.5090 C   0  0  0  0  0  1  0  0  0  0  0  0
  196.3460  168.8830  136.1010 C   0  0  0  0  0  1  0  0  0  0  0  0
  195.7730  170.7730  137.7110 C   0  0  1  0  0  0  0  0  0  0  0  0
  197.1540  172.4400  136.3440 C   0  0  0  0  0  1  0  0  0  0  0  0
  197.1780  171.3100  137.3620 C   0  0  0  0  0  2  0  0  0  0  0  0
  195.4590  171.0490  139.1980 C   0  0  0  0  0  2  0  0  0  0  0  0
  195.3810  172.5270  139.5600 C   0  0  0  0  0  2  0  0  0  0  0  0
  194.1540  172.7870  140.4130 C   0  0  0  0  0  2  0  0  0  0  0  0
  194.5450  173.0610  141.8520 C   0  0  0  0  0  2  0  0  0  0  0  0
  193.4480  172.5500  142.7680 C   0  0  0  0  0  2  0  0  0  0  0  0
  193.8260  171.2010  143.3460 C   0  0  1  0  0  3  0  0  0  0  0  0
  193.2830  170.1090  142.4860 C   0  0  0  0  0  3  0  0  0  0  0  0
  194.0290  169.2870  141.9810 O   0  0  0  0  0  0  0  0  0  0  0  0
  195.3410  171.0900  143.3940 C   0  0  0  0  0  2  0  0  0  0  0  0
  194.8370  170.6940  145.8220 C   0  0  0  0  0  1  0  0  0  0  0  0
  195.8250  170.4580  144.6960 C   0  0  0  0  0  3  0  0  0  0  0  0
  197.1510  171.0760  145.0760 C   0  0  0  0  0  1  0  0  0  0  0  0
  190.1750  174.4870  142.1480 C   0  0  0  0  0  2  0  0  0  0  0  0
  189.1490  175.5930  142.3050 C   0  0  1  0  0  3  0  0  0  0  0  0
  188.8980  176.2170  141.0750 O   0  0  0  0  0  0  0  0  0  0  0  0
  186.8720  176.0970  142.3340 C   0  0  2  0  0  3  0  0  0  0  0  0
  187.8440  175.0680  142.8360 C   0  0  0  0  0  2  0  0  0  0  0  0
  187.5770  176.6980  141.1320 C   0  0  0  0  0  2  0  0  0  0  0  0
  186.5620  177.1910  143.3800 C   0  0  2  0  0  3  0  0  0  0  0  0
  187.0200  177.8480  145.6570 C   0  0  0  0  0  2  0  0  0  0  0  0
  187.6760  175.8210  147.5950 C   0  0  0  0  0  1  0  0  0  0  0  0
  190.2170  175.7130  145.7300 N   0  0  0  0  0  0  0  0  0  0  0  0
  186.8560  176.7190  144.7610 N   0  0  0  0  0  0  0  0  0  0  0  0
  188.6160  176.5500  146.6320 C   0  0  2  0  0  0  0  0  0  0  0  0
  188.7800  175.6990  145.5590 C   0  0  1  0  0  3  0  0  0  0  0  0
  190.9870  176.9440  147.8340 N   0  0  0  0  0  2  0  0  0  0  0  0
  190.0860  176.4270  146.8560 C   0  0  0  0  0  0  0  0  0  0  0  0
  188.2190  177.0840  145.2320 C   0  0  2  0  0  0  0  0  0  0  0  0
  192.3600  176.6760  147.7620 N   0  0  0  0  0  2  0  0  0  0  0  0
  192.5290  175.4880  146.9470 C   0  0  0  0  0  2  0  0  0  0  0  0
  193.4560  176.0300  144.7440 C   0  0  0  0  0  3  0  0  0  0  0  0
  194.5180  174.2490  146.1270 C   0  0  0  0  0  2  0  0  0  0  0  0
  196.2560  174.7540  144.3650 C   0  0  0  0  0  2  0  0  0  0  0  0
  196.0020  174.4110  145.8260 C   0  0  0  0  0  2  0  0  0  0  0  0
  194.3790  176.3000  143.8100 C   0  0  0  0  0  3  0  0  0  0  0  0
  193.8080  175.5990  146.1380 C   0  0  2  0  0  3  0  0  0  0  0  0
  195.8550  176.1920  144.0610 C   0  0  0  0  0  2  0  0  0  0  0  0
  185.2360  177.9690  143.1470 C   0  0  1  0  0  3  0  0  0  0  0  0
  185.5030  179.3340  143.0280 O   0  0  0  0  0  1  0  0  0  0  0  0
  184.4640  177.5120  141.9120 C   0  0  0  0  0  2  0  0  0  0  0  0
  182.9380  178.3340  140.5370 C   0  0  0  0  0  1  0  0  0  0  0  0
  183.1870  178.0820  141.8880 O   0  0  0  0  0  0  0  0  0  0  0  0
  1  9  1  6  0  0  0
  1 11  1  0  0  0  0
  2 10  1  0  0  0  0
  3  8  1  0  0  0  0
  5  4  1  6  0  0  0
  5  1  1  0  0  0  0
  5 12  1  0  0  0  0
  6  7  1  0  0  0  0
  6  4  1  0  0  0  0
  7  9  1  0  0  0  0
  8 10  1  0  0  0  0
  8 38  1  1  0  0  0
 10 13  2  0  0  0  0
 11 14  1  6  0  0  0
 11  2  1  0  0  0  0
 12  3  1  0  0  0  0
 15 14  2  0  0  0  0
 16 15  1  0  0  0  0
 17 18  1  0  0  0  0
 17 19  1  0  0  0  0
 18 23  1  0  0  0  0
 19 20  1  0  0  0  0
 19 16  1  1  0  0  0
 20 23  1  0  0  0  0
 20 21  1  0  0  0  0
 22 20  1  0  0  0  0
 23 25  1  6  0  0  0
 23 26  1  0  0  0  0
 24 25  1  0  0  0  0
 26 27  1  0  0  0  0
 27 28  1  0  0  0  0
 28 29  1  0  0  0  0
 29 30  1  0  0  0  0
 30 31  1  0  0  0  0
 31 32  1  6  0  0  0
 31 34  1  0  0  0  0
 33 32  2  0  0  0  0
 34 36  1  0  0  0  0
 36 37  1  0  0  0  0
 36 35  1  0  0  0  0
 39 38  1  6  0  0  0
 39 42  1  0  0  0  0
 40 43  1  0  0  0  0
 40 39  1  0  0  0  0
 41 42  1  0  0  0  0
 41 44  1  1  0  0  0
 43 41  1  0  0  0  0
 44 63  1  1  0  0  0
 44 48  1  0  0  0  0
 47 52  2  0  0  0  0
 48 53  1  0  0  0  0
 48 45  1  0  0  0  0
 49 52  1  0  0  0  0
 49 46  1  1  0  0  0
 50 47  1  6  0  0  0
 50 49  1  0  0  0  0
 52 51  1  0  0  0  0
 53 50  1  0  0  0  0
 53 45  1  6  0  0  0
 53 49  1  0  0  0  0
 54 51  1  0  0  0  0
 55 54  1  0  0  0  0
 56 61  1  0  0  0  0
 57 61  1  0  0  0  0
 58 59  1  0  0  0  0
 59 57  1  0  0  0  0
 60 62  1  0  0  0  0
 60 56  2  0  0  0  0
 61 55  1  1  0  0  0
 62 58  1  0  0  0  0
 63 64  1  6  0  0  0
 65 63  1  0  0  0  0
 66 67  1  0  0  0  0
 67 65  1  0  0  0  0
M  END
>  <MODEL>
1

>  <REMARK>
 VINA RESULT:      -5.4      0.000      0.000
  Name = 
  23 active torsions:
  status: ('A' for Active; 'I' for Inactive)
    1  A    between atoms: C_1  and  C_47
    2  A    between atoms: C_4  and  C_61
    3  A    between atoms: C_12  and  C_56
    4  A    between atoms: C_19  and  C_52
    5  A    between atoms: N_21  and  C_52
    6  A    between atoms: C_22  and  C_43
    7  A    between atoms: C_22  and  C_59
    8  A    between atoms: C_25  and  C_61
    9  A    between atoms: C_30  and  C_47
   10  A    between atoms: C_30  and  C_59
   11  A    between atoms: N_31  and  N_49
   12  A    between atoms: C_34  and  C_37
   13  A    between atoms: C_37  and  N_39
   14  A    between atoms: C_40  and  C_52
   15  A    between atoms: C_40  and  C_58
   16  A    between atoms: C_43  and  C_45
   17  A    between atoms: C_45  and  C_62
   18  A    between atoms: C_46  and  C_60
   19  A    between atoms: C_47  and  C_60
   20  A    between atoms: N_49  and  C_54
   21  A    between atoms: C_51  and  C_54
   22  A    between atoms: O_53  and  C_58
   23  A    between atoms: C_62  and  C_66
                            x       y       z     vdW  Elec       q    Type
                         _______ _______ _______ _____ _____    ______ ____

>  <TORSDO>
F 23

$$$$
=
 OpenBabel11062422483D

 67 74  0  0  1  0  0  0  0  0999 V2000
  190.7150  173.3950  142.9890 C   0  0  1  0  0  3  0  0  0  0  0  0
  191.6160  175.6940  142.6570 O   0  0  0  0  0  0  0  0  0  0  0  0
  189.3780  175.8960  141.2460 O   0  0  0  0  0  0  0  0  0  0  0  0
  189.2930  172.3430  141.1240 C   0  0  0  0  0  2  0  0  0  0  0  0
  190.0080  173.6030  141.6170 C   0  0  1  0  0  3  0  0  0  0  0  0
  190.1020  171.0900  141.4430 C   0  0  0  0  0  2  0  0  0  0  0  0
  190.2880  171.0110  142.8320 O   0  0  0  0  0  0  0  0  0  0  0  0
  189.3900  176.7600  142.3480 C   0  0  1  0  0  3  0  0  0  0  0  0
  191.2680  171.9620  143.1380 C   0  0  0  0  0  2  0  0  0  0  0  0
  190.6860  176.6400  143.0790 C   0  0  0  0  0  0  0  0  0  0  0  0
  191.7830  174.4710  143.3590 C   0  0  2  0  0  3  0  0  0  0  0  0
  188.9250  174.6690  141.7400 C   0  0  0  0  0  2  0  0  0  0  0  0
  190.8930  177.3160  144.1230 O   0  0  0  0  0  0  0  0  0  0  0  0
  193.2090  174.0260  143.2290 C   0  0  0  0  0  3  0  0  0  0  0  0
  193.9200  173.8900  144.2860 N   0  0  0  0  0  0  0  0  0  0  0  0
  195.3010  173.5050  144.1870 C   0  0  0  0  0  2  0  0  0  0  0  0
  194.2860  171.7410  145.5880 C   0  0  0  0  0  2  0  0  0  0  0  0
  194.2020  170.4230  145.0820 O   0  0  0  0  0  0  0  0  0  0  0  0
  195.6040  172.3780  145.1730 C   0  0  1  0  0  3  0  0  0  0  0  0
  196.3760  171.2050  144.5890 C   0  0  0  0  0  0  0  0  0  0  0  0
  197.3640  171.5650  143.4780 C   0  0  0  0  0  1  0  0  0  0  0  0
  197.1860  170.6060  145.7360 C   0  0  0  0  0  1  0  0  0  0  0  0
  195.2370  170.2710  144.1310 C   0  0  1  0  0  0  0  0  0  0  0  0
  196.7710  168.5580  143.0060 C   0  0  0  0  0  1  0  0  0  0  0  0
  195.7160  168.8040  144.0730 C   0  0  0  0  0  2  0  0  0  0  0  0
  194.7160  170.7080  142.7440 C   0  0  0  0  0  2  0  0  0  0  0  0
  193.8600  169.6650  142.0360 C   0  0  0  0  0  2  0  0  0  0  0  0
  193.8480  169.9310  140.5420 C   0  0  0  0  0  2  0  0  0  0  0  0
  195.2320  170.3090  140.0510 C   0  0  0  0  0  2  0  0  0  0  0  0
  195.0950  171.2360  138.8570 C   0  0  0  0  0  2  0  0  0  0  0  0
  194.2170  172.4230  139.2050 C   0  0  1  0  0  3  0  0  0  0  0  0
  195.0640  173.6300  139.4380 C   0  0  0  0  0  3  0  0  0  0  0  0
  194.5530  174.7260  139.5870 O   0  0  0  0  0  0  0  0  0  0  0  0
  193.2710  172.6940  138.0480 C   0  0  0  0  0  2  0  0  0  0  0  0
  191.2440  171.2290  137.8110 C   0  0  0  0  0  1  0  0  0  0  0  0
  191.8120  172.4860  138.4440 C   0  0  0  0  0  3  0  0  0  0  0  0
  191.0040  173.6740  137.9750 C   0  0  0  0  0  1  0  0  0  0  0  0
  189.1470  178.1860  141.8840 C   0  0  0  0  0  2  0  0  0  0  0  0
  187.6740  178.3480  141.5600 C   0  0  1  0  0  3  0  0  0  0  0  0
  187.3990  177.9060  140.2580 O   0  0  0  0  0  0  0  0  0  0  0  0
  185.5680  177.3540  141.6900 C   0  0  2  0  0  3  0  0  0  0  0  0
  186.8080  177.5690  142.5100 C   0  0  0  0  0  2  0  0  0  0  0  0
  186.0630  177.4650  140.2600 C   0  0  0  0  0  2  0  0  0  0  0  0
  184.4760  178.4110  141.9660 C   0  0  2  0  0  3  0  0  0  0  0  0
  184.4710  179.7460  143.9770 C   0  0  0  0  0  2  0  0  0  0  0  0
  183.6040  178.5500  146.4490 C   0  0  0  0  0  1  0  0  0  0  0  0
  186.2870  176.9760  145.9310 N   0  0  0  0  0  0  0  0  0  0  0  0
  184.1190  178.4580  143.4100 N   0  0  0  0  0  0  0  0  0  0  0  0
  185.0020  178.5310  145.8280 C   0  0  2  0  0  0  0  0  0  0  0  0
  185.1010  177.3190  145.1760 C   0  0  1  0  0  3  0  0  0  0  0  0
  186.8440  178.6520  147.7810 N   0  0  0  0  0  2  0  0  0  0  0  0
  186.1440  178.0800  146.6760 C   0  0  0  0  0  0  0  0  0  0  0  0
  185.3020  178.5610  144.3060 C   0  0  2  0  0  0  0  0  0  0  0  0
  187.9290  177.9870  148.3670 N   0  0  0  0  0  2  0  0  0  0  0  0
  189.1310  178.4330  147.6890 C   0  0  0  0  0  2  0  0  0  0  0  0
  189.1090  175.9940  147.4470 C   0  0  0  0  0  3  0  0  0  0  0  0
  191.2470  177.1640  147.9680 C   0  0  0  0  0  2  0  0  0  0  0  0
  191.9890  174.8670  147.2250 C   0  0  0  0  0  2  0  0  0  0  0  0
  192.2830  176.3600  147.1950 C   0  0  0  0  0  2  0  0  0  0  0  0
  189.5020  174.7750  147.0500 C   0  0  0  0  0  3  0  0  0  0  0  0
  189.9250  177.2320  147.2100 C   0  0  2  0  0  3  0  0  0  0  0  0
  190.7990  174.5240  146.3370 C   0  0  0  0  0  2  0  0  0  0  0  0
  183.3140  178.4430  140.9320 C   0  0  1  0  0  3  0  0  0  0  0  0
  183.5430  177.4960  139.9320 O   0  0  0  0  0  1  0  0  0  0  0  0
  181.9390  178.1890  141.5430 C   0  0  0  0  0  2  0  0  0  0  0  0
  179.9300  178.9660  142.0480 C   0  0  0  0  0  1  0  0  0  0  0  0
  181.1370  179.3310  141.4470 O   0  0  0  0  0  0  0  0  0  0  0  0
  1  9  1  6  0  0  0
  1 11  1  0  0  0  0
  2 10  1  0  0  0  0
  2 11  1  0  0  0  0
  3 12  1  0  0  0  0
  3  8  1  0  0  0  0
  4  6  1  0  0  0  0
  5  4  1  1  0  0  0
  5 12  1  0  0  0  0
  5  1  1  0  0  0  0
  6  7  1  0  0  0  0
  7  9  1  0  0  0  0
  8 38  1  6  0  0  0
  8 10  1  0  0  0  0
 10 13  2  0  0  0  0
 11 14  1  6  0  0  0
 14 15  2  0  0  0  0
 16 15  1  0  0  0  0
 18 17  1  0  0  0  0
 19 16  1  6  0  0  0
 19 17  1  0  0  0  0
 20 19  1  0  0  0  0
 20 22  1  0  0  0  0
 21 20  1  0  0  0  0
 23 26  1  6  0  0  0
 23 20  1  0  0  0  0
 23 18  1  0  0  0  0
 24 25  1  0  0  0  0
 25 23  1  0  0  0  0
 27 26  1  0  0  0  0
 28 27  1  0  0  0  0
 29 28  1  0  0  0  0
 30 31  1  0  0  0  0
 30 29  1  0  0  0  0
 31 34  1  6  0  0  0
 31 32  1  0  0  0  0
 32 33  2  0  0  0  0
 34 36  1  0  0  0  0
 35 36  1  0  0  0  0
 37 36  1  0  0  0  0
 39 38  1  1  0  0  0
 39 42  1  0  0  0  0
 40 43  1  0  0  0  0
 40 39  1  0  0  0  0
 41 44  1  1  0  0  0
 41 42  1  0  0  0  0
 43 41  1  0  0  0  0
 44 63  1  6  0  0  0
 44 48  1  0  0  0  0
 47 52  2  0  0  0  0
 48 45  1  0  0  0  0
 48 53  1  0  0  0  0
 49 46  1  1  0  0  0
 49 52  1  0  0  0  0
 50 49  1  0  0  0  0
 50 47  1  1  0  0  0
 51 54  1  0  0  0  0
 52 51  1  0  0  0  0
 53 45  1  6  0  0  0
 53 50  1  0  0  0  0
 53 49  1  0  0  0  0
 55 54  1  0  0  0  0
 59 58  1  0  0  0  0
 59 57  1  0  0  0  0
 60 56  2  0  0  0  0
 61 56  1  0  0  0  0
 61 55  1  1  0  0  0
 61 57  1  0  0  0  0
 62 60  1  0  0  0  0
 62 58  1  0  0  0  0
 63 64  1  6  0  0  0
 63 65  1  0  0  0  0
 67 65  1  0  0  0  0
 67 66  1  0  0  0  0
M  END
>  <MODEL>
2

>  <REMARK>
 VINA RESULT:      -4.7      2.439      5.416
  Name = 
  23 active torsions:
  status: ('A' for Active; 'I' for Inactive)
    1  A    between atoms: C_1  and  C_47
    2  A    between atoms: C_4  and  C_61
    3  A    between atoms: C_12  and  C_56
    4  A    between atoms: C_19  and  C_52
    5  A    between atoms: N_21  and  C_52
    6  A    between atoms: C_22  and  C_43
    7  A    between atoms: C_22  and  C_59
    8  A    between atoms: C_25  and  C_61
    9  A    between atoms: C_30  and  C_47
   10  A    between atoms: C_30  and  C_59
   11  A    between atoms: N_31  and  N_49
   12  A    between atoms: C_34  and  C_37
   13  A    between atoms: C_37  and  N_39
   14  A    between atoms: C_40  and  C_52
   15  A    between atoms: C_40  and  C_58
   16  A    between atoms: C_43  and  C_45
   17  A    between atoms: C_45  and  C_62
   18  A    between atoms: C_46  and  C_60
   19  A    between atoms: C_47  and  C_60
   20  A    between atoms: N_49  and  C_54
   21  A    between atoms: C_51  and  C_54
   22  A    between atoms: O_53  and  C_58
   23  A    between atoms: C_62  and  C_66
                            x       y       z     vdW  Elec       q    Type
                         _______ _______ _______ _____ _____    ______ ____

>  <TORSDO>
F 23

$$$$
=
 OpenBabel11062422483D

 67 74  0  0  1  0  0  0  0  0999 V2000
  189.9130  171.0360  139.3210 C   0  0  1  0  0  3  0  0  0  0  0  0
  190.9160  171.7980  141.4700 O   0  0  0  0  0  0  0  0  0  0  0  0
  190.1330  174.1400  140.5010 O   0  0  0  0  0  0  0  0  0  0  0  0
  189.9890  172.6120  137.2930 C   0  0  0  0  0  2  0  0  0  0  0  0
  190.2710  172.4550  138.7890 C   0  0  1  0  0  3  0  0  0  0  0  0
  190.3430  171.3420  136.5290 C   0  0  0  0  0  2  0  0  0  0  0  0
  189.5830  170.2780  137.0390 O   0  0  0  0  0  0  0  0  0  0  0  0
  189.4690  173.8080  141.6880 C   0  0  1  0  0  3  0  0  0  0  0  0
  190.1730  169.9430  138.2630 C   0  0  0  0  0  2  0  0  0  0  0  0
  189.9780  172.5080  142.2130 C   0  0  0  0  0  0  0  0  0  0  0  0
  190.5350  170.6660  140.7030 C   0  0  2  0  0  3  0  0  0  0  0  0
  189.4140  173.5080  139.4820 C   0  0  0  0  0  2  0  0  0  0  0  0
  189.4900  172.0120  143.2660 O   0  0  0  0  0  0  0  0  0  0  0  0
  191.6850  169.7050  140.6500 C   0  0  0  0  0  3  0  0  0  0  0  0
  192.3560  169.5930  139.5650 N   0  0  0  0  0  0  0  0  0  0  0  0
  193.4370  168.6510  139.4730 C   0  0  0  0  0  2  0  0  0  0  0  0
  193.8430  170.2750  137.6560 C   0  0  0  0  0  2  0  0  0  0  0  0
  194.8780  171.2280  137.8030 O   0  0  0  0  0  0  0  0  0  0  0  0
  194.2790  168.9350  138.2310 C   0  0  1  0  0  3  0  0  0  0  0  0
  195.7610  169.1490  138.4950 C   0  0  0  0  0  0  0  0  0  0  0  0
  196.3350  168.3520  139.6690 C   0  0  0  0  0  1  0  0  0  0  0  0
  196.4960  168.6920  137.2370 C   0  0  0  0  0  1  0  0  0  0  0  0
  195.8330  170.6780  138.6880 C   0  0  1  0  0  0  0  0  0  0  0  0
  197.2360  172.4710  137.5180 C   0  0  0  0  0  1  0  0  0  0  0  0
  197.2470  171.2090  138.3660 C   0  0  0  0  0  2  0  0  0  0  0  0
  195.4500  171.0500  140.1370 C   0  0  0  0  0  2  0  0  0  0  0  0
  196.4740  171.9210  140.8550 C   0  0  0  0  0  2  0  0  0  0  0  0
  195.8280  172.6090  142.0440 C   0  0  0  0  0  2  0  0  0  0  0  0
  196.6910  172.4680  143.2830 C   0  0  0  0  0  2  0  0  0  0  0  0
  195.8170  172.0320  144.4450 C   0  0  0  0  0  2  0  0  0  0  0  0
  195.9930  170.5500  144.7140 C   0  0  1  0  0  3  0  0  0  0  0  0
  197.1390  170.3350  145.6460 C   0  0  0  0  0  3  0  0  0  0  0  0
  197.5770  169.2150  145.8420 O   0  0  0  0  0  0  0  0  0  0  0  0
  194.7240  170.0100  145.3510 C   0  0  0  0  0  2  0  0  0  0  0  0
  193.0520  168.1660  145.0220 C   0  0  0  0  0  1  0  0  0  0  0  0
  193.8560  169.2600  144.3450 C   0  0  0  0  0  3  0  0  0  0  0  0
  194.7490  168.6310  143.3000 C   0  0  0  0  0  1  0  0  0  0  0  0
  189.6470  174.9240  142.7040 C   0  0  0  0  0  2  0  0  0  0  0  0
  188.6570  176.0290  142.3940 C   0  0  1  0  0  3  0  0  0  0  0  0
  188.6770  176.3470  141.0280 O   0  0  0  0  0  0  0  0  0  0  0  0
  186.4410  176.5120  141.8510 C   0  0  2  0  0  3  0  0  0  0  0  0
  187.2530  175.6360  142.7600 C   0  0  0  0  0  2  0  0  0  0  0  0
  187.3910  176.8200  140.7080 C   0  0  0  0  0  2  0  0  0  0  0  0
  185.9770  177.8180  142.5330 C   0  0  2  0  0  3  0  0  0  0  0  0
  186.1590  178.9510  144.6570 C   0  0  0  0  0  2  0  0  0  0  0  0
  186.0650  177.4010  147.0820 C   0  0  0  0  0  1  0  0  0  0  0  0
  188.8150  176.4480  145.8690 N   0  0  0  0  0  0  0  0  0  0  0  0
  185.9320  177.6710  144.0130 N   0  0  0  0  0  0  0  0  0  0  0  0
  187.2790  177.7160  146.2070 C   0  0  2  0  0  0  0  0  0  0  0  0
  187.4540  176.6080  145.4040 C   0  0  1  0  0  3  0  0  0  0  0  0
  189.4410  178.0390  147.7700 N   0  0  0  0  0  2  0  0  0  0  0  0
  188.6370  177.4340  146.7590 C   0  0  0  0  0  0  0  0  0  0  0  0
  187.2400  177.9340  144.6720 C   0  0  2  0  0  0  0  0  0  0  0  0
  190.7270  177.5590  148.0510 N   0  0  0  0  0  2  0  0  0  0  0  0
  190.8090  176.2060  147.5350 C   0  0  0  0  0  2  0  0  0  0  0  0
  192.2300  174.6140  146.3300 C   0  0  0  0  0  3  0  0  0  0  0  0
  193.2490  176.6320  147.3790 C   0  0  0  0  0  2  0  0  0  0  0  0
  195.0460  175.8020  145.8080 C   0  0  0  0  0  2  0  0  0  0  0  0
  194.3460  177.0200  146.3960 C   0  0  0  0  0  2  0  0  0  0  0  0
  193.1820  174.1740  145.4950 C   0  0  0  0  0  3  0  0  0  0  0  0
  192.0330  176.0680  146.6510 C   0  0  2  0  0  3  0  0  0  0  0  0
  194.1510  175.0880  144.8030 C   0  0  0  0  0  2  0  0  0  0  0  0
  184.7840  178.5360  141.8400 C   0  0  1  0  0  3  0  0  0  0  0  0
  184.8450  178.3310  140.4600 O   0  0  0  0  0  1  0  0  0  0  0  0
  183.4160  178.0810  142.3430 C   0  0  0  0  0  2  0  0  0  0  0  0
  181.4620  178.0210  141.3080 C   0  0  0  0  0  1  0  0  0  0  0  0
  182.4050  178.9040  141.8370 O   0  0  0  0  0  0  0  0  0  0  0  0
  1  9  1  6  0  0  0
  1 11  1  0  0  0  0
  2 10  1  0  0  0  0
  3  8  1  0  0  0  0
  5  4  1  6  0  0  0
  5  1  1  0  0  0  0
  5 12  1  0  0  0  0
  6  7  1  0  0  0  0
  6  4  1  0  0  0  0
  7  9  1  0  0  0  0
  8 10  1  0  0  0  0
  8 38  1  1  0  0  0
 10 13  2  0  0  0  0
 11 14  1  6  0  0  0
 11  2  1  0  0  0  0
 12  3  1  0  0  0  0
 15 14  2  0  0  0  0
 16 15  1  0  0  0  0
 17 18  1  0  0  0  0
 17 19  1  0  0  0  0
 18 23  1  0  0  0  0
 19 20  1  0  0  0  0
 19 16  1  1  0  0  0
 20 23  1  0  0  0  0
 20 21  1  0  0  0  0
 22 20  1  0  0  0  0
 23 25  1  6  0  0  0
 23 26  1  0  0  0  0
 24 25  1  0  0  0  0
 26 27  1  0  0  0  0
 27 28  1  0  0  0  0
 28 29  1  0  0  0  0
 29 30  1  0  0  0  0
 31 30  1  1  0  0  0
 31 34  1  0  0  0  0
 31 32  1  0  0  0  0
 32 33  2  0  0  0  0
 36 35  1  0  0  0  0
 36 34  1  0  0  0  0
 37 36  1  0  0  0  0
 39 38  1  6  0  0  0
 39 42  1  0  0  0  0
 40 39  1  0  0  0  0
 41 44  1  1  0  0  0
 41 42  1  0  0  0  0
 43 40  1  0  0  0  0
 43 41  1  0  0  0  0
 44 63  1  6  0  0  0
 44 48  1  0  0  0  0
 47 52  2  0  0  0  0
 48 45  1  0  0  0  0
 48 53  1  0  0  0  0
 49 52  1  0  0  0  0
 49 46  1  1  0  0  0
 50 47  1  6  0  0  0
 50 49  1  0  0  0  0
 51 54  1  0  0  0  0
 52 51  1  0  0  0  0
 53 45  1  6  0  0  0
 53 50  1  0  0  0  0
 53 49  1  0  0  0  0
 55 54  1  0  0  0  0
 56 61  1  0  0  0  0
 58 59  1  0  0  0  0
 59 57  1  0  0  0  0
 60 56  2  0  0  0  0
 61 57  1  0  0  0  0
 61 55  1  1  0  0  0
 62 60  1  0  0  0  0
 62 58  1  0  0  0  0
 63 64  1  6  0  0  0
 63 65  1  0  0  0  0
 66 67  1  0  0  0  0
 67 65  1  0  0  0  0
M  END
>  <MODEL>
3

>  <REMARK>
 VINA RESULT:      -4.4      1.419      1.952
  Name = 
  23 active torsions:
  status: ('A' for Active; 'I' for Inactive)
    1  A    between atoms: C_1  and  C_47
    2  A    between atoms: C_4  and  C_61
    3  A    between atoms: C_12  and  C_56
    4  A    between atoms: C_19  and  C_52
    5  A    between atoms: N_21  and  C_52
    6  A    between atoms: C_22  and  C_43
    7  A    between atoms: C_22  and  C_59
    8  A    between atoms: C_25  and  C_61
    9  A    between atoms: C_30  and  C_47
   10  A    between atoms: C_30  and  C_59
   11  A    between atoms: N_31  and  N_49
   12  A    between atoms: C_34  and  C_37
   13  A    between atoms: C_37  and  N_39
   14  A    between atoms: C_40  and  C_52
   15  A    between atoms: C_40  and  C_58
   16  A    between atoms: C_43  and  C_45
   17  A    between atoms: C_45  and  C_62
   18  A    between atoms: C_46  and  C_60
   19  A    between atoms: C_47  and  C_60
   20  A    between atoms: N_49  and  C_54
   21  A    between atoms: C_51  and  C_54
   22  A    between atoms: O_53  and  C_58
   23  A    between atoms: C_62  and  C_66
                            x       y       z     vdW  Elec       q    Type
                         _______ _______ _______ _____ _____    ______ ____

>  <TORSDO>
F 23

$$$$
=
 OpenBabel11062422483D

 67 74  0  0  1  0  0  0  0  0999 V2000
  188.8400  173.2000  137.7250 C   0  0  1  0  0  3  0  0  0  0  0  0
  189.3110  174.2570  139.9310 O   0  0  0  0  0  0  0  0  0  0  0  0
  187.8530  176.1810  138.8300 O   0  0  0  0  0  0  0  0  0  0  0  0
  188.5480  174.7110  135.6670 C   0  0  0  0  0  2  0  0  0  0  0  0
  188.7280  174.6570  137.1860 C   0  0  1  0  0  3  0  0  0  0  0  0
  189.3920  173.6480  134.9730 C   0  0  0  0  0  2  0  0  0  0  0  0
  189.0080  172.3840  135.4450 O   0  0  0  0  0  0  0  0  0  0  0  0
  187.2390  175.6320  139.9630 C   0  0  1  0  0  3  0  0  0  0  0  0
  189.5620  172.2720  136.7250 C   0  0  0  0  0  2  0  0  0  0  0  0
  188.1190  174.5900  140.5680 C   0  0  0  0  0  0  0  0  0  0  0  0
  189.4210  173.0660  139.1670 C   0  0  2  0  0  3  0  0  0  0  0  0
  187.4970  175.3410  137.7700 C   0  0  0  0  0  2  0  0  0  0  0  0
  187.7400  173.9510  141.5880 O   0  0  0  0  0  0  0  0  0  0  0  0
  190.8340  172.5690  139.2420 C   0  0  0  0  0  3  0  0  0  0  0  0
  191.7880  173.3350  138.8640 N   0  0  0  0  0  0  0  0  0  0  0  0
  193.1470  172.8700  138.8870 C   0  0  0  0  0  2  0  0  0  0  0  0
  195.4570  173.7130  139.1280 C   0  0  0  0  0  2  0  0  0  0  0  0
  196.4030  173.4270  138.1150 O   0  0  0  0  0  0  0  0  0  0  0  0
  194.0980  174.0030  138.5070 C   0  0  1  0  0  3  0  0  0  0  0  0
  194.4190  174.1010  137.0240 C   0  0  0  0  0  0  0  0  0  0  0  0
  193.2900  173.6730  136.0840 C   0  0  0  0  0  1  0  0  0  0  0  0
  194.7090  175.5730  136.7400 C   0  0  0  0  0  1  0  0  0  0  0  0
  195.6860  173.2270  136.9140 C   0  0  1  0  0  0  0  0  0  0  0  0
  197.3620  174.8950  135.9330 C   0  0  0  0  0  1  0  0  0  0  0  0
  196.5370  173.6400  135.6940 C   0  0  0  0  0  2  0  0  0  0  0  0
  195.2950  171.7370  136.8020 C   0  0  0  0  0  2  0  0  0  0  0  0
  196.3180  170.7720  137.3910 C   0  0  0  0  0  2  0  0  0  0  0  0
  195.8490  169.3420  137.2040 C   0  0  0  0  0  2  0  0  0  0  0  0
  195.7220  168.6370  138.5410 C   0  0  0  0  0  2  0  0  0  0  0  0
  195.3660  169.6590  139.6050 C   0  0  0  0  0  2  0  0  0  0  0  0
  194.6880  168.9840  140.7820 C   0  0  1  0  0  3  0  0  0  0  0  0
  195.5670  169.0580  141.9860 C   0  0  0  0  0  3  0  0  0  0  0  0
  196.6810  168.5640  141.9710 O   0  0  0  0  0  0  0  0  0  0  0  0
  193.3800  169.7000  141.0750 C   0  0  0  0  0  2  0  0  0  0  0  0
  191.7470  168.8690  139.3570 C   0  0  0  0  0  1  0  0  0  0  0  0
  192.1710  168.8070  140.8130 C   0  0  0  0  0  3  0  0  0  0  0  0
  191.0200  169.2760  141.6740 C   0  0  0  0  0  1  0  0  0  0  0  0
  186.9230  176.7360  140.9580 C   0  0  0  0  0  2  0  0  0  0  0  0
  187.9320  176.6770  142.0880 C   0  0  1  0  0  3  0  0  0  0  0  0
  189.0970  177.3820  141.7530 O   0  0  0  0  0  0  0  0  0  0  0  0
  188.6330  177.6710  144.0780 C   0  0  2  0  0  3  0  0  0  0  0  0
  187.3800  177.2650  143.3570 C   0  0  0  0  0  2  0  0  0  0  0  0
  189.6470  177.8440  142.9630 C   0  0  0  0  0  2  0  0  0  0  0  0
  189.1170  176.6060  145.0870 C   0  0  2  0  0  3  0  0  0  0  0  0
  189.4680  174.2440  145.4380 C   0  0  0  0  0  2  0  0  0  0  0  0
  189.8250  172.5270  143.1530 C   0  0  0  0  0  1  0  0  0  0  0  0
  192.4700  174.2390  143.0340 N   0  0  0  0  0  0  0  0  0  0  0  0
  189.2760  175.2770  144.4370 N   0  0  0  0  0  0  0  0  0  0  0  0
  190.8840  173.3380  143.9010 C   0  0  2  0  0  0  0  0  0  0  0  0
  191.0520  174.4940  143.1670 C   0  0  1  0  0  3  0  0  0  0  0  0
  193.1910  171.9610  143.9450 N   0  0  0  0  0  2  0  0  0  0  0  0
  192.3210  173.0460  143.6240 C   0  0  0  0  0  0  0  0  0  0  0  0
  190.6280  174.6860  144.6240 C   0  0  2  0  0  0  0  0  0  0  0  0
  194.5390  171.9840  143.5670 N   0  0  0  0  0  2  0  0  0  0  0  0
  195.2790  172.6330  144.6320 C   0  0  0  0  0  2  0  0  0  0  0  0
  195.5550  174.9940  144.0330 C   0  0  0  0  0  3  0  0  0  0  0  0
  196.6220  173.2310  142.6320 C   0  0  0  0  0  2  0  0  0  0  0  0
  197.7830  175.3550  141.9080 C   0  0  0  0  0  2  0  0  0  0  0  0
  197.9380  173.8710  142.2090 C   0  0  0  0  0  2  0  0  0  0  0  0
  196.1710  176.1210  143.6510 C   0  0  0  0  0  3  0  0  0  0  0  0
  196.2340  173.6550  144.0450 C   0  0  2  0  0  3  0  0  0  0  0  0
  197.6000  176.1580  143.1900 C   0  0  0  0  0  2  0  0  0  0  0  0
  188.4250  176.6540  146.4790 C   0  0  1  0  0  3  0  0  0  0  0  0
  189.0100  177.6490  147.2650 O   0  0  0  0  0  1  0  0  0  0  0  0
  186.9210  176.9060  146.4100 C   0  0  0  0  0  2  0  0  0  0  0  0
  185.5920  178.3170  147.4770 C   0  0  0  0  0  1  0  0  0  0  0  0
  186.4100  177.2030  147.6780 O   0  0  0  0  0  0  0  0  0  0  0  0
  1  9  1  6  0  0  0
  1 11  1  0  0  0  0
  2 10  1  0  0  0  0
  3  8  1  0  0  0  0
  5  4  1  6  0  0  0
  5  1  1  0  0  0  0
  5 12  1  0  0  0  0
  6  7  1  0  0  0  0
  6  4  1  0  0  0  0
  7  9  1  0  0  0  0
  8 10  1  0  0  0  0
  8 38  1  1  0  0  0
 10 13  2  0  0  0  0
 11 14  1  6  0  0  0
 11  2  1  0  0  0  0
 12  3  1  0  0  0  0
 15 16  1  0  0  0  0
 15 14  2  0  0  0  0
 18 17  1  0  0  0  0
 19 16  1  6  0  0  0
 19 17  1  0  0  0  0
 20 19  1  0  0  0  0
 21 20  1  0  0  0  0
 22 20  1  0  0  0  0
 23 25  1  6  0  0  0
 23 20  1  0  0  0  0
 23 18  1  0  0  0  0
 25 24  1  0  0  0  0
 26 23  1  0  0  0  0
 26 27  1  0  0  0  0
 28 27  1  0  0  0  0
 28 29  1  0  0  0  0
 29 30  1  0  0  0  0
 31 30  1  6  0  0  0
 31 34  1  0  0  0  0
 31 32  1  0  0  0  0
 33 32  2  0  0  0  0
 35 36  1  0  0  0  0
 36 34  1  0  0  0  0
 36 37  1  0  0  0  0
 39 38  1  6  0  0  0
 39 42  1  0  0  0  0
 40 39  1  0  0  0  0
 40 43  1  0  0  0  0
 41 44  1  1  0  0  0
 42 41  1  0  0  0  0
 43 41  1  0  0  0  0
 44 63  1  1  0  0  0
 47 52  2  0  0  0  0
 48 53  1  0  0  0  0
 48 44  1  0  0  0  0
 48 45  1  0  0  0  0
 49 46  1  6  0  0  0
 49 53  1  0  0  0  0
 50 47  1  1  0  0  0
 50 49  1  0  0  0  0
 50 53  1  0  0  0  0
 52 49  1  0  0  0  0
 52 51  1  0  0  0  0
 53 45  1  1  0  0  0
 54 51  1  0  0  0  0
 54 55  1  0  0  0  0
 56 61  1  0  0  0  0
 57 61  1  0  0  0  0
 58 59  1  0  0  0  0
 58 62  1  0  0  0  0
 59 57  1  0  0  0  0
 60 56  2  0  0  0  0
 61 55  1  6  0  0  0
 62 60  1  0  0  0  0
 63 64  1  1  0  0  0
 65 63  1  0  0  0  0
 65 67  1  0  0  0  0
 66 67  1  0  0  0  0
M  END
>  <MODEL>
4

>  <REMARK>
 VINA RESULT:      -3.9      2.365      4.165
  Name = 
  23 active torsions:
  status: ('A' for Active; 'I' for Inactive)
    1  A    between atoms: C_1  and  C_47
    2  A    between atoms: C_4  and  C_61
    3  A    between atoms: C_12  and  C_56
    4  A    between atoms: C_19  and  C_52
    5  A    between atoms: N_21  and  C_52
    6  A    between atoms: C_22  and  C_43
    7  A    between atoms: C_22  and  C_59
    8  A    between atoms: C_25  and  C_61
    9  A    between atoms: C_30  and  C_47
   10  A    between atoms: C_30  and  C_59
   11  A    between atoms: N_31  and  N_49
   12  A    between atoms: C_34  and  C_37
   13  A    between atoms: C_37  and  N_39
   14  A    between atoms: C_40  and  C_52
   15  A    between atoms: C_40  and  C_58
   16  A    between atoms: C_43  and  C_45
   17  A    between atoms: C_45  and  C_62
   18  A    between atoms: C_46  and  C_60
   19  A    between atoms: C_47  and  C_60
   20  A    between atoms: N_49  and  C_54
   21  A    between atoms: C_51  and  C_54
   22  A    between atoms: O_53  and  C_58
   23  A    between atoms: C_62  and  C_66
                            x       y       z     vdW  Elec       q    Type
                         _______ _______ _______ _____ _____    ______ ____

>  <TORSDO>
F 23

$$$$
=
 OpenBabel11062422483D

 67 74  0  0  1  0  0  0  0  0999 V2000
  190.4100  173.8390  143.3850 C   0  0  1  0  0  3  0  0  0  0  0  0
  191.2100  176.1520  142.9200 O   0  0  0  0  0  0  0  0  0  0  0  0
  189.1090  176.0860  141.3020 O   0  0  0  0  0  0  0  0  0  0  0  0
  189.2330  172.5370  141.5070 C   0  0  0  0  0  2  0  0  0  0  0  0
  189.8270  173.8800  141.9420 C   0  0  1  0  0  3  0  0  0  0  0  0
  190.0760  171.3720  142.0140 C   0  0  0  0  0  2  0  0  0  0  0  0
  190.1330  171.4280  143.4140 O   0  0  0  0  0  0  0  0  0  0  0  0
  188.9690  177.0430  142.3150 C   0  0  1  0  0  3  0  0  0  0  0  0
  191.0250  172.4630  143.7170 C   0  0  0  0  0  2  0  0  0  0  0  0
  190.1940  177.0700  143.1660 C   0  0  0  0  0  0  0  0  0  0  0  0
  191.3770  175.0090  143.7460 C   0  0  2  0  0  3  0  0  0  0  0  0
  188.6790  174.8810  141.8660 C   0  0  0  0  0  2  0  0  0  0  0  0
  190.2620  177.8480  144.1570 O   0  0  0  0  0  0  0  0  0  0  0  0
  192.8310  174.6470  143.7880 C   0  0  0  0  0  3  0  0  0  0  0  0
  193.3210  174.1480  144.8600 N   0  0  0  0  0  0  0  0  0  0  0  0
  194.7200  173.8290  144.9410 C   0  0  0  0  0  2  0  0  0  0  0  0
  194.4070  171.5200  144.1180 C   0  0  0  0  0  2  0  0  0  0  0  0
  195.4930  170.8580  143.4980 O   0  0  0  0  0  0  0  0  0  0  0  0
  194.9040  172.3540  145.2900 C   0  0  1  0  0  3  0  0  0  0  0  0
  196.3500  171.9040  145.4340 C   0  0  0  0  0  0  0  0  0  0  0  0
  197.3110  172.9670  145.9720 C   0  0  0  0  0  1  0  0  0  0  0  0
  196.3470  170.7510  146.4340 C   0  0  0  0  0  1  0  0  0  0  0  0
  196.6810  171.4330  144.0030 C   0  0  1  0  0  0  0  0  0  0  0  0
  197.4500  169.0750  143.3670 C   0  0  0  0  0  1  0  0  0  0  0  0
  197.8270  170.3990  144.0140 C   0  0  0  0  0  2  0  0  0  0  0  0
  197.0710  172.6400  143.1220 C   0  0  0  0  0  2  0  0  0  0  0  0
  196.5620  172.5640  141.6880 C   0  0  0  0  0  2  0  0  0  0  0  0
  195.5830  173.6920  141.4240 C   0  0  0  0  0  2  0  0  0  0  0  0
  195.4320  173.9370  139.9350 C   0  0  0  0  0  2  0  0  0  0  0  0
  196.6430  174.7030  139.4350 C   0  0  0  0  0  2  0  0  0  0  0  0
  196.3700  175.2900  138.0640 C   0  0  1  0  0  3  0  0  0  0  0  0
  197.6510  175.7370  137.4390 C   0  0  0  0  0  3  0  0  0  0  0  0
  197.8760  175.5150  136.2620 O   0  0  0  0  0  0  0  0  0  0  0  0
  195.7340  174.2250  137.1880 C   0  0  0  0  0  2  0  0  0  0  0  0
  193.3000  174.8340  137.0790 C   0  0  0  0  0  1  0  0  0  0  0  0
  194.6140  174.7940  136.3220 C   0  0  0  0  0  3  0  0  0  0  0  0
  194.4450  173.9180  135.1020 C   0  0  0  0  0  1  0  0  0  0  0  0
  188.6920  178.4040  141.6980 C   0  0  0  0  0  2  0  0  0  0  0  0
  187.1980  178.5460  141.4810 C   0  0  1  0  0  3  0  0  0  0  0  0
  186.8300  178.0610  140.2180 O   0  0  0  0  0  0  0  0  0  0  0  0
  185.1170  177.5420  141.8000 C   0  0  2  0  0  3  0  0  0  0  0  0
  186.4120  177.7910  142.5170 C   0  0  0  0  0  2  0  0  0  0  0  0
  185.5020  177.6110  140.3330 C   0  0  0  0  0  2  0  0  0  0  0  0
  184.0380  178.5990  142.1240 C   0  0  2  0  0  3  0  0  0  0  0  0
  183.9730  179.9380  144.1320 C   0  0  0  0  0  2  0  0  0  0  0  0
  183.2840  178.6800  146.6300 C   0  0  0  0  0  1  0  0  0  0  0  0
  186.0800  177.3470  146.0390 N   0  0  0  0  0  0  0  0  0  0  0  0
  183.7200  178.6210  143.5770 N   0  0  0  0  0  0  0  0  0  0  0  0
  184.6600  178.7820  145.9690 C   0  0  2  0  0  0  0  0  0  0  0  0
  184.8470  177.5810  145.3170 C   0  0  1  0  0  3  0  0  0  0  0  0
  186.5380  179.0730  147.8690 N   0  0  0  0  0  2  0  0  0  0  0  0
  185.8610  178.4370  146.7860 C   0  0  0  0  0  0  0  0  0  0  0  0
  184.9130  178.8320  144.4400 C   0  0  2  0  0  0  0  0  0  0  0  0
  187.6930  178.5080  148.4250 N   0  0  0  0  0  2  0  0  0  0  0  0
  188.6790  178.4000  147.3660 C   0  0  0  0  0  2  0  0  0  0  0  0
  190.8980  177.3800  147.1620 C   0  0  0  0  0  3  0  0  0  0  0  0
  188.8670  176.0380  146.6290 C   0  0  0  0  0  2  0  0  0  0  0  0
  190.6890  174.3020  146.8540 C   0  0  0  0  0  2  0  0  0  0  0  0
  189.2300  174.6440  147.1230 C   0  0  0  0  0  2  0  0  0  0  0  0
  191.8650  176.4600  147.2840 C   0  0  0  0  0  3  0  0  0  0  0  0
  189.4660  177.1140  147.5280 C   0  0  2  0  0  3  0  0  0  0  0  0
  191.6130  175.0690  147.7920 C   0  0  0  0  0  2  0  0  0  0  0  0
  182.8510  178.6580  141.1210 C   0  0  1  0  0  3  0  0  0  0  0  0
  182.8210  177.4920  140.3540 O   0  0  0  0  0  1  0  0  0  0  0  0
  181.4900  178.8410  141.7890 C   0  0  0  0  0  2  0  0  0  0  0  0
  179.4430  178.2980  141.1520 C   0  0  0  0  0  1  0  0  0  0  0  0
  180.5100  179.1420  140.8380 O   0  0  0  0  0  0  0  0  0  0  0  0
  1  9  1  6  0  0  0
  1 11  1  0  0  0  0
  2 10  1  0  0  0  0
  2 11  1  0  0  0  0
  3 12  1  0  0  0  0
  3  8  1  0  0  0  0
  4  6  1  0  0  0  0
  5  4  1  1  0  0  0
  5  1  1  0  0  0  0
  6  7  1  0  0  0  0
  7  9  1  0  0  0  0
  8 38  1  6  0  0  0
  8 10  1  0  0  0  0
 10 13  2  0  0  0  0
 11 14  1  6  0  0  0
 12  5  1  0  0  0  0
 14 15  2  0  0  0  0
 15 16  1  0  0  0  0
 17 19  1  0  0  0  0
 18 23  1  0  0  0  0
 18 17  1  0  0  0  0
 19 16  1  6  0  0  0
 19 20  1  0  0  0  0
 20 21  1  0  0  0  0
 20 22  1  0  0  0  0
 23 26  1  6  0  0  0
 23 25  1  0  0  0  0
 23 20  1  0  0  0  0
 24 25  1  0  0  0  0
 27 26  1  0  0  0  0
 28 27  1  0  0  0  0
 29 28  1  0  0  0  0
 30 29  1  0  0  0  0
 31 34  1  6  0  0  0
 31 30  1  0  0  0  0
 32 31  1  0  0  0  0
 33 32  2  0  0  0  0
 36 35  1  0  0  0  0
 36 34  1  0  0  0  0
 37 36  1  0  0  0  0
 39 38  1  1  0  0  0
 39 42  1  0  0  0  0
 40 43  1  0  0  0  0
 40 39  1  0  0  0  0
 41 44  1  6  0  0  0
 41 42  1  0  0  0  0
 43 41  1  0  0  0  0
 44 63  1  6  0  0  0
 44 48  1  0  0  0  0
 47 52  2  0  0  0  0
 48 45  1  0  0  0  0
 48 53  1  0  0  0  0
 49 46  1  1  0  0  0
 49 52  1  0  0  0  0
 50 49  1  0  0  0  0
 50 47  1  1  0  0  0
 51 54  1  0  0  0  0
 52 51  1  0  0  0  0
 53 45  1  6  0  0  0
 53 50  1  0  0  0  0
 53 49  1  0  0  0  0
 55 54  1  0  0  0  0
 56 60  2  0  0  0  0
 56 61  1  0  0  0  0
 57 59  1  0  0  0  0
 57 61  1  0  0  0  0
 58 59  1  0  0  0  0
 58 62  1  0  0  0  0
 60 62  1  0  0  0  0
 61 55  1  6  0  0  0
 63 64  1  1  0  0  0
 63 65  1  0  0  0  0
 67 66  1  0  0  0  0
 67 65  1  0  0  0  0
M  END
>  <MODEL>
5

>  <REMARK>
 VINA RESULT:      -3.8      3.042      5.945
  Name = 
  23 active torsions:
  status: ('A' for Active; 'I' for Inactive)
    1  A    between atoms: C_1  and  C_47
    2  A    between atoms: C_4  and  C_61
    3  A    between atoms: C_12  and  C_56
    4  A    between atoms: C_19  and  C_52
    5  A    between atoms: N_21  and  C_52
    6  A    between atoms: C_22  and  C_43
    7  A    between atoms: C_22  and  C_59
    8  A    between atoms: C_25  and  C_61
    9  A    between atoms: C_30  and  C_47
   10  A    between atoms: C_30  and  C_59
   11  A    between atoms: N_31  and  N_49
   12  A    between atoms: C_34  and  C_37
   13  A    between atoms: C_37  and  N_39
   14  A    between atoms: C_40  and  C_52
   15  A    between atoms: C_40  and  C_58
   16  A    between atoms: C_43  and  C_45
   17  A    between atoms: C_45  and  C_62
   18  A    between atoms: C_46  and  C_60
   19  A    between atoms: C_47  and  C_60
   20  A    between atoms: N_49  and  C_54
   21  A    between atoms: C_51  and  C_54
   22  A    between atoms: O_53  and  C_58
   23  A    between atoms: C_62  and  C_66
                            x       y       z     vdW  Elec       q    Type
                         _______ _______ _______ _____ _____    ______ ____

>  <TORSDO>
F 23

$$$$
=
 OpenBabel11062422483D

 67 74  0  0  1  0  0  0  0  0999 V2000
  189.3400  172.5180  138.7620 C   0  0  1  0  0  3  0  0  0  0  0  0
  191.5260  171.6980  139.6300 O   0  0  0  0  0  0  0  0  0  0  0  0
  190.4690  172.5930  141.8930 O   0  0  0  0  0  0  0  0  0  0  0  0
  188.2220  174.5210  139.9220 C   0  0  0  0  0  2  0  0  0  0  0  0
  189.3760  173.5160  139.9570 C   0  0  1  0  0  3  0  0  0  0  0  0
  187.9240  174.9680  138.4950 C   0  0  0  0  0  2  0  0  0  0  0  0
  187.5890  173.8430  137.7270 O   0  0  0  0  0  0  0  0  0  0  0  0
  190.6850  171.2100  141.9190 C   0  0  1  0  0  3  0  0  0  0  0  0
  188.7960  173.1800  137.4790 C   0  0  0  0  0  2  0  0  0  0  0  0
  191.3210  170.7670  140.6440 C   0  0  0  0  0  0  0  0  0  0  0  0
  190.6690  171.7450  138.4990 C   0  0  2  0  0  3  0  0  0  0  0  0
  189.2260  172.7640  141.2750 C   0  0  0  0  0  2  0  0  0  0  0  0
  191.5780  169.5470  140.4510 O   0  0  0  0  0  0  0  0  0  0  0  0
  191.4560  172.2140  137.3120 C   0  0  0  0  0  3  0  0  0  0  0  0
  192.7340  172.2540  137.3850 N   0  0  0  0  0  0  0  0  0  0  0  0
  193.5100  172.7380  136.2760 C   0  0  0  0  0  2  0  0  0  0  0  0
  194.2960  174.1920  138.1130 C   0  0  0  0  0  2  0  0  0  0  0  0
  195.6750  174.2210  138.4260 O   0  0  0  0  0  0  0  0  0  0  0  0
  194.1030  174.1070  136.6060 C   0  0  1  0  0  3  0  0  0  0  0  0
  195.5070  174.3440  136.0730 C   0  0  0  0  0  0  0  0  0  0  0  0
  195.8260  173.6460  134.7490 C   0  0  0  0  0  1  0  0  0  0  0  0
  195.6320  175.8460  135.8330 C   0  0  0  0  0  1  0  0  0  0  0  0
  196.3800  173.8680  137.2530 C   0  0  1  0  0  0  0  0  0  0  0  0
  197.9080  175.6700  138.2390 C   0  0  0  0  0  1  0  0  0  0  0  0
  197.7660  174.5470  137.2230 C   0  0  0  0  0  2  0  0  0  0  0  0
  196.5460  172.3330  137.2070 C   0  0  0  0  0  2  0  0  0  0  0  0
  197.7260  171.8030  138.0130 C   0  0  0  0  0  2  0  0  0  0  0  0
  197.3480  170.5000  138.6910 C   0  0  0  0  0  2  0  0  0  0  0  0
  196.1040  170.6750  139.5400 C   0  0  0  0  0  2  0  0  0  0  0  0
  196.3490  170.0610  140.9060 C   0  0  0  0  0  2  0  0  0  0  0  0
  196.7600  171.1280  141.9020 C   0  0  1  0  0  3  0  0  0  0  0  0
  195.9510  172.3640  141.6850 C   0  0  0  0  0  3  0  0  0  0  0  0
  196.1460  173.3590  142.3610 O   0  0  0  0  0  0  0  0  0  0  0  0
  196.5140  170.6120  143.3090 C   0  0  0  0  0  2  0  0  0  0  0  0
  194.5440  170.1770  144.8040 C   0  0  0  0  0  1  0  0  0  0  0  0
  195.1540  169.9320  143.4370 C   0  0  0  0  0  3  0  0  0  0  0  0
  195.3300  168.4440  143.2430 C   0  0  0  0  0  1  0  0  0  0  0  0
  191.5420  170.8490  143.1200 C   0  0  0  0  0  2  0  0  0  0  0  0
  192.2780  172.0910  143.5850 C   0  0  1  0  0  3  0  0  0  0  0  0
  192.6790  172.8710  142.4910 O   0  0  0  0  0  0  0  0  0  0  0  0
  192.0390  174.2990  144.2960 C   0  0  2  0  0  3  0  0  0  0  0  0
  191.4190  172.9440  144.4760 C   0  0  0  0  0  2  0  0  0  0  0  0
  192.7220  174.2020  142.9440 C   0  0  0  0  0  2  0  0  0  0  0  0
  193.0690  174.6390  145.3960 C   0  0  2  0  0  3  0  0  0  0  0  0
  191.7130  174.8830  147.3780 C   0  0  0  0  0  2  0  0  0  0  0  0
  191.1310  177.5280  148.3590 C   0  0  0  0  0  1  0  0  0  0  0  0
  189.5070  177.5210  145.6560 N   0  0  0  0  0  0  0  0  0  0  0  0
  192.5050  175.5920  146.3900 N   0  0  0  0  0  0  0  0  0  0  0  0
  190.3780  176.7260  147.2960 C   0  0  2  0  0  0  0  0  0  0  0  0
  190.8480  177.1860  146.0830 C   0  0  1  0  0  3  0  0  0  0  0  0
  187.7480  177.2420  147.4910 N   0  0  0  0  0  2  0  0  0  0  0  0
  189.0320  177.2110  146.8700 C   0  0  0  0  0  0  0  0  0  0  0  0
  191.0220  175.6880  146.3400 C   0  0  2  0  0  0  0  0  0  0  0  0
  186.6310  177.7420  146.8100 N   0  0  0  0  0  2  0  0  0  0  0  0
  186.0740  176.6540  146.0300 C   0  0  0  0  0  2  0  0  0  0  0  0
  186.9570  176.1960  143.7900 C   0  0  0  0  0  3  0  0  0  0  0  0
  186.3610  178.5300  144.4300 C   0  0  0  0  0  2  0  0  0  0  0  0
  186.5630  178.6330  141.9140 C   0  0  0  0  0  2  0  0  0  0  0  0
  185.8000  179.1140  143.1400 C   0  0  0  0  0  2  0  0  0  0  0  0
  187.0620  176.2500  142.4540 C   0  0  0  0  0  3  0  0  0  0  0  0
  186.0020  177.0550  144.5680 C   0  0  2  0  0  3  0  0  0  0  0  0
  186.2420  177.1770  141.6040 C   0  0  0  0  0  2  0  0  0  0  0  0
  194.5170  174.8950  144.8870 C   0  0  1  0  0  3  0  0  0  0  0  0
  194.7530  176.2680  144.8010 O   0  0  0  0  0  1  0  0  0  0  0  0
  195.5960  174.2660  145.7650 C   0  0  0  0  0  2  0  0  0  0  0  0
  196.8700  172.4600  145.8760 C   0  0  0  0  0  1  0  0  0  0  0  0
  196.4490  173.4630  145.0000 O   0  0  0  0  0  0  0  0  0  0  0  0
  1  9  1  6  0  0  0
  1  5  1  0  0  0  0
  2 10  1  0  0  0  0
  3  8  1  0  0  0  0
  5  4  1  6  0  0  0
  5 12  1  0  0  0  0
  6  4  1  0  0  0  0
  7  6  1  0  0  0  0
  8 38  1  1  0  0  0
  9  7  1  0  0  0  0
 10  8  1  0  0  0  0
 11 14  1  6  0  0  0
 11  1  1  0  0  0  0
 11  2  1  0  0  0  0
 12  3  1  0  0  0  0
 13 10  2  0  0  0  0
 14 15  2  0  0  0  0
 16 15  1  0  0  0  0
 17 18  1  0  0  0  0
 19 16  1  1  0  0  0
 19 17  1  0  0  0  0
 20 19  1  0  0  0  0
 20 23  1  0  0  0  0
 21 20  1  0  0  0  0
 22 20  1  0  0  0  0
 23 26  1  6  0  0  0
 23 18  1  0  0  0  0
 25 23  1  0  0  0  0
 25 24  1  0  0  0  0
 26 27  1  0  0  0  0
 27 28  1  0  0  0  0
 28 29  1  0  0  0  0
 29 30  1  0  0  0  0
 31 30  1  6  0  0  0
 31 34  1  0  0  0  0
 32 31  1  0  0  0  0
 32 33  2  0  0  0  0
 34 36  1  0  0  0  0
 36 35  1  0  0  0  0
 37 36  1  0  0  0  0
 39 38  1  6  0  0  0
 39 42  1  0  0  0  0
 40 43  1  0  0  0  0
 40 39  1  0  0  0  0
 41 42  1  0  0  0  0
 41 44  1  1  0  0  0
 43 41  1  0  0  0  0
 44 63  1  6  0  0  0
 44 48  1  0  0  0  0
 47 52  2  0  0  0  0
 48 45  1  0  0  0  0
 49 46  1  1  0  0  0
 50 47  1  6  0  0  0
 50 53  1  0  0  0  0
 50 49  1  0  0  0  0
 52 49  1  0  0  0  0
 52 51  1  0  0  0  0
 53 48  1  0  0  0  0
 53 49  1  0  0  0  0
 53 45  1  6  0  0  0
 54 51  1  0  0  0  0
 55 54  1  0  0  0  0
 56 61  1  0  0  0  0
 57 61  1  0  0  0  0
 58 59  1  0  0  0  0
 59 57  1  0  0  0  0
 60 56  2  0  0  0  0
 61 55  1  1  0  0  0
 62 58  1  0  0  0  0
 62 60  1  0  0  0  0
 63 64  1  1  0  0  0
 63 65  1  0  0  0  0
 67 65  1  0  0  0  0
 67 66  1  0  0  0  0
M  END
>  <MODEL>
6

>  <REMARK>
 VINA RESULT:      -3.8      2.385      5.870
  Name = 
  23 active torsions:
  status: ('A' for Active; 'I' for Inactive)
    1  A    between atoms: C_1  and  C_47
    2  A    between atoms: C_4  and  C_61
    3  A    between atoms: C_12  and  C_56
    4  A    between atoms: C_19  and  C_52
    5  A    between atoms: N_21  and  C_52
    6  A    between atoms: C_22  and  C_43
    7  A    between atoms: C_22  and  C_59
    8  A    between atoms: C_25  and  C_61
    9  A    between atoms: C_30  and  C_47
   10  A    between atoms: C_30  and  C_59
   11  A    between atoms: N_31  and  N_49
   12  A    between atoms: C_34  and  C_37
   13  A    between atoms: C_37  and  N_39
   14  A    between atoms: C_40  and  C_52
   15  A    between atoms: C_40  and  C_58
   16  A    between atoms: C_43  and  C_45
   17  A    between atoms: C_45  and  C_62
   18  A    between atoms: C_46  and  C_60
   19  A    between atoms: C_47  and  C_60
   20  A    between atoms: N_49  and  C_54
   21  A    between atoms: C_51  and  C_54
   22  A    between atoms: O_53  and  C_58
   23  A    between atoms: C_62  and  C_66
                            x       y       z     vdW  Elec       q    Type
                         _______ _______ _______ _____ _____    ______ ____

>  <TORSDO>
F 23

$$$$
=
 OpenBabel11062422483D

 67 74  0  0  1  0  0  0  0  0999 V2000
  189.3350  172.2930  139.1540 C   0  0  1  0  0  3  0  0  0  0  0  0
  191.4440  171.8140  140.3910 O   0  0  0  0  0  0  0  0  0  0  0  0
  189.9340  172.6430  142.4100 O   0  0  0  0  0  0  0  0  0  0  0  0
  187.7980  174.1670  140.0090 C   0  0  0  0  0  2  0  0  0  0  0  0
  189.0520  173.3310  140.2790 C   0  0  1  0  0  3  0  0  0  0  0  0
  187.6750  174.5130  138.5300 C   0  0  0  0  0  2  0  0  0  0  0  0
  187.6140  173.3240  137.7880 O   0  0  0  0  0  0  0  0  0  0  0  0
  190.3210  171.3040  142.5510 C   0  0  1  0  0  3  0  0  0  0  0  0
  188.9210  172.8240  137.7660 C   0  0  0  0  0  2  0  0  0  0  0  0
  191.2030  170.9030  141.4160 C   0  0  0  0  0  0  0  0  0  0  0  0
  190.7780  171.7000  139.1420 C   0  0  2  0  0  3  0  0  0  0  0  0
  188.7940  172.6170  141.6010 C   0  0  0  0  0  2  0  0  0  0  0  0
  191.6430  169.7230  141.3370 O   0  0  0  0  0  0  0  0  0  0  0  0
  191.6760  172.2250  138.0630 C   0  0  0  0  0  3  0  0  0  0  0  0
  192.9360  172.3030  138.2800 N   0  0  0  0  0  0  0  0  0  0  0  0
  193.8140  172.8410  137.2770 C   0  0  0  0  0  2  0  0  0  0  0  0
  194.4590  175.1670  137.8070 C   0  0  0  0  0  2  0  0  0  0  0  0
  195.3180  175.8610  136.9220 O   0  0  0  0  0  0  0  0  0  0  0  0
  193.4800  174.3090  137.0180 C   0  0  1  0  0  3  0  0  0  0  0  0
  193.7000  174.7750  135.5880 C   0  0  0  0  0  0  0  0  0  0  0  0
  193.4600  173.7120  134.5130 C   0  0  0  0  0  1  0  0  0  0  0  0
  192.6990  175.9010  135.3390 C   0  0  0  0  0  1  0  0  0  0  0  0
  195.1540  175.2890  135.6400 C   0  0  1  0  0  0  0  0  0  0  0  0
  196.0380  177.6200  135.0590 C   0  0  0  0  0  1  0  0  0  0  0  0
  195.4080  176.3380  134.5370 C   0  0  0  0  0  2  0  0  0  0  0  0
  196.1400  174.1120  135.4830 C   0  0  0  0  0  2  0  0  0  0  0  0
  197.5840  174.4490  135.8340 C   0  0  0  0  0  2  0  0  0  0  0  0
  197.8110  174.2720  137.3240 C   0  0  0  0  0  2  0  0  0  0  0  0
  197.0950  173.0370  137.8350 C   0  0  0  0  0  2  0  0  0  0  0  0
  197.4020  172.8650  139.3110 C   0  0  0  0  0  2  0  0  0  0  0  0
  196.2490  173.3760  140.1550 C   0  0  1  0  0  3  0  0  0  0  0  0
  195.2910  172.2650  140.4320 C   0  0  0  0  0  3  0  0  0  0  0  0
  195.5110  171.1390  140.0200 O   0  0  0  0  0  0  0  0  0  0  0  0
  196.7960  173.9020  141.4710 C   0  0  0  0  0  2  0  0  0  0  0  0
  197.7680  175.9240  142.6010 C   0  0  0  0  0  1  0  0  0  0  0  0
  197.5860  175.1950  141.2830 C   0  0  0  0  0  3  0  0  0  0  0  0
  196.8320  176.0950  140.3310 C   0  0  0  0  0  1  0  0  0  0  0  0
  191.0160  171.1100  143.8880 C   0  0  0  0  0  2  0  0  0  0  0  0
  191.7360  172.3940  144.2530 C   0  0  1  0  0  3  0  0  0  0  0  0
  192.4270  172.9100  143.1470 O   0  0  0  0  0  0  0  0  0  0  0  0
  191.5360  174.7100  144.4410 C   0  0  2  0  0  3  0  0  0  0  0  0
  190.7800  173.4480  144.7390 C   0  0  0  0  0  2  0  0  0  0  0  0
  192.4820  174.3040  143.3260 C   0  0  0  0  0  2  0  0  0  0  0  0
  192.3300  175.2360  145.6570 C   0  0  2  0  0  3  0  0  0  0  0  0
  190.5560  175.5880  147.2550 C   0  0  0  0  0  2  0  0  0  0  0  0
  189.7440  178.2810  147.8740 C   0  0  0  0  0  1  0  0  0  0  0  0
  188.7780  178.0360  144.8820 N   0  0  0  0  0  0  0  0  0  0  0  0
  191.5470  176.2430  146.4220 N   0  0  0  0  0  0  0  0  0  0  0  0
  189.2600  177.3850  146.7320 C   0  0  2  0  0  0  0  0  0  0  0  0
  189.9900  177.7680  145.6260 C   0  0  1  0  0  3  0  0  0  0  0  0
  186.6500  177.8460  146.2860 N   0  0  0  0  0  2  0  0  0  0  0  0
  188.0420  177.8030  145.9770 C   0  0  0  0  0  0  0  0  0  0  0  0
  190.1130  176.2970  146.0290 C   0  0  2  0  0  0  0  0  0  0  0  0
  185.7140  178.2670  145.3330 N   0  0  0  0  0  2  0  0  0  0  0  0
  185.1910  177.0810  144.6830 C   0  0  0  0  0  2  0  0  0  0  0  0
  186.7050  177.5830  142.8220 C   0  0  0  0  0  3  0  0  0  0  0  0
  184.3300  178.3330  142.7200 C   0  0  0  0  0  2  0  0  0  0  0  0
  185.1330  178.5610  140.3350 C   0  0  0  0  0  2  0  0  0  0  0  0
  183.9770  178.1740  141.2470 C   0  0  0  0  0  2  0  0  0  0  0  0
  187.1310  177.7010  141.5560 C   0  0  0  0  0  3  0  0  0  0  0  0
  185.2880  177.2370  143.1770 C   0  0  2  0  0  3  0  0  0  0  0  0
  186.2330  177.5080  140.3680 C   0  0  0  0  0  2  0  0  0  0  0  0
  193.8310  175.5410  145.3820 C   0  0  1  0  0  3  0  0  0  0  0  0
  194.1400  176.8290  145.8230 O   0  0  0  0  0  1  0  0  0  0  0  0
  194.7900  174.5530  146.0410 C   0  0  0  0  0  2  0  0  0  0  0  0
  195.4940  172.5090  145.5730 C   0  0  0  0  0  1  0  0  0  0  0  0
  195.4790  173.8130  145.0740 O   0  0  0  0  0  0  0  0  0  0  0  0
  1  9  1  6  0  0  0
  1  5  1  0  0  0  0
  2 10  1  0  0  0  0
  3  8  1  0  0  0  0
  5  4  1  6  0  0  0
  5 12  1  0  0  0  0
  6  4  1  0  0  0  0
  7  6  1  0  0  0  0
  8 38  1  1  0  0  0
  9  7  1  0  0  0  0
 10  8  1  0  0  0  0
 11 14  1  6  0  0  0
 11  1  1  0  0  0  0
 11  2  1  0  0  0  0
 12  3  1  0  0  0  0
 13 10  2  0  0  0  0
 14 15  2  0  0  0  0
 16 15  1  0  0  0  0
 18 17  1  0  0  0  0
 19 16  1  6  0  0  0
 19 17  1  0  0  0  0
 20 23  1  0  0  0  0
 20 19  1  0  0  0  0
 21 20  1  0  0  0  0
 22 20  1  0  0  0  0
 23 25  1  6  0  0  0
 23 18  1  0  0  0  0
 25 24  1  0  0  0  0
 26 23  1  0  0  0  0
 26 27  1  0  0  0  0
 27 28  1  0  0  0  0
 28 29  1  0  0  0  0
 29 30  1  0  0  0  0
 31 30  1  6  0  0  0
 31 32  1  0  0  0  0
 31 34  1  0  0  0  0
 33 32  2  0  0  0  0
 36 34  1  0  0  0  0
 36 35  1  0  0  0  0
 37 36  1  0  0  0  0
 39 38  1  6  0  0  0
 39 42  1  0  0  0  0
 40 43  1  0  0  0  0
 40 39  1  0  0  0  0
 41 42  1  0  0  0  0
 41 44  1  1  0  0  0
 43 41  1  0  0  0  0
 44 63  1  6  0  0  0
 44 48  1  0  0  0  0
 47 52  2  0  0  0  0
 48 45  1  0  0  0  0
 49 46  1  1  0  0  0
 50 47  1  6  0  0  0
 50 53  1  0  0  0  0
 50 49  1  0  0  0  0
 52 51  1  0  0  0  0
 52 49  1  0  0  0  0
 53 48  1  0  0  0  0
 53 49  1  0  0  0  0
 53 45  1  6  0  0  0
 54 51  1  0  0  0  0
 55 54  1  0  0  0  0
 56 61  1  0  0  0  0
 57 61  1  0  0  0  0
 58 62  1  0  0  0  0
 58 59  1  0  0  0  0
 59 57  1  0  0  0  0
 60 56  2  0  0  0  0
 61 55  1  1  0  0  0
 62 60  1  0  0  0  0
 63 64  1  1  0  0  0
 63 65  1  0  0  0  0
 67 66  1  0  0  0  0
 67 65  1  0  0  0  0
M  END
>  <MODEL>
7

>  <REMARK>
 VINA RESULT:      -3.7      2.611      6.284
  Name = 
  23 active torsions:
  status: ('A' for Active; 'I' for Inactive)
    1  A    between atoms: C_1  and  C_47
    2  A    between atoms: C_4  and  C_61
    3  A    between atoms: C_12  and  C_56
    4  A    between atoms: C_19  and  C_52
    5  A    between atoms: N_21  and  C_52
    6  A    between atoms: C_22  and  C_43
    7  A    between atoms: C_22  and  C_59
    8  A    between atoms: C_25  and  C_61
    9  A    between atoms: C_30  and  C_47
   10  A    between atoms: C_30  and  C_59
   11  A    between atoms: N_31  and  N_49
   12  A    between atoms: C_34  and  C_37
   13  A    between atoms: C_37  and  N_39
   14  A    between atoms: C_40  and  C_52
   15  A    between atoms: C_40  and  C_58
   16  A    between atoms: C_43  and  C_45
   17  A    between atoms: C_45  and  C_62
   18  A    between atoms: C_46  and  C_60
   19  A    between atoms: C_47  and  C_60
   20  A    between atoms: N_49  and  C_54
   21  A    between atoms: C_51  and  C_54
   22  A    between atoms: O_53  and  C_58
   23  A    between atoms: C_62  and  C_66
                            x       y       z     vdW  Elec       q    Type
                         _______ _______ _______ _____ _____    ______ ____

>  <TORSDO>
F 23

$$$$
=
 OpenBabel11062422483D

 67 74  0  0  1  0  0  0  0  0999 V2000
  188.6510  173.8660  137.2710 C   0  0  1  0  0  3  0  0  0  0  0  0
  189.1590  174.8790  139.4890 O   0  0  0  0  0  0  0  0  0  0  0  0
  187.4840  176.7090  138.5490 O   0  0  0  0  0  0  0  0  0  0  0  0
  188.1140  175.4200  135.2950 C   0  0  0  0  0  2  0  0  0  0  0  0
  188.3860  175.3260  136.7990 C   0  0  1  0  0  3  0  0  0  0  0  0
  189.0030  174.4580  134.5140 C   0  0  0  0  0  2  0  0  0  0  0  0
  188.7530  173.1500  134.9540 O   0  0  0  0  0  0  0  0  0  0  0  0
  186.9850  176.0690  139.6910 C   0  0  1  0  0  3  0  0  0  0  0  0
  189.3880  173.0400  136.1960 C   0  0  0  0  0  2  0  0  0  0  0  0
  187.9830  175.0860  140.2040 C   0  0  0  0  0  0  0  0  0  0  0  0
  189.3240  173.7300  138.6720 C   0  0  2  0  0  3  0  0  0  0  0  0
  187.1380  175.8800  137.4770 C   0  0  0  0  0  2  0  0  0  0  0  0
  187.7180  174.3800  141.2150 O   0  0  0  0  0  0  0  0  0  0  0  0
  190.7750  173.3540  138.6490 C   0  0  0  0  0  3  0  0  0  0  0  0
  191.1400  172.2370  139.1580 N   0  0  0  0  0  0  0  0  0  0  0  0
  192.5290  171.8710  139.1860 C   0  0  0  0  0  2  0  0  0  0  0  0
  193.7740  170.1740  137.8900 C   0  0  0  0  0  2  0  0  0  0  0  0
  194.8990  169.5500  138.4770 O   0  0  0  0  0  0  0  0  0  0  0  0
  192.6830  170.3720  138.9330 C   0  0  1  0  0  3  0  0  0  0  0  0
  193.2000  169.5710  140.1170 C   0  0  0  0  0  0  0  0  0  0  0  0
  192.7820  170.0970  141.4920 C   0  0  0  0  0  1  0  0  0  0  0  0
  192.6190  168.1660  139.9770 C   0  0  0  0  0  1  0  0  0  0  0  0
  194.7240  169.5970  139.8780 C   0  0  1  0  0  0  0  0  0  0  0  0
  196.8020  168.7060  141.0800 C   0  0  0  0  0  1  0  0  0  0  0  0
  195.4090  168.3910  140.5560 C   0  0  0  0  0  2  0  0  0  0  0  0
  195.3240  170.9130  140.4180 C   0  0  0  0  0  2  0  0  0  0  0  0
  196.5040  171.4440  139.6120 C   0  0  0  0  0  2  0  0  0  0  0  0
  197.3090  172.4190  140.4510 C   0  0  0  0  0  2  0  0  0  0  0  0
  197.3980  173.7710  139.7690 C   0  0  0  0  0  2  0  0  0  0  0  0
  197.0560  173.6070  138.3000 C   0  0  0  0  0  2  0  0  0  0  0  0
  196.5340  174.9100  137.7280 C   0  0  1  0  0  3  0  0  0  0  0  0
  197.6370  175.6390  137.0340 C   0  0  0  0  0  3  0  0  0  0  0  0
  197.4910  176.0440  135.8940 O   0  0  0  0  0  0  0  0  0  0  0  0
  195.4330  174.6050  136.7280 C   0  0  0  0  0  2  0  0  0  0  0  0
  193.3880  176.0600  136.6330 C   0  0  0  0  0  1  0  0  0  0  0  0
  194.0460  174.8710  137.3070 C   0  0  0  0  0  3  0  0  0  0  0  0
  194.1810  175.1650  138.7840 C   0  0  0  0  0  1  0  0  0  0  0  0
  186.6350  177.1050  140.7460 C   0  0  0  0  0  2  0  0  0  0  0  0
  187.5800  176.9420  141.9210 C   0  0  1  0  0  3  0  0  0  0  0  0
  188.8390  177.4850  141.6260 O   0  0  0  0  0  0  0  0  0  0  0  0
  188.3190  177.8810  143.9240 C   0  0  2  0  0  3  0  0  0  0  0  0
  187.0560  177.6230  143.1540 C   0  0  0  0  0  2  0  0  0  0  0  0
  189.3930  177.8980  142.8520 C   0  0  0  0  0  2  0  0  0  0  0  0
  188.6190  176.7840  144.9700 C   0  0  2  0  0  3  0  0  0  0  0  0
  189.3440  174.5090  145.3190 C   0  0  0  0  0  2  0  0  0  0  0  0
  190.2880  172.9790  143.0680 C   0  0  0  0  0  1  0  0  0  0  0  0
  192.5740  175.1340  143.3300 N   0  0  0  0  0  0  0  0  0  0  0  0
  189.0950  175.5320  144.3220 N   0  0  0  0  0  0  0  0  0  0  0  0
  191.0810  173.9330  143.9650 C   0  0  2  0  0  0  0  0  0  0  0  0
  191.1280  175.1290  143.2810 C   0  0  1  0  0  3  0  0  0  0  0  0
  193.5740  172.9830  144.2840 N   0  0  0  0  0  2  0  0  0  0  0  0
  192.5700  173.9100  143.8730 C   0  0  0  0  0  0  0  0  0  0  0  0
  190.4970  175.1830  144.6730 C   0  0  2  0  0  0  0  0  0  0  0  0
  194.9330  173.2600  144.0860 N   0  0  0  0  0  2  0  0  0  0  0  0
  195.6440  172.8170  145.2700 C   0  0  0  0  0  2  0  0  0  0  0  0
  196.7380  170.7970  146.1250 C   0  0  0  0  0  3  0  0  0  0  0  0
  195.4020  170.6840  144.0230 C   0  0  0  0  0  2  0  0  0  0  0  0
  195.6860  168.2620  144.6820 C   0  0  0  0  0  2  0  0  0  0  0  0
  194.7500  169.3100  144.0980 C   0  0  0  0  0  2  0  0  0  0  0  0
  196.8870  169.5120  146.4760 C   0  0  0  0  0  3  0  0  0  0  0  0
  195.5220  171.3110  145.4080 C   0  0  2  0  0  3  0  0  0  0  0  0
  195.8590  168.4570  146.1830 C   0  0  0  0  0  2  0  0  0  0  0  0
  187.5680  176.6560  146.1100 C   0  0  1  0  0  3  0  0  0  0  0  0
  188.0640  177.2370  147.2780 O   0  0  0  0  0  1  0  0  0  0  0  0
  186.2210  177.2930  145.7790 C   0  0  0  0  0  2  0  0  0  0  0  0
  185.3100  178.0040  147.6650 C   0  0  0  0  0  1  0  0  0  0  0  0
  186.0170  178.4450  146.5450 O   0  0  0  0  0  0  0  0  0  0  0  0
  1  9  1  6  0  0  0
  1 11  1  0  0  0  0
  2 10  1  0  0  0  0
  3  8  1  0  0  0  0
  5  4  1  6  0  0  0
  5  1  1  0  0  0  0
  5 12  1  0  0  0  0
  6  7  1  0  0  0  0
  6  4  1  0  0  0  0
  7  9  1  0  0  0  0
  8 10  1  0  0  0  0
  8 38  1  1  0  0  0
 10 13  2  0  0  0  0
 11 14  1  6  0  0  0
 11  2  1  0  0  0  0
 12  3  1  0  0  0  0
 14 15  2  0  0  0  0
 15 16  1  0  0  0  0
 17 18  1  0  0  0  0
 17 19  1  0  0  0  0
 18 23  1  0  0  0  0
 19 16  1  1  0  0  0
 19 20  1  0  0  0  0
 20 21  1  0  0  0  0
 22 20  1  0  0  0  0
 23 20  1  0  0  0  0
 23 26  1  1  0  0  0
 23 25  1  0  0  0  0
 25 24  1  0  0  0  0
 27 26  1  0  0  0  0
 27 28  1  0  0  0  0
 29 28  1  0  0  0  0
 30 29  1  0  0  0  0
 31 34  1  6  0  0  0
 31 30  1  0  0  0  0
 32 31  1  0  0  0  0
 33 32  2  0  0  0  0
 34 36  1  0  0  0  0
 35 36  1  0  0  0  0
 36 37  1  0  0  0  0
 39 38  1  6  0  0  0
 39 42  1  0  0  0  0
 40 39  1  0  0  0  0
 40 43  1  0  0  0  0
 41 44  1  1  0  0  0
 42 41  1  0  0  0  0
 43 41  1  0  0  0  0
 44 63  1  6  0  0  0
 47 52  2  0  0  0  0
 48 53  1  0  0  0  0
 48 44  1  0  0  0  0
 48 45  1  0  0  0  0
 49 46  1  6  0  0  0
 49 53  1  0  0  0  0
 50 47  1  1  0  0  0
 50 49  1  0  0  0  0
 50 53  1  0  0  0  0
 52 49  1  0  0  0  0
 52 51  1  0  0  0  0
 53 45  1  1  0  0  0
 54 51  1  0  0  0  0
 54 55  1  0  0  0  0
 56 60  2  0  0  0  0
 57 59  1  0  0  0  0
 57 61  1  0  0  0  0
 58 62  1  0  0  0  0
 59 58  1  0  0  0  0
 61 55  1  6  0  0  0
 61 56  1  0  0  0  0
 62 60  1  0  0  0  0
 63 64  1  1  0  0  0
 65 63  1  0  0  0  0
 65 67  1  0  0  0  0
 67 66  1  0  0  0  0
M  END
>  <MODEL>
8

>  <REMARK>
 VINA RESULT:      -3.2      2.458      4.936
  Name = 
  23 active torsions:
  status: ('A' for Active; 'I' for Inactive)
    1  A    between atoms: C_1  and  C_47
    2  A    between atoms: C_4  and  C_61
    3  A    between atoms: C_12  and  C_56
    4  A    between atoms: C_19  and  C_52
    5  A    between atoms: N_21  and  C_52
    6  A    between atoms: C_22  and  C_43
    7  A    between atoms: C_22  and  C_59
    8  A    between atoms: C_25  and  C_61
    9  A    between atoms: C_30  and  C_47
   10  A    between atoms: C_30  and  C_59
   11  A    between atoms: N_31  and  N_49
   12  A    between atoms: C_34  and  C_37
   13  A    between atoms: C_37  and  N_39
   14  A    between atoms: C_40  and  C_52
   15  A    between atoms: C_40  and  C_58
   16  A    between atoms: C_43  and  C_45
   17  A    between atoms: C_45  and  C_62
   18  A    between atoms: C_46  and  C_60
   19  A    between atoms: C_47  and  C_60
   20  A    between atoms: N_49  and  C_54
   21  A    between atoms: C_51  and  C_54
   22  A    between atoms: O_53  and  C_58
   23  A    between atoms: C_62  and  C_66
                            x       y       z     vdW  Elec       q    Type
                         _______ _______ _______ _____ _____    ______ ____

>  <TORSDO>
F 23

$$$$
=
 OpenBabel11062422483D

 67 74  0  0  1  0  0  0  0  0999 V2000
  190.6480  175.5440  145.5960 C   0  0  1  0  0  3  0  0  0  0  0  0
  191.8420  177.2020  144.1710 O   0  0  0  0  0  0  0  0  0  0  0  0
  193.8900  176.2990  145.5960 O   0  0  0  0  0  0  0  0  0  0  0  0
  191.5310  175.0870  147.9660 C   0  0  0  0  0  2  0  0  0  0  0  0
  191.7770  175.8050  146.6360 C   0  0  1  0  0  3  0  0  0  0  0  0
  190.0540  175.1140  148.3420 C   0  0  0  0  0  2  0  0  0  0  0  0
  189.3160  174.4860  147.3270 O   0  0  0  0  0  0  0  0  0  0  0  0
  194.0250  176.0120  144.2320 C   0  0  1  0  0  3  0  0  0  0  0  0
  189.2670  175.4020  146.2710 C   0  0  0  0  0  2  0  0  0  0  0  0
  192.8730  176.5800  143.4730 C   0  0  0  0  0  0  0  0  0  0  0  0
  190.6080  176.5370  144.3930 C   0  0  2  0  0  3  0  0  0  0  0  0
  193.1050  175.2660  146.1180 C   0  0  0  0  0  2  0  0  0  0  0  0
  192.7880  176.4100  142.2250 O   0  0  0  0  0  0  0  0  0  0  0  0
  189.5090  177.5560  144.4430 C   0  0  0  0  0  3  0  0  0  0  0  0
  188.3460  177.2450  144.0040 N   0  0  0  0  0  0  0  0  0  0  0  0
  187.2870  178.2150  144.0030 C   0  0  0  0  0  2  0  0  0  0  0  0
  188.2700  178.5430  141.7600 C   0  0  0  0  0  2  0  0  0  0  0  0
  188.1320  177.5210  140.7920 O   0  0  0  0  0  0  0  0  0  0  0  0
  186.9910  178.6690  142.5750 C   0  0  1  0  0  3  0  0  0  0  0  0
  186.0170  177.7870  141.8100 C   0  0  0  0  0  0  0  0  0  0  0  0
  184.9360  177.1190  142.6630 C   0  0  0  0  0  1  0  0  0  0  0  0
  185.3050  178.6940  140.8090 C   0  0  0  0  0  1  0  0  0  0  0  0
  186.9680  176.7880  141.1170 C   0  0  1  0  0  0  0  0  0  0  0  0
  187.3310  175.7970  138.7850 C   0  0  0  0  0  1  0  0  0  0  0  0
  186.3190  176.2000  139.8450 C   0  0  0  0  0  2  0  0  0  0  0  0
  187.3440  175.6500  142.0900 C   0  0  0  0  0  2  0  0  0  0  0  0
  188.5410  174.8160  141.6500 C   0  0  0  0  0  2  0  0  0  0  0  0
  188.1310  173.3640  141.4870 C   0  0  0  0  0  2  0  0  0  0  0  0
  189.1530  172.6040  140.6630 C   0  0  0  0  0  2  0  0  0  0  0  0
  190.4450  173.3990  140.6240 C   0  0  0  0  0  2  0  0  0  0  0  0
  191.6270  172.4790  140.3870 C   0  0  1  0  0  3  0  0  0  0  0  0
  192.3550  172.8940  139.1520 C   0  0  0  0  0  3  0  0  0  0  0  0
  192.1640  173.9930  138.6600 O   0  0  0  0  0  0  0  0  0  0  0  0
  192.5690  172.5690  141.5750 C   0  0  0  0  0  2  0  0  0  0  0  0
  192.8500  171.9530  143.9940 C   0  0  0  0  0  1  0  0  0  0  0  0
  192.1920  171.5830  142.6770 C   0  0  0  0  0  3  0  0  0  0  0  0
  192.6540  170.2010  142.2760 C   0  0  0  0  0  1  0  0  0  0  0  0
  195.3480  176.5600  143.7230 C   0  0  0  0  0  2  0  0  0  0  0  0
  196.0150  175.5030  142.8640 C   0  0  1  0  0  3  0  0  0  0  0  0
  196.9400  176.0850  141.9860 O   0  0  0  0  0  0  0  0  0  0  0  0
  197.7720  173.9740  142.7350 C   0  0  2  0  0  3  0  0  0  0  0  0
  196.7410  174.4850  143.7000 C   0  0  0  0  0  2  0  0  0  0  0  0
  197.9270  175.1120  141.7430 C   0  0  0  0  0  2  0  0  0  0  0  0
  197.3280  172.6840  142.0110 C   0  0  2  0  0  3  0  0  0  0  0  0
  195.5780  173.0930  140.4000 C   0  0  0  0  0  2  0  0  0  0  0  0
  196.2620  173.2810  137.6080 C   0  0  0  0  0  1  0  0  0  0  0  0
  196.8400  170.2310  138.1630 N   0  0  0  0  0  0  0  0  0  0  0  0
  197.0100  172.9460  140.5810 N   0  0  0  0  0  0  0  0  0  0  0  0
  195.9490  172.0250  138.4240 C   0  0  2  0  0  0  0  0  0  0  0  0
  197.1750  171.4980  138.7770 C   0  0  1  0  0  3  0  0  0  0  0  0
  194.6310  170.2670  136.8770 N   0  0  0  0  0  2  0  0  0  0  0  0
  195.7010  170.7510  137.6870 C   0  0  0  0  0  0  0  0  0  0  0  0
  196.2410  171.8490  139.9370 C   0  0  2  0  0  0  0  0  0  0  0  0
  194.6670  168.9770  136.3320 N   0  0  0  0  0  2  0  0  0  0  0  0
  193.3850  168.7360  135.6980 C   0  0  0  0  0  2  0  0  0  0  0  0
  191.5360  168.1730  137.2050 C   0  0  0  0  0  3  0  0  0  0  0  0
  191.3350  170.1360  135.6820 C   0  0  0  0  0  2  0  0  0  0  0  0
  189.4730  170.4820  137.3530 C   0  0  0  0  0  2  0  0  0  0  0  0
  190.5570  171.1450  136.5140 C   0  0  0  0  0  2  0  0  0  0  0  0
  190.5490  168.3570  138.0930 C   0  0  0  0  0  3  0  0  0  0  0  0
  192.2730  169.3090  136.5560 C   0  0  2  0  0  3  0  0  0  0  0  0
  190.0770  169.7160  138.5230 C   0  0  0  0  0  2  0  0  0  0  0  0
  196.3530  171.7780  142.8160 C   0  0  1  0  0  3  0  0  0  0  0  0
  195.9070  170.7280  142.0110 O   0  0  0  0  0  1  0  0  0  0  0  0
  196.9630  171.1960  144.0880 C   0  0  0  0  0  2  0  0  0  0  0  0
  195.8970  170.7350  145.9710 C   0  0  0  0  0  1  0  0  0  0  0  0
  196.0960  170.2650  144.6710 O   0  0  0  0  0  0  0  0  0  0  0  0
  1  9  1  1  0  0  0
  1  5  1  0  0  0  0
  2 11  1  0  0  0  0
  3 12  1  0  0  0  0
  4  6  1  0  0  0  0
  5 12  1  6  0  0  0
  5  4  1  0  0  0  0
  7  6  1  0  0  0  0
  8 38  1  6  0  0  0
  8  3  1  0  0  0  0
  9  7  1  0  0  0  0
 10  2  1  0  0  0  0
 10  8  1  0  0  0  0
 11 14  1  1  0  0  0
 11  1  1  0  0  0  0
 13 10  2  0  0  0  0
 15 14  2  0  0  0  0
 16 15  1  0  0  0  0
 17 19  1  0  0  0  0
 18 23  1  0  0  0  0
 18 17  1  0  0  0  0
 19 16  1  1  0  0  0
 20 19  1  0  0  0  0
 20 21  1  0  0  0  0
 22 20  1  0  0  0  0
 23 25  1  6  0  0  0
 23 20  1  0  0  0  0
 23 26  1  0  0  0  0
 24 25  1  0  0  0  0
 27 26  1  0  0  0  0
 28 27  1  0  0  0  0
 29 28  1  0  0  0  0
 30 29  1  0  0  0  0
 31 32  1  6  0  0  0
 31 30  1  0  0  0  0
 31 34  1  0  0  0  0
 33 32  2  0  0  0  0
 34 36  1  0  0  0  0
 36 35  1  0  0  0  0
 37 36  1  0  0  0  0
 39 42  1  0  0  0  0
 39 38  1  1  0  0  0
 40 39  1  0  0  0  0
 41 44  1  6  0  0  0
 41 42  1  0  0  0  0
 43 40  1  0  0  0  0
 43 41  1  0  0  0  0
 44 63  1  1  0  0  0
 45 48  1  0  0  0  0
 48 44  1  0  0  0  0
 49 46  1  6  0  0  0
 49 50  1  0  0  0  0
 49 53  1  0  0  0  0
 50 47  1  6  0  0  0
 50 53  1  0  0  0  0
 51 52  1  0  0  0  0
 52 47  2  0  0  0  0
 52 49  1  0  0  0  0
 53 45  1  1  0  0  0
 53 48  1  0  0  0  0
 54 51  1  0  0  0  0
 55 54  1  0  0  0  0
 56 60  2  0  0  0  0
 57 59  1  0  0  0  0
 57 61  1  0  0  0  0
 58 62  1  0  0  0  0
 59 58  1  0  0  0  0
 60 62  1  0  0  0  0
 61 55  1  6  0  0  0
 61 56  1  0  0  0  0
 63 64  1  6  0  0  0
 63 65  1  0  0  0  0
 65 67  1  0  0  0  0
 67 66  1  0  0  0  0
M  END
>  <MODEL>
9

>  <REMARK>
 VINA RESULT:      -3.0      2.441     10.487
  Name = 
  23 active torsions:
  status: ('A' for Active; 'I' for Inactive)
    1  A    between atoms: C_1  and  C_47
    2  A    between atoms: C_4  and  C_61
    3  A    between atoms: C_12  and  C_56
    4  A    between atoms: C_19  and  C_52
    5  A    between atoms: N_21  and  C_52
    6  A    between atoms: C_22  and  C_43
    7  A    between atoms: C_22  and  C_59
    8  A    between atoms: C_25  and  C_61
    9  A    between atoms: C_30  and  C_47
   10  A    between atoms: C_30  and  C_59
   11  A    between atoms: N_31  and  N_49
   12  A    between atoms: C_34  and  C_37
   13  A    between atoms: C_37  and  N_39
   14  A    between atoms: C_40  and  C_52
   15  A    between atoms: C_40  and  C_58
   16  A    between atoms: C_43  and  C_45
   17  A    between atoms: C_45  and  C_62
   18  A    between atoms: C_46  and  C_60
   19  A    between atoms: C_47  and  C_60
   20  A    between atoms: N_49  and  C_54
   21  A    between atoms: C_51  and  C_54
   22  A    between atoms: O_53  and  C_58
   23  A    between atoms: C_62  and  C_66
                            x       y       z     vdW  Elec       q    Type
                         _______ _______ _______ _____ _____    ______ ____

>  <TORSDO>
F 23

$$$$
