=
 OpenBabel11062421123D

 33 37  0  0  1  0  0  0  0  0999 V2000
  190.7470  176.9640  146.9540 C   0  0  0  0  0  0  0  0  0  0  0  0
  189.3950  178.6690  148.1290 C   0  0  0  0  0  1  0  0  0  0  0  0
  186.4000  177.4370  144.1930 C   0  0  0  0  0  0  0  0  0  0  0  0
  189.2990  177.0240  145.1600 C   0  0  0  0  0  0  0  0  0  0  0  0
  191.8510  176.5550  144.8290 C   0  0  0  0  0  0  0  0  0  0  0  0
  187.5220  177.7330  143.5030 C   0  0  0  0  0  0  0  0  0  0  0  0
  189.4190  177.2510  147.5810 C   0  0  1  0  0  3  0  0  0  0  0  0
  188.5140  177.1490  146.3930 C   0  0  0  0  0  0  0  0  0  0  0  0
  193.0650  176.4680  146.9110 N   0  0  0  0  0  0  0  0  0  0  0  0
  193.0510  176.3540  145.5510 C   0  0  0  0  0  0  0  0  0  0  0  0
  187.2090  176.9180  146.5010 C   0  0  0  0  0  3  0  0  0  0  0  0
  188.8830  177.3000  143.9180 C   0  0  0  0  0  3  0  0  0  0  0  0
  190.6910  176.8510  145.5760 C   0  0  0  0  0  0  0  0  0  0  0  0
  186.3900  176.4690  145.3390 C   0  0  0  0  0  2  0  0  0  0  0  0
  191.9470  176.7650  147.6280 C   0  0  0  0  0  3  0  0  0  0  0  0
  194.2680  176.0580  144.8720 N   0  0  0  0  0  1  0  0  0  0  0  0
  184.2640  178.7110  144.7680 C   0  0  0  0  0  2  0  0  0  0  0  0
  185.0260  179.4120  143.8070 O   0  0  0  0  0  0  0  0  0  0  0  0
  185.0810  178.0080  143.7600 C   0  0  1  0  0  0  0  0  0  0  0  0
  184.4210  177.4870  142.6630 F   0  0  0  0  0  0  0  0  0  0  0  0
  191.8650  177.4780  142.6460 O   0  0  0  0  0  0  0  0  0  0  0  0
  191.8410  176.4390  143.3590 C   0  0  0  0  0  0  0  0  0  0  0  0
  191.9130  175.1710  142.7700 O   0  0  0  0  0  0  0  0  0  0  0  0
  192.5650  173.0620  144.6210 O   0  0  0  0  0  1  0  0  0  0  0  0
  189.8190  174.0700  142.3500 C   0  0  0  0  0  3  0  0  0  0  0  0
  191.3390  173.0940  143.9670 C   0  0  0  0  0  0  0  0  0  0  0  0
  188.9040  173.0410  142.5870 C   0  0  0  0  0  0  0  0  0  0  0  0
  189.2010  172.0450  143.5200 C   0  0  0  0  0  3  0  0  0  0  0  0
  187.6140  173.0080  141.8500 C   0  0  0  0  0  1  0  0  0  0  0  0
  191.0310  174.1190  143.0470 C   0  0  0  0  0  0  0  0  0  0  0  0
  190.4170  172.0700  144.2050 C   0  0  0  0  0  3  0  0  0  0  0  0
  187.3950  178.4960  142.3350 O   0  0  0  0  0  0  0  0  0  0  0  0
  187.4720  177.9360  141.0310 C   0  0  0  0  0  1  0  0  0  0  0  0
  1  7  1  0  0  0  0
  1 15  1  0  0  0  0
  3 14  1  0  0  0  0
  4 13  1  0  0  0  0
  4  8  1  0  0  0  0
  5 10  2  0  0  0  0
  5 13  1  0  0  0  0
  6 12  1  0  0  0  0
  6  3  2  0  0  0  0
  7  2  1  6  0  0  0
  8 11  2  0  0  0  0
  8  7  1  0  0  0  0
  9 15  2  0  0  0  0
 10  9  1  0  0  0  0
 12  4  2  0  0  0  0
 13  1  2  0  0  0  0
 14 11  1  0  0  0  0
 16 10  1  0  0  0  0
 18 17  1  0  0  0  0
 19 20  1  6  0  0  0
 19 18  1  0  0  0  0
 19  3  1  0  0  0  0
 19 17  1  0  0  0  0
 21 22  2  0  0  0  0
 22  5  1  0  0  0  0
 23 30  1  0  0  0  0
 23 22  1  0  0  0  0
 25 27  2  0  0  0  0
 25 30  1  0  0  0  0
 26 31  1  0  0  0  0
 26 24  1  0  0  0  0
 27 28  1  0  0  0  0
 28 31  2  0  0  0  0
 29 27  1  0  0  0  0
 30 26  2  0  0  0  0
 32  6  1  0  0  0  0
 33 32  1  0  0  0  0
M  END
>  <MODEL>
1

>  <REMARK>
 VINA RESULT:      -7.7      0.000      0.000
  Name = 
  5 active torsions:
  status: ('A' for Active; 'I' for Inactive)
    1  A    between atoms: C_5  and  C_18
    2  A    between atoms: C_9  and  C_14
    3  A    between atoms: C_10  and  O_20
    4  A    between atoms: O_11  and  C_14
    5  A    between atoms: O_11  and  C_27
                            x       y       z     vdW  Elec       q    Type
                         _______ _______ _______ _____ _____    ______ ____

>  <TORSDO>
F 5

$$$$
=
 OpenBabel11062421123D

 33 37  0  0  1  0  0  0  0  0999 V2000
  185.4670  177.9080  144.3970 C   0  0  0  0  0  0  0  0  0  0  0  0
  184.9090  176.7700  146.5190 C   0  0  0  0  0  1  0  0  0  0  0  0
  190.0050  176.6570  146.5380 C   0  0  0  0  0  0  0  0  0  0  0  0
  187.6750  177.2770  144.6160 C   0  0  0  0  0  0  0  0  0  0  0  0
  186.5570  177.5100  142.2630 C   0  0  0  0  0  0  0  0  0  0  0  0
  189.7990  176.0990  145.3270 C   0  0  0  0  0  0  0  0  0  0  0  0
  185.6890  177.9050  145.8770 C   0  0  1  0  0  3  0  0  0  0  0  0
  187.1560  177.6180  145.9450 C   0  0  0  0  0  0  0  0  0  0  0  0
  184.2740  178.2750  142.3810 N   0  0  0  0  0  0  0  0  0  0  0  0
  185.3550  177.9070  141.6330 C   0  0  0  0  0  0  0  0  0  0  0  0
  187.8980  177.9190  147.0070 C   0  0  0  0  0  3  0  0  0  0  0  0
  188.7970  176.6000  144.3480 C   0  0  0  0  0  3  0  0  0  0  0  0
  186.5860  177.5340  143.6730 C   0  0  0  0  0  0  0  0  0  0  0  0
  189.3870  177.9640  146.9400 C   0  0  0  0  0  2  0  0  0  0  0  0
  184.3000  178.2870  143.7420 C   0  0  0  0  0  3  0  0  0  0  0  0
  185.2410  177.9040  140.2130 N   0  0  0  0  0  1  0  0  0  0  0  0
  192.3880  176.3710  147.4080 C   0  0  0  0  0  2  0  0  0  0  0  0
  191.5520  176.9240  148.4020 O   0  0  0  0  0  0  0  0  0  0  0  0
  190.9590  176.0180  147.5060 C   0  0  1  0  0  0  0  0  0  0  0  0
  190.6450  174.8110  148.1010 F   0  0  0  0  0  0  0  0  0  0  0  0
  188.8440  177.6440  141.6500 O   0  0  0  0  0  0  0  0  0  0  0  0
  187.7220  177.1060  141.4510 C   0  0  0  0  0  0  0  0  0  0  0  0
  187.5910  176.0500  140.5410 O   0  0  0  0  0  0  0  0  0  0  0  0
  188.5620  174.5590  138.2750 O   0  0  0  0  0  1  0  0  0  0  0  0
  188.3220  174.2520  141.9580 C   0  0  0  0  0  3  0  0  0  0  0  0
  188.7130  174.0820  139.5720 C   0  0  0  0  0  0  0  0  0  0  0  0
  188.9390  173.0130  142.1490 C   0  0  0  0  0  0  0  0  0  0  0  0
  189.4510  172.3130  141.0550 C   0  0  0  0  0  3  0  0  0  0  0  0
  189.0520  172.4420  143.5160 C   0  0  0  0  0  1  0  0  0  0  0  0
  188.2200  174.8060  140.6770 C   0  0  0  0  0  0  0  0  0  0  0  0
  189.3350  172.8450  139.7690 C   0  0  0  0  0  3  0  0  0  0  0  0
  190.5680  174.9800  144.9770 O   0  0  0  0  0  0  0  0  0  0  0  0
  191.5780  175.0160  143.9770 C   0  0  0  0  0  1  0  0  0  0  0  0
  1  7  1  0  0  0  0
  3 14  1  0  0  0  0
  3 19  1  0  0  0  0
  4  8  1  0  0  0  0
  5 13  1  0  0  0  0
  6  3  2  0  0  0  0
  7  8  1  0  0  0  0
  7  2  1  1  0  0  0
  8 11  2  0  0  0  0
  9 15  2  0  0  0  0
 10  5  2  0  0  0  0
 10  9  1  0  0  0  0
 12  4  2  0  0  0  0
 12  6  1  0  0  0  0
 13  1  2  0  0  0  0
 13  4  1  0  0  0  0
 14 11  1  0  0  0  0
 15  1  1  0  0  0  0
 16 10  1  0  0  0  0
 17 19  1  0  0  0  0
 17 18  1  0  0  0  0
 19 20  1  1  0  0  0
 19 18  1  0  0  0  0
 22 21  2  0  0  0  0
 22  5  1  0  0  0  0
 23 30  1  0  0  0  0
 23 22  1  0  0  0  0
 24 26  1  0  0  0  0
 25 27  1  0  0  0  0
 26 31  2  0  0  0  0
 26 30  1  0  0  0  0
 27 29  1  0  0  0  0
 28 27  2  0  0  0  0
 30 25  2  0  0  0  0
 31 28  1  0  0  0  0
 32  6  1  0  0  0  0
 33 32  1  0  0  0  0
M  END
>  <MODEL>
2

>  <REMARK>
 VINA RESULT:      -7.7      3.554      5.716
  Name = 
  5 active torsions:
  status: ('A' for Active; 'I' for Inactive)
    1  A    between atoms: C_5  and  C_18
    2  A    between atoms: C_9  and  C_14
    3  A    between atoms: C_10  and  O_20
    4  A    between atoms: O_11  and  C_14
    5  A    between atoms: O_11  and  C_27
                            x       y       z     vdW  Elec       q    Type
                         _______ _______ _______ _____ _____    ______ ____

>  <TORSDO>
F 5

$$$$
=
 OpenBabel11062421123D

 33 37  0  0  1  0  0  0  0  0999 V2000
  189.5960  174.3790  141.5510 C   0  0  0  0  0  0  0  0  0  0  0  0
  187.6720  172.9190  142.0800 C   0  0  0  0  0  1  0  0  0  0  0  0
  186.6390  177.1000  144.8060 C   0  0  0  0  0  0  0  0  0  0  0  0
  188.9630  175.8480  143.2130 C   0  0  0  0  0  0  0  0  0  0  0  0
  191.4820  175.4860  142.6080 C   0  0  0  0  0  0  0  0  0  0  0  0
  187.8870  176.8690  145.2640 C   0  0  0  0  0  0  0  0  0  0  0  0
  188.1030  174.2810  141.5600 C   0  0  1  0  0  3  0  0  0  0  0  0
  187.7530  175.3410  142.5580 C   0  0  0  0  0  0  0  0  0  0  0  0
  191.7940  173.9600  140.7680 N   0  0  0  0  0  0  0  0  0  0  0  0
  192.3240  174.8110  141.6940 C   0  0  0  0  0  0  0  0  0  0  0  0
  186.5540  175.9130  142.6070 C   0  0  0  0  0  3  0  0  0  0  0  0
  189.0270  176.4820  144.3900 C   0  0  0  0  0  3  0  0  0  0  0  0
  190.0940  175.2550  142.5000 C   0  0  0  0  0  0  0  0  0  0  0  0
  186.3190  177.1890  143.3430 C   0  0  0  0  0  2  0  0  0  0  0  0
  190.4560  173.7290  140.6730 C   0  0  0  0  0  3  0  0  0  0  0  0
  193.7370  174.9850  141.7410 N   0  0  0  0  0  1  0  0  0  0  0  0
  185.2950  178.7760  146.1850 C   0  0  0  0  0  2  0  0  0  0  0  0
  184.4750  178.1380  145.2290 O   0  0  0  0  0  0  0  0  0  0  0  0
  185.5250  177.3780  145.7730 C   0  0  1  0  0  0  0  0  0  0  0  0
  185.0760  176.3860  146.6250 F   0  0  0  0  0  0  0  0  0  0  0  0
  192.1600  177.6310  143.3590 O   0  0  0  0  0  0  0  0  0  0  0  0
  192.0590  176.4000  143.6130 C   0  0  0  0  0  0  0  0  0  0  0  0
  192.3880  175.9060  144.8810 O   0  0  0  0  0  0  0  0  0  0  0  0
  195.0290  177.0020  145.2410 O   0  0  0  0  0  1  0  0  0  0  0  0
  193.3250  173.7140  145.1870 C   0  0  0  0  0  3  0  0  0  0  0  0
  194.7940  175.6360  145.3470 C   0  0  0  0  0  0  0  0  0  0  0  0
  194.4030  172.8660  145.4510 C   0  0  0  0  0  0  0  0  0  0  0  0
  195.6740  173.4020  145.6710 C   0  0  0  0  0  3  0  0  0  0  0  0
  194.1980  171.3950  145.4980 C   0  0  0  0  0  1  0  0  0  0  0  0
  193.5030  175.1020  145.1510 C   0  0  0  0  0  0  0  0  0  0  0  0
  195.8680  174.7830  145.6160 C   0  0  0  0  0  3  0  0  0  0  0  0
  188.1180  176.9940  146.6400 O   0  0  0  0  0  0  0  0  0  0  0  0
  189.3500  177.4520  147.1810 C   0  0  0  0  0  1  0  0  0  0  0  0
  1  7  1  0  0  0  0
  1 13  1  0  0  0  0
  3  6  2  0  0  0  0
  3 19  1  0  0  0  0
  4 12  2  0  0  0  0
  5 22  1  0  0  0  0
  6 32  1  0  0  0  0
  7  2  1  1  0  0  0
  7  8  1  0  0  0  0
  8 11  2  0  0  0  0
  8  4  1  0  0  0  0
  9 10  2  0  0  0  0
 10 16  1  0  0  0  0
 10  5  1  0  0  0  0
 11 14  1  0  0  0  0
 12  6  1  0  0  0  0
 13  5  2  0  0  0  0
 13  4  1  0  0  0  0
 14  3  1  0  0  0  0
 15  9  1  0  0  0  0
 15  1  2  0  0  0  0
 18 19  1  0  0  0  0
 18 17  1  0  0  0  0
 19 17  1  0  0  0  0
 19 20  1  1  0  0  0
 21 22  2  0  0  0  0
 22 23  1  0  0  0  0
 23 30  1  0  0  0  0
 24 26  1  0  0  0  0
 25 27  1  0  0  0  0
 26 31  2  0  0  0  0
 27 29  1  0  0  0  0
 27 28  2  0  0  0  0
 30 25  2  0  0  0  0
 30 26  1  0  0  0  0
 31 28  1  0  0  0  0
 32 33  1  0  0  0  0
M  END
>  <MODEL>
3

>  <REMARK>
 VINA RESULT:      -7.6      2.475      4.662
  Name = 
  5 active torsions:
  status: ('A' for Active; 'I' for Inactive)
    1  A    between atoms: C_5  and  C_18
    2  A    between atoms: C_9  and  C_14
    3  A    between atoms: C_10  and  O_20
    4  A    between atoms: O_11  and  C_14
    5  A    between atoms: O_11  and  C_27
                            x       y       z     vdW  Elec       q    Type
                         _______ _______ _______ _____ _____    ______ ____

>  <TORSDO>
F 5

$$$$
=
 OpenBabel11062421123D

 33 37  0  0  1  0  0  0  0  0999 V2000
  190.5750  176.1680  146.7970 C   0  0  0  0  0  0  0  0  0  0  0  0
  189.9020  178.2410  147.9650 C   0  0  0  0  0  1  0  0  0  0  0  0
  186.4160  177.9040  144.2620 C   0  0  0  0  0  0  0  0  0  0  0  0
  189.1000  176.6310  145.0850 C   0  0  0  0  0  0  0  0  0  0  0  0
  191.3520  175.3770  144.6360 C   0  0  0  0  0  0  0  0  0  0  0  0
  187.5250  177.8160  143.4980 C   0  0  0  0  0  0  0  0  0  0  0  0
  189.4470  176.8730  147.4830 C   0  0  1  0  0  3  0  0  0  0  0  0
  188.4780  177.0280  146.3520 C   0  0  0  0  0  0  0  0  0  0  0  0
  192.6150  174.9690  146.6490 N   0  0  0  0  0  0  0  0  0  0  0  0
  192.4760  174.8300  145.2980 C   0  0  0  0  0  0  0  0  0  0  0  0
  187.1760  177.2200  146.5430 C   0  0  0  0  0  3  0  0  0  0  0  0
  188.7090  176.9900  143.8570 C   0  0  0  0  0  3  0  0  0  0  0  0
  190.3940  176.0420  145.4310 C   0  0  0  0  0  0  0  0  0  0  0  0
  186.1820  177.0190  145.4500 C   0  0  0  0  0  2  0  0  0  0  0  0
  191.6960  175.6210  147.4120 C   0  0  0  0  0  3  0  0  0  0  0  0
  193.4920  174.1490  144.5670 N   0  0  0  0  0  1  0  0  0  0  0  0
  184.2070  178.3260  143.0530 C   0  0  0  0  0  2  0  0  0  0  0  0
  184.0680  178.5290  144.4430 O   0  0  0  0  0  0  0  0  0  0  0  0
  185.3140  178.8480  143.8770 C   0  0  1  0  0  0  0  0  0  0  0  0
  185.5440  180.2110  143.8350 F   0  0  0  0  0  0  0  0  0  0  0  0
  191.7190  176.0870  142.4040 O   0  0  0  0  0  0  0  0  0  0  0  0
  191.2080  175.2310  143.1750 C   0  0  0  0  0  0  0  0  0  0  0  0
  190.5950  174.0830  142.6570 O   0  0  0  0  0  0  0  0  0  0  0  0
  187.8660  174.4480  141.8090 O   0  0  0  0  0  1  0  0  0  0  0  0
  191.1610  173.5330  140.3870 C   0  0  0  0  0  3  0  0  0  0  0  0
  188.8670  174.1280  140.9000 C   0  0  0  0  0  0  0  0  0  0  0  0
  190.8180  173.3670  139.0420 C   0  0  0  0  0  0  0  0  0  0  0  0
  189.5050  173.5900  138.6240 C   0  0  0  0  0  3  0  0  0  0  0  0
  191.8520  172.9550  138.0570 C   0  0  0  0  0  1  0  0  0  0  0  0
  190.1990  173.9320  141.3220 C   0  0  0  0  0  0  0  0  0  0  0  0
  188.5310  173.9660  139.5520 C   0  0  0  0  0  3  0  0  0  0  0  0
  187.5640  178.5500  142.3040 O   0  0  0  0  0  0  0  0  0  0  0  0
  187.5300  177.9420  141.0200 C   0  0  0  0  0  1  0  0  0  0  0  0
  1 15  1  0  0  0  0
  1  7  1  0  0  0  0
  3 14  1  0  0  0  0
  4 13  1  0  0  0  0
  4  8  1  0  0  0  0
  5 10  2  0  0  0  0
  5 13  1  0  0  0  0
  6 12  1  0  0  0  0
  6  3  2  0  0  0  0
  7  2  1  6  0  0  0
  8 11  2  0  0  0  0
  8  7  1  0  0  0  0
  9 15  2  0  0  0  0
 10  9  1  0  0  0  0
 12  4  2  0  0  0  0
 13  1  2  0  0  0  0
 14 11  1  0  0  0  0
 16 10  1  0  0  0  0
 17 19  1  0  0  0  0
 17 18  1  0  0  0  0
 19 20  1  6  0  0  0
 19  3  1  0  0  0  0
 19 18  1  0  0  0  0
 21 22  2  0  0  0  0
 22  5  1  0  0  0  0
 23 22  1  0  0  0  0
 25 30  1  0  0  0  0
 26 30  2  0  0  0  0
 26 24  1  0  0  0  0
 27 25  2  0  0  0  0
 28 27  1  0  0  0  0
 28 31  2  0  0  0  0
 29 27  1  0  0  0  0
 30 23  1  0  0  0  0
 31 26  1  0  0  0  0
 32  6  1  0  0  0  0
 33 32  1  0  0  0  0
M  END
>  <MODEL>
4

>  <REMARK>
 VINA RESULT:      -7.5      1.906      2.466
  Name = 
  5 active torsions:
  status: ('A' for Active; 'I' for Inactive)
    1  A    between atoms: C_5  and  C_18
    2  A    between atoms: C_9  and  C_14
    3  A    between atoms: C_10  and  O_20
    4  A    between atoms: O_11  and  C_14
    5  A    between atoms: O_11  and  C_27
                            x       y       z     vdW  Elec       q    Type
                         _______ _______ _______ _____ _____    ______ ____

>  <TORSDO>
F 5

$$$$
=
 OpenBabel11062421123D

 33 37  0  0  1  0  0  0  0  0999 V2000
  188.1400  176.4710  145.9490 C   0  0  0  0  0  0  0  0  0  0  0  0
  189.0670  174.9150  147.6310 C   0  0  0  0  0  1  0  0  0  0  0  0
  192.9870  175.5060  144.4280 C   0  0  0  0  0  0  0  0  0  0  0  0
  189.9710  176.1230  144.5890 C   0  0  0  0  0  0  0  0  0  0  0  0
  187.6050  176.6050  143.5830 C   0  0  0  0  0  0  0  0  0  0  0  0
  192.0490  175.1450  143.5280 C   0  0  0  0  0  0  0  0  0  0  0  0
  189.2590  176.2410  146.9150 C   0  0  1  0  0  3  0  0  0  0  0  0
  190.4270  176.1530  145.9830 C   0  0  0  0  0  0  0  0  0  0  0  0
  185.9340  177.0140  145.2720 N   0  0  0  0  0  0  0  0  0  0  0  0
  186.2810  176.9350  143.9540 C   0  0  0  0  0  0  0  0  0  0  0  0
  191.6790  176.3640  146.3780 C   0  0  0  0  0  3  0  0  0  0  0  0
  190.6560  175.6650  143.5350 C   0  0  0  0  0  3  0  0  0  0  0  0
  188.5320  176.3870  144.6240 C   0  0  0  0  0  0  0  0  0  0  0  0
  192.7790  176.6250  145.4050 C   0  0  0  0  0  2  0  0  0  0  0  0
  186.8260  176.7920  146.2750 C   0  0  0  0  0  3  0  0  0  0  0  0
  185.2820  177.1630  142.9640 N   0  0  0  0  0  1  0  0  0  0  0  0
  195.4070  175.4750  143.6130 C   0  0  0  0  0  2  0  0  0  0  0  0
  195.3500  175.6100  145.0170 O   0  0  0  0  0  0  0  0  0  0  0  0
  194.3360  174.8470  144.4110 C   0  0  1  0  0  0  0  0  0  0  0  0
  194.4570  173.4970  144.6790 F   0  0  0  0  0  0  0  0  0  0  0  0
  188.7570  177.3650  141.6550 O   0  0  0  0  0  0  0  0  0  0  0  0
  187.9750  176.5130  142.1580 C   0  0  0  0  0  0  0  0  0  0  0  0
  187.5380  175.4170  141.4040 O   0  0  0  0  0  0  0  0  0  0  0  0
  188.1900  174.5410  138.7380 O   0  0  0  0  0  1  0  0  0  0  0  0
  188.7110  173.4990  142.2530 C   0  0  0  0  0  3  0  0  0  0  0  0
  188.6410  173.8480  139.8550 C   0  0  0  0  0  0  0  0  0  0  0  0
  189.4750  172.3450  142.0650 C   0  0  0  0  0  0  0  0  0  0  0  0
  189.8300  171.9470  140.7740 C   0  0  0  0  0  3  0  0  0  0  0  0
  189.9120  171.5430  143.2370 C   0  0  0  0  0  1  0  0  0  0  0  0
  188.3040  174.2700  141.1590 C   0  0  0  0  0  0  0  0  0  0  0  0
  189.4110  172.6960  139.6720 C   0  0  0  0  0  3  0  0  0  0  0  0
  192.4090  174.2220  142.5360 O   0  0  0  0  0  0  0  0  0  0  0  0
  192.4580  174.5490  141.1540 C   0  0  0  0  0  1  0  0  0  0  0  0
  1 15  1  0  0  0  0
  1  7  1  0  0  0  0
  3 14  1  0  0  0  0
  4 13  1  0  0  0  0
  4  8  1  0  0  0  0
  5 10  2  0  0  0  0
  5 13  1  0  0  0  0
  6 12  1  0  0  0  0
  6  3  2  0  0  0  0
  7  2  1  6  0  0  0
  8 11  2  0  0  0  0
  8  7  1  0  0  0  0
  9 15  2  0  0  0  0
 10  9  1  0  0  0  0
 12  4  2  0  0  0  0
 13  1  2  0  0  0  0
 14 11  1  0  0  0  0
 16 10  1  0  0  0  0
 17 19  1  0  0  0  0
 17 18  1  0  0  0  0
 19  3  1  0  0  0  0
 19 20  1  1  0  0  0
 19 18  1  0  0  0  0
 21 22  2  0  0  0  0
 22  5  1  0  0  0  0
 23 22  1  0  0  0  0
 24 26  1  0  0  0  0
 26 30  1  0  0  0  0
 27 25  1  0  0  0  0
 27 29  1  0  0  0  0
 28 27  2  0  0  0  0
 30 23  1  0  0  0  0
 30 25  2  0  0  0  0
 31 26  2  0  0  0  0
 31 28  1  0  0  0  0
 32  6  1  0  0  0  0
 33 32  1  0  0  0  0
M  END
>  <MODEL>
5

>  <REMARK>
 VINA RESULT:      -7.3      3.390      5.904
  Name = 
  5 active torsions:
  status: ('A' for Active; 'I' for Inactive)
    1  A    between atoms: C_5  and  C_18
    2  A    between atoms: C_9  and  C_14
    3  A    between atoms: C_10  and  O_20
    4  A    between atoms: O_11  and  C_14
    5  A    between atoms: O_11  and  C_27
                            x       y       z     vdW  Elec       q    Type
                         _______ _______ _______ _____ _____    ______ ____

>  <TORSDO>
F 5

$$$$
=
 OpenBabel11062421123D

 33 37  0  0  1  0  0  0  0  0999 V2000
  190.0180  176.9230  146.5760 C   0  0  0  0  0  0  0  0  0  0  0  0
  191.1610  175.2910  148.0390 C   0  0  0  0  0  1  0  0  0  0  0  0
  194.3160  175.5590  144.0440 C   0  0  0  0  0  0  0  0  0  0  0  0
  191.4700  176.4260  144.8540 C   0  0  0  0  0  0  0  0  0  0  0  0
  188.9890  177.1080  144.3830 C   0  0  0  0  0  0  0  0  0  0  0  0
  193.1760  175.2790  143.3780 C   0  0  0  0  0  0  0  0  0  0  0  0
  191.3000  176.5980  147.2770 C   0  0  1  0  0  3  0  0  0  0  0  0
  192.2230  176.4140  146.1120 C   0  0  0  0  0  0  0  0  0  0  0  0
  187.7700  177.6520  146.3910 N   0  0  0  0  0  0  0  0  0  0  0  0
  187.8100  177.5470  145.0310 C   0  0  0  0  0  0  0  0  0  0  0  0
  193.5440  176.5180  146.2200 C   0  0  0  0  0  3  0  0  0  0  0  0
  191.8660  175.9150  143.6830 C   0  0  0  0  0  3  0  0  0  0  0  0
  190.1010  176.8100  145.1990 C   0  0  0  0  0  0  0  0  0  0  0  0
  194.4200  176.6880  145.0250 C   0  0  0  0  0  2  0  0  0  0  0  0
  188.8400  177.3540  147.1770 C   0  0  0  0  0  3  0  0  0  0  0  0
  186.6410  177.8610  144.2800 N   0  0  0  0  0  1  0  0  0  0  0  0
  196.4900  175.3310  142.7260 C   0  0  0  0  0  2  0  0  0  0  0  0
  196.7490  175.4570  144.1080 O   0  0  0  0  0  0  0  0  0  0  0  0
  195.5680  174.7880  143.7430 C   0  0  1  0  0  0  0  0  0  0  0  0
  195.6300  173.4300  143.9910 F   0  0  0  0  0  0  0  0  0  0  0  0
  189.7520  177.7680  142.2380 O   0  0  0  0  0  0  0  0  0  0  0  0
  189.0270  176.9890  142.9130 C   0  0  0  0  0  0  0  0  0  0  0  0
  188.3400  175.9390  142.2910 O   0  0  0  0  0  0  0  0  0  0  0  0
  188.5670  174.5410  139.7820 O   0  0  0  0  0  1  0  0  0  0  0  0
  189.1280  173.9570  143.3960 C   0  0  0  0  0  3  0  0  0  0  0  0
  188.9430  173.9420  140.9790 C   0  0  0  0  0  0  0  0  0  0  0  0
  189.6040  172.6430  143.3690 C   0  0  0  0  0  0  0  0  0  0  0  0
  189.7570  171.9820  142.1490 C   0  0  0  0  0  3  0  0  0  0  0  0
  189.9470  171.9500  144.6380 C   0  0  0  0  0  1  0  0  0  0  0  0
  188.8130  174.6240  142.2070 C   0  0  0  0  0  0  0  0  0  0  0  0
  189.4250  172.6290  140.9570 C   0  0  0  0  0  3  0  0  0  0  0  0
  193.2310  174.3320  142.3470 O   0  0  0  0  0  0  0  0  0  0  0  0
  192.6420  174.5410  141.0700 C   0  0  0  0  0  1  0  0  0  0  0  0
  1 15  1  0  0  0  0
  1  7  1  0  0  0  0
  3 14  1  0  0  0  0
  4 13  1  0  0  0  0
  4  8  1  0  0  0  0
  5 10  2  0  0  0  0
  5 13  1  0  0  0  0
  6 12  1  0  0  0  0
  6  3  2  0  0  0  0
  7  2  1  6  0  0  0
  8 11  2  0  0  0  0
  8  7  1  0  0  0  0
  9 15  2  0  0  0  0
 10  9  1  0  0  0  0
 12  4  2  0  0  0  0
 13  1  2  0  0  0  0
 14 11  1  0  0  0  0
 16 10  1  0  0  0  0
 17 19  1  0  0  0  0
 17 18  1  0  0  0  0
 19 20  1  1  0  0  0
 19  3  1  0  0  0  0
 19 18  1  0  0  0  0
 21 22  2  0  0  0  0
 22  5  1  0  0  0  0
 23 22  1  0  0  0  0
 24 26  1  0  0  0  0
 26 30  1  0  0  0  0
 27 25  1  0  0  0  0
 27 29  1  0  0  0  0
 28 27  2  0  0  0  0
 30 23  1  0  0  0  0
 30 25  2  0  0  0  0
 31 26  2  0  0  0  0
 31 28  1  0  0  0  0
 32  6  1  0  0  0  0
 33 32  1  0  0  0  0
M  END
>  <MODEL>
6

>  <REMARK>
 VINA RESULT:      -7.3      3.280      6.010
  Name = 
  5 active torsions:
  status: ('A' for Active; 'I' for Inactive)
    1  A    between atoms: C_5  and  C_18
    2  A    between atoms: C_9  and  C_14
    3  A    between atoms: C_10  and  O_20
    4  A    between atoms: O_11  and  C_14
    5  A    between atoms: O_11  and  C_27
                            x       y       z     vdW  Elec       q    Type
                         _______ _______ _______ _____ _____    ______ ____

>  <TORSDO>
F 5

$$$$
=
 OpenBabel11062421123D

 33 37  0  0  1  0  0  0  0  0999 V2000
  192.5150  176.2380  146.6730 C   0  0  0  0  0  0  0  0  0  0  0  0
  191.5670  177.5640  148.5330 C   0  0  0  0  0  1  0  0  0  0  0  0
  187.5030  176.8280  145.5470 C   0  0  0  0  0  0  0  0  0  0  0  0
  190.5670  176.5040  145.4660 C   0  0  0  0  0  0  0  0  0  0  0  0
  192.8900  176.3360  144.2750 C   0  0  0  0  0  0  0  0  0  0  0  0
  188.3360  177.3480  144.6220 C   0  0  0  0  0  0  0  0  0  0  0  0
  191.4500  176.2820  147.7240 C   0  0  1  0  0  3  0  0  0  0  0  0
  190.2160  176.3240  146.8780 C   0  0  0  0  0  0  0  0  0  0  0  0
  194.7090  175.9690  145.8160 N   0  0  0  0  0  0  0  0  0  0  0  0
  194.2630  176.1120  144.5340 C   0  0  0  0  0  0  0  0  0  0  0  0
  189.0210  175.9610  147.3330 C   0  0  0  0  0  3  0  0  0  0  0  0
  189.7700  176.9700  144.4980 C   0  0  0  0  0  3  0  0  0  0  0  0
  192.0230  176.3820  145.3870 C   0  0  0  0  0  0  0  0  0  0  0  0
  187.8840  175.6660  146.4140 C   0  0  0  0  0  2  0  0  0  0  0  0
  193.8730  176.0250  146.8880 C   0  0  0  0  0  3  0  0  0  0  0  0
  195.2060  176.0600  143.4660 N   0  0  0  0  0  1  0  0  0  0  0  0
  185.5740  177.6170  147.0230 C   0  0  0  0  0  2  0  0  0  0  0  0
  186.0220  178.6570  146.1800 O   0  0  0  0  0  0  0  0  0  0  0  0
  186.1000  177.3500  145.6700 C   0  0  1  0  0  0  0  0  0  0  0  0
  185.1770  177.1150  144.6680 F   0  0  0  0  0  0  0  0  0  0  0  0
  192.3150  177.6510  142.3880 O   0  0  0  0  0  0  0  0  0  0  0  0
  192.4130  176.4980  142.8880 C   0  0  0  0  0  0  0  0  0  0  0  0
  192.1770  175.3600  142.1070 O   0  0  0  0  0  0  0  0  0  0  0  0
  192.9570  172.8730  143.3330 O   0  0  0  0  0  1  0  0  0  0  0  0
  189.9100  174.5640  142.0800 C   0  0  0  0  0  3  0  0  0  0  0  0
  191.6250  173.1480  143.0440 C   0  0  0  0  0  0  0  0  0  0  0  0
  188.9450  173.5970  142.3750 C   0  0  0  0  0  0  0  0  0  0  0  0
  189.3170  172.4120  143.0120 C   0  0  0  0  0  3  0  0  0  0  0  0
  187.5230  173.8320  142.0130 C   0  0  0  0  0  1  0  0  0  0  0  0
  191.2500  174.3600  142.4270 C   0  0  0  0  0  0  0  0  0  0  0  0
  190.6550  172.1870  143.3420 C   0  0  0  0  0  3  0  0  0  0  0  0
  187.8220  178.3030  143.7340 O   0  0  0  0  0  0  0  0  0  0  0  0
  187.6150  178.0440  142.3520 C   0  0  0  0  0  1  0  0  0  0  0  0
  1 15  1  0  0  0  0
  1  7  1  0  0  0  0
  3 19  1  0  0  0  0
  3 14  1  0  0  0  0
  4  8  1  0  0  0  0
  5 10  2  0  0  0  0
  5 13  1  0  0  0  0
  6  3  2  0  0  0  0
  7  2  1  6  0  0  0
  8 11  2  0  0  0  0
  8  7  1  0  0  0  0
  9 15  2  0  0  0  0
 10  9  1  0  0  0  0
 12  6  1  0  0  0  0
 12  4  2  0  0  0  0
 13  4  1  0  0  0  0
 13  1  2  0  0  0  0
 14 11  1  0  0  0  0
 16 10  1  0  0  0  0
 18 17  1  0  0  0  0
 19 20  1  6  0  0  0
 19 18  1  0  0  0  0
 19 17  1  0  0  0  0
 21 22  2  0  0  0  0
 22  5  1  0  0  0  0
 23 30  1  0  0  0  0
 23 22  1  0  0  0  0
 25 27  2  0  0  0  0
 25 30  1  0  0  0  0
 26 24  1  0  0  0  0
 26 31  1  0  0  0  0
 27 28  1  0  0  0  0
 28 31  2  0  0  0  0
 29 27  1  0  0  0  0
 30 26  2  0  0  0  0
 32  6  1  0  0  0  0
 33 32  1  0  0  0  0
M  END
>  <MODEL>
7

>  <REMARK>
 VINA RESULT:      -7.2      1.341      1.656
  Name = 
  5 active torsions:
  status: ('A' for Active; 'I' for Inactive)
    1  A    between atoms: C_5  and  C_18
    2  A    between atoms: C_9  and  C_14
    3  A    between atoms: C_10  and  O_20
    4  A    between atoms: O_11  and  C_14
    5  A    between atoms: O_11  and  C_27
                            x       y       z     vdW  Elec       q    Type
                         _______ _______ _______ _____ _____    ______ ____

>  <TORSDO>
F 5

$$$$
=
 OpenBabel11062421123D

 33 37  0  0  1  0  0  0  0  0999 V2000
  189.6970  173.2900  142.5060 C   0  0  0  0  0  0  0  0  0  0  0  0
  187.3580  172.7290  141.9350 C   0  0  0  0  0  1  0  0  0  0  0  0
  187.0390  177.6940  143.0420 C   0  0  0  0  0  0  0  0  0  0  0  0
  189.0300  175.3530  143.2940 C   0  0  0  0  0  0  0  0  0  0  0  0
  191.0580  174.0860  144.3540 C   0  0  0  0  0  0  0  0  0  0  0  0
  187.6420  177.2770  144.1750 C   0  0  0  0  0  0  0  0  0  0  0  0
  188.5330  173.6430  141.6330 C   0  0  1  0  0  3  0  0  0  0  0  0
  188.2340  175.0320  142.1060 C   0  0  0  0  0  0  0  0  0  0  0  0
  191.5500  172.0050  143.2390 N   0  0  0  0  0  0  0  0  0  0  0  0
  191.8520  172.9250  144.2010 C   0  0  0  0  0  0  0  0  0  0  0  0
  187.5620  175.9120  141.3690 C   0  0  0  0  0  3  0  0  0  0  0  0
  188.7630  176.3000  144.2010 C   0  0  0  0  0  3  0  0  0  0  0  0
  189.9750  174.2490  143.4650 C   0  0  0  0  0  0  0  0  0  0  0  0
  187.5740  177.3700  141.6780 C   0  0  0  0  0  2  0  0  0  0  0  0
  190.4970  172.1590  142.3900 C   0  0  0  0  0  3  0  0  0  0  0  0
  192.9600  172.6820  145.0630 N   0  0  0  0  0  1  0  0  0  0  0  0
  184.6820  178.2870  142.2610 C   0  0  0  0  0  2  0  0  0  0  0  0
  184.6940  177.9770  143.6380 O   0  0  0  0  0  0  0  0  0  0  0  0
  185.8430  178.5970  143.1180 C   0  0  1  0  0  0  0  0  0  0  0  0
  185.9810  179.9040  143.5460 F   0  0  0  0  0  0  0  0  0  0  0  0
  191.0080  174.8790  146.5880 O   0  0  0  0  0  0  0  0  0  0  0  0
  191.3830  175.0740  145.4000 C   0  0  0  0  0  0  0  0  0  0  0  0
  192.1980  176.1670  145.0820 O   0  0  0  0  0  0  0  0  0  0  0  0
  194.6250  175.8140  146.5940 O   0  0  0  0  0  1  0  0  0  0  0  0
  193.5250  176.2010  143.0790 C   0  0  0  0  0  3  0  0  0  0  0  0
  194.6420  175.8740  145.2060 C   0  0  0  0  0  0  0  0  0  0  0  0
  194.7530  176.1090  142.4180 C   0  0  0  0  0  0  0  0  0  0  0  0
  195.9230  175.8900  143.1480 C   0  0  0  0  0  3  0  0  0  0  0  0
  194.8130  176.2410  140.9390 C   0  0  0  0  0  1  0  0  0  0  0  0
  193.4540  176.0660  144.4700 C   0  0  0  0  0  0  0  0  0  0  0  0
  195.8670  175.7770  144.5390 C   0  0  0  0  0  3  0  0  0  0  0  0
  187.1780  177.7890  145.3950 O   0  0  0  0  0  0  0  0  0  0  0  0
  186.7470  176.9630  146.4690 C   0  0  0  0  0  1  0  0  0  0  0  0
  1 13  1  0  0  0  0
  3 19  1  0  0  0  0
  3  6  2  0  0  0  0
  4 13  1  0  0  0  0
  4 12  2  0  0  0  0
  5 22  1  0  0  0  0
  6 12  1  0  0  0  0
  6 32  1  0  0  0  0
  7  2  1  1  0  0  0
  7  8  1  0  0  0  0
  7  1  1  0  0  0  0
  8  4  1  0  0  0  0
  9 10  2  0  0  0  0
 10  5  1  0  0  0  0
 10 16  1  0  0  0  0
 11 14  1  0  0  0  0
 11  8  2  0  0  0  0
 13  5  2  0  0  0  0
 14  3  1  0  0  0  0
 15  1  2  0  0  0  0
 15  9  1  0  0  0  0
 17 19  1  0  0  0  0
 17 18  1  0  0  0  0
 19 20  1  1  0  0  0
 19 18  1  0  0  0  0
 22 21  2  0  0  0  0
 23 22  1  0  0  0  0
 25 30  1  0  0  0  0
 26 24  1  0  0  0  0
 27 25  2  0  0  0  0
 27 28  1  0  0  0  0
 28 31  2  0  0  0  0
 29 27  1  0  0  0  0
 30 23  1  0  0  0  0
 30 26  2  0  0  0  0
 31 26  1  0  0  0  0
 32 33  1  0  0  0  0
M  END
>  <MODEL>
8

>  <REMARK>
 VINA RESULT:      -7.2      2.309      4.746
  Name = 
  5 active torsions:
  status: ('A' for Active; 'I' for Inactive)
    1  A    between atoms: C_5  and  C_18
    2  A    between atoms: C_9  and  C_14
    3  A    between atoms: C_10  and  O_20
    4  A    between atoms: O_11  and  C_14
    5  A    between atoms: O_11  and  C_27
                            x       y       z     vdW  Elec       q    Type
                         _______ _______ _______ _____ _____    ______ ____

>  <TORSDO>
F 5

$$$$
=
 OpenBabel11062421123D

 33 37  0  0  1  0  0  0  0  0999 V2000
  189.9250  172.8210  142.5360 C   0  0  0  0  0  0  0  0  0  0  0  0
  191.6620  171.4310  141.4590 C   0  0  0  0  0  1  0  0  0  0  0  0
  194.3010  173.8300  145.1000 C   0  0  0  0  0  0  0  0  0  0  0  0
  191.5430  173.9540  143.7280 C   0  0  0  0  0  0  0  0  0  0  0  0
  189.3450  175.1430  142.9540 C   0  0  0  0  0  0  0  0  0  0  0  0
  193.7510  174.9120  144.5090 C   0  0  0  0  0  0  0  0  0  0  0  0
  190.9810  171.7870  142.7700 C   0  0  1  0  0  3  0  0  0  0  0  0
  191.9300  172.5420  143.6480 C   0  0  0  0  0  0  0  0  0  0  0  0
  187.8260  173.6560  141.8160 N   0  0  0  0  0  0  0  0  0  0  0  0
  188.1070  174.8940  142.3160 C   0  0  0  0  0  0  0  0  0  0  0  0
  192.8040  171.9380  144.4480 C   0  0  0  0  0  3  0  0  0  0  0  0
  192.3310  174.9800  144.0720 C   0  0  0  0  0  3  0  0  0  0  0  0
  190.2440  174.0610  143.0620 C   0  0  0  0  0  0  0  0  0  0  0  0
  193.4830  172.6600  145.5610 C   0  0  0  0  0  2  0  0  0  0  0  0
  188.6990  172.6170  141.9110 C   0  0  0  0  0  3  0  0  0  0  0  0
  187.1460  175.9350  142.1600 N   0  0  0  0  0  1  0  0  0  0  0  0
  196.5650  172.6640  144.9270 C   0  0  0  0  0  2  0  0  0  0  0  0
  196.5910  173.9150  144.2730 O   0  0  0  0  0  0  0  0  0  0  0  0
  195.7700  173.8100  145.4090 C   0  0  1  0  0  0  0  0  0  0  0  0
  196.2660  174.5150  146.4890 F   0  0  0  0  0  0  0  0  0  0  0  0
  190.0340  177.3980  142.7090 O   0  0  0  0  0  0  0  0  0  0  0  0
  189.6490  176.4850  143.4870 C   0  0  0  0  0  0  0  0  0  0  0  0
  189.4010  176.7590  144.8380 O   0  0  0  0  0  0  0  0  0  0  0  0
  188.2490  175.3920  147.0970 O   0  0  0  0  0  1  0  0  0  0  0  0
  187.4120  178.1010  144.7150 C   0  0  0  0  0  3  0  0  0  0  0  0
  187.5870  176.4450  146.4770 C   0  0  0  0  0  0  0  0  0  0  0  0
  186.1540  178.4780  145.1930 C   0  0  0  0  0  0  0  0  0  0  0  0
  185.6170  177.8470  146.3160 C   0  0  0  0  0  3  0  0  0  0  0  0
  185.3900  179.5520  144.5070 C   0  0  0  0  0  1  0  0  0  0  0  0
  188.1470  177.1000  145.3590 C   0  0  0  0  0  0  0  0  0  0  0  0
  186.3310  176.8300  146.9540 C   0  0  0  0  0  3  0  0  0  0  0  0
  194.5680  176.0300  144.2900 O   0  0  0  0  0  0  0  0  0  0  0  0
  194.6230  177.1360  145.1810 C   0  0  0  0  0  1  0  0  0  0  0  0
  1  7  1  0  0  0  0
  1 13  1  0  0  0  0
  3 19  1  0  0  0  0
  3 14  1  0  0  0  0
  4 12  2  0  0  0  0
  5 13  2  0  0  0  0
  5 22  1  0  0  0  0
  6  3  2  0  0  0  0
  7  2  1  6  0  0  0
  7  8  1  0  0  0  0
  8  4  1  0  0  0  0
  8 11  2  0  0  0  0
  9 15  1  0  0  0  0
  9 10  2  0  0  0  0
 10  5  1  0  0  0  0
 11 14  1  0  0  0  0
 12  6  1  0  0  0  0
 13  4  1  0  0  0  0
 15  1  2  0  0  0  0
 16 10  1  0  0  0  0
 17 19  1  0  0  0  0
 18 17  1  0  0  0  0
 18 19  1  0  0  0  0
 19 20  1  1  0  0  0
 21 22  2  0  0  0  0
 22 23  1  0  0  0  0
 23 30  1  0  0  0  0
 25 27  2  0  0  0  0
 25 30  1  0  0  0  0
 26 31  1  0  0  0  0
 26 24  1  0  0  0  0
 27 28  1  0  0  0  0
 28 31  2  0  0  0  0
 29 27  1  0  0  0  0
 30 26  2  0  0  0  0
 32  6  1  0  0  0  0
 32 33  1  0  0  0  0
M  END
>  <MODEL>
9

>  <REMARK>
 VINA RESULT:      -7.1      3.708      7.538
  Name = 
  5 active torsions:
  status: ('A' for Active; 'I' for Inactive)
    1  A    between atoms: C_5  and  C_18
    2  A    between atoms: C_9  and  C_14
    3  A    between atoms: C_10  and  O_20
    4  A    between atoms: O_11  and  C_14
    5  A    between atoms: O_11  and  C_27
                            x       y       z     vdW  Elec       q    Type
                         _______ _______ _______ _____ _____    ______ ____

>  <TORSDO>
F 5

$$$$
