=
 OpenBabel11062419353D

 40 45  0  0  1  0  0  0  0  0999 V2000
  189.9510  178.0140  143.4590 C   0  0  0  0  0  1  0  0  0  0  0  0
  185.6860  177.1820  142.6980 O   0  0  0  0  0  0  0  0  0  0  0  0
  191.0650  176.4660  145.1450 C   0  0  2  0  0  3  0  0  0  0  0  0
  186.8270  176.9710  146.1580 C   0  0  2  0  0  3  0  0  0  0  0  0
  186.4910  177.6340  147.4700 C   0  0  0  0  0  3  0  0  0  0  0  0
  188.6730  176.1320  144.5800 C   0  0  1  0  0  3  0  0  0  0  0  0
  190.0240  176.5970  144.0240 C   0  0  1  0  0  3  0  0  0  0  0  0
  184.4190  178.3730  146.5540 O   0  0  0  0  0  0  0  0  0  0  0  0
  186.4370  176.9830  143.6930 C   0  0  0  0  0  0  0  0  0  0  0  0
  188.2950  176.8510  145.8590 C   0  0  0  0  0  0  0  0  0  0  0  0
  185.3240  178.2670  147.6210 C   0  0  0  0  0  3  0  0  0  0  0  0
  189.2410  177.3440  146.6830 C   0  0  0  0  0  3  0  0  0  0  0  0
  190.7140  177.3530  146.3450 C   0  0  0  0  0  2  0  0  0  0  0  0
  186.1420  177.6840  144.9930 C   0  0  1  0  0  3  0  0  0  0  0  0
  184.6440  177.7360  145.2920 C   0  0  0  0  0  2  0  0  0  0  0  0
  187.6080  176.1480  143.5580 N   0  0  0  0  0  0  0  0  0  0  0  0
  187.8120  176.0460  141.0410 C   0  0  0  0  0  0  0  0  0  0  0  0
  187.0500  174.1030  142.3540 O   0  0  0  0  0  1  0  0  0  0  0  0
  189.0270  175.3610  141.6980 C   0  0  1  0  0  3  0  0  0  0  0  0
  187.2910  176.6810  140.1400 O   0  0  0  0  0  0  0  0  0  0  0  0
  187.7610  175.3040  142.3710 C   0  0  2  0  0  0  0  0  0  0  0  0
  189.3060  174.1700  141.0130 O   0  0  0  0  0  0  0  0  0  0  0  0
  192.0160  171.8290  141.3080 O   0  0  0  0  0  1  0  0  0  0  0  0
  190.6710  172.1800  141.4350 C   0  0  1  0  0  3  0  0  0  0  0  0
  190.4460  172.8440  142.7930 C   0  0  0  0  0  2  0  0  0  0  0  0
  190.5120  173.6850  141.5390 C   0  0  2  0  0  0  0  0  0  0  0  0
  191.6720  174.4380  141.3280 O   0  0  0  0  0  1  0  0  0  0  0  0
  192.4810  176.7680  144.6670 C   0  0  0  0  0  2  0  0  0  0  0  0
  193.4590  175.9400  145.3630 N   0  0  0  0  0  0  0  0  0  0  0  0
  194.2850  172.0430  143.8970 C   0  0  0  0  0  3  0  0  0  0  0  0
  193.4670  172.2270  145.0110 C   0  0  0  0  0  3  0  0  0  0  0  0
  194.6680  174.4440  143.7640 C   0  0  0  0  0  0  0  0  0  0  0  0
  194.8800  173.1430  143.2820 C   0  0  0  0  0  3  0  0  0  0  0  0
  193.8120  174.6320  144.8820 C   0  0  0  0  0  0  0  0  0  0  0  0
  193.2310  173.5130  145.4970 C   0  0  0  0  0  3  0  0  0  0  0  0
  195.3990  175.5480  143.1060 C   0  0  0  0  0  0  0  0  0  0  0  0
  194.9440  176.1030  142.0720 O   0  0  0  0  0  0  0  0  0  0  0  0
  196.5790  176.0260  143.6630 O   0  0  0  0  0  1  0  0  0  0  0  0
  194.7910  177.6800  146.1720 O   0  0  0  0  0  1  0  0  0  0  0  0
  194.1330  176.5020  146.5240 C   0  0  0  0  0  2  0  0  0  0  0  0
  2  9  2  0  0  0  0
  3 28  1  6  0  0  0
  3 13  1  0  0  0  0
  4  5  1  1  0  0  0
  5 11  2  0  0  0  0
  6 10  1  1  0  0  0
  7  1  1  1  0  0  0
  7  6  1  0  0  0  0
  7  3  1  0  0  0  0
  8 11  1  0  0  0  0
  9 14  1  0  0  0  0
 10  4  1  0  0  0  0
 10 12  2  0  0  0  0
 13 12  1  0  0  0  0
 14 15  1  1  0  0  0
 14  4  1  0  0  0  0
 15  8  1  0  0  0  0
 16  9  1  0  0  0  0
 16  6  1  0  0  0  0
 17 19  1  0  0  0  0
 17 21  1  0  0  0  0
 19 22  1  6  0  0  0
 19 21  1  0  0  0  0
 20 17  2  0  0  0  0
 21 18  1  1  0  0  0
 21 16  1  0  0  0  0
 22 26  1  0  0  0  0
 24 23  1  1  0  0  0
 24 26  1  0  0  0  0
 24 25  1  0  0  0  0
 26 27  1  6  0  0  0
 26 25  1  0  0  0  0
 28 29  1  0  0  0  0
 29 40  1  0  0  0  0
 30 31  1  0  0  0  0
 31 35  2  0  0  0  0
 32 34  2  0  0  0  0
 33 32  1  0  0  0  0
 33 30  2  0  0  0  0
 34 29  1  0  0  0  0
 34 35  1  0  0  0  0
 36 38  1  0  0  0  0
 36 32  1  0  0  0  0
 37 36  2  0  0  0  0
 39 40  1  0  0  0  0
M  END
>  <MODEL>
1

>  <REMARK>
 VINA RESULT:      -7.9      0.000      0.000
  Name = 
  8 active torsions:
  status: ('A' for Active; 'I' for Inactive)
    1  A    between atoms: C_3  and  N_7
    2  A    between atoms: C_3  and  C_11
    3  A    between atoms: N_7  and  C_9
    4  A    between atoms: N_7  and  C_27
    5  A    between atoms: C_15  and  C_17
    6  A    between atoms: C_20  and  O_26
    7  A    between atoms: O_26  and  C_32
    8  A    between atoms: N_36  and  C_37
                            x       y       z     vdW  Elec       q    Type
                         _______ _______ _______ _____ _____    ______ ____

>  <TORSDO>
F 8

$$$$
=
 OpenBabel11062419353D

 40 45  0  0  1  0  0  0  0  0999 V2000
  190.8470  172.4240  144.1270 C   0  0  0  0  0  1  0  0  0  0  0  0
  187.6650  174.5720  141.9540 O   0  0  0  0  0  0  0  0  0  0  0  0
  193.2210  173.0940  143.4970 C   0  0  2  0  0  3  0  0  0  0  0  0
  190.5790  173.5250  140.0220 C   0  0  2  0  0  3  0  0  0  0  0  0
  190.8480  172.6540  138.8210 C   0  0  0  0  0  3  0  0  0  0  0  0
  191.3050  174.2130  142.3890 C   0  0  1  0  0  3  0  0  0  0  0  0
  191.7720  173.5600  143.6950 C   0  0  1  0  0  3  0  0  0  0  0  0
  188.5460  172.7880  138.2200 O   0  0  0  0  0  0  0  0  0  0  0  0
  188.8590  174.2820  141.6650 C   0  0  0  0  0  0  0  0  0  0  0  0
  191.5030  173.3110  141.1880 C   0  0  0  0  0  0  0  0  0  0  0  0
  189.8570  172.3510  137.9770 C   0  0  0  0  0  3  0  0  0  0  0  0
  192.4730  172.3740  141.1760 C   0  0  0  0  0  3  0  0  0  0  0  0
  193.3280  172.0500  142.3790 C   0  0  0  0  0  2  0  0  0  0  0  0
  189.1360  173.3680  140.5000 C   0  0  1  0  0  3  0  0  0  0  0  0
  188.2170  173.6520  139.3120 C   0  0  0  0  0  2  0  0  0  0  0  0
  189.9410  174.7660  142.4920 N   0  0  0  0  0  0  0  0  0  0  0  0
  190.7320  176.9230  143.5450 C   0  0  0  0  0  0  0  0  0  0  0  0
  189.1550  175.4230  144.7050 O   0  0  0  0  0  1  0  0  0  0  0  0
  189.3190  177.1080  142.9570 C   0  0  1  0  0  3  0  0  0  0  0  0
  191.8370  177.3410  143.8470 O   0  0  0  0  0  0  0  0  0  0  0  0
  189.6820  175.8210  143.4740 C   0  0  2  0  0  0  0  0  0  0  0  0
  188.5380  177.8340  143.8670 O   0  0  0  0  0  0  0  0  0  0  0  0
  185.3390  179.3910  143.3700 O   0  0  0  0  0  1  0  0  0  0  0  0
  186.2610  178.6920  144.1500 C   0  0  1  0  0  3  0  0  0  0  0  0
  186.1250  177.1950  143.8740 C   0  0  0  0  0  2  0  0  0  0  0  0
  187.2740  177.9760  143.2770 C   0  0  2  0  0  0  0  0  0  0  0  0
  187.2150  178.2640  141.9100 O   0  0  0  0  0  1  0  0  0  0  0  0
  193.8420  172.5530  144.7800 C   0  0  0  0  0  2  0  0  0  0  0  0
  194.9690  173.3750  145.2060 N   0  0  0  0  0  0  0  0  0  0  0  0
  194.7000  177.5680  145.8080 C   0  0  0  0  0  3  0  0  0  0  0  0
  193.9860  176.6840  146.6160 C   0  0  0  0  0  3  0  0  0  0  0  0
  195.5540  175.7010  144.4980 C   0  0  0  0  0  0  0  0  0  0  0  0
  195.4760  177.0780  144.7570 C   0  0  0  0  0  3  0  0  0  0  0  0
  194.8490  174.8000  145.3400 C   0  0  0  0  0  0  0  0  0  0  0  0
  194.0640  175.3110  146.3850 C   0  0  0  0  0  3  0  0  0  0  0  0
  196.3330  175.2690  143.3180 C   0  0  0  0  0  0  0  0  0  0  0  0
  195.7780  175.0880  142.2030 O   0  0  0  0  0  0  0  0  0  0  0  0
  197.7110  175.1120  143.4170 O   0  0  0  0  0  1  0  0  0  0  0  0
  196.9180  173.4770  146.4890 O   0  0  0  0  0  1  0  0  0  0  0  0
  196.2100  172.7050  145.5690 C   0  0  0  0  0  2  0  0  0  0  0  0
  3  7  1  0  0  0  0
  3 28  1  1  0  0  0
  4  5  1  6  0  0  0
  4 14  1  0  0  0  0
  4 10  1  0  0  0  0
  6 10  1  6  0  0  0
  6 16  1  0  0  0  0
  6  7  1  0  0  0  0
  7  1  1  6  0  0  0
  8 15  1  0  0  0  0
  9  2  2  0  0  0  0
  9 16  1  0  0  0  0
 11  8  1  0  0  0  0
 11  5  2  0  0  0  0
 12 10  2  0  0  0  0
 12 13  1  0  0  0  0
 13  3  1  0  0  0  0
 14 15  1  6  0  0  0
 14  9  1  0  0  0  0
 16 21  1  0  0  0  0
 17 20  2  0  0  0  0
 19 21  1  0  0  0  0
 19 17  1  0  0  0  0
 19 22  1  1  0  0  0
 21 17  1  0  0  0  0
 21 18  1  1  0  0  0
 24 23  1  6  0  0  0
 25 24  1  0  0  0  0
 26 27  1  6  0  0  0
 26 22  1  0  0  0  0
 26 25  1  0  0  0  0
 26 24  1  0  0  0  0
 28 29  1  0  0  0  0
 29 34  1  0  0  0  0
 29 40  1  0  0  0  0
 30 31  1  0  0  0  0
 32 33  1  0  0  0  0
 32 34  2  0  0  0  0
 33 30  2  0  0  0  0
 34 35  1  0  0  0  0
 35 31  2  0  0  0  0
 36 38  1  0  0  0  0
 36 32  1  0  0  0  0
 37 36  2  0  0  0  0
 40 39  1  0  0  0  0
M  END
>  <MODEL>
2

>  <REMARK>
 VINA RESULT:      -7.5      2.249      5.858
  Name = 
  8 active torsions:
  status: ('A' for Active; 'I' for Inactive)
    1  A    between atoms: C_3  and  N_7
    2  A    between atoms: C_3  and  C_11
    3  A    between atoms: N_7  and  C_9
    4  A    between atoms: N_7  and  C_27
    5  A    between atoms: C_15  and  C_17
    6  A    between atoms: C_20  and  O_26
    7  A    between atoms: O_26  and  C_32
    8  A    between atoms: N_36  and  C_37
                            x       y       z     vdW  Elec       q    Type
                         _______ _______ _______ _____ _____    ______ ____

>  <TORSDO>
F 8

$$$$
=
 OpenBabel11062419353D

 40 45  0  0  1  0  0  0  0  0999 V2000
  191.2690  177.7340  143.0540 C   0  0  0  0  0  1  0  0  0  0  0  0
  194.8280  175.3160  142.0840 O   0  0  0  0  0  0  0  0  0  0  0  0
  189.3250  176.4330  144.0590 C   0  0  2  0  0  3  0  0  0  0  0  0
  191.5730  173.8640  141.3040 C   0  0  2  0  0  3  0  0  0  0  0  0
  190.8600  173.3560  140.0760 C   0  0  0  0  0  3  0  0  0  0  0  0
  191.4170  175.2370  143.4700 C   0  0  1  0  0  3  0  0  0  0  0  0
  190.8500  176.5760  143.9570 C   0  0  1  0  0  3  0  0  0  0  0  0
  192.9490  173.1980  138.9410 O   0  0  0  0  0  0  0  0  0  0  0  0
  193.5990  175.0440  142.1600 C   0  0  0  0  0  0  0  0  0  0  0  0
  190.7560  174.7590  142.1930 C   0  0  0  0  0  0  0  0  0  0  0  0
  191.5570  173.0270  138.9850 C   0  0  0  0  0  3  0  0  0  0  0  0
  189.4920  175.1190  141.8890 C   0  0  0  0  0  3  0  0  0  0  0  0
  188.6980  176.1190  142.6970 C   0  0  0  0  0  2  0  0  0  0  0  0
  192.8640  174.5870  140.9270 C   0  0  1  0  0  3  0  0  0  0  0  0
  193.7030  173.6340  140.0760 C   0  0  0  0  0  2  0  0  0  0  0  0
  192.8910  175.2400  143.4050 N   0  0  0  0  0  0  0  0  0  0  0  0
  193.0070  174.9230  145.9100 C   0  0  0  0  0  0  0  0  0  0  0  0
  194.2820  176.7030  144.7740 O   0  0  0  0  0  1  0  0  0  0  0  0
  194.2560  174.3150  145.2420 C   0  0  1  0  0  3  0  0  0  0  0  0
  192.1630  174.9540  146.7900 O   0  0  0  0  0  0  0  0  0  0  0  0
  193.6480  175.4650  144.6390 C   0  0  2  0  0  0  0  0  0  0  0  0
  195.3890  174.6580  145.9920 O   0  0  0  0  0  0  0  0  0  0  0  0
  196.9280  172.2660  143.7970 O   0  0  0  0  0  1  0  0  0  0  0  0
  196.1430  172.5980  144.9030 C   0  0  1  0  0  3  0  0  0  0  0  0
  197.0440  172.7940  146.1220 C   0  0  0  0  0  2  0  0  0  0  0  0
  196.4720  173.9930  145.4000 C   0  0  2  0  0  0  0  0  0  0  0  0
  197.3420  174.7380  144.5980 O   0  0  0  0  0  1  0  0  0  0  0  0
  188.6630  177.6620  144.6710 C   0  0  0  0  0  2  0  0  0  0  0  0
  187.4290  177.3050  145.3630 N   0  0  0  0  0  0  0  0  0  0  0  0
  183.6520  178.9170  144.2870 C   0  0  0  0  0  3  0  0  0  0  0  0
  184.4840  178.3470  143.3250 C   0  0  0  0  0  3  0  0  0  0  0  0
  185.3400  178.5250  145.9990 C   0  0  0  0  0  0  0  0  0  0  0  0
  184.0790  179.0050  145.6120 C   0  0  0  0  0  3  0  0  0  0  0  0
  186.1750  177.9190  145.0220 C   0  0  0  0  0  0  0  0  0  0  0  0
  185.7350  177.8490  143.6920 C   0  0  0  0  0  3  0  0  0  0  0  0
  185.7500  178.7280  147.4050 C   0  0  0  0  0  0  0  0  0  0  0  0
  185.6410  177.8060  148.2540 O   0  0  0  0  0  1  0  0  0  0  0  0
  186.3210  179.9350  147.7920 O   0  0  0  0  0  0  0  0  0  0  0  0
  188.5700  176.4500  147.2130 O   0  0  0  0  0  1  0  0  0  0  0  0
  187.4830  176.2500  146.3630 C   0  0  0  0  0  2  0  0  0  0  0  0
  2  9  2  0  0  0  0
  3 28  1  6  0  0  0
  4  5  1  6  0  0  0
  4 10  1  0  0  0  0
  6 10  1  6  0  0  0
  6  7  1  0  0  0  0
  7  1  1  6  0  0  0
  7  3  1  0  0  0  0
  8 11  1  0  0  0  0
  8 15  1  0  0  0  0
  9 16  1  0  0  0  0
 11  5  2  0  0  0  0
 12 10  2  0  0  0  0
 12 13  1  0  0  0  0
 13  3  1  0  0  0  0
 14 15  1  1  0  0  0
 14  4  1  0  0  0  0
 14  9  1  0  0  0  0
 16  6  1  0  0  0  0
 16 21  1  0  0  0  0
 17 20  2  0  0  0  0
 19 17  1  0  0  0  0
 19 22  1  1  0  0  0
 21 18  1  1  0  0  0
 21 19  1  0  0  0  0
 21 17  1  0  0  0  0
 24 23  1  6  0  0  0
 24 26  1  0  0  0  0
 24 25  1  0  0  0  0
 26 27  1  6  0  0  0
 26 22  1  0  0  0  0
 26 25  1  0  0  0  0
 28 29  1  0  0  0  0
 29 40  1  0  0  0  0
 30 33  1  0  0  0  0
 31 35  1  0  0  0  0
 31 30  2  0  0  0  0
 32 36  1  0  0  0  0
 33 32  2  0  0  0  0
 34 29  1  0  0  0  0
 34 32  1  0  0  0  0
 35 34  2  0  0  0  0
 36 38  2  0  0  0  0
 36 37  1  0  0  0  0
 40 39  1  0  0  0  0
M  END
>  <MODEL>
3

>  <REMARK>
 VINA RESULT:      -7.4      2.399      8.179
  Name = 
  8 active torsions:
  status: ('A' for Active; 'I' for Inactive)
    1  A    between atoms: C_3  and  N_7
    2  A    between atoms: C_3  and  C_11
    3  A    between atoms: N_7  and  C_9
    4  A    between atoms: N_7  and  C_27
    5  A    between atoms: C_15  and  C_17
    6  A    between atoms: C_20  and  O_26
    7  A    between atoms: O_26  and  C_32
    8  A    between atoms: N_36  and  C_37
                            x       y       z     vdW  Elec       q    Type
                         _______ _______ _______ _____ _____    ______ ____

>  <TORSDO>
F 8

$$$$
=
 OpenBabel11062419353D

 40 45  0  0  1  0  0  0  0  0999 V2000
  189.5120  173.9480  146.6620 C   0  0  0  0  0  1  0  0  0  0  0  0
  192.2880  171.5540  144.2070 O   0  0  0  0  0  0  0  0  0  0  0  0
  189.3620  176.4090  146.0270 C   0  0  2  0  0  3  0  0  0  0  0  0
  193.3920  174.8930  145.1820 C   0  0  2  0  0  3  0  0  0  0  0  0
  194.5440  175.4910  145.9500 C   0  0  0  0  0  3  0  0  0  0  0  0
  190.8600  174.9080  144.7410 C   0  0  1  0  0  3  0  0  0  0  0  0
  189.5460  174.9690  145.5270 C   0  0  1  0  0  3  0  0  0  0  0  0
  195.7660  173.4640  145.6750 O   0  0  0  0  0  0  0  0  0  0  0  0
  192.2480  172.7780  144.5140 C   0  0  0  0  0  0  0  0  0  0  0  0
  192.0360  175.4370  145.5360 C   0  0  0  0  0  0  0  0  0  0  0  0
  195.6620  174.7850  146.1370 C   0  0  0  0  0  3  0  0  0  0  0  0
  191.8590  176.3600  146.5040 C   0  0  0  0  0  3  0  0  0  0  0  0
  190.4990  176.8250  146.9680 C   0  0  0  0  0  2  0  0  0  0  0  0
  193.3670  173.3730  145.3280 C   0  0  1  0  0  3  0  0  0  0  0  0
  194.7350  172.8400  144.9020 C   0  0  0  0  0  2  0  0  0  0  0  0
  191.1010  173.5770  144.1490 N   0  0  0  0  0  0  0  0  0  0  0  0
  189.6160  174.0640  142.1620 C   0  0  0  0  0  0  0  0  0  0  0  0
  189.1850  172.1510  143.6570 O   0  0  0  0  0  1  0  0  0  0  0  0
  190.5910  172.9190  141.8250 C   0  0  1  0  0  3  0  0  0  0  0  0
  188.9390  175.0290  141.8500 O   0  0  0  0  0  0  0  0  0  0  0  0
  190.1360  173.0550  143.1780 C   0  0  2  0  0  0  0  0  0  0  0  0
  189.8960  171.9130  141.1400 O   0  0  0  0  0  0  0  0  0  0  0  0
  193.1810  170.4670  140.9710 O   0  0  0  0  0  1  0  0  0  0  0  0
  192.2070  171.3680  140.5380 C   0  0  1  0  0  3  0  0  0  0  0  0
  191.3190  170.6910  139.4940 C   0  0  0  0  0  2  0  0  0  0  0  0
  190.8180  170.8830  140.9080 C   0  0  2  0  0  0  0  0  0  0  0  0
  190.7640  169.7540  141.7310 O   0  0  0  0  0  1  0  0  0  0  0  0
  188.0140  176.6250  146.7050 C   0  0  0  0  0  2  0  0  0  0  0  0
  187.3860  177.8590  146.2460 N   0  0  0  0  0  0  0  0  0  0  0  0
  185.9860  178.0460  142.2440 C   0  0  0  0  0  3  0  0  0  0  0  0
  187.3500  178.1030  142.5250 C   0  0  0  0  0  3  0  0  0  0  0  0
  185.4840  177.9570  144.6250 C   0  0  0  0  0  0  0  0  0  0  0  0
  185.0630  177.9760  143.2870 C   0  0  0  0  0  3  0  0  0  0  0  0
  186.8760  177.9860  144.9090 C   0  0  0  0  0  0  0  0  0  0  0  0
  187.7910  178.0700  143.8480 C   0  0  0  0  0  3  0  0  0  0  0  0
  184.4410  177.9620  145.6730 C   0  0  0  0  0  0  0  0  0  0  0  0
  184.3590  177.0280  146.5120 O   0  0  0  0  0  1  0  0  0  0  0  0
  183.5700  179.0400  145.7780 O   0  0  0  0  0  0  0  0  0  0  0  0
  186.6640  178.4530  148.3870 O   0  0  0  0  0  1  0  0  0  0  0  0
  187.2170  178.9420  147.2030 C   0  0  0  0  0  2  0  0  0  0  0  0
  2  9  2  0  0  0  0
  3 28  1  1  0  0  0
  3 13  1  0  0  0  0
  4 14  1  0  0  0  0
  4 10  1  0  0  0  0
  4  5  1  1  0  0  0
  5 11  2  0  0  0  0
  6  7  1  0  0  0  0
  6 10  1  1  0  0  0
  7  3  1  0  0  0  0
  7  1  1  1  0  0  0
  8 11  1  0  0  0  0
  9 14  1  0  0  0  0
 10 12  2  0  0  0  0
 12 13  1  0  0  0  0
 14 15  1  6  0  0  0
 15  8  1  0  0  0  0
 16  9  1  0  0  0  0
 16  6  1  0  0  0  0
 17 21  1  0  0  0  0
 19 22  1  6  0  0  0
 19 17  1  0  0  0  0
 19 21  1  0  0  0  0
 20 17  2  0  0  0  0
 21 18  1  1  0  0  0
 21 16  1  0  0  0  0
 24 26  1  0  0  0  0
 24 23  1  1  0  0  0
 25 24  1  0  0  0  0
 25 26  1  0  0  0  0
 26 22  1  0  0  0  0
 26 27  1  1  0  0  0
 29 28  1  0  0  0  0
 29 40  1  0  0  0  0
 30 31  2  0  0  0  0
 30 33  1  0  0  0  0
 31 35  1  0  0  0  0
 32 34  1  0  0  0  0
 32 36  1  0  0  0  0
 33 32  2  0  0  0  0
 34 29  1  0  0  0  0
 35 34  2  0  0  0  0
 36 38  2  0  0  0  0
 36 37  1  0  0  0  0
 40 39  1  0  0  0  0
M  END
>  <MODEL>
4

>  <REMARK>
 VINA RESULT:      -7.4      2.149      7.192
  Name = 
  8 active torsions:
  status: ('A' for Active; 'I' for Inactive)
    1  A    between atoms: C_3  and  N_7
    2  A    between atoms: C_3  and  C_11
    3  A    between atoms: N_7  and  C_9
    4  A    between atoms: N_7  and  C_27
    5  A    between atoms: C_15  and  C_17
    6  A    between atoms: C_20  and  O_26
    7  A    between atoms: O_26  and  C_32
    8  A    between atoms: N_36  and  C_37
                            x       y       z     vdW  Elec       q    Type
                         _______ _______ _______ _____ _____    ______ ____

>  <TORSDO>
F 8

$$$$
=
 OpenBabel11062419353D

 40 45  0  0  1  0  0  0  0  0999 V2000
  190.1840  177.9040  143.6570 C   0  0  0  0  0  1  0  0  0  0  0  0
  185.8540  177.8650  142.8160 O   0  0  0  0  0  0  0  0  0  0  0  0
  190.9960  176.0520  145.2040 C   0  0  2  0  0  3  0  0  0  0  0  0
  186.8840  177.1690  146.2470 C   0  0  2  0  0  3  0  0  0  0  0  0
  186.6410  177.7630  147.6110 C   0  0  0  0  0  3  0  0  0  0  0  0
  188.5920  176.1720  144.6050 C   0  0  1  0  0  3  0  0  0  0  0  0
  190.0110  176.4510  144.0960 C   0  0  1  0  0  3  0  0  0  0  0  0
  184.7370  178.9140  146.7590 O   0  0  0  0  0  0  0  0  0  0  0  0
  186.5440  177.4580  143.7910 C   0  0  0  0  0  0  0  0  0  0  0  0
  188.3170  176.8320  145.9420 C   0  0  0  0  0  0  0  0  0  0  0  0
  185.5930  178.5660  147.8150 C   0  0  0  0  0  3  0  0  0  0  0  0
  189.3180  177.0860  146.8090 C   0  0  0  0  0  3  0  0  0  0  0  0
  190.7770  176.8780  146.4760 C   0  0  0  0  0  2  0  0  0  0  0  0
  186.3470  178.0840  145.1470 C   0  0  1  0  0  3  0  0  0  0  0  0
  184.8740  178.3590  145.4470 C   0  0  0  0  0  2  0  0  0  0  0  0
  187.5620  176.4540  143.5860 N   0  0  0  0  0  0  0  0  0  0  0  0
  187.6790  176.5440  141.0630 C   0  0  0  0  0  0  0  0  0  0  0  0
  186.7630  174.5820  142.2440 O   0  0  0  0  0  1  0  0  0  0  0  0
  188.8370  175.6890  141.6160 C   0  0  1  0  0  3  0  0  0  0  0  0
  187.1980  177.3010  140.2370 O   0  0  0  0  0  0  0  0  0  0  0  0
  187.5930  175.7020  142.3300 C   0  0  2  0  0  0  0  0  0  0  0  0
  188.9730  174.5390  140.8270 O   0  0  0  0  0  0  0  0  0  0  0  0
  191.4170  171.9060  140.8930 O   0  0  0  0  0  1  0  0  0  0  0  0
  190.0990  172.3650  140.9030 C   0  0  1  0  0  3  0  0  0  0  0  0
  189.6850  172.6850  142.3390 C   0  0  0  0  0  2  0  0  0  0  0  0
  190.0300  173.8030  141.3810 C   0  0  2  0  0  0  0  0  0  0  0  0
  191.2580  174.4470  141.5580 O   0  0  0  0  0  1  0  0  0  0  0  0
  192.4500  176.1530  144.7570 C   0  0  0  0  0  2  0  0  0  0  0  0
  193.0890  174.8420  144.7450 N   0  0  0  0  0  0  0  0  0  0  0  0
  197.2900  174.2340  144.7880 C   0  0  0  0  0  3  0  0  0  0  0  0
  196.5540  174.2070  145.9710 C   0  0  0  0  0  3  0  0  0  0  0  0
  195.2740  174.7610  143.5290 C   0  0  0  0  0  0  0  0  0  0  0  0
  196.6530  174.5100  143.5780 C   0  0  0  0  0  3  0  0  0  0  0  0
  194.5200  174.7060  144.7320 C   0  0  0  0  0  0  0  0  0  0  0  0
  195.1780  174.4390  145.9420 C   0  0  0  0  0  3  0  0  0  0  0  0
  194.6890  175.1250  142.2200 C   0  0  0  0  0  0  0  0  0  0  0  0
  194.4380  176.3240  141.9300 O   0  0  0  0  0  1  0  0  0  0  0  0
  194.4620  174.1400  141.2660 O   0  0  0  0  0  0  0  0  0  0  0  0
  192.7610  172.6430  144.0270 O   0  0  0  0  0  1  0  0  0  0  0  0
  192.2400  173.6620  144.8240 C   0  0  0  0  0  2  0  0  0  0  0  0
  2  9  2  0  0  0  0
  3 28  1  6  0  0  0
  3 13  1  0  0  0  0
  4  5  1  1  0  0  0
  5 11  2  0  0  0  0
  6 10  1  1  0  0  0
  7  1  1  1  0  0  0
  7  6  1  0  0  0  0
  7  3  1  0  0  0  0
  8 11  1  0  0  0  0
  9 14  1  0  0  0  0
 10  4  1  0  0  0  0
 10 12  2  0  0  0  0
 13 12  1  0  0  0  0
 14 15  1  1  0  0  0
 14  4  1  0  0  0  0
 15  8  1  0  0  0  0
 16  9  1  0  0  0  0
 16  6  1  0  0  0  0
 17 19  1  0  0  0  0
 17 21  1  0  0  0  0
 19 22  1  6  0  0  0
 19 21  1  0  0  0  0
 20 17  2  0  0  0  0
 21 18  1  6  0  0  0
 21 16  1  0  0  0  0
 22 26  1  0  0  0  0
 24 23  1  1  0  0  0
 24 26  1  0  0  0  0
 24 25  1  0  0  0  0
 26 27  1  1  0  0  0
 26 25  1  0  0  0  0
 29 28  1  0  0  0  0
 29 40  1  0  0  0  0
 30 31  1  0  0  0  0
 32 33  1  0  0  0  0
 32 34  2  0  0  0  0
 33 30  2  0  0  0  0
 34 29  1  0  0  0  0
 34 35  1  0  0  0  0
 35 31  2  0  0  0  0
 36 32  1  0  0  0  0
 37 36  1  0  0  0  0
 38 36  2  0  0  0  0
 39 40  1  0  0  0  0
M  END
>  <MODEL>
5

>  <REMARK>
 VINA RESULT:      -7.3      1.227      1.683
  Name = 
  8 active torsions:
  status: ('A' for Active; 'I' for Inactive)
    1  A    between atoms: C_3  and  N_7
    2  A    between atoms: C_3  and  C_11
    3  A    between atoms: N_7  and  C_9
    4  A    between atoms: N_7  and  C_27
    5  A    between atoms: C_15  and  C_17
    6  A    between atoms: C_20  and  O_26
    7  A    between atoms: O_26  and  C_32
    8  A    between atoms: N_36  and  C_37
                            x       y       z     vdW  Elec       q    Type
                         _______ _______ _______ _____ _____    ______ ____

>  <TORSDO>
F 8

$$$$
=
 OpenBabel11062419353D

 40 45  0  0  1  0  0  0  0  0999 V2000
  190.8440  176.4620  142.3870 C   0  0  0  0  0  1  0  0  0  0  0  0
  194.3620  173.8110  142.6300 O   0  0  0  0  0  0  0  0  0  0  0  0
  188.8910  175.7980  143.8790 C   0  0  2  0  0  3  0  0  0  0  0  0
  191.0800  172.2160  142.6050 C   0  0  2  0  0  3  0  0  0  0  0  0
  190.3500  171.2130  141.7470 C   0  0  0  0  0  3  0  0  0  0  0  0
  190.9610  174.4320  143.9010 C   0  0  1  0  0  3  0  0  0  0  0  0
  190.4170  175.8530  143.7210 C   0  0  1  0  0  3  0  0  0  0  0  0
  192.4270  170.5190  140.8090 O   0  0  0  0  0  0  0  0  0  0  0  0
  193.1290  173.6240  142.8240 C   0  0  0  0  0  0  0  0  0  0  0  0
  190.2830  173.4320  142.9860 C   0  0  0  0  0  0  0  0  0  0  0  0
  191.0330  170.4090  140.9280 C   0  0  0  0  0  3  0  0  0  0  0  0
  189.0220  173.6330  142.5520 C   0  0  0  0  0  3  0  0  0  0  0  0
  188.2480  174.9040  142.8120 C   0  0  0  0  0  2  0  0  0  0  0  0
  192.3780  172.6650  141.9370 C   0  0  1  0  0  3  0  0  0  0  0  0
  193.1970  171.4140  141.6180 C   0  0  0  0  0  2  0  0  0  0  0  0
  192.4350  174.3800  143.8410 N   0  0  0  0  0  0  0  0  0  0  0  0
  192.7080  175.0260  146.2690 C   0  0  0  0  0  0  0  0  0  0  0  0
  193.6560  176.4000  144.4540 O   0  0  0  0  0  1  0  0  0  0  0  0
  194.0010  174.3680  145.7480 C   0  0  1  0  0  3  0  0  0  0  0  0
  191.9090  175.2780  147.1550 O   0  0  0  0  0  0  0  0  0  0  0  0
  193.2050  175.1330  144.8330 C   0  0  2  0  0  0  0  0  0  0  0  0
  195.1040  175.0970  146.2140 O   0  0  0  0  0  0  0  0  0  0  0  0
  196.9040  172.5390  144.4460 O   0  0  0  0  0  1  0  0  0  0  0  0
  196.2020  173.0080  145.5580 C   0  0  1  0  0  3  0  0  0  0  0  0
  197.1680  173.7240  146.5010 C   0  0  0  0  0  2  0  0  0  0  0  0
  196.2360  174.5230  145.6190 C   0  0  2  0  0  0  0  0  0  0  0  0
  196.7940  175.1670  144.5100 O   0  0  0  0  0  1  0  0  0  0  0  0
  188.2510  177.1810  143.8590 C   0  0  0  0  0  2  0  0  0  0  0  0
  186.8230  177.1040  144.1480 N   0  0  0  0  0  0  0  0  0  0  0  0
  185.4760  178.2820  147.9970 C   0  0  0  0  0  3  0  0  0  0  0  0
  186.3080  177.1740  147.8410 C   0  0  0  0  0  3  0  0  0  0  0  0
  185.4260  178.6020  145.5840 C   0  0  0  0  0  0  0  0  0  0  0  0
  185.0400  178.9880  146.8760 C   0  0  0  0  0  3  0  0  0  0  0  0
  186.2960  177.4900  145.4290 C   0  0  0  0  0  0  0  0  0  0  0  0
  186.7160  176.7840  146.5660 C   0  0  0  0  0  3  0  0  0  0  0  0
  184.8560  179.3530  144.4450 C   0  0  0  0  0  0  0  0  0  0  0  0
  183.7120  179.0830  143.9960 O   0  0  0  0  0  1  0  0  0  0  0  0
  185.5640  180.4130  143.8910 O   0  0  0  0  0  0  0  0  0  0  0  0
  186.1130  177.5110  141.9600 O   0  0  0  0  0  1  0  0  0  0  0  0
  185.9260  176.6970  143.0770 C   0  0  0  0  0  2  0  0  0  0  0  0
  2  9  2  0  0  0  0
  3 28  1  6  0  0  0
  4  5  1  6  0  0  0
  4 10  1  0  0  0  0
  6 10  1  6  0  0  0
  7  1  1  6  0  0  0
  7  3  1  0  0  0  0
  7  6  1  0  0  0  0
  8 11  1  0  0  0  0
  8 15  1  0  0  0  0
  9 16  1  0  0  0  0
 11  5  2  0  0  0  0
 12 13  1  0  0  0  0
 12 10  2  0  0  0  0
 13  3  1  0  0  0  0
 14 15  1  1  0  0  0
 14  4  1  0  0  0  0
 14  9  1  0  0  0  0
 16  6  1  0  0  0  0
 16 21  1  0  0  0  0
 17 20  2  0  0  0  0
 19 22  1  1  0  0  0
 19 17  1  0  0  0  0
 21 18  1  6  0  0  0
 21 19  1  0  0  0  0
 21 17  1  0  0  0  0
 24 23  1  6  0  0  0
 24 26  1  0  0  0  0
 24 25  1  0  0  0  0
 26 27  1  6  0  0  0
 26 22  1  0  0  0  0
 26 25  1  0  0  0  0
 28 29  1  0  0  0  0
 29 34  1  0  0  0  0
 31 30  1  0  0  0  0
 32 33  1  0  0  0  0
 33 30  2  0  0  0  0
 34 32  2  0  0  0  0
 34 35  1  0  0  0  0
 35 31  2  0  0  0  0
 36 32  1  0  0  0  0
 37 36  1  0  0  0  0
 38 36  2  0  0  0  0
 39 40  1  0  0  0  0
 40 29  1  0  0  0  0
M  END
>  <MODEL>
6

>  <REMARK>
 VINA RESULT:      -7.3      1.984      8.197
  Name = 
  8 active torsions:
  status: ('A' for Active; 'I' for Inactive)
    1  A    between atoms: C_3  and  N_7
    2  A    between atoms: C_3  and  C_11
    3  A    between atoms: N_7  and  C_9
    4  A    between atoms: N_7  and  C_27
    5  A    between atoms: C_15  and  C_17
    6  A    between atoms: C_20  and  O_26
    7  A    between atoms: O_26  and  C_32
    8  A    between atoms: N_36  and  C_37
                            x       y       z     vdW  Elec       q    Type
                         _______ _______ _______ _____ _____    ______ ____

>  <TORSDO>
F 8

$$$$
=
 OpenBabel11062419353D

 40 45  0  0  1  0  0  0  0  0999 V2000
  189.6250  172.8730  145.7630 C   0  0  0  0  0  1  0  0  0  0  0  0
  191.9830  170.8090  142.6590 O   0  0  0  0  0  0  0  0  0  0  0  0
  189.9720  175.3930  145.8800 C   0  0  2  0  0  3  0  0  0  0  0  0
  193.6660  173.4400  144.5460 C   0  0  2  0  0  3  0  0  0  0  0  0
  194.8820  173.5530  145.4320 C   0  0  0  0  0  3  0  0  0  0  0  0
  191.2030  174.0720  144.1800 C   0  0  1  0  0  3  0  0  0  0  0  0
  189.8960  174.1550  144.9760 C   0  0  1  0  0  3  0  0  0  0  0  0
  195.7040  171.4980  144.5500 O   0  0  0  0  0  0  0  0  0  0  0  0
  192.1660  171.8740  143.3110 C   0  0  0  0  0  0  0  0  0  0  0  0
  192.4270  174.1080  145.0720 C   0  0  0  0  0  0  0  0  0  0  0  0
  195.8370  172.6210  145.3810 C   0  0  0  0  0  3  0  0  0  0  0  0
  192.3940  174.7250  146.2710 C   0  0  0  0  0  3  0  0  0  0  0  0
  191.1310  175.2890  146.8790 C   0  0  0  0  0  2  0  0  0  0  0  0
  193.3470  171.9770  144.2410 C   0  0  1  0  0  3  0  0  0  0  0  0
  194.6030  171.3380  143.6500 C   0  0  0  0  0  2  0  0  0  0  0  0
  191.2070  172.9510  143.2190 N   0  0  0  0  0  0  0  0  0  0  0  0
  189.8330  174.2910  141.5740 C   0  0  0  0  0  0  0  0  0  0  0  0
  189.1270  172.0490  142.3220 O   0  0  0  0  0  1  0  0  0  0  0  0
  190.6530  173.2180  140.8290 C   0  0  1  0  0  3  0  0  0  0  0  0
  189.2950  175.3830  141.6390 O   0  0  0  0  0  0  0  0  0  0  0  0
  190.1970  172.9310  142.1590 C   0  0  2  0  0  0  0  0  0  0  0  0
  189.8410  172.6150  139.8590 O   0  0  0  0  0  0  0  0  0  0  0  0
  192.9100  170.9330  139.0460 O   0  0  0  0  0  1  0  0  0  0  0  0
  192.0500  172.0300  138.9770 C   0  0  1  0  0  3  0  0  0  0  0  0
  191.0610  171.8260  137.8290 C   0  0  0  0  0  2  0  0  0  0  0  0
  190.6190  171.6140  139.2600 C   0  0  2  0  0  0  0  0  0  0  0  0
  190.4390  170.2950  139.6900 O   0  0  0  0  0  1  0  0  0  0  0  0
  188.6650  175.6590  146.6200 C   0  0  0  0  0  2  0  0  0  0  0  0
  188.2910  177.0660  146.5370 N   0  0  0  0  0  0  0  0  0  0  0  0
  184.2880  178.4540  146.2810 C   0  0  0  0  0  3  0  0  0  0  0  0
  184.9070  178.2880  147.5190 C   0  0  0  0  0  3  0  0  0  0  0  0
  186.2770  177.6110  145.1570 C   0  0  0  0  0  0  0  0  0  0  0  0
  184.9690  178.1160  145.1120 C   0  0  0  0  0  3  0  0  0  0  0  0
  186.9170  177.4700  146.4180 C   0  0  0  0  0  0  0  0  0  0  0  0
  186.2140  177.8030  147.5850 C   0  0  0  0  0  3  0  0  0  0  0  0
  186.9000  177.2020  143.8810 C   0  0  0  0  0  0  0  0  0  0  0  0
  187.8500  177.8590  143.3800 O   0  0  0  0  0  1  0  0  0  0  0  0
  186.4760  176.0410  143.2440 O   0  0  0  0  0  0  0  0  0  0  0  0
  189.6610  178.2680  147.9980 O   0  0  0  0  0  1  0  0  0  0  0  0
  189.3430  178.0650  146.6560 C   0  0  0  0  0  2  0  0  0  0  0  0
  2  9  2  0  0  0  0
  3 28  1  1  0  0  0
  3 13  1  0  0  0  0
  4 10  1  0  0  0  0
  4  5  1  1  0  0  0
  6  7  1  0  0  0  0
  6 10  1  1  0  0  0
  7  1  1  1  0  0  0
  7  3  1  0  0  0  0
  8 11  1  0  0  0  0
  9 14  1  0  0  0  0
 10 12  2  0  0  0  0
 11  5  2  0  0  0  0
 12 13  1  0  0  0  0
 14 15  1  6  0  0  0
 14  4  1  0  0  0  0
 15  8  1  0  0  0  0
 16  9  1  0  0  0  0
 16  6  1  0  0  0  0
 17 20  2  0  0  0  0
 17 21  1  0  0  0  0
 19 22  1  6  0  0  0
 19 17  1  0  0  0  0
 19 21  1  0  0  0  0
 21 18  1  1  0  0  0
 21 16  1  0  0  0  0
 24 23  1  6  0  0  0
 24 26  1  0  0  0  0
 25 24  1  0  0  0  0
 25 26  1  0  0  0  0
 26 27  1  1  0  0  0
 26 22  1  0  0  0  0
 29 28  1  0  0  0  0
 29 40  1  0  0  0  0
 30 31  1  0  0  0  0
 31 35  2  0  0  0  0
 32 34  2  0  0  0  0
 33 32  1  0  0  0  0
 33 30  2  0  0  0  0
 34 29  1  0  0  0  0
 34 35  1  0  0  0  0
 36 32  1  0  0  0  0
 37 36  1  0  0  0  0
 38 36  2  0  0  0  0
 40 39  1  0  0  0  0
M  END
>  <MODEL>
7

>  <REMARK>
 VINA RESULT:      -7.2      2.419      7.119
  Name = 
  8 active torsions:
  status: ('A' for Active; 'I' for Inactive)
    1  A    between atoms: C_3  and  N_7
    2  A    between atoms: C_3  and  C_11
    3  A    between atoms: N_7  and  C_9
    4  A    between atoms: N_7  and  C_27
    5  A    between atoms: C_15  and  C_17
    6  A    between atoms: C_20  and  O_26
    7  A    between atoms: O_26  and  C_32
    8  A    between atoms: N_36  and  C_37
                            x       y       z     vdW  Elec       q    Type
                         _______ _______ _______ _____ _____    ______ ____

>  <TORSDO>
F 8

$$$$
=
 OpenBabel11062419353D

 40 45  0  0  1  0  0  0  0  0999 V2000
  187.9440  173.1980  142.0750 C   0  0  0  0  0  1  0  0  0  0  0  0
  188.9300  175.5380  145.6820 O   0  0  0  0  0  0  0  0  0  0  0  0
  188.7860  174.1890  139.8860 C   0  0  2  0  0  3  0  0  0  0  0  0
  187.8800  177.4060  142.7280 C   0  0  2  0  0  3  0  0  0  0  0  0
  186.7780  178.3710  142.3700 C   0  0  0  0  0  3  0  0  0  0  0  0
  189.2660  175.3610  142.0180 C   0  0  1  0  0  3  0  0  0  0  0  0
  189.0580  173.9820  141.3830 C   0  0  1  0  0  3  0  0  0  0  0  0
  186.3930  178.7730  144.6870 O   0  0  0  0  0  0  0  0  0  0  0  0
  188.7630  175.8530  144.4710 C   0  0  0  0  0  0  0  0  0  0  0  0
  188.1240  176.3130  141.7250 C   0  0  0  0  0  0  0  0  0  0  0  0
  186.1160  179.0180  143.3330 C   0  0  0  0  0  3  0  0  0  0  0  0
  187.3780  176.1790  140.6090 C   0  0  0  0  0  3  0  0  0  0  0  0
  187.5170  175.0160  139.6540 C   0  0  0  0  0  2  0  0  0  0  0  0
  187.6320  176.7740  144.0960 C   0  0  1  0  0  3  0  0  0  0  0  0
  187.4500  177.9060  145.1080 C   0  0  0  0  0  2  0  0  0  0  0  0
  189.6080  175.2750  143.4510 N   0  0  0  0  0  0  0  0  0  0  0  0
  192.0410  174.8090  142.9470 C   0  0  0  0  0  0  0  0  0  0  0  0
  190.6820  173.2570  144.2990 O   0  0  0  0  0  1  0  0  0  0  0  0
  191.8940  175.3660  144.3780 C   0  0  1  0  0  3  0  0  0  0  0  0
  192.6590  174.6630  141.9060 O   0  0  0  0  0  0  0  0  0  0  0  0
  190.8300  174.5680  143.8410 C   0  0  2  0  0  0  0  0  0  0  0  0
  192.7140  174.6270  145.2420 O   0  0  0  0  0  0  0  0  0  0  0  0
  194.6250  177.6360  145.6860 O   0  0  0  0  0  1  0  0  0  0  0  0
  194.4390  176.3630  145.1460 C   0  0  1  0  0  3  0  0  0  0  0  0
  194.9390  175.3140  146.1400 C   0  0  0  0  0  2  0  0  0  0  0  0
  193.4560  175.5610  145.9780 C   0  0  2  0  0  0  0  0  0  0  0  0
  192.8040  176.2620  146.9980 O   0  0  0  0  0  1  0  0  0  0  0  0
  188.7020  172.8740  139.1200 C   0  0  0  0  0  2  0  0  0  0  0  0
  190.0270  172.4100  138.7240 N   0  0  0  0  0  0  0  0  0  0  0  0
  191.0600  168.3230  138.2230 C   0  0  0  0  0  3  0  0  0  0  0  0
  190.4830  169.0460  137.1790 C   0  0  0  0  0  3  0  0  0  0  0  0
  190.8880  170.2650  139.6820 C   0  0  0  0  0  0  0  0  0  0  0  0
  191.2580  168.9300  139.4630 C   0  0  0  0  0  3  0  0  0  0  0  0
  190.3270  171.0090  138.6090 C   0  0  0  0  0  0  0  0  0  0  0  0
  190.1230  170.3800  137.3710 C   0  0  0  0  0  3  0  0  0  0  0  0
  191.0570  170.8100  141.0460 C   0  0  0  0  0  0  0  0  0  0  0  0
  192.0080  171.5860  141.3230 O   0  0  0  0  0  0  0  0  0  0  0  0
  190.1220  170.5130  142.0310 O   0  0  0  0  0  1  0  0  0  0  0  0
  190.8330  173.8350  137.0580 O   0  0  0  0  0  1  0  0  0  0  0  0
  191.0270  173.4060  138.3710 C   0  0  0  0  0  2  0  0  0  0  0  0
  3 28  1  6  0  0  0
  3  7  1  0  0  0  0
  4  5  1  6  0  0  0
  4 14  1  0  0  0  0
  5 11  2  0  0  0  0
  6 10  1  1  0  0  0
  6 16  1  0  0  0  0
  7  6  1  0  0  0  0
  7  1  1  1  0  0  0
  8 15  1  0  0  0  0
  9  2  2  0  0  0  0
 10  4  1  0  0  0  0
 11  8  1  0  0  0  0
 12 10  2  0  0  0  0
 13  3  1  0  0  0  0
 13 12  1  0  0  0  0
 14  9  1  0  0  0  0
 14 15  1  1  0  0  0
 16 21  1  0  0  0  0
 16  9  1  0  0  0  0
 17 21  1  0  0  0  0
 17 19  1  0  0  0  0
 19 22  1  1  0  0  0
 20 17  2  0  0  0  0
 21 18  1  1  0  0  0
 21 19  1  0  0  0  0
 22 26  1  0  0  0  0
 24 23  1  1  0  0  0
 24 26  1  0  0  0  0
 24 25  1  0  0  0  0
 26 25  1  0  0  0  0
 26 27  1  1  0  0  0
 29 28  1  0  0  0  0
 30 33  1  0  0  0  0
 31 35  1  0  0  0  0
 31 30  2  0  0  0  0
 32 36  1  0  0  0  0
 33 32  2  0  0  0  0
 34 29  1  0  0  0  0
 34 32  1  0  0  0  0
 35 34  2  0  0  0  0
 36 37  2  0  0  0  0
 36 38  1  0  0  0  0
 39 40  1  0  0  0  0
 40 29  1  0  0  0  0
M  END
>  <MODEL>
8

>  <REMARK>
 VINA RESULT:      -7.0      2.760      6.176
  Name = 
  8 active torsions:
  status: ('A' for Active; 'I' for Inactive)
    1  A    between atoms: C_3  and  N_7
    2  A    between atoms: C_3  and  C_11
    3  A    between atoms: N_7  and  C_9
    4  A    between atoms: N_7  and  C_27
    5  A    between atoms: C_15  and  C_17
    6  A    between atoms: C_20  and  O_26
    7  A    between atoms: O_26  and  C_32
    8  A    between atoms: N_36  and  C_37
                            x       y       z     vdW  Elec       q    Type
                         _______ _______ _______ _____ _____    ______ ____

>  <TORSDO>
F 8

$$$$
=
 OpenBabel11062419353D

 40 45  0  0  1  0  0  0  0  0999 V2000
  190.4680  172.9310  145.0080 C   0  0  0  0  0  1  0  0  0  0  0  0
  193.8250  170.8380  143.0560 O   0  0  0  0  0  0  0  0  0  0  0  0
  190.4200  175.4520  144.6540 C   0  0  2  0  0  3  0  0  0  0  0  0
  194.5690  174.0270  144.6660 C   0  0  2  0  0  3  0  0  0  0  0  0
  195.4790  174.5210  145.7630 C   0  0  0  0  0  3  0  0  0  0  0  0
  192.2270  174.1100  143.6120 C   0  0  1  0  0  3  0  0  0  0  0  0
  190.7570  174.0830  144.0470 C   0  0  1  0  0  3  0  0  0  0  0  0
  196.7810  172.5350  145.5620 O   0  0  0  0  0  0  0  0  0  0  0  0
  193.6800  172.0150  143.4870 C   0  0  0  0  0  0  0  0  0  0  0  0
  193.1550  174.5320  144.7340 C   0  0  0  0  0  0  0  0  0  0  0  0
  196.5330  173.7910  146.1380 C   0  0  0  0  0  3  0  0  0  0  0  0
  192.7200  175.3310  145.7290 C   0  0  0  0  0  3  0  0  0  0  0  0
  191.2760  175.7450  145.8910 C   0  0  0  0  0  2  0  0  0  0  0  0
  194.5470  172.5000  144.6190 C   0  0  1  0  0  3  0  0  0  0  0  0
  195.9910  172.0160  144.4880 C   0  0  0  0  0  2  0  0  0  0  0  0
  192.6400  172.8600  142.9450 N   0  0  0  0  0  0  0  0  0  0  0  0
  190.9550  171.3280  141.8490 C   0  0  0  0  0  0  0  0  0  0  0  0
  192.7300  172.4380  140.5450 O   0  0  0  0  0  1  0  0  0  0  0  0
  190.5690  172.8010  141.6040 C   0  0  1  0  0  3  0  0  0  0  0  0
  190.6720  170.1540  142.0130 O   0  0  0  0  0  0  0  0  0  0  0  0
  191.9590  172.4650  141.7090 C   0  0  2  0  0  0  0  0  0  0  0  0
  190.1700  172.9530  140.2690 O   0  0  0  0  0  0  0  0  0  0  0  0
  187.8430  175.6660  140.6350 O   0  0  0  0  0  1  0  0  0  0  0  0
  188.8130  174.7970  141.1380 C   0  0  1  0  0  3  0  0  0  0  0  0
  188.1410  173.5080  141.6120 C   0  0  0  0  0  2  0  0  0  0  0  0
  188.8950  173.5350  140.3010 C   0  0  2  0  0  0  0  0  0  0  0  0
  188.1400  173.5320  139.1230 O   0  0  0  0  0  1  0  0  0  0  0  0
  188.9410  175.5920  144.9950 C   0  0  0  0  0  2  0  0  0  0  0  0
  188.5170  176.9860  144.9380 N   0  0  0  0  0  0  0  0  0  0  0  0
  185.1830  178.5230  147.0680 C   0  0  0  0  0  3  0  0  0  0  0  0
  186.3810  178.2460  147.7240 C   0  0  0  0  0  3  0  0  0  0  0  0
  186.1190  177.6990  144.9770 C   0  0  0  0  0  0  0  0  0  0  0  0
  185.0550  178.2500  145.7060 C   0  0  0  0  0  3  0  0  0  0  0  0
  187.3500  177.4440  145.6410 C   0  0  0  0  0  0  0  0  0  0  0  0
  187.4570  177.7130  147.0130 C   0  0  0  0  0  3  0  0  0  0  0  0
  185.8780  177.3640  143.5570 C   0  0  0  0  0  0  0  0  0  0  0  0
  185.6680  178.2650  142.7030 O   0  0  0  0  0  0  0  0  0  0  0  0
  185.9410  176.0410  143.1380 O   0  0  0  0  0  1  0  0  0  0  0  0
  189.0350  177.8990  142.8510 O   0  0  0  0  0  1  0  0  0  0  0  0
  189.3520  177.9290  144.2090 C   0  0  0  0  0  2  0  0  0  0  0  0
  2  9  2  0  0  0  0
  3 28  1  1  0  0  0
  3 13  1  0  0  0  0
  4 10  1  0  0  0  0
  4  5  1  1  0  0  0
  5 11  2  0  0  0  0
  6  7  1  0  0  0  0
  6 10  1  1  0  0  0
  7  3  1  0  0  0  0
  7  1  1  1  0  0  0
  8 11  1  0  0  0  0
  9 14  1  0  0  0  0
 10 12  2  0  0  0  0
 12 13  1  0  0  0  0
 14 15  1  6  0  0  0
 14  4  1  0  0  0  0
 15  8  1  0  0  0  0
 16  9  1  0  0  0  0
 16  6  1  0  0  0  0
 17 20  2  0  0  0  0
 19 22  1  6  0  0  0
 19 21  1  0  0  0  0
 19 17  1  0  0  0  0
 21 18  1  6  0  0  0
 21 17  1  0  0  0  0
 21 16  1  0  0  0  0
 22 26  1  0  0  0  0
 24 23  1  6  0  0  0
 24 25  1  0  0  0  0
 26 27  1  6  0  0  0
 26 24  1  0  0  0  0
 26 25  1  0  0  0  0
 29 28  1  0  0  0  0
 29 34  1  0  0  0  0
 30 31  1  0  0  0  0
 32 34  2  0  0  0  0
 32 33  1  0  0  0  0
 33 30  2  0  0  0  0
 34 35  1  0  0  0  0
 35 31  2  0  0  0  0
 36 32  1  0  0  0  0
 37 36  2  0  0  0  0
 38 36  1  0  0  0  0
 39 40  1  0  0  0  0
 40 29  1  0  0  0  0
M  END
>  <MODEL>
9

>  <REMARK>
 VINA RESULT:      -7.0      2.031      7.555
  Name = 
  8 active torsions:
  status: ('A' for Active; 'I' for Inactive)
    1  A    between atoms: C_3  and  N_7
    2  A    between atoms: C_3  and  C_11
    3  A    between atoms: N_7  and  C_9
    4  A    between atoms: N_7  and  C_27
    5  A    between atoms: C_15  and  C_17
    6  A    between atoms: C_20  and  O_26
    7  A    between atoms: O_26  and  C_32
    8  A    between atoms: N_36  and  C_37
                            x       y       z     vdW  Elec       q    Type
                         _______ _______ _______ _____ _____    ______ ____

>  <TORSDO>
F 8

$$$$
