=
 OpenBabel11062421553D

 37 40  0  0  1  0  0  0  0  0999 V2000
  190.4430  176.6560  146.2520 C   0  0  0  0  0  0  0  0  0  0  0  0
  188.5310  177.3190  145.6030 C   0  0  0  0  0  0  0  0  0  0  0  0
  191.4910  175.9080  147.0200 C   0  0  0  0  0  2  0  0  0  0  0  0
  193.8190  176.5970  146.3800 C   0  0  0  0  0  0  0  0  0  0  0  0
  193.9000  175.0970  144.4660 N   0  0  0  0  0  0  0  0  0  0  0  0
  190.5720  177.2870  145.0310 C   0  0  0  0  0  0  0  0  0  0  0  0
  191.8340  177.4830  144.2570 C   0  0  1  0  0  3  0  0  0  0  0  0
  191.7620  175.1350  143.1910 C   0  0  0  0  0  2  0  0  0  0  0  0
  192.7050  176.7610  147.3740 C   0  0  0  0  0  2  0  0  0  0  0  0
  194.4410  177.5810  146.0130 O   0  0  0  0  0  0  0  0  0  0  0  0
  192.5390  174.5660  144.3800 C   0  0  0  0  0  2  0  0  0  0  0  0
  189.1480  176.6600  146.6090 N   0  0  0  0  0  0  0  0  0  0  0  0
  194.2240  175.2410  145.8820 C   0  0  0  0  0  2  0  0  0  0  0  0
  189.3670  177.7160  144.6170 N   0  0  0  0  0  2  0  0  0  0  0  0
  191.8980  176.6480  142.9810 C   0  0  0  0  0  2  0  0  0  0  0  0
  191.9940  178.8200  143.9450 F   0  0  0  0  0  0  0  0  0  0  0  0
  186.4050  176.3360  145.1680 O   0  0  0  0  0  1  0  0  0  0  0  0
  186.5640  177.9100  146.9320 C   0  0  0  0  0  1  0  0  0  0  0  0
  187.0400  177.5270  145.5390 C   0  0  1  0  0  0  0  0  0  0  0  0
  186.7050  178.6100  144.5910 N   0  0  0  0  0  0  0  0  0  0  0  0
  185.8760  179.5010  145.1980 O   0  0  0  0  0  1  0  0  0  0  0  0
  184.4900  178.5430  140.6440 C   0  0  0  0  0  2  0  0  0  0  0  0
  183.9510  178.0060  141.9620 C   0  0  0  0  0  2  0  0  0  0  0  0
  186.6870  177.2490  141.1150 C   0  0  0  0  0  2  0  0  0  0  0  0
  186.9970  178.2980  142.1740 C   0  0  0  0  0  2  0  0  0  0  0  0
  185.6530  177.7170  140.0860 C   0  0  0  0  0  2  0  0  0  0  0  0
  184.6660  178.6890  143.1210 C   0  0  0  0  0  2  0  0  0  0  0  0
  186.0650  178.1010  143.3650 C   0  0  0  0  0  3  0  0  0  0  0  0
  194.9060  174.2060  143.8560 C   0  0  1  0  0  3  0  0  0  0  0  0
  195.7760  174.7700  142.7060 C   0  0  1  0  0  3  0  0  0  0  0  0
  195.9660  176.7070  141.3530 C   0  0  0  0  0  2  0  0  0  0  0  0
  195.2420  174.4570  141.4470 O   0  0  0  0  0  0  0  0  0  0  0  0
  196.0230  176.2630  142.7830 C   0  0  0  0  0  2  0  0  0  0  0  0
  195.7630  175.4250  140.5790 C   0  0  0  0  0  2  0  0  0  0  0  0
  195.6800  173.4430  144.8840 C   0  0  0  0  0  0  0  0  0  0  0  0
  196.9170  173.9150  145.2990 O   0  0  0  0  0  0  0  0  0  0  0  0
  195.2180  172.3830  145.3810 O   0  0  0  0  0  1  0  0  0  0  0  0
  1 12  1  0  0  0  0
  1  3  1  0  0  0  0
  2 12  2  0  0  0  0
  3  9  1  0  0  0  0
  4  9  1  0  0  0  0
  5 13  1  0  0  0  0
  6  1  2  0  0  0  0
  7 16  1  6  0  0  0
  7  6  1  0  0  0  0
  8 11  1  0  0  0  0
 10  4  2  0  0  0  0
 11  5  1  0  0  0  0
 13  4  1  0  0  0  0
 14  6  1  0  0  0  0
 14  2  1  0  0  0  0
 15  8  1  0  0  0  0
 15  7  1  0  0  0  0
 17 19  1  0  0  0  0
 19  2  1  0  0  0  0
 19 18  1  1  0  0  0
 20 21  1  0  0  0  0
 20 19  1  0  0  0  0
 22 23  1  0  0  0  0
 23 27  1  0  0  0  0
 24 25  1  0  0  0  0
 25 28  1  0  0  0  0
 26 22  1  0  0  0  0
 26 24  1  0  0  0  0
 27 28  1  0  0  0  0
 28 20  1  0  0  0  0
 29  5  1  0  0  0  0
 29 35  1  1  0  0  0
 30 33  1  0  0  0  0
 30 29  1  1  0  0  0
 31 33  1  0  0  0  0
 32 30  1  0  0  0  0
 34 31  1  0  0  0  0
 34 32  1  0  0  0  0
 35 36  2  0  0  0  0
 35 37  1  0  0  0  0
M  END
>  <MODEL>
1

>  <REMARK>
 VINA RESULT:      -8.4      0.000      0.000
  Name = 
  6 active torsions:
  status: ('A' for Active; 'I' for Inactive)
    1  A    between atoms: C_2  and  C_37
    2  A    between atoms: C_5  and  C_23
    3  A    between atoms: N_6  and  C_33
    4  A    between atoms: N_6  and  C_37
    5  A    between atoms: C_7  and  C_23
    6  A    between atoms: N_13  and  C_23
                            x       y       z     vdW  Elec       q    Type
                         _______ _______ _______ _____ _____    ______ ____

>  <TORSDO>
F 6

$$$$
=
 OpenBabel11062421553D

 37 40  0  0  1  0  0  0  0  0999 V2000
  189.8470  176.6120  146.4980 C   0  0  0  0  0  0  0  0  0  0  0  0
  188.0330  177.4220  145.7460 C   0  0  0  0  0  0  0  0  0  0  0  0
  190.7950  175.8410  147.3680 C   0  0  0  0  0  2  0  0  0  0  0  0
  193.1890  176.1440  146.6740 C   0  0  0  0  0  0  0  0  0  0  0  0
  193.0720  174.4140  144.9670 N   0  0  0  0  0  0  0  0  0  0  0  0
  190.0510  177.0610  145.2080 C   0  0  0  0  0  0  0  0  0  0  0  0
  191.3240  176.9950  144.4320 C   0  0  1  0  0  3  0  0  0  0  0  0
  190.9510  174.5580  143.6720 C   0  0  0  0  0  2  0  0  0  0  0  0
  192.1090  176.5720  147.6250 C   0  0  0  0  0  2  0  0  0  0  0  0
  193.9290  176.9860  146.1930 O   0  0  0  0  0  0  0  0  0  0  0  0
  191.6540  174.0520  144.9330 C   0  0  0  0  0  2  0  0  0  0  0  0
  188.5640  176.8240  146.8360 N   0  0  0  0  0  0  0  0  0  0  0  0
  193.4170  174.6950  146.3580 C   0  0  0  0  0  2  0  0  0  0  0  0
  188.9080  177.5820  144.7290 N   0  0  0  0  0  2  0  0  0  0  0  0
  191.2770  176.0030  143.2730 C   0  0  0  0  0  2  0  0  0  0  0  0
  191.6510  178.2510  143.9550 F   0  0  0  0  0  0  0  0  0  0  0  0
  185.8020  176.6750  145.3720 O   0  0  0  0  0  1  0  0  0  0  0  0
  186.1500  178.3800  146.9800 C   0  0  0  0  0  1  0  0  0  0  0  0
  186.5800  177.8080  145.6370 C   0  0  1  0  0  0  0  0  0  0  0  0
  186.3880  178.8270  144.5840 N   0  0  0  0  0  0  0  0  0  0  0  0
  185.5750  179.8110  145.0520 O   0  0  0  0  0  1  0  0  0  0  0  0
  184.2770  178.5510  140.5900 C   0  0  0  0  0  2  0  0  0  0  0  0
  183.7410  178.0050  141.9060 C   0  0  0  0  0  2  0  0  0  0  0  0
  186.5370  177.4040  141.1370 C   0  0  0  0  0  2  0  0  0  0  0  0
  186.7560  178.4890  142.1820 C   0  0  0  0  0  2  0  0  0  0  0  0
  185.5010  177.7880  140.0760 C   0  0  0  0  0  2  0  0  0  0  0  0
  184.3840  178.7520  143.0670 C   0  0  0  0  0  2  0  0  0  0  0  0
  185.8100  178.2570  143.3540 C   0  0  0  0  0  3  0  0  0  0  0  0
  193.9540  173.3320  144.4870 C   0  0  1  0  0  3  0  0  0  0  0  0
  193.3750  171.8990  144.4150 C   0  0  1  0  0  3  0  0  0  0  0  0
  194.1070  169.6500  144.2400 C   0  0  0  0  0  2  0  0  0  0  0  0
  193.1610  171.4890  143.0910 O   0  0  0  0  0  0  0  0  0  0  0  0
  194.2060  170.8520  145.1300 C   0  0  0  0  0  2  0  0  0  0  0  0
  193.1740  170.0890  143.1350 C   0  0  0  0  0  2  0  0  0  0  0  0
  194.7300  173.7350  143.2730 C   0  0  0  0  0  0  0  0  0  0  0  0
  195.9310  173.1010  142.9870 O   0  0  0  0  0  1  0  0  0  0  0  0
  194.3010  174.6350  142.5040 O   0  0  0  0  0  0  0  0  0  0  0  0
  1 12  1  0  0  0  0
  1  3  1  0  0  0  0
  2 12  2  0  0  0  0
  3  9  1  0  0  0  0
  4  9  1  0  0  0  0
  5 13  1  0  0  0  0
  6  1  2  0  0  0  0
  7 16  1  6  0  0  0
  7  6  1  0  0  0  0
  8 11  1  0  0  0  0
 10  4  2  0  0  0  0
 11  5  1  0  0  0  0
 13  4  1  0  0  0  0
 14  6  1  0  0  0  0
 14  2  1  0  0  0  0
 15  8  1  0  0  0  0
 15  7  1  0  0  0  0
 17 19  1  0  0  0  0
 19  2  1  0  0  0  0
 19 18  1  1  0  0  0
 20 21  1  0  0  0  0
 20 19  1  0  0  0  0
 22 23  1  0  0  0  0
 23 27  1  0  0  0  0
 24 25  1  0  0  0  0
 25 28  1  0  0  0  0
 26 22  1  0  0  0  0
 26 24  1  0  0  0  0
 27 28  1  0  0  0  0
 28 20  1  0  0  0  0
 29 35  1  6  0  0  0
 29  5  1  0  0  0  0
 30 29  1  6  0  0  0
 30 33  1  0  0  0  0
 31 33  1  0  0  0  0
 32 34  1  0  0  0  0
 32 30  1  0  0  0  0
 34 31  1  0  0  0  0
 36 35  1  0  0  0  0
 37 35  2  0  0  0  0
M  END
>  <MODEL>
2

>  <REMARK>
 VINA RESULT:      -8.3      1.536      2.406
  Name = 
  6 active torsions:
  status: ('A' for Active; 'I' for Inactive)
    1  A    between atoms: C_2  and  C_37
    2  A    between atoms: C_5  and  C_23
    3  A    between atoms: N_6  and  C_33
    4  A    between atoms: N_6  and  C_37
    5  A    between atoms: C_7  and  C_23
    6  A    between atoms: N_13  and  C_23
                            x       y       z     vdW  Elec       q    Type
                         _______ _______ _______ _____ _____    ______ ____

>  <TORSDO>
F 6

$$$$
=
 OpenBabel11062421553D

 37 40  0  0  1  0  0  0  0  0999 V2000
  192.6310  175.7080  145.6560 C   0  0  0  0  0  0  0  0  0  0  0  0
  194.1260  175.1110  144.2690 C   0  0  0  0  0  0  0  0  0  0  0  0
  191.9660  176.4260  146.7930 C   0  0  0  0  0  2  0  0  0  0  0  0
  189.6150  175.6350  147.1770 C   0  0  0  0  0  0  0  0  0  0  0  0
  188.6820  177.1010  145.4740 N   0  0  0  0  0  0  0  0  0  0  0  0
  192.0330  175.0520  144.5990 C   0  0  0  0  0  0  0  0  0  0  0  0
  190.5730  174.7950  144.4200 C   0  0  1  0  0  3  0  0  0  0  0  0
  190.0960  177.1270  143.4250 C   0  0  0  0  0  2  0  0  0  0  0  0
  191.0470  175.5310  147.6180 C   0  0  0  0  0  2  0  0  0  0  0  0
  188.9390  174.6220  147.1010 O   0  0  0  0  0  0  0  0  0  0  0  0
  189.8600  177.6840  144.8310 C   0  0  0  0  0  2  0  0  0  0  0  0
  193.9570  175.7610  145.4430 N   0  0  0  0  0  0  0  0  0  0  0  0
  188.9820  176.9660  146.8970 C   0  0  0  0  0  2  0  0  0  0  0  0
  192.9740  174.6650  143.7200 N   0  0  0  0  0  2  0  0  0  0  0  0
  189.9490  175.6070  143.2880 C   0  0  0  0  0  2  0  0  0  0  0  0
  190.3550  173.4480  144.2000 F   0  0  0  0  0  0  0  0  0  0  0  0
  195.3360  174.1480  142.4570 O   0  0  0  0  0  1  0  0  0  0  0  0
  195.9150  176.3410  143.1420 C   0  0  0  0  0  1  0  0  0  0  0  0
  195.4630  174.9600  143.5910 C   0  0  1  0  0  0  0  0  0  0  0  0
  196.4610  174.3960  144.5240 N   0  0  0  0  0  0  0  0  0  0  0  0
  197.7010  174.8290  144.1740 O   0  0  0  0  0  1  0  0  0  0  0  0
  197.5720  170.1220  145.5170 C   0  0  0  0  0  2  0  0  0  0  0  0
  197.7560  170.7840  144.1590 C   0  0  0  0  0  2  0  0  0  0  0  0
  195.1520  171.0530  145.5440 C   0  0  0  0  0  2  0  0  0  0  0  0
  195.7560  172.4250  145.8050 C   0  0  0  0  0  2  0  0  0  0  0  0
  196.1020  169.9000  145.8850 C   0  0  0  0  0  2  0  0  0  0  0  0
  197.8300  172.2950  144.3350 C   0  0  0  0  0  2  0  0  0  0  0  0
  196.4420  172.9220  144.5380 C   0  0  0  0  0  3  0  0  0  0  0  0
  187.4770  177.9420  145.3390 C   0  0  1  0  0  3  0  0  0  0  0  0
  186.9090  178.1790  143.9190 C   0  0  1  0  0  3  0  0  0  0  0  0
  184.8370  178.5450  142.8280 C   0  0  0  0  0  2  0  0  0  0  0  0
  186.5440  176.9750  143.2970 O   0  0  0  0  0  0  0  0  0  0  0  0
  185.7400  179.1410  143.8650 C   0  0  0  0  0  2  0  0  0  0  0  0
  185.5970  177.3390  142.3290 C   0  0  0  0  0  2  0  0  0  0  0  0
  186.4360  177.6020  146.3590 C   0  0  0  0  0  0  0  0  0  0  0  0
  186.1230  178.5210  147.3500 O   0  0  0  0  0  1  0  0  0  0  0  0
  185.8360  176.4960  146.3220 O   0  0  0  0  0  0  0  0  0  0  0  0
  1  3  1  0  0  0  0
  2 12  2  0  0  0  0
  3  9  1  0  0  0  0
  4  9  1  0  0  0  0
  5 13  1  0  0  0  0
  6  1  2  0  0  0  0
  7 16  1  6  0  0  0
  7  6  1  0  0  0  0
  8 11  1  0  0  0  0
 10  4  2  0  0  0  0
 11  5  1  0  0  0  0
 12  1  1  0  0  0  0
 13  4  1  0  0  0  0
 14  2  1  0  0  0  0
 14  6  1  0  0  0  0
 15  8  1  0  0  0  0
 15  7  1  0  0  0  0
 17 19  1  0  0  0  0
 19 18  1  6  0  0  0
 19  2  1  0  0  0  0
 19 20  1  0  0  0  0
 20 28  1  0  0  0  0
 21 20  1  0  0  0  0
 22 26  1  0  0  0  0
 23 27  1  0  0  0  0
 23 22  1  0  0  0  0
 24 25  1  0  0  0  0
 24 26  1  0  0  0  0
 27 28  1  0  0  0  0
 28 25  1  0  0  0  0
 29  5  1  0  0  0  0
 29 35  1  1  0  0  0
 30 29  1  1  0  0  0
 31 33  1  0  0  0  0
 32 30  1  0  0  0  0
 33 30  1  0  0  0  0
 34 31  1  0  0  0  0
 34 32  1  0  0  0  0
 35 36  1  0  0  0  0
 37 35  2  0  0  0  0
M  END
>  <MODEL>
3

>  <REMARK>
 VINA RESULT:      -8.3      2.045      9.196
  Name = 
  6 active torsions:
  status: ('A' for Active; 'I' for Inactive)
    1  A    between atoms: C_2  and  C_37
    2  A    between atoms: C_5  and  C_23
    3  A    between atoms: N_6  and  C_33
    4  A    between atoms: N_6  and  C_37
    5  A    between atoms: C_7  and  C_23
    6  A    between atoms: N_13  and  C_23
                            x       y       z     vdW  Elec       q    Type
                         _______ _______ _______ _____ _____    ______ ____

>  <TORSDO>
F 6

$$$$
=
 OpenBabel11062421553D

 37 40  0  0  1  0  0  0  0  0999 V2000
  192.8340  176.0240  145.0950 C   0  0  0  0  0  0  0  0  0  0  0  0
  194.2310  175.8570  143.5020 C   0  0  0  0  0  0  0  0  0  0  0  0
  192.2390  176.4140  146.4160 C   0  0  0  0  0  2  0  0  0  0  0  0
  189.9580  175.4240  146.7650 C   0  0  0  0  0  0  0  0  0  0  0  0
  188.8330  177.1960  145.5350 N   0  0  0  0  0  0  0  0  0  0  0  0
  192.1750  175.6050  143.9570 C   0  0  0  0  0  0  0  0  0  0  0  0
  190.7170  175.3160  143.8250 C   0  0  1  0  0  3  0  0  0  0  0  0
  190.0720  177.7860  143.4580 C   0  0  0  0  0  2  0  0  0  0  0  0
  191.4250  175.2990  147.0650 C   0  0  0  0  0  2  0  0  0  0  0  0
  189.3170  174.4210  146.4950 O   0  0  0  0  0  0  0  0  0  0  0  0
  189.9320  177.9800  144.9690 C   0  0  0  0  0  2  0  0  0  0  0  0
  194.1340  176.2000  144.8070 N   0  0  0  0  0  0  0  0  0  0  0  0
  189.2550  176.7460  146.8590 C   0  0  0  0  0  2  0  0  0  0  0  0
  193.0540  175.4900  142.9460 N   0  0  0  0  0  2  0  0  0  0  0  0
  189.9710  176.3360  142.9690 C   0  0  0  0  0  2  0  0  0  0  0  0
  190.5320  174.0490  143.3040 F   0  0  0  0  0  0  0  0  0  0  0  0
  195.2770  176.5860  141.4910 O   0  0  0  0  0  1  0  0  0  0  0  0
  196.4920  176.7900  143.5150 C   0  0  0  0  0  1  0  0  0  0  0  0
  195.5120  175.9470  142.7140 C   0  0  1  0  0  0  0  0  0  0  0  0
  196.0840  174.6020  142.4960 N   0  0  0  0  0  0  0  0  0  0  0  0
  195.5130  174.0420  141.3960 O   0  0  0  0  0  1  0  0  0  0  0  0
  196.0820  170.8820  145.0740 C   0  0  0  0  0  2  0  0  0  0  0  0
  194.8400  171.5750  144.5320 C   0  0  0  0  0  2  0  0  0  0  0  0
  196.9320  173.2050  145.8510 C   0  0  0  0  0  2  0  0  0  0  0  0
  197.2090  173.5170  144.3870 C   0  0  0  0  0  2  0  0  0  0  0  0
  196.8160  171.7050  146.1380 C   0  0  0  0  0  2  0  0  0  0  0  0
  195.2080  172.3850  143.2950 C   0  0  0  0  0  2  0  0  0  0  0  0
  195.8870  173.7160  143.6560 C   0  0  0  0  0  3  0  0  0  0  0  0
  187.5910  177.9760  145.6930 C   0  0  1  0  0  3  0  0  0  0  0  0
  186.7610  178.2880  144.4240 C   0  0  1  0  0  3  0  0  0  0  0  0
  184.5050  178.5600  143.7490 C   0  0  0  0  0  2  0  0  0  0  0  0
  186.3810  177.1180  143.7490 O   0  0  0  0  0  0  0  0  0  0  0  0
  185.5320  179.1390  144.6740 C   0  0  0  0  0  2  0  0  0  0  0  0
  185.2510  177.4800  143.0020 C   0  0  0  0  0  2  0  0  0  0  0  0
  186.7710  177.5010  146.8510 C   0  0  0  0  0  0  0  0  0  0  0  0
  186.6610  178.2960  147.9840 O   0  0  0  0  0  1  0  0  0  0  0  0
  186.1740  176.3940  146.8060 O   0  0  0  0  0  0  0  0  0  0  0  0
  1  3  1  0  0  0  0
  2 12  2  0  0  0  0
  3  9  1  0  0  0  0
  4 13  1  0  0  0  0
  4  9  1  0  0  0  0
  5 29  1  0  0  0  0
  5 13  1  0  0  0  0
  6  1  2  0  0  0  0
  7 16  1  6  0  0  0
  7  6  1  0  0  0  0
  8 11  1  0  0  0  0
 10  4  2  0  0  0  0
 11  5  1  0  0  0  0
 12  1  1  0  0  0  0
 14  2  1  0  0  0  0
 14  6  1  0  0  0  0
 15  8  1  0  0  0  0
 15  7  1  0  0  0  0
 17 19  1  0  0  0  0
 19  2  1  0  0  0  0
 19 18  1  1  0  0  0
 20 19  1  0  0  0  0
 20 28  1  0  0  0  0
 21 20  1  0  0  0  0
 22 26  1  0  0  0  0
 23 22  1  0  0  0  0
 24 26  1  0  0  0  0
 25 24  1  0  0  0  0
 27 28  1  0  0  0  0
 27 23  1  0  0  0  0
 28 25  1  0  0  0  0
 29 35  1  1  0  0  0
 30 33  1  0  0  0  0
 30 29  1  1  0  0  0
 31 33  1  0  0  0  0
 32 30  1  0  0  0  0
 34 32  1  0  0  0  0
 34 31  1  0  0  0  0
 35 36  1  0  0  0  0
 37 35  2  0  0  0  0
M  END
>  <MODEL>
4

>  <REMARK>
 VINA RESULT:      -8.1      2.139      8.864
  Name = 
  6 active torsions:
  status: ('A' for Active; 'I' for Inactive)
    1  A    between atoms: C_2  and  C_37
    2  A    between atoms: C_5  and  C_23
    3  A    between atoms: N_6  and  C_33
    4  A    between atoms: N_6  and  C_37
    5  A    between atoms: C_7  and  C_23
    6  A    between atoms: N_13  and  C_23
                            x       y       z     vdW  Elec       q    Type
                         _______ _______ _______ _____ _____    ______ ____

>  <TORSDO>
F 6

$$$$
=
 OpenBabel11062421553D

 37 40  0  0  1  0  0  0  0  0999 V2000
  189.6110  174.9960  143.2150 C   0  0  0  0  0  0  0  0  0  0  0  0
  188.2710  176.5580  142.6860 C   0  0  0  0  0  0  0  0  0  0  0  0
  190.2930  173.6600  143.2120 C   0  0  0  0  0  2  0  0  0  0  0  0
  192.0380  173.4740  145.0080 C   0  0  0  0  0  0  0  0  0  0  0  0
  193.7550  174.5510  143.6630 N   0  0  0  0  0  0  0  0  0  0  0  0
  190.0800  176.1890  143.7290 C   0  0  0  0  0  0  0  0  0  0  0  0
  191.3280  176.3880  144.5230 C   0  0  1  0  0  3  0  0  0  0  0  0
  192.8500  176.5240  142.4440 C   0  0  0  0  0  2  0  0  0  0  0  0
  190.6260  173.1490  144.6100 C   0  0  0  0  0  2  0  0  0  0  0  0
  192.2630  173.8600  146.1430 O   0  0  0  0  0  0  0  0  0  0  0  0
  193.0340  175.0060  142.4730 C   0  0  0  0  0  2  0  0  0  0  0  0
  188.4730  175.2290  142.5400 N   0  0  0  0  0  0  0  0  0  0  0  0
  193.1810  173.2680  144.0580 C   0  0  0  0  0  2  0  0  0  0  0  0
  189.2330  177.1810  143.4040 N   0  0  0  0  0  2  0  0  0  0  0  0
  192.4100  177.1580  143.7700 C   0  0  0  0  0  2  0  0  0  0  0  0
  191.0340  177.0380  145.7070 F   0  0  0  0  0  0  0  0  0  0  0  0
  187.3980  178.6710  142.0180 O   0  0  0  0  0  1  0  0  0  0  0  0
  186.9950  176.8060  140.6140 C   0  0  0  0  0  1  0  0  0  0  0  0
  187.1250  177.2990  142.0470 C   0  0  1  0  0  0  0  0  0  0  0  0
  185.8650  177.0350  142.7730 N   0  0  0  0  0  0  0  0  0  0  0  0
  184.8210  177.5410  142.0630 O   0  0  0  0  0  1  0  0  0  0  0  0
  184.4430  178.2900  146.8830 C   0  0  0  0  0  2  0  0  0  0  0  0
  184.7570  179.2390  145.7350 C   0  0  0  0  0  2  0  0  0  0  0  0
  186.7030  177.1110  146.4090 C   0  0  0  0  0  2  0  0  0  0  0  0
  186.0560  176.5200  145.1640 C   0  0  0  0  0  2  0  0  0  0  0  0
  185.6860  177.5950  147.4470 C   0  0  0  0  0  2  0  0  0  0  0  0
  184.6360  178.4940  144.4110 C   0  0  0  0  0  2  0  0  0  0  0  0
  185.8670  177.6190  144.1260 C   0  0  0  0  0  3  0  0  0  0  0  0
  195.1970  174.3500  143.4210 C   0  0  1  0  0  3  0  0  0  0  0  0
  195.7330  174.5780  141.9860 C   0  0  1  0  0  3  0  0  0  0  0  0
  197.6930  174.2220  140.7010 C   0  0  0  0  0  2  0  0  0  0  0  0
  196.3840  175.8140  141.8640 O   0  0  0  0  0  0  0  0  0  0  0  0
  196.6480  173.4810  141.4800 C   0  0  0  0  0  2  0  0  0  0  0  0
  197.2470  175.6640  140.7690 C   0  0  0  0  0  2  0  0  0  0  0  0
  196.0400  174.9730  144.4880 C   0  0  0  0  0  0  0  0  0  0  0  0
  197.3450  174.5390  144.6700 O   0  0  0  0  0  0  0  0  0  0  0  0
  195.5810  175.8910  145.2170 O   0  0  0  0  0  1  0  0  0  0  0  0
  1  6  2  0  0  0  0
  2 14  1  0  0  0  0
  3  1  1  0  0  0  0
  3  9  1  0  0  0  0
  4 10  2  0  0  0  0
  5 13  1  0  0  0  0
  6  7  1  0  0  0  0
  7 16  1  1  0  0  0
  8 11  1  0  0  0  0
  8 15  1  0  0  0  0
  9  4  1  0  0  0  0
 11  5  1  0  0  0  0
 12  2  2  0  0  0  0
 12  1  1  0  0  0  0
 13  4  1  0  0  0  0
 14  6  1  0  0  0  0
 15  7  1  0  0  0  0
 17 19  1  0  0  0  0
 19 18  1  6  0  0  0
 19  2  1  0  0  0  0
 19 20  1  0  0  0  0
 20 28  1  0  0  0  0
 21 20  1  0  0  0  0
 22 26  1  0  0  0  0
 23 22  1  0  0  0  0
 24 26  1  0  0  0  0
 25 24  1  0  0  0  0
 27 23  1  0  0  0  0
 28 27  1  0  0  0  0
 28 25  1  0  0  0  0
 29  5  1  0  0  0  0
 29 35  1  1  0  0  0
 30 29  1  1  0  0  0
 31 34  1  0  0  0  0
 31 33  1  0  0  0  0
 32 30  1  0  0  0  0
 33 30  1  0  0  0  0
 34 32  1  0  0  0  0
 35 36  2  0  0  0  0
 35 37  1  0  0  0  0
M  END
>  <MODEL>
5

>  <REMARK>
 VINA RESULT:      -7.9      2.055      3.442
  Name = 
  6 active torsions:
  status: ('A' for Active; 'I' for Inactive)
    1  A    between atoms: C_2  and  C_37
    2  A    between atoms: C_5  and  C_23
    3  A    between atoms: N_6  and  C_33
    4  A    between atoms: N_6  and  C_37
    5  A    between atoms: C_7  and  C_23
    6  A    between atoms: N_13  and  C_23
                            x       y       z     vdW  Elec       q    Type
                         _______ _______ _______ _____ _____    ______ ____

>  <TORSDO>
F 6

$$$$
=
 OpenBabel11062421553D

 37 40  0  0  1  0  0  0  0  0999 V2000
  190.6310  174.8550  142.6290 C   0  0  0  0  0  0  0  0  0  0  0  0
  192.6590  174.8470  143.2640 C   0  0  0  0  0  0  0  0  0  0  0  0
  189.2670  174.3560  142.2580 C   0  0  0  0  0  2  0  0  0  0  0  0
  187.7620  176.1990  141.4550 C   0  0  0  0  0  0  0  0  0  0  0  0
  187.1050  176.8500  143.7060 N   0  0  0  0  0  0  0  0  0  0  0  0
  191.0000  176.1360  142.9870 C   0  0  0  0  0  0  0  0  0  0  0  0
  190.1370  177.3540  142.9570 C   0  0  1  0  0  3  0  0  0  0  0  0
  189.0580  176.8730  145.2500 C   0  0  0  0  0  2  0  0  0  0  0  0
  188.6690  175.0720  141.0510 C   0  0  0  0  0  2  0  0  0  0  0  0
  187.8110  177.2530  140.8430 O   0  0  0  0  0  0  0  0  0  0  0  0
  187.9680  176.0420  144.5690 C   0  0  0  0  0  2  0  0  0  0  0  0
  191.6760  174.0320  142.8180 N   0  0  0  0  0  0  0  0  0  0  0  0
  186.7520  176.0290  142.5510 C   0  0  0  0  0  2  0  0  0  0  0  0
  192.2840  176.1400  143.3840 N   0  0  0  0  0  2  0  0  0  0  0  0
  189.7790  177.8790  144.3450 C   0  0  0  0  0  2  0  0  0  0  0  0
  190.7560  178.3530  142.2280 F   0  0  0  0  0  0  0  0  0  0  0  0
  194.5730  173.5720  142.6430 O   0  0  0  0  0  1  0  0  0  0  0  0
  194.9170  175.5700  143.8680 C   0  0  0  0  0  1  0  0  0  0  0  0
  194.0260  174.3540  143.6660 C   0  0  1  0  0  0  0  0  0  0  0  0
  193.9520  173.5840  144.9250 N   0  0  0  0  0  0  0  0  0  0  0  0
  194.2240  174.4070  145.9730 O   0  0  0  0  0  1  0  0  0  0  0  0
  196.7940  170.4130  146.4610 C   0  0  0  0  0  2  0  0  0  0  0  0
  197.1900  171.6050  145.6020 C   0  0  0  0  0  2  0  0  0  0  0  0
  194.8600  169.9660  144.7930 C   0  0  0  0  0  2  0  0  0  0  0  0
  194.1610  171.1830  145.3840 C   0  0  0  0  0  2  0  0  0  0  0  0
  195.9410  169.3860  145.7100 C   0  0  0  0  0  2  0  0  0  0  0  0
  196.1580  172.7150  145.7630 C   0  0  0  0  0  2  0  0  0  0  0  0
  194.8880  172.4460  144.9400 C   0  0  0  0  0  3  0  0  0  0  0  0
  185.8550  177.2670  144.3700 C   0  0  1  0  0  3  0  0  0  0  0  0
  185.8840  177.4910  145.9010 C   0  0  1  0  0  3  0  0  0  0  0  0
  184.5100  178.3310  147.6410 C   0  0  0  0  0  2  0  0  0  0  0  0
  186.3590  178.7690  146.2320 O   0  0  0  0  0  0  0  0  0  0  0  0
  184.5540  177.2620  146.5920 C   0  0  0  0  0  2  0  0  0  0  0  0
  185.8420  179.0310  147.5080 C   0  0  0  0  0  2  0  0  0  0  0  0
  185.1490  178.3470  143.6130 C   0  0  0  0  0  0  0  0  0  0  0  0
  185.8740  179.4200  143.1140 O   0  0  0  0  0  0  0  0  0  0  0  0
  183.9070  178.2880  143.4160 O   0  0  0  0  0  1  0  0  0  0  0  0
  1 12  1  0  0  0  0
  1  6  2  0  0  0  0
  2 14  1  0  0  0  0
  2 19  1  0  0  0  0
  3  1  1  0  0  0  0
  4 13  1  0  0  0  0
  5 29  1  0  0  0  0
  5 11  1  0  0  0  0
  6 14  1  0  0  0  0
  7 16  1  6  0  0  0
  7  6  1  0  0  0  0
  7 15  1  0  0  0  0
  9  4  1  0  0  0  0
  9  3  1  0  0  0  0
 10  4  2  0  0  0  0
 11  8  1  0  0  0  0
 12  2  2  0  0  0  0
 13  5  1  0  0  0  0
 15  8  1  0  0  0  0
 17 19  1  0  0  0  0
 19 18  1  1  0  0  0
 19 20  1  0  0  0  0
 20 28  1  0  0  0  0
 20 21  1  0  0  0  0
 23 27  1  0  0  0  0
 23 22  1  0  0  0  0
 24 25  1  0  0  0  0
 24 26  1  0  0  0  0
 26 22  1  0  0  0  0
 28 25  1  0  0  0  0
 28 27  1  0  0  0  0
 29 35  1  6  0  0  0
 30 29  1  6  0  0  0
 30 32  1  0  0  0  0
 30 33  1  0  0  0  0
 32 34  1  0  0  0  0
 33 31  1  0  0  0  0
 34 31  1  0  0  0  0
 36 35  2  0  0  0  0
 37 35  1  0  0  0  0
M  END
>  <MODEL>
6

>  <REMARK>
 VINA RESULT:      -7.9      2.218      9.549
  Name = 
  6 active torsions:
  status: ('A' for Active; 'I' for Inactive)
    1  A    between atoms: C_2  and  C_37
    2  A    between atoms: C_5  and  C_23
    3  A    between atoms: N_6  and  C_33
    4  A    between atoms: N_6  and  C_37
    5  A    between atoms: C_7  and  C_23
    6  A    between atoms: N_13  and  C_23
                            x       y       z     vdW  Elec       q    Type
                         _______ _______ _______ _____ _____    ______ ____

>  <TORSDO>
F 6

$$$$
=
 OpenBabel11062421553D

 37 40  0  0  1  0  0  0  0  0999 V2000
  192.9350  175.5160  146.2050 C   0  0  0  0  0  0  0  0  0  0  0  0
  194.5750  174.7990  145.0610 C   0  0  0  0  0  0  0  0  0  0  0  0
  192.1500  176.3290  147.1920 C   0  0  0  0  0  2  0  0  0  0  0  0
  189.7570  175.5860  147.3530 C   0  0  0  0  0  0  0  0  0  0  0  0
  189.0570  176.9120  145.4370 N   0  0  0  0  0  0  0  0  0  0  0  0
  192.4570  174.7800  145.1400 C   0  0  0  0  0  0  0  0  0  0  0  0
  191.0250  174.5180  144.8080 C   0  0  1  0  0  3  0  0  0  0  0  0
  190.7060  176.7630  143.5780 C   0  0  0  0  0  2  0  0  0  0  0  0
  191.1250  175.5100  147.9700 C   0  0  0  0  0  2  0  0  0  0  0  0
  189.0800  174.5740  147.2780 O   0  0  0  0  0  0  0  0  0  0  0  0
  190.3130  177.4340  144.8960 C   0  0  0  0  0  2  0  0  0  0  0  0
  194.2770  175.5440  146.1490 N   0  0  0  0  0  0  0  0  0  0  0  0
  189.1840  176.8930  146.8920 C   0  0  0  0  0  2  0  0  0  0  0  0
  193.4900  174.3170  144.4150 N   0  0  0  0  0  2  0  0  0  0  0  0
  190.5530  175.2370  143.5470 C   0  0  0  0  0  2  0  0  0  0  0  0
  190.8140  173.1580  144.6730 F   0  0  0  0  0  0  0  0  0  0  0  0
  196.5670  175.8150  144.2390 O   0  0  0  0  0  1  0  0  0  0  0  0
  196.7830  173.9540  145.6900 C   0  0  0  0  0  1  0  0  0  0  0  0
  195.9810  174.5850  144.5620 C   0  0  1  0  0  0  0  0  0  0  0  0
  195.9870  173.6840  143.3910 N   0  0  0  0  0  0  0  0  0  0  0  0
  196.9360  172.7260  143.5640 O   0  0  0  0  0  1  0  0  0  0  0  0
  197.2130  174.4990  139.1100 C   0  0  0  0  0  2  0  0  0  0  0  0
  197.9410  175.0100  140.3440 C   0  0  0  0  0  2  0  0  0  0  0  0
  195.0000  175.3190  140.1840 C   0  0  0  0  0  2  0  0  0  0  0  0
  195.1110  174.1440  141.1450 C   0  0  0  0  0  2  0  0  0  0  0  0
  195.8370  175.1410  138.9130 C   0  0  0  0  0  2  0  0  0  0  0  0
  197.6270  174.1100  141.5320 C   0  0  0  0  0  2  0  0  0  0  0  0
  196.2430  174.4060  142.1320 C   0  0  0  0  0  3  0  0  0  0  0  0
  187.8900  177.7460  145.0910 C   0  0  1  0  0  3  0  0  0  0  0  0
  187.5010  177.8710  143.5980 C   0  0  1  0  0  3  0  0  0  0  0  0
  185.5730  178.0650  142.2330 C   0  0  0  0  0  2  0  0  0  0  0  0
  187.2720  176.6160  143.0130 O   0  0  0  0  0  0  0  0  0  0  0  0
  186.3070  178.7660  143.3360 C   0  0  0  0  0  2  0  0  0  0  0  0
  186.4440  176.8730  141.9130 C   0  0  0  0  0  2  0  0  0  0  0  0
  186.7290  177.4960  146.0010 C   0  0  0  0  0  0  0  0  0  0  0  0
  186.3000  178.5020  146.8560 O   0  0  0  0  0  1  0  0  0  0  0  0
  186.1330  176.3870  145.9950 O   0  0  0  0  0  0  0  0  0  0  0  0
  1  3  1  0  0  0  0
  2 12  2  0  0  0  0
  3  9  1  0  0  0  0
  4  9  1  0  0  0  0
  5 13  1  0  0  0  0
  6  1  2  0  0  0  0
  7 16  1  6  0  0  0
  7  6  1  0  0  0  0
  8 11  1  0  0  0  0
 10  4  2  0  0  0  0
 11  5  1  0  0  0  0
 12  1  1  0  0  0  0
 13  4  1  0  0  0  0
 14  2  1  0  0  0  0
 14  6  1  0  0  0  0
 15  8  1  0  0  0  0
 15  7  1  0  0  0  0
 17 19  1  0  0  0  0
 19  2  1  0  0  0  0
 19 18  1  1  0  0  0
 20 21  1  0  0  0  0
 20 19  1  0  0  0  0
 22 23  1  0  0  0  0
 23 27  1  0  0  0  0
 24 25  1  0  0  0  0
 25 28  1  0  0  0  0
 26 22  1  0  0  0  0
 26 24  1  0  0  0  0
 27 28  1  0  0  0  0
 28 20  1  0  0  0  0
 29  5  1  0  0  0  0
 29 35  1  1  0  0  0
 30 29  1  1  0  0  0
 31 33  1  0  0  0  0
 32 30  1  0  0  0  0
 33 30  1  0  0  0  0
 34 31  1  0  0  0  0
 34 32  1  0  0  0  0
 35 36  1  0  0  0  0
 37 35  2  0  0  0  0
M  END
>  <MODEL>
7

>  <REMARK>
 VINA RESULT:      -7.9      1.866      8.568
  Name = 
  6 active torsions:
  status: ('A' for Active; 'I' for Inactive)
    1  A    between atoms: C_2  and  C_37
    2  A    between atoms: C_5  and  C_23
    3  A    between atoms: N_6  and  C_33
    4  A    between atoms: N_6  and  C_37
    5  A    between atoms: C_7  and  C_23
    6  A    between atoms: N_13  and  C_23
                            x       y       z     vdW  Elec       q    Type
                         _______ _______ _______ _____ _____    ______ ____

>  <TORSDO>
F 6

$$$$
=
 OpenBabel11062421553D

 37 40  0  0  1  0  0  0  0  0999 V2000
  191.5450  174.0690  145.1190 C   0  0  1  0  0  3  0  0  0  0  0  0
  190.1480  175.4990  145.8410 C   0  0  0  0  0  0  0  0  0  0  0  0
  192.0900  172.8150  144.5020 C   0  0  0  0  0  2  0  0  0  0  0  0
  194.5990  172.7430  144.5440 C   0  0  0  0  0  0  0  0  0  0  0  0
  194.8230  174.0540  142.5070 N   0  0  0  0  0  0  0  0  0  0  0  0
  192.1820  175.2820  145.2840 C   0  0  0  0  0  0  0  0  0  0  0  0
  193.6170  175.5810  145.0000 C   0  0  1  0  0  3  0  0  0  0  0  0
  193.2310  175.9680  142.4790 C   0  0  0  0  0  2  0  0  0  0  0  0
  193.3330  172.2850  145.2090 C   0  0  0  0  0  2  0  0  0  0  0  0
  195.5390  173.1030  145.2350 O   0  0  0  0  0  0  0  0  0  0  0  0
  193.4530  174.4780  142.2120 C   0  0  0  0  0  2  0  0  0  0  0  0
  190.2510  174.2060  145.4560 N   0  0  0  0  0  0  0  0  0  0  0  0
  194.7540  172.7010  143.0530 C   0  0  0  0  0  2  0  0  0  0  0  0
  191.3060  176.1900  145.7460 N   0  0  0  0  0  0  0  0  0  0  0  0
  193.8190  176.4940  143.7940 C   0  0  0  0  0  2  0  0  0  0  0  0
  194.2100  176.1460  146.1140 F   0  0  0  0  0  0  0  0  0  0  0  0
  188.2460  175.3760  147.2700 O   0  0  0  0  0  1  0  0  0  0  0  0
  189.1700  177.5120  146.8280 C   0  0  0  0  0  1  0  0  0  0  0  0
  188.8500  176.1370  146.2620 C   0  0  1  0  0  0  0  0  0  0  0  0
  187.9410  176.2810  145.1060 N   0  0  0  0  0  0  0  0  0  0  0  0
  188.6720  176.5240  143.9850 O   0  0  0  0  0  1  0  0  0  0  0  0
  184.4740  179.0870  144.3340 C   0  0  0  0  0  2  0  0  0  0  0  0
  185.9410  179.4900  144.3520 C   0  0  0  0  0  2  0  0  0  0  0  0
  184.8810  177.8380  146.5700 C   0  0  0  0  0  2  0  0  0  0  0  0
  185.6320  176.7860  145.7660 C   0  0  0  0  0  2  0  0  0  0  0  0
  183.9400  178.6940  145.7150 C   0  0  0  0  0  2  0  0  0  0  0  0
  186.8080  178.2700  144.0640 C   0  0  0  0  0  2  0  0  0  0  0  0
  186.9610  177.3660  145.2970 C   0  0  0  0  0  3  0  0  0  0  0  0
  195.6860  174.0200  141.3110 C   0  0  1  0  0  3  0  0  0  0  0  0
  195.0040  174.0240  139.9210 C   0  0  1  0  0  3  0  0  0  0  0  0
  195.5190  173.6130  137.6430 C   0  0  0  0  0  2  0  0  0  0  0  0
  195.1230  175.2690  139.2860 O   0  0  0  0  0  0  0  0  0  0  0  0
  195.4930  172.9390  138.9820 C   0  0  0  0  0  2  0  0  0  0  0  0
  194.9770  174.9970  137.9190 C   0  0  0  0  0  2  0  0  0  0  0  0
  196.8410  174.9650  141.4220 C   0  0  0  0  0  0  0  0  0  0  0  0
  197.9410  174.8010  140.5920 O   0  0  0  0  0  0  0  0  0  0  0  0
  196.8210  175.9100  142.2530 O   0  0  0  0  0  1  0  0  0  0  0  0
  1  3  1  6  0  0  0
  1  6  1  0  0  0  0
  1 12  1  0  0  0  0
  2 19  1  0  0  0  0
  3  9  1  0  0  0  0
  4  9  1  0  0  0  0
  4 10  2  0  0  0  0
  5 13  1  0  0  0  0
  6 14  2  0  0  0  0
  7  6  1  0  0  0  0
  7 16  1  1  0  0  0
  8 15  1  0  0  0  0
 11  8  1  0  0  0  0
 11  5  1  0  0  0  0
 12  2  2  0  0  0  0
 13  4  1  0  0  0  0
 14  2  1  0  0  0  0
 15  7  1  0  0  0  0
 19 18  1  1  0  0  0
 19 17  1  0  0  0  0
 20 28  1  0  0  0  0
 20 19  1  0  0  0  0
 21 20  1  0  0  0  0
 22 23  1  0  0  0  0
 22 26  1  0  0  0  0
 25 24  1  0  0  0  0
 26 24  1  0  0  0  0
 27 23  1  0  0  0  0
 27 28  1  0  0  0  0
 28 25  1  0  0  0  0
 29 35  1  6  0  0  0
 29  5  1  0  0  0  0
 30 29  1  1  0  0  0
 31 34  1  0  0  0  0
 31 33  1  0  0  0  0
 32 30  1  0  0  0  0
 33 30  1  0  0  0  0
 34 32  1  0  0  0  0
 35 37  1  0  0  0  0
 36 35  2  0  0  0  0
M  END
>  <MODEL>
8

>  <REMARK>
 VINA RESULT:      -7.8      2.337      3.639
  Name = 
  6 active torsions:
  status: ('A' for Active; 'I' for Inactive)
    1  A    between atoms: C_2  and  C_37
    2  A    between atoms: C_5  and  C_23
    3  A    between atoms: N_6  and  C_33
    4  A    between atoms: N_6  and  C_37
    5  A    between atoms: C_7  and  C_23
    6  A    between atoms: N_13  and  C_23
                            x       y       z     vdW  Elec       q    Type
                         _______ _______ _______ _____ _____    ______ ____

>  <TORSDO>
F 6

$$$$
=
 OpenBabel11062421553D

 37 40  0  0  1  0  0  0  0  0999 V2000
  191.4260  176.2950  144.5350 C   0  0  0  0  0  0  0  0  0  0  0  0
  189.6940  176.5830  143.3370 C   0  0  0  0  0  0  0  0  0  0  0  0
  192.2960  176.1700  145.7500 C   0  0  0  0  0  2  0  0  0  0  0  0
  194.7110  175.8170  145.1610 C   0  0  0  0  0  0  0  0  0  0  0  0
  194.4500  173.4130  144.8840 N   0  0  0  0  0  0  0  0  0  0  0  0
  191.6750  175.8330  143.2590 C   0  0  0  0  0  0  0  0  0  0  0  0
  192.9420  175.2150  142.7660 C   0  0  1  0  0  3  0  0  0  0  0  0
  192.3570  172.8640  143.6530 C   0  0  0  0  0  2  0  0  0  0  0  0
  193.6690  176.8140  145.5780 C   0  0  0  0  0  2  0  0  0  0  0  0
  195.5260  176.1270  144.3080 O   0  0  0  0  0  0  0  0  0  0  0  0
  193.0060  173.2040  144.9970 C   0  0  0  0  0  2  0  0  0  0  0  0
  190.1650  176.7570  144.5930 N   0  0  0  0  0  0  0  0  0  0  0  0
  194.8110  174.4730  145.8220 C   0  0  0  0  0  2  0  0  0  0  0  0
  190.5860  176.0190  142.4930 N   0  0  0  0  0  2  0  0  0  0  0  0
  192.8130  173.7230  142.4670 C   0  0  0  0  0  2  0  0  0  0  0  0
  193.3820  175.8780  141.6360 F   0  0  0  0  0  0  0  0  0  0  0  0
  188.1070  178.3020  142.8930 O   0  0  0  0  0  1  0  0  0  0  0  0
  188.0650  176.3680  141.5250 C   0  0  0  0  0  1  0  0  0  0  0  0
  188.2820  176.9140  142.9280 C   0  0  1  0  0  0  0  0  0  0  0  0
  187.3120  176.2920  143.8530 N   0  0  0  0  0  0  0  0  0  0  0  0
  186.3500  175.6540  143.1340 O   0  0  0  0  0  1  0  0  0  0  0  0
  184.2510  178.2950  146.5170 C   0  0  0  0  0  2  0  0  0  0  0  0
  184.6970  178.8060  145.1560 C   0  0  0  0  0  2  0  0  0  0  0  0
  186.7530  177.9930  147.1270 C   0  0  0  0  0  2  0  0  0  0  0  0
  186.7650  176.7920  146.1920 C   0  0  0  0  0  2  0  0  0  0  0  0
  185.3450  178.3880  147.5850 C   0  0  0  0  0  2  0  0  0  0  0  0
  185.2510  177.6500  144.3330 C   0  0  0  0  0  2  0  0  0  0  0  0
  186.6830  177.2780  144.7490 C   0  0  0  0  0  3  0  0  0  0  0  0
  195.2350  172.2120  145.2290 C   0  0  1  0  0  3  0  0  0  0  0  0
  194.4840  170.8650  145.3580 C   0  0  1  0  0  3  0  0  0  0  0  0
  194.8920  168.6080  145.9590 C   0  0  0  0  0  2  0  0  0  0  0  0
  194.5450  170.1190  144.1720 O   0  0  0  0  0  0  0  0  0  0  0  0
  194.9470  170.0000  146.5130 C   0  0  0  0  0  2  0  0  0  0  0  0
  194.3370  168.7900  144.5660 C   0  0  0  0  0  2  0  0  0  0  0  0
  196.5050  172.1250  144.4440 C   0  0  0  0  0  0  0  0  0  0  0  0
  197.6350  171.5720  145.0290 O   0  0  0  0  0  1  0  0  0  0  0  0
  196.5580  172.5410  143.2570 O   0  0  0  0  0  0  0  0  0  0  0  0
  1 12  1  0  0  0  0
  1  3  1  0  0  0  0
  2 12  2  0  0  0  0
  4  9  1  0  0  0  0
  4 13  1  0  0  0  0
  5 11  1  0  0  0  0
  5 29  1  0  0  0  0
  5 13  1  0  0  0  0
  6  1  2  0  0  0  0
  7 16  1  6  0  0  0
  7  6  1  0  0  0  0
  8 11  1  0  0  0  0
  9  3  1  0  0  0  0
 10  4  2  0  0  0  0
 14  6  1  0  0  0  0
 14  2  1  0  0  0  0
 15  7  1  0  0  0  0
 15  8  1  0  0  0  0
 17 19  1  0  0  0  0
 19 18  1  6  0  0  0
 19  2  1  0  0  0  0
 19 20  1  0  0  0  0
 20 28  1  0  0  0  0
 21 20  1  0  0  0  0
 22 26  1  0  0  0  0
 23 22  1  0  0  0  0
 24 26  1  0  0  0  0
 25 24  1  0  0  0  0
 27 28  1  0  0  0  0
 27 23  1  0  0  0  0
 28 25  1  0  0  0  0
 29 35  1  6  0  0  0
 30 29  1  6  0  0  0
 30 33  1  0  0  0  0
 31 33  1  0  0  0  0
 32 34  1  0  0  0  0
 32 30  1  0  0  0  0
 34 31  1  0  0  0  0
 35 36  1  0  0  0  0
 37 35  2  0  0  0  0
M  END
>  <MODEL>
9

>  <REMARK>
 VINA RESULT:      -7.8      2.322      4.072
  Name = 
  6 active torsions:
  status: ('A' for Active; 'I' for Inactive)
    1  A    between atoms: C_2  and  C_37
    2  A    between atoms: C_5  and  C_23
    3  A    between atoms: N_6  and  C_33
    4  A    between atoms: N_6  and  C_37
    5  A    between atoms: C_7  and  C_23
    6  A    between atoms: N_13  and  C_23
                            x       y       z     vdW  Elec       q    Type
                         _______ _______ _______ _____ _____    ______ ____

>  <TORSDO>
F 6

$$$$
