=
 OpenBabel11062418173D

 49 55  0  0  1  0  0  0  0  0999 V2000
  185.2140  177.9720  147.1730 F   0  0  0  0  0  0  0  0  0  0  0  0
  189.5570  176.0140  142.8140 C   0  0  1  0  0  3  0  0  0  0  0  0
  188.4550  176.3910  145.0970 C   0  0  0  0  0  0  0  0  0  0  0  0
  189.1580  177.4540  142.4950 C   0  0  0  0  0  2  0  0  0  0  0  0
  188.1480  175.9490  146.3880 C   0  0  0  0  0  3  0  0  0  0  0  0
  189.6410  175.8490  144.3420 C   0  0  1  0  0  3  0  0  0  0  0  0
  187.0630  176.4890  147.0770 C   0  0  0  0  0  3  0  0  0  0  0  0
  187.6770  177.4040  144.5010 C   0  0  0  0  0  0  0  0  0  0  0  0
  187.9710  177.8380  143.1970 O   0  0  0  0  0  0  0  0  0  0  0  0
  186.5860  177.9550  145.1970 C   0  0  0  0  0  0  0  0  0  0  0  0
  186.2800  177.4840  146.4870 C   0  0  0  0  0  0  0  0  0  0  0  0
  189.7020  172.6970  143.8060 C   0  0  0  0  0  2  0  0  0  0  0  0
  191.8760  170.0840  142.4490 C   0  0  0  0  0  1  0  0  0  0  0  0
  189.5520  173.4390  144.9870 O   0  0  0  0  0  0  0  0  0  0  0  0
  193.4840  172.6310  144.6630 C   0  0  0  0  0  0  0  0  0  0  0  0
  192.7520  174.9980  145.4650 C   0  0  1  0  0  3  0  0  0  0  0  0
  190.6510  171.5200  144.0260 C   0  0  0  0  0  2  0  0  0  0  0  0
  193.0980  171.5870  143.8040 O   0  0  0  0  0  0  0  0  0  0  0  0
  191.7860  174.4350  144.4470 C   0  0  2  0  0  3  0  0  0  0  0  0
  190.3430  174.6120  144.9220 C   0  0  1  0  0  3  0  0  0  0  0  0
  192.4840  173.4850  145.3990 C   0  0  1  0  0  3  0  0  0  0  0  0
  191.8700  171.4680  143.0740 C   0  0  1  0  0  0  0  0  0  0  0  0
  194.7100  172.7540  144.9290 O   0  0  0  0  0  0  0  0  0  0  0  0
  193.0260  172.3690  140.9600 C   0  0  0  0  0  1  0  0  0  0  0  0
  191.8720  172.5180  141.9440 C   0  0  0  0  0  2  0  0  0  0  0  0
  193.9790  175.3960  144.7900 N   0  0  0  0  0  2  0  0  0  0  0  0
  194.8250  176.0240  145.7880 C   0  0  0  0  0  3  0  0  0  0  0  0
  193.9610  176.8320  146.7330 C   0  0  0  0  0  2  0  0  0  0  0  0
  194.7390  177.5280  145.6390 C   0  0  0  0  0  2  0  0  0  0  0  0
  185.7660  179.0110  144.5650 C   0  0  0  0  0  0  0  0  0  0  0  0
  185.9000  180.1960  144.9660 O   0  0  0  0  0  0  0  0  0  0  0  0
  184.7720  178.7090  143.5110 C   0  0  0  0  0  0  0  0  0  0  0  0
  179.2870  177.5480  141.3290 O   0  0  0  0  0  1  0  0  0  0  0  0
  182.9540  178.1820  141.4550 C   0  0  0  0  0  0  0  0  0  0  0  0
  180.5160  178.6870  141.1170 P   0  0  2  0  0  0  0  0  0  0  0  0
  184.2720  177.7610  141.3090 C   0  0  0  0  0  3  0  0  0  0  0  0
  181.1910  179.2040  142.6000 O   0  0  0  0  0  0  0  0  0  0  0  0
  180.0700  179.8560  140.2670 O   0  0  0  0  0  0  0  0  0  0  0  0
  183.4340  179.1300  143.6350 C   0  0  0  0  0  3  0  0  0  0  0  0
  181.9510  177.9860  140.5120 O   0  0  0  0  0  0  0  0  0  0  0  0
  185.1790  178.0310  142.3420 C   0  0  0  0  0  3  0  0  0  0  0  0
  182.5380  178.8550  142.6030 C   0  0  0  0  0  0  0  0  0  0  0  0
  188.6750  175.0010  142.0710 C   0  0  0  0  0  2  0  0  0  0  0  0
  189.1640  174.6690  140.6660 C   0  0  0  0  0  2  0  0  0  0  0  0
  188.6690  173.3030  140.2180 C   0  0  0  0  0  2  0  0  0  0  0  0
  189.9450  171.1060  138.8660 O   0  0  0  0  0  1  0  0  0  0  0  0
  190.9330  173.6590  138.4790 O   0  0  0  0  0  1  0  0  0  0  0  0
  188.6140  172.9180  137.5310 O   0  0  0  0  0  0  0  0  0  0  0  0
  189.5320  172.7400  138.7170 P   0  0  0  0  0  0  0  0  0  0  0  0
  2 43  1  1  0  0  0
  2  6  1  0  0  0  0
  3  5  1  0  0  0  0
  4  2  1  0  0  0  0
  4  9  1  0  0  0  0
  5  7  2  0  0  0  0
  6 20  1  0  0  0  0
  6  3  1  6  0  0  0
  8  3  2  0  0  0  0
  8 10  1  0  0  0  0
  9  8  1  0  0  0  0
 10 11  2  0  0  0  0
 11  7  1  0  0  0  0
 11  1  1  0  0  0  0
 12 17  1  0  0  0  0
 12 14  1  0  0  0  0
 13 22  1  0  0  0  0
 15 23  2  0  0  0  0
 15 21  1  0  0  0  0
 16 26  1  6  0  0  0
 18 15  1  0  0  0  0
 19 20  1  0  0  0  0
 19 21  1  0  0  0  0
 19 16  1  0  0  0  0
 20 14  1  0  0  0  0
 21 16  1  0  0  0  0
 22 18  1  0  0  0  0
 22 17  1  0  0  0  0
 24 25  1  0  0  0  0
 25 22  1  0  0  0  0
 26 27  1  0  0  0  0
 27 28  1  0  0  0  0
 29 27  1  0  0  0  0
 29 28  1  0  0  0  0
 30 31  2  0  0  0  0
 30 10  1  0  0  0  0
 32 39  1  0  0  0  0
 32 30  1  0  0  0  0
 34 42  1  0  0  0  0
 35 33  1  0  0  0  0
 35 37  1  0  0  0  0
 36 34  2  0  0  0  0
 36 41  1  0  0  0  0
 37 42  1  0  0  0  0
 38 35  2  0  0  0  0
 40 35  1  0  0  0  0
 40 34  1  0  0  0  0
 41 32  2  0  0  0  0
 42 39  2  0  0  0  0
 44 43  1  0  0  0  0
 45 44  1  0  0  0  0
 47 49  1  0  0  0  0
 48 49  2  0  0  0  0
 49 46  1  0  0  0  0
 49 45  1  0  0  0  0
M  END
>  <MODEL>
1

>  <REMARK>
 VINA RESULT:      -8.3      0.000      0.000
  Name = 
  10 active torsions:
  status: ('A' for Active; 'I' for Inactive)
    1  A    between atoms: C_1  and  C_9
    2  A    between atoms: C_1  and  C_36
    3  A    between atoms: C_10  and  C_38
    4  A    between atoms: C_11  and  C_16
    5  A    between atoms: C_12  and  N_47
    6  A    between atoms: C_16  and  C_42
    7  A    between atoms: C_18  and  N_47
    8  A    between atoms: C_19  and  C_33
    9  A    between atoms: C_36  and  C_37
   10  A    between atoms: C_37  and  P_43
                            x       y       z     vdW  Elec       q    Type
                         _______ _______ _______ _____ _____    ______ ____

>  <TORSDO>
F 10

$$$$
=
 OpenBabel11062418173D

 49 55  0  0  1  0  0  0  0  0999 V2000
  191.1560  176.5970  148.4580 F   0  0  0  0  0  0  0  0  0  0  0  0
  191.8160  173.6380  142.7570 C   0  0  1  0  0  3  0  0  0  0  0  0
  192.2790  175.2700  144.6780 C   0  0  0  0  0  0  0  0  0  0  0  0
  190.3380  173.9580  142.9740 C   0  0  0  0  0  2  0  0  0  0  0  0
  193.1770  175.9780  145.4830 C   0  0  0  0  0  3  0  0  0  0  0  0
  192.6610  174.8060  143.2950 C   0  0  1  0  0  3  0  0  0  0  0  0
  192.7890  176.4220  146.7460 C   0  0  0  0  0  3  0  0  0  0  0  0
  190.9690  175.0270  145.1370 C   0  0  0  0  0  0  0  0  0  0  0  0
  190.0700  174.3000  144.3380 O   0  0  0  0  0  0  0  0  0  0  0  0
  190.5740  175.4810  146.4080 C   0  0  0  0  0  0  0  0  0  0  0  0
  191.4960  176.1740  147.2120 C   0  0  0  0  0  0  0  0  0  0  0  0
  195.3930  173.3010  144.0020 C   0  0  0  0  0  2  0  0  0  0  0  0
  197.8300  170.9950  142.5400 C   0  0  0  0  0  1  0  0  0  0  0  0
  195.0650  174.6650  143.9520 O   0  0  0  0  0  0  0  0  0  0  0  0
  196.5750  173.7400  140.3340 C   0  0  0  0  0  0  0  0  0  0  0  0
  194.5030  175.3110  140.4640 C   0  0  1  0  0  3  0  0  0  0  0  0
  196.7570  173.0510  143.3610 C   0  0  0  0  0  2  0  0  0  0  0  0
  197.1660  172.6360  140.9730 O   0  0  0  0  0  0  0  0  0  0  0  0
  194.4710  174.2620  141.5520 C   0  0  2  0  0  3  0  0  0  0  0  0
  194.1430  174.9000  142.9030 C   0  0  1  0  0  3  0  0  0  0  0  0
  195.8110  174.7970  141.0890 C   0  0  1  0  0  3  0  0  0  0  0  0
  196.7630  172.0230  142.2040 C   0  0  1  0  0  0  0  0  0  0  0  0
  196.8220  173.9170  139.1110 O   0  0  0  0  0  0  0  0  0  0  0  0
  195.3480  169.9180  142.6320 C   0  0  0  0  0  1  0  0  0  0  0  0
  195.4290  171.2860  141.9660 C   0  0  0  0  0  2  0  0  0  0  0  0
  194.1880  174.6850  139.1880 N   0  0  0  0  0  2  0  0  0  0  0  0
  192.9080  174.0200  139.3490 C   0  0  0  0  0  3  0  0  0  0  0  0
  192.9720  172.6560  138.6970 C   0  0  0  0  0  2  0  0  0  0  0  0
  192.2850  173.8010  137.9870 C   0  0  0  0  0  2  0  0  0  0  0  0
  189.2010  175.2150  146.8900 C   0  0  0  0  0  0  0  0  0  0  0  0
  188.9830  174.1510  147.5260 O   0  0  0  0  0  0  0  0  0  0  0  0
  188.0780  176.1390  146.6140 C   0  0  0  0  0  0  0  0  0  0  0  0
  185.3740  180.8520  144.0330 O   0  0  0  0  0  1  0  0  0  0  0  0
  185.8950  177.8100  146.1160 C   0  0  0  0  0  0  0  0  0  0  0  0
  185.1680  179.1790  144.1380 P   0  0  2  0  0  0  0  0  0  0  0  0
  185.9860  177.1760  147.3500 C   0  0  0  0  0  3  0  0  0  0  0  0
  186.6380  178.3270  143.9610 O   0  0  0  0  0  0  0  0  0  0  0  0
  184.1090  178.6740  143.1830 O   0  0  0  0  0  0  0  0  0  0  0  0
  187.9620  176.7860  145.3680 C   0  0  0  0  0  3  0  0  0  0  0  0
  184.8640  178.6640  145.7370 O   0  0  0  0  0  0  0  0  0  0  0  0
  187.0810  176.3380  147.5930 C   0  0  0  0  0  3  0  0  0  0  0  0
  186.8700  177.6210  145.1370 C   0  0  0  0  0  0  0  0  0  0  0  0
  192.1800  172.2410  143.2790 C   0  0  0  0  0  2  0  0  0  0  0  0
  191.2020  171.1500  142.8610 C   0  0  0  0  0  2  0  0  0  0  0  0
  191.0660  171.0800  141.3490 C   0  0  0  0  0  2  0  0  0  0  0  0
  190.4350  169.1800  139.2820 O   0  0  0  0  0  0  0  0  0  0  0  0
  190.6860  168.2790  141.8840 O   0  0  0  0  0  1  0  0  0  0  0  0
  192.7430  169.1170  140.5090 O   0  0  0  0  0  1  0  0  0  0  0  0
  191.2730  169.3770  140.7380 P   0  0  0  0  0  0  0  0  0  0  0  0
  2  4  1  0  0  0  0
  2 43  1  1  0  0  0
  2  6  1  0  0  0  0
  3  8  2  0  0  0  0
  3  5  1  0  0  0  0
  4  9  1  0  0  0  0
  5  7  2  0  0  0  0
  6  3  1  1  0  0  0
  7 11  1  0  0  0  0
  8 10  1  0  0  0  0
  9  8  1  0  0  0  0
 10 30  1  0  0  0  0
 10 11  2  0  0  0  0
 11  1  1  0  0  0  0
 14 12  1  0  0  0  0
 15 18  1  0  0  0  0
 15 21  1  0  0  0  0
 16 26  1  6  0  0  0
 16 21  1  0  0  0  0
 16 19  1  0  0  0  0
 17 12  1  0  0  0  0
 18 22  1  0  0  0  0
 19 20  1  0  0  0  0
 20  6  1  0  0  0  0
 20 14  1  0  0  0  0
 21 19  1  0  0  0  0
 22 13  1  0  0  0  0
 22 17  1  0  0  0  0
 23 15  2  0  0  0  0
 25 22  1  0  0  0  0
 25 24  1  0  0  0  0
 26 27  1  0  0  0  0
 28 27  1  0  0  0  0
 29 28  1  0  0  0  0
 29 27  1  0  0  0  0
 30 31  2  0  0  0  0
 32 30  1  0  0  0  0
 32 41  1  0  0  0  0
 33 35  1  0  0  0  0
 34 36  1  0  0  0  0
 35 40  1  0  0  0  0
 36 41  2  0  0  0  0
 37 35  1  0  0  0  0
 37 42  1  0  0  0  0
 38 35  2  0  0  0  0
 39 32  2  0  0  0  0
 40 34  1  0  0  0  0
 42 39  1  0  0  0  0
 42 34  2  0  0  0  0
 44 43  1  0  0  0  0
 45 44  1  0  0  0  0
 46 49  2  0  0  0  0
 48 49  1  0  0  0  0
 49 45  1  0  0  0  0
 49 47  1  0  0  0  0
M  END
>  <MODEL>
2

>  <REMARK>
 VINA RESULT:      -7.6      3.041      5.487
  Name = 
  10 active torsions:
  status: ('A' for Active; 'I' for Inactive)
    1  A    between atoms: C_1  and  C_9
    2  A    between atoms: C_1  and  C_36
    3  A    between atoms: C_10  and  C_38
    4  A    between atoms: C_11  and  C_16
    5  A    between atoms: C_12  and  N_47
    6  A    between atoms: C_16  and  C_42
    7  A    between atoms: C_18  and  N_47
    8  A    between atoms: C_19  and  C_33
    9  A    between atoms: C_36  and  C_37
   10  A    between atoms: C_37  and  P_43
                            x       y       z     vdW  Elec       q    Type
                         _______ _______ _______ _____ _____    ______ ____

>  <TORSDO>
F 10

$$$$
=
 OpenBabel11062418173D

 49 55  0  0  1  0  0  0  0  0999 V2000
  191.2650  176.1890  148.3060 F   0  0  0  0  0  0  0  0  0  0  0  0
  190.7890  172.7830  142.8410 C   0  0  1  0  0  3  0  0  0  0  0  0
  191.7110  174.4560  144.5500 C   0  0  0  0  0  0  0  0  0  0  0  0
  189.4080  173.3330  143.1980 C   0  0  0  0  0  2  0  0  0  0  0  0
  192.7920  175.0750  145.1840 C   0  0  0  0  0  3  0  0  0  0  0  0
  191.8480  173.8470  143.1780 C   0  0  1  0  0  3  0  0  0  0  0  0
  192.6300  175.6580  146.4410 C   0  0  0  0  0  3  0  0  0  0  0  0
  190.4480  174.4420  145.1740 C   0  0  0  0  0  0  0  0  0  0  0  0
  189.3630  173.8030  144.5490 O   0  0  0  0  0  0  0  0  0  0  0  0
  190.2810  175.0350  146.4390 C   0  0  0  0  0  0  0  0  0  0  0  0
  191.3840  175.6370  147.0710 C   0  0  0  0  0  0  0  0  0  0  0  0
  194.1990  175.7510  142.1410 C   0  0  0  0  0  2  0  0  0  0  0  0
  197.5130  176.9650  143.1100 C   0  0  0  0  0  1  0  0  0  0  0  0
  193.6140  174.6030  141.5840 O   0  0  0  0  0  0  0  0  0  0  0  0
  196.8200  173.3330  143.6650 C   0  0  0  0  0  0  0  0  0  0  0  0
  194.6200  171.9450  143.7800 C   0  0  1  0  0  3  0  0  0  0  0  0
  195.7180  175.7100  141.9900 C   0  0  0  0  0  2  0  0  0  0  0  0
  197.2890  174.6550  143.5590 O   0  0  0  0  0  0  0  0  0  0  0  0
  194.3350  173.4270  143.6750 C   0  0  2  0  0  3  0  0  0  0  0  0
  193.2680  173.6930  142.6130 C   0  0  1  0  0  3  0  0  0  0  0  0
  195.5610  172.8640  142.9830 C   0  0  1  0  0  3  0  0  0  0  0  0
  196.5170  175.8360  143.3100 C   0  0  1  0  0  0  0  0  0  0  0  0
  197.5620  172.4870  144.2330 O   0  0  0  0  0  0  0  0  0  0  0  0
  195.6500  177.6120  144.9560 C   0  0  0  0  0  1  0  0  0  0  0  0
  195.6740  176.1400  144.5660 C   0  0  0  0  0  2  0  0  0  0  0  0
  195.1040  171.6470  145.1210 N   0  0  0  0  0  2  0  0  0  0  0  0
  195.1810  170.2010  145.2290 C   0  0  0  0  0  3  0  0  0  0  0  0
  194.8970  169.7960  146.6590 C   0  0  0  0  0  2  0  0  0  0  0  0
  196.3220  169.8310  146.1530 C   0  0  0  0  0  2  0  0  0  0  0  0
  188.9560  175.0100  147.0960 C   0  0  0  0  0  0  0  0  0  0  0  0
  188.7120  174.0920  147.9210 O   0  0  0  0  0  0  0  0  0  0  0  0
  187.9030  176.0020  146.7810 C   0  0  0  0  0  0  0  0  0  0  0  0
  185.5360  180.7710  143.9820 O   0  0  0  0  0  1  0  0  0  0  0  0
  185.8490  177.8090  146.2160 C   0  0  0  0  0  0  0  0  0  0  0  0
  185.2040  179.1260  144.1760 P   0  0  2  0  0  0  0  0  0  0  0  0
  185.9070  177.2340  147.4810 C   0  0  0  0  0  3  0  0  0  0  0  0
  186.6020  178.1560  144.0310 O   0  0  0  0  0  0  0  0  0  0  0  0
  184.0970  178.6560  143.2580 O   0  0  0  0  0  0  0  0  0  0  0  0
  187.8220  176.5920  145.5050 C   0  0  0  0  0  3  0  0  0  0  0  0
  184.8820  178.7190  145.8030 O   0  0  0  0  0  0  0  0  0  0  0  0
  186.9380  176.3270  147.7570 C   0  0  0  0  0  3  0  0  0  0  0  0
  186.7940  177.4950  145.2400 C   0  0  0  0  0  0  0  0  0  0  0  0
  191.0170  171.3870  143.4370 C   0  0  0  0  0  2  0  0  0  0  0  0
  191.7340  170.4240  142.4980 C   0  0  0  0  0  2  0  0  0  0  0  0
  190.7790  169.8420  141.4690 C   0  0  0  0  0  2  0  0  0  0  0  0
  192.4220  171.5650  139.8510 O   0  0  0  0  0  1  0  0  0  0  0  0
  189.7300  171.3520  139.2560 O   0  0  0  0  0  1  0  0  0  0  0  0
  191.3910  169.3730  138.8660 O   0  0  0  0  0  0  0  0  0  0  0  0
  191.0950  170.5170  139.8080 P   0  0  0  0  0  0  0  0  0  0  0  0
  2  6  1  0  0  0  0
  2  4  1  0  0  0  0
  2 43  1  1  0  0  0
  3  8  2  0  0  0  0
  3  5  1  0  0  0  0
  4  9  1  0  0  0  0
  5  7  2  0  0  0  0
  6  3  1  1  0  0  0
  7 11  1  0  0  0  0
  8 10  1  0  0  0  0
  9  8  1  0  0  0  0
 10 11  2  0  0  0  0
 10 30  1  0  0  0  0
 11  1  1  0  0  0  0
 13 22  1  0  0  0  0
 14 12  1  0  0  0  0
 14 20  1  0  0  0  0
 15 23  2  0  0  0  0
 16 26  1  1  0  0  0
 17 12  1  0  0  0  0
 17 22  1  0  0  0  0
 18 15  1  0  0  0  0
 19 16  1  0  0  0  0
 20  6  1  0  0  0  0
 20 19  1  0  0  0  0
 21 15  1  0  0  0  0
 21 19  1  0  0  0  0
 21 16  1  0  0  0  0
 22 18  1  0  0  0  0
 22 25  1  0  0  0  0
 25 24  1  0  0  0  0
 26 27  1  0  0  0  0
 27 29  1  0  0  0  0
 27 28  1  0  0  0  0
 29 28  1  0  0  0  0
 30 31  2  0  0  0  0
 32 30  1  0  0  0  0
 32 41  1  0  0  0  0
 33 35  1  0  0  0  0
 34 36  1  0  0  0  0
 35 40  1  0  0  0  0
 36 41  2  0  0  0  0
 37 35  1  0  0  0  0
 37 42  1  0  0  0  0
 38 35  2  0  0  0  0
 39 32  2  0  0  0  0
 40 34  1  0  0  0  0
 42 39  1  0  0  0  0
 42 34  2  0  0  0  0
 44 43  1  0  0  0  0
 45 44  1  0  0  0  0
 47 49  1  0  0  0  0
 48 49  2  0  0  0  0
 49 46  1  0  0  0  0
 49 45  1  0  0  0  0
M  END
>  <MODEL>
3

>  <REMARK>
 VINA RESULT:      -7.5      2.849      5.335
  Name = 
  10 active torsions:
  status: ('A' for Active; 'I' for Inactive)
    1  A    between atoms: C_1  and  C_9
    2  A    between atoms: C_1  and  C_36
    3  A    between atoms: C_10  and  C_38
    4  A    between atoms: C_11  and  C_16
    5  A    between atoms: C_12  and  N_47
    6  A    between atoms: C_16  and  C_42
    7  A    between atoms: C_18  and  N_47
    8  A    between atoms: C_19  and  C_33
    9  A    between atoms: C_36  and  C_37
   10  A    between atoms: C_37  and  P_43
                            x       y       z     vdW  Elec       q    Type
                         _______ _______ _______ _____ _____    ______ ____

>  <TORSDO>
F 10

$$$$
=
 OpenBabel11062418173D

 49 55  0  0  1  0  0  0  0  0999 V2000
  186.9250  172.6590  141.9340 F   0  0  0  0  0  0  0  0  0  0  0  0
  193.0940  174.5290  142.3190 C   0  0  1  0  0  3  0  0  0  0  0  0
  190.9550  173.2040  142.8120 C   0  0  0  0  0  0  0  0  0  0  0  0
  192.2040  175.7720  142.3190 C   0  0  0  0  0  2  0  0  0  0  0  0
  190.3140  172.0000  143.1180 C   0  0  0  0  0  3  0  0  0  0  0  0
  192.4080  173.4290  143.1480 C   0  0  1  0  0  3  0  0  0  0  0  0
  188.9610  171.8300  142.8240 C   0  0  0  0  0  3  0  0  0  0  0  0
  190.2250  174.2570  142.2260 C   0  0  0  0  0  0  0  0  0  0  0  0
  190.8710  175.4620  141.9000 O   0  0  0  0  0  0  0  0  0  0  0  0
  188.8590  174.0900  141.9360 C   0  0  0  0  0  0  0  0  0  0  0  0
  188.2350  172.8650  142.2320 C   0  0  0  0  0  0  0  0  0  0  0  0
  193.7920  170.8880  141.7840 C   0  0  0  0  0  2  0  0  0  0  0  0
  197.0970  169.5530  140.9550 C   0  0  0  0  0  1  0  0  0  0  0  0
  192.9470  171.0040  142.8990 O   0  0  0  0  0  0  0  0  0  0  0  0
  196.7110  171.1230  144.3260 C   0  0  0  0  0  0  0  0  0  0  0  0
  194.9350  172.7350  145.3380 C   0  0  1  0  0  3  0  0  0  0  0  0
  194.9370  169.9200  142.0730 C   0  0  0  0  0  2  0  0  0  0  0  0
  197.0830  170.5060  143.1180 O   0  0  0  0  0  0  0  0  0  0  0  0
  194.7010  172.5110  143.8610 C   0  0  2  0  0  3  0  0  0  0  0  0
  193.2270  172.2080  143.5920 C   0  0  1  0  0  3  0  0  0  0  0  0
  195.2730  171.3800  144.6930 C   0  0  1  0  0  3  0  0  0  0  0  0
  196.3580  170.5030  141.8820 C   0  0  1  0  0  0  0  0  0  0  0  0
  197.6110  171.3310  145.1840 O   0  0  0  0  0  0  0  0  0  0  0  0
  197.8220  172.5010  141.1880 C   0  0  0  0  0  1  0  0  0  0  0  0
  196.4150  171.9220  141.2800 C   0  0  0  0  0  2  0  0  0  0  0  0
  196.0960  173.5970  145.5120 N   0  0  0  0  0  2  0  0  0  0  0  0
  195.6450  174.7700  146.2390 C   0  0  0  0  0  3  0  0  0  0  0  0
  194.1930  175.0340  145.9010 C   0  0  0  0  0  2  0  0  0  0  0  0
  195.2820  175.8590  145.2510 C   0  0  0  0  0  2  0  0  0  0  0  0
  188.0980  175.1940  141.3120 C   0  0  0  0  0  0  0  0  0  0  0  0
  187.9930  175.2180  140.0580 O   0  0  0  0  0  0  0  0  0  0  0  0
  187.4960  176.2840  142.1120 C   0  0  0  0  0  0  0  0  0  0  0  0
  183.6360  178.7020  146.0410 O   0  0  0  0  0  0  0  0  0  0  0  0
  186.4450  178.3900  143.6170 C   0  0  0  0  0  0  0  0  0  0  0  0
  185.3050  178.5310  145.8520 P   0  0  2  0  0  0  0  0  0  0  0  0
  187.0370  178.6730  142.3910 C   0  0  0  0  0  3  0  0  0  0  0  0
  185.7470  176.9650  145.3330 O   0  0  0  0  0  0  0  0  0  0  0  0
  186.0640  178.9450  147.0930 O   0  0  0  0  0  1  0  0  0  0  0  0
  186.8970  176.0220  143.3590 C   0  0  0  0  0  3  0  0  0  0  0  0
  185.8860  179.3400  144.4650 O   0  0  0  0  0  0  0  0  0  0  0  0
  187.5640  177.6130  141.6420 C   0  0  0  0  0  3  0  0  0  0  0  0
  186.3720  177.0830  144.0960 C   0  0  0  0  0  0  0  0  0  0  0  0
  193.5270  174.1370  140.9000 C   0  0  0  0  0  2  0  0  0  0  0  0
  194.4110  175.1730  140.2150 C   0  0  0  0  0  2  0  0  0  0  0  0
  194.4920  174.9260  138.7180 C   0  0  0  0  0  2  0  0  0  0  0  0
  197.2450  175.5210  139.3120 O   0  0  0  0  0  1  0  0  0  0  0  0
  196.3790  175.7090  136.6930 O   0  0  0  0  0  0  0  0  0  0  0  0
  196.5950  173.4090  137.9140 O   0  0  0  0  0  1  0  0  0  0  0  0
  196.2190  174.8540  138.1440 P   0  0  0  0  0  0  0  0  0  0  0  0
  1 11  1  0  0  0  0
  2 43  1  6  0  0  0
  2  4  1  0  0  0  0
  2  6  1  0  0  0  0
  3  5  1  0  0  0  0
  6  3  1  6  0  0  0
  6 20  1  0  0  0  0
  7  5  2  0  0  0  0
  8  3  2  0  0  0  0
  9  8  1  0  0  0  0
  9  4  1  0  0  0  0
 10  8  1  0  0  0  0
 10 11  2  0  0  0  0
 11  7  1  0  0  0  0
 12 17  1  0  0  0  0
 12 14  1  0  0  0  0
 13 22  1  0  0  0  0
 14 20  1  0  0  0  0
 15 21  1  0  0  0  0
 15 23  2  0  0  0  0
 16 26  1  6  0  0  0
 18 15  1  0  0  0  0
 19 21  1  0  0  0  0
 19 16  1  0  0  0  0
 20 19  1  0  0  0  0
 21 16  1  0  0  0  0
 22 17  1  0  0  0  0
 22 18  1  0  0  0  0
 24 25  1  0  0  0  0
 25 22  1  0  0  0  0
 26 27  1  0  0  0  0
 28 27  1  0  0  0  0
 29 28  1  0  0  0  0
 29 27  1  0  0  0  0
 30 10  1  0  0  0  0
 30 32  1  0  0  0  0
 31 30  2  0  0  0  0
 32 39  1  0  0  0  0
 34 42  1  0  0  0  0
 34 40  1  0  0  0  0
 35 33  2  0  0  0  0
 35 38  1  0  0  0  0
 36 34  2  0  0  0  0
 37 35  1  0  0  0  0
 39 42  2  0  0  0  0
 40 35  1  0  0  0  0
 41 32  2  0  0  0  0
 41 36  1  0  0  0  0
 42 37  1  0  0  0  0
 44 43  1  0  0  0  0
 45 44  1  0  0  0  0
 47 49  2  0  0  0  0
 48 49  1  0  0  0  0
 49 45  1  0  0  0  0
 49 46  1  0  0  0  0
M  END
>  <MODEL>
4

>  <REMARK>
 VINA RESULT:      -7.4      3.333      5.175
  Name = 
  10 active torsions:
  status: ('A' for Active; 'I' for Inactive)
    1  A    between atoms: C_1  and  C_9
    2  A    between atoms: C_1  and  C_36
    3  A    between atoms: C_10  and  C_38
    4  A    between atoms: C_11  and  C_16
    5  A    between atoms: C_12  and  N_47
    6  A    between atoms: C_16  and  C_42
    7  A    between atoms: C_18  and  N_47
    8  A    between atoms: C_19  and  C_33
    9  A    between atoms: C_36  and  C_37
   10  A    between atoms: C_37  and  P_43
                            x       y       z     vdW  Elec       q    Type
                         _______ _______ _______ _____ _____    ______ ____

>  <TORSDO>
F 10

$$$$
=
 OpenBabel11062418173D

 49 55  0  0  1  0  0  0  0  0999 V2000
  189.7080  176.1500  142.0150 F   0  0  0  0  0  0  0  0  0  0  0  0
  194.0270  171.7320  143.8900 C   0  0  1  0  0  3  0  0  0  0  0  0
  192.0540  172.7690  142.6250 C   0  0  0  0  0  0  0  0  0  0  0  0
  193.4690  172.4280  145.1310 C   0  0  0  0  0  2  0  0  0  0  0  0
  191.2990  172.9130  141.4570 C   0  0  0  0  0  3  0  0  0  0  0  0
  192.8870  171.5380  142.8750 C   0  0  1  0  0  3  0  0  0  0  0  0
  190.5120  174.0480  141.2650 C   0  0  0  0  0  3  0  0  0  0  0  0
  192.0000  173.7640  143.6210 C   0  0  0  0  0  0  0  0  0  0  0  0
  192.7720  173.6310  144.7880 O   0  0  0  0  0  0  0  0  0  0  0  0
  191.2010  174.9060  143.4320 C   0  0  0  0  0  0  0  0  0  0  0  0
  190.4640  175.0440  142.2420 C   0  0  0  0  0  0  0  0  0  0  0  0
  191.0770  169.7100  140.9750 C   0  0  0  0  0  2  0  0  0  0  0  0
  189.8420  169.5320  137.5340 C   0  0  0  0  0  1  0  0  0  0  0  0
  192.2510  169.4330  141.6930 O   0  0  0  0  0  0  0  0  0  0  0  0
  193.4250  170.4980  137.9910 C   0  0  0  0  0  0  0  0  0  0  0  0
  194.7790  171.3720  140.0360 C   0  0  1  0  0  3  0  0  0  0  0  0
  191.1440  169.1000  139.5760 C   0  0  0  0  0  2  0  0  0  0  0  0
  192.1180  170.1700  137.5890 O   0  0  0  0  0  0  0  0  0  0  0  0
  193.3040  171.2680  140.3520 C   0  0  2  0  0  3  0  0  0  0  0  0
  193.0920  170.5730  141.6980 C   0  0  1  0  0  3  0  0  0  0  0  0
  193.9210  170.2680  139.3950 C   0  0  1  0  0  3  0  0  0  0  0  0
  190.9460  170.0990  138.4110 C   0  0  1  0  0  0  0  0  0  0  0  0
  194.2420  170.8600  137.1020 O   0  0  0  0  0  0  0  0  0  0  0  0
  189.1010  171.8860  138.5460 C   0  0  0  0  0  1  0  0  0  0  0  0
  190.5560  171.5320  138.8270 C   0  0  0  0  0  2  0  0  0  0  0  0
  194.9990  172.5140  139.1590 N   0  0  0  0  0  2  0  0  0  0  0  0
  194.5820  173.6950  139.8920 C   0  0  0  0  0  3  0  0  0  0  0  0
  193.7590  174.5800  138.9810 C   0  0  0  0  0  2  0  0  0  0  0  0
  195.2060  174.9210  139.2590 C   0  0  0  0  0  2  0  0  0  0  0  0
  191.1540  175.9540  144.4760 C   0  0  0  0  0  0  0  0  0  0  0  0
  192.1820  176.6520  144.6720 O   0  0  0  0  0  0  0  0  0  0  0  0
  189.9560  176.1730  145.3160 C   0  0  0  0  0  0  0  0  0  0  0  0
  185.5550  179.4060  147.8380 O   0  0  0  0  0  1  0  0  0  0  0  0
  187.6700  176.4920  146.8900 C   0  0  0  0  0  0  0  0  0  0  0  0
  185.7150  178.0690  146.8180 P   0  0  2  0  0  0  0  0  0  0  0  0
  188.5680  175.4790  147.2100 C   0  0  0  0  0  3  0  0  0  0  0  0
  186.9110  178.3010  145.6200 O   0  0  0  0  0  0  0  0  0  0  0  0
  184.3930  177.6500  146.2160 O   0  0  0  0  0  0  0  0  0  0  0  0
  189.0300  177.1880  145.0070 C   0  0  0  0  0  3  0  0  0  0  0  0
  186.4960  176.7600  147.5860 O   0  0  0  0  0  0  0  0  0  0  0  0
  189.7100  175.3230  146.4160 C   0  0  0  0  0  3  0  0  0  0  0  0
  187.8970  177.3380  145.8050 C   0  0  0  0  0  0  0  0  0  0  0  0
  195.2900  172.4290  143.3660 C   0  0  0  0  0  2  0  0  0  0  0  0
  196.0910  173.1510  144.4430 C   0  0  0  0  0  2  0  0  0  0  0  0
  196.8830  174.3090  143.8590 C   0  0  0  0  0  2  0  0  0  0  0  0
  194.6750  175.7610  142.7190 O   0  0  0  0  0  0  0  0  0  0  0  0
  196.9220  177.1650  143.5100 O   0  0  0  0  0  1  0  0  0  0  0  0
  195.3150  176.0440  145.2380 O   0  0  0  0  0  1  0  0  0  0  0  0
  195.9150  175.8520  143.8660 P   0  0  0  0  0  0  0  0  0  0  0  0
  1 11  1  0  0  0  0
  2 43  1  6  0  0  0
  2  4  1  0  0  0  0
  3  8  1  0  0  0  0
  5  3  2  0  0  0  0
  6  3  1  6  0  0  0
  6  2  1  0  0  0  0
  7  5  1  0  0  0  0
  7 11  2  0  0  0  0
  8  9  1  0  0  0  0
  9  4  1  0  0  0  0
 10  8  2  0  0  0  0
 10 30  1  0  0  0  0
 11 10  1  0  0  0  0
 12 14  1  0  0  0  0
 13 22  1  0  0  0  0
 14 20  1  0  0  0  0
 15 21  1  0  0  0  0
 16 26  1  6  0  0  0
 16 19  1  0  0  0  0
 17 12  1  0  0  0  0
 18 15  1  0  0  0  0
 18 22  1  0  0  0  0
 19 20  1  0  0  0  0
 20  6  1  0  0  0  0
 21 16  1  0  0  0  0
 21 19  1  0  0  0  0
 22 25  1  0  0  0  0
 22 17  1  0  0  0  0
 23 15  2  0  0  0  0
 24 25  1  0  0  0  0
 26 27  1  0  0  0  0
 28 29  1  0  0  0  0
 28 27  1  0  0  0  0
 29 27  1  0  0  0  0
 30 31  2  0  0  0  0
 30 32  1  0  0  0  0
 32 41  1  0  0  0  0
 34 36  1  0  0  0  0
 34 40  1  0  0  0  0
 35 40  1  0  0  0  0
 35 33  1  0  0  0  0
 37 42  1  0  0  0  0
 37 35  1  0  0  0  0
 38 35  2  0  0  0  0
 39 32  2  0  0  0  0
 39 42  1  0  0  0  0
 41 36  2  0  0  0  0
 42 34  2  0  0  0  0
 43 44  1  0  0  0  0
 45 49  1  0  0  0  0
 45 44  1  0  0  0  0
 46 49  2  0  0  0  0
 47 49  1  0  0  0  0
 49 48  1  0  0  0  0
M  END
>  <MODEL>
5

>  <REMARK>
 VINA RESULT:      -7.3      3.956      6.893
  Name = 
  10 active torsions:
  status: ('A' for Active; 'I' for Inactive)
    1  A    between atoms: C_1  and  C_9
    2  A    between atoms: C_1  and  C_36
    3  A    between atoms: C_10  and  C_38
    4  A    between atoms: C_11  and  C_16
    5  A    between atoms: C_12  and  N_47
    6  A    between atoms: C_16  and  C_42
    7  A    between atoms: C_18  and  N_47
    8  A    between atoms: C_19  and  C_33
    9  A    between atoms: C_36  and  C_37
   10  A    between atoms: C_37  and  P_43
                            x       y       z     vdW  Elec       q    Type
                         _______ _______ _______ _____ _____    ______ ____

>  <TORSDO>
F 10

$$$$
=
 OpenBabel11062418173D

 49 55  0  0  1  0  0  0  0  0999 V2000
  190.8180  173.9340  138.7980 F   0  0  0  0  0  0  0  0  0  0  0  0
  190.6730  172.7480  145.1430 C   0  0  1  0  0  3  0  0  0  0  0  0
  191.5420  172.7920  142.7320 C   0  0  0  0  0  0  0  0  0  0  0  0
  189.3200  172.3670  144.5420 C   0  0  0  0  0  2  0  0  0  0  0  0
  192.5950  172.9230  141.8200 C   0  0  0  0  0  3  0  0  0  0  0  0
  191.7840  172.3520  144.1540 C   0  0  1  0  0  3  0  0  0  0  0  0
  192.3400  173.3010  140.5030 C   0  0  0  0  0  3  0  0  0  0  0  0
  190.2180  173.0210  142.3090 C   0  0  0  0  0  0  0  0  0  0  0  0
  189.1590  172.9090  143.2270 O   0  0  0  0  0  0  0  0  0  0  0  0
  189.9590  173.3960  140.9780 C   0  0  0  0  0  0  0  0  0  0  0  0
  191.0310  173.5420  140.0800 C   0  0  0  0  0  0  0  0  0  0  0  0
  194.4170  170.6270  143.5900 C   0  0  0  0  0  2  0  0  0  0  0  0
  197.6930  170.8810  141.9780 C   0  0  0  0  0  1  0  0  0  0  0  0
  193.7940  171.0140  144.7860 O   0  0  0  0  0  0  0  0  0  0  0  0
  196.5870  173.8120  144.0180 C   0  0  0  0  0  0  0  0  0  0  0  0
  194.2640  174.5730  144.9150 C   0  0  1  0  0  3  0  0  0  0  0  0
  195.9320  170.7900  143.6930 C   0  0  0  0  0  2  0  0  0  0  0  0
  197.1920  172.8420  143.1990 O   0  0  0  0  0  0  0  0  0  0  0  0
  194.1400  173.3700  144.0070 C   0  0  2  0  0  3  0  0  0  0  0  0
  193.2390  172.3100  144.6420 C   0  0  1  0  0  3  0  0  0  0  0  0
  195.3790  173.5140  144.8680 C   0  0  1  0  0  3  0  0  0  0  0  0
  196.5740  171.6910  142.6100 C   0  0  1  0  0  0  0  0  0  0  0  0
  197.1690  174.9230  144.1450 O   0  0  0  0  0  0  0  0  0  0  0  0
  196.2890  173.0320  140.4340 C   0  0  0  0  0  1  0  0  0  0  0  0
  195.6200  172.1670  141.4950 C   0  0  0  0  0  2  0  0  0  0  0  0
  194.5520  175.7510  144.1090 N   0  0  0  0  0  2  0  0  0  0  0  0
  194.1830  176.9070  144.9060 C   0  0  0  0  0  3  0  0  0  0  0  0
  193.1740  176.4860  145.9530 C   0  0  0  0  0  2  0  0  0  0  0  0
  192.7120  177.2030  144.7030 C   0  0  0  0  0  2  0  0  0  0  0  0
  188.5680  173.6450  140.5410 C   0  0  0  0  0  0  0  0  0  0  0  0
  187.9890  172.7660  139.8510 O   0  0  0  0  0  0  0  0  0  0  0  0
  187.8590  174.9060  140.8530 C   0  0  0  0  0  0  0  0  0  0  0  0
  183.9100  178.3900  143.7590 O   0  0  0  0  0  0  0  0  0  0  0  0
  186.5980  177.3360  141.4080 C   0  0  0  0  0  0  0  0  0  0  0  0
  185.5730  178.3320  143.4760 P   0  0  2  0  0  0  0  0  0  0  0  0
  187.0750  177.1070  140.1220 C   0  0  0  0  0  3  0  0  0  0  0  0
  186.2090  176.7540  143.6380 O   0  0  0  0  0  0  0  0  0  0  0  0
  186.3310  179.3310  144.3210 O   0  0  0  0  0  1  0  0  0  0  0  0
  187.3730  175.1620  142.1500 C   0  0  0  0  0  3  0  0  0  0  0  0
  185.9540  178.4980  141.8190 O   0  0  0  0  0  0  0  0  0  0  0  0
  187.7080  175.8880  139.8510 C   0  0  0  0  0  3  0  0  0  0  0  0
  186.7420  176.3770  142.4100 C   0  0  0  0  0  0  0  0  0  0  0  0
  190.6900  174.2020  145.6340 C   0  0  0  0  0  2  0  0  0  0  0  0
  189.6790  174.4930  146.7370 C   0  0  0  0  0  2  0  0  0  0  0  0
  188.5370  175.3550  146.2240 C   0  0  0  0  0  2  0  0  0  0  0  0
  187.5440  177.9130  147.0940 O   0  0  0  0  0  1  0  0  0  0  0  0
  189.2750  177.8210  144.9390 O   0  0  0  0  0  0  0  0  0  0  0  0
  190.0660  177.2820  147.3700 O   0  0  0  0  0  1  0  0  0  0  0  0
  188.8900  177.1280  146.4350 P   0  0  0  0  0  0  0  0  0  0  0  0
  1 11  1  0  0  0  0
  2 43  1  6  0  0  0
  4  2  1  0  0  0  0
  5  3  2  0  0  0  0
  6  3  1  6  0  0  0
  6 20  1  0  0  0  0
  6  2  1  0  0  0  0
  7  5  1  0  0  0  0
  8  3  1  0  0  0  0
  8  9  1  0  0  0  0
  9  4  1  0  0  0  0
 10  8  2  0  0  0  0
 11  7  2  0  0  0  0
 11 10  1  0  0  0  0
 12 17  1  0  0  0  0
 12 14  1  0  0  0  0
 13 22  1  0  0  0  0
 15 23  2  0  0  0  0
 15 21  1  0  0  0  0
 16 26  1  6  0  0  0
 18 15  1  0  0  0  0
 19 20  1  0  0  0  0
 19 21  1  0  0  0  0
 19 16  1  0  0  0  0
 20 14  1  0  0  0  0
 21 16  1  0  0  0  0
 22 18  1  0  0  0  0
 22 17  1  0  0  0  0
 24 25  1  0  0  0  0
 25 22  1  0  0  0  0
 26 27  1  0  0  0  0
 27 28  1  0  0  0  0
 29 27  1  0  0  0  0
 29 28  1  0  0  0  0
 30 32  1  0  0  0  0
 30 10  1  0  0  0  0
 31 30  2  0  0  0  0
 32 39  1  0  0  0  0
 34 40  1  0  0  0  0
 34 42  1  0  0  0  0
 35 37  1  0  0  0  0
 35 33  2  0  0  0  0
 35 38  1  0  0  0  0
 36 34  2  0  0  0  0
 39 42  2  0  0  0  0
 40 35  1  0  0  0  0
 41 36  1  0  0  0  0
 41 32  2  0  0  0  0
 42 37  1  0  0  0  0
 43 44  1  0  0  0  0
 45 49  1  0  0  0  0
 45 44  1  0  0  0  0
 47 49  2  0  0  0  0
 49 46  1  0  0  0  0
 49 48  1  0  0  0  0
M  END
>  <MODEL>
6

>  <REMARK>
 VINA RESULT:      -7.2      3.214      5.852
  Name = 
  10 active torsions:
  status: ('A' for Active; 'I' for Inactive)
    1  A    between atoms: C_1  and  C_9
    2  A    between atoms: C_1  and  C_36
    3  A    between atoms: C_10  and  C_38
    4  A    between atoms: C_11  and  C_16
    5  A    between atoms: C_12  and  N_47
    6  A    between atoms: C_16  and  C_42
    7  A    between atoms: C_18  and  N_47
    8  A    between atoms: C_19  and  C_33
    9  A    between atoms: C_36  and  C_37
   10  A    between atoms: C_37  and  P_43
                            x       y       z     vdW  Elec       q    Type
                         _______ _______ _______ _____ _____    ______ ____

>  <TORSDO>
F 10

$$$$
=
 OpenBabel11062418173D

 49 55  0  0  1  0  0  0  0  0999 V2000
  189.5250  171.9560  143.9430 F   0  0  0  0  0  0  0  0  0  0  0  0
  194.7780  175.5210  142.7630 C   0  0  1  0  0  3  0  0  0  0  0  0
  193.3320  173.6130  143.6800 C   0  0  0  0  0  0  0  0  0  0  0  0
  193.6380  176.4500  143.1780 C   0  0  0  0  0  2  0  0  0  0  0  0
  193.1610  172.2630  144.0010 C   0  0  0  0  0  3  0  0  0  0  0  0
  194.7020  174.2360  143.6070 C   0  0  1  0  0  3  0  0  0  0  0  0
  191.8800  171.7190  144.0930 C   0  0  0  0  0  3  0  0  0  0  0  0
  192.2040  174.4310  143.4690 C   0  0  0  0  0  0  0  0  0  0  0  0
  192.3720  175.7840  143.1270 O   0  0  0  0  0  0  0  0  0  0  0  0
  190.9110  173.8850  143.5670 C   0  0  0  0  0  0  0  0  0  0  0  0
  190.7580  172.5210  143.8730 C   0  0  0  0  0  0  0  0  0  0  0  0
  196.3050  172.5120  145.7720 C   0  0  0  0  0  2  0  0  0  0  0  0
  196.8480  169.0460  146.8110 C   0  0  0  0  0  1  0  0  0  0  0  0
  196.7430  173.3990  144.7760 O   0  0  0  0  0  0  0  0  0  0  0  0
  196.8550  169.7230  143.1350 C   0  0  0  0  0  0  0  0  0  0  0  0
  195.9860  171.7130  141.6970 C   0  0  1  0  0  3  0  0  0  0  0  0
  197.1890  171.2680  145.8130 C   0  0  0  0  0  2  0  0  0  0  0  0
  196.8780  169.2420  144.4560 O   0  0  0  0  0  0  0  0  0  0  0  0
  195.6030  171.8710  143.1510 C   0  0  2  0  0  3  0  0  0  0  0  0
  195.9110  173.2890  143.6350 C   0  0  1  0  0  3  0  0  0  0  0  0
  196.9140  171.1930  142.8080 C   0  0  1  0  0  3  0  0  0  0  0  0
  196.4430  169.9230  145.6390 C   0  0  1  0  0  0  0  0  0  0  0  0
  196.9320  168.8830  142.1990 O   0  0  0  0  0  0  0  0  0  0  0  0
  194.1940  168.6780  145.7430 C   0  0  0  0  0  1  0  0  0  0  0  0
  194.9040  170.0200  145.6060 C   0  0  0  0  0  2  0  0  0  0  0  0
  195.1640  170.6710  141.0980 N   0  0  0  0  0  2  0  0  0  0  0  0
  195.1620  170.9070  139.6660 C   0  0  0  0  0  3  0  0  0  0  0  0
  194.1150  171.9480  139.3360 C   0  0  0  0  0  2  0  0  0  0  0  0
  193.8260  170.4830  139.0930 C   0  0  0  0  0  2  0  0  0  0  0  0
  189.7290  174.7440  143.3370 C   0  0  0  0  0  0  0  0  0  0  0  0
  189.3690  174.9640  142.1520 O   0  0  0  0  0  0  0  0  0  0  0  0
  188.9900  175.3800  144.4510 C   0  0  0  0  0  0  0  0  0  0  0  0
  185.9450  179.7840  147.1910 O   0  0  0  0  0  1  0  0  0  0  0  0
  187.5710  176.4900  146.5860 C   0  0  0  0  0  0  0  0  0  0  0  0
  185.7110  178.1710  146.7520 P   0  0  2  0  0  0  0  0  0  0  0  0
  188.5580  175.5480  146.8550 C   0  0  0  0  0  3  0  0  0  0  0  0
  186.2790  177.8330  145.1760 O   0  0  0  0  0  0  0  0  0  0  0  0
  184.2740  177.7330  146.9350 O   0  0  0  0  0  0  0  0  0  0  0  0
  187.9820  176.3320  144.2020 C   0  0  0  0  0  3  0  0  0  0  0  0
  186.7920  177.1190  147.5510 O   0  0  0  0  0  0  0  0  0  0  0  0
  189.2640  174.9930  145.7800 C   0  0  0  0  0  3  0  0  0  0  0  0
  187.2870  176.8800  145.2780 C   0  0  0  0  0  0  0  0  0  0  0  0
  194.8310  175.3290  141.2410 C   0  0  0  0  0  2  0  0  0  0  0  0
  196.1240  175.8180  140.6000 C   0  0  0  0  0  2  0  0  0  0  0  0
  196.8680  174.6800  139.9210 C   0  0  0  0  0  2  0  0  0  0  0  0
  195.1010  175.2800  137.7290 O   0  0  0  0  0  1  0  0  0  0  0  0
  196.8790  173.1790  137.4660 O   0  0  0  0  0  0  0  0  0  0  0  0
  197.6790  175.6650  137.5250 O   0  0  0  0  0  1  0  0  0  0  0  0
  196.6530  174.7260  138.1130 P   0  0  0  0  0  0  0  0  0  0  0  0
  2 43  1  6  0  0  0
  2  4  1  0  0  0  0
  2  6  1  0  0  0  0
  3  5  1  0  0  0  0
  5  7  2  0  0  0  0
  6 20  1  0  0  0  0
  6  3  1  6  0  0  0
  8 10  1  0  0  0  0
  8  3  2  0  0  0  0
  9  4  1  0  0  0  0
  9  8  1  0  0  0  0
 10 11  2  0  0  0  0
 11  1  1  0  0  0  0
 11  7  1  0  0  0  0
 12 17  1  0  0  0  0
 14 12  1  0  0  0  0
 15 18  1  0  0  0  0
 16 26  1  6  0  0  0
 16 21  1  0  0  0  0
 16 19  1  0  0  0  0
 18 22  1  0  0  0  0
 19 20  1  0  0  0  0
 20 14  1  0  0  0  0
 21 15  1  0  0  0  0
 21 19  1  0  0  0  0
 22 17  1  0  0  0  0
 22 13  1  0  0  0  0
 23 15  2  0  0  0  0
 25 22  1  0  0  0  0
 25 24  1  0  0  0  0
 27 26  1  0  0  0  0
 28 27  1  0  0  0  0
 29 28  1  0  0  0  0
 29 27  1  0  0  0  0
 30 10  1  0  0  0  0
 30 32  1  0  0  0  0
 31 30  2  0  0  0  0
 32 41  1  0  0  0  0
 34 36  1  0  0  0  0
 34 40  1  0  0  0  0
 35 38  2  0  0  0  0
 35 33  1  0  0  0  0
 35 40  1  0  0  0  0
 37 42  1  0  0  0  0
 37 35  1  0  0  0  0
 39 32  2  0  0  0  0
 39 42  1  0  0  0  0
 41 36  2  0  0  0  0
 42 34  2  0  0  0  0
 44 43  1  0  0  0  0
 45 44  1  0  0  0  0
 46 49  1  0  0  0  0
 47 49  2  0  0  0  0
 48 49  1  0  0  0  0
 49 45  1  0  0  0  0
M  END
>  <MODEL>
7

>  <REMARK>
 VINA RESULT:      -7.1      3.970      6.688
  Name = 
  10 active torsions:
  status: ('A' for Active; 'I' for Inactive)
    1  A    between atoms: C_1  and  C_9
    2  A    between atoms: C_1  and  C_36
    3  A    between atoms: C_10  and  C_38
    4  A    between atoms: C_11  and  C_16
    5  A    between atoms: C_12  and  N_47
    6  A    between atoms: C_16  and  C_42
    7  A    between atoms: C_18  and  N_47
    8  A    between atoms: C_19  and  C_33
    9  A    between atoms: C_36  and  C_37
   10  A    between atoms: C_37  and  P_43
                            x       y       z     vdW  Elec       q    Type
                         _______ _______ _______ _____ _____    ______ ____

>  <TORSDO>
F 10

$$$$
=
 OpenBabel11062418173D

 49 55  0  0  1  0  0  0  0  0999 V2000
  192.0240  176.5780  146.3780 F   0  0  0  0  0  0  0  0  0  0  0  0
  191.9580  173.2720  140.8320 C   0  0  1  0  0  3  0  0  0  0  0  0
  192.5620  175.0970  142.5280 C   0  0  0  0  0  0  0  0  0  0  0  0
  190.5200  173.4300  141.3260 C   0  0  0  0  0  2  0  0  0  0  0  0
  193.4970  175.9690  143.0950 C   0  0  0  0  0  3  0  0  0  0  0  0
  192.7270  174.5730  141.1240 C   0  0  1  0  0  3  0  0  0  0  0  0
  193.3040  176.4640  144.3840 C   0  0  0  0  0  3  0  0  0  0  0  0
  191.4100  174.7370  143.2540 C   0  0  0  0  0  0  0  0  0  0  0  0
  190.4780  173.8460  142.6950 O   0  0  0  0  0  0  0  0  0  0  0  0
  191.2110  175.2400  144.5520 C   0  0  0  0  0  0  0  0  0  0  0  0
  192.1700  176.1010  145.1150 C   0  0  0  0  0  0  0  0  0  0  0  0
  195.6700  173.3210  141.1960 C   0  0  0  0  0  2  0  0  0  0  0  0
  197.9410  171.2770  139.1820 C   0  0  0  0  0  1  0  0  0  0  0  0
  195.2190  174.6490  141.2620 O   0  0  0  0  0  0  0  0  0  0  0  0
  196.0120  173.9240  137.3800 C   0  0  0  0  0  0  0  0  0  0  0  0
  193.8810  175.2910  137.9910 C   0  0  1  0  0  3  0  0  0  0  0  0
  196.8850  173.2100  140.2780 C   0  0  0  0  0  2  0  0  0  0  0  0
  196.8190  172.8710  137.8440 O   0  0  0  0  0  0  0  0  0  0  0  0
  194.1720  174.2270  139.0250 C   0  0  2  0  0  3  0  0  0  0  0  0
  194.0790  174.8110  140.4360 C   0  0  1  0  0  3  0  0  0  0  0  0
  195.3320  174.8930  138.3120 C   0  0  1  0  0  3  0  0  0  0  0  0
  196.7400  172.2040  139.1100 C   0  0  1  0  0  0  0  0  0  0  0  0
  195.9800  174.1410  136.1390 O   0  0  0  0  0  0  0  0  0  0  0  0
  195.6600  169.9130  138.6630 C   0  0  0  0  0  1  0  0  0  0  0  0
  195.4560  171.3490  139.1300 C   0  0  0  0  0  2  0  0  0  0  0  0
  193.3620  174.6560  136.7870 N   0  0  0  0  0  2  0  0  0  0  0  0
  192.1350  173.9790  137.1640 C   0  0  0  0  0  3  0  0  0  0  0  0
  192.0650  172.6460  136.4500 C   0  0  0  0  0  2  0  0  0  0  0  0
  191.2590  173.8190  135.9390 C   0  0  0  0  0  2  0  0  0  0  0  0
  190.0050  174.8520  145.3160 C   0  0  0  0  0  0  0  0  0  0  0  0
  189.9540  173.6970  145.8130 O   0  0  0  0  0  0  0  0  0  0  0  0
  188.8480  175.7620  145.4750 C   0  0  0  0  0  0  0  0  0  0  0  0
  185.4430  180.5590  144.2210 O   0  0  0  0  0  1  0  0  0  0  0  0
  186.6130  177.4040  145.8150 C   0  0  0  0  0  0  0  0  0  0  0  0
  185.2880  178.8780  144.2700 P   0  0  2  0  0  0  0  0  0  0  0  0
  187.0970  176.6950  146.9090 C   0  0  0  0  0  3  0  0  0  0  0  0
  186.6280  178.0770  143.5770 O   0  0  0  0  0  0  0  0  0  0  0  0
  183.9820  178.4080  143.6700 O   0  0  0  0  0  0  0  0  0  0  0  0
  188.3380  176.4850  144.3800 C   0  0  0  0  0  3  0  0  0  0  0  0
  185.5130  178.2540  145.8440 O   0  0  0  0  0  0  0  0  0  0  0  0
  188.2150  175.8720  146.7320 C   0  0  0  0  0  3  0  0  0  0  0  0
  187.2260  177.3040  144.5660 C   0  0  0  0  0  0  0  0  0  0  0  0
  192.5990  171.9760  141.3460 C   0  0  0  0  0  2  0  0  0  0  0  0
  191.6030  170.8470  141.5850 C   0  0  0  0  0  2  0  0  0  0  0  0
  192.3080  169.5720  142.0180 C   0  0  0  0  0  2  0  0  0  0  0  0
  192.2750  170.9790  144.5290 O   0  0  0  0  0  1  0  0  0  0  0  0
  194.7020  170.1240  143.5160 O   0  0  0  0  0  0  0  0  0  0  0  0
  192.9120  168.4450  144.4130 O   0  0  0  0  0  1  0  0  0  0  0  0
  193.0580  169.7510  143.6680 P   0  0  0  0  0  0  0  0  0  0  0  0
  2  6  1  0  0  0  0
  2  4  1  0  0  0  0
  2 43  1  1  0  0  0
  3  5  2  0  0  0  0
  3  8  1  0  0  0  0
  4  9  1  0  0  0  0
  5  7  1  0  0  0  0
  6  3  1  1  0  0  0
  7 11  2  0  0  0  0
  8 10  2  0  0  0  0
  9  8  1  0  0  0  0
 10 11  1  0  0  0  0
 10 30  1  0  0  0  0
 11  1  1  0  0  0  0
 12 14  1  0  0  0  0
 15 18  1  0  0  0  0
 15 21  1  0  0  0  0
 16 26  1  6  0  0  0
 16 21  1  0  0  0  0
 16 19  1  0  0  0  0
 17 12  1  0  0  0  0
 18 22  1  0  0  0  0
 19 20  1  0  0  0  0
 20  6  1  0  0  0  0
 20 14  1  0  0  0  0
 21 19  1  0  0  0  0
 22 25  1  0  0  0  0
 22 13  1  0  0  0  0
 22 17  1  0  0  0  0
 23 15  2  0  0  0  0
 24 25  1  0  0  0  0
 26 27  1  0  0  0  0
 28 27  1  0  0  0  0
 29 28  1  0  0  0  0
 29 27  1  0  0  0  0
 30 32  1  0  0  0  0
 30 31  2  0  0  0  0
 32 41  1  0  0  0  0
 33 35  1  0  0  0  0
 34 40  1  0  0  0  0
 34 36  1  0  0  0  0
 35 40  1  0  0  0  0
 37 35  1  0  0  0  0
 37 42  1  0  0  0  0
 38 35  2  0  0  0  0
 39 42  1  0  0  0  0
 39 32  2  0  0  0  0
 41 36  2  0  0  0  0
 42 34  2  0  0  0  0
 43 44  1  0  0  0  0
 44 45  1  0  0  0  0
 45 49  1  0  0  0  0
 47 49  2  0  0  0  0
 49 48  1  0  0  0  0
 49 46  1  0  0  0  0
M  END
>  <MODEL>
8

>  <REMARK>
 VINA RESULT:      -7.0      3.473      6.643
  Name = 
  10 active torsions:
  status: ('A' for Active; 'I' for Inactive)
    1  A    between atoms: C_1  and  C_9
    2  A    between atoms: C_1  and  C_36
    3  A    between atoms: C_10  and  C_38
    4  A    between atoms: C_11  and  C_16
    5  A    between atoms: C_12  and  N_47
    6  A    between atoms: C_16  and  C_42
    7  A    between atoms: C_18  and  N_47
    8  A    between atoms: C_19  and  C_33
    9  A    between atoms: C_36  and  C_37
   10  A    between atoms: C_37  and  P_43
                            x       y       z     vdW  Elec       q    Type
                         _______ _______ _______ _____ _____    ______ ____

>  <TORSDO>
F 10

$$$$
=
 OpenBabel11062418173D

 49 55  0  0  1  0  0  0  0  0999 V2000
  192.1580  176.4410  146.3790 F   0  0  0  0  0  0  0  0  0  0  0  0
  191.9640  173.3270  140.7260 C   0  0  1  0  0  3  0  0  0  0  0  0
  192.6400  175.0670  142.4820 C   0  0  0  0  0  0  0  0  0  0  0  0
  190.5330  173.5280  141.2240 C   0  0  0  0  0  2  0  0  0  0  0  0
  193.6100  175.8790  143.0790 C   0  0  0  0  0  3  0  0  0  0  0  0
  192.7860  174.5830  141.0620 C   0  0  1  0  0  3  0  0  0  0  0  0
  193.4350  176.3390  144.3840 C   0  0  0  0  0  3  0  0  0  0  0  0
  191.4730  174.7310  143.1950 C   0  0  0  0  0  0  0  0  0  0  0  0
  190.5050  173.9000  142.6060 O   0  0  0  0  0  0  0  0  0  0  0  0
  191.2920  175.2000  144.5090 C   0  0  0  0  0  0  0  0  0  0  0  0
  192.2860  176.0000  145.1010 C   0  0  0  0  0  0  0  0  0  0  0  0
  195.6940  173.2520  141.1480 C   0  0  0  0  0  2  0  0  0  0  0  0
  197.9210  171.1530  139.1410 C   0  0  0  0  0  1  0  0  0  0  0  0
  195.2780  174.5910  141.2150 O   0  0  0  0  0  0  0  0  0  0  0  0
  196.0760  173.8570  137.3360 C   0  0  0  0  0  0  0  0  0  0  0  0
  193.9790  175.2800  137.9380 C   0  0  1  0  0  3  0  0  0  0  0  0
  196.9110  173.1100  140.2370 C   0  0  0  0  0  2  0  0  0  0  0  0
  196.8520  172.7810  137.8010 O   0  0  0  0  0  0  0  0  0  0  0  0
  194.2340  174.2050  138.9710 C   0  0  2  0  0  3  0  0  0  0  0  0
  194.1490  174.7870  140.3830 C   0  0  1  0  0  3  0  0  0  0  0  0
  195.4160  174.8410  138.2680 C   0  0  1  0  0  3  0  0  0  0  0  0
  196.7460  172.1130  139.0650 C   0  0  1  0  0  0  0  0  0  0  0  0
  196.0570  174.0790  136.0960 O   0  0  0  0  0  0  0  0  0  0  0  0
  195.6310  169.8240  139.4320 C   0  0  0  0  0  1  0  0  0  0  0  0
  195.4400  171.2920  139.0740 C   0  0  0  0  0  2  0  0  0  0  0  0
  193.4510  174.6640  136.7290 N   0  0  0  0  0  2  0  0  0  0  0  0
  192.0430  174.4030  136.9700 C   0  0  0  0  0  3  0  0  0  0  0  0
  191.5700  173.3230  136.0220 C   0  0  0  0  0  2  0  0  0  0  0  0
  191.2500  174.7730  135.7340 C   0  0  0  0  0  2  0  0  0  0  0  0
  190.0690  174.8380  145.2590 C   0  0  0  0  0  0  0  0  0  0  0  0
  189.9960  173.6900  145.7710 O   0  0  0  0  0  0  0  0  0  0  0  0
  188.9220  175.7640  145.3870 C   0  0  0  0  0  0  0  0  0  0  0  0
  185.5480  180.5310  143.9480 O   0  0  0  0  0  1  0  0  0  0  0  0
  186.7060  177.4410  145.6720 C   0  0  0  0  0  0  0  0  0  0  0  0
  185.3790  178.8560  144.0750 P   0  0  2  0  0  0  0  0  0  0  0  0
  187.1930  176.7780  146.7930 C   0  0  0  0  0  3  0  0  0  0  0  0
  186.7050  178.0120  143.4060 O   0  0  0  0  0  0  0  0  0  0  0  0
  184.0630  178.3710  143.5080 O   0  0  0  0  0  0  0  0  0  0  0  0
  188.4090  176.4420  144.2650 C   0  0  0  0  0  3  0  0  0  0  0  0
  185.6130  178.3010  145.6730 O   0  0  0  0  0  0  0  0  0  0  0  0
  188.3020  175.9370  146.6430 C   0  0  0  0  0  3  0  0  0  0  0  0
  187.3050  177.2790  144.4240 C   0  0  0  0  0  0  0  0  0  0  0  0
  192.5480  171.9880  141.1970 C   0  0  0  0  0  2  0  0  0  0  0  0
  191.9640  170.7740  140.4850 C   0  0  0  0  0  2  0  0  0  0  0  0
  191.8080  171.0290  138.9950 C   0  0  0  0  0  2  0  0  0  0  0  0
  192.6790  168.6620  137.6100 O   0  0  0  0  0  1  0  0  0  0  0  0
  190.3750  169.9300  136.7560 O   0  0  0  0  0  0  0  0  0  0  0  0
  190.4870  168.6580  139.0350 O   0  0  0  0  0  1  0  0  0  0  0  0
  191.3090  169.5210  138.1070 P   0  0  0  0  0  0  0  0  0  0  0  0
  2  6  1  0  0  0  0
  2 43  1  1  0  0  0
  2  4  1  0  0  0  0
  3  5  2  0  0  0  0
  3  8  1  0  0  0  0
  4  9  1  0  0  0  0
  5  7  1  0  0  0  0
  6  3  1  1  0  0  0
  7 11  2  0  0  0  0
  8 10  2  0  0  0  0
  9  8  1  0  0  0  0
 10 11  1  0  0  0  0
 10 30  1  0  0  0  0
 11  1  1  0  0  0  0
 12 14  1  0  0  0  0
 15 18  1  0  0  0  0
 15 21  1  0  0  0  0
 16 26  1  6  0  0  0
 16 21  1  0  0  0  0
 16 19  1  0  0  0  0
 17 12  1  0  0  0  0
 18 22  1  0  0  0  0
 19 20  1  0  0  0  0
 20  6  1  0  0  0  0
 20 14  1  0  0  0  0
 21 19  1  0  0  0  0
 22 25  1  0  0  0  0
 22 13  1  0  0  0  0
 22 17  1  0  0  0  0
 23 15  2  0  0  0  0
 25 24  1  0  0  0  0
 26 27  1  0  0  0  0
 28 27  1  0  0  0  0
 29 28  1  0  0  0  0
 29 27  1  0  0  0  0
 30 32  1  0  0  0  0
 30 31  2  0  0  0  0
 32 41  1  0  0  0  0
 33 35  1  0  0  0  0
 34 40  1  0  0  0  0
 34 36  1  0  0  0  0
 35 40  1  0  0  0  0
 37 35  1  0  0  0  0
 37 42  1  0  0  0  0
 38 35  2  0  0  0  0
 39 42  1  0  0  0  0
 39 32  2  0  0  0  0
 41 36  2  0  0  0  0
 42 34  2  0  0  0  0
 44 43  1  0  0  0  0
 45 44  1  0  0  0  0
 46 49  1  0  0  0  0
 47 49  2  0  0  0  0
 49 45  1  0  0  0  0
 49 48  1  0  0  0  0
M  END
>  <MODEL>
9

>  <REMARK>
 VINA RESULT:      -7.0      3.484      6.420
  Name = 
  10 active torsions:
  status: ('A' for Active; 'I' for Inactive)
    1  A    between atoms: C_1  and  C_9
    2  A    between atoms: C_1  and  C_36
    3  A    between atoms: C_10  and  C_38
    4  A    between atoms: C_11  and  C_16
    5  A    between atoms: C_12  and  N_47
    6  A    between atoms: C_16  and  C_42
    7  A    between atoms: C_18  and  N_47
    8  A    between atoms: C_19  and  C_33
    9  A    between atoms: C_36  and  C_37
   10  A    between atoms: C_37  and  P_43
                            x       y       z     vdW  Elec       q    Type
                         _______ _______ _______ _____ _____    ______ ____

>  <TORSDO>
F 10

$$$$
