=
 OpenBabel11062421093D

 27 28  0  0  1  0  0  0  0  0999 V2000
  182.3300  177.9630  140.2280 O   0  0  0  0  0  0  0  0  0  0  0  0
  182.6780  178.4560  142.4920 N   0  0  0  0  0  2  0  0  0  0  0  0
  184.6950  177.7960  141.5020 O   0  0  0  0  0  0  0  0  0  0  0  0
  181.8530  178.3530  141.3280 C   0  0  0  0  0  0  0  0  0  0  0  0
  184.0840  178.1710  142.5410 C   0  0  0  0  0  0  0  0  0  0  0  0
  184.8210  178.3140  143.8080 C   0  0  0  0  0  0  0  0  0  0  0  0
  186.0420  177.7660  143.9480 C   0  0  0  0  0  3  0  0  0  0  0  0
  187.5080  176.7570  145.7220 C   0  0  0  0  0  0  0  0  0  0  0  0
  187.0790  176.4400  146.9000 N   0  0  0  0  0  0  0  0  0  0  0  0
  186.0600  177.3240  147.2710 N   0  0  0  0  0  0  0  0  0  0  0  0
  185.9150  178.2070  146.3430 C   0  0  0  0  0  0  0  0  0  0  0  0
  186.8460  177.9830  145.2010 C   0  0  2  0  0  3  0  0  0  0  0  0
  184.6960  178.9280  146.1600 N   0  0  0  0  0  0  0  0  0  0  0  0
  184.1830  179.0040  144.9650 C   0  0  0  0  0  3  0  0  0  0  0  0
  188.5080  176.0560  145.0470 O   0  0  0  0  0  0  0  0  0  0  0  0
  189.5980  175.4600  145.7330 C   0  0  0  0  0  1  0  0  0  0  0  0
  180.3920  178.6780  141.4430 C   0  0  2  0  0  3  0  0  0  0  0  0
  179.6190  177.5940  141.9210 O   0  0  0  0  0  0  0  0  0  0  0  0
  178.5370  178.0930  142.6660 C   0  0  0  0  0  1  0  0  0  0  0  0
  179.8560  179.2480  140.2070 N   0  0  0  0  0  2  0  0  0  0  0  0
  179.9010  180.6990  140.3350 C   0  0  0  0  0  2  0  0  0  0  0  0
  178.7830  181.3380  139.5270 C   0  0  0  0  0  2  0  0  0  0  0  0
  179.1360  182.7710  139.1780 C   0  0  0  0  0  2  0  0  0  0  0  0
  179.5320  182.8500  137.7180 C   0  0  0  0  0  2  0  0  0  0  0  0
  180.2350  185.1840  138.2340 O   0  0  0  0  0  1  0  0  0  0  0  0
  181.3670  183.9480  136.6720 O   0  0  0  0  0  0  0  0  0  0  0  0
  180.4240  184.0210  137.5000 C   0  0  0  0  0  0  0  0  0  0  0  0
  1  4  2  0  0  0  0
  2  5  1  0  0  0  0
  3  5  2  0  0  0  0
  4 17  1  0  0  0  0
  4  2  1  0  0  0  0
  5  6  1  0  0  0  0
  6  7  2  0  0  0  0
  6 14  1  0  0  0  0
  8  9  2  0  0  0  0
  9 10  1  0  0  0  0
 11 10  2  0  0  0  0
 12  7  1  6  0  0  0
 12  8  1  0  0  0  0
 12 11  1  0  0  0  0
 13 11  1  0  0  0  0
 14 13  2  0  0  0  0
 15  8  1  0  0  0  0
 15 16  1  0  0  0  0
 17 20  1  6  0  0  0
 17 18  1  0  0  0  0
 18 19  1  0  0  0  0
 20 21  1  0  0  0  0
 22 21  1  0  0  0  0
 23 22  1  0  0  0  0
 24 23  1  0  0  0  0
 26 27  2  0  0  0  0
 27 24  1  0  0  0  0
 27 25  1  0  0  0  0
M  END
>  <MODEL>
1

>  <REMARK>
 VINA RESULT:      -6.6      0.000      0.000
  Name = 
  10 active torsions:
  status: ('A' for Active; 'I' for Inactive)
    1  A    between atoms: C_2  and  C_15
    2  A    between atoms: C_4  and  C_6
    3  A    between atoms: C_4  and  C_16
    4  A    between atoms: C_6  and  C_14
    5  A    between atoms: O_10  and  C_11
    6  A    between atoms: C_13  and  C_23
    7  A    between atoms: C_14  and  C_27
    8  A    between atoms: O_17  and  C_23
    9  A    between atoms: N_18  and  C_23
   10  A    between atoms: N_18  and  C_27
                            x       y       z     vdW  Elec       q    Type
                         _______ _______ _______ _____ _____    ______ ____

>  <TORSDO>
F 10

$$$$
=
 OpenBabel11062421093D

 27 28  0  0  1  0  0  0  0  0999 V2000
  190.8180  174.7330  143.1180 O   0  0  0  0  0  0  0  0  0  0  0  0
  189.8660  176.8630  143.3470 N   0  0  0  0  0  2  0  0  0  0  0  0
  188.1770  175.2490  143.1910 O   0  0  0  0  0  0  0  0  0  0  0  0
  190.9850  175.9750  143.2630 C   0  0  0  0  0  0  0  0  0  0  0  0
  188.4880  176.4660  143.3060 C   0  0  0  0  0  0  0  0  0  0  0  0
  187.4260  177.4830  143.3990 C   0  0  0  0  0  0  0  0  0  0  0  0
  187.1380  178.0570  144.5820 C   0  0  0  0  0  3  0  0  0  0  0  0
  185.1830  179.0360  145.8220 C   0  0  0  0  0  0  0  0  0  0  0  0
  183.9580  178.9040  145.4300 N   0  0  0  0  0  0  0  0  0  0  0  0
  183.9260  178.8460  144.0320 N   0  0  0  0  0  0  0  0  0  0  0  0
  185.1240  179.0010  143.5810 C   0  0  0  0  0  0  0  0  0  0  0  0
  186.1220  179.1630  144.6750 C   0  0  2  0  0  3  0  0  0  0  0  0
  185.5220  178.5230  142.2950 N   0  0  0  0  0  0  0  0  0  0  0  0
  186.6170  177.8250  142.1940 C   0  0  0  0  0  3  0  0  0  0  0  0
  185.5660  179.0970  147.1620 O   0  0  0  0  0  0  0  0  0  0  0  0
  185.8650  177.9280  147.9100 C   0  0  0  0  0  1  0  0  0  0  0  0
  192.3720  176.5480  143.3110 C   0  0  2  0  0  3  0  0  0  0  0  0
  193.3710  175.6120  142.9540 O   0  0  0  0  0  0  0  0  0  0  0  0
  193.9600  176.0070  141.7410 C   0  0  0  0  0  1  0  0  0  0  0  0
  192.6510  177.2080  144.5850 N   0  0  0  0  0  2  0  0  0  0  0  0
  193.4700  176.3040  145.3810 C   0  0  0  0  0  2  0  0  0  0  0  0
  192.9730  176.2600  146.8170 C   0  0  0  0  0  2  0  0  0  0  0  0
  191.9220  175.1790  146.9790 C   0  0  0  0  0  2  0  0  0  0  0  0
  190.6060  175.8120  147.3800 C   0  0  0  0  0  2  0  0  0  0  0  0
  188.1800  175.5550  146.8690 O   0  0  0  0  0  1  0  0  0  0  0  0
  189.7040  174.0400  146.0710 O   0  0  0  0  0  0  0  0  0  0  0  0
  189.4780  175.0780  146.7450 C   0  0  0  0  0  0  0  0  0  0  0  0
  1  4  2  0  0  0  0
  3  5  2  0  0  0  0
  4 17  1  0  0  0  0
  4  2  1  0  0  0  0
  5  2  1  0  0  0  0
  5  6  1  0  0  0  0
  6  7  2  0  0  0  0
  8 15  1  0  0  0  0
  9  8  2  0  0  0  0
 10  9  1  0  0  0  0
 11 10  2  0  0  0  0
 11 12  1  0  0  0  0
 12  7  1  1  0  0  0
 12  8  1  0  0  0  0
 13 11  1  0  0  0  0
 14 13  2  0  0  0  0
 14  6  1  0  0  0  0
 15 16  1  0  0  0  0
 17 18  1  1  0  0  0
 17 20  1  0  0  0  0
 19 18  1  0  0  0  0
 20 21  1  0  0  0  0
 21 22  1  0  0  0  0
 22 23  1  0  0  0  0
 23 24  1  0  0  0  0
 26 27  2  0  0  0  0
 27 25  1  0  0  0  0
 27 24  1  0  0  0  0
M  END
>  <MODEL>
2

>  <REMARK>
 VINA RESULT:      -6.6      5.901     10.530
  Name = 
  10 active torsions:
  status: ('A' for Active; 'I' for Inactive)
    1  A    between atoms: C_2  and  C_15
    2  A    between atoms: C_4  and  C_6
    3  A    between atoms: C_4  and  C_16
    4  A    between atoms: C_6  and  C_14
    5  A    between atoms: O_10  and  C_11
    6  A    between atoms: C_13  and  C_23
    7  A    between atoms: C_14  and  C_27
    8  A    between atoms: O_17  and  C_23
    9  A    between atoms: N_18  and  C_23
   10  A    between atoms: N_18  and  C_27
                            x       y       z     vdW  Elec       q    Type
                         _______ _______ _______ _____ _____    ______ ____

>  <TORSDO>
F 10

$$$$
=
 OpenBabel11062421093D

 27 28  0  0  1  0  0  0  0  0999 V2000
  191.8630  176.5610  147.1710 O   0  0  0  0  0  0  0  0  0  0  0  0
  189.8690  175.9810  146.0840 N   0  0  0  0  0  2  0  0  0  0  0  0
  189.5420  177.9090  147.3720 O   0  0  0  0  0  0  0  0  0  0  0  0
  191.2550  175.7860  146.3840 C   0  0  0  0  0  0  0  0  0  0  0  0
  189.0520  177.0450  146.5930 C   0  0  0  0  0  0  0  0  0  0  0  0
  187.6330  177.1320  146.2090 C   0  0  0  0  0  0  0  0  0  0  0  0
  187.2900  177.5020  144.9610 C   0  0  0  0  0  3  0  0  0  0  0  0
  185.4490  178.7080  143.7480 C   0  0  0  0  0  0  0  0  0  0  0  0
  184.5300  179.3890  144.3520 N   0  0  0  0  0  0  0  0  0  0  0  0
  184.2660  178.8040  145.5950 N   0  0  0  0  0  0  0  0  0  0  0  0
  184.9830  177.7390  145.7150 C   0  0  0  0  0  0  0  0  0  0  0  0
  185.8490  177.5050  144.5260 C   0  0  2  0  0  3  0  0  0  0  0  0
  185.3280  177.1920  146.9890 N   0  0  0  0  0  0  0  0  0  0  0  0
  186.5700  176.8810  147.2250 C   0  0  0  0  0  3  0  0  0  0  0  0
  185.9630  179.0410  142.4950 O   0  0  0  0  0  0  0  0  0  0  0  0
  185.8370  178.1740  141.3780 C   0  0  0  0  0  1  0  0  0  0  0  0
  191.9710  174.6140  145.7780 C   0  0  2  0  0  3  0  0  0  0  0  0
  193.0980  174.9910  145.0100 O   0  0  0  0  0  0  0  0  0  0  0  0
  194.2660  174.5690  145.6680 C   0  0  0  0  0  1  0  0  0  0  0  0
  191.0620  173.7320  145.0460 N   0  0  0  0  0  2  0  0  0  0  0  0
  191.3080  173.9270  143.6240 C   0  0  0  0  0  2  0  0  0  0  0  0
  189.9960  173.9690  142.8580 C   0  0  0  0  0  2  0  0  0  0  0  0
  189.5190  175.4000  142.7040 C   0  0  0  0  0  2  0  0  0  0  0  0
  190.7140  176.3290  142.6770 C   0  0  0  0  0  2  0  0  0  0  0  0
  190.8920  178.5370  143.8200 O   0  0  0  0  0  1  0  0  0  0  0  0
  189.3390  178.2050  142.1670 O   0  0  0  0  0  0  0  0  0  0  0  0
  190.2660  177.7340  142.8760 C   0  0  0  0  0  0  0  0  0  0  0  0
  2  4  1  0  0  0  0
  2  5  1  0  0  0  0
  4  1  2  0  0  0  0
  5  3  2  0  0  0  0
  6  5  1  0  0  0  0
  6 14  1  0  0  0  0
  7  6  2  0  0  0  0
  8  9  2  0  0  0  0
  8 12  1  0  0  0  0
  9 10  1  0  0  0  0
 10 11  2  0  0  0  0
 11 13  1  0  0  0  0
 12  7  1  1  0  0  0
 12 11  1  0  0  0  0
 13 14  2  0  0  0  0
 15  8  1  0  0  0  0
 16 15  1  0  0  0  0
 17 18  1  6  0  0  0
 17  4  1  0  0  0  0
 18 19  1  0  0  0  0
 20 17  1  0  0  0  0
 21 20  1  0  0  0  0
 22 21  1  0  0  0  0
 23 22  1  0  0  0  0
 24 23  1  0  0  0  0
 24 27  1  0  0  0  0
 26 27  2  0  0  0  0
 27 25  1  0  0  0  0
M  END
>  <MODEL>
3

>  <REMARK>
 VINA RESULT:      -6.4      5.214      9.848
  Name = 
  10 active torsions:
  status: ('A' for Active; 'I' for Inactive)
    1  A    between atoms: C_2  and  C_15
    2  A    between atoms: C_4  and  C_6
    3  A    between atoms: C_4  and  C_16
    4  A    between atoms: C_6  and  C_14
    5  A    between atoms: O_10  and  C_11
    6  A    between atoms: C_13  and  C_23
    7  A    between atoms: C_14  and  C_27
    8  A    between atoms: O_17  and  C_23
    9  A    between atoms: N_18  and  C_23
   10  A    between atoms: N_18  and  C_27
                            x       y       z     vdW  Elec       q    Type
                         _______ _______ _______ _____ _____    ______ ____

>  <TORSDO>
F 10

$$$$
=
 OpenBabel11062421093D

 27 28  0  0  1  0  0  0  0  0999 V2000
  191.0610  174.8640  147.0580 O   0  0  0  0  0  0  0  0  0  0  0  0
  189.7640  176.4740  145.9550 N   0  0  0  0  0  2  0  0  0  0  0  0
  188.4310  175.2730  147.4590 O   0  0  0  0  0  0  0  0  0  0  0  0
  191.0020  175.8090  146.2260 C   0  0  0  0  0  0  0  0  0  0  0  0
  188.5090  176.1800  146.5860 C   0  0  0  0  0  0  0  0  0  0  0  0
  187.3020  176.9380  146.2130 C   0  0  0  0  0  0  0  0  0  0  0  0
  186.7470  176.7750  144.9980 C   0  0  0  0  0  3  0  0  0  0  0  0
  185.4570  178.0790  143.2790 C   0  0  0  0  0  0  0  0  0  0  0  0
  185.3130  179.3630  143.3260 N   0  0  0  0  0  0  0  0  0  0  0  0
  185.2860  179.7740  144.6630 N   0  0  0  0  0  0  0  0  0  0  0  0
  185.3570  178.7340  145.4210 C   0  0  0  0  0  0  0  0  0  0  0  0
  185.4630  177.4710  144.6370 C   0  0  2  0  0  3  0  0  0  0  0  0
  185.8350  178.8010  146.7660 N   0  0  0  0  0  0  0  0  0  0  0  0
  186.7360  177.9450  147.1560 C   0  0  0  0  0  3  0  0  0  0  0  0
  185.5490  177.3520  142.0920 O   0  0  0  0  0  0  0  0  0  0  0  0
  185.6170  177.9910  140.8260 C   0  0  0  0  0  1  0  0  0  0  0  0
  192.2300  176.2270  145.4720 C   0  0  2  0  0  3  0  0  0  0  0  0
  193.3660  176.3780  146.3030 O   0  0  0  0  0  0  0  0  0  0  0  0
  194.4920  176.6330  145.5030 C   0  0  0  0  0  1  0  0  0  0  0  0
  191.9890  177.4000  144.6330 N   0  0  0  0  0  2  0  0  0  0  0  0
  191.4370  176.9330  143.3690 C   0  0  0  0  0  2  0  0  0  0  0  0
  190.4540  177.9490  142.8090 C   0  0  0  0  0  2  0  0  0  0  0  0
  189.1630  177.2680  142.4020 C   0  0  0  0  0  2  0  0  0  0  0  0
  189.3560  175.7660  142.4270 C   0  0  0  0  0  2  0  0  0  0  0  0
  188.0450  175.3990  140.3400 O   0  0  0  0  0  0  0  0  0  0  0  0
  187.5280  174.2510  142.2550 O   0  0  0  0  0  1  0  0  0  0  0  0
  188.2530  175.1020  141.6810 C   0  0  0  0  0  0  0  0  0  0  0  0
  2  4  1  0  0  0  0
  2  5  1  0  0  0  0
  4  1  2  0  0  0  0
  5  3  2  0  0  0  0
  6  5  1  0  0  0  0
  6 14  1  0  0  0  0
  7  6  2  0  0  0  0
  8  9  2  0  0  0  0
  8 12  1  0  0  0  0
  9 10  1  0  0  0  0
 10 11  2  0  0  0  0
 11 13  1  0  0  0  0
 12  7  1  1  0  0  0
 12 11  1  0  0  0  0
 13 14  2  0  0  0  0
 15  8  1  0  0  0  0
 16 15  1  0  0  0  0
 17 20  1  1  0  0  0
 17  4  1  0  0  0  0
 17 18  1  0  0  0  0
 19 18  1  0  0  0  0
 21 20  1  0  0  0  0
 22 21  1  0  0  0  0
 23 24  1  0  0  0  0
 23 22  1  0  0  0  0
 25 27  2  0  0  0  0
 27 26  1  0  0  0  0
 27 24  1  0  0  0  0
M  END
>  <MODEL>
4

>  <REMARK>
 VINA RESULT:      -6.4      5.184      9.570
  Name = 
  10 active torsions:
  status: ('A' for Active; 'I' for Inactive)
    1  A    between atoms: C_2  and  C_15
    2  A    between atoms: C_4  and  C_6
    3  A    between atoms: C_4  and  C_16
    4  A    between atoms: C_6  and  C_14
    5  A    between atoms: O_10  and  C_11
    6  A    between atoms: C_13  and  C_23
    7  A    between atoms: C_14  and  C_27
    8  A    between atoms: O_17  and  C_23
    9  A    between atoms: N_18  and  C_23
   10  A    between atoms: N_18  and  C_27
                            x       y       z     vdW  Elec       q    Type
                         _______ _______ _______ _____ _____    ______ ____

>  <TORSDO>
F 10

$$$$
=
 OpenBabel11062421093D

 27 28  0  0  1  0  0  0  0  0999 V2000
  189.6280  173.7740  141.9920 O   0  0  0  0  0  0  0  0  0  0  0  0
  188.5630  175.3220  143.3920 N   0  0  0  0  0  2  0  0  0  0  0  0
  187.9050  175.6740  141.1730 O   0  0  0  0  0  0  0  0  0  0  0  0
  189.4330  174.2100  143.1590 C   0  0  0  0  0  0  0  0  0  0  0  0
  187.8230  176.0230  142.3830 C   0  0  0  0  0  0  0  0  0  0  0  0
  186.9620  177.1580  142.7560 C   0  0  0  0  0  0  0  0  0  0  0  0
  187.0050  177.6620  144.0040 C   0  0  0  0  0  3  0  0  0  0  0  0
  185.5060  178.7770  145.6830 C   0  0  0  0  0  0  0  0  0  0  0  0
  184.2210  178.8410  145.5540 N   0  0  0  0  0  0  0  0  0  0  0  0
  183.8990  178.9080  144.1940 N   0  0  0  0  0  0  0  0  0  0  0  0
  184.9910  178.9430  143.5080 C   0  0  0  0  0  0  0  0  0  0  0  0
  186.2020  178.8790  144.3730 C   0  0  2  0  0  3  0  0  0  0  0  0
  185.0460  178.5290  142.1420 N   0  0  0  0  0  0  0  0  0  0  0  0
  185.9850  177.7060  141.7710 C   0  0  0  0  0  3  0  0  0  0  0  0
  186.1570  178.6730  146.9140 O   0  0  0  0  0  0  0  0  0  0  0  0
  186.1080  177.4830  147.6870 C   0  0  0  0  0  1  0  0  0  0  0  0
  190.1460  173.5890  144.3240 C   0  0  2  0  0  3  0  0  0  0  0  0
  190.4040  172.2090  144.1440 O   0  0  0  0  0  0  0  0  0  0  0  0
  191.7800  171.9730  144.2990 C   0  0  0  0  0  1  0  0  0  0  0  0
  189.4800  173.8750  145.5940 N   0  0  0  0  0  2  0  0  0  0  0  0
  190.2970  174.8420  146.3130 C   0  0  0  0  0  2  0  0  0  0  0  0
  189.4870  176.0880  146.6350 C   0  0  0  0  0  2  0  0  0  0  0  0
  190.1220  177.3100  146.0020 C   0  0  0  0  0  2  0  0  0  0  0  0
  191.3570  176.8930  145.2300 C   0  0  0  0  0  2  0  0  0  0  0  0
  192.0350  176.8270  142.8330 O   0  0  0  0  0  0  0  0  0  0  0  0
  190.5240  178.3840  143.5720 O   0  0  0  0  0  1  0  0  0  0  0  0
  191.2850  177.4200  143.8410 C   0  0  0  0  0  0  0  0  0  0  0  0
  1  4  2  0  0  0  0
  3  5  2  0  0  0  0
  4  2  1  0  0  0  0
  5  6  1  0  0  0  0
  5  2  1  0  0  0  0
  6  7  2  0  0  0  0
  8 15  1  0  0  0  0
  9  8  2  0  0  0  0
 10  9  1  0  0  0  0
 11 10  2  0  0  0  0
 11 12  1  0  0  0  0
 12  7  1  6  0  0  0
 12  8  1  0  0  0  0
 13 11  1  0  0  0  0
 14 13  2  0  0  0  0
 14  6  1  0  0  0  0
 15 16  1  0  0  0  0
 17  4  1  6  0  0  0
 17 20  1  0  0  0  0
 18 19  1  0  0  0  0
 18 17  1  0  0  0  0
 20 21  1  0  0  0  0
 21 22  1  0  0  0  0
 23 22  1  0  0  0  0
 24 23  1  0  0  0  0
 25 27  2  0  0  0  0
 26 27  1  0  0  0  0
 27 24  1  0  0  0  0
M  END
>  <MODEL>
5

>  <REMARK>
 VINA RESULT:      -6.4      5.778      9.423
  Name = 
  10 active torsions:
  status: ('A' for Active; 'I' for Inactive)
    1  A    between atoms: C_2  and  C_15
    2  A    between atoms: C_4  and  C_6
    3  A    between atoms: C_4  and  C_16
    4  A    between atoms: C_6  and  C_14
    5  A    between atoms: O_10  and  C_11
    6  A    between atoms: C_13  and  C_23
    7  A    between atoms: C_14  and  C_27
    8  A    between atoms: O_17  and  C_23
    9  A    between atoms: N_18  and  C_23
   10  A    between atoms: N_18  and  C_27
                            x       y       z     vdW  Elec       q    Type
                         _______ _______ _______ _____ _____    ______ ____

>  <TORSDO>
F 10

$$$$
=
 OpenBabel11062421093D

 27 28  0  0  1  0  0  0  0  0999 V2000
  189.5680  174.1530  140.6170 O   0  0  0  0  0  0  0  0  0  0  0  0
  188.7780  175.5640  142.3130 N   0  0  0  0  0  2  0  0  0  0  0  0
  187.5450  175.9090  140.3530 O   0  0  0  0  0  0  0  0  0  0  0  0
  189.6450  174.5410  141.8140 C   0  0  0  0  0  0  0  0  0  0  0  0
  187.7490  176.2200  141.5590 C   0  0  0  0  0  0  0  0  0  0  0  0
  186.9250  177.2640  142.1910 C   0  0  0  0  0  0  0  0  0  0  0  0
  187.1000  177.5730  143.4900 C   0  0  0  0  0  3  0  0  0  0  0  0
  185.7840  178.3840  145.4710 C   0  0  0  0  0  0  0  0  0  0  0  0
  184.4920  178.4350  145.4900 N   0  0  0  0  0  0  0  0  0  0  0  0
  184.0230  178.7000  144.1990 N   0  0  0  0  0  0  0  0  0  0  0  0
  185.0330  178.8650  143.4140 C   0  0  0  0  0  0  0  0  0  0  0  0
  186.3320  178.7000  144.1250 C   0  0  2  0  0  3  0  0  0  0  0  0
  184.9420  178.6650  142.0030 N   0  0  0  0  0  0  0  0  0  0  0  0
  185.8420  177.9300  141.4120 C   0  0  0  0  0  3  0  0  0  0  0  0
  186.5650  178.1100  146.5940 O   0  0  0  0  0  0  0  0  0  0  0  0
  186.1060  177.2640  147.6380 C   0  0  0  0  0  1  0  0  0  0  0  0
  190.6820  173.9580  142.7290 C   0  0  2  0  0  3  0  0  0  0  0  0
  190.1450  173.5020  143.9560 O   0  0  0  0  0  0  0  0  0  0  0  0
  189.6590  172.1940  143.7900 C   0  0  0  0  0  1  0  0  0  0  0  0
  191.8210  174.8560  142.9140 N   0  0  0  0  0  2  0  0  0  0  0  0
  191.8290  175.2780  144.3080 C   0  0  0  0  0  2  0  0  0  0  0  0
  191.9660  176.7890  144.4060 C   0  0  0  0  0  2  0  0  0  0  0  0
  190.6320  177.4190  144.7530 C   0  0  0  0  0  2  0  0  0  0  0  0
  189.8870  176.5210  145.7180 C   0  0  0  0  0  2  0  0  0  0  0  0
  191.1370  176.1490  147.8420 O   0  0  0  0  0  1  0  0  0  0  0  0
  189.6900  177.9150  147.6380 O   0  0  0  0  0  0  0  0  0  0  0  0
  190.2190  176.8990  147.1180 C   0  0  0  0  0  0  0  0  0  0  0  0
  1  4  2  0  0  0  0
  3  5  2  0  0  0  0
  4  2  1  0  0  0  0
  5  6  1  0  0  0  0
  5  2  1  0  0  0  0
  6  7  2  0  0  0  0
  8  9  2  0  0  0  0
  8 15  1  0  0  0  0
 10  9  1  0  0  0  0
 11 12  1  0  0  0  0
 11 10  2  0  0  0  0
 12  7  1  6  0  0  0
 12  8  1  0  0  0  0
 13 11  1  0  0  0  0
 14 13  2  0  0  0  0
 14  6  1  0  0  0  0
 15 16  1  0  0  0  0
 17  4  1  1  0  0  0
 17 20  1  0  0  0  0
 17 18  1  0  0  0  0
 19 18  1  0  0  0  0
 20 21  1  0  0  0  0
 21 22  1  0  0  0  0
 22 23  1  0  0  0  0
 23 24  1  0  0  0  0
 24 27  1  0  0  0  0
 27 26  2  0  0  0  0
 27 25  1  0  0  0  0
M  END
>  <MODEL>
6

>  <REMARK>
 VINA RESULT:      -6.3      5.657      9.614
  Name = 
  10 active torsions:
  status: ('A' for Active; 'I' for Inactive)
    1  A    between atoms: C_2  and  C_15
    2  A    between atoms: C_4  and  C_6
    3  A    between atoms: C_4  and  C_16
    4  A    between atoms: C_6  and  C_14
    5  A    between atoms: O_10  and  C_11
    6  A    between atoms: C_13  and  C_23
    7  A    between atoms: C_14  and  C_27
    8  A    between atoms: O_17  and  C_23
    9  A    between atoms: N_18  and  C_23
   10  A    between atoms: N_18  and  C_27
                            x       y       z     vdW  Elec       q    Type
                         _______ _______ _______ _____ _____    ______ ____

>  <TORSDO>
F 10

$$$$
=
 OpenBabel11062421093D

 27 28  0  0  1  0  0  0  0  0999 V2000
  190.3850  174.2230  142.5840 O   0  0  0  0  0  0  0  0  0  0  0  0
  188.9450  176.0450  142.8950 N   0  0  0  0  0  2  0  0  0  0  0  0
  188.4720  174.9960  140.8560 O   0  0  0  0  0  0  0  0  0  0  0  0
  190.0020  175.1770  143.3140 C   0  0  0  0  0  0  0  0  0  0  0  0
  188.2090  175.9250  141.6690 C   0  0  0  0  0  0  0  0  0  0  0  0
  187.1430  176.8900  141.3520 C   0  0  0  0  0  0  0  0  0  0  0  0
  186.4910  177.5300  142.3420 C   0  0  0  0  0  3  0  0  0  0  0  0
  184.2250  178.4900  142.8490 C   0  0  0  0  0  0  0  0  0  0  0  0
  183.1820  178.2690  142.1170 N   0  0  0  0  0  0  0  0  0  0  0  0
  183.5800  178.1130  140.7850 N   0  0  0  0  0  0  0  0  0  0  0  0
  184.8540  178.2970  140.7050 C   0  0  0  0  0  0  0  0  0  0  0  0
  185.4650  178.5860  142.0330 C   0  0  2  0  0  3  0  0  0  0  0  0
  185.6380  177.7520  139.6430 N   0  0  0  0  0  0  0  0  0  0  0  0
  186.7310  177.1060  139.9360 C   0  0  0  0  0  3  0  0  0  0  0  0
  184.1780  178.6640  144.2320 O   0  0  0  0  0  0  0  0  0  0  0  0
  184.7740  179.7860  144.8660 C   0  0  0  0  0  1  0  0  0  0  0  0
  190.6820  175.4420  144.6250 C   0  0  2  0  0  3  0  0  0  0  0  0
  192.0740  175.6590  144.4940 O   0  0  0  0  0  0  0  0  0  0  0  0
  192.3090  177.0260  144.2690 C   0  0  0  0  0  1  0  0  0  0  0  0
  190.3650  174.4230  145.6260 N   0  0  0  0  0  2  0  0  0  0  0  0
  189.9970  175.1130  146.8560 C   0  0  0  0  0  2  0  0  0  0  0  0
  188.5700  175.6280  146.7710 C   0  0  0  0  0  2  0  0  0  0  0  0
  188.5520  177.1440  146.8120 C   0  0  0  0  0  2  0  0  0  0  0  0
  187.3030  177.6510  146.1200 C   0  0  0  0  0  2  0  0  0  0  0  0
  185.1680  176.4270  146.5070 O   0  0  0  0  0  0  0  0  0  0  0  0
  185.9620  177.9020  148.0710 O   0  0  0  0  0  1  0  0  0  0  0  0
  186.1070  177.3470  146.9520 C   0  0  0  0  0  0  0  0  0  0  0  0
  1  4  2  0  0  0  0
  2  4  1  0  0  0  0
  3  5  2  0  0  0  0
  5  2  1  0  0  0  0
  6  5  1  0  0  0  0
  6  7  2  0  0  0  0
  8 15  1  0  0  0  0
  9  8  2  0  0  0  0
 10  9  1  0  0  0  0
 11 10  2  0  0  0  0
 11 12  1  0  0  0  0
 12  7  1  1  0  0  0
 12  8  1  0  0  0  0
 13 14  2  0  0  0  0
 13 11  1  0  0  0  0
 14  6  1  0  0  0  0
 15 16  1  0  0  0  0
 17  4  1  6  0  0  0
 17 20  1  0  0  0  0
 18 17  1  0  0  0  0
 19 18  1  0  0  0  0
 20 21  1  0  0  0  0
 22 23  1  0  0  0  0
 22 21  1  0  0  0  0
 24 23  1  0  0  0  0
 24 27  1  0  0  0  0
 25 27  2  0  0  0  0
 27 26  1  0  0  0  0
M  END
>  <MODEL>
7

>  <REMARK>
 VINA RESULT:      -6.3      4.932      9.513
  Name = 
  10 active torsions:
  status: ('A' for Active; 'I' for Inactive)
    1  A    between atoms: C_2  and  C_15
    2  A    between atoms: C_4  and  C_6
    3  A    between atoms: C_4  and  C_16
    4  A    between atoms: C_6  and  C_14
    5  A    between atoms: O_10  and  C_11
    6  A    between atoms: C_13  and  C_23
    7  A    between atoms: C_14  and  C_27
    8  A    between atoms: O_17  and  C_23
    9  A    between atoms: N_18  and  C_23
   10  A    between atoms: N_18  and  C_27
                            x       y       z     vdW  Elec       q    Type
                         _______ _______ _______ _____ _____    ______ ____

>  <TORSDO>
F 10

$$$$
=
 OpenBabel11062421093D

 27 28  0  0  1  0  0  0  0  0999 V2000
  191.2990  174.9600  142.0450 O   0  0  0  0  0  0  0  0  0  0  0  0
  189.0170  175.4950  142.0200 N   0  0  0  0  0  2  0  0  0  0  0  0
  190.2540  177.3220  142.8040 O   0  0  0  0  0  0  0  0  0  0  0  0
  190.1160  174.6090  141.7850 C   0  0  0  0  0  0  0  0  0  0  0  0
  189.1240  176.8330  142.5270 C   0  0  0  0  0  0  0  0  0  0  0  0
  187.9100  177.6430  142.7270 C   0  0  0  0  0  0  0  0  0  0  0  0
  187.5590  178.0450  143.9630 C   0  0  0  0  0  3  0  0  0  0  0  0
  185.5000  178.5580  145.3080 C   0  0  0  0  0  0  0  0  0  0  0  0
  184.3040  178.2600  144.9150 N   0  0  0  0  0  0  0  0  0  0  0  0
  184.2480  178.3320  143.5190 N   0  0  0  0  0  0  0  0  0  0  0  0
  185.3930  178.7280  143.0750 C   0  0  0  0  0  0  0  0  0  0  0  0
  186.3760  178.9510  144.1720 C   0  0  2  0  0  3  0  0  0  0  0  0
  185.8330  178.4490  141.7450 N   0  0  0  0  0  0  0  0  0  0  0  0
  187.0270  177.9580  141.5680 C   0  0  0  0  0  3  0  0  0  0  0  0
  185.8990  178.5540  146.6450 O   0  0  0  0  0  0  0  0  0  0  0  0
  185.9480  177.3580  147.4090 C   0  0  0  0  0  1  0  0  0  0  0  0
  189.8380  173.2310  141.2600 C   0  0  2  0  0  3  0  0  0  0  0  0
  188.4680  173.0080  140.9840 O   0  0  0  0  0  0  0  0  0  0  0  0
  188.3200  172.6590  139.6320 C   0  0  0  0  0  1  0  0  0  0  0  0
  190.4160  172.1900  142.1090 N   0  0  0  0  0  2  0  0  0  0  0  0
  189.5530  172.0400  143.2720 C   0  0  0  0  0  2  0  0  0  0  0  0
  190.3000  172.4150  144.5420 C   0  0  0  0  0  2  0  0  0  0  0  0
  189.5730  173.5250  145.2750 C   0  0  0  0  0  2  0  0  0  0  0  0
  190.5830  174.5040  145.8360 C   0  0  0  0  0  2  0  0  0  0  0  0
  188.8370  174.7380  147.5990 O   0  0  0  0  0  0  0  0  0  0  0  0
  190.9460  175.5690  147.9350 O   0  0  0  0  0  1  0  0  0  0  0  0
  190.1370  174.9770  147.1750 C   0  0  0  0  0  0  0  0  0  0  0  0
  2  5  1  0  0  0  0
  4  2  1  0  0  0  0
  4  1  2  0  0  0  0
  5  6  1  0  0  0  0
  5  3  2  0  0  0  0
  6  7  2  0  0  0  0
  8 15  1  0  0  0  0
  9  8  2  0  0  0  0
 10  9  1  0  0  0  0
 11 10  2  0  0  0  0
 11 12  1  0  0  0  0
 12  7  1  6  0  0  0
 12  8  1  0  0  0  0
 13 11  1  0  0  0  0
 14 13  2  0  0  0  0
 14  6  1  0  0  0  0
 15 16  1  0  0  0  0
 17 18  1  1  0  0  0
 17  4  1  0  0  0  0
 17 20  1  0  0  0  0
 19 18  1  0  0  0  0
 20 21  1  0  0  0  0
 21 22  1  0  0  0  0
 22 23  1  0  0  0  0
 23 24  1  0  0  0  0
 24 27  1  0  0  0  0
 27 25  2  0  0  0  0
 27 26  1  0  0  0  0
M  END
>  <MODEL>
8

>  <REMARK>
 VINA RESULT:      -6.2      5.957      9.964
  Name = 
  10 active torsions:
  status: ('A' for Active; 'I' for Inactive)
    1  A    between atoms: C_2  and  C_15
    2  A    between atoms: C_4  and  C_6
    3  A    between atoms: C_4  and  C_16
    4  A    between atoms: C_6  and  C_14
    5  A    between atoms: O_10  and  C_11
    6  A    between atoms: C_13  and  C_23
    7  A    between atoms: C_14  and  C_27
    8  A    between atoms: O_17  and  C_23
    9  A    between atoms: N_18  and  C_23
   10  A    between atoms: N_18  and  C_27
                            x       y       z     vdW  Elec       q    Type
                         _______ _______ _______ _____ _____    ______ ____

>  <TORSDO>
F 10

$$$$
=
 OpenBabel11062421093D

 27 28  0  0  1  0  0  0  0  0999 V2000
  189.7440  174.4320  141.7180 O   0  0  0  0  0  0  0  0  0  0  0  0
  188.6530  175.8560  143.2260 N   0  0  0  0  0  2  0  0  0  0  0  0
  187.7490  176.1240  141.0830 O   0  0  0  0  0  0  0  0  0  0  0  0
  189.6150  174.8470  142.9020 C   0  0  0  0  0  0  0  0  0  0  0  0
  187.7460  176.4670  142.2980 C   0  0  0  0  0  0  0  0  0  0  0  0
  186.8040  177.5000  142.7600 C   0  0  0  0  0  0  0  0  0  0  0  0
  186.8540  177.9450  144.0300 C   0  0  0  0  0  3  0  0  0  0  0  0
  185.3340  178.8390  145.8190 C   0  0  0  0  0  0  0  0  0  0  0  0
  184.0430  178.7930  145.7410 N   0  0  0  0  0  0  0  0  0  0  0  0
  183.6600  178.8950  144.3990 N   0  0  0  0  0  0  0  0  0  0  0  0
  184.7150  179.0610  143.6750 C   0  0  0  0  0  0  0  0  0  0  0  0
  185.9630  179.0660  144.4900 C   0  0  2  0  0  3  0  0  0  0  0  0
  184.7500  178.7200  142.2890 N   0  0  0  0  0  0  0  0  0  0  0  0
  185.7420  178.0030  141.8420 C   0  0  0  0  0  3  0  0  0  0  0  0
  186.0410  178.7360  147.0170 O   0  0  0  0  0  0  0  0  0  0  0  0
  186.1060  177.5190  147.7450 C   0  0  0  0  0  1  0  0  0  0  0  0
  190.5020  174.3140  143.9880 C   0  0  2  0  0  3  0  0  0  0  0  0
  189.7810  173.8320  145.1060 O   0  0  0  0  0  0  0  0  0  0  0  0
  189.6860  172.4330  145.0250 C   0  0  0  0  0  1  0  0  0  0  0  0
  191.5480  175.2650  144.3620 N   0  0  0  0  0  2  0  0  0  0  0  0
  191.2570  175.7320  145.7110 C   0  0  0  0  0  2  0  0  0  0  0  0
  192.4160  175.4170  146.6440 C   0  0  0  0  0  2  0  0  0  0  0  0
  193.6060  176.3020  146.3260 C   0  0  0  0  0  2  0  0  0  0  0  0
  194.8350  175.4400  146.1300 C   0  0  0  0  0  2  0  0  0  0  0  0
  196.4660  174.8960  144.3250 O   0  0  0  0  0  1  0  0  0  0  0  0
  194.8530  176.4900  143.9930 O   0  0  0  0  0  0  0  0  0  0  0  0
  195.3850  175.6500  144.7630 C   0  0  0  0  0  0  0  0  0  0  0  0
  1  4  2  0  0  0  0
  3  5  2  0  0  0  0
  4  2  1  0  0  0  0
  5  6  1  0  0  0  0
  5  2  1  0  0  0  0
  6  7  2  0  0  0  0
  8 15  1  0  0  0  0
  9  8  2  0  0  0  0
 10  9  1  0  0  0  0
 11 10  2  0  0  0  0
 11 12  1  0  0  0  0
 12  7  1  6  0  0  0
 12  8  1  0  0  0  0
 13 11  1  0  0  0  0
 14 13  2  0  0  0  0
 14  6  1  0  0  0  0
 15 16  1  0  0  0  0
 17  4  1  6  0  0  0
 17 20  1  0  0  0  0
 17 18  1  0  0  0  0
 19 18  1  0  0  0  0
 20 21  1  0  0  0  0
 21 22  1  0  0  0  0
 23 22  1  0  0  0  0
 24 23  1  0  0  0  0
 25 27  1  0  0  0  0
 26 27  2  0  0  0  0
 27 24  1  0  0  0  0
M  END
>  <MODEL>
9

>  <REMARK>
 VINA RESULT:      -6.2      5.639     10.697
  Name = 
  10 active torsions:
  status: ('A' for Active; 'I' for Inactive)
    1  A    between atoms: C_2  and  C_15
    2  A    between atoms: C_4  and  C_6
    3  A    between atoms: C_4  and  C_16
    4  A    between atoms: C_6  and  C_14
    5  A    between atoms: O_10  and  C_11
    6  A    between atoms: C_13  and  C_23
    7  A    between atoms: C_14  and  C_27
    8  A    between atoms: O_17  and  C_23
    9  A    between atoms: N_18  and  C_23
   10  A    between atoms: N_18  and  C_27
                            x       y       z     vdW  Elec       q    Type
                         _______ _______ _______ _____ _____    ______ ____

>  <TORSDO>
F 10

$$$$
