=
 OpenBabel11062423113D

 28 29  0  0  1  0  0  0  0  0999 V2000
  187.8470  175.9240  141.8880 N   0  0  0  0  0  2  0  0  0  0  0  0
  188.5950  174.0030  140.2400 S   0  0  0  0  0  0  0  0  0  0  0  0
  188.8980  175.0500  141.4530 C   0  0  0  0  0  0  0  0  0  0  0  0
  190.1830  175.0180  142.0820 N   0  0  0  0  0  2  0  0  0  0  0  0
  191.1710  174.0200  144.0490 C   0  0  0  0  0  3  0  0  0  0  0  0
  190.6890  173.8980  142.8110 C   0  0  0  0  0  3  0  0  0  0  0  0
  192.0630  175.7260  147.0970 C   0  0  2  0  0  3  0  0  0  0  0  0
  191.2710  175.3100  144.8130 C   0  0  1  0  0  3  0  0  0  0  0  0
  190.8920  175.1380  146.2920 C   0  0  2  0  0  3  0  0  0  0  0  0
  192.6210  175.8070  144.8330 N   0  0  0  0  0  0  0  0  0  0  0  0
  191.7050  176.8970  147.7690 O   0  0  0  0  0  1  0  0  0  0  0  0
  194.4150  176.5540  146.2780 C   0  0  0  0  0  1  0  0  0  0  0  0
  193.0400  176.0420  146.0180 C   0  0  0  0  0  0  0  0  0  0  0  0
  188.9320  174.6160  147.4080 C   0  0  0  0  0  1  0  0  0  0  0  0
  189.6030  175.6000  146.6620 O   0  0  0  0  0  0  0  0  0  0  0  0
  187.6850  177.3040  141.4500 C   0  0  0  0  0  2  0  0  0  0  0  0
  186.2780  177.7990  141.7680 C   0  0  2  0  0  3  0  0  0  0  0  0
  184.2460  177.8900  140.4860 O   0  0  0  0  0  1  0  0  0  0  0  0
  185.5770  178.3120  140.5150 C   0  0  0  0  0  2  0  0  0  0  0  0
  186.3310  178.8070  142.7350 O   0  0  0  0  0  0  0  0  0  0  0  0
  184.0420  178.7460  145.6830 C   0  0  0  0  0  2  0  0  0  0  0  0
  186.7300  177.8640  144.8910 C   0  0  0  0  0  2  0  0  0  0  0  0
  185.0550  178.2820  146.7340 C   0  0  1  0  0  3  0  0  0  0  0  0
  184.7450  179.3160  144.4530 C   0  0  0  0  0  2  0  0  0  0  0  0
  185.6880  178.2730  143.8550 C   0  0  1  0  0  3  0  0  0  0  0  0
  186.0460  177.2830  146.1280 C   0  0  0  0  0  2  0  0  0  0  0  0
  185.7360  179.3780  147.2720 O   0  0  0  0  0  0  0  0  0  0  0  0
  186.6340  178.8280  148.1860 C   0  0  0  0  0  1  0  0  0  0  0  0
  2  3  2  0  0  0  0
  3  1  1  0  0  0  0
  3  4  1  0  0  0  0
  4  6  1  0  0  0  0
  6  5  2  0  0  0  0
  7 11  1  6  0  0  0
  8  5  1  6  0  0  0
  8 10  1  0  0  0  0
  8  9  1  0  0  0  0
  9 15  1  6  0  0  0
  9  7  1  0  0  0  0
 10 13  2  0  0  0  0
 13 12  1  0  0  0  0
 13  7  1  0  0  0  0
 15 14  1  0  0  0  0
 16 17  1  0  0  0  0
 16  1  1  0  0  0  0
 17 19  1  6  0  0  0
 17 20  1  0  0  0  0
 18 19  1  0  0  0  0
 21 23  1  0  0  0  0
 22 26  1  0  0  0  0
 23 27  1  6  0  0  0
 24 21  1  0  0  0  0
 25 20  1  6  0  0  0
 25 24  1  0  0  0  0
 25 22  1  0  0  0  0
 26 23  1  0  0  0  0
 27 28  1  0  0  0  0
M  END
>  <MODEL>
1

>  <REMARK>
 VINA RESULT:      -6.1      0.000      0.000
  Name = 
  11 active torsions:
  status: ('A' for Active; 'I' for Inactive)
    1  A    between atoms: C_1  and  C_11
    2  A    between atoms: C_1  and  N_21
    3  A    between atoms: C_4  and  C_22
    4  A    between atoms: O_5  and  C_13
    5  A    between atoms: O_6  and  C_8
    6  A    between atoms: C_11  and  C_15
    7  A    between atoms: C_11  and  O_19
    8  A    between atoms: O_19  and  C_20
    9  A    between atoms: N_21  and  C_24
   10  A    between atoms: N_23  and  C_24
   11  A    between atoms: N_23  and  C_26
                            x       y       z     vdW  Elec       q    Type
                         _______ _______ _______ _____ _____    ______ ____

>  <TORSDO>
F 11

$$$$
=
 OpenBabel11062423113D

 28 29  0  0  1  0  0  0  0  0999 V2000
  188.7840  175.9800  142.2120 N   0  0  0  0  0  2  0  0  0  0  0  0
  189.9550  173.8470  141.1890 S   0  0  0  0  0  0  0  0  0  0  0  0
  190.0130  175.2890  141.9500 C   0  0  0  0  0  0  0  0  0  0  0  0
  191.2830  175.7850  142.3840 N   0  0  0  0  0  2  0  0  0  0  0  0
  191.6650  177.2140  144.2940 C   0  0  0  0  0  3  0  0  0  0  0  0
  191.4800  177.0680  142.9810 C   0  0  0  0  0  3  0  0  0  0  0  0
  191.0800  176.1180  147.6780 C   0  0  2  0  0  3  0  0  0  0  0  0
  191.6660  176.0940  145.2960 C   0  0  1  0  0  3  0  0  0  0  0  0
  192.1620  176.5530  146.6760 C   0  0  2  0  0  3  0  0  0  0  0  0
  190.3370  175.5960  145.5290 N   0  0  0  0  0  0  0  0  0  0  0  0
  191.5260  175.1020  148.5270 O   0  0  0  0  0  1  0  0  0  0  0  0
  188.6910  175.1200  147.2420 C   0  0  0  0  0  1  0  0  0  0  0  0
  190.0250  175.5890  146.7690 C   0  0  0  0  0  0  0  0  0  0  0  0
  193.9840  175.2510  146.0870 C   0  0  0  0  0  1  0  0  0  0  0  0
  193.4900  176.1860  147.0130 O   0  0  0  0  0  0  0  0  0  0  0  0
  187.5340  175.7430  141.5020 C   0  0  0  0  0  2  0  0  0  0  0  0
  186.5840  176.9210  141.6930 C   0  0  2  0  0  3  0  0  0  0  0  0
  186.6530  176.9450  139.2900 O   0  0  0  0  0  1  0  0  0  0  0  0
  186.4680  177.7480  140.4180 C   0  0  0  0  0  2  0  0  0  0  0  0
  187.0230  177.7240  142.7490 O   0  0  0  0  0  0  0  0  0  0  0  0
  184.4430  179.1630  145.0310 C   0  0  0  0  0  2  0  0  0  0  0  0
  186.4170  176.9890  144.9380 C   0  0  0  0  0  2  0  0  0  0  0  0
  184.8290  178.4010  146.3020 C   0  0  1  0  0  3  0  0  0  0  0  0
  185.5830  179.1560  144.0150 C   0  0  0  0  0  2  0  0  0  0  0  0
  185.9750  177.7200  143.6730 C   0  0  1  0  0  3  0  0  0  0  0  0
  185.2850  176.9780  145.9640 C   0  0  0  0  0  2  0  0  0  0  0  0
  185.8350  179.0840  146.9930 O   0  0  0  0  0  0  0  0  0  0  0  0
  186.1120  178.2860  148.1020 C   0  0  0  0  0  1  0  0  0  0  0  0
  2  3  2  0  0  0  0
  3  1  1  0  0  0  0
  3  4  1  0  0  0  0
  4  6  1  0  0  0  0
  6  5  2  0  0  0  0
  7 11  1  1  0  0  0
  8  5  1  6  0  0  0
  8 10  1  0  0  0  0
  8  9  1  0  0  0  0
  9 15  1  1  0  0  0
  9  7  1  0  0  0  0
 10 13  2  0  0  0  0
 13 12  1  0  0  0  0
 13  7  1  0  0  0  0
 14 15  1  0  0  0  0
 16 17  1  0  0  0  0
 16  1  1  0  0  0  0
 17 19  1  6  0  0  0
 17 20  1  0  0  0  0
 18 19  1  0  0  0  0
 21 23  1  0  0  0  0
 22 26  1  0  0  0  0
 23 27  1  6  0  0  0
 24 21  1  0  0  0  0
 25 20  1  6  0  0  0
 25 24  1  0  0  0  0
 25 22  1  0  0  0  0
 26 23  1  0  0  0  0
 27 28  1  0  0  0  0
M  END
>  <MODEL>
2

>  <REMARK>
 VINA RESULT:      -6.0      1.434      2.330
  Name = 
  11 active torsions:
  status: ('A' for Active; 'I' for Inactive)
    1  A    between atoms: C_1  and  C_11
    2  A    between atoms: C_1  and  N_21
    3  A    between atoms: C_4  and  C_22
    4  A    between atoms: O_5  and  C_13
    5  A    between atoms: O_6  and  C_8
    6  A    between atoms: C_11  and  C_15
    7  A    between atoms: C_11  and  O_19
    8  A    between atoms: O_19  and  C_20
    9  A    between atoms: N_21  and  C_24
   10  A    between atoms: N_23  and  C_24
   11  A    between atoms: N_23  and  C_26
                            x       y       z     vdW  Elec       q    Type
                         _______ _______ _______ _____ _____    ______ ____

>  <TORSDO>
F 11

$$$$
=
 OpenBabel11062423113D

 28 29  0  0  1  0  0  0  0  0999 V2000
  188.1280  175.0160  140.5470 N   0  0  0  0  0  2  0  0  0  0  0  0
  188.4210  172.9790  138.8940 S   0  0  0  0  0  0  0  0  0  0  0  0
  188.8450  173.8170  140.2280 C   0  0  0  0  0  0  0  0  0  0  0  0
  189.8790  173.2920  141.0680 N   0  0  0  0  0  2  0  0  0  0  0  0
  191.9500  174.2890  141.8140 C   0  0  0  0  0  3  0  0  0  0  0  0
  191.2670  173.5880  140.9060 C   0  0  0  0  0  3  0  0  0  0  0  0
  192.3660  176.4100  144.6980 C   0  0  2  0  0  3  0  0  0  0  0  0
  191.3690  174.8670  143.0730 C   0  0  1  0  0  3  0  0  0  0  0  0
  192.4070  174.9560  144.2030 C   0  0  2  0  0  3  0  0  0  0  0  0
  190.9240  176.2210  142.8740 N   0  0  0  0  0  0  0  0  0  0  0  0
  191.8460  176.5120  145.9910 O   0  0  0  0  0  1  0  0  0  0  0  0
  191.1110  178.4900  143.7030 C   0  0  0  0  0  1  0  0  0  0  0  0
  191.4260  177.0330  143.7250 C   0  0  0  0  0  0  0  0  0  0  0  0
  193.5760  173.3860  145.4390 C   0  0  0  0  0  1  0  0  0  0  0  0
  192.3150  173.9630  145.2110 O   0  0  0  0  0  0  0  0  0  0  0  0
  187.6950  175.3910  141.8870 C   0  0  0  0  0  2  0  0  0  0  0  0
  186.8330  176.6480  141.8340 C   0  0  2  0  0  3  0  0  0  0  0  0
  185.6740  177.7470  140.0370 O   0  0  0  0  0  1  0  0  0  0  0  0
  186.9330  177.3290  140.4740 C   0  0  0  0  0  2  0  0  0  0  0  0
  187.2150  177.5350  142.8450 O   0  0  0  0  0  0  0  0  0  0  0  0
  184.5150  179.1930  144.8170 C   0  0  0  0  0  2  0  0  0  0  0  0
  186.4510  176.9960  145.0420 C   0  0  0  0  0  2  0  0  0  0  0  0
  184.8030  178.5390  146.1720 C   0  0  1  0  0  3  0  0  0  0  0  0
  185.7200  179.0860  143.8850 C   0  0  0  0  0  2  0  0  0  0  0  0
  186.1070  177.6210  143.6930 C   0  0  1  0  0  3  0  0  0  0  0  0
  185.2540  177.0860  145.9870 C   0  0  0  0  0  2  0  0  0  0  0  0
  185.7730  179.2660  146.8690 O   0  0  0  0  0  0  0  0  0  0  0  0
  186.0010  178.5320  148.0330 C   0  0  0  0  0  1  0  0  0  0  0  0
  1 16  1  0  0  0  0
  2  3  2  0  0  0  0
  3  1  1  0  0  0  0
  3  4  1  0  0  0  0
  6  4  1  0  0  0  0
  6  5  2  0  0  0  0
  7 11  1  1  0  0  0
  8  5  1  6  0  0  0
  8  9  1  0  0  0  0
  9  7  1  0  0  0  0
  9 15  1  1  0  0  0
 10  8  1  0  0  0  0
 10 13  2  0  0  0  0
 12 13  1  0  0  0  0
 13  7  1  0  0  0  0
 15 14  1  0  0  0  0
 17 19  1  6  0  0  0
 17 16  1  0  0  0  0
 17 20  1  0  0  0  0
 18 19  1  0  0  0  0
 21 23  1  0  0  0  0
 22 26  1  0  0  0  0
 23 27  1  6  0  0  0
 24 21  1  0  0  0  0
 25 20  1  6  0  0  0
 25 24  1  0  0  0  0
 25 22  1  0  0  0  0
 26 23  1  0  0  0  0
 27 28  1  0  0  0  0
M  END
>  <MODEL>
3

>  <REMARK>
 VINA RESULT:      -5.8      1.746      2.211
  Name = 
  11 active torsions:
  status: ('A' for Active; 'I' for Inactive)
    1  A    between atoms: C_1  and  C_11
    2  A    between atoms: C_1  and  N_21
    3  A    between atoms: C_4  and  C_22
    4  A    between atoms: O_5  and  C_13
    5  A    between atoms: O_6  and  C_8
    6  A    between atoms: C_11  and  C_15
    7  A    between atoms: C_11  and  O_19
    8  A    between atoms: O_19  and  C_20
    9  A    between atoms: N_21  and  C_24
   10  A    between atoms: N_23  and  C_24
   11  A    between atoms: N_23  and  C_26
                            x       y       z     vdW  Elec       q    Type
                         _______ _______ _______ _____ _____    ______ ____

>  <TORSDO>
F 11

$$$$
=
 OpenBabel11062423113D

 28 29  0  0  1  0  0  0  0  0999 V2000
  188.4740  175.8970  141.3270 N   0  0  0  0  0  2  0  0  0  0  0  0
  188.3380  173.3670  142.0650 S   0  0  0  0  0  0  0  0  0  0  0  0
  189.0830  174.8190  142.0480 C   0  0  0  0  0  0  0  0  0  0  0  0
  190.2880  174.9800  142.8040 N   0  0  0  0  0  2  0  0  0  0  0  0
  192.5550  174.2900  143.2760 C   0  0  0  0  0  3  0  0  0  0  0  0
  191.3110  173.9870  142.8990 C   0  0  0  0  0  3  0  0  0  0  0  0
  194.7360  176.3820  145.2390 C   0  0  2  0  0  3  0  0  0  0  0  0
  193.0430  175.6700  143.6140 C   0  0  1  0  0  3  0  0  0  0  0  0
  193.3030  175.8400  145.1190 C   0  0  2  0  0  3  0  0  0  0  0  0
  194.3070  175.9490  142.9880 N   0  0  0  0  0  0  0  0  0  0  0  0
  194.7630  177.7000  145.7030 O   0  0  0  0  0  1  0  0  0  0  0  0
  196.5830  176.6720  143.3970 C   0  0  0  0  0  1  0  0  0  0  0  0
  195.1950  176.3360  143.8230 C   0  0  0  0  0  0  0  0  0  0  0  0
  191.5710  175.6720  146.6470 C   0  0  0  0  0  1  0  0  0  0  0  0
  192.3160  176.5540  145.8440 O   0  0  0  0  0  0  0  0  0  0  0  0
  188.2530  177.2330  141.8660 C   0  0  0  0  0  2  0  0  0  0  0  0
  186.7670  177.5760  141.8420 C   0  0  2  0  0  3  0  0  0  0  0  0
  184.8890  177.9350  140.3860 O   0  0  0  0  0  1  0  0  0  0  0  0
  186.2800  177.8200  140.4180 C   0  0  0  0  0  2  0  0  0  0  0  0
  186.5220  178.7020  142.6330 O   0  0  0  0  0  0  0  0  0  0  0  0
  183.9740  179.0140  145.3440 C   0  0  0  0  0  2  0  0  0  0  0  0
  186.3930  177.4830  144.6820 C   0  0  0  0  0  2  0  0  0  0  0  0
  184.6920  178.1830  146.4120 C   0  0  1  0  0  3  0  0  0  0  0  0
  184.9450  179.4750  144.2590 C   0  0  0  0  0  2  0  0  0  0  0  0
  185.6310  178.2690  143.6200 C   0  0  1  0  0  3  0  0  0  0  0  0
  185.4360  177.0060  145.7740 C   0  0  0  0  0  2  0  0  0  0  0  0
  185.5780  178.9850  147.1390 O   0  0  0  0  0  0  0  0  0  0  0  0
  186.1310  178.1310  148.0930 C   0  0  0  0  0  1  0  0  0  0  0  0
  1 16  1  0  0  0  0
  1  3  1  0  0  0  0
  3  2  2  0  0  0  0
  3  4  1  0  0  0  0
  4  6  1  0  0  0  0
  6  5  2  0  0  0  0
  7 11  1  6  0  0  0
  8  5  1  1  0  0  0
  8  9  1  0  0  0  0
  9  7  1  0  0  0  0
  9 15  1  6  0  0  0
 10  8  1  0  0  0  0
 10 13  2  0  0  0  0
 12 13  1  0  0  0  0
 13  7  1  0  0  0  0
 15 14  1  0  0  0  0
 17 19  1  6  0  0  0
 17 16  1  0  0  0  0
 17 20  1  0  0  0  0
 18 19  1  0  0  0  0
 21 23  1  0  0  0  0
 22 26  1  0  0  0  0
 23 27  1  6  0  0  0
 24 21  1  0  0  0  0
 25 20  1  6  0  0  0
 25 24  1  0  0  0  0
 25 22  1  0  0  0  0
 26 23  1  0  0  0  0
 27 28  1  0  0  0  0
M  END
>  <MODEL>
4

>  <REMARK>
 VINA RESULT:      -5.8      1.519      1.862
  Name = 
  11 active torsions:
  status: ('A' for Active; 'I' for Inactive)
    1  A    between atoms: C_1  and  C_11
    2  A    between atoms: C_1  and  N_21
    3  A    between atoms: C_4  and  C_22
    4  A    between atoms: O_5  and  C_13
    5  A    between atoms: O_6  and  C_8
    6  A    between atoms: C_11  and  C_15
    7  A    between atoms: C_11  and  O_19
    8  A    between atoms: O_19  and  C_20
    9  A    between atoms: N_21  and  C_24
   10  A    between atoms: N_23  and  C_24
   11  A    between atoms: N_23  and  C_26
                            x       y       z     vdW  Elec       q    Type
                         _______ _______ _______ _____ _____    ______ ____

>  <TORSDO>
F 11

$$$$
=
 OpenBabel11062423113D

 28 29  0  0  1  0  0  0  0  0999 V2000
  190.2590  177.1930  145.3710 N   0  0  0  0  0  2  0  0  0  0  0  0
  191.7010  176.4630  143.2850 S   0  0  0  0  0  0  0  0  0  0  0  0
  191.4240  176.5070  144.8920 C   0  0  0  0  0  0  0  0  0  0  0  0
  192.3200  175.8090  145.7620 N   0  0  0  0  0  2  0  0  0  0  0  0
  194.7120  175.9970  146.0430 C   0  0  0  0  0  3  0  0  0  0  0  0
  193.4780  176.3960  146.3560 C   0  0  0  0  0  3  0  0  0  0  0  0
  197.2140  173.9030  144.5100 C   0  0  2  0  0  3  0  0  0  0  0  0
  195.0430  174.8950  145.0770 C   0  0  1  0  0  3  0  0  0  0  0  0
  196.3540  175.1620  144.3200 C   0  0  2  0  0  3  0  0  0  0  0  0
  195.2590  173.6460  145.7580 N   0  0  0  0  0  0  0  0  0  0  0  0
  197.3790  173.1930  143.3190 O   0  0  0  0  0  1  0  0  0  0  0  0
  196.8200  171.8170  146.0540 C   0  0  0  0  0  1  0  0  0  0  0  0
  196.3820  173.1110  145.4590 C   0  0  0  0  0  0  0  0  0  0  0  0
  196.9150  176.8210  142.8050 C   0  0  0  0  0  1  0  0  0  0  0  0
  196.2180  175.6130  142.9820 O   0  0  0  0  0  0  0  0  0  0  0  0
  189.8160  177.2010  146.7600 C   0  0  0  0  0  2  0  0  0  0  0  0
  188.5610  176.3500  146.9210 C   0  0  2  0  0  3  0  0  0  0  0  0
  189.3470  174.1860  146.2300 O   0  0  0  0  0  1  0  0  0  0  0  0
  188.9100  174.9240  147.3320 C   0  0  0  0  0  2  0  0  0  0  0  0
  187.8310  176.3410  145.7280 O   0  0  0  0  0  0  0  0  0  0  0  0
  184.5390  178.0200  146.2540 C   0  0  0  0  0  2  0  0  0  0  0  0
  186.9180  178.2000  144.5400 C   0  0  0  0  0  2  0  0  0  0  0  0
  184.5240  178.8710  144.9800 C   0  0  1  0  0  3  0  0  0  0  0  0
  185.5320  176.8660  146.1350 C   0  0  0  0  0  2  0  0  0  0  0  0
  186.9310  177.4050  145.8420 C   0  0  1  0  0  3  0  0  0  0  0  0
  185.9350  179.3650  144.6420 C   0  0  0  0  0  2  0  0  0  0  0  0
  183.9940  178.1420  143.9120 O   0  0  0  0  0  0  0  0  0  0  0  0
  184.0420  179.0140  142.8250 C   0  0  0  0  0  1  0  0  0  0  0  0
  1 16  1  0  0  0  0
  2  3  2  0  0  0  0
  3  1  1  0  0  0  0
  3  4  1  0  0  0  0
  4  6  1  0  0  0  0
  5  6  2  0  0  0  0
  7 11  1  6  0  0  0
  7 13  1  0  0  0  0
  8 10  1  0  0  0  0
  8  5  1  1  0  0  0
  9 15  1  6  0  0  0
  9  7  1  0  0  0  0
  9  8  1  0  0  0  0
 13 10  2  0  0  0  0
 13 12  1  0  0  0  0
 14 15  1  0  0  0  0
 17 16  1  6  0  0  0
 17 19  1  0  0  0  0
 18 19  1  0  0  0  0
 20 17  1  0  0  0  0
 22 26  1  0  0  0  0
 22 25  1  0  0  0  0
 23 27  1  6  0  0  0
 23 21  1  0  0  0  0
 24 21  1  0  0  0  0
 25 20  1  6  0  0  0
 25 24  1  0  0  0  0
 26 23  1  0  0  0  0
 28 27  1  0  0  0  0
M  END
>  <MODEL>
5

>  <REMARK>
 VINA RESULT:      -5.7      3.190      5.323
  Name = 
  11 active torsions:
  status: ('A' for Active; 'I' for Inactive)
    1  A    between atoms: C_1  and  C_11
    2  A    between atoms: C_1  and  N_21
    3  A    between atoms: C_4  and  C_22
    4  A    between atoms: O_5  and  C_13
    5  A    between atoms: O_6  and  C_8
    6  A    between atoms: C_11  and  C_15
    7  A    between atoms: C_11  and  O_19
    8  A    between atoms: O_19  and  C_20
    9  A    between atoms: N_21  and  C_24
   10  A    between atoms: N_23  and  C_24
   11  A    between atoms: N_23  and  C_26
                            x       y       z     vdW  Elec       q    Type
                         _______ _______ _______ _____ _____    ______ ____

>  <TORSDO>
F 11

$$$$
=
 OpenBabel11062423113D

 28 29  0  0  1  0  0  0  0  0999 V2000
  189.9230  174.7830  142.4000 N   0  0  0  0  0  2  0  0  0  0  0  0
  188.7300  174.0400  140.1670 S   0  0  0  0  0  0  0  0  0  0  0  0
  188.8280  174.9810  141.4960 C   0  0  0  0  0  0  0  0  0  0  0  0
  187.8520  176.0110  141.6810 N   0  0  0  0  0  2  0  0  0  0  0  0
  187.8670  177.8920  143.1980 C   0  0  0  0  0  3  0  0  0  0  0  0
  188.1700  177.3640  142.0100 C   0  0  0  0  0  3  0  0  0  0  0  0
  186.5760  177.9390  146.5630 C   0  0  2  0  0  3  0  0  0  0  0  0
  187.1500  177.1720  144.3050 C   0  0  1  0  0  3  0  0  0  0  0  0
  187.7520  177.4840  145.6840 C   0  0  2  0  0  3  0  0  0  0  0  0
  185.7760  177.5870  144.4000 N   0  0  0  0  0  0  0  0  0  0  0  0
  186.2850  177.0170  147.5720 O   0  0  0  0  0  1  0  0  0  0  0  0
  184.0890  178.4590  145.9040 C   0  0  0  0  0  1  0  0  0  0  0  0
  185.4600  177.9750  145.5770 C   0  0  0  0  0  0  0  0  0  0  0  0
  189.7660  177.0480  146.7390 C   0  0  0  0  0  1  0  0  0  0  0  0
  188.5800  176.4790  146.2430 O   0  0  0  0  0  0  0  0  0  0  0  0
  189.7820  174.4030  143.8000 C   0  0  0  0  0  2  0  0  0  0  0  0
  190.9370  173.5010  144.2240 C   0  0  2  0  0  3  0  0  0  0  0  0
  189.2000  171.8960  143.7930 O   0  0  0  0  0  1  0  0  0  0  0  0
  190.5160  172.0360  144.2410 C   0  0  0  0  0  2  0  0  0  0  0  0
  191.4040  173.8820  145.4850 O   0  0  0  0  0  0  0  0  0  0  0  0
  194.6540  175.0450  144.0650 C   0  0  0  0  0  2  0  0  0  0  0  0
  193.1010  175.1760  146.5550 C   0  0  0  0  0  2  0  0  0  0  0  0
  195.3050  175.5160  145.3690 C   0  0  1  0  0  3  0  0  0  0  0  0
  193.4950  174.0900  144.3400 C   0  0  0  0  0  2  0  0  0  0  0  0
  192.4570  174.7660  145.2340 C   0  0  1  0  0  3  0  0  0  0  0  0
  194.2600  176.1390  146.3010 C   0  0  0  0  0  2  0  0  0  0  0  0
  195.9510  174.4520  146.0040 O   0  0  0  0  0  0  0  0  0  0  0  0
  197.0670  174.1870  145.2110 C   0  0  0  0  0  1  0  0  0  0  0  0
  1 16  1  0  0  0  0
  2  3  2  0  0  0  0
  3  4  1  0  0  0  0
  3  1  1  0  0  0  0
  4  6  1  0  0  0  0
  6  5  2  0  0  0  0
  7 11  1  1  0  0  0
  8  5  1  6  0  0  0
  8 10  1  0  0  0  0
  8  9  1  0  0  0  0
  9 15  1  1  0  0  0
  9  7  1  0  0  0  0
 10 13  2  0  0  0  0
 13 12  1  0  0  0  0
 13  7  1  0  0  0  0
 15 14  1  0  0  0  0
 17 16  1  1  0  0  0
 17 19  1  0  0  0  0
 17 20  1  0  0  0  0
 18 19  1  0  0  0  0
 21 24  1  0  0  0  0
 21 23  1  0  0  0  0
 23 27  1  1  0  0  0
 23 26  1  0  0  0  0
 24 25  1  0  0  0  0
 25 20  1  1  0  0  0
 25 22  1  0  0  0  0
 26 22  1  0  0  0  0
 28 27  1  0  0  0  0
M  END
>  <MODEL>
6

>  <REMARK>
 VINA RESULT:      -5.7      2.369      7.215
  Name = 
  11 active torsions:
  status: ('A' for Active; 'I' for Inactive)
    1  A    between atoms: C_1  and  C_11
    2  A    between atoms: C_1  and  N_21
    3  A    between atoms: C_4  and  C_22
    4  A    between atoms: O_5  and  C_13
    5  A    between atoms: O_6  and  C_8
    6  A    between atoms: C_11  and  C_15
    7  A    between atoms: C_11  and  O_19
    8  A    between atoms: O_19  and  C_20
    9  A    between atoms: N_21  and  C_24
   10  A    between atoms: N_23  and  C_24
   11  A    between atoms: N_23  and  C_26
                            x       y       z     vdW  Elec       q    Type
                         _______ _______ _______ _____ _____    ______ ____

>  <TORSDO>
F 11

$$$$
=
 OpenBabel11062423113D

 28 29  0  0  1  0  0  0  0  0999 V2000
  189.4650  176.5530  142.6290 N   0  0  0  0  0  2  0  0  0  0  0  0
  191.2140  178.0820  143.8820 S   0  0  0  0  0  0  0  0  0  0  0  0
  190.4490  176.6570  143.6660 C   0  0  0  0  0  0  0  0  0  0  0  0
  190.8330  175.5430  144.4790 N   0  0  0  0  0  2  0  0  0  0  0  0
  192.5560  175.2230  146.1420 C   0  0  0  0  0  3  0  0  0  0  0  0
  191.3400  175.6610  145.8090 C   0  0  0  0  0  3  0  0  0  0  0  0
  195.7240  173.5750  145.6520 C   0  0  2  0  0  3  0  0  0  0  0  0
  193.5150  174.5440  145.2060 C   0  0  1  0  0  3  0  0  0  0  0  0
  194.9770  174.9100  145.5090 C   0  0  2  0  0  3  0  0  0  0  0  0
  193.4580  173.1130  145.3400 N   0  0  0  0  0  0  0  0  0  0  0  0
  196.6290  173.3630  144.6090 O   0  0  0  0  0  1  0  0  0  0  0  0
  194.7840  171.1250  145.7400 C   0  0  0  0  0  1  0  0  0  0  0  0
  194.6070  172.5940  145.5590 C   0  0  0  0  0  0  0  0  0  0  0  0
  194.7640  176.0510  143.5050 C   0  0  0  0  0  1  0  0  0  0  0  0
  195.5750  175.8550  144.6360 O   0  0  0  0  0  0  0  0  0  0  0  0
  188.8010  177.6890  142.0010 C   0  0  0  0  0  2  0  0  0  0  0  0
  187.2870  177.5360  142.0930 C   0  0  2  0  0  3  0  0  0  0  0  0
  185.7600  178.2920  140.3970 O   0  0  0  0  0  1  0  0  0  0  0  0
  186.6730  177.2850  140.7210 C   0  0  0  0  0  2  0  0  0  0  0  0
  186.7240  178.6790  142.6700 O   0  0  0  0  0  0  0  0  0  0  0  0
  184.0660  178.8480  145.2850 C   0  0  0  0  0  2  0  0  0  0  0  0
  186.6460  177.5420  144.7680 C   0  0  0  0  0  2  0  0  0  0  0  0
  184.8250  178.1410  146.4120 C   0  0  1  0  0  3  0  0  0  0  0  0
  185.0230  179.3580  144.2100 C   0  0  0  0  0  2  0  0  0  0  0  0
  185.8470  178.2010  143.6480 C   0  0  1  0  0  3  0  0  0  0  0  0
  185.7040  177.0180  145.8510 C   0  0  0  0  0  2  0  0  0  0  0  0
  185.6020  179.0570  147.1270 O   0  0  0  0  0  0  0  0  0  0  0  0
  186.3180  178.2830  148.0390 C   0  0  0  0  0  1  0  0  0  0  0  0
  1  3  1  0  0  0  0
  3  2  2  0  0  0  0
  3  4  1  0  0  0  0
  4  6  1  0  0  0  0
  6  5  2  0  0  0  0
  7 11  1  6  0  0  0
  8 10  1  0  0  0  0
  8  9  1  0  0  0  0
  8  5  1  1  0  0  0
  9 15  1  6  0  0  0
  9  7  1  0  0  0  0
 10 13  2  0  0  0  0
 13  7  1  0  0  0  0
 13 12  1  0  0  0  0
 14 15  1  0  0  0  0
 16 17  1  0  0  0  0
 16  1  1  0  0  0  0
 17 19  1  6  0  0  0
 17 20  1  0  0  0  0
 18 19  1  0  0  0  0
 21 23  1  0  0  0  0
 22 26  1  0  0  0  0
 23 27  1  6  0  0  0
 24 21  1  0  0  0  0
 25 20  1  6  0  0  0
 25 24  1  0  0  0  0
 25 22  1  0  0  0  0
 26 23  1  0  0  0  0
 27 28  1  0  0  0  0
M  END
>  <MODEL>
7

>  <REMARK>
 VINA RESULT:      -5.6      2.687      3.381
  Name = 
  11 active torsions:
  status: ('A' for Active; 'I' for Inactive)
    1  A    between atoms: C_1  and  C_11
    2  A    between atoms: C_1  and  N_21
    3  A    between atoms: C_4  and  C_22
    4  A    between atoms: O_5  and  C_13
    5  A    between atoms: O_6  and  C_8
    6  A    between atoms: C_11  and  C_15
    7  A    between atoms: C_11  and  O_19
    8  A    between atoms: O_19  and  C_20
    9  A    between atoms: N_21  and  C_24
   10  A    between atoms: N_23  and  C_24
   11  A    between atoms: N_23  and  C_26
                            x       y       z     vdW  Elec       q    Type
                         _______ _______ _______ _____ _____    ______ ____

>  <TORSDO>
F 11

$$$$
=
 OpenBabel11062423113D

 28 29  0  0  1  0  0  0  0  0999 V2000
  189.1540  177.0390  147.0350 N   0  0  0  0  0  2  0  0  0  0  0  0
  191.5410  176.3440  147.9230 S   0  0  0  0  0  0  0  0  0  0  0  0
  190.4600  176.5410  146.7160 C   0  0  0  0  0  0  0  0  0  0  0  0
  190.8740  176.2670  145.3740 N   0  0  0  0  0  2  0  0  0  0  0  0
  192.4830  174.7990  144.3280 C   0  0  0  0  0  3  0  0  0  0  0  0
  191.2990  174.9830  144.9150 C   0  0  0  0  0  3  0  0  0  0  0  0
  195.8260  175.7110  143.3320 C   0  0  2  0  0  3  0  0  0  0  0  0
  193.4870  175.8830  144.0520 C   0  0  1  0  0  3  0  0  0  0  0  0
  194.8950  175.5060  144.5390 C   0  0  2  0  0  3  0  0  0  0  0  0
  193.6350  176.1160  142.6400 N   0  0  0  0  0  0  0  0  0  0  0  0
  196.7060  176.7790  143.5220 O   0  0  0  0  0  1  0  0  0  0  0  0
  195.2400  176.2440  140.8300 C   0  0  0  0  0  1  0  0  0  0  0  0
  194.8530  176.0440  142.2550 C   0  0  0  0  0  0  0  0  0  0  0  0
  194.5580  177.2670  146.0030 C   0  0  0  0  0  1  0  0  0  0  0  0
  195.3190  176.1120  145.7480 O   0  0  0  0  0  0  0  0  0  0  0  0
  187.9200  176.2780  146.8920 C   0  0  0  0  0  2  0  0  0  0  0  0
  186.7480  177.2140  146.6200 C   0  0  2  0  0  3  0  0  0  0  0  0
  184.8980  178.3650  147.6370 O   0  0  0  0  0  1  0  0  0  0  0  0
  185.9400  177.4690  147.8880 C   0  0  0  0  0  2  0  0  0  0  0  0
  185.9250  176.6770  145.6260 O   0  0  0  0  0  0  0  0  0  0  0  0
  185.9430  179.3930  143.0660 C   0  0  0  0  0  2  0  0  0  0  0  0
  185.9470  176.4610  143.2490 C   0  0  0  0  0  2  0  0  0  0  0  0
  185.6500  178.5310  141.8330 C   0  0  1  0  0  3  0  0  0  0  0  0
  185.5530  178.6680  144.3520 C   0  0  0  0  0  2  0  0  0  0  0  0
  186.2940  177.3360  144.4500 C   0  0  1  0  0  3  0  0  0  0  0  0
  186.3380  177.1670  141.9510 C   0  0  0  0  0  2  0  0  0  0  0  0
  184.2720  178.3700  141.6680 O   0  0  0  0  0  0  0  0  0  0  0  0
  184.1150  177.9860  140.3360 C   0  0  0  0  0  1  0  0  0  0  0  0
  3  1  1  0  0  0  0
  3  2  2  0  0  0  0
  4  3  1  0  0  0  0
  5  6  2  0  0  0  0
  6  4  1  0  0  0  0
  7 11  1  1  0  0  0
  7  9  1  0  0  0  0
  8  5  1  6  0  0  0
  8  9  1  0  0  0  0
  9 15  1  1  0  0  0
 10  8  1  0  0  0  0
 12 13  1  0  0  0  0
 13 10  2  0  0  0  0
 13  7  1  0  0  0  0
 15 14  1  0  0  0  0
 16  1  1  0  0  0  0
 17 16  1  1  0  0  0
 17 19  1  0  0  0  0
 18 19  1  0  0  0  0
 20 17  1  0  0  0  0
 21 24  1  0  0  0  0
 22 25  1  0  0  0  0
 23 27  1  1  0  0  0
 23 26  1  0  0  0  0
 23 21  1  0  0  0  0
 24 25  1  0  0  0  0
 25 20  1  1  0  0  0
 26 22  1  0  0  0  0
 28 27  1  0  0  0  0
M  END
>  <MODEL>
8

>  <REMARK>
 VINA RESULT:      -5.6      3.074      5.071
  Name = 
  11 active torsions:
  status: ('A' for Active; 'I' for Inactive)
    1  A    between atoms: C_1  and  C_11
    2  A    between atoms: C_1  and  N_21
    3  A    between atoms: C_4  and  C_22
    4  A    between atoms: O_5  and  C_13
    5  A    between atoms: O_6  and  C_8
    6  A    between atoms: C_11  and  C_15
    7  A    between atoms: C_11  and  O_19
    8  A    between atoms: O_19  and  C_20
    9  A    between atoms: N_21  and  C_24
   10  A    between atoms: N_23  and  C_24
   11  A    between atoms: N_23  and  C_26
                            x       y       z     vdW  Elec       q    Type
                         _______ _______ _______ _____ _____    ______ ____

>  <TORSDO>
F 11

$$$$
=
 OpenBabel11062423113D

 28 29  0  0  1  0  0  0  0  0999 V2000
  190.8780  173.6030  141.2600 N   0  0  0  0  0  2  0  0  0  0  0  0
  192.7460  171.8220  141.8110 S   0  0  0  0  0  0  0  0  0  0  0  0
  192.1550  173.3420  141.8570 C   0  0  0  0  0  0  0  0  0  0  0  0
  192.9040  174.3480  142.5460 N   0  0  0  0  0  2  0  0  0  0  0  0
  192.0750  176.2660  143.7590 C   0  0  0  0  0  3  0  0  0  0  0  0
  192.5170  175.7210  142.6240 C   0  0  0  0  0  3  0  0  0  0  0  0
  191.0540  176.3380  147.2150 C   0  0  2  0  0  3  0  0  0  0  0  0
  191.9030  175.5340  145.0590 C   0  0  1  0  0  3  0  0  0  0  0  0
  192.2640  176.4090  146.2690 C   0  0  2  0  0  3  0  0  0  0  0  0
  190.5320  175.1550  145.2730 N   0  0  0  0  0  0  0  0  0  0  0  0
  191.3470  175.6490  148.3940 O   0  0  0  0  0  1  0  0  0  0  0  0
  188.6810  175.2850  146.8300 C   0  0  0  0  0  1  0  0  0  0  0  0
  190.0820  175.5570  146.4010 C   0  0  0  0  0  0  0  0  0  0  0  0
  194.4670  177.1010  146.4330 C   0  0  0  0  0  1  0  0  0  0  0  0
  193.5240  176.1540  146.8680 O   0  0  0  0  0  0  0  0  0  0  0  0
  189.6180  173.6530  141.9890 C   0  0  0  0  0  2  0  0  0  0  0  0
  188.5760  174.4340  141.1960 C   0  0  2  0  0  3  0  0  0  0  0  0
  187.8150  174.9180  138.9670 O   0  0  0  0  0  1  0  0  0  0  0  0
  188.5910  174.0370  139.7240 C   0  0  0  0  0  2  0  0  0  0  0  0
  188.8060  175.8070  141.3250 O   0  0  0  0  0  0  0  0  0  0  0  0
  186.0640  176.6540  143.7120 C   0  0  0  0  0  2  0  0  0  0  0  0
  188.7840  177.5060  143.0020 C   0  0  0  0  0  2  0  0  0  0  0  0
  186.6290  177.9810  144.2290 C   0  0  1  0  0  3  0  0  0  0  0  0
  186.7090  176.2590  142.3860 C   0  0  0  0  0  2  0  0  0  0  0  0
  188.2250  176.1620  142.5460 C   0  0  1  0  0  3  0  0  0  0  0  0
  188.1560  177.9150  144.3340 C   0  0  0  0  0  2  0  0  0  0  0  0
  186.2420  179.0340  143.3950 O   0  0  0  0  0  0  0  0  0  0  0  0
  185.1960  179.6600  144.0720 C   0  0  0  0  0  1  0  0  0  0  0  0
  1  3  1  0  0  0  0
  1 16  1  0  0  0  0
  2  3  2  0  0  0  0
  3  4  1  0  0  0  0
  4  6  1  0  0  0  0
  6  5  2  0  0  0  0
  7 11  1  1  0  0  0
  8  5  1  6  0  0  0
  8 10  1  0  0  0  0
  8  9  1  0  0  0  0
  9 15  1  1  0  0  0
  9  7  1  0  0  0  0
 10 13  2  0  0  0  0
 13 12  1  0  0  0  0
 13  7  1  0  0  0  0
 14 15  1  0  0  0  0
 17 19  1  6  0  0  0
 17 20  1  0  0  0  0
 17 16  1  0  0  0  0
 18 19  1  0  0  0  0
 21 23  1  0  0  0  0
 22 26  1  0  0  0  0
 23 27  1  6  0  0  0
 23 26  1  0  0  0  0
 24 25  1  0  0  0  0
 24 21  1  0  0  0  0
 25 20  1  6  0  0  0
 25 22  1  0  0  0  0
 27 28  1  0  0  0  0
M  END
>  <MODEL>
9

>  <REMARK>
 VINA RESULT:      -5.5      2.294      3.729
  Name = 
  11 active torsions:
  status: ('A' for Active; 'I' for Inactive)
    1  A    between atoms: C_1  and  C_11
    2  A    between atoms: C_1  and  N_21
    3  A    between atoms: C_4  and  C_22
    4  A    between atoms: O_5  and  C_13
    5  A    between atoms: O_6  and  C_8
    6  A    between atoms: C_11  and  C_15
    7  A    between atoms: C_11  and  O_19
    8  A    between atoms: O_19  and  C_20
    9  A    between atoms: N_21  and  C_24
   10  A    between atoms: N_23  and  C_24
   11  A    between atoms: N_23  and  C_26
                            x       y       z     vdW  Elec       q    Type
                         _______ _______ _______ _____ _____    ______ ____

>  <TORSDO>
F 11

$$$$
