=
 OpenBabel11062419493D

 46 51  0  0  1  0  0  0  0  0999 V2000
  187.9070  177.1310  141.9130 C   0  0  1  0  0  3  0  0  0  0  0  0
  183.8610  178.0020  140.0720 O   0  0  0  0  0  0  0  0  0  0  0  0
  184.8160  178.1040  140.8880 C   0  0  0  0  0  0  0  0  0  0  0  0
  186.9310  178.2930  141.6920 C   0  0  2  0  0  3  0  0  0  0  0  0
  185.9240  178.4010  142.8560 C   0  0  2  0  0  3  0  0  0  0  0  0
  184.6470  178.2680  142.2440 O   0  0  0  0  0  0  0  0  0  0  0  0
  186.1400  178.1090  140.5190 O   0  0  0  0  0  0  0  0  0  0  0  0
  186.0210  179.6600  143.4520 O   0  0  0  0  0  0  0  0  0  0  0  0
  185.2970  179.5470  144.6400 C   0  0  0  0  0  2  0  0  0  0  0  0
  186.0770  178.8850  145.6240 O   0  0  0  0  0  0  0  0  0  0  0  0
  184.1640  177.8360  146.5690 O   0  0  0  0  0  0  0  0  0  0  0  0
  186.1680  177.7640  147.6190 O   0  0  0  0  0  0  0  0  0  0  0  0
  185.5010  178.1370  146.6330 N   0  0  0  0  0  0  0  0  0  0  0  0
  188.1160  176.3710  144.3230 C   0  0  0  0  0  3  0  0  0  0  0  0
  189.8750  177.2370  145.7530 C   0  0  0  0  0  0  0  0  0  0  0  0
  188.5860  177.1560  143.2570 C   0  0  0  0  0  0  0  0  0  0  0  0
  189.6950  177.9840  143.4530 C   0  0  0  0  0  3  0  0  0  0  0  0
  190.3350  178.0230  144.6960 C   0  0  0  0  0  3  0  0  0  0  0  0
  188.7600  176.4100  145.5620 C   0  0  0  0  0  3  0  0  0  0  0  0
  190.5650  177.2870  147.0090 N   0  0  0  0  0  2  0  0  0  0  0  0
  191.1520  175.1900  148.1670 C   0  0  0  0  0  1  0  0  0  0  0  0
  191.6660  176.4180  147.4260 C   0  0  1  0  0  3  0  0  0  0  0  0
  192.5590  176.0360  146.2810 C   0  0  0  0  0  0  0  0  0  0  0  0
  193.4670  176.8250  145.9120 O   0  0  0  0  0  1  0  0  0  0  0  0
  192.4050  174.8200  145.6230 O   0  0  0  0  0  0  0  0  0  0  0  0
  187.2290  175.8010  141.6380 C   0  0  0  0  0  2  0  0  0  0  0  0
  188.2730  174.7230  141.4020 C   0  0  0  0  0  2  0  0  0  0  0  0
  187.8890  173.4260  142.1130 C   0  0  0  0  0  2  0  0  0  0  0  0
  189.8690  172.2470  143.1280 C   0  0  0  0  0  0  0  0  0  0  0  0
  189.7000  172.4690  140.8000 O   0  0  0  0  0  0  0  0  0  0  0  0
  189.5220  172.0710  144.2850 O   0  0  0  0  0  0  0  0  0  0  0  0
  191.0460  172.5520  141.2200 C   0  0  2  0  0  0  0  0  0  0  0  0
  191.9970  173.2780  140.2620 C   0  0  2  0  0  3  0  0  0  0  0  0
  188.9320  172.3070  141.9730 C   0  0  2  0  0  3  0  0  0  0  0  0
  191.9760  171.7490  140.3400 C   0  0  0  0  0  2  0  0  0  0  0  0
  191.2630  172.3760  142.7090 C   0  0  0  0  0  2  0  0  0  0  0  0
  193.8820  174.6890  139.7620 O   0  0  0  0  0  0  0  0  0  0  0  0
  193.3680  173.8110  140.7230 C   0  0  1  0  0  3  0  0  0  0  0  0
  193.4770  175.2670  140.9860 C   0  0  1  0  0  3  0  0  0  0  0  0
  196.0320  175.6580  141.1090 C   0  0  0  0  0  2  0  0  0  0  0  0
  195.8600  175.1700  143.9700 C   0  0  0  0  0  0  0  0  0  0  0  0
  196.9150  176.1270  143.5130 C   0  0  0  0  0  2  0  0  0  0  0  0
  197.2500  175.8770  142.0340 C   0  0  0  0  0  2  0  0  0  0  0  0
  195.9200  174.6490  145.1150 O   0  0  0  0  0  0  0  0  0  0  0  0
  194.7620  174.8950  143.1000 N   0  0  0  0  0  2  0  0  0  0  0  0
  194.6870  175.6460  141.8470 C   0  0  2  0  0  3  0  0  0  0  0  0
  1 26  1  1  0  0  0
  1 16  1  0  0  0  0
  2  3  2  0  0  0  0
  3  6  1  0  0  0  0
  4  1  1  1  0  0  0
  4  5  1  0  0  0  0
  5  8  1  6  0  0  0
  6  5  1  0  0  0  0
  7  3  1  0  0  0  0
  7  4  1  0  0  0  0
  8  9  1  0  0  0  0
  9 10  1  0  0  0  0
 10 13  1  0  0  0  0
 11 13  2  0  0  0  0
 13 12  2  0  0  0  0
 14 19  1  0  0  0  0
 15 20  1  0  0  0  0
 16 17  1  0  0  0  0
 16 14  2  0  0  0  0
 17 18  2  0  0  0  0
 18 15  1  0  0  0  0
 19 15  2  0  0  0  0
 20 22  1  0  0  0  0
 22 21  1  6  0  0  0
 23 22  1  0  0  0  0
 24 23  1  0  0  0  0
 25 23  2  0  0  0  0
 27 26  1  0  0  0  0
 27 28  1  0  0  0  0
 29 31  2  0  0  0  0
 30 32  1  0  0  0  0
 30 34  1  0  0  0  0
 32 35  1  6  0  0  0
 32 36  1  0  0  0  0
 33 35  1  6  0  0  0
 33 38  1  0  0  0  0
 33 32  1  0  0  0  0
 34 28  1  1  0  0  0
 34 29  1  0  0  0  0
 36 29  1  0  0  0  0
 38 37  1  6  0  0  0
 38 39  1  0  0  0  0
 39 37  1  6  0  0  0
 39 46  1  0  0  0  0
 40 43  1  0  0  0  0
 41 44  2  0  0  0  0
 42 41  1  0  0  0  0
 43 42  1  0  0  0  0
 45 41  1  0  0  0  0
 46 40  1  6  0  0  0
 46 45  1  0  0  0  0
M  END
>  <MODEL>
1

>  <REMARK>
 VINA RESULT:      -7.1      0.000      0.000
  Name = 
  15 active torsions:
  status: ('A' for Active; 'I' for Inactive)
    1  A    between atoms: C_4  and  N_40
    2  A    between atoms: O_5  and  C_11
    3  A    between atoms: O_5  and  N_32
    4  A    between atoms: C_10  and  C_24
    5  A    between atoms: C_11  and  O_29
    6  A    between atoms: C_15  and  C_23
    7  A    between atoms: C_16  and  CA_44
    8  A    between atoms: C_19  and  C_23
    9  A    between atoms: C_22  and  C_46
   10  A    between atoms: C_23  and  C_27
   11  A    between atoms: C_27  and  C_28
   12  A    between atoms: C_28  and  C_39
   13  A    between atoms: O_29  and  C_33
   14  A    between atoms: C_31  and  C_39
   15  A    between atoms: N_40  and  CA_44
                            x       y       z     vdW  Elec       q    Type
                         _______ _______ _______ _____ _____    ______ ____

>  <TORSDO>
F 15

$$$$
=
 OpenBabel11062419493D

 46 51  0  0  1  0  0  0  0  0999 V2000
  191.6980  174.4380  143.8060 C   0  0  1  0  0  3  0  0  0  0  0  0
  190.9110  170.9890  140.9770 O   0  0  0  0  0  0  0  0  0  0  0  0
  190.7430  172.1170  141.5140 C   0  0  0  0  0  0  0  0  0  0  0  0
  191.2090  174.1640  142.3790 C   0  0  2  0  0  3  0  0  0  0  0  0
  189.6810  173.9510  142.3470 C   0  0  2  0  0  3  0  0  0  0  0  0
  189.5070  172.6510  141.7960 O   0  0  0  0  0  0  0  0  0  0  0  0
  191.7720  172.9670  141.8420 O   0  0  0  0  0  0  0  0  0  0  0  0
  189.0890  174.8930  141.5030 O   0  0  0  0  0  0  0  0  0  0  0  0
  187.8300  175.1250  142.0600 C   0  0  0  0  0  2  0  0  0  0  0  0
  187.7200  176.4810  142.4670 O   0  0  0  0  0  0  0  0  0  0  0  0
  188.9750  178.3900  141.8070 O   0  0  0  0  0  0  0  0  0  0  0  0
  187.1650  177.7220  140.6240 O   0  0  0  0  0  0  0  0  0  0  0  0
  187.9310  177.5270  141.5900 N   0  0  0  0  0  0  0  0  0  0  0  0
  190.6970  176.6840  144.4210 C   0  0  0  0  0  3  0  0  0  0  0  0
  189.0050  176.8620  146.1510 C   0  0  0  0  0  0  0  0  0  0  0  0
  190.7610  175.2950  144.6150 C   0  0  0  0  0  0  0  0  0  0  0  0
  189.9480  174.7010  145.5840 C   0  0  0  0  0  3  0  0  0  0  0  0
  189.0760  175.4820  146.3480 C   0  0  0  0  0  3  0  0  0  0  0  0
  189.8220  177.4610  145.1830 C   0  0  0  0  0  3  0  0  0  0  0  0
  188.0860  177.6320  146.9380 N   0  0  0  0  0  2  0  0  0  0  0  0
  186.0020  178.7550  147.6270 C   0  0  0  0  0  1  0  0  0  0  0  0
  186.6290  177.6320  146.8120 C   0  0  1  0  0  3  0  0  0  0  0  0
  186.1780  177.6730  145.3800 C   0  0  0  0  0  0  0  0  0  0  0  0
  185.5450  176.6980  144.9010 O   0  0  0  0  0  1  0  0  0  0  0  0
  186.4430  178.7760  144.5740 O   0  0  0  0  0  0  0  0  0  0  0  0
  192.0430  173.1390  144.5140 C   0  0  0  0  0  2  0  0  0  0  0  0
  193.5120  173.1320  144.9020 C   0  0  0  0  0  2  0  0  0  0  0  0
  193.8000  174.1890  145.9670 C   0  0  0  0  0  2  0  0  0  0  0  0
  194.7480  176.2550  144.8810 C   0  0  0  0  0  0  0  0  0  0  0  0
  196.0240  174.2900  144.9850 O   0  0  0  0  0  0  0  0  0  0  0  0
  193.9720  177.1310  145.2290 O   0  0  0  0  0  0  0  0  0  0  0  0
  196.2740  174.9940  143.7870 C   0  0  2  0  0  0  0  0  0  0  0  0
  196.8290  174.1580  142.6290 C   0  0  2  0  0  3  0  0  0  0  0  0
  195.0490  175.0370  145.6820 C   0  0  2  0  0  3  0  0  0  0  0  0
  197.7480  175.0620  143.4550 C   0  0  0  0  0  2  0  0  0  0  0  0
  195.5270  176.3040  143.6460 C   0  0  0  0  0  2  0  0  0  0  0  0
  197.4650  173.7550  140.3420 O   0  0  0  0  0  0  0  0  0  0  0  0
  196.7770  174.6510  141.1690 C   0  0  1  0  0  3  0  0  0  0  0  0
  196.0600  173.7980  140.1890 C   0  0  1  0  0  3  0  0  0  0  0  0
  194.1600  174.7860  138.7360 C   0  0  0  0  0  2  0  0  0  0  0  0
  195.9450  174.5770  136.4510 C   0  0  0  0  0  0  0  0  0  0  0  0
  194.9570  175.7010  136.4320 C   0  0  0  0  0  2  0  0  0  0  0  0
  193.7770  175.3810  137.3620 C   0  0  0  0  0  2  0  0  0  0  0  0
  196.5160  174.2090  135.3900 O   0  0  0  0  0  0  0  0  0  0  0  0
  196.2590  173.9630  137.7000 N   0  0  0  0  0  2  0  0  0  0  0  0
  195.6650  174.5380  138.9060 C   0  0  2  0  0  3  0  0  0  0  0  0
  1 26  1  1  0  0  0
  1 16  1  0  0  0  0
  2  3  2  0  0  0  0
  3  6  1  0  0  0  0
  3  7  1  0  0  0  0
  4  1  1  1  0  0  0
  5  8  1  6  0  0  0
  5  4  1  0  0  0  0
  6  5  1  0  0  0  0
  7  4  1  0  0  0  0
  8  9  1  0  0  0  0
  9 10  1  0  0  0  0
 12 13  2  0  0  0  0
 13 11  2  0  0  0  0
 13 10  1  0  0  0  0
 14 16  2  0  0  0  0
 14 19  1  0  0  0  0
 15 18  1  0  0  0  0
 15 20  1  0  0  0  0
 16 17  1  0  0  0  0
 17 18  2  0  0  0  0
 19 15  2  0  0  0  0
 22 20  1  0  0  0  0
 22 21  1  1  0  0  0
 23 22  1  0  0  0  0
 24 23  1  0  0  0  0
 25 23  2  0  0  0  0
 26 27  1  0  0  0  0
 27 28  1  0  0  0  0
 29 31  2  0  0  0  0
 29 34  1  0  0  0  0
 30 34  1  0  0  0  0
 32 35  1  1  0  0  0
 32 30  1  0  0  0  0
 33 35  1  1  0  0  0
 33 32  1  0  0  0  0
 34 28  1  6  0  0  0
 36 32  1  0  0  0  0
 36 29  1  0  0  0  0
 38 37  1  6  0  0  0
 38 33  1  0  0  0  0
 39 37  1  6  0  0  0
 39 38  1  0  0  0  0
 41 45  1  0  0  0  0
 42 41  1  0  0  0  0
 42 43  1  0  0  0  0
 43 40  1  0  0  0  0
 44 41  2  0  0  0  0
 45 46  1  0  0  0  0
 46 40  1  6  0  0  0
 46 39  1  0  0  0  0
M  END
>  <MODEL>
2

>  <REMARK>
 VINA RESULT:      -6.9      2.624      6.085
  Name = 
  15 active torsions:
  status: ('A' for Active; 'I' for Inactive)
    1  A    between atoms: C_4  and  N_40
    2  A    between atoms: O_5  and  C_11
    3  A    between atoms: O_5  and  N_32
    4  A    between atoms: C_10  and  C_24
    5  A    between atoms: C_11  and  O_29
    6  A    between atoms: C_15  and  C_23
    7  A    between atoms: C_16  and  CA_44
    8  A    between atoms: C_19  and  C_23
    9  A    between atoms: C_22  and  C_46
   10  A    between atoms: C_23  and  C_27
   11  A    between atoms: C_27  and  C_28
   12  A    between atoms: C_28  and  C_39
   13  A    between atoms: O_29  and  C_33
   14  A    between atoms: C_31  and  C_39
   15  A    between atoms: N_40  and  CA_44
                            x       y       z     vdW  Elec       q    Type
                         _______ _______ _______ _____ _____    ______ ____

>  <TORSDO>
F 15

$$$$
=
 OpenBabel11062419493D

 46 51  0  0  1  0  0  0  0  0999 V2000
  193.6010  174.1350  141.9010 C   0  0  1  0  0  3  0  0  0  0  0  0
  197.4310  171.9990  140.7680 O   0  0  0  0  0  0  0  0  0  0  0  0
  196.7020  172.9210  141.2240 C   0  0  0  0  0  0  0  0  0  0  0  0
  195.0500  173.9690  142.3750 C   0  0  2  0  0  3  0  0  0  0  0  0
  195.9720  175.0200  141.7210 C   0  0  2  0  0  3  0  0  0  0  0  0
  196.9570  174.2590  141.0330 O   0  0  0  0  0  0  0  0  0  0  0  0
  195.5910  172.7020  142.0030 O   0  0  0  0  0  0  0  0  0  0  0  0
  196.5900  175.7880  142.7100 O   0  0  0  0  0  0  0  0  0  0  0  0
  195.9480  175.4230  143.8940 C   0  0  0  0  0  2  0  0  0  0  0  0
  195.4360  176.5750  144.5470 O   0  0  0  0  0  0  0  0  0  0  0  0
  194.4760  175.2720  146.2880 O   0  0  0  0  0  0  0  0  0  0  0  0
  194.4770  177.5330  146.3920 O   0  0  0  0  0  0  0  0  0  0  0  0
  194.7980  176.5010  145.7690 N   0  0  0  0  0  0  0  0  0  0  0  0
  192.1020  174.1910  143.9450 C   0  0  0  0  0  3  0  0  0  0  0  0
  191.0800  176.2640  144.6840 C   0  0  0  0  0  0  0  0  0  0  0  0
  192.7220  174.8660  142.8810 C   0  0  0  0  0  0  0  0  0  0  0  0
  192.5060  176.2380  142.7230 C   0  0  0  0  0  3  0  0  0  0  0  0
  191.6880  176.9320  143.6200 C   0  0  0  0  0  3  0  0  0  0  0  0
  191.2890  174.8870  144.8420 C   0  0  0  0  0  3  0  0  0  0  0  0
  190.2620  177.0080  145.5960 N   0  0  0  0  0  2  0  0  0  0  0  0
  188.9520  175.3910  146.9200 C   0  0  0  0  0  1  0  0  0  0  0  0
  189.8820  176.5980  146.9480 C   0  0  1  0  0  3  0  0  0  0  0  0
  191.0740  176.3540  147.8290 C   0  0  0  0  0  0  0  0  0  0  0  0
  191.7390  177.3330  148.2560 O   0  0  0  0  0  1  0  0  0  0  0  0
  191.4530  175.0640  148.1860 O   0  0  0  0  0  0  0  0  0  0  0  0
  193.5570  174.7560  140.5160 C   0  0  0  0  0  2  0  0  0  0  0  0
  193.3600  173.6760  139.4670 C   0  0  0  0  0  2  0  0  0  0  0  0
  192.1590  173.9920  138.5770 C   0  0  0  0  0  2  0  0  0  0  0  0
  189.6710  173.7560  138.2670 C   0  0  0  0  0  0  0  0  0  0  0  0
  190.6400  173.3300  140.3590 O   0  0  0  0  0  0  0  0  0  0  0  0
  189.5410  173.7780  137.0530 O   0  0  0  0  0  0  0  0  0  0  0  0
  189.3640  173.9170  140.5020 C   0  0  2  0  0  0  0  0  0  0  0  0
  189.1080  174.6330  141.8330 C   0  0  2  0  0  3  0  0  0  0  0  0
  190.8780  173.2410  138.9700 C   0  0  2  0  0  3  0  0  0  0  0  0
  188.5330  173.2390  141.5670 C   0  0  0  0  0  2  0  0  0  0  0  0
  188.6360  174.1910  139.2020 C   0  0  0  0  0  2  0  0  0  0  0  0
  186.8670  175.0340  142.6150 O   0  0  0  0  0  0  0  0  0  0  0  0
  187.9640  175.6520  142.0030 C   0  0  1  0  0  3  0  0  0  0  0  0
  187.5590  175.9920  143.3900 C   0  0  1  0  0  3  0  0  0  0  0  0
  186.8170  177.9850  144.8640 C   0  0  0  0  0  2  0  0  0  0  0  0
  184.5690  178.3460  143.0560 C   0  0  0  0  0  0  0  0  0  0  0  0
  185.1120  179.5790  143.7080 C   0  0  0  0  0  2  0  0  0  0  0  0
  185.8760  179.2050  144.9880 C   0  0  0  0  0  2  0  0  0  0  0  0
  183.4210  178.3500  142.5360 O   0  0  0  0  0  0  0  0  0  0  0  0
  185.3940  177.1840  142.9960 N   0  0  0  0  0  2  0  0  0  0  0  0
  186.7650  177.2990  143.4930 C   0  0  2  0  0  3  0  0  0  0  0  0
  1 26  1  6  0  0  0
  1 16  1  0  0  0  0
  2  3  2  0  0  0  0
  3  7  1  0  0  0  0
  4  1  1  6  0  0  0
  5  4  1  0  0  0  0
  5  8  1  1  0  0  0
  6  3  1  0  0  0  0
  6  5  1  0  0  0  0
  7  4  1  0  0  0  0
  8  9  1  0  0  0  0
  9 10  1  0  0  0  0
 10 13  1  0  0  0  0
 13 11  2  0  0  0  0
 13 12  2  0  0  0  0
 14 19  1  0  0  0  0
 15 19  2  0  0  0  0
 15 20  1  0  0  0  0
 16 14  2  0  0  0  0
 17 16  1  0  0  0  0
 17 18  2  0  0  0  0
 18 15  1  0  0  0  0
 20 22  1  0  0  0  0
 22 21  1  6  0  0  0
 22 23  1  0  0  0  0
 23 25  2  0  0  0  0
 23 24  1  0  0  0  0
 27 26  1  0  0  0  0
 28 27  1  0  0  0  0
 29 34  1  0  0  0  0
 29 36  1  0  0  0  0
 30 32  1  0  0  0  0
 31 29  2  0  0  0  0
 32 36  1  6  0  0  0
 32 35  1  0  0  0  0
 32 33  1  0  0  0  0
 33 35  1  1  0  0  0
 33 38  1  0  0  0  0
 34 28  1  1  0  0  0
 34 30  1  0  0  0  0
 38 37  1  6  0  0  0
 38 39  1  0  0  0  0
 39 37  1  6  0  0  0
 39 46  1  0  0  0  0
 40 43  1  0  0  0  0
 41 42  1  0  0  0  0
 42 43  1  0  0  0  0
 44 41  2  0  0  0  0
 45 41  1  0  0  0  0
 45 46  1  0  0  0  0
 46 40  1  1  0  0  0
M  END
>  <MODEL>
3

>  <REMARK>
 VINA RESULT:      -6.9      2.264      7.968
  Name = 
  15 active torsions:
  status: ('A' for Active; 'I' for Inactive)
    1  A    between atoms: C_4  and  N_40
    2  A    between atoms: O_5  and  C_11
    3  A    between atoms: O_5  and  N_32
    4  A    between atoms: C_10  and  C_24
    5  A    between atoms: C_11  and  O_29
    6  A    between atoms: C_15  and  C_23
    7  A    between atoms: C_16  and  CA_44
    8  A    between atoms: C_19  and  C_23
    9  A    between atoms: C_22  and  C_46
   10  A    between atoms: C_23  and  C_27
   11  A    between atoms: C_27  and  C_28
   12  A    between atoms: C_28  and  C_39
   13  A    between atoms: O_29  and  C_33
   14  A    between atoms: C_31  and  C_39
   15  A    between atoms: N_40  and  CA_44
                            x       y       z     vdW  Elec       q    Type
                         _______ _______ _______ _____ _____    ______ ____

>  <TORSDO>
F 15

$$$$
=
 OpenBabel11062419493D

 46 51  0  0  1  0  0  0  0  0999 V2000
  188.7320  176.3210  142.0630 C   0  0  1  0  0  3  0  0  0  0  0  0
  184.9860  178.1160  140.2590 O   0  0  0  0  0  0  0  0  0  0  0  0
  185.8070  177.7970  141.1600 C   0  0  0  0  0  0  0  0  0  0  0  0
  187.7760  177.5040  142.2530 C   0  0  2  0  0  3  0  0  0  0  0  0
  186.6050  177.1270  143.1860 C   0  0  2  0  0  3  0  0  0  0  0  0
  185.4360  177.3440  142.4050 O   0  0  0  0  0  0  0  0  0  0  0  0
  187.1710  177.9030  141.0240 O   0  0  0  0  0  0  0  0  0  0  0  0
  186.5870  177.9800  144.2910 O   0  0  0  0  0  0  0  0  0  0  0  0
  186.7160  177.1330  145.3930 C   0  0  0  0  0  2  0  0  0  0  0  0
  185.5430  177.1910  146.1910 O   0  0  0  0  0  0  0  0  0  0  0  0
  183.7820  178.7660  145.9280 O   0  0  0  0  0  0  0  0  0  0  0  0
  185.4840  179.1540  147.3680 O   0  0  0  0  0  0  0  0  0  0  0  0
  184.9520  178.3900  146.5380 N   0  0  0  0  0  0  0  0  0  0  0  0
  189.6220  174.9080  143.9710 C   0  0  0  0  0  3  0  0  0  0  0  0
  191.4070  175.7250  145.3980 C   0  0  0  0  0  0  0  0  0  0  0  0
  189.6620  176.0990  143.2270 C   0  0  0  0  0  0  0  0  0  0  0  0
  190.5720  177.0980  143.5820 C   0  0  0  0  0  3  0  0  0  0  0  0
  191.4390  176.9110  144.6630 C   0  0  0  0  0  3  0  0  0  0  0  0
  190.4930  174.7230  145.0480 C   0  0  0  0  0  3  0  0  0  0  0  0
  192.3220  175.5580  146.4890 N   0  0  0  0  0  2  0  0  0  0  0  0
  193.9680  174.0130  145.4950 C   0  0  0  0  0  1  0  0  0  0  0  0
  193.7440  175.2320  146.3820 C   0  0  1  0  0  3  0  0  0  0  0  0
  194.5680  176.4020  145.9270 C   0  0  0  0  0  0  0  0  0  0  0  0
  195.2360  176.3140  144.8640 O   0  0  0  0  0  0  0  0  0  0  0  0
  194.6010  177.5860  146.6560 O   0  0  0  0  0  1  0  0  0  0  0  0
  187.9650  175.0630  141.6940 C   0  0  0  0  0  2  0  0  0  0  0  0
  188.5440  174.4520  140.4310 C   0  0  0  0  0  2  0  0  0  0  0  0
  188.7550  172.9480  140.5990 C   0  0  0  0  0  2  0  0  0  0  0  0
  190.3830  171.4430  139.4030 C   0  0  0  0  0  0  0  0  0  0  0  0
  189.2550  173.1280  138.2250 O   0  0  0  0  0  0  0  0  0  0  0  0
  190.5710  170.5450  140.2080 O   0  0  0  0  0  0  0  0  0  0  0  0
  190.5650  172.9510  137.7270 C   0  0  2  0  0  0  0  0  0  0  0  0
  191.1590  174.1510  136.9810 C   0  0  2  0  0  3  0  0  0  0  0  0
  189.1160  172.2190  139.2960 C   0  0  2  0  0  3  0  0  0  0  0  0
  190.6110  172.9430  136.2160 C   0  0  0  0  0  2  0  0  0  0  0  0
  191.3610  171.8510  138.3970 C   0  0  0  0  0  2  0  0  0  0  0  0
  192.9780  175.6070  136.3730 O   0  0  0  0  0  0  0  0  0  0  0  0
  192.6750  174.2880  136.7340 C   0  0  1  0  0  3  0  0  0  0  0  0
  193.4320  175.1850  137.6430 C   0  0  1  0  0  3  0  0  0  0  0  0
  195.6290  175.0500  139.0020 C   0  0  0  0  0  2  0  0  0  0  0  0
  197.0670  175.5270  136.5200 C   0  0  0  0  0  0  0  0  0  0  0  0
  197.7540  174.6770  137.5430 C   0  0  0  0  0  2  0  0  0  0  0  0
  197.1710  174.9550  138.9370 C   0  0  0  0  0  2  0  0  0  0  0  0
  197.7210  176.0540  135.5820 O   0  0  0  0  0  0  0  0  0  0  0  0
  195.6520  175.6880  136.6040 N   0  0  0  0  0  2  0  0  0  0  0  0
  194.9430  174.9310  137.6350 C   0  0  2  0  0  3  0  0  0  0  0  0
  1 26  1  1  0  0  0
  1 16  1  0  0  0  0
  2  3  2  0  0  0  0
  3  6  1  0  0  0  0
  4  1  1  6  0  0  0
  4  5  1  0  0  0  0
  5  8  1  1  0  0  0
  6  5  1  0  0  0  0
  7  3  1  0  0  0  0
  7  4  1  0  0  0  0
  8  9  1  0  0  0  0
  9 10  1  0  0  0  0
 10 13  1  0  0  0  0
 11 13  2  0  0  0  0
 13 12  2  0  0  0  0
 14 19  1  0  0  0  0
 15 20  1  0  0  0  0
 16 17  1  0  0  0  0
 16 14  2  0  0  0  0
 17 18  2  0  0  0  0
 18 15  1  0  0  0  0
 19 15  2  0  0  0  0
 22 21  1  6  0  0  0
 22 20  1  0  0  0  0
 23 22  1  0  0  0  0
 23 25  1  0  0  0  0
 24 23  2  0  0  0  0
 27 28  1  0  0  0  0
 27 26  1  0  0  0  0
 29 31  2  0  0  0  0
 30 34  1  0  0  0  0
 32 35  1  6  0  0  0
 32 30  1  0  0  0  0
 32 36  1  0  0  0  0
 33 35  1  6  0  0  0
 33 32  1  0  0  0  0
 34 29  1  0  0  0  0
 34 28  1  1  0  0  0
 36 29  1  0  0  0  0
 38 37  1  6  0  0  0
 38 33  1  0  0  0  0
 38 39  1  0  0  0  0
 39 37  1  6  0  0  0
 41 45  1  0  0  0  0
 41 42  1  0  0  0  0
 42 43  1  0  0  0  0
 43 40  1  0  0  0  0
 44 41  2  0  0  0  0
 45 46  1  0  0  0  0
 46 39  1  0  0  0  0
 46 40  1  1  0  0  0
M  END
>  <MODEL>
4

>  <REMARK>
 VINA RESULT:      -6.7      2.621      3.403
  Name = 
  15 active torsions:
  status: ('A' for Active; 'I' for Inactive)
    1  A    between atoms: C_4  and  N_40
    2  A    between atoms: O_5  and  C_11
    3  A    between atoms: O_5  and  N_32
    4  A    between atoms: C_10  and  C_24
    5  A    between atoms: C_11  and  O_29
    6  A    between atoms: C_15  and  C_23
    7  A    between atoms: C_16  and  CA_44
    8  A    between atoms: C_19  and  C_23
    9  A    between atoms: C_22  and  C_46
   10  A    between atoms: C_23  and  C_27
   11  A    between atoms: C_27  and  C_28
   12  A    between atoms: C_28  and  C_39
   13  A    between atoms: O_29  and  C_33
   14  A    between atoms: C_31  and  C_39
   15  A    between atoms: N_40  and  CA_44
                            x       y       z     vdW  Elec       q    Type
                         _______ _______ _______ _____ _____    ______ ____

>  <TORSDO>
F 15

$$$$
=
 OpenBabel11062419493D

 46 51  0  0  1  0  0  0  0  0999 V2000
  190.8380  173.0390  144.2320 C   0  0  1  0  0  3  0  0  0  0  0  0
  192.8930  170.1180  141.4470 O   0  0  0  0  0  0  0  0  0  0  0  0
  192.7530  170.8730  142.4460 C   0  0  0  0  0  0  0  0  0  0  0  0
  191.8210  171.8640  144.2650 C   0  0  2  0  0  3  0  0  0  0  0  0
  193.2760  172.3520  144.0990 C   0  0  2  0  0  3  0  0  0  0  0  0
  193.7540  171.6770  142.9420 O   0  0  0  0  0  0  0  0  0  0  0  0
  191.5990  170.9530  143.1890 O   0  0  0  0  0  0  0  0  0  0  0  0
  194.0340  171.9650  145.2050 O   0  0  0  0  0  0  0  0  0  0  0  0
  194.9570  172.9990  145.3800 C   0  0  0  0  0  2  0  0  0  0  0  0
  194.3730  174.2400  145.0110 O   0  0  0  0  0  0  0  0  0  0  0  0
  196.4570  175.3110  144.6130 O   0  0  0  0  0  0  0  0  0  0  0  0
  194.5490  176.0970  143.6840 O   0  0  0  0  0  0  0  0  0  0  0  0
  195.1040  175.2380  144.3990 N   0  0  0  0  0  0  0  0  0  0  0  0
  190.8310  173.8550  141.8320 C   0  0  0  0  0  3  0  0  0  0  0  0
  188.8710  173.5790  140.4280 C   0  0  0  0  0  0  0  0  0  0  0  0
  190.1640  173.2310  142.8990 C   0  0  0  0  0  0  0  0  0  0  0  0
  188.8490  172.7930  142.7220 C   0  0  0  0  0  3  0  0  0  0  0  0
  188.2070  172.9670  141.4930 C   0  0  0  0  0  3  0  0  0  0  0  0
  190.1880  174.0240  140.6040 C   0  0  0  0  0  3  0  0  0  0  0  0
  188.1900  173.7260  139.1750 N   0  0  0  0  0  2  0  0  0  0  0  0
  189.0430  174.2050  136.9110 C   0  0  0  0  0  1  0  0  0  0  0  0
  188.5920  173.1360  137.8990 C   0  0  1  0  0  3  0  0  0  0  0  0
  189.6330  172.0660  138.0640 C   0  0  0  0  0  0  0  0  0  0  0  0
  189.3100  170.9580  138.5640 O   0  0  0  0  0  1  0  0  0  0  0  0
  190.9500  172.2770  137.6690 O   0  0  0  0  0  0  0  0  0  0  0  0
  189.8380  172.9350  145.3700 C   0  0  0  0  0  2  0  0  0  0  0  0
  189.7360  174.2650  146.0970 C   0  0  0  0  0  2  0  0  0  0  0  0
  191.1220  174.8420  146.3780 C   0  0  0  0  0  2  0  0  0  0  0  0
  190.2230  177.1930  146.4580 C   0  0  0  0  0  0  0  0  0  0  0  0
  191.2890  176.4070  144.5230 O   0  0  0  0  0  0  0  0  0  0  0  0
  189.9930  177.3600  147.6460 O   0  0  0  0  0  0  0  0  0  0  0  0
  190.2330  177.2880  144.1980 C   0  0  2  0  0  0  0  0  0  0  0  0
  189.6540  177.1380  142.7870 C   0  0  2  0  0  3  0  0  0  0  0  0
  191.2930  176.3020  145.9300 C   0  0  2  0  0  3  0  0  0  0  0  0
  190.6190  178.2780  143.1230 C   0  0  0  0  0  2  0  0  0  0  0  0
  189.5090  177.8840  145.3870 C   0  0  0  0  0  2  0  0  0  0  0  0
  188.1480  177.7610  141.0150 O   0  0  0  0  0  0  0  0  0  0  0  0
  188.2730  177.7090  142.4090 C   0  0  1  0  0  3  0  0  0  0  0  0
  187.3420  176.8110  141.6820 C   0  0  1  0  0  3  0  0  0  0  0  0
  185.3830  178.0130  140.4940 C   0  0  0  0  0  2  0  0  0  0  0  0
  184.2070  178.4550  143.1170 C   0  0  0  0  0  0  0  0  0  0  0  0
  183.2570  178.2850  141.9730 C   0  0  0  0  0  2  0  0  0  0  0  0
  183.9630  178.6050  140.6470 C   0  0  0  0  0  2  0  0  0  0  0  0
  183.8210  178.9710  144.1990 O   0  0  0  0  0  0  0  0  0  0  0  0
  185.5450  177.9820  142.9700 N   0  0  0  0  0  2  0  0  0  0  0  0
  185.8800  177.2670  141.7390 C   0  0  2  0  0  3  0  0  0  0  0  0
  1 26  1  1  0  0  0
  2  3  2  0  0  0  0
  3  6  1  0  0  0  0
  3  7  1  0  0  0  0
  4  1  1  6  0  0  0
  5  4  1  0  0  0  0
  5  8  1  1  0  0  0
  6  5  1  0  0  0  0
  7  4  1  0  0  0  0
  8  9  1  0  0  0  0
 10  9  1  0  0  0  0
 12 13  2  0  0  0  0
 13 11  2  0  0  0  0
 13 10  1  0  0  0  0
 14 16  1  0  0  0  0
 15 19  1  0  0  0  0
 15 18  2  0  0  0  0
 16  1  1  0  0  0  0
 17 16  2  0  0  0  0
 18 17  1  0  0  0  0
 19 14  2  0  0  0  0
 20 15  1  0  0  0  0
 22 21  1  6  0  0  0
 22 23  1  0  0  0  0
 22 20  1  0  0  0  0
 23 24  1  0  0  0  0
 25 23  2  0  0  0  0
 26 27  1  0  0  0  0
 27 28  1  0  0  0  0
 29 31  2  0  0  0  0
 30 34  1  0  0  0  0
 32 35  1  6  0  0  0
 32 30  1  0  0  0  0
 32 36  1  0  0  0  0
 33 35  1  6  0  0  0
 33 32  1  0  0  0  0
 34 28  1  6  0  0  0
 34 29  1  0  0  0  0
 36 29  1  0  0  0  0
 38 37  1  6  0  0  0
 38 33  1  0  0  0  0
 39 37  1  6  0  0  0
 39 46  1  0  0  0  0
 39 38  1  0  0  0  0
 40 43  1  0  0  0  0
 41 44  2  0  0  0  0
 42 41  1  0  0  0  0
 43 42  1  0  0  0  0
 45 41  1  0  0  0  0
 46 40  1  6  0  0  0
 46 45  1  0  0  0  0
M  END
>  <MODEL>
5

>  <REMARK>
 VINA RESULT:      -6.6      2.613      8.909
  Name = 
  15 active torsions:
  status: ('A' for Active; 'I' for Inactive)
    1  A    between atoms: C_4  and  N_40
    2  A    between atoms: O_5  and  C_11
    3  A    between atoms: O_5  and  N_32
    4  A    between atoms: C_10  and  C_24
    5  A    between atoms: C_11  and  O_29
    6  A    between atoms: C_15  and  C_23
    7  A    between atoms: C_16  and  CA_44
    8  A    between atoms: C_19  and  C_23
    9  A    between atoms: C_22  and  C_46
   10  A    between atoms: C_23  and  C_27
   11  A    between atoms: C_27  and  C_28
   12  A    between atoms: C_28  and  C_39
   13  A    between atoms: O_29  and  C_33
   14  A    between atoms: C_31  and  C_39
   15  A    between atoms: N_40  and  CA_44
                            x       y       z     vdW  Elec       q    Type
                         _______ _______ _______ _____ _____    ______ ____

>  <TORSDO>
F 15

$$$$
=
 OpenBabel11062419493D

 46 51  0  0  1  0  0  0  0  0999 V2000
  189.4200  176.1810  145.3980 C   0  0  1  0  0  3  0  0  0  0  0  0
  191.4510  177.5990  149.1900 O   0  0  0  0  0  0  0  0  0  0  0  0
  191.2950  176.9350  148.1300 C   0  0  0  0  0  0  0  0  0  0  0  0
  190.8200  176.4430  145.9650 C   0  0  2  0  0  3  0  0  0  0  0  0
  191.3760  175.1870  146.6710 C   0  0  2  0  0  3  0  0  0  0  0  0
  191.6330  175.6070  148.0060 O   0  0  0  0  0  0  0  0  0  0  0  0
  190.8110  177.4660  146.9590 O   0  0  0  0  0  0  0  0  0  0  0  0
  192.5750  174.7980  146.0710 O   0  0  0  0  0  0  0  0  0  0  0  0
  192.8650  175.8210  145.1660 C   0  0  0  0  0  2  0  0  0  0  0  0
  194.2700  176.0160  145.0860 O   0  0  0  0  0  0  0  0  0  0  0  0
  196.3110  176.0590  143.8690 O   0  0  0  0  0  0  0  0  0  0  0  0
  194.3180  176.0300  142.7970 O   0  0  0  0  0  0  0  0  0  0  0  0
  194.9400  176.0210  143.8780 N   0  0  0  0  0  0  0  0  0  0  0  0
  189.2180  176.0200  142.8760 C   0  0  0  0  0  3  0  0  0  0  0  0
  189.4240  173.8830  141.7440 C   0  0  0  0  0  0  0  0  0  0  0  0
  189.4220  175.3920  144.1150 C   0  0  0  0  0  0  0  0  0  0  0  0
  189.6170  174.0090  144.1580 C   0  0  0  0  0  3  0  0  0  0  0  0
  189.6170  173.2590  142.9780 C   0  0  0  0  0  3  0  0  0  0  0  0
  189.2220  175.2690  141.6980 C   0  0  0  0  0  3  0  0  0  0  0  0
  189.4470  173.0880  140.5510 N   0  0  0  0  0  2  0  0  0  0  0  0
  191.8300  173.2930  139.9500 C   0  0  0  0  0  1  0  0  0  0  0  0
  190.3940  173.2190  139.4450 C   0  0  1  0  0  3  0  0  0  0  0  0
  190.2280  172.1370  138.4160 C   0  0  0  0  0  0  0  0  0  0  0  0
  189.4350  171.1870  138.6390 O   0  0  0  0  0  1  0  0  0  0  0  0
  190.9320  172.1710  137.2170 O   0  0  0  0  0  0  0  0  0  0  0  0
  188.5200  175.5610  146.4520 C   0  0  0  0  0  2  0  0  0  0  0  0
  187.4930  176.5760  146.9230 C   0  0  0  0  0  2  0  0  0  0  0  0
  186.3630  176.7210  145.9060 C   0  0  0  0  0  2  0  0  0  0  0  0
  185.8850  179.1010  145.2360 C   0  0  0  0  0  0  0  0  0  0  0  0
  186.1510  177.4480  143.5940 O   0  0  0  0  0  0  0  0  0  0  0  0
  186.0720  179.7220  146.2710 O   0  0  0  0  0  0  0  0  0  0  0  0
  185.1850  178.4020  143.2020 C   0  0  2  0  0  0  0  0  0  0  0  0
  184.1700  177.9270  142.1570 C   0  0  2  0  0  3  0  0  0  0  0  0
  186.5890  177.8390  144.8780 C   0  0  2  0  0  3  0  0  0  0  0  0
  185.3450  178.8240  141.7590 C   0  0  0  0  0  2  0  0  0  0  0  0
  184.9730  179.5380  144.1810 C   0  0  0  0  0  2  0  0  0  0  0  0
  182.5780  178.7460  140.5470 O   0  0  0  0  0  0  0  0  0  0  0  0
  182.8380  178.6660  141.9210 C   0  0  1  0  0  3  0  0  0  0  0  0
  181.7350  177.8940  141.2960 C   0  0  1  0  0  3  0  0  0  0  0  0
  179.2430  177.5420  141.8970 C   0  0  0  0  0  2  0  0  0  0  0  0
  178.6650  180.0210  140.4910 C   0  0  0  0  0  0  0  0  0  0  0  0
  177.7830  179.6850  141.6530 C   0  0  0  0  0  2  0  0  0  0  0  0
  177.8330  178.1750  141.9340 C   0  0  0  0  0  2  0  0  0  0  0  0
  178.3020  180.8720  139.6370 O   0  0  0  0  0  0  0  0  0  0  0  0
  179.9420  179.3920  140.3980 N   0  0  0  0  0  2  0  0  0  0  0  0
  180.3530  178.5250  141.5020 C   0  0  2  0  0  3  0  0  0  0  0  0
  1 26  1  1  0  0  0
  3  2  2  0  0  0  0
  4  1  1  1  0  0  0
  4  5  1  0  0  0  0
  4  7  1  0  0  0  0
  5  8  1  6  0  0  0
  5  6  1  0  0  0  0
  6  3  1  0  0  0  0
  7  3  1  0  0  0  0
  9  8  1  0  0  0  0
 10  9  1  0  0  0  0
 11 13  2  0  0  0  0
 12 13  2  0  0  0  0
 13 10  1  0  0  0  0
 14 16  1  0  0  0  0
 15 18  2  0  0  0  0
 16 17  2  0  0  0  0
 16  1  1  0  0  0  0
 18 17  1  0  0  0  0
 19 15  1  0  0  0  0
 19 14  2  0  0  0  0
 20 15  1  0  0  0  0
 22 21  1  1  0  0  0
 22 20  1  0  0  0  0
 23 24  1  0  0  0  0
 23 22  1  0  0  0  0
 25 23  2  0  0  0  0
 26 27  1  0  0  0  0
 28 27  1  0  0  0  0
 29 31  2  0  0  0  0
 30 34  1  0  0  0  0
 32 35  1  6  0  0  0
 32 30  1  0  0  0  0
 32 36  1  0  0  0  0
 33 35  1  6  0  0  0
 33 32  1  0  0  0  0
 34 29  1  0  0  0  0
 34 28  1  1  0  0  0
 36 29  1  0  0  0  0
 38 37  1  6  0  0  0
 38 33  1  0  0  0  0
 39 37  1  6  0  0  0
 39 46  1  0  0  0  0
 39 38  1  0  0  0  0
 40 43  1  0  0  0  0
 41 42  1  0  0  0  0
 42 43  1  0  0  0  0
 44 41  2  0  0  0  0
 45 41  1  0  0  0  0
 45 46  1  0  0  0  0
 46 40  1  6  0  0  0
M  END
>  <MODEL>
6

>  <REMARK>
 VINA RESULT:      -6.6      3.261     10.371
  Name = 
  15 active torsions:
  status: ('A' for Active; 'I' for Inactive)
    1  A    between atoms: C_4  and  N_40
    2  A    between atoms: O_5  and  C_11
    3  A    between atoms: O_5  and  N_32
    4  A    between atoms: C_10  and  C_24
    5  A    between atoms: C_11  and  O_29
    6  A    between atoms: C_15  and  C_23
    7  A    between atoms: C_16  and  CA_44
    8  A    between atoms: C_19  and  C_23
    9  A    between atoms: C_22  and  C_46
   10  A    between atoms: C_23  and  C_27
   11  A    between atoms: C_27  and  C_28
   12  A    between atoms: C_28  and  C_39
   13  A    between atoms: O_29  and  C_33
   14  A    between atoms: C_31  and  C_39
   15  A    between atoms: N_40  and  CA_44
                            x       y       z     vdW  Elec       q    Type
                         _______ _______ _______ _____ _____    ______ ____

>  <TORSDO>
F 15

$$$$
=
 OpenBabel11062419493D

 46 51  0  0  1  0  0  0  0  0999 V2000
  191.4870  175.4860  142.7330 C   0  0  1  0  0  3  0  0  0  0  0  0
  194.4300  177.4180  145.5830 O   0  0  0  0  0  0  0  0  0  0  0  0
  193.9690  177.0120  144.4820 C   0  0  0  0  0  0  0  0  0  0  0  0
  192.5090  176.6270  142.7860 C   0  0  2  0  0  3  0  0  0  0  0  0
  193.9140  176.1330  142.3810 C   0  0  2  0  0  3  0  0  0  0  0  0
  194.7360  176.4180  143.5060 O   0  0  0  0  0  0  0  0  0  0  0  0
  192.6550  177.1520  144.1050 O   0  0  0  0  0  0  0  0  0  0  0  0
  194.3710  176.8580  141.2790 O   0  0  0  0  0  0  0  0  0  0  0  0
  195.6490  176.3540  141.0300 C   0  0  0  0  0  2  0  0  0  0  0  0
  195.5720  174.9760  140.6920 O   0  0  0  0  0  0  0  0  0  0  0  0
  196.5640  175.2900  138.5550 O   0  0  0  0  0  0  0  0  0  0  0  0
  195.3310  173.4470  139.0060 O   0  0  0  0  0  0  0  0  0  0  0  0
  195.8140  174.5230  139.4100 N   0  0  0  0  0  0  0  0  0  0  0  0
  189.7430  177.3160  142.5290 C   0  0  0  0  0  3  0  0  0  0  0  0
  187.4110  176.7750  142.1350 C   0  0  0  0  0  0  0  0  0  0  0  0
  190.0690  175.9500  142.5230 C   0  0  0  0  0  0  0  0  0  0  0  0
  189.0570  175.0050  142.3290 C   0  0  0  0  0  3  0  0  0  0  0  0
  187.7350  175.4180  142.1380 C   0  0  0  0  0  3  0  0  0  0  0  0
  188.4220  177.7240  142.3330 C   0  0  0  0  0  3  0  0  0  0  0  0
  186.0480  177.1650  141.9170 N   0  0  0  0  0  2  0  0  0  0  0  0
  186.0790  177.5400  139.4800 C   0  0  0  0  0  1  0  0  0  0  0  0
  185.5550  178.0110  140.8310 C   0  0  1  0  0  3  0  0  0  0  0  0
  184.0580  178.1280  140.8290 C   0  0  0  0  0  0  0  0  0  0  0  0
  183.4770  178.6670  141.8060 O   0  0  0  0  0  1  0  0  0  0  0  0
  183.3000  177.6550  139.7620 O   0  0  0  0  0  0  0  0  0  0  0  0
  191.9040  174.4380  141.7170 C   0  0  0  0  0  2  0  0  0  0  0  0
  192.1750  173.1160  142.4140 C   0  0  0  0  0  2  0  0  0  0  0  0
  192.9880  173.3270  143.6890 C   0  0  0  0  0  2  0  0  0  0  0  0
  190.8590  172.4640  144.7220 C   0  0  0  0  0  0  0  0  0  0  0  0
  192.0460  174.2040  145.7540 O   0  0  0  0  0  0  0  0  0  0  0  0
  190.6570  171.4260  144.1120 O   0  0  0  0  0  0  0  0  0  0  0  0
  190.6530  174.3710  145.9220 C   0  0  2  0  0  0  0  0  0  0  0  0
  190.1860  175.8020  146.2080 C   0  0  2  0  0  3  0  0  0  0  0  0
  192.2100  173.0340  144.9810 C   0  0  2  0  0  3  0  0  0  0  0  0
  190.2860  174.7680  147.3340 C   0  0  0  0  0  2  0  0  0  0  0  0
  189.8010  173.2700  145.3260 C   0  0  0  0  0  2  0  0  0  0  0  0
  187.9240  175.6660  147.0200 O   0  0  0  0  0  0  0  0  0  0  0  0
  188.7190  176.2340  146.0170 C   0  0  1  0  0  3  0  0  0  0  0  0
  188.1110  177.0650  147.0860 C   0  0  1  0  0  3  0  0  0  0  0  0
  185.5460  177.0170  146.7530 C   0  0  0  0  0  2  0  0  0  0  0  0
  185.8650  179.1590  144.8130 C   0  0  0  0  0  0  0  0  0  0  0  0
  184.5890  179.1440  145.5950 C   0  0  0  0  0  2  0  0  0  0  0  0
  184.3210  177.7330  146.1400 C   0  0  0  0  0  2  0  0  0  0  0  0
  185.9550  179.8230  143.7470 O   0  0  0  0  0  0  0  0  0  0  0  0
  186.9890  178.4430  145.3240 N   0  0  0  0  0  2  0  0  0  0  0  0
  186.8510  177.8140  146.6380 C   0  0  2  0  0  3  0  0  0  0  0  0
  1 26  1  6  0  0  0
  3  2  2  0  0  0  0
  4  1  1  1  0  0  0
  4  7  1  0  0  0  0
  5  8  1  6  0  0  0
  5  4  1  0  0  0  0
  5  6  1  0  0  0  0
  6  3  1  0  0  0  0
  7  3  1  0  0  0  0
  9  8  1  0  0  0  0
 10  9  1  0  0  0  0
 11 13  2  0  0  0  0
 12 13  2  0  0  0  0
 13 10  1  0  0  0  0
 15 18  2  0  0  0  0
 15 19  1  0  0  0  0
 16 14  1  0  0  0  0
 16  1  1  0  0  0  0
 17 16  2  0  0  0  0
 18 17  1  0  0  0  0
 19 14  2  0  0  0  0
 20 15  1  0  0  0  0
 22 21  1  6  0  0  0
 22 20  1  0  0  0  0
 23 22  1  0  0  0  0
 23 24  1  0  0  0  0
 25 23  2  0  0  0  0
 26 27  1  0  0  0  0
 27 28  1  0  0  0  0
 29 34  1  0  0  0  0
 29 36  1  0  0  0  0
 30 32  1  0  0  0  0
 31 29  2  0  0  0  0
 32 36  1  6  0  0  0
 32 33  1  0  0  0  0
 32 35  1  0  0  0  0
 33 35  1  1  0  0  0
 34 28  1  6  0  0  0
 34 30  1  0  0  0  0
 38 33  1  0  0  0  0
 38 37  1  1  0  0  0
 38 39  1  0  0  0  0
 39 37  1  1  0  0  0
 41 45  1  0  0  0  0
 41 42  1  0  0  0  0
 42 43  1  0  0  0  0
 43 40  1  0  0  0  0
 44 41  2  0  0  0  0
 45 46  1  0  0  0  0
 46 40  1  6  0  0  0
 46 39  1  0  0  0  0
M  END
>  <MODEL>
7

>  <REMARK>
 VINA RESULT:      -6.5      2.053      8.714
  Name = 
  15 active torsions:
  status: ('A' for Active; 'I' for Inactive)
    1  A    between atoms: C_4  and  N_40
    2  A    between atoms: O_5  and  C_11
    3  A    between atoms: O_5  and  N_32
    4  A    between atoms: C_10  and  C_24
    5  A    between atoms: C_11  and  O_29
    6  A    between atoms: C_15  and  C_23
    7  A    between atoms: C_16  and  CA_44
    8  A    between atoms: C_19  and  C_23
    9  A    between atoms: C_22  and  C_46
   10  A    between atoms: C_23  and  C_27
   11  A    between atoms: C_27  and  C_28
   12  A    between atoms: C_28  and  C_39
   13  A    between atoms: O_29  and  C_33
   14  A    between atoms: C_31  and  C_39
   15  A    between atoms: N_40  and  CA_44
                            x       y       z     vdW  Elec       q    Type
                         _______ _______ _______ _____ _____    ______ ____

>  <TORSDO>
F 15

$$$$
=
 OpenBabel11062419493D

 46 51  0  0  1  0  0  0  0  0999 V2000
  192.1500  172.9830  143.6230 C   0  0  1  0  0  3  0  0  0  0  0  0
  195.6880  170.9030  141.7080 O   0  0  0  0  0  0  0  0  0  0  0  0
  195.0590  171.5810  142.5640 C   0  0  0  0  0  0  0  0  0  0  0  0
  193.4240  172.2210  144.0040 C   0  0  2  0  0  3  0  0  0  0  0  0
  194.6280  173.1790  144.1290 C   0  0  2  0  0  3  0  0  0  0  0  0
  195.5790  172.6900  143.1910 O   0  0  0  0  0  0  0  0  0  0  0  0
  193.7960  171.2700  143.0070 O   0  0  0  0  0  0  0  0  0  0  0  0
  195.1660  173.0990  145.4150 O   0  0  0  0  0  0  0  0  0  0  0  0
  196.0230  174.1970  145.5090 C   0  0  0  0  0  2  0  0  0  0  0  0
  195.2840  175.3650  145.8340 O   0  0  0  0  0  0  0  0  0  0  0  0
  196.0460  176.4900  143.8830 O   0  0  0  0  0  0  0  0  0  0  0  0
  194.8410  177.5800  145.4590 O   0  0  0  0  0  0  0  0  0  0  0  0
  195.3570  176.5130  145.0700 N   0  0  0  0  0  0  0  0  0  0  0  0
  190.9380  171.8790  141.6900 C   0  0  0  0  0  3  0  0  0  0  0  0
  191.1690  172.7260  139.4270 C   0  0  0  0  0  0  0  0  0  0  0  0
  191.7970  172.8840  142.1620 C   0  0  0  0  0  0  0  0  0  0  0  0
  192.3430  173.7990  141.2580 C   0  0  0  0  0  3  0  0  0  0  0  0
  192.0310  173.7180  139.8970 C   0  0  0  0  0  3  0  0  0  0  0  0
  190.6240  171.8040  140.3310 C   0  0  0  0  0  3  0  0  0  0  0  0
  190.8550  172.6820  138.0290 N   0  0  0  0  0  2  0  0  0  0  0  0
  190.9100  173.6330  135.7540 C   0  0  0  0  0  1  0  0  0  0  0  0
  190.4580  173.8180  137.1970 C   0  0  1  0  0  3  0  0  0  0  0  0
  188.9860  174.1030  137.2800 C   0  0  0  0  0  0  0  0  0  0  0  0
  188.4650  174.9130  136.4710 O   0  0  0  0  0  0  0  0  0  0  0  0
  188.1860  173.4830  138.2340 O   0  0  0  0  0  1  0  0  0  0  0  0
  190.9940  172.5810  144.5210 C   0  0  0  0  0  2  0  0  0  0  0  0
  190.5250  173.7750  145.3340 C   0  0  0  0  0  2  0  0  0  0  0  0
  191.6790  174.3780  146.1340 C   0  0  0  0  0  2  0  0  0  0  0  0
  190.8820  176.7070  146.6650 C   0  0  0  0  0  0  0  0  0  0  0  0
  191.7580  176.2200  144.5460 O   0  0  0  0  0  0  0  0  0  0  0  0
  190.7530  176.6850  147.8790 O   0  0  0  0  0  0  0  0  0  0  0  0
  190.7160  177.1680  144.4570 C   0  0  2  0  0  0  0  0  0  0  0  0
  190.0200  177.2650  143.0950 C   0  0  2  0  0  3  0  0  0  0  0  0
  191.8700  175.8860  145.9130 C   0  0  2  0  0  3  0  0  0  0  0  0
  191.0530  178.3100  143.5260 C   0  0  0  0  0  2  0  0  0  0  0  0
  190.1120  177.5820  145.7830 C   0  0  0  0  0  2  0  0  0  0  0  0
  187.9150  177.2700  141.9260 O   0  0  0  0  0  0  0  0  0  0  0  0
  188.6370  177.9250  142.9310 C   0  0  1  0  0  3  0  0  0  0  0  0
  187.4470  177.0970  143.2480 C   0  0  1  0  0  3  0  0  0  0  0  0
  185.6970  177.9460  144.9550 C   0  0  0  0  0  2  0  0  0  0  0  0
  183.8600  178.3050  142.7300 C   0  0  0  0  0  0  0  0  0  0  0  0
  183.7190  179.2530  143.8790 C   0  0  0  0  0  2  0  0  0  0  0  0
  184.3290  178.6390  145.1480 C   0  0  0  0  0  2  0  0  0  0  0  0
  182.9270  178.1660  141.8960 O   0  0  0  0  0  0  0  0  0  0  0  0
  185.0900  177.5980  142.5740 N   0  0  0  0  0  2  0  0  0  0  0  0
  186.1780  177.9190  143.4980 C   0  0  2  0  0  3  0  0  0  0  0  0
  1 26  1  1  0  0  0
  2  3  2  0  0  0  0
  3  7  1  0  0  0  0
  3  6  1  0  0  0  0
  4  1  1  6  0  0  0
  4  5  1  0  0  0  0
  5  8  1  1  0  0  0
  6  5  1  0  0  0  0
  7  4  1  0  0  0  0
  8  9  1  0  0  0  0
  9 10  1  0  0  0  0
 11 13  2  0  0  0  0
 13 12  2  0  0  0  0
 13 10  1  0  0  0  0
 14 16  1  0  0  0  0
 15 18  2  0  0  0  0
 15 19  1  0  0  0  0
 16  1  1  0  0  0  0
 17 16  2  0  0  0  0
 18 17  1  0  0  0  0
 19 14  2  0  0  0  0
 20 15  1  0  0  0  0
 22 21  1  6  0  0  0
 22 23  1  0  0  0  0
 22 20  1  0  0  0  0
 23 25  1  0  0  0  0
 24 23  2  0  0  0  0
 26 27  1  0  0  0  0
 27 28  1  0  0  0  0
 29 31  2  0  0  0  0
 30 34  1  0  0  0  0
 32 35  1  6  0  0  0
 32 30  1  0  0  0  0
 32 36  1  0  0  0  0
 33 35  1  6  0  0  0
 33 32  1  0  0  0  0
 34 28  1  6  0  0  0
 34 29  1  0  0  0  0
 36 29  1  0  0  0  0
 38 37  1  6  0  0  0
 38 33  1  0  0  0  0
 38 39  1  0  0  0  0
 39 37  1  6  0  0  0
 39 46  1  0  0  0  0
 40 43  1  0  0  0  0
 41 42  1  0  0  0  0
 42 43  1  0  0  0  0
 44 41  2  0  0  0  0
 45 41  1  0  0  0  0
 45 46  1  0  0  0  0
 46 40  1  1  0  0  0
M  END
>  <MODEL>
8

>  <REMARK>
 VINA RESULT:      -6.4      2.646      9.310
  Name = 
  15 active torsions:
  status: ('A' for Active; 'I' for Inactive)
    1  A    between atoms: C_4  and  N_40
    2  A    between atoms: O_5  and  C_11
    3  A    between atoms: O_5  and  N_32
    4  A    between atoms: C_10  and  C_24
    5  A    between atoms: C_11  and  O_29
    6  A    between atoms: C_15  and  C_23
    7  A    between atoms: C_16  and  CA_44
    8  A    between atoms: C_19  and  C_23
    9  A    between atoms: C_22  and  C_46
   10  A    between atoms: C_23  and  C_27
   11  A    between atoms: C_27  and  C_28
   12  A    between atoms: C_28  and  C_39
   13  A    between atoms: O_29  and  C_33
   14  A    between atoms: C_31  and  C_39
   15  A    between atoms: N_40  and  CA_44
                            x       y       z     vdW  Elec       q    Type
                         _______ _______ _______ _____ _____    ______ ____

>  <TORSDO>
F 15

$$$$
=
 OpenBabel11062419493D

 46 51  0  0  1  0  0  0  0  0999 V2000
  189.2960  172.5960  141.3530 C   0  0  1  0  0  3  0  0  0  0  0  0
  187.7630  174.4780  137.5300 O   0  0  0  0  0  0  0  0  0  0  0  0
  188.5740  173.8920  138.2960 C   0  0  0  0  0  0  0  0  0  0  0  0
  189.3930  172.4340  139.8320 C   0  0  2  0  0  3  0  0  0  0  0  0
  190.5470  173.2810  139.2560 C   0  0  2  0  0  3  0  0  0  0  0  0
  189.9260  174.1510  138.3180 O   0  0  0  0  0  0  0  0  0  0  0  0
  188.2150  172.8950  139.1710 O   0  0  0  0  0  0  0  0  0  0  0  0
  191.4540  172.4550  138.5890 O   0  0  0  0  0  0  0  0  0  0  0  0
  192.4020  173.3290  138.0550 C   0  0  0  0  0  2  0  0  0  0  0  0
  193.6790  173.0640  138.6180 O   0  0  0  0  0  0  0  0  0  0  0  0
  195.5730  173.7890  139.8590 O   0  0  0  0  0  0  0  0  0  0  0  0
  194.3240  175.2610  138.6780 O   0  0  0  0  0  0  0  0  0  0  0  0
  194.5230  174.0790  139.0250 N   0  0  0  0  0  0  0  0  0  0  0  0
  190.8380  170.6090  141.6750 C   0  0  0  0  0  3  0  0  0  0  0  0
  192.3630  170.5080  143.5590 C   0  0  0  0  0  0  0  0  0  0  0  0
  190.3680  171.8580  142.1120 C   0  0  0  0  0  0  0  0  0  0  0  0
  190.8970  172.4190  143.2780 C   0  0  0  0  0  3  0  0  0  0  0  0
  191.8890  171.7450  143.9970 C   0  0  0  0  0  3  0  0  0  0  0  0
  191.8320  169.9410  142.3940 C   0  0  0  0  0  3  0  0  0  0  0  0
  193.3940  169.8520  144.3100 N   0  0  0  0  0  2  0  0  0  0  0  0
  194.6310  169.4000  146.3950 C   0  0  0  0  0  1  0  0  0  0  0  0
  194.1960  170.4480  145.3780 C   0  0  1  0  0  3  0  0  0  0  0  0
  195.3700  171.2220  144.8500 C   0  0  0  0  0  0  0  0  0  0  0  0
  195.7950  170.9880  143.6900 O   0  0  0  0  0  0  0  0  0  0  0  0
  195.9930  172.1980  145.6200 O   0  0  0  0  0  1  0  0  0  0  0  0
  189.2320  174.0640  141.7340 C   0  0  0  0  0  2  0  0  0  0  0  0
  187.8850  174.3810  142.3610 C   0  0  0  0  0  2  0  0  0  0  0  0
  187.4400  175.8000  142.0120 C   0  0  0  0  0  2  0  0  0  0  0  0
  188.8360  177.8430  142.4850 C   0  0  0  0  0  0  0  0  0  0  0  0
  188.4600  176.2590  144.1730 O   0  0  0  0  0  0  0  0  0  0  0  0
  188.6110  178.5600  141.5220 O   0  0  0  0  0  0  0  0  0  0  0  0
  189.7530  176.8160  144.2790 C   0  0  2  0  0  0  0  0  0  0  0  0
  190.7820  175.9650  145.0320 C   0  0  2  0  0  3  0  0  0  0  0  0
  187.8670  176.8580  143.0400 C   0  0  2  0  0  3  0  0  0  0  0  0
  190.1140  177.1680  145.7050 C   0  0  0  0  0  2  0  0  0  0  0  0
  190.0760  177.8840  143.2560 C   0  0  0  0  0  2  0  0  0  0  0  0
  193.0010  175.0810  145.3310 O   0  0  0  0  0  0  0  0  0  0  0  0
  192.2980  176.2110  144.8970 C   0  0  1  0  0  3  0  0  0  0  0  0
  193.0430  175.3510  143.9450 C   0  0  1  0  0  3  0  0  0  0  0  0
  194.5040  176.3720  142.0690 C   0  0  0  0  0  2  0  0  0  0  0  0
  196.8420  175.5290  143.5790 C   0  0  0  0  0  0  0  0  0  0  0  0
  196.9830  176.7730  142.7580 C   0  0  0  0  0  2  0  0  0  0  0  0
  195.9290  176.7910  141.6410 C   0  0  0  0  0  2  0  0  0  0  0  0
  197.8610  174.9130  143.9880 O   0  0  0  0  0  0  0  0  0  0  0  0
  195.5310  175.0830  143.9240 N   0  0  0  0  0  2  0  0  0  0  0  0
  194.4030  175.9280  143.5340 C   0  0  2  0  0  3  0  0  0  0  0  0
  1 26  1  6  0  0  0
  1 16  1  0  0  0  0
  2  3  2  0  0  0  0
  3  6  1  0  0  0  0
  3  7  1  0  0  0  0
  4  1  1  1  0  0  0
  5  8  1  6  0  0  0
  5  4  1  0  0  0  0
  6  5  1  0  0  0  0
  7  4  1  0  0  0  0
  9  8  1  0  0  0  0
  9 10  1  0  0  0  0
 10 13  1  0  0  0  0
 12 13  2  0  0  0  0
 13 11  2  0  0  0  0
 14 16  2  0  0  0  0
 14 19  1  0  0  0  0
 15 18  1  0  0  0  0
 15 20  1  0  0  0  0
 16 17  1  0  0  0  0
 17 18  2  0  0  0  0
 19 15  2  0  0  0  0
 20 22  1  0  0  0  0
 22 21  1  1  0  0  0
 23 22  1  0  0  0  0
 23 25  1  0  0  0  0
 24 23  2  0  0  0  0
 26 27  1  0  0  0  0
 28 27  1  0  0  0  0
 29 34  1  0  0  0  0
 29 36  1  0  0  0  0
 30 32  1  0  0  0  0
 31 29  2  0  0  0  0
 32 36  1  6  0  0  0
 32 33  1  0  0  0  0
 32 35  1  0  0  0  0
 33 35  1  1  0  0  0
 34 28  1  6  0  0  0
 34 30  1  0  0  0  0
 38 33  1  0  0  0  0
 38 37  1  1  0  0  0
 39 38  1  0  0  0  0
 39 37  1  1  0  0  0
 41 45  1  0  0  0  0
 41 44  2  0  0  0  0
 42 41  1  0  0  0  0
 43 40  1  0  0  0  0
 43 42  1  0  0  0  0
 46 40  1  6  0  0  0
 46 45  1  0  0  0  0
 46 39  1  0  0  0  0
M  END
>  <MODEL>
9

>  <REMARK>
 VINA RESULT:      -6.4      2.990      6.745
  Name = 
  15 active torsions:
  status: ('A' for Active; 'I' for Inactive)
    1  A    between atoms: C_4  and  N_40
    2  A    between atoms: O_5  and  C_11
    3  A    between atoms: O_5  and  N_32
    4  A    between atoms: C_10  and  C_24
    5  A    between atoms: C_11  and  O_29
    6  A    between atoms: C_15  and  C_23
    7  A    between atoms: C_16  and  CA_44
    8  A    between atoms: C_19  and  C_23
    9  A    between atoms: C_22  and  C_46
   10  A    between atoms: C_23  and  C_27
   11  A    between atoms: C_27  and  C_28
   12  A    between atoms: C_28  and  C_39
   13  A    between atoms: O_29  and  C_33
   14  A    between atoms: C_31  and  C_39
   15  A    between atoms: N_40  and  CA_44
                            x       y       z     vdW  Elec       q    Type
                         _______ _______ _______ _____ _____    ______ ____

>  <TORSDO>
F 15

$$$$
