=
 OpenBabel11062418183D

 49 56  0  0  1  0  0  0  0  0999 V2000
  193.8840  171.8270  139.2340 N   0  0  0  0  0  0  0  0  0  0  0  0
  193.1400  173.1620  140.8750 C   0  0  1  0  0  3  0  0  0  0  0  0
  194.9640  173.9470  139.6520 N   0  0  0  0  0  2  0  0  0  0  0  0
  191.1410  174.8900  142.4810 C   0  0  0  0  0  3  0  0  0  0  0  0
  192.5980  171.2820  139.7040 C   0  0  0  0  0  2  0  0  0  0  0  0
  190.3860  173.7920  141.8250 C   0  0  1  0  0  3  0  0  0  0  0  0
  194.1710  172.8220  140.0090 C   0  0  0  0  0  0  0  0  0  0  0  0
  192.4040  175.2310  142.1390 C   0  0  0  0  0  0  0  0  0  0  0  0
  194.4320  175.0860  140.4310 C   0  0  0  0  0  2  0  0  0  0  0  0
  190.8140  172.6910  141.1060 C   0  0  0  0  0  0  0  0  0  0  0  0
  193.0270  174.6410  140.8880 C   0  0  1  0  0  3  0  0  0  0  0  0
  188.9590  173.3780  141.6640 C   0  0  2  0  0  3  0  0  0  0  0  0
  189.4050  172.2180  140.9360 C   0  0  0  0  0  2  0  0  0  0  0  0
  192.1660  172.2990  140.7230 C   0  0  0  0  0  0  0  0  0  0  0  0
  187.8000  175.6850  141.3310 N   0  0  0  0  0  0  0  0  0  0  0  0
  188.0170  174.1300  139.6130 O   0  0  0  0  0  0  0  0  0  0  0  0
  188.1950  174.3870  140.8360 C   0  0  0  0  0  0  0  0  0  0  0  0
  186.7370  177.2980  140.2740 C   0  0  0  0  0  1  0  0  0  0  0  0
  188.0000  176.7750  140.5380 O   0  0  0  0  0  0  0  0  0  0  0  0
  186.9990  175.8390  142.5430 C   0  0  0  0  0  2  0  0  0  0  0  0
  187.2060  176.9530  144.8490 C   0  0  2  0  0  3  0  0  0  0  0  0
  187.6180  177.8620  143.7660 N   0  0  0  0  0  2  0  0  0  0  0  0
  187.8760  176.4250  143.6570 C   0  0  2  0  0  3  0  0  0  0  0  0
  185.6750  176.8430  144.8680 C   0  0  0  0  0  2  0  0  0  0  0  0
  186.2100  176.8370  147.3220 C   0  0  0  0  0  2  0  0  0  0  0  0
  183.7340  178.7930  145.5170 O   0  0  0  0  0  1  0  0  0  0  0  0
  184.4000  178.2550  146.6210 C   0  0  2  0  0  3  0  0  0  0  0  0
  186.4960  178.2580  147.8040 C   0  0  0  0  0  2  0  0  0  0  0  0
  185.4970  179.1710  147.1060 C   0  0  0  0  0  2  0  0  0  0  0  0
  185.0960  176.9340  146.2970 C   0  0  1  0  0  3  0  0  0  0  0  0
  193.1080  176.2500  142.8760 N   0  0  0  0  0  2  0  0  0  0  0  0
  193.8400  176.0100  144.1150 C   0  0  2  0  0  3  0  0  0  0  0  0
  195.1510  172.0220  145.2120 C   0  0  2  0  0  3  0  0  0  0  0  0
  194.2190  174.5570  144.2730 C   0  0  0  0  0  0  0  0  0  0  0  0
  193.6610  172.1180  144.8810 C   0  0  0  0  0  2  0  0  0  0  0  0
  193.1950  173.5760  144.8270 C   0  0  0  0  0  2  0  0  0  0  0  0
  195.4840  174.1650  144.0040 C   0  0  0  0  0  0  0  0  0  0  0  0
  196.5330  175.1490  143.5810 C   0  0  0  0  0  1  0  0  0  0  0  0
  195.8870  172.7130  144.0730 C   0  0  0  0  0  2  0  0  0  0  0  0
  196.8700  170.2650  145.0440 O   0  0  0  0  0  0  0  0  0  0  0  0
  195.5700  170.6220  145.3140 N   0  0  0  0  0  0  0  0  0  0  0  0
  194.7310  169.7140  145.5000 O   0  0  0  0  0  0  0  0  0  0  0  0
  193.5050  176.2180  146.7280 C   0  0  0  0  0  2  0  0  0  0  0  0
  190.7090  177.3980  145.4650 C   0  0  0  0  0  2  0  0  0  0  0  0
  191.2080  176.6480  147.8610 C   0  0  0  0  0  2  0  0  0  0  0  0
  190.1700  176.7700  146.7280 C   0  0  0  0  0  2  0  0  0  0  0  0
  193.1170  176.5770  145.3070 C   0  0  0  0  0  3  0  0  0  0  0  0
  192.3360  175.6280  147.5660 C   0  0  0  0  0  2  0  0  0  0  0  0
  191.9260  177.0670  145.1810 C   0  0  0  0  0  2  0  0  0  0  0  0
  1  5  1  0  0  0  0
  1  7  2  0  0  0  0
  2  7  1  6  0  0  0
  2 11  1  0  0  0  0
  3  7  1  0  0  0  0
  3  9  1  0  0  0  0
  5 14  1  0  0  0  0
  6  4  1  1  0  0  0
  8  4  2  0  0  0  0
  8 31  1  0  0  0  0
 10  6  1  0  0  0  0
 11  9  1  1  0  0  0
 11  8  1  0  0  0  0
 12 17  1  6  0  0  0
 12  6  1  0  0  0  0
 13 10  1  0  0  0  0
 13 12  1  0  0  0  0
 14  2  1  0  0  0  0
 14 10  2  0  0  0  0
 15 20  1  0  0  0  0
 16 17  2  0  0  0  0
 17 15  1  0  0  0  0
 18 19  1  0  0  0  0
 19 15  1  0  0  0  0
 21 24  1  6  0  0  0
 22 21  1  0  0  0  0
 23 20  1  6  0  0  0
 23 22  1  0  0  0  0
 23 21  1  0  0  0  0
 25 28  1  0  0  0  0
 27 26  1  6  0  0  0
 27 29  1  0  0  0  0
 29 28  1  0  0  0  0
 30 24  1  6  0  0  0
 30 27  1  0  0  0  0
 30 25  1  0  0  0  0
 32 31  1  6  0  0  0
 32 34  1  0  0  0  0
 32 47  1  0  0  0  0
 33 41  1  6  0  0  0
 34 36  1  0  0  0  0
 35 33  1  0  0  0  0
 36 35  1  0  0  0  0
 37 39  1  0  0  0  0
 37 34  2  0  0  0  0
 38 37  1  0  0  0  0
 39 33  1  0  0  0  0
 40 41  2  0  0  0  0
 41 42  2  0  0  0  0
 43 48  1  0  0  0  0
 44 46  1  0  0  0  0
 46 45  1  0  0  0  0
 47 43  1  0  0  0  0
 48 45  1  0  0  0  0
 49 47  1  0  0  0  0
 49 44  1  0  0  0  0
M  END
>  <MODEL>
1

>  <REMARK>
 VINA RESULT:      -8.0      0.000      0.000
  Name = 
  11 active torsions:
  status: ('A' for Active; 'I' for Inactive)
    1  A    between atoms: C_1  and  C_20
    2  A    between atoms: C_3  and  C_12
    3  A    between atoms: C_3  and  N_31
    4  A    between atoms: C_3  and  C_32
    5  A    between atoms: N_7  and  O_15
    6  A    between atoms: N_7  and  C_19
    7  A    between atoms: C_9  and  N_24
    8  A    between atoms: C_19  and  C_48
    9  A    between atoms: C_20  and  C_45
   10  A    between atoms: C_29  and  N_31
   11  A    between atoms: C_39  and  C_40
                            x       y       z     vdW  Elec       q    Type
                         _______ _______ _______ _____ _____    ______ ____

>  <TORSDO>
F 11

$$$$
=
 OpenBabel11062418183D

 49 56  0  0  1  0  0  0  0  0999 V2000
  196.6980  172.7270  146.0220 N   0  0  0  0  0  0  0  0  0  0  0  0
  194.7730  173.0900  144.9300 C   0  0  1  0  0  3  0  0  0  0  0  0
  195.3850  170.8600  145.2300 N   0  0  0  0  0  2  0  0  0  0  0  0
  191.9080  174.1460  144.4440 C   0  0  0  0  0  3  0  0  0  0  0  0
  196.3690  174.1560  146.1610 C   0  0  0  0  0  2  0  0  0  0  0  0
  192.6120  175.1030  145.3340 C   0  0  1  0  0  3  0  0  0  0  0  0
  195.8100  172.2170  145.2320 C   0  0  0  0  0  0  0  0  0  0  0  0
  192.3560  172.8950  144.1940 C   0  0  0  0  0  0  0  0  0  0  0  0
  193.9680  170.8750  144.8070 C   0  0  0  0  0  2  0  0  0  0  0  0
  193.9300  175.1640  145.7510 C   0  0  0  0  0  0  0  0  0  0  0  0
  193.5010  172.3320  145.0150 C   0  0  1  0  0  3  0  0  0  0  0  0
  192.2820  176.3400  146.1050 C   0  0  2  0  0  3  0  0  0  0  0  0
  193.6590  176.4180  146.5200 C   0  0  0  0  0  2  0  0  0  0  0  0
  195.0340  174.2520  145.4760 C   0  0  0  0  0  0  0  0  0  0  0  0
  189.8710  176.1170  147.0600 N   0  0  0  0  0  0  0  0  0  0  0  0
  191.7650  175.5620  148.2920 O   0  0  0  0  0  0  0  0  0  0  0  0
  191.3040  176.0380  147.2180 C   0  0  0  0  0  0  0  0  0  0  0  0
  189.2240  174.0540  146.6450 C   0  0  0  0  0  1  0  0  0  0  0  0
  189.1020  175.1050  147.5500 O   0  0  0  0  0  0  0  0  0  0  0  0
  189.2100  177.3370  146.5990 C   0  0  0  0  0  2  0  0  0  0  0  0
  188.3040  177.6170  144.2120 C   0  0  2  0  0  3  0  0  0  0  0  0
  188.9940  176.3280  144.3850 N   0  0  0  0  0  2  0  0  0  0  0  0
  189.4670  177.5150  145.0980 C   0  0  2  0  0  3  0  0  0  0  0  0
  186.9300  177.5580  144.8920 C   0  0  0  0  0  2  0  0  0  0  0  0
  185.4120  179.2890  143.8880 C   0  0  0  0  0  2  0  0  0  0  0  0
  185.8120  178.3300  147.3710 O   0  0  0  0  0  1  0  0  0  0  0  0
  185.3790  179.0920  146.2830 C   0  0  2  0  0  3  0  0  0  0  0  0
  183.9700  179.0500  144.3320 C   0  0  0  0  0  2  0  0  0  0  0  0
  184.0210  178.6450  145.8000 C   0  0  0  0  0  2  0  0  0  0  0  0
  186.3000  178.9570  145.0720 C   0  0  1  0  0  3  0  0  0  0  0  0
  191.6670  172.0490  143.2520 N   0  0  0  0  0  2  0  0  0  0  0  0
  191.9060  172.0590  141.8130 C   0  0  2  0  0  3  0  0  0  0  0  0
  195.0470  174.4940  140.0710 C   0  0  2  0  0  3  0  0  0  0  0  0
  193.0580  172.9600  141.4390 C   0  0  0  0  0  0  0  0  0  0  0  0
  194.0550  175.2790  140.9300 C   0  0  0  0  0  2  0  0  0  0  0  0
  192.8060  174.4480  141.2400 C   0  0  0  0  0  2  0  0  0  0  0  0
  194.2750  172.4220  141.2010 C   0  0  0  0  0  0  0  0  0  0  0  0
  194.5020  170.9410  141.2700 C   0  0  0  0  0  1  0  0  0  0  0  0
  195.4720  173.2910  140.9010 C   0  0  0  0  0  2  0  0  0  0  0  0
  196.7470  176.1740  140.6710 O   0  0  0  0  0  0  0  0  0  0  0  0
  196.2110  175.3190  139.7380 N   0  0  0  0  0  0  0  0  0  0  0  0
  196.6440  175.3710  138.5660 O   0  0  0  0  0  0  0  0  0  0  0  0
  190.5900  172.2560  139.5290 C   0  0  0  0  0  2  0  0  0  0  0  0
  188.6870  173.8400  141.6910 C   0  0  0  0  0  2  0  0  0  0  0  0
  188.6230  173.9030  139.1330 C   0  0  0  0  0  2  0  0  0  0  0  0
  188.4060  174.6630  140.4570 C   0  0  0  0  0  2  0  0  0  0  0  0
  190.6450  172.3430  141.0420 C   0  0  0  0  0  3  0  0  0  0  0  0
  190.1060  173.5640  138.8440 C   0  0  0  0  0  2  0  0  0  0  0  0
  189.6890  173.0310  141.5770 C   0  0  0  0  0  2  0  0  0  0  0  0
  1  5  1  0  0  0  0
  2 11  1  0  0  0  0
  2  7  1  1  0  0  0
  2 14  1  0  0  0  0
  3  7  1  0  0  0  0
  6  4  1  6  0  0  0
  6 10  1  0  0  0  0
  6 12  1  0  0  0  0
  7  1  2  0  0  0  0
  8  4  2  0  0  0  0
  8 11  1  0  0  0  0
  9  3  1  0  0  0  0
 10 13  1  0  0  0  0
 11  9  1  6  0  0  0
 12 13  1  0  0  0  0
 12 17  1  1  0  0  0
 14 10  2  0  0  0  0
 14  5  1  0  0  0  0
 15 17  1  0  0  0  0
 15 19  1  0  0  0  0
 17 16  2  0  0  0  0
 18 19  1  0  0  0  0
 20 15  1  0  0  0  0
 21 22  1  0  0  0  0
 21 24  1  1  0  0  0
 21 23  1  0  0  0  0
 22 23  1  0  0  0  0
 23 20  1  1  0  0  0
 25 28  1  0  0  0  0
 25 30  1  0  0  0  0
 27 26  1  1  0  0  0
 28 29  1  0  0  0  0
 29 27  1  0  0  0  0
 30 24  1  6  0  0  0
 30 27  1  0  0  0  0
 31  8  1  0  0  0  0
 32 31  1  1  0  0  0
 33 41  1  1  0  0  0
 33 39  1  0  0  0  0
 33 35  1  0  0  0  0
 34 32  1  0  0  0  0
 35 36  1  0  0  0  0
 36 34  1  0  0  0  0
 37 38  1  0  0  0  0
 37 34  2  0  0  0  0
 39 37  1  0  0  0  0
 41 40  2  0  0  0  0
 42 41  2  0  0  0  0
 43 47  1  0  0  0  0
 45 46  1  0  0  0  0
 46 44  1  0  0  0  0
 47 49  1  0  0  0  0
 47 32  1  0  0  0  0
 48 45  1  0  0  0  0
 48 43  1  0  0  0  0
 49 44  1  0  0  0  0
M  END
>  <MODEL>
2

>  <REMARK>
 VINA RESULT:      -8.0      2.751      5.796
  Name = 
  11 active torsions:
  status: ('A' for Active; 'I' for Inactive)
    1  A    between atoms: C_1  and  C_20
    2  A    between atoms: C_3  and  C_12
    3  A    between atoms: C_3  and  N_31
    4  A    between atoms: C_3  and  C_32
    5  A    between atoms: N_7  and  O_15
    6  A    between atoms: N_7  and  C_19
    7  A    between atoms: C_9  and  N_24
    8  A    between atoms: C_19  and  C_48
    9  A    between atoms: C_20  and  C_45
   10  A    between atoms: C_29  and  N_31
   11  A    between atoms: C_39  and  C_40
                            x       y       z     vdW  Elec       q    Type
                         _______ _______ _______ _____ _____    ______ ____

>  <TORSDO>
F 11

$$$$
=
 OpenBabel11062418183D

 49 56  0  0  1  0  0  0  0  0999 V2000
  184.4170  178.5480  142.8300 N   0  0  0  0  0  0  0  0  0  0  0  0
  185.9730  176.9480  142.6170 C   0  0  1  0  0  3  0  0  0  0  0  0
  185.5880  178.2710  140.7350 N   0  0  0  0  0  2  0  0  0  0  0  0
  188.5520  175.3560  143.2310 C   0  0  0  0  0  3  0  0  0  0  0  0
  184.6880  178.0080  144.1730 C   0  0  0  0  0  2  0  0  0  0  0  0
  188.0450  175.9320  144.5030 C   0  0  1  0  0  3  0  0  0  0  0  0
  185.1000  177.8330  141.9970 C   0  0  0  0  0  0  0  0  0  0  0  0
  188.1270  175.7580  142.0120 C   0  0  0  0  0  0  0  0  0  0  0  0
  186.8460  177.5280  140.5020 C   0  0  0  0  0  2  0  0  0  0  0  0
  186.8780  176.6130  144.7970 C   0  0  0  0  0  0  0  0  0  0  0  0
  187.2660  177.0010  141.8910 C   0  0  1  0  0  3  0  0  0  0  0  0
  188.4910  176.0230  145.9270 C   0  0  2  0  0  3  0  0  0  0  0  0
  187.2650  176.7100  146.2390 C   0  0  0  0  0  2  0  0  0  0  0  0
  185.7940  177.0240  143.9120 C   0  0  0  0  0  0  0  0  0  0  0  0
  190.9070  176.6860  145.2230 N   0  0  0  0  0  0  0  0  0  0  0  0
  189.6950  177.8710  146.8170 O   0  0  0  0  0  0  0  0  0  0  0  0
  189.7370  176.8710  146.0490 C   0  0  0  0  0  0  0  0  0  0  0  0
  191.3200  177.6780  143.3000 C   0  0  0  0  0  1  0  0  0  0  0  0
  191.5010  177.7840  144.6760 O   0  0  0  0  0  0  0  0  0  0  0  0
  191.6000  175.4020  145.1370 C   0  0  0  0  0  2  0  0  0  0  0  0
  194.1120  175.4560  145.6710 C   0  0  2  0  0  3  0  0  0  0  0  0
  193.5160  174.1470  145.9870 N   0  0  0  0  0  2  0  0  0  0  0  0
  192.7360  175.3720  146.1680 C   0  0  2  0  0  3  0  0  0  0  0  0
  194.2750  175.5900  144.1510 C   0  0  0  0  0  2  0  0  0  0  0  0
  196.7300  175.0620  144.1960 C   0  0  0  0  0  2  0  0  0  0  0  0
  194.7680  176.6300  141.5690 O   0  0  0  0  0  1  0  0  0  0  0  0
  195.9130  176.2030  142.2450 C   0  0  2  0  0  3  0  0  0  0  0  0
  197.1180  174.2480  142.9640 C   0  0  0  0  0  2  0  0  0  0  0  0
  196.3490  174.8330  141.7870 C   0  0  0  0  0  2  0  0  0  0  0  0
  195.6880  176.0690  143.7500 C   0  0  1  0  0  3  0  0  0  0  0  0
  188.5980  175.0960  140.8210 N   0  0  0  0  0  2  0  0  0  0  0  0
  188.9250  173.6770  140.7460 C   0  0  2  0  0  3  0  0  0  0  0  0
  192.8770  172.2850  141.8760 C   0  0  2  0  0  3  0  0  0  0  0  0
  190.3020  173.3850  141.2910 C   0  0  0  0  0  0  0  0  0  0  0  0
  192.8580  173.6980  141.2900 C   0  0  0  0  0  2  0  0  0  0  0  0
  191.5180  174.0030  140.6150 C   0  0  0  0  0  2  0  0  0  0  0  0
  190.4430  172.5130  142.3140 C   0  0  0  0  0  0  0  0  0  0  0  0
  189.2620  171.8010  142.9030 C   0  0  0  0  0  1  0  0  0  0  0  0
  191.7900  172.2510  142.9420 C   0  0  0  0  0  2  0  0  0  0  0  0
  195.1860  171.4410  141.7060 O   0  0  0  0  0  0  0  0  0  0  0  0
  194.1820  171.9870  142.4710 N   0  0  0  0  0  0  0  0  0  0  0  0
  194.3610  172.0830  143.7050 O   0  0  0  0  0  0  0  0  0  0  0  0
  189.1430  171.7320  138.9700 C   0  0  0  0  0  2  0  0  0  0  0  0
  188.4600  174.3930  137.1650 C   0  0  0  0  0  2  0  0  0  0  0  0
  189.3880  172.1280  136.4160 C   0  0  0  0  0  2  0  0  0  0  0  0
  189.3520  173.6530  136.1980 C   0  0  0  0  0  2  0  0  0  0  0  0
  188.6960  173.1250  139.3640 C   0  0  0  0  0  3  0  0  0  0  0  0
  190.0830  171.7020  137.7330 C   0  0  0  0  0  2  0  0  0  0  0  0
  188.4710  173.9210  138.3690 C   0  0  0  0  0  2  0  0  0  0  0  0
  1  5  1  0  0  0  0
  2  7  1  6  0  0  0
  2 14  1  0  0  0  0
  3  7  1  0  0  0  0
  6  4  1  1  0  0  0
  6 10  1  0  0  0  0
  6 12  1  0  0  0  0
  7  1  2  0  0  0  0
  8  4  2  0  0  0  0
  9  3  1  0  0  0  0
 10 13  1  0  0  0  0
 11  9  1  6  0  0  0
 11  8  1  0  0  0  0
 11  2  1  0  0  0  0
 12 17  1  6  0  0  0
 12 13  1  0  0  0  0
 14  5  1  0  0  0  0
 14 10  2  0  0  0  0
 15 17  1  0  0  0  0
 17 16  2  0  0  0  0
 18 19  1  0  0  0  0
 19 15  1  0  0  0  0
 20 15  1  0  0  0  0
 21 24  1  6  0  0  0
 21 22  1  0  0  0  0
 21 23  1  0  0  0  0
 22 23  1  0  0  0  0
 23 20  1  6  0  0  0
 27 26  1  6  0  0  0
 27 30  1  0  0  0  0
 28 25  1  0  0  0  0
 29 27  1  0  0  0  0
 29 28  1  0  0  0  0
 30 24  1  6  0  0  0
 30 25  1  0  0  0  0
 31  8  1  0  0  0  0
 32 31  1  6  0  0  0
 32 34  1  0  0  0  0
 33 41  1  1  0  0  0
 33 39  1  0  0  0  0
 34 37  2  0  0  0  0
 35 33  1  0  0  0  0
 36 35  1  0  0  0  0
 36 34  1  0  0  0  0
 37 38  1  0  0  0  0
 37 39  1  0  0  0  0
 40 41  2  0  0  0  0
 41 42  2  0  0  0  0
 43 47  1  0  0  0  0
 44 49  1  0  0  0  0
 45 48  1  0  0  0  0
 46 45  1  0  0  0  0
 46 44  1  0  0  0  0
 47 32  1  0  0  0  0
 48 43  1  0  0  0  0
 49 47  1  0  0  0  0
M  END
>  <MODEL>
3

>  <REMARK>
 VINA RESULT:      -8.0      2.652      8.082
  Name = 
  11 active torsions:
  status: ('A' for Active; 'I' for Inactive)
    1  A    between atoms: C_1  and  C_20
    2  A    between atoms: C_3  and  C_12
    3  A    between atoms: C_3  and  N_31
    4  A    between atoms: C_3  and  C_32
    5  A    between atoms: N_7  and  O_15
    6  A    between atoms: N_7  and  C_19
    7  A    between atoms: C_9  and  N_24
    8  A    between atoms: C_19  and  C_48
    9  A    between atoms: C_20  and  C_45
   10  A    between atoms: C_29  and  N_31
   11  A    between atoms: C_39  and  C_40
                            x       y       z     vdW  Elec       q    Type
                         _______ _______ _______ _____ _____    ______ ____

>  <TORSDO>
F 11

$$$$
=
 OpenBabel11062418183D

 49 56  0  0  1  0  0  0  0  0999 V2000
  188.9320  173.4060  137.5580 N   0  0  0  0  0  0  0  0  0  0  0  0
  189.3680  173.2280  139.7510 C   0  0  1  0  0  3  0  0  0  0  0  0
  190.9890  172.3800  138.3020 N   0  0  0  0  0  2  0  0  0  0  0  0
  189.8300  174.1470  142.6660 C   0  0  0  0  0  3  0  0  0  0  0  0
  187.9320  174.2130  138.2800 C   0  0  0  0  0  2  0  0  0  0  0  0
  188.8620  175.0780  142.0310 C   0  0  1  0  0  3  0  0  0  0  0  0
  189.6400  172.8020  138.4560 C   0  0  0  0  0  0  0  0  0  0  0  0
  190.5970  173.2810  141.9670 C   0  0  0  0  0  0  0  0  0  0  0  0
  191.6020  172.4720  139.6450 C   0  0  0  0  0  2  0  0  0  0  0  0
  188.2350  175.0440  140.7990 C   0  0  0  0  0  0  0  0  0  0  0  0
  190.6640  173.3920  140.4550 C   0  0  1  0  0  3  0  0  0  0  0  0
  188.1580  176.3470  142.3870 C   0  0  2  0  0  3  0  0  0  0  0  0
  187.4860  176.3000  141.1140 C   0  0  0  0  0  2  0  0  0  0  0  0
  188.3810  174.0870  139.7090 C   0  0  0  0  0  0  0  0  0  0  0  0
  190.0890  177.5790  143.6240 N   0  0  0  0  0  0  0  0  0  0  0  0
  189.2260  178.3200  141.5930 O   0  0  0  0  0  0  0  0  0  0  0  0
  189.1420  177.4860  142.5370 C   0  0  0  0  0  0  0  0  0  0  0  0
  191.6480  179.0750  144.0530 C   0  0  0  0  0  1  0  0  0  0  0  0
  191.3800  177.9100  143.3380 O   0  0  0  0  0  0  0  0  0  0  0  0
  189.6670  177.5510  145.0220 C   0  0  0  0  0  2  0  0  0  0  0  0
  188.1600  175.8200  146.1750 C   0  0  2  0  0  3  0  0  0  0  0  0
  189.4280  176.0060  146.9000 N   0  0  0  0  0  2  0  0  0  0  0  0
  189.3960  176.1000  145.4400 C   0  0  2  0  0  3  0  0  0  0  0  0
  187.2410  177.0210  146.4350 C   0  0  0  0  0  2  0  0  0  0  0  0
  184.7500  176.7800  146.6570 C   0  0  0  0  0  2  0  0  0  0  0  0
  186.6630  178.7470  144.2730 O   0  0  0  0  0  1  0  0  0  0  0  0
  185.5400  178.1380  144.8370 C   0  0  2  0  0  3  0  0  0  0  0  0
  184.0940  178.1550  146.7610 C   0  0  0  0  0  2  0  0  0  0  0  0
  184.8230  179.0690  145.7840 C   0  0  0  0  0  2  0  0  0  0  0  0
  185.9000  176.9130  145.6760 C   0  0  1  0  0  3  0  0  0  0  0  0
  191.4520  172.3460  142.6530 N   0  0  0  0  0  2  0  0  0  0  0  0
  192.3990  172.7150  143.6990 C   0  0  2  0  0  3  0  0  0  0  0  0
  195.8220  175.2030  142.7380 C   0  0  2  0  0  3  0  0  0  0  0  0
  193.4420  173.6850  143.1990 C   0  0  0  0  0  0  0  0  0  0  0  0
  195.3110  174.3660  141.5640 C   0  0  0  0  0  2  0  0  0  0  0  0
  194.3360  173.2830  142.0350 C   0  0  0  0  0  2  0  0  0  0  0  0
  193.6270  174.8570  143.8460 C   0  0  0  0  0  0  0  0  0  0  0  0
  192.8370  175.2060  145.0720 C   0  0  0  0  0  1  0  0  0  0  0  0
  194.6020  175.8890  143.3360 C   0  0  0  0  0  2  0  0  0  0  0  0
  197.2440  177.1750  143.1400 O   0  0  0  0  0  0  0  0  0  0  0  0
  196.7940  176.1990  142.2820 N   0  0  0  0  0  0  0  0  0  0  0  0
  197.1170  176.2730  141.0760 O   0  0  0  0  0  0  0  0  0  0  0  0
  194.0930  171.6100  145.4000 C   0  0  0  0  0  2  0  0  0  0  0  0
  193.0940  169.1040  143.5220 C   0  0  0  0  0  2  0  0  0  0  0  0
  195.1090  169.2400  145.0940 C   0  0  0  0  0  2  0  0  0  0  0  0
  194.5130  168.6660  143.7940 C   0  0  0  0  0  2  0  0  0  0  0  0
  192.9800  171.5030  144.3770 C   0  0  0  0  0  3  0  0  0  0  0  0
  195.3520  170.7700  145.0470 C   0  0  0  0  0  2  0  0  0  0  0  0
  192.8400  170.3280  143.8540 C   0  0  0  0  0  2  0  0  0  0  0  0
  1  5  1  0  0  0  0
  1  7  2  0  0  0  0
  2  7  1  6  0  0  0
  2 11  1  0  0  0  0
  3  7  1  0  0  0  0
  3  9  1  0  0  0  0
  5 14  1  0  0  0  0
  6 12  1  0  0  0  0
  6  4  1  1  0  0  0
  8 31  1  0  0  0  0
  8  4  2  0  0  0  0
 10 13  1  0  0  0  0
 10  6  1  0  0  0  0
 11  9  1  6  0  0  0
 11  8  1  0  0  0  0
 12 17  1  6  0  0  0
 13 12  1  0  0  0  0
 14  2  1  0  0  0  0
 14 10  2  0  0  0  0
 15 20  1  0  0  0  0
 16 17  2  0  0  0  0
 17 15  1  0  0  0  0
 19 15  1  0  0  0  0
 19 18  1  0  0  0  0
 21 24  1  1  0  0  0
 21 22  1  0  0  0  0
 23 20  1  1  0  0  0
 23 21  1  0  0  0  0
 23 22  1  0  0  0  0
 25 28  1  0  0  0  0
 27 26  1  1  0  0  0
 27 30  1  0  0  0  0
 27 29  1  0  0  0  0
 29 28  1  0  0  0  0
 30 24  1  1  0  0  0
 30 25  1  0  0  0  0
 32 31  1  6  0  0  0
 32 47  1  0  0  0  0
 33 41  1  6  0  0  0
 33 39  1  0  0  0  0
 34 32  1  0  0  0  0
 34 37  2  0  0  0  0
 35 36  1  0  0  0  0
 35 33  1  0  0  0  0
 36 34  1  0  0  0  0
 37 38  1  0  0  0  0
 39 37  1  0  0  0  0
 41 40  2  0  0  0  0
 42 41  2  0  0  0  0
 44 46  1  0  0  0  0
 44 49  1  0  0  0  0
 46 45  1  0  0  0  0
 47 43  1  0  0  0  0
 48 45  1  0  0  0  0
 48 43  1  0  0  0  0
 49 47  1  0  0  0  0
M  END
>  <MODEL>
4

>  <REMARK>
 VINA RESULT:      -7.6      2.618      4.659
  Name = 
  11 active torsions:
  status: ('A' for Active; 'I' for Inactive)
    1  A    between atoms: C_1  and  C_20
    2  A    between atoms: C_3  and  C_12
    3  A    between atoms: C_3  and  N_31
    4  A    between atoms: C_3  and  C_32
    5  A    between atoms: N_7  and  O_15
    6  A    between atoms: N_7  and  C_19
    7  A    between atoms: C_9  and  N_24
    8  A    between atoms: C_19  and  C_48
    9  A    between atoms: C_20  and  C_45
   10  A    between atoms: C_29  and  N_31
   11  A    between atoms: C_39  and  C_40
                            x       y       z     vdW  Elec       q    Type
                         _______ _______ _______ _____ _____    ______ ____

>  <TORSDO>
F 11

$$$$
=
 OpenBabel11062418183D

 49 56  0  0  1  0  0  0  0  0999 V2000
  190.6890  173.0260  136.3820 N   0  0  0  0  0  0  0  0  0  0  0  0
  190.6440  173.6390  138.5390 C   0  0  1  0  0  3  0  0  0  0  0  0
  188.6060  172.9890  137.6070 N   0  0  0  0  0  2  0  0  0  0  0  0
  191.3680  173.6060  141.5440 C   0  0  0  0  0  3  0  0  0  0  0  0
  192.0840  173.1480  136.8410 C   0  0  0  0  0  2  0  0  0  0  0  0
  192.5630  173.1790  140.7720 C   0  0  1  0  0  3  0  0  0  0  0  0
  189.9400  173.4170  137.3610 C   0  0  0  0  0  0  0  0  0  0  0  0
  190.1230  173.6610  141.0190 C   0  0  0  0  0  0  0  0  0  0  0  0
  188.4290  173.0250  139.0750 C   0  0  0  0  0  2  0  0  0  0  0  0
  192.8060  173.1420  139.4110 C   0  0  0  0  0  0  0  0  0  0  0  0
  189.8600  173.0530  139.6540 C   0  0  1  0  0  3  0  0  0  0  0  0
  193.9350  172.6640  141.0610 C   0  0  2  0  0  3  0  0  0  0  0  0
  194.1990  172.6480  139.6450 C   0  0  0  0  0  2  0  0  0  0  0  0
  191.9200  173.4690  138.3000 C   0  0  0  0  0  0  0  0  0  0  0  0
  194.3740  171.0230  143.0330 N   0  0  0  0  0  0  0  0  0  0  0  0
  193.2330  170.3920  141.1050 O   0  0  0  0  0  0  0  0  0  0  0  0
  193.8740  171.2970  141.7060 C   0  0  0  0  0  0  0  0  0  0  0  0
  192.5270  171.0930  144.2300 C   0  0  0  0  0  1  0  0  0  0  0  0
  193.6050  170.2840  143.8810 O   0  0  0  0  0  0  0  0  0  0  0  0
  195.7540  171.3150  143.4160 C   0  0  0  0  0  2  0  0  0  0  0  0
  195.8770  172.7500  145.5430 C   0  0  2  0  0  3  0  0  0  0  0  0
  197.1280  172.0100  145.3130 N   0  0  0  0  0  2  0  0  0  0  0  0
  195.8440  171.4130  144.9440 C   0  0  2  0  0  3  0  0  0  0  0  0
  195.7930  173.9310  144.5660 C   0  0  0  0  0  2  0  0  0  0  0  0
  193.9170  174.7400  146.0270 C   0  0  0  0  0  2  0  0  0  0  0  0
  195.3140  176.2570  143.0340 O   0  0  0  0  0  1  0  0  0  0  0  0
  194.4120  176.0650  144.0830 C   0  0  2  0  0  3  0  0  0  0  0  0
  194.1780  176.1760  146.4760 C   0  0  0  0  0  2  0  0  0  0  0  0
  194.7650  176.9140  145.2800 C   0  0  0  0  0  2  0  0  0  0  0  0
  194.4140  174.6260  144.5980 C   0  0  1  0  0  3  0  0  0  0  0  0
  189.0230  174.1670  141.8000 N   0  0  0  0  0  2  0  0  0  0  0  0
  188.9540  175.5200  142.3400 C   0  0  2  0  0  3  0  0  0  0  0  0
  190.1450  176.0770  146.4760 C   0  0  2  0  0  3  0  0  0  0  0  0
  189.5810  175.6120  143.7110 C   0  0  0  0  0  0  0  0  0  0  0  0
  190.1620  174.6200  146.0150 C   0  0  0  0  0  2  0  0  0  0  0  0
  189.4300  174.4490  144.6800 C   0  0  0  0  0  2  0  0  0  0  0  0
  190.1900  176.7580  144.0890 C   0  0  0  0  0  0  0  0  0  0  0  0
  190.2320  177.9550  143.1870 C   0  0  0  0  0  1  0  0  0  0  0  0
  190.8980  176.8690  145.4170 C   0  0  0  0  0  2  0  0  0  0  0  0
  191.0120  177.4630  148.3200 O   0  0  0  0  0  0  0  0  0  0  0  0
  190.8000  176.2170  147.7780 N   0  0  0  0  0  0  0  0  0  0  0  0
  191.3090  175.2280  148.3490 O   0  0  0  0  0  0  0  0  0  0  0  0
  187.0560  176.8720  141.0930 C   0  0  0  0  0  2  0  0  0  0  0  0
  186.0150  176.7160  144.2070 C   0  0  0  0  0  2  0  0  0  0  0  0
  185.2180  178.2410  142.3120 C   0  0  0  0  0  2  0  0  0  0  0  0
  185.4650  178.0680  143.8240 C   0  0  0  0  0  2  0  0  0  0  0  0
  187.5550  176.0720  142.2800 C   0  0  0  0  0  3  0  0  0  0  0  0
  186.5170  178.2800  141.4680 C   0  0  0  0  0  2  0  0  0  0  0  0
  186.8630  176.2250  143.3620 C   0  0  0  0  0  2  0  0  0  0  0  0
  1  5  1  0  0  0  0
  1  7  2  0  0  0  0
  2  7  1  6  0  0  0
  2 11  1  0  0  0  0
  3  9  1  0  0  0  0
  5 14  1  0  0  0  0
  6 12  1  0  0  0  0
  6  4  1  1  0  0  0
  7  3  1  0  0  0  0
  8  4  2  0  0  0  0
  8 31  1  0  0  0  0
 10 13  1  0  0  0  0
 10  6  1  0  0  0  0
 11  9  1  6  0  0  0
 11  8  1  0  0  0  0
 12 17  1  6  0  0  0
 13 12  1  0  0  0  0
 14  2  1  0  0  0  0
 14 10  2  0  0  0  0
 15 20  1  0  0  0  0
 15 19  1  0  0  0  0
 16 17  2  0  0  0  0
 17 15  1  0  0  0  0
 19 18  1  0  0  0  0
 21 24  1  6  0  0  0
 22 21  1  0  0  0  0
 23 20  1  6  0  0  0
 23 22  1  0  0  0  0
 23 21  1  0  0  0  0
 25 28  1  0  0  0  0
 27 26  1  6  0  0  0
 27 30  1  0  0  0  0
 27 29  1  0  0  0  0
 29 28  1  0  0  0  0
 30 24  1  1  0  0  0
 30 25  1  0  0  0  0
 32 31  1  1  0  0  0
 32 34  1  0  0  0  0
 33 41  1  1  0  0  0
 34 37  2  0  0  0  0
 34 36  1  0  0  0  0
 35 33  1  0  0  0  0
 36 35  1  0  0  0  0
 37 39  1  0  0  0  0
 38 37  1  0  0  0  0
 39 33  1  0  0  0  0
 41 40  2  0  0  0  0
 41 42  2  0  0  0  0
 43 48  1  0  0  0  0
 43 47  1  0  0  0  0
 45 46  1  0  0  0  0
 46 44  1  0  0  0  0
 47 32  1  0  0  0  0
 47 49  1  0  0  0  0
 48 45  1  0  0  0  0
 49 44  1  0  0  0  0
M  END
>  <MODEL>
5

>  <REMARK>
 VINA RESULT:      -7.5      2.802      7.155
  Name = 
  11 active torsions:
  status: ('A' for Active; 'I' for Inactive)
    1  A    between atoms: C_1  and  C_20
    2  A    between atoms: C_3  and  C_12
    3  A    between atoms: C_3  and  N_31
    4  A    between atoms: C_3  and  C_32
    5  A    between atoms: N_7  and  O_15
    6  A    between atoms: N_7  and  C_19
    7  A    between atoms: C_9  and  N_24
    8  A    between atoms: C_19  and  C_48
    9  A    between atoms: C_20  and  C_45
   10  A    between atoms: C_29  and  N_31
   11  A    between atoms: C_39  and  C_40
                            x       y       z     vdW  Elec       q    Type
                         _______ _______ _______ _____ _____    ______ ____

>  <TORSDO>
F 11

$$$$
=
 OpenBabel11062418183D

 49 56  0  0  1  0  0  0  0  0999 V2000
  191.2710  170.3350  139.3260 N   0  0  0  0  0  0  0  0  0  0  0  0
  191.6300  172.1280  140.6230 C   0  0  1  0  0  3  0  0  0  0  0  0
  193.1960  171.7430  138.9380 N   0  0  0  0  0  2  0  0  0  0  0  0
  191.0500  174.8410  141.9890 C   0  0  0  0  0  3  0  0  0  0  0  0
  190.0630  170.5450  140.1420 C   0  0  0  0  0  2  0  0  0  0  0  0
  189.7610  174.1250  141.8080 C   0  0  1  0  0  3  0  0  0  0  0  0
  192.1450  171.2000  139.7270 C   0  0  0  0  0  0  0  0  0  0  0  0
  192.1910  174.4880  141.3560 C   0  0  0  0  0  0  0  0  0  0  0  0
  193.4180  173.1160  139.4410 C   0  0  0  0  0  2  0  0  0  0  0  0
  189.4810  172.8440  141.3680 C   0  0  0  0  0  0  0  0  0  0  0  0
  192.1420  173.4660  140.2360 C   0  0  1  0  0  3  0  0  0  0  0  0
  188.3080  174.4030  142.0140 C   0  0  2  0  0  3  0  0  0  0  0  0
  188.0160  173.0620  141.5800 C   0  0  0  0  0  2  0  0  0  0  0  0
  190.3880  171.8080  140.8890 C   0  0  0  0  0  0  0  0  0  0  0  0
  187.2300  176.7230  141.5300 N   0  0  0  0  0  0  0  0  0  0  0  0
  188.0860  175.3610  139.8480 O   0  0  0  0  0  0  0  0  0  0  0  0
  187.8270  175.4880  141.0760 C   0  0  0  0  0  0  0  0  0  0  0  0
  188.7900  178.2720  141.6480 C   0  0  0  0  0  1  0  0  0  0  0  0
  187.6390  177.8920  140.9630 O   0  0  0  0  0  0  0  0  0  0  0  0
  186.0590  176.7410  142.4030 C   0  0  0  0  0  2  0  0  0  0  0  0
  184.8160  178.7010  143.5040 C   0  0  2  0  0  3  0  0  0  0  0  0
  183.9400  177.9420  142.5960 N   0  0  0  0  0  2  0  0  0  0  0  0
  185.3600  178.1010  142.2830 C   0  0  2  0  0  3  0  0  0  0  0  0
  185.0240  177.9040  144.7990 C   0  0  0  0  0  2  0  0  0  0  0  0
  185.2450  178.6590  147.1840 C   0  0  0  0  0  2  0  0  0  0  0  0
  187.8100  177.4410  144.9160 O   0  0  0  0  0  1  0  0  0  0  0  0
  187.2760  178.0260  146.0660 C   0  0  2  0  0  3  0  0  0  0  0  0
  185.9390  177.5840  148.0180 C   0  0  0  0  0  2  0  0  0  0  0  0
  187.0520  177.0040  147.1540 C   0  0  0  0  0  2  0  0  0  0  0  0
  185.9060  178.6560  145.8190 C   0  0  1  0  0  3  0  0  0  0  0  0
  193.4270  175.1740  141.6440 N   0  0  0  0  0  2  0  0  0  0  0  0
  194.3780  174.7570  142.6670 C   0  0  2  0  0  3  0  0  0  0  0  0
  194.3680  170.7050  144.2230 C   0  0  2  0  0  3  0  0  0  0  0  0
  194.2110  173.3010  143.0310 C   0  0  0  0  0  0  0  0  0  0  0  0
  193.0020  171.3920  144.2660 C   0  0  0  0  0  2  0  0  0  0  0  0
  193.1280  172.8980  144.0210 C   0  0  0  0  0  2  0  0  0  0  0  0
  195.0800  172.3880  142.5420 C   0  0  0  0  0  0  0  0  0  0  0  0
  196.2290  172.7930  141.6670 C   0  0  0  0  0  1  0  0  0  0  0  0
  194.9060  170.9140  142.8150 C   0  0  0  0  0  2  0  0  0  0  0  0
  193.0800  168.7780  145.0600 O   0  0  0  0  0  0  0  0  0  0  0  0
  194.2390  169.2750  144.5110 N   0  0  0  0  0  0  0  0  0  0  0  0
  195.2210  168.5090  144.4050 O   0  0  0  0  0  0  0  0  0  0  0  0
  195.4490  175.6610  144.9080 C   0  0  0  0  0  2  0  0  0  0  0  0
  192.3480  176.7490  145.0050 C   0  0  0  0  0  2  0  0  0  0  0  0
  194.0660  176.5950  146.8970 C   0  0  0  0  0  2  0  0  0  0  0  0
  192.5840  176.5240  146.4790 C   0  0  0  0  0  2  0  0  0  0  0  0
  194.3570  175.6790  143.8560 C   0  0  0  0  0  3  0  0  0  0  0  0
  194.9240  175.4260  146.3510 C   0  0  0  0  0  2  0  0  0  0  0  0
  193.2530  176.2370  144.2350 C   0  0  0  0  0  2  0  0  0  0  0  0
  1  7  2  0  0  0  0
  1  5  1  0  0  0  0
  2  7  1  6  0  0  0
  2 14  1  0  0  0  0
  3  9  1  0  0  0  0
  3  7  1  0  0  0  0
  5 14  1  0  0  0  0
  6  4  1  1  0  0  0
  6 12  1  0  0  0  0
  8 31  1  0  0  0  0
  8  4  2  0  0  0  0
 10 13  1  0  0  0  0
 10  6  1  0  0  0  0
 11  9  1  1  0  0  0
 11  2  1  0  0  0  0
 11  8  1  0  0  0  0
 12 17  1  6  0  0  0
 13 12  1  0  0  0  0
 14 10  2  0  0  0  0
 15 20  1  0  0  0  0
 16 17  2  0  0  0  0
 17 15  1  0  0  0  0
 19 15  1  0  0  0  0
 19 18  1  0  0  0  0
 21 24  1  1  0  0  0
 22 21  1  0  0  0  0
 23 20  1  1  0  0  0
 23 22  1  0  0  0  0
 23 21  1  0  0  0  0
 25 28  1  0  0  0  0
 27 26  1  6  0  0  0
 27 29  1  0  0  0  0
 29 28  1  0  0  0  0
 30 24  1  6  0  0  0
 30 27  1  0  0  0  0
 30 25  1  0  0  0  0
 32 31  1  6  0  0  0
 32 34  1  0  0  0  0
 32 47  1  0  0  0  0
 33 35  1  0  0  0  0
 33 41  1  6  0  0  0
 34 36  1  0  0  0  0
 36 35  1  0  0  0  0
 37 39  1  0  0  0  0
 37 34  2  0  0  0  0
 38 37  1  0  0  0  0
 39 33  1  0  0  0  0
 41 40  2  0  0  0  0
 42 41  2  0  0  0  0
 43 48  1  0  0  0  0
 44 46  1  0  0  0  0
 46 45  1  0  0  0  0
 47 49  1  0  0  0  0
 47 43  1  0  0  0  0
 48 45  1  0  0  0  0
 49 44  1  0  0  0  0
M  END
>  <MODEL>
6

>  <REMARK>
 VINA RESULT:      -7.3      1.688      2.274
  Name = 
  11 active torsions:
  status: ('A' for Active; 'I' for Inactive)
    1  A    between atoms: C_1  and  C_20
    2  A    between atoms: C_3  and  C_12
    3  A    between atoms: C_3  and  N_31
    4  A    between atoms: C_3  and  C_32
    5  A    between atoms: N_7  and  O_15
    6  A    between atoms: N_7  and  C_19
    7  A    between atoms: C_9  and  N_24
    8  A    between atoms: C_19  and  C_48
    9  A    between atoms: C_20  and  C_45
   10  A    between atoms: C_29  and  N_31
   11  A    between atoms: C_39  and  C_40
                            x       y       z     vdW  Elec       q    Type
                         _______ _______ _______ _____ _____    ______ ____

>  <TORSDO>
F 11

$$$$
=
 OpenBabel11062418183D

 49 56  0  0  1  0  0  0  0  0999 V2000
  197.6710  175.5710  143.4440 N   0  0  0  0  0  0  0  0  0  0  0  0
  195.8140  175.0820  144.6020 C   0  0  1  0  0  3  0  0  0  0  0  0
  195.6080  176.7350  142.9690 N   0  0  0  0  0  2  0  0  0  0  0  0
  193.5210  173.3520  145.7450 C   0  0  0  0  0  3  0  0  0  0  0  0
  197.9410  174.3530  144.2270 C   0  0  0  0  0  2  0  0  0  0  0  0
  194.7260  172.4950  145.6060 C   0  0  1  0  0  3  0  0  0  0  0  0
  196.4930  175.9790  143.7860 C   0  0  0  0  0  0  0  0  0  0  0  0
  193.3970  174.5620  145.1550 C   0  0  0  0  0  0  0  0  0  0  0  0
  194.2410  176.3350  143.3670 C   0  0  0  0  0  2  0  0  0  0  0  0
  196.0310  172.8020  145.2640 C   0  0  0  0  0  0  0  0  0  0  0  0
  194.4140  174.9980  144.1180 C   0  0  1  0  0  3  0  0  0  0  0  0
  195.0790  171.0530  145.7730 C   0  0  2  0  0  3  0  0  0  0  0  0
  196.4420  171.3740  145.4410 C   0  0  0  0  0  2  0  0  0  0  0  0
  196.6130  174.0810  144.8770 C   0  0  0  0  0  0  0  0  0  0  0  0
  194.6240  170.2800  143.3300 N   0  0  0  0  0  0  0  0  0  0  0  0
  193.6070  169.2840  145.1710 O   0  0  0  0  0  0  0  0  0  0  0  0
  194.3650  170.2000  144.7480 C   0  0  0  0  0  0  0  0  0  0  0  0
  193.6870  169.0590  141.7540 C   0  0  0  0  0  1  0  0  0  0  0  0
  194.7710  169.1220  142.6270 O   0  0  0  0  0  0  0  0  0  0  0  0
  194.5130  171.5360  142.5920 C   0  0  0  0  0  2  0  0  0  0  0  0
  195.9470  173.0180  141.0600 C   0  0  2  0  0  3  0  0  0  0  0  0
  195.8830  171.6310  140.5710 N   0  0  0  0  0  2  0  0  0  0  0  0
  195.8840  171.9030  142.0090 C   0  0  2  0  0  3  0  0  0  0  0  0
  194.6190  173.7280  140.7620 C   0  0  0  0  0  2  0  0  0  0  0  0
  196.2940  175.2830  139.7190 C   0  0  0  0  0  2  0  0  0  0  0  0
  192.9800  174.3570  138.5460 O   0  0  0  0  0  1  0  0  0  0  0  0
  194.1800  175.0710  138.5940 C   0  0  2  0  0  3  0  0  0  0  0  0
  196.5570  174.8810  138.2690 C   0  0  0  0  0  2  0  0  0  0  0  0
  195.2150  174.4760  137.6720 C   0  0  0  0  0  2  0  0  0  0  0  0
  194.8190  175.0470  139.9820 C   0  0  1  0  0  3  0  0  0  0  0  0
  192.2340  175.3780  145.4030 N   0  0  0  0  0  2  0  0  0  0  0  0
  191.1980  175.6520  144.4150 C   0  0  2  0  0  3  0  0  0  0  0  0
  187.2060  176.6230  145.8120 C   0  0  2  0  0  3  0  0  0  0  0  0
  189.9220  176.1420  145.0560 C   0  0  0  0  0  0  0  0  0  0  0  0
  188.1190  176.0420  146.8920 C   0  0  0  0  0  2  0  0  0  0  0  0
  189.3790  175.4200  146.2810 C   0  0  0  0  0  2  0  0  0  0  0  0
  189.2350  177.1560  144.4850 C   0  0  0  0  0  0  0  0  0  0  0  0
  189.6970  177.7890  143.2060 C   0  0  0  0  0  1  0  0  0  0  0  0
  187.9990  177.7300  145.1330 C   0  0  0  0  0  2  0  0  0  0  0  0
  185.0810  177.8590  145.6300 O   0  0  0  0  0  0  0  0  0  0  0  0
  185.9810  177.1650  146.4050 N   0  0  0  0  0  0  0  0  0  0  0  0
  185.8020  177.1390  147.6420 O   0  0  0  0  0  0  0  0  0  0  0  0
  191.0900  174.6320  141.9790 C   0  0  0  0  0  2  0  0  0  0  0  0
  189.6150  172.3750  143.8590 C   0  0  0  0  0  2  0  0  0  0  0  0
  189.5670  172.6370  141.3140 C   0  0  0  0  0  2  0  0  0  0  0  0
  188.8160  172.2070  142.5890 C   0  0  0  0  0  2  0  0  0  0  0  0
  190.9940  174.4860  143.4850 C   0  0  0  0  0  3  0  0  0  0  0  0
  189.8170  174.1630  141.2220 C   0  0  0  0  0  2  0  0  0  0  0  0
  190.3620  173.4300  143.8850 C   0  0  0  0  0  2  0  0  0  0  0  0
  1  7  2  0  0  0  0
  1  5  1  0  0  0  0
  2  7  1  6  0  0  0
  2 14  1  0  0  0  0
  3  9  1  0  0  0  0
  3  7  1  0  0  0  0
  5 14  1  0  0  0  0
  6  4  1  1  0  0  0
  6 12  1  0  0  0  0
  8 31  1  0  0  0  0
  8  4  2  0  0  0  0
 10 13  1  0  0  0  0
 10  6  1  0  0  0  0
 11  9  1  1  0  0  0
 11  2  1  0  0  0  0
 11  8  1  0  0  0  0
 12 17  1  6  0  0  0
 13 12  1  0  0  0  0
 14 10  2  0  0  0  0
 15 17  1  0  0  0  0
 17 16  2  0  0  0  0
 18 19  1  0  0  0  0
 19 15  1  0  0  0  0
 20 15  1  0  0  0  0
 21 24  1  6  0  0  0
 21 23  1  0  0  0  0
 22 21  1  0  0  0  0
 22 23  1  0  0  0  0
 23 20  1  6  0  0  0
 25 30  1  0  0  0  0
 27 26  1  1  0  0  0
 27 30  1  0  0  0  0
 28 25  1  0  0  0  0
 29 28  1  0  0  0  0
 29 27  1  0  0  0  0
 30 24  1  6  0  0  0
 32 34  1  0  0  0  0
 32 31  1  1  0  0  0
 33 41  1  1  0  0  0
 33 35  1  0  0  0  0
 34 36  1  0  0  0  0
 36 35  1  0  0  0  0
 37 34  2  0  0  0  0
 37 39  1  0  0  0  0
 38 37  1  0  0  0  0
 39 33  1  0  0  0  0
 40 41  2  0  0  0  0
 41 42  2  0  0  0  0
 43 47  1  0  0  0  0
 44 49  1  0  0  0  0
 45 46  1  0  0  0  0
 46 44  1  0  0  0  0
 47 49  1  0  0  0  0
 47 32  1  0  0  0  0
 48 45  1  0  0  0  0
 48 43  1  0  0  0  0
M  END
>  <MODEL>
7

>  <REMARK>
 VINA RESULT:      -7.2      2.434      8.527
  Name = 
  11 active torsions:
  status: ('A' for Active; 'I' for Inactive)
    1  A    between atoms: C_1  and  C_20
    2  A    between atoms: C_3  and  C_12
    3  A    between atoms: C_3  and  N_31
    4  A    between atoms: C_3  and  C_32
    5  A    between atoms: N_7  and  O_15
    6  A    between atoms: N_7  and  C_19
    7  A    between atoms: C_9  and  N_24
    8  A    between atoms: C_19  and  C_48
    9  A    between atoms: C_20  and  C_45
   10  A    between atoms: C_29  and  N_31
   11  A    between atoms: C_39  and  C_40
                            x       y       z     vdW  Elec       q    Type
                         _______ _______ _______ _____ _____    ______ ____

>  <TORSDO>
F 11

$$$$
=
 OpenBabel11062418183D

 49 56  0  0  1  0  0  0  0  0999 V2000
  192.1620  176.2140  145.2850 N   0  0  0  0  0  0  0  0  0  0  0  0
  191.1160  175.1680  143.6000 C   0  0  1  0  0  3  0  0  0  0  0  0
  191.7920  173.8290  145.3860 N   0  0  0  0  0  2  0  0  0  0  0  0
  188.8610  174.5200  141.5860 C   0  0  0  0  0  3  0  0  0  0  0  0
  191.6000  177.2480  144.3980 C   0  0  0  0  0  2  0  0  0  0  0  0
  188.8130  175.9740  141.8890 C   0  0  1  0  0  3  0  0  0  0  0  0
  191.9380  175.0750  144.7160 C   0  0  0  0  0  0  0  0  0  0  0  0
  189.5550  173.6290  142.3290 C   0  0  0  0  0  0  0  0  0  0  0  0
  190.8530  173.0320  144.5680 C   0  0  0  0  0  2  0  0  0  0  0  0
  189.6620  176.7830  142.6210 C   0  0  0  0  0  0  0  0  0  0  0  0
  190.1350  174.0570  143.6640 C   0  0  1  0  0  3  0  0  0  0  0  0
  187.9340  177.1380  141.5660 C   0  0  2  0  0  3  0  0  0  0  0  0
  188.8310  177.9870  142.3070 C   0  0  0  0  0  2  0  0  0  0  0  0
  190.8600  176.4320  143.3750 C   0  0  0  0  0  0  0  0  0  0  0  0
  185.5680  178.0150  142.2040 N   0  0  0  0  0  0  0  0  0  0  0  0
  186.2390  175.8200  142.5890 O   0  0  0  0  0  0  0  0  0  0  0  0
  186.5660  176.9710  142.1890 C   0  0  0  0  0  0  0  0  0  0  0  0
  184.0620  178.2450  140.6140 C   0  0  0  0  0  1  0  0  0  0  0  0
  184.2850  177.6970  141.8740 O   0  0  0  0  0  0  0  0  0  0  0  0
  185.8380  179.3350  142.7720 C   0  0  0  0  0  2  0  0  0  0  0  0
  185.2590  179.2280  145.2730 C   0  0  2  0  0  3  0  0  0  0  0  0
  184.4080  178.3270  144.4780 N   0  0  0  0  0  2  0  0  0  0  0  0
  184.8520  179.6030  143.9160 C   0  0  2  0  0  3  0  0  0  0  0  0
  186.6600  178.6170  145.4130 C   0  0  0  0  0  2  0  0  0  0  0  0
  187.4600  176.2630  145.7680 C   0  0  0  0  0  2  0  0  0  0  0  0
  187.2050  178.9860  148.1620 O   0  0  0  0  0  1  0  0  0  0  0  0
  187.3890  177.6770  147.7100 C   0  0  2  0  0  3  0  0  0  0  0  0
  188.8440  176.2660  146.4120 C   0  0  0  0  0  2  0  0  0  0  0  0
  188.8460  177.3800  147.4520 C   0  0  0  0  0  2  0  0  0  0  0  0
  186.6840  177.4140  146.3800 C   0  0  1  0  0  3  0  0  0  0  0  0
  189.6290  172.2460  141.9270 N   0  0  0  0  0  2  0  0  0  0  0  0
  190.6850  171.6900  141.0900 C   0  0  2  0  0  3  0  0  0  0  0  0
  194.4990  173.7130  140.6470 C   0  0  2  0  0  3  0  0  0  0  0  0
  191.9290  172.5460  141.1100 C   0  0  0  0  0  0  0  0  0  0  0  0
  193.2880  174.5960  140.3470 C   0  0  0  0  0  2  0  0  0  0  0  0
  192.0120  173.7610  140.1970 C   0  0  0  0  0  2  0  0  0  0  0  0
  192.9830  172.1730  141.8690 C   0  0  0  0  0  0  0  0  0  0  0  0
  192.9580  170.9070  142.6730 C   0  0  0  0  0  1  0  0  0  0  0  0
  194.2150  173.0370  141.9800 C   0  0  0  0  0  2  0  0  0  0  0  0
  196.0430  175.4020  139.7310 O   0  0  0  0  0  0  0  0  0  0  0  0
  195.7200  174.5180  140.7340 N   0  0  0  0  0  0  0  0  0  0  0  0
  196.5590  174.3140  141.6380 O   0  0  0  0  0  0  0  0  0  0  0  0
  190.9930  170.5330  138.7340 C   0  0  0  0  0  2  0  0  0  0  0  0
  188.6000  172.7320  138.2410 C   0  0  0  0  0  2  0  0  0  0  0  0
  190.0240  171.4830  136.5200 C   0  0  0  0  0  2  0  0  0  0  0  0
  189.2630  172.7720  136.8860 C   0  0  0  0  0  2  0  0  0  0  0  0
  190.1910  171.3800  139.7030 C   0  0  0  0  0  3  0  0  0  0  0  0
  191.2880  171.2390  137.3820 C   0  0  0  0  0  2  0  0  0  0  0  0
  189.2800  172.1140  139.1510 C   0  0  0  0  0  2  0  0  0  0  0  0
  2 14  1  1  0  0  0
  2 11  1  0  0  0  0
  2  7  1  0  0  0  0
  4  8  2  0  0  0  0
  5  1  1  0  0  0  0
  6  4  1  6  0  0  0
  6 10  1  0  0  0  0
  7  1  2  0  0  0  0
  7  3  1  0  0  0  0
  8 11  1  0  0  0  0
  9  3  1  0  0  0  0
 10 14  2  0  0  0  0
 11  9  1  6  0  0  0
 12  6  1  0  0  0  0
 12 17  1  1  0  0  0
 12 13  1  0  0  0  0
 13 10  1  0  0  0  0
 14  5  1  0  0  0  0
 15 20  1  0  0  0  0
 17 15  1  0  0  0  0
 17 16  2  0  0  0  0
 18 19  1  0  0  0  0
 19 15  1  0  0  0  0
 21 24  1  6  0  0  0
 22 21  1  0  0  0  0
 23 20  1  6  0  0  0
 23 22  1  0  0  0  0
 23 21  1  0  0  0  0
 25 30  1  0  0  0  0
 25 28  1  0  0  0  0
 27 26  1  6  0  0  0
 28 29  1  0  0  0  0
 29 27  1  0  0  0  0
 30 24  1  6  0  0  0
 30 27  1  0  0  0  0
 31  8  1  0  0  0  0
 32 34  1  0  0  0  0
 32 31  1  1  0  0  0
 33 41  1  1  0  0  0
 33 39  1  0  0  0  0
 34 37  2  0  0  0  0
 35 33  1  0  0  0  0
 36 35  1  0  0  0  0
 36 34  1  0  0  0  0
 37 39  1  0  0  0  0
 37 38  1  0  0  0  0
 40 41  2  0  0  0  0
 41 42  2  0  0  0  0
 43 47  1  0  0  0  0
 44 49  1  0  0  0  0
 45 46  1  0  0  0  0
 45 48  1  0  0  0  0
 46 44  1  0  0  0  0
 47 32  1  0  0  0  0
 48 43  1  0  0  0  0
 49 47  1  0  0  0  0
M  END
>  <MODEL>
8

>  <REMARK>
 VINA RESULT:      -7.2      2.625      5.743
  Name = 
  11 active torsions:
  status: ('A' for Active; 'I' for Inactive)
    1  A    between atoms: C_1  and  C_20
    2  A    between atoms: C_3  and  C_12
    3  A    between atoms: C_3  and  N_31
    4  A    between atoms: C_3  and  C_32
    5  A    between atoms: N_7  and  O_15
    6  A    between atoms: N_7  and  C_19
    7  A    between atoms: C_9  and  N_24
    8  A    between atoms: C_19  and  C_48
    9  A    between atoms: C_20  and  C_45
   10  A    between atoms: C_29  and  N_31
   11  A    between atoms: C_39  and  C_40
                            x       y       z     vdW  Elec       q    Type
                         _______ _______ _______ _____ _____    ______ ____

>  <TORSDO>
F 11

$$$$
=
 OpenBabel11062418183D

 49 56  0  0  1  0  0  0  0  0999 V2000
  187.5180  177.2870  145.6700 N   0  0  0  0  0  0  0  0  0  0  0  0
  188.9670  175.8070  144.8110 C   0  0  1  0  0  3  0  0  0  0  0  0
  187.8000  177.1210  143.2760 N   0  0  0  0  0  2  0  0  0  0  0  0
  191.6770  174.4020  144.3190 C   0  0  0  0  0  2  0  0  0  0  0  0
  188.3210  176.7520  146.7820 C   0  0  0  0  0  2  0  0  0  0  0  0
  191.6680  174.9240  145.7100 C   0  0  1  0  0  3  0  0  0  0  0  0
  187.8680  176.6330  144.6100 C   0  0  0  0  0  0  0  0  0  0  0  0
  190.7890  174.7860  143.3760 C   0  0  0  0  0  0  0  0  0  0  0  0
  188.9140  176.4750  142.5480 C   0  0  0  0  0  2  0  0  0  0  0  0
  190.6650  175.5140  146.4580 C   0  0  0  0  0  0  0  0  0  0  0  0
  189.8720  175.9640  143.6450 C   0  0  1  0  0  3  0  0  0  0  0  0
  192.6230  175.0300  146.8540 C   0  0  2  0  0  3  0  0  0  0  0  0
  191.5730  175.6220  147.6420 C   0  0  0  0  0  2  0  0  0  0  0  0
  189.3000  175.8550  146.0770 C   0  0  0  0  0  0  0  0  0  0  0  0
  194.8360  175.6180  145.6170 N   0  0  0  0  0  0  0  0  0  0  0  0
  193.6960  177.1510  146.9460 O   0  0  0  0  0  0  0  0  0  0  0  0
  193.7640  175.9650  146.5200 C   0  0  0  0  0  0  0  0  0  0  0  0
  194.3510  176.3680  143.6030 C   0  0  0  0  0  1  0  0  0  0  0  0
  195.2210  176.5290  144.6790 O   0  0  0  0  0  0  0  0  0  0  0  0
  195.6630  174.4300  145.8170 C   0  0  0  0  0  2  0  0  0  0  0  0
  197.2680  172.9400  144.4750 C   0  0  2  0  0  3  0  0  0  0  0  0
  197.9400  174.1510  144.9760 N   0  0  0  0  0  2  0  0  0  0  0  0
  196.5330  174.2040  144.5750 C   0  0  2  0  0  3  0  0  0  0  0  0
  197.0700  171.9500  145.6310 C   0  0  0  0  0  2  0  0  0  0  0  0
  197.9130  169.5930  145.4300 C   0  0  0  0  0  2  0  0  0  0  0  0
  194.5490  170.7750  146.1370 O   0  0  0  0  0  1  0  0  0  0  0  0
  195.5560  169.8600  145.8190 C   0  0  2  0  0  3  0  0  0  0  0  0
  197.5350  168.7890  146.6730 C   0  0  0  0  0  2  0  0  0  0  0  0
  196.1210  169.2060  147.0560 C   0  0  0  0  0  2  0  0  0  0  0  0
  196.7510  170.5220  145.1350 C   0  0  1  0  0  3  0  0  0  0  0  0
  190.8020  174.1740  142.0700 N   0  0  0  0  0  0  0  0  0  0  0  0
  191.5900  172.9970  141.7230 C   0  0  2  0  0  3  0  0  0  0  0  0
  195.3710  173.4500  139.6410 C   0  0  2  0  0  3  0  0  0  0  0  0
  192.9220  173.3690  141.1170 C   0  0  0  0  0  0  0  0  0  0  0  0
  194.3550  174.5510  139.3340 C   0  0  0  0  0  2  0  0  0  0  0  0
  192.9550  174.1700  139.8230 C   0  0  0  0  0  2  0  0  0  0  0  0
  194.0630  172.9130  141.6820 C   0  0  0  0  0  0  0  0  0  0  0  0
  194.0340  172.0160  142.8840 C   0  0  0  0  0  1  0  0  0  0  0  0
  195.4160  173.3230  141.1570 C   0  0  0  0  0  2  0  0  0  0  0  0
  197.6870  174.2250  139.9730 O   0  0  0  0  0  0  0  0  0  0  0  0
  196.6930  173.8040  139.1210 N   0  0  0  0  0  0  0  0  0  0  0  0
  196.9000  173.8730  137.8890 O   0  0  0  0  0  0  0  0  0  0  0  0
  191.3560  170.6720  140.4900 C   0  0  0  0  0  2  0  0  0  0  0  0
  188.9580  172.5110  139.1960 C   0  0  0  0  0  2  0  0  0  0  0  0
  189.9500  170.3130  138.3370 C   0  0  0  0  0  2  0  0  0  0  0  0
  189.3120  171.6730  137.9910 C   0  0  0  0  0  2  0  0  0  0  0  0
  190.8010  172.0240  140.8890 C   0  0  0  0  0  3  0  0  0  0  0  0
  191.3650  170.4270  138.9550 C   0  0  0  0  0  2  0  0  0  0  0  0
  189.8070  172.4330  140.1690 C   0  0  0  0  0  2  0  0  0  0  0  0
  1  5  1  0  0  0  0
  2  7  1  1  0  0  0
  2 14  1  0  0  0  0
  3  7  1  0  0  0  0
  6  4  1  1  0  0  0
  6 10  1  0  0  0  0
  6 12  1  0  0  0  0
  7  1  2  0  0  0  0
  8 11  1  0  0  0  0
  8  4  1  0  0  0  0
  9  3  1  0  0  0  0
 10 13  1  0  0  0  0
 11  9  1  6  0  0  0
 11  2  1  0  0  0  0
 12 17  1  6  0  0  0
 12 13  1  0  0  0  0
 14 10  2  0  0  0  0
 14  5  1  0  0  0  0
 15 20  1  0  0  0  0
 15 17  1  0  0  0  0
 17 16  2  0  0  0  0
 18 19  1  0  0  0  0
 19 15  1  0  0  0  0
 21 23  1  0  0  0  0
 21 22  1  0  0  0  0
 21 24  1  1  0  0  0
 23 22  1  0  0  0  0
 23 20  1  1  0  0  0
 25 28  1  0  0  0  0
 27 26  1  1  0  0  0
 27 29  1  0  0  0  0
 28 29  1  0  0  0  0
 30 25  1  0  0  0  0
 30 24  1  1  0  0  0
 30 27  1  0  0  0  0
 31  8  2  0  0  0  0
 32 31  1  6  0  0  0
 33 41  1  1  0  0  0
 33 39  1  0  0  0  0
 34 37  2  0  0  0  0
 34 32  1  0  0  0  0
 35 33  1  0  0  0  0
 35 36  1  0  0  0  0
 36 34  1  0  0  0  0
 37 38  1  0  0  0  0
 39 37  1  0  0  0  0
 41 40  2  0  0  0  0
 42 41  2  0  0  0  0
 43 47  1  0  0  0  0
 44 49  1  0  0  0  0
 45 48  1  0  0  0  0
 46 45  1  0  0  0  0
 46 44  1  0  0  0  0
 47 32  1  0  0  0  0
 48 43  1  0  0  0  0
 49 47  1  0  0  0  0
M  END
>  <MODEL>
9

>  <REMARK>
 VINA RESULT:      -7.1      3.044      8.686
  Name = 
  11 active torsions:
  status: ('A' for Active; 'I' for Inactive)
    1  A    between atoms: C_1  and  C_20
    2  A    between atoms: C_3  and  C_12
    3  A    between atoms: C_3  and  N_31
    4  A    between atoms: C_3  and  C_32
    5  A    between atoms: N_7  and  O_15
    6  A    between atoms: N_7  and  C_19
    7  A    between atoms: C_9  and  N_24
    8  A    between atoms: C_19  and  C_48
    9  A    between atoms: C_20  and  C_45
   10  A    between atoms: C_29  and  N_31
   11  A    between atoms: C_39  and  C_40
                            x       y       z     vdW  Elec       q    Type
                         _______ _______ _______ _____ _____    ______ ____

>  <TORSDO>
F 11

$$$$
