=
 OpenBabel11062422353D

 67 75  0  0  1  0  0  0  0  0999 V2000
  193.0190  174.0570  139.7620 C   0  0  0  0  0  0  0  0  0  0  0  0
  191.9190  173.4340  140.0020 C   0  0  0  0  0  0  0  0  0  0  0  0
  193.9810  174.6260  139.2570 C   0  0  0  0  0  3  0  0  0  0  0  0
  196.1100  174.6680  139.9920 O   0  0  0  0  0  0  0  0  0  0  0  0
  195.2400  174.1490  139.1650 C   0  0  0  0  0  0  0  0  0  0  0  0
  195.0880  172.7440  138.9210 O   0  0  0  0  0  0  0  0  0  0  0  0
  197.0350  172.0200  139.6600 O   0  0  0  0  0  0  0  0  0  0  0  0
  196.9550  169.8770  138.9510 C   0  0  0  0  0  2  0  0  0  0  0  0
  195.6790  171.6730  139.6420 C   0  0  2  0  0  0  0  0  0  0  0  0
  197.7570  170.9930  139.1630 O   0  0  0  0  0  0  0  0  0  0  0  0
  195.6380  170.4640  138.6590 C   0  0  0  0  0  2  0  0  0  0  0  0
  196.1080  170.7070  141.9720 O   0  0  0  0  0  0  0  0  0  0  0  0
  195.9070  172.0120  142.3340 C   0  0  1  0  0  3  0  0  0  0  0  0
  195.1790  171.3280  141.1600 C   0  0  1  0  0  0  0  0  0  0  0  0
  194.6440  176.7680  145.9140 N   0  0  0  0  0  0  0  0  0  0  0  0
  196.6460  174.8280  144.3900 F   0  0  0  0  0  0  0  0  0  0  0  0
  194.4380  175.4950  145.3280 C   0  0  0  0  0  0  0  0  0  0  0  0
  193.5300  174.7910  145.9290 C   0  0  0  0  0  0  0  0  0  0  0  0
  193.6550  176.8540  146.9850 C   0  0  0  0  0  3  0  0  0  0  0  0
  194.6830  172.6360  143.0820 C   0  0  2  0  0  3  0  0  0  0  0  0
  193.5550  173.3990  145.3450 C   0  0  0  0  0  2  0  0  0  0  0  0
  194.5490  174.1630  143.1190 C   0  0  2  0  0  3  0  0  0  0  0  0
  193.0010  175.5670  147.0140 O   0  0  0  0  0  0  0  0  0  0  0  0
  195.2440  174.8020  144.3500 C   0  0  1  0  0  0  0  0  0  0  0  0
  194.8640  173.3680  144.4310 C   0  0  2  0  0  0  0  0  0  0  0  0
  193.0890  169.8680  140.3590 O   0  0  0  0  0  0  0  0  0  0  0  0
  194.0560  170.1400  141.3310 C   0  0  0  0  0  0  0  0  0  0  0  0
  194.5290  168.8840  141.7700 O   0  0  0  0  0  0  0  0  0  0  0  0
  194.7610  169.5080  146.5510 C   0  0  0  0  0  2  0  0  0  0  0  0
  194.0720  168.1690  142.8520 C   0  0  0  0  0  2  0  0  0  0  0  0
  194.9520  169.3480  145.0850 C   0  0  0  0  0  3  0  0  0  0  0  0
  195.9400  170.1470  145.9450 C   0  0  0  0  0  2  0  0  0  0  0  0
  194.4730  168.7370  143.9870 C   0  0  0  0  0  2  0  0  0  0  0  0
  191.2130  173.0960  138.8240 O   0  0  0  0  0  0  0  0  0  0  0  0
  191.4190  171.9480  138.2060 O   0  0  0  0  0  0  0  0  0  0  0  0
  189.2280  172.1270  138.0870 O   0  0  0  0  0  1  0  0  0  0  0  0
  190.2690  171.2430  137.8450 C   0  0  2  0  0  0  0  0  0  0  0  0
  189.8720  170.2940  138.7610 F   0  0  0  0  0  0  0  0  0  0  0  0
  190.1090  170.6400  136.3640 C   0  0  0  0  0  2  0  0  0  0  0  0
  191.3430  170.7080  135.7210 O   0  0  0  0  0  1  0  0  0  0  0  0
  191.5040  173.0230  141.3690 C   0  0  0  0  0  2  0  0  0  0  0  0
  190.4910  174.0130  142.1250 C   0  0  2  0  0  3  0  0  0  0  0  0
  192.6300  176.6190  142.4260 N   0  0  0  0  0  1  0  0  0  0  0  0
  191.2550  176.4470  142.9060 C   0  0  1  0  0  3  0  0  0  0  0  0
  190.9720  175.0010  143.2930 C   0  0  1  0  0  3  0  0  0  0  0  0
  190.0220  176.6480  144.8440 C   0  0  1  0  0  3  0  0  0  0  0  0
  189.8430  175.2200  144.3110 C   0  0  2  0  0  3  0  0  0  0  0  0
  191.1240  177.2690  144.0830 N   0  0  0  0  0  2  0  0  0  0  0  0
  188.7450  178.4890  143.9490 O   0  0  0  0  0  0  0  0  0  0  0  0
  185.8070  178.1930  147.1890 C   0  0  1  0  0  3  0  0  0  0  0  0
  187.4110  176.3990  146.7350 C   0  0  0  0  0  2  0  0  0  0  0  0
  184.4600  177.9760  146.8950 O   0  0  0  0  0  1  0  0  0  0  0  0
  188.7660  177.5700  144.8620 C   0  0  0  0  0  0  0  0  0  0  0  0
  186.4350  176.9260  147.7990 C   0  0  0  0  0  2  0  0  0  0  0  0
  186.5410  178.4770  145.8730 C   0  0  0  0  0  2  0  0  0  0  0  0
  187.5930  177.4950  145.7420 N   0  0  0  0  0  0  0  0  0  0  0  0
  189.7370  173.9960  145.2520 C   0  0  0  0  0  0  0  0  0  0  0  0
  189.8130  172.8560  144.8360 O   0  0  0  0  0  0  0  0  0  0  0  0
  189.8210  174.2090  146.6170 O   0  0  0  0  0  1  0  0  0  0  0  0
  188.9960  173.9320  141.6340 C   0  0  2  0  0  3  0  0  0  0  0  0
  188.5200  172.6280  141.4200 O   0  0  0  0  0  1  0  0  0  0  0  0
  188.6490  174.8670  140.4550 C   0  0  0  0  0  2  0  0  0  0  0  0
  187.7000  175.9130  140.9540 N   0  0  0  0  0  0  0  0  0  0  0  0
  187.0390  176.4110  139.7530 C   0  0  0  0  0  2  0  0  0  0  0  0
  187.3290  175.4190  138.6710 C   0  0  0  0  0  1  0  0  0  0  0  0
  186.9290  175.6060  142.1370 C   0  0  0  0  0  2  0  0  0  0  0  0
  186.0790  176.7680  142.6690 C   0  0  0  0  0  1  0  0  0  0  0  0
  1  2  2  0  0  0  0
  2 41  1  0  0  0  0
  3  1  2  0  0  0  0
  5  3  1  0  0  0  0
  5  4  2  0  0  0  0
  6  5  1  0  0  0  0
  8 10  1  0  0  0  0
  9  6  1  6  0  0  0
  9  7  1  0  0  0  0
  9 14  1  0  0  0  0
 10  7  1  0  0  0  0
 11  8  1  0  0  0  0
 11  9  1  0  0  0  0
 13 12  1  1  0  0  0
 14 27  1  1  0  0  0
 14 12  1  0  0  0  0
 14 13  1  0  0  0  0
 15 19  2  0  0  0  0
 17 15  1  0  0  0  0
 17 18  2  0  0  0  0
 18 23  1  0  0  0  0
 19 23  1  0  0  0  0
 20 13  1  6  0  0  0
 20 22  1  0  0  0  0
 20 25  1  0  0  0  0
 21 18  1  0  0  0  0
 22 24  1  0  0  0  0
 22 25  1  0  0  0  0
 24 16  1  0  0  0  0
 24 25  1  0  0  0  0
 24 17  1  0  0  0  0
 25 21  1  0  0  0  0
 26 27  2  0  0  0  0
 27 28  1  0  0  0  0
 28 30  1  0  0  0  0
 30 33  1  0  0  0  0
 31 32  1  0  0  0  0
 31 29  1  0  0  0  0
 32 29  1  0  0  0  0
 33 31  1  0  0  0  0
 34  2  1  0  0  0  0
 35 34  1  0  0  0  0
 37 36  1  0  0  0  0
 37 35  1  0  0  0  0
 37 38  1  0  0  0  0
 39 37  1  0  0  0  0
 40 39  1  0  0  0  0
 41 42  1  0  0  0  0
 42 45  1  0  0  0  0
 43 44  1  0  0  0  0
 44 45  1  0  0  0  0
 44 48  1  0  0  0  0
 45 47  1  0  0  0  0
 46 53  1  0  0  0  0
 47 46  1  0  0  0  0
 47 57  1  0  0  0  0
 48 46  1  0  0  0  0
 49 53  2  0  0  0  0
 50 54  1  0  0  0  0
 51 54  1  0  0  0  0
 52 50  1  0  0  0  0
 53 56  1  0  0  0  0
 55 50  1  0  0  0  0
 56 55  1  0  0  0  0
 56 51  1  0  0  0  0
 57 59  1  0  0  0  0
 58 57  2  0  0  0  0
 60 42  1  0  0  0  0
 61 60  1  0  0  0  0
 62 63  1  0  0  0  0
 62 60  1  0  0  0  0
 63 66  1  0  0  0  0
 64 63  1  0  0  0  0
 65 64  1  0  0  0  0
 66 67  1  0  0  0  0
M  END
>  <MODEL>
1

>  <REMARK>
 VINA RESULT:      -5.5      0.000      0.000
  Name = 
  22 active torsions:
  status: ('A' for Active; 'I' for Inactive)
    1  A    between atoms: C_1  and  N_54
    2  A    between atoms: C_10  and  O_36
    3  A    between atoms: C_11  and  C_16
    4  A    between atoms: C_11  and  N_54
    5  A    between atoms: O_12  and  C_20
    6  A    between atoms: O_12  and  C_30
    7  A    between atoms: C_16  and  C_23
    8  A    between atoms: C_20  and  C_61
    9  A    between atoms: C_23  and  C_40
   10  A    between atoms: C_23  and  C_62
   11  A    between atoms: C_25  and  C_39
   12  A    between atoms: C_27  and  N_54
   13  A    between atoms: C_30  and  C_60
   14  A    between atoms: C_34  and  C_43
   15  A    between atoms: C_35  and  O_48
   16  A    between atoms: C_35  and  C_62
   17  A    between atoms: O_36  and  C_64
   18  A    between atoms: C_38  and  C_51
   19  A    between atoms: C_39  and  O_56
   20  A    between atoms: C_45  and  C_46
   21  A    between atoms: O_48  and  O_56
   22  A    between atoms: C_61  and  C_64
                            x       y       z     vdW  Elec       q    Type
                         _______ _______ _______ _____ _____    ______ ____

>  <TORSDO>
F 22

$$$$
=
 OpenBabel11062422353D

 67 75  0  0  1  0  0  0  0  0999 V2000
  190.4670  173.0280  144.4770 C   0  0  0  0  0  0  0  0  0  0  0  0
  189.7490  174.0930  144.5490 C   0  0  0  0  0  0  0  0  0  0  0  0
  191.2850  172.1280  144.6380 C   0  0  0  0  0  3  0  0  0  0  0  0
  193.1480  172.8580  143.6030 O   0  0  0  0  0  0  0  0  0  0  0  0
  192.3450  171.8550  143.8500 C   0  0  0  0  0  0  0  0  0  0  0  0
  192.7780  170.5470  144.2500 O   0  0  0  0  0  0  0  0  0  0  0  0
  194.0300  168.7410  144.4260 O   0  0  0  0  0  0  0  0  0  0  0  0
  194.9900  169.1200  146.4360 C   0  0  0  0  0  2  0  0  0  0  0  0
  194.1000  170.1320  144.5610 C   0  0  2  0  0  0  0  0  0  0  0  0
  194.4650  168.1680  145.5680 O   0  0  0  0  0  0  0  0  0  0  0  0
  194.2240  170.3320  146.1010 C   0  0  0  0  0  2  0  0  0  0  0  0
  196.0470  169.7760  142.9400 O   0  0  0  0  0  0  0  0  0  0  0  0
  195.2960  170.6170  142.1640 C   0  0  1  0  0  3  0  0  0  0  0  0
  195.3660  170.7060  143.7010 C   0  0  1  0  0  0  0  0  0  0  0  0
  196.0730  174.0570  137.2050 N   0  0  0  0  0  0  0  0  0  0  0  0
  195.7910  171.2650  138.6940 F   0  0  0  0  0  0  0  0  0  0  0  0
  196.1580  173.7250  138.5790 C   0  0  0  0  0  0  0  0  0  0  0  0
  196.9660  174.4890  139.2460 C   0  0  0  0  0  0  0  0  0  0  0  0
  196.9090  175.2450  137.0520 C   0  0  0  0  0  3  0  0  0  0  0  0
  195.5780  172.1100  141.7940 C   0  0  2  0  0  3  0  0  0  0  0  0
  197.1240  173.9070  140.6300 C   0  0  0  0  0  2  0  0  0  0  0  0
  194.8700  172.7080  140.5720 C   0  0  2  0  0  3  0  0  0  0  0  0
  197.5120  175.4640  138.3460 O   0  0  0  0  0  0  0  0  0  0  0  0
  195.6830  172.5430  139.2610 C   0  0  1  0  0  0  0  0  0  0  0  0
  196.4180  172.4770  140.5500 C   0  0  2  0  0  0  0  0  0  0  0  0
  197.9390  171.3900  143.9370 O   0  0  0  0  0  0  0  0  0  0  0  0
  196.6980  171.1740  144.5430 C   0  0  0  0  0  0  0  0  0  0  0  0
  196.5240  172.2340  145.4590 O   0  0  0  0  0  0  0  0  0  0  0  0
  195.7940  176.7880  144.0350 C   0  0  0  0  0  2  0  0  0  0  0  0
  197.2670  173.3890  145.5280 C   0  0  0  0  0  2  0  0  0  0  0  0
  195.9580  175.3220  144.2250 C   0  0  0  0  0  3  0  0  0  0  0  0
  195.0380  175.8980  143.1410 C   0  0  0  0  0  2  0  0  0  0  0  0
  196.6370  174.3830  144.9060 C   0  0  0  0  0  2  0  0  0  0  0  0
  190.1600  174.9610  145.5880 O   0  0  0  0  0  0  0  0  0  0  0  0
  191.3250  175.5790  145.5440 O   0  0  0  0  0  0  0  0  0  0  0  0
  192.8630  176.7350  146.6170 O   0  0  0  0  0  1  0  0  0  0  0  0
  192.0170  175.6450  146.7560 C   0  0  2  0  0  0  0  0  0  0  0  0
  193.0130  174.7030  146.8940 F   0  0  0  0  0  0  0  0  0  0  0  0
  191.2230  175.7740  148.1460 C   0  0  0  0  0  2  0  0  0  0  0  0
  191.4120  177.0580  148.6510 O   0  0  0  0  0  1  0  0  0  0  0  0
  188.6780  174.4150  143.5700 C   0  0  0  0  0  2  0  0  0  0  0  0
  189.1620  175.0600  142.1820 C   0  0  2  0  0  3  0  0  0  0  0  0
  187.1510  176.3890  139.8060 N   0  0  0  0  0  1  0  0  0  0  0  0
  187.2780  176.6950  141.2350 C   0  0  1  0  0  3  0  0  0  0  0  0
  188.7130  176.5280  141.7190 C   0  0  1  0  0  3  0  0  0  0  0  0
  187.5770  178.5010  142.6360 C   0  0  1  0  0  3  0  0  0  0  0  0
  188.6960  177.4890  142.9170 C   0  0  2  0  0  3  0  0  0  0  0  0
  186.8980  178.0760  141.3960 N   0  0  0  0  0  2  0  0  0  0  0  0
  185.5080  179.4570  143.4240 O   0  0  0  0  0  0  0  0  0  0  0  0
  186.4070  178.3160  147.5600 C   0  0  1  0  0  3  0  0  0  0  0  0
  187.6370  177.3720  145.6650 C   0  0  0  0  0  2  0  0  0  0  0  0
  185.5290  177.4910  148.2650 O   0  0  0  0  0  1  0  0  0  0  0  0
  186.5470  178.7680  143.7730 C   0  0  0  0  0  0  0  0  0  0  0  0
  187.6890  177.5450  147.1910 C   0  0  0  0  0  2  0  0  0  0  0  0
  185.7260  178.7220  146.2470 C   0  0  0  0  0  2  0  0  0  0  0  0
  186.5830  178.2970  145.1650 N   0  0  0  0  0  0  0  0  0  0  0  0
  190.1390  177.9290  143.2610 C   0  0  0  0  0  0  0  0  0  0  0  0
  190.4200  178.4350  144.3290 O   0  0  0  0  0  1  0  0  0  0  0  0
  191.1680  177.4990  142.4410 O   0  0  0  0  0  0  0  0  0  0  0  0
  190.1030  174.1400  141.3170 C   0  0  2  0  0  3  0  0  0  0  0  0
  191.4540  174.5260  141.3110 O   0  0  0  0  0  1  0  0  0  0  0  0
  189.5890  173.8440  139.8910 C   0  0  0  0  0  2  0  0  0  0  0  0
  190.6620  173.1020  139.1550 N   0  0  0  0  0  0  0  0  0  0  0  0
  190.3360  171.6930  139.3570 C   0  0  0  0  0  2  0  0  0  0  0  0
  189.3660  171.3270  138.2790 C   0  0  0  0  0  1  0  0  0  0  0  0
  191.0290  173.5850  137.8440 C   0  0  0  0  0  2  0  0  0  0  0  0
  192.4140  174.2420  137.7670 C   0  0  0  0  0  1  0  0  0  0  0  0
  1  2  2  0  0  0  0
  1  3  2  0  0  0  0
  2 34  1  0  0  0  0
  4  5  2  0  0  0  0
  5  6  1  0  0  0  0
  5  3  1  0  0  0  0
  7  9  1  0  0  0  0
  7 10  1  0  0  0  0
  9  6  1  6  0  0  0
  9 11  1  0  0  0  0
 10  8  1  0  0  0  0
 11  8  1  0  0  0  0
 12 14  1  0  0  0  0
 13 12  1  6  0  0  0
 13 14  1  0  0  0  0
 14 27  1  1  0  0  0
 14  9  1  0  0  0  0
 15 17  1  0  0  0  0
 16 24  1  0  0  0  0
 17 18  2  0  0  0  0
 17 24  1  0  0  0  0
 18 21  1  0  0  0  0
 19 15  2  0  0  0  0
 19 23  1  0  0  0  0
 20 13  1  6  0  0  0
 22 20  1  0  0  0  0
 23 18  1  0  0  0  0
 24 25  1  0  0  0  0
 24 22  1  0  0  0  0
 25 22  1  0  0  0  0
 25 21  1  0  0  0  0
 25 20  1  0  0  0  0
 26 27  2  0  0  0  0
 27 28  1  0  0  0  0
 28 30  1  0  0  0  0
 29 31  1  0  0  0  0
 31 33  1  0  0  0  0
 32 29  1  0  0  0  0
 32 31  1  0  0  0  0
 33 30  1  0  0  0  0
 35 34  1  0  0  0  0
 35 37  1  0  0  0  0
 36 37  1  0  0  0  0
 37 38  1  0  0  0  0
 37 39  1  0  0  0  0
 39 40  1  0  0  0  0
 41  2  1  0  0  0  0
 42 41  1  0  0  0  0
 43 44  1  0  0  0  0
 44 48  1  0  0  0  0
 44 45  1  0  0  0  0
 45 42  1  0  0  0  0
 45 47  1  0  0  0  0
 46 47  1  0  0  0  0
 46 53  1  0  0  0  0
 47 57  1  0  0  0  0
 48 46  1  0  0  0  0
 49 53  2  0  0  0  0
 50 52  1  0  0  0  0
 51 54  1  0  0  0  0
 53 56  1  0  0  0  0
 54 50  1  0  0  0  0
 55 50  1  0  0  0  0
 56 51  1  0  0  0  0
 56 55  1  0  0  0  0
 57 58  1  0  0  0  0
 59 57  2  0  0  0  0
 60 42  1  0  0  0  0
 61 60  1  0  0  0  0
 62 60  1  0  0  0  0
 63 64  1  0  0  0  0
 63 62  1  0  0  0  0
 65 64  1  0  0  0  0
 66 63  1  0  0  0  0
 67 66  1  0  0  0  0
M  END
>  <MODEL>
2

>  <REMARK>
 VINA RESULT:      -5.3      2.718      6.165
  Name = 
  22 active torsions:
  status: ('A' for Active; 'I' for Inactive)
    1  A    between atoms: C_1  and  N_54
    2  A    between atoms: C_10  and  O_36
    3  A    between atoms: C_11  and  C_16
    4  A    between atoms: C_11  and  N_54
    5  A    between atoms: O_12  and  C_20
    6  A    between atoms: O_12  and  C_30
    7  A    between atoms: C_16  and  C_23
    8  A    between atoms: C_20  and  C_61
    9  A    between atoms: C_23  and  C_40
   10  A    between atoms: C_23  and  C_62
   11  A    between atoms: C_25  and  C_39
   12  A    between atoms: C_27  and  N_54
   13  A    between atoms: C_30  and  C_60
   14  A    between atoms: C_34  and  C_43
   15  A    between atoms: C_35  and  O_48
   16  A    between atoms: C_35  and  C_62
   17  A    between atoms: O_36  and  C_64
   18  A    between atoms: C_38  and  C_51
   19  A    between atoms: C_39  and  O_56
   20  A    between atoms: C_45  and  C_46
   21  A    between atoms: O_48  and  O_56
   22  A    between atoms: C_61  and  C_64
                            x       y       z     vdW  Elec       q    Type
                         _______ _______ _______ _____ _____    ______ ____

>  <TORSDO>
F 22

$$$$
=
 OpenBabel11062422353D

 67 75  0  0  1  0  0  0  0  0999 V2000
  193.0300  175.3190  142.1460 C   0  0  0  0  0  0  0  0  0  0  0  0
  193.1000  174.7040  141.0190 C   0  0  0  0  0  0  0  0  0  0  0  0
  192.7290  175.7400  143.2580 C   0  0  0  0  0  3  0  0  0  0  0  0
  191.3750  177.4450  142.6790 O   0  0  0  0  0  0  0  0  0  0  0  0
  192.2220  176.9560  143.5470 C   0  0  0  0  0  0  0  0  0  0  0  0
  192.0140  176.9440  144.9670 O   0  0  0  0  0  0  0  0  0  0  0  0
  190.7280  177.3110  146.7200 O   0  0  0  0  0  0  0  0  0  0  0  0
  190.7790  175.2670  147.6810 C   0  0  0  0  0  2  0  0  0  0  0  0
  190.9090  176.4000  145.6730 C   0  0  2  0  0  0  0  0  0  0  0  0
  190.7500  176.6410  147.8920 O   0  0  0  0  0  0  0  0  0  0  0  0
  191.4820  175.1430  146.3940 C   0  0  0  0  0  2  0  0  0  0  0  0
  188.4410  175.7260  145.7060 O   0  0  0  0  0  0  0  0  0  0  0  0
  188.2850  177.0270  145.3110 C   0  0  1  0  0  3  0  0  0  0  0  0
  189.4860  176.1500  144.9090 C   0  0  1  0  0  0  0  0  0  0  0  0
  183.2200  178.4270  142.2440 N   0  0  0  0  0  0  0  0  0  0  0  0
  184.7750  177.1470  144.7000 F   0  0  0  0  0  0  0  0  0  0  0  0
  184.5870  178.1010  142.4070 C   0  0  0  0  0  0  0  0  0  0  0  0
  185.1730  177.7590  141.3020 C   0  0  0  0  0  0  0  0  0  0  0  0
  182.9780  178.3290  140.8060 C   0  0  0  0  0  3  0  0  0  0  0  0
  187.8670  177.5740  143.9070 C   0  0  2  0  0  3  0  0  0  0  0  0
  186.5500  177.2420  141.6420 C   0  0  0  0  0  2  0  0  0  0  0  0
  186.6960  178.5610  143.8240 C   0  0  2  0  0  3  0  0  0  0  0  0
  184.2150  177.8460  140.2380 O   0  0  0  0  0  0  0  0  0  0  0  0
  185.3270  177.8600  143.6250 C   0  0  1  0  0  0  0  0  0  0  0  0
  186.5530  177.1180  143.2340 C   0  0  2  0  0  0  0  0  0  0  0  0
  189.2720  174.9970  142.5070 O   0  0  0  0  0  0  0  0  0  0  0  0
  189.3930  174.8610  143.8920 C   0  0  0  0  0  0  0  0  0  0  0  0
  190.3320  173.8270  144.1000 O   0  0  0  0  0  0  0  0  0  0  0  0
  192.9190  169.7540  144.2450 C   0  0  0  0  0  2  0  0  0  0  0  0
  190.0560  172.5290  144.4640 C   0  0  0  0  0  2  0  0  0  0  0  0
  192.2050  171.0250  143.9500 C   0  0  0  0  0  3  0  0  0  0  0  0
  193.4680  170.6120  143.1840 C   0  0  0  0  0  2  0  0  0  0  0  0
  191.1120  171.7500  144.2420 C   0  0  0  0  0  2  0  0  0  0  0  0
  192.0320  173.7960  140.8230 O   0  0  0  0  0  0  0  0  0  0  0  0
  191.4970  173.6130  139.6310 O   0  0  0  0  0  0  0  0  0  0  0  0
  190.2870  172.2630  140.8800 O   0  0  0  0  0  1  0  0  0  0  0  0
  190.4980  172.6390  139.5630 C   0  0  2  0  0  0  0  0  0  0  0  0
  190.9340  171.4080  139.1250 F   0  0  0  0  0  0  0  0  0  0  0  0
  189.0810  172.9670  138.8790 C   0  0  0  0  0  2  0  0  0  0  0  0
  188.0870  172.8850  139.8520 O   0  0  0  0  0  1  0  0  0  0  0  0
  194.1330  175.0060  139.9940 C   0  0  0  0  0  2  0  0  0  0  0  0
  195.3530  173.9670  139.8960 C   0  0  2  0  0  3  0  0  0  0  0  0
  195.0650  170.5990  140.0750 N   0  0  0  0  0  1  0  0  0  0  0  0
  194.4240  171.5700  139.1820 C   0  0  1  0  0  3  0  0  0  0  0  0
  195.3500  172.7380  138.8660 C   0  0  1  0  0  3  0  0  0  0  0  0
  194.0660  171.9360  136.9340 C   0  0  1  0  0  3  0  0  0  0  0  0
  194.7670  173.1730  137.5130 C   0  0  2  0  0  3  0  0  0  0  0  0
  194.1330  170.8720  137.9550 N   0  0  0  0  0  2  0  0  0  0  0  0
  191.9740  171.0130  136.1650 O   0  0  0  0  0  0  0  0  0  0  0  0
  190.4350  174.9960  135.1750 C   0  0  1  0  0  3  0  0  0  0  0  0
  192.4130  174.6920  136.5860 C   0  0  0  0  0  2  0  0  0  0  0  0
  189.2560  175.4580  135.7650 O   0  0  0  0  0  1  0  0  0  0  0  0
  192.6110  172.1150  136.4080 C   0  0  0  0  0  0  0  0  0  0  0  0
  191.6530  175.7390  135.7560 C   0  0  0  0  0  2  0  0  0  0  0  0
  190.5940  173.5130  135.5300 C   0  0  0  0  0  2  0  0  0  0  0  0
  191.8620  173.3620  136.2050 N   0  0  0  0  0  0  0  0  0  0  0  0
  195.8260  173.9700  136.7140 C   0  0  0  0  0  0  0  0  0  0  0  0
  196.6260  173.4230  135.9830 O   0  0  0  0  0  0  0  0  0  0  0  0
  195.6850  175.3440  136.6310 O   0  0  0  0  0  1  0  0  0  0  0  0
  196.5430  174.2470  140.8900 C   0  0  2  0  0  3  0  0  0  0  0  0
  197.8130  174.2680  140.2910 O   0  0  0  0  0  1  0  0  0  0  0  0
  196.5320  173.3880  142.1740 C   0  0  0  0  0  2  0  0  0  0  0  0
  197.2350  174.1550  143.2520 N   0  0  0  0  0  0  0  0  0  0  0  0
  196.3970  175.3300  143.4700 C   0  0  0  0  0  2  0  0  0  0  0  0
  197.2530  176.5190  143.1710 C   0  0  0  0  0  1  0  0  0  0  0  0
  197.7510  173.4080  144.3760 C   0  0  0  0  0  2  0  0  0  0  0  0
  197.1990  173.8400  145.7410 C   0  0  0  0  0  1  0  0  0  0  0  0
  1  3  2  0  0  0  0
  2  1  2  0  0  0  0
  3  5  1  0  0  0  0
  4  5  2  0  0  0  0
  5  6  1  0  0  0  0
  7 10  1  0  0  0  0
  8 10  1  0  0  0  0
  9  6  1  6  0  0  0
  9 11  1  0  0  0  0
  9  7  1  0  0  0  0
 11  8  1  0  0  0  0
 13 12  1  6  0  0  0
 14 27  1  6  0  0  0
 14 13  1  0  0  0  0
 14  9  1  0  0  0  0
 14 12  1  0  0  0  0
 15 17  1  0  0  0  0
 17 24  1  0  0  0  0
 18 21  1  0  0  0  0
 18 17  2  0  0  0  0
 19 15  2  0  0  0  0
 20 13  1  1  0  0  0
 21 25  1  0  0  0  0
 22 20  1  0  0  0  0
 23 19  1  0  0  0  0
 23 18  1  0  0  0  0
 24 22  1  0  0  0  0
 24 16  1  0  0  0  0
 25 24  1  0  0  0  0
 25 22  1  0  0  0  0
 25 20  1  0  0  0  0
 26 27  2  0  0  0  0
 27 28  1  0  0  0  0
 28 30  1  0  0  0  0
 31 33  1  0  0  0  0
 31 29  1  0  0  0  0
 32 31  1  0  0  0  0
 32 29  1  0  0  0  0
 33 30  1  0  0  0  0
 34  2  1  0  0  0  0
 35 34  1  0  0  0  0
 37 35  1  0  0  0  0
 37 36  1  0  0  0  0
 38 37  1  0  0  0  0
 39 37  1  0  0  0  0
 39 40  1  0  0  0  0
 41  2  1  0  0  0  0
 42 41  1  0  0  0  0
 42 60  1  0  0  0  0
 44 43  1  0  0  0  0
 45 44  1  0  0  0  0
 45 42  1  0  0  0  0
 46 47  1  0  0  0  0
 46 48  1  0  0  0  0
 47 45  1  0  0  0  0
 48 44  1  0  0  0  0
 49 53  2  0  0  0  0
 50 55  1  0  0  0  0
 50 54  1  0  0  0  0
 50 52  1  0  0  0  0
 53 46  1  0  0  0  0
 54 51  1  0  0  0  0
 55 56  1  0  0  0  0
 56 53  1  0  0  0  0
 56 51  1  0  0  0  0
 57 47  1  0  0  0  0
 58 57  2  0  0  0  0
 59 57  1  0  0  0  0
 60 62  1  0  0  0  0
 61 60  1  0  0  0  0
 62 63  1  0  0  0  0
 63 64  1  0  0  0  0
 63 66  1  0  0  0  0
 65 64  1  0  0  0  0
 66 67  1  0  0  0  0
M  END
>  <MODEL>
3

>  <REMARK>
 VINA RESULT:      -5.2      3.151      8.907
  Name = 
  22 active torsions:
  status: ('A' for Active; 'I' for Inactive)
    1  A    between atoms: C_1  and  N_54
    2  A    between atoms: C_10  and  O_36
    3  A    between atoms: C_11  and  C_16
    4  A    between atoms: C_11  and  N_54
    5  A    between atoms: O_12  and  C_20
    6  A    between atoms: O_12  and  C_30
    7  A    between atoms: C_16  and  C_23
    8  A    between atoms: C_20  and  C_61
    9  A    between atoms: C_23  and  C_40
   10  A    between atoms: C_23  and  C_62
   11  A    between atoms: C_25  and  C_39
   12  A    between atoms: C_27  and  N_54
   13  A    between atoms: C_30  and  C_60
   14  A    between atoms: C_34  and  C_43
   15  A    between atoms: C_35  and  O_48
   16  A    between atoms: C_35  and  C_62
   17  A    between atoms: O_36  and  C_64
   18  A    between atoms: C_38  and  C_51
   19  A    between atoms: C_39  and  O_56
   20  A    between atoms: C_45  and  C_46
   21  A    between atoms: O_48  and  O_56
   22  A    between atoms: C_61  and  C_64
                            x       y       z     vdW  Elec       q    Type
                         _______ _______ _______ _____ _____    ______ ____

>  <TORSDO>
F 22

$$$$
=
 OpenBabel11062422353D

 67 75  0  0  1  0  0  0  0  0999 V2000
  194.0340  174.4290  141.0720 C   0  0  0  0  0  0  0  0  0  0  0  0
  194.9040  173.7590  140.4010 C   0  0  0  0  0  0  0  0  0  0  0  0
  193.3670  175.2940  141.6300 C   0  0  0  0  0  3  0  0  0  0  0  0
  194.4190  175.7730  143.5640 O   0  0  0  0  0  0  0  0  0  0  0  0
  193.2880  175.5170  142.9580 C   0  0  0  0  0  0  0  0  0  0  0  0
  192.0820  176.2720  143.1370 O   0  0  0  0  0  0  0  0  0  0  0  0
  191.2010  177.1500  144.9580 O   0  0  0  0  0  0  0  0  0  0  0  0
  191.1460  175.3250  146.2890 C   0  0  0  0  0  2  0  0  0  0  0  0
  191.0610  176.0540  144.0990 C   0  0  2  0  0  0  0  0  0  0  0  0
  191.3450  176.7010  146.2230 O   0  0  0  0  0  0  0  0  0  0  0  0
  191.5780  174.8620  144.9610 C   0  0  0  0  0  2  0  0  0  0  0  0
  188.6080  175.5360  144.6090 O   0  0  0  0  0  0  0  0  0  0  0  0
  188.4660  176.8570  144.2790 C   0  0  1  0  0  3  0  0  0  0  0  0
  189.5010  175.9190  143.6280 C   0  0  1  0  0  0  0  0  0  0  0  0
  182.9650  178.4380  142.2140 N   0  0  0  0  0  0  0  0  0  0  0  0
  184.9060  177.0280  144.2970 F   0  0  0  0  0  0  0  0  0  0  0  0
  184.3350  178.0960  142.1200 C   0  0  0  0  0  0  0  0  0  0  0  0
  184.7140  177.8060  140.9140 C   0  0  0  0  0  0  0  0  0  0  0  0
  182.4750  178.4130  140.8380 C   0  0  0  0  0  3  0  0  0  0  0  0
  187.8180  177.4750  142.9970 C   0  0  2  0  0  3  0  0  0  0  0  0
  186.1210  177.2640  140.9830 C   0  0  0  0  0  2  0  0  0  0  0  0
  186.6650  178.4720  143.1670 C   0  0  2  0  0  3  0  0  0  0  0  0
  183.5870  177.9510  140.0390 O   0  0  0  0  0  0  0  0  0  0  0  0
  185.2720  177.7900  143.1770 C   0  0  1  0  0  0  0  0  0  0  0  0
  186.4000  177.0610  142.5430 C   0  0  2  0  0  0  0  0  0  0  0  0
  188.1290  173.7360  142.9230 O   0  0  0  0  0  0  0  0  0  0  0  0
  189.1220  174.6730  142.6250 C   0  0  0  0  0  0  0  0  0  0  0  0
  188.9550  174.9930  141.2590 O   0  0  0  0  0  0  0  0  0  0  0  0
  187.3200  175.3440  136.7310 C   0  0  0  0  0  2  0  0  0  0  0  0
  188.8170  174.1030  140.2200 C   0  0  0  0  0  2  0  0  0  0  0  0
  187.5930  175.3460  138.1930 C   0  0  0  0  0  3  0  0  0  0  0  0
  186.6280  176.3500  137.5510 C   0  0  0  0  0  2  0  0  0  0  0  0
  188.2280  174.6920  139.1810 C   0  0  0  0  0  2  0  0  0  0  0  0
  195.9240  174.5750  139.8580 O   0  0  0  0  0  0  0  0  0  0  0  0
  195.8430  175.0470  138.6280 O   0  0  0  0  0  0  0  0  0  0  0  0
  197.7570  173.9610  138.5530 O   0  0  0  0  0  1  0  0  0  0  0  0
  196.9730  174.8480  137.8320 C   0  0  2  0  0  0  0  0  0  0  0  0
  197.8730  175.8900  137.8510 F   0  0  0  0  0  0  0  0  0  0  0  0
  196.8270  174.3100  136.3250 C   0  0  0  0  0  2  0  0  0  0  0  0
  195.5600  173.7520  136.1710 O   0  0  0  0  0  1  0  0  0  0  0  0
  194.8860  172.2760  140.3080 C   0  0  0  0  0  2  0  0  0  0  0  0
  194.3250  171.4960  141.5940 C   0  0  2  0  0  3  0  0  0  0  0  0
  191.3530  171.9740  143.1420 N   0  0  0  0  0  1  0  0  0  0  0  0
  191.6690  171.6940  141.7370 C   0  0  1  0  0  3  0  0  0  0  0  0
  192.8860  170.7890  141.6050 C   0  0  1  0  0  3  0  0  0  0  0  0
  191.0700  170.2460  140.0470 C   0  0  1  0  0  3  0  0  0  0  0  0
  192.5900  170.1520  140.2390 C   0  0  2  0  0  3  0  0  0  0  0  0
  190.5260  171.0080  141.1870 N   0  0  0  0  0  2  0  0  0  0  0  0
  189.6950  170.0710  138.0720 O   0  0  0  0  0  0  0  0  0  0  0  0
  191.4380  173.7190  136.3790 C   0  0  1  0  0  3  0  0  0  0  0  0
  191.7190  173.1310  138.7390 C   0  0  0  0  0  2  0  0  0  0  0  0
  190.6170  174.8010  136.0520 O   0  0  0  0  0  1  0  0  0  0  0  0
  190.5510  170.8180  138.6940 C   0  0  0  0  0  0  0  0  0  0  0  0
  192.2750  174.0400  137.6320 C   0  0  0  0  0  2  0  0  0  0  0  0
  190.5370  172.5270  136.7260 C   0  0  0  0  0  2  0  0  0  0  0  0
  190.8700  172.1080  138.0670 N   0  0  0  0  0  0  0  0  0  0  0  0
  193.3570  168.8150  140.1020 C   0  0  0  0  0  0  0  0  0  0  0  0
  193.7630  168.4130  139.0300 O   0  0  0  0  0  0  0  0  0  0  0  0
  193.8160  168.2030  141.2550 O   0  0  0  0  0  1  0  0  0  0  0  0
  195.2930  171.4850  142.8370 C   0  0  2  0  0  3  0  0  0  0  0  0
  196.4880  170.7730  142.6420 O   0  0  0  0  0  1  0  0  0  0  0  0
  194.6220  171.1170  144.1790 C   0  0  0  0  0  2  0  0  0  0  0  0
  195.3650  169.9560  144.7660 N   0  0  0  0  0  0  0  0  0  0  0  0
  196.0690  170.5170  145.9160 C   0  0  0  0  0  2  0  0  0  0  0  0
  196.1690  169.4170  146.9240 C   0  0  0  0  0  1  0  0  0  0  0  0
  194.6590  168.7010  144.8850 C   0  0  0  0  0  2  0  0  0  0  0  0
  193.1410  168.7970  144.6780 C   0  0  0  0  0  1  0  0  0  0  0  0
  1  3  2  0  0  0  0
  2  1  2  0  0  0  0
  3  5  1  0  0  0  0
  5  6  1  0  0  0  0
  5  4  2  0  0  0  0
  7 10  1  0  0  0  0
  9  6  1  6  0  0  0
  9  7  1  0  0  0  0
  9 11  1  0  0  0  0
 10  8  1  0  0  0  0
 11  8  1  0  0  0  0
 13 12  1  6  0  0  0
 14 27  1  6  0  0  0
 14  9  1  0  0  0  0
 14 13  1  0  0  0  0
 14 12  1  0  0  0  0
 17 15  1  0  0  0  0
 17 24  1  0  0  0  0
 18 21  1  0  0  0  0
 18 17  2  0  0  0  0
 19 15  2  0  0  0  0
 20 22  1  0  0  0  0
 20 13  1  1  0  0  0
 21 25  1  0  0  0  0
 22 24  1  0  0  0  0
 23 19  1  0  0  0  0
 23 18  1  0  0  0  0
 24 16  1  0  0  0  0
 25 20  1  0  0  0  0
 25 22  1  0  0  0  0
 25 24  1  0  0  0  0
 27 26  2  0  0  0  0
 28 27  1  0  0  0  0
 29 32  1  0  0  0  0
 29 31  1  0  0  0  0
 30 28  1  0  0  0  0
 31 33  1  0  0  0  0
 32 31  1  0  0  0  0
 33 30  1  0  0  0  0
 34  2  1  0  0  0  0
 35 34  1  0  0  0  0
 37 38  1  0  0  0  0
 37 36  1  0  0  0  0
 37 35  1  0  0  0  0
 39 37  1  0  0  0  0
 40 39  1  0  0  0  0
 41  2  1  0  0  0  0
 41 42  1  0  0  0  0
 42 45  1  0  0  0  0
 42 60  1  0  0  0  0
 44 43  1  0  0  0  0
 45 44  1  0  0  0  0
 46 47  1  0  0  0  0
 46 48  1  0  0  0  0
 47 45  1  0  0  0  0
 48 44  1  0  0  0  0
 49 53  2  0  0  0  0
 50 55  1  0  0  0  0
 50 54  1  0  0  0  0
 52 50  1  0  0  0  0
 53 46  1  0  0  0  0
 54 51  1  0  0  0  0
 55 56  1  0  0  0  0
 56 53  1  0  0  0  0
 56 51  1  0  0  0  0
 57 47  1  0  0  0  0
 57 59  1  0  0  0  0
 58 57  2  0  0  0  0
 60 62  1  0  0  0  0
 61 60  1  0  0  0  0
 62 63  1  0  0  0  0
 63 66  1  0  0  0  0
 63 64  1  0  0  0  0
 64 65  1  0  0  0  0
 67 66  1  0  0  0  0
M  END
>  <MODEL>
4

>  <REMARK>
 VINA RESULT:      -5.0      2.984      9.162
  Name = 
  22 active torsions:
  status: ('A' for Active; 'I' for Inactive)
    1  A    between atoms: C_1  and  N_54
    2  A    between atoms: C_10  and  O_36
    3  A    between atoms: C_11  and  C_16
    4  A    between atoms: C_11  and  N_54
    5  A    between atoms: O_12  and  C_20
    6  A    between atoms: O_12  and  C_30
    7  A    between atoms: C_16  and  C_23
    8  A    between atoms: C_20  and  C_61
    9  A    between atoms: C_23  and  C_40
   10  A    between atoms: C_23  and  C_62
   11  A    between atoms: C_25  and  C_39
   12  A    between atoms: C_27  and  N_54
   13  A    between atoms: C_30  and  C_60
   14  A    between atoms: C_34  and  C_43
   15  A    between atoms: C_35  and  O_48
   16  A    between atoms: C_35  and  C_62
   17  A    between atoms: O_36  and  C_64
   18  A    between atoms: C_38  and  C_51
   19  A    between atoms: C_39  and  O_56
   20  A    between atoms: C_45  and  C_46
   21  A    between atoms: O_48  and  O_56
   22  A    between atoms: C_61  and  C_64
                            x       y       z     vdW  Elec       q    Type
                         _______ _______ _______ _____ _____    ______ ____

>  <TORSDO>
F 22

$$$$
=
 OpenBabel11062422353D

 67 75  0  0  1  0  0  0  0  0999 V2000
  193.7210  173.7020  141.4950 C   0  0  0  0  0  0  0  0  0  0  0  0
  193.3560  174.0840  142.6680 C   0  0  0  0  0  0  0  0  0  0  0  0
  194.1970  173.5990  140.3690 C   0  0  0  0  0  3  0  0  0  0  0  0
  193.5060  174.7670  138.5710 O   0  0  0  0  0  0  0  0  0  0  0  0
  193.5180  173.6230  139.2040 C   0  0  0  0  0  0  0  0  0  0  0  0
  193.7920  172.3570  138.5870 O   0  0  0  0  0  0  0  0  0  0  0  0
  195.7560  173.1210  137.9380 O   0  0  0  0  0  0  0  0  0  0  0  0
  195.8180  172.3110  135.8300 C   0  0  0  0  0  2  0  0  0  0  0  0
  194.9960  171.9460  137.9570 C   0  0  2  0  0  0  0  0  0  0  0  0
  196.1470  173.3700  136.6700 O   0  0  0  0  0  0  0  0  0  0  0  0
  194.6120  171.7500  136.4600 C   0  0  0  0  0  2  0  0  0  0  0  0
  197.2540  170.8810  138.5180 O   0  0  0  0  0  0  0  0  0  0  0  0
  196.7910  171.0460  139.7960 C   0  0  1  0  0  3  0  0  0  0  0  0
  195.8830  170.7280  138.5920 C   0  0  1  0  0  0  0  0  0  0  0  0
  194.9160  170.6200  145.5690 N   0  0  0  0  0  0  0  0  0  0  0  0
  196.2150  172.1800  143.1250 F   0  0  0  0  0  0  0  0  0  0  0  0
  195.4220  170.1510  144.3330 C   0  0  0  0  0  0  0  0  0  0  0  0
  195.9280  168.9590  144.4000 C   0  0  0  0  0  0  0  0  0  0  0  0
  195.0880  169.5030  146.4940 C   0  0  0  0  0  3  0  0  0  0  0  0
  196.2990  169.9530  140.8010 C   0  0  2  0  0  3  0  0  0  0  0  0
  196.6100  168.6660  143.0860 C   0  0  0  0  0  2  0  0  0  0  0  0
  195.1630  170.3070  141.7680 C   0  0  2  0  0  3  0  0  0  0  0  0
  195.7850  168.4840  145.7460 O   0  0  0  0  0  0  0  0  0  0  0  0
  195.6730  170.8860  143.1140 C   0  0  1  0  0  0  0  0  0  0  0  0
  196.6110  170.0620  142.3100 C   0  0  2  0  0  0  0  0  0  0  0  0
  197.0480  168.5980  137.4730 O   0  0  0  0  0  0  0  0  0  0  0  0
  195.8780  169.2940  137.7880 C   0  0  0  0  0  0  0  0  0  0  0  0
  194.9590  168.3220  138.2420 O   0  0  0  0  0  0  0  0  0  0  0  0
  190.4320  169.4400  136.9960 C   0  0  0  0  0  2  0  0  0  0  0  0
  193.8010  168.5540  138.9480 C   0  0  0  0  0  2  0  0  0  0  0  0
  191.8940  169.3030  137.2310 C   0  0  0  0  0  3  0  0  0  0  0  0
  191.3380  169.9740  135.9680 C   0  0  0  0  0  2  0  0  0  0  0  0
  192.8190  168.9110  138.1230 C   0  0  0  0  0  2  0  0  0  0  0  0
  193.7860  175.3960  142.9750 O   0  0  0  0  0  0  0  0  0  0  0  0
  194.9910  175.8180  142.6430 O   0  0  0  0  0  0  0  0  0  0  0  0
  196.6620  176.9170  143.5640 O   0  0  0  0  0  1  0  0  0  0  0  0
  195.9590  175.7250  143.6460 C   0  0  2  0  0  0  0  0  0  0  0  0
  197.0230  174.9060  143.3350 F   0  0  0  0  0  0  0  0  0  0  0  0
  195.5330  175.4720  145.1740 C   0  0  0  0  0  2  0  0  0  0  0  0
  196.0290  174.2350  145.5760 O   0  0  0  0  0  1  0  0  0  0  0  0
  192.4820  173.2660  143.5490 C   0  0  0  0  0  2  0  0  0  0  0  0
  190.9510  173.7360  143.6550 C   0  0  2  0  0  3  0  0  0  0  0  0
  189.3220  175.9630  141.6940 N   0  0  0  0  0  1  0  0  0  0  0  0
  189.1970  175.6750  143.1270 C   0  0  1  0  0  3  0  0  0  0  0  0
  190.5340  175.2820  143.7400 C   0  0  1  0  0  3  0  0  0  0  0  0
  189.1920  176.7710  145.1550 C   0  0  1  0  0  3  0  0  0  0  0  0
  190.2830  175.6920  145.1980 C   0  0  2  0  0  3  0  0  0  0  0  0
  188.7460  176.8930  143.7540 N   0  0  0  0  0  2  0  0  0  0  0  0
  188.1230  175.7020  147.0340 O   0  0  0  0  0  0  0  0  0  0  0  0
  184.3720  177.8440  146.2830 C   0  0  1  0  0  3  0  0  0  0  0  0
  186.4800  178.5290  145.2420 C   0  0  0  0  0  2  0  0  0  0  0  0
  183.8200  178.6570  147.2740 O   0  0  0  0  0  1  0  0  0  0  0  0
  187.9770  176.6030  146.1150 C   0  0  0  0  0  0  0  0  0  0  0  0
  184.9560  178.7030  145.1460 C   0  0  0  0  0  2  0  0  0  0  0  0
  185.5350  177.0600  146.9050 C   0  0  0  0  0  2  0  0  0  0  0  0
  186.7220  177.3660  146.1400 N   0  0  0  0  0  0  0  0  0  0  0  0
  191.6310  175.9110  145.9250 C   0  0  0  0  0  0  0  0  0  0  0  0
  192.0700  175.1070  146.7240 O   0  0  0  0  0  1  0  0  0  0  0  0
  192.4720  176.9070  145.4600 O   0  0  0  0  0  0  0  0  0  0  0  0
  189.8980  172.5640  143.6750 C   0  0  2  0  0  3  0  0  0  0  0  0
  189.7310  171.9500  144.9270 O   0  0  0  0  0  1  0  0  0  0  0  0
  190.0650  171.5230  142.5470 C   0  0  0  0  0  2  0  0  0  0  0  0
  189.8930  172.2270  141.2360 N   0  0  0  0  0  0  0  0  0  0  0  0
  190.6640  171.4290  140.2880 C   0  0  0  0  0  2  0  0  0  0  0  0
  191.5770  170.5710  141.1050 C   0  0  0  0  0  1  0  0  0  0  0  0
  188.5670  172.6870  140.8930 C   0  0  0  0  0  2  0  0  0  0  0  0
  188.4040  173.1480  139.4380 C   0  0  0  0  0  1  0  0  0  0  0  0
  1  2  2  0  0  0  0
  2 34  1  0  0  0  0
  2 41  1  0  0  0  0
  3  1  2  0  0  0  0
  4  5  2  0  0  0  0
  5  3  1  0  0  0  0
  6  5  1  0  0  0  0
  7  9  1  0  0  0  0
  8 11  1  0  0  0  0
  8 10  1  0  0  0  0
  9  6  1  1  0  0  0
  9 14  1  0  0  0  0
 10  7  1  0  0  0  0
 11  9  1  0  0  0  0
 12 14  1  0  0  0  0
 13 12  1  6  0  0  0
 14 27  1  6  0  0  0
 14 13  1  0  0  0  0
 15 19  2  0  0  0  0
 17 18  2  0  0  0  0
 17 15  1  0  0  0  0
 18 23  1  0  0  0  0
 20 13  1  6  0  0  0
 20 22  1  0  0  0  0
 20 25  1  0  0  0  0
 21 18  1  0  0  0  0
 22 25  1  0  0  0  0
 22 24  1  0  0  0  0
 23 19  1  0  0  0  0
 24 16  1  0  0  0  0
 24 17  1  0  0  0  0
 25 21  1  0  0  0  0
 25 24  1  0  0  0  0
 26 27  2  0  0  0  0
 27 28  1  0  0  0  0
 28 30  1  0  0  0  0
 29 31  1  0  0  0  0
 31 33  1  0  0  0  0
 32 29  1  0  0  0  0
 32 31  1  0  0  0  0
 33 30  1  0  0  0  0
 35 34  1  0  0  0  0
 35 37  1  0  0  0  0
 36 37  1  0  0  0  0
 37 39  1  0  0  0  0
 38 37  1  0  0  0  0
 39 40  1  0  0  0  0
 41 42  1  0  0  0  0
 42 60  1  0  0  0  0
 42 45  1  0  0  0  0
 43 44  1  0  0  0  0
 44 45  1  0  0  0  0
 44 48  1  0  0  0  0
 45 47  1  0  0  0  0
 46 47  1  0  0  0  0
 46 53  1  0  0  0  0
 47 57  1  0  0  0  0
 48 46  1  0  0  0  0
 50 55  1  0  0  0  0
 50 52  1  0  0  0  0
 51 56  1  0  0  0  0
 53 56  1  0  0  0  0
 53 49  2  0  0  0  0
 54 51  1  0  0  0  0
 54 50  1  0  0  0  0
 56 55  1  0  0  0  0
 57 58  1  0  0  0  0
 59 57  2  0  0  0  0
 60 61  1  0  0  0  0
 62 60  1  0  0  0  0
 63 62  1  0  0  0  0
 64 65  1  0  0  0  0
 64 63  1  0  0  0  0
 66 63  1  0  0  0  0
 67 66  1  0  0  0  0
M  END
>  <MODEL>
5

>  <REMARK>
 VINA RESULT:      -4.9      2.407      5.165
  Name = 
  22 active torsions:
  status: ('A' for Active; 'I' for Inactive)
    1  A    between atoms: C_1  and  N_54
    2  A    between atoms: C_10  and  O_36
    3  A    between atoms: C_11  and  C_16
    4  A    between atoms: C_11  and  N_54
    5  A    between atoms: O_12  and  C_20
    6  A    between atoms: O_12  and  C_30
    7  A    between atoms: C_16  and  C_23
    8  A    between atoms: C_20  and  C_61
    9  A    between atoms: C_23  and  C_40
   10  A    between atoms: C_23  and  C_62
   11  A    between atoms: C_25  and  C_39
   12  A    between atoms: C_27  and  N_54
   13  A    between atoms: C_30  and  C_60
   14  A    between atoms: C_34  and  C_43
   15  A    between atoms: C_35  and  O_48
   16  A    between atoms: C_35  and  C_62
   17  A    between atoms: O_36  and  C_64
   18  A    between atoms: C_38  and  C_51
   19  A    between atoms: C_39  and  O_56
   20  A    between atoms: C_45  and  C_46
   21  A    between atoms: O_48  and  O_56
   22  A    between atoms: C_61  and  C_64
                            x       y       z     vdW  Elec       q    Type
                         _______ _______ _______ _____ _____    ______ ____

>  <TORSDO>
F 22

$$$$
=
 OpenBabel11062422353D

 67 75  0  0  1  0  0  0  0  0999 V2000
  189.6450  173.0940  139.6400 C   0  0  0  0  0  0  0  0  0  0  0  0
  190.3920  172.9350  138.6060 C   0  0  0  0  0  0  0  0  0  0  0  0
  188.9200  173.5210  140.5340 C   0  0  0  0  0  3  0  0  0  0  0  0
  188.9490  172.7480  142.6500 O   0  0  0  0  0  0  0  0  0  0  0  0
  189.2640  173.7130  141.8240 C   0  0  0  0  0  0  0  0  0  0  0  0
  190.5450  174.3560  141.7760 O   0  0  0  0  0  0  0  0  0  0  0  0
  192.1950  175.7840  142.0910 O   0  0  0  0  0  0  0  0  0  0  0  0
  193.0970  174.9350  143.9800 C   0  0  0  0  0  2  0  0  0  0  0  0
  191.1410  175.1690  142.7760 C   0  0  2  0  0  0  0  0  0  0  0  0
  193.3450  175.5550  142.7600 O   0  0  0  0  0  0  0  0  0  0  0  0
  191.8710  174.1650  143.7190 C   0  0  0  0  0  2  0  0  0  0  0  0
  190.7710  177.5820  143.5410 O   0  0  0  0  0  0  0  0  0  0  0  0
  189.6820  177.4670  142.7200 C   0  0  1  0  0  3  0  0  0  0  0  0
  190.2530  176.3020  143.5520 C   0  0  1  0  0  0  0  0  0  0  0  0
  184.2050  177.8400  140.0940 N   0  0  0  0  0  0  0  0  0  0  0  0
  187.3650  178.1690  140.1040 F   0  0  0  0  0  0  0  0  0  0  0  0
  185.1340  177.8510  141.1630 C   0  0  0  0  0  0  0  0  0  0  0  0
  184.6480  178.3310  142.2650 C   0  0  0  0  0  0  0  0  0  0  0  0
  182.9570  178.3270  140.6750 C   0  0  0  0  0  3  0  0  0  0  0  0
  188.1720  177.3650  143.1160 C   0  0  2  0  0  3  0  0  0  0  0  0
  185.7810  178.4790  143.2510 C   0  0  0  0  0  2  0  0  0  0  0  0
  187.2070  176.6690  142.1490 C   0  0  2  0  0  3  0  0  0  0  0  0
  183.2770  178.6880  142.0360 O   0  0  0  0  0  0  0  0  0  0  0  0
  186.5640  177.6450  141.1290 C   0  0  1  0  0  0  0  0  0  0  0  0
  187.1010  178.2120  142.3920 C   0  0  2  0  0  0  0  0  0  0  0  0
  191.1320  176.8160  146.0230 O   0  0  0  0  0  0  0  0  0  0  0  0
  190.1850  176.2120  145.1920 C   0  0  0  0  0  0  0  0  0  0  0  0
  188.9280  176.4690  145.7840 O   0  0  0  0  0  0  0  0  0  0  0  0
  184.8580  178.2840  147.6380 C   0  0  0  0  0  2  0  0  0  0  0  0
  188.6520  177.4160  146.7420 C   0  0  0  0  0  2  0  0  0  0  0  0
  186.0060  177.7870  146.8330 C   0  0  0  0  0  3  0  0  0  0  0  0
  184.5860  177.8580  146.2570 C   0  0  0  0  0  2  0  0  0  0  0  0
  187.3390  177.6150  146.8320 C   0  0  0  0  0  2  0  0  0  0  0  0
  190.6020  174.1380  137.8910 O   0  0  0  0  0  0  0  0  0  0  0  0
  190.8030  174.1340  136.5860 O   0  0  0  0  0  0  0  0  0  0  0  0
  189.3700  172.9210  135.4350 O   0  0  0  0  0  1  0  0  0  0  0  0
  189.6520  174.2290  135.8000 C   0  0  2  0  0  0  0  0  0  0  0  0
  189.8740  174.6930  134.5220 F   0  0  0  0  0  0  0  0  0  0  0  0
  188.3180  174.9100  136.3810 C   0  0  0  0  0  2  0  0  0  0  0  0
  188.1270  176.1330  135.7420 O   0  0  0  0  0  1  0  0  0  0  0  0
  191.0470  171.6430  138.2720 C   0  0  0  0  0  2  0  0  0  0  0  0
  192.3830  171.2980  139.0940 C   0  0  2  0  0  3  0  0  0  0  0  0
  193.4380  168.1790  138.3080 N   0  0  0  0  0  1  0  0  0  0  0  0
  193.7660  169.0440  139.4460 C   0  0  1  0  0  3  0  0  0  0  0  0
  192.5780  169.9020  139.8600 C   0  0  1  0  0  3  0  0  0  0  0  0
  193.8450  168.9810  141.7490 C   0  0  1  0  0  3  0  0  0  0  0  0
  192.9330  170.1440  141.3350 C   0  0  2  0  0  3  0  0  0  0  0  0
  194.1050  168.1710  140.5430 N   0  0  0  0  0  2  0  0  0  0  0  0
  196.2530  169.1080  141.8040 O   0  0  0  0  0  0  0  0  0  0  0  0
  196.2210  170.3260  146.0140 C   0  0  1  0  0  3  0  0  0  0  0  0
  194.1960  170.3880  144.6390 C   0  0  0  0  0  2  0  0  0  0  0  0
  196.8070  171.5340  146.3980 O   0  0  0  0  0  1  0  0  0  0  0  0
  195.1720  169.3350  142.4820 C   0  0  0  0  0  0  0  0  0  0  0  0
  194.6860  170.4240  146.0950 C   0  0  0  0  0  2  0  0  0  0  0  0
  196.5850  170.0670  144.5470 C   0  0  0  0  0  2  0  0  0  0  0  0
  195.3490  169.9360  143.8110 N   0  0  0  0  0  0  0  0  0  0  0  0
  191.6590  170.5170  142.1290 C   0  0  0  0  0  0  0  0  0  0  0  0
  190.5450  170.3470  141.6750 O   0  0  0  0  0  0  0  0  0  0  0  0
  191.7880  170.8020  143.4770 O   0  0  0  0  0  1  0  0  0  0  0  0
  193.4740  172.4330  139.0920 C   0  0  2  0  0  3  0  0  0  0  0  0
  193.2270  173.4840  139.9900 O   0  0  0  0  0  1  0  0  0  0  0  0
  193.8620  172.9580  137.6920 C   0  0  0  0  0  2  0  0  0  0  0  0
  194.9350  173.9900  137.8630 N   0  0  0  0  0  0  0  0  0  0  0  0
  196.1790  173.2660  137.6220 C   0  0  0  0  0  2  0  0  0  0  0  0
  195.9150  172.3480  136.4710 C   0  0  0  0  0  1  0  0  0  0  0  0
  194.7170  175.2860  137.2650 C   0  0  0  0  0  2  0  0  0  0  0  0
  193.8260  175.2760  136.0150 C   0  0  0  0  0  1  0  0  0  0  0  0
  1  3  2  0  0  0  0
  2  1  2  0  0  0  0
  3  5  1  0  0  0  0
  5  4  2  0  0  0  0
  6  5  1  0  0  0  0
  7 10  1  0  0  0  0
  7  9  1  0  0  0  0
  9  6  1  6  0  0  0
  9 14  1  0  0  0  0
  9 11  1  0  0  0  0
 10  8  1  0  0  0  0
 11  8  1  0  0  0  0
 12 14  1  0  0  0  0
 13 12  1  1  0  0  0
 13 14  1  0  0  0  0
 14 27  1  1  0  0  0
 15 19  2  0  0  0  0
 15 17  1  0  0  0  0
 16 24  1  0  0  0  0
 17 18  2  0  0  0  0
 18 21  1  0  0  0  0
 19 23  1  0  0  0  0
 20 13  1  6  0  0  0
 22 25  1  0  0  0  0
 22 20  1  0  0  0  0
 23 18  1  0  0  0  0
 24 17  1  0  0  0  0
 24 22  1  0  0  0  0
 24 25  1  0  0  0  0
 25 20  1  0  0  0  0
 25 21  1  0  0  0  0
 27 28  1  0  0  0  0
 27 26  2  0  0  0  0
 28 30  1  0  0  0  0
 30 33  1  0  0  0  0
 31 29  1  0  0  0  0
 32 31  1  0  0  0  0
 32 29  1  0  0  0  0
 33 31  1  0  0  0  0
 34  2  1  0  0  0  0
 35 34  1  0  0  0  0
 36 37  1  0  0  0  0
 37 39  1  0  0  0  0
 37 35  1  0  0  0  0
 38 37  1  0  0  0  0
 40 39  1  0  0  0  0
 41  2  1  0  0  0  0
 41 42  1  0  0  0  0
 42 45  1  0  0  0  0
 43 44  1  0  0  0  0
 44 45  1  0  0  0  0
 44 48  1  0  0  0  0
 45 47  1  0  0  0  0
 46 53  1  0  0  0  0
 47 46  1  0  0  0  0
 47 57  1  0  0  0  0
 48 46  1  0  0  0  0
 49 53  2  0  0  0  0
 50 54  1  0  0  0  0
 50 52  1  0  0  0  0
 51 54  1  0  0  0  0
 53 56  1  0  0  0  0
 55 50  1  0  0  0  0
 56 55  1  0  0  0  0
 56 51  1  0  0  0  0
 57 59  1  0  0  0  0
 58 57  2  0  0  0  0
 60 42  1  0  0  0  0
 60 61  1  0  0  0  0
 62 63  1  0  0  0  0
 62 60  1  0  0  0  0
 64 63  1  0  0  0  0
 65 64  1  0  0  0  0
 66 63  1  0  0  0  0
 67 66  1  0  0  0  0
M  END
>  <MODEL>
6

>  <REMARK>
 VINA RESULT:      -4.9      3.246      8.779
  Name = 
  22 active torsions:
  status: ('A' for Active; 'I' for Inactive)
    1  A    between atoms: C_1  and  N_54
    2  A    between atoms: C_10  and  O_36
    3  A    between atoms: C_11  and  C_16
    4  A    between atoms: C_11  and  N_54
    5  A    between atoms: O_12  and  C_20
    6  A    between atoms: O_12  and  C_30
    7  A    between atoms: C_16  and  C_23
    8  A    between atoms: C_20  and  C_61
    9  A    between atoms: C_23  and  C_40
   10  A    between atoms: C_23  and  C_62
   11  A    between atoms: C_25  and  C_39
   12  A    between atoms: C_27  and  N_54
   13  A    between atoms: C_30  and  C_60
   14  A    between atoms: C_34  and  C_43
   15  A    between atoms: C_35  and  O_48
   16  A    between atoms: C_35  and  C_62
   17  A    between atoms: O_36  and  C_64
   18  A    between atoms: C_38  and  C_51
   19  A    between atoms: C_39  and  O_56
   20  A    between atoms: C_45  and  C_46
   21  A    between atoms: O_48  and  O_56
   22  A    between atoms: C_61  and  C_64
                            x       y       z     vdW  Elec       q    Type
                         _______ _______ _______ _____ _____    ______ ____

>  <TORSDO>
F 22

$$$$
=
 OpenBabel11062422353D

 67 75  0  0  1  0  0  0  0  0999 V2000
  190.6600  171.8380  139.5480 C   0  0  0  0  0  0  0  0  0  0  0  0
  191.4790  171.7950  138.5570 C   0  0  0  0  0  0  0  0  0  0  0  0
  189.8120  172.1380  140.3820 C   0  0  0  0  0  3  0  0  0  0  0  0
  189.8110  171.5270  142.5510 O   0  0  0  0  0  0  0  0  0  0  0  0
  190.0350  172.4690  141.6710 C   0  0  0  0  0  0  0  0  0  0  0  0
  191.2070  173.2950  141.6460 O   0  0  0  0  0  0  0  0  0  0  0  0
  192.1470  175.2850  141.7810 O   0  0  0  0  0  0  0  0  0  0  0  0
  193.6430  174.9040  143.4310 C   0  0  0  0  0  2  0  0  0  0  0  0
  191.5830  174.2900  142.5870 C   0  0  2  0  0  0  0  0  0  0  0  0
  193.3890  175.5640  142.2320 O   0  0  0  0  0  0  0  0  0  0  0  0
  192.8190  173.6900  143.3230 C   0  0  0  0  0  2  0  0  0  0  0  0
  190.8560  176.0890  144.2540 O   0  0  0  0  0  0  0  0  0  0  0  0
  189.9640  176.3730  143.2550 C   0  0  1  0  0  3  0  0  0  0  0  0
  190.4630  174.9510  143.5770 C   0  0  1  0  0  0  0  0  0  0  0  0
  185.0500  178.2300  140.1830 N   0  0  0  0  0  0  0  0  0  0  0  0
  188.1160  178.4190  140.9950 F   0  0  0  0  0  0  0  0  0  0  0  0
  185.7630  177.6470  141.2580 C   0  0  0  0  0  0  0  0  0  0  0  0
  185.0440  177.4820  142.3250 C   0  0  0  0  0  0  0  0  0  0  0  0
  183.6800  178.3670  140.6690 C   0  0  0  0  0  3  0  0  0  0  0  0
  188.4210  176.1180  143.2270 C   0  0  2  0  0  3  0  0  0  0  0  0
  185.9610  177.0540  143.4450 C   0  0  0  0  0  2  0  0  0  0  0  0
  187.7120  176.0670  141.8690 C   0  0  2  0  0  3  0  0  0  0  0  0
  183.7140  177.9430  142.0490 O   0  0  0  0  0  0  0  0  0  0  0  0
  187.1870  177.4530  141.4080 C   0  0  1  0  0  0  0  0  0  0  0  0
  187.4340  177.2480  142.8590 C   0  0  2  0  0  0  0  0  0  0  0  0
  190.6580  172.8910  145.2680 O   0  0  0  0  0  0  0  0  0  0  0  0
  190.0820  174.1220  144.9440 C   0  0  0  0  0  0  0  0  0  0  0  0
  190.0550  174.8660  146.1440 O   0  0  0  0  0  0  0  0  0  0  0  0
  185.9970  177.2460  147.2250 C   0  0  0  0  0  2  0  0  0  0  0  0
  189.1240  174.7630  147.1520 C   0  0  0  0  0  2  0  0  0  0  0  0
  187.3580  176.7530  146.8850 C   0  0  0  0  0  3  0  0  0  0  0  0
  186.8940  178.1660  146.5080 C   0  0  0  0  0  2  0  0  0  0  0  0
  188.2130  175.7270  147.0410 C   0  0  0  0  0  2  0  0  0  0  0  0
  191.4570  172.9760  137.7770 O   0  0  0  0  0  0  0  0  0  0  0  0
  190.3340  173.4310  137.2530 O   0  0  0  0  0  0  0  0  0  0  0  0
  189.6240  172.2920  135.5080 O   0  0  0  0  0  1  0  0  0  0  0  0
  190.2890  173.4570  135.8570 C   0  0  2  0  0  0  0  0  0  0  0  0
  191.4800  173.1360  135.2440 F   0  0  0  0  0  0  0  0  0  0  0  0
  189.6180  174.6940  135.0830 C   0  0  0  0  0  2  0  0  0  0  0  0
  188.4660  175.0760  135.7670 O   0  0  0  0  0  1  0  0  0  0  0  0
  192.4190  170.6670  138.3320 C   0  0  0  0  0  2  0  0  0  0  0  0
  193.9820  171.0230  138.4250 C   0  0  2  0  0  3  0  0  0  0  0  0
  196.9780  169.5160  137.9640 N   0  0  0  0  0  1  0  0  0  0  0  0
  196.4910  170.3690  139.0520 C   0  0  1  0  0  3  0  0  0  0  0  0
  195.0050  170.1600  139.3090 C   0  0  1  0  0  3  0  0  0  0  0  0
  196.3440  170.3860  141.3530 C   0  0  1  0  0  3  0  0  0  0  0  0
  194.9330  170.5860  140.7830 C   0  0  2  0  0  3  0  0  0  0  0  0
  197.2190  169.9820  140.2360 N   0  0  0  0  0  2  0  0  0  0  0  0
  197.7530  172.3410  141.4710 O   0  0  0  0  0  0  0  0  0  0  0  0
  197.1950  172.6380  145.8090 C   0  0  1  0  0  3  0  0  0  0  0  0
  195.7510  171.2340  144.4160 C   0  0  0  0  0  2  0  0  0  0  0  0
  196.6610  173.8010  146.3680 O   0  0  0  0  0  1  0  0  0  0  0  0
  196.9680  171.5680  142.1530 C   0  0  0  0  0  0  0  0  0  0  0  0
  196.1700  171.4910  145.8720 C   0  0  0  0  0  2  0  0  0  0  0  0
  197.4810  172.9120  144.3270 C   0  0  0  0  0  2  0  0  0  0  0  0
  196.7410  171.9400  143.5560 N   0  0  0  0  0  0  0  0  0  0  0  0
  193.6790  169.9700  141.4490 C   0  0  0  0  0  0  0  0  0  0  0  0
  193.4060  168.7910  141.3400 O   0  0  0  0  0  0  0  0  0  0  0  0
  193.0070  170.7190  142.3990 O   0  0  0  0  0  1  0  0  0  0  0  0
  194.4250  172.2820  137.5880 C   0  0  2  0  0  3  0  0  0  0  0  0
  194.6860  172.0210  136.2330 O   0  0  0  0  0  1  0  0  0  0  0  0
  195.5460  173.1270  138.2320 C   0  0  0  0  0  2  0  0  0  0  0  0
  195.1890  174.5730  138.0700 N   0  0  0  0  0  0  0  0  0  0  0  0
  196.2400  175.2910  138.7850 C   0  0  0  0  0  2  0  0  0  0  0  0
  197.4270  174.3820  138.8120 C   0  0  0  0  0  1  0  0  0  0  0  0
  194.7640  175.0140  136.7620 C   0  0  0  0  0  2  0  0  0  0  0  0
  193.4490  175.8050  136.7470 C   0  0  0  0  0  1  0  0  0  0  0  0
  1  3  2  0  0  0  0
  2  1  2  0  0  0  0
  3  5  1  0  0  0  0
  5  4  2  0  0  0  0
  6  5  1  0  0  0  0
  7 10  1  0  0  0  0
  7  9  1  0  0  0  0
  9  6  1  6  0  0  0
  9 11  1  0  0  0  0
  9 14  1  0  0  0  0
 10  8  1  0  0  0  0
 11  8  1  0  0  0  0
 13 14  1  0  0  0  0
 13 12  1  1  0  0  0
 14 12  1  0  0  0  0
 14 27  1  1  0  0  0
 15 19  2  0  0  0  0
 15 17  1  0  0  0  0
 16 24  1  0  0  0  0
 17 24  1  0  0  0  0
 17 18  2  0  0  0  0
 18 21  1  0  0  0  0
 19 23  1  0  0  0  0
 20 13  1  6  0  0  0
 22 25  1  0  0  0  0
 22 20  1  0  0  0  0
 23 18  1  0  0  0  0
 24 22  1  0  0  0  0
 24 25  1  0  0  0  0
 25 20  1  0  0  0  0
 25 21  1  0  0  0  0
 27 26  2  0  0  0  0
 27 28  1  0  0  0  0
 28 30  1  0  0  0  0
 31 33  1  0  0  0  0
 31 29  1  0  0  0  0
 32 31  1  0  0  0  0
 32 29  1  0  0  0  0
 33 30  1  0  0  0  0
 34  2  1  0  0  0  0
 35 34  1  0  0  0  0
 36 37  1  0  0  0  0
 37 35  1  0  0  0  0
 38 37  1  0  0  0  0
 39 40  1  0  0  0  0
 39 37  1  0  0  0  0
 41 42  1  0  0  0  0
 41  2  1  0  0  0  0
 42 45  1  0  0  0  0
 43 44  1  0  0  0  0
 44 45  1  0  0  0  0
 44 48  1  0  0  0  0
 45 47  1  0  0  0  0
 46 53  1  0  0  0  0
 47 46  1  0  0  0  0
 47 57  1  0  0  0  0
 48 46  1  0  0  0  0
 49 53  2  0  0  0  0
 50 54  1  0  0  0  0
 50 52  1  0  0  0  0
 51 54  1  0  0  0  0
 53 56  1  0  0  0  0
 55 50  1  0  0  0  0
 56 55  1  0  0  0  0
 56 51  1  0  0  0  0
 57 59  1  0  0  0  0
 58 57  2  0  0  0  0
 60 62  1  0  0  0  0
 60 42  1  0  0  0  0
 61 60  1  0  0  0  0
 63 62  1  0  0  0  0
 63 64  1  0  0  0  0
 64 65  1  0  0  0  0
 66 63  1  0  0  0  0
 67 66  1  0  0  0  0
M  END
>  <MODEL>
7

>  <REMARK>
 VINA RESULT:      -4.8      3.029      8.373
  Name = 
  22 active torsions:
  status: ('A' for Active; 'I' for Inactive)
    1  A    between atoms: C_1  and  N_54
    2  A    between atoms: C_10  and  O_36
    3  A    between atoms: C_11  and  C_16
    4  A    between atoms: C_11  and  N_54
    5  A    between atoms: O_12  and  C_20
    6  A    between atoms: O_12  and  C_30
    7  A    between atoms: C_16  and  C_23
    8  A    between atoms: C_20  and  C_61
    9  A    between atoms: C_23  and  C_40
   10  A    between atoms: C_23  and  C_62
   11  A    between atoms: C_25  and  C_39
   12  A    between atoms: C_27  and  N_54
   13  A    between atoms: C_30  and  C_60
   14  A    between atoms: C_34  and  C_43
   15  A    between atoms: C_35  and  O_48
   16  A    between atoms: C_35  and  C_62
   17  A    between atoms: O_36  and  C_64
   18  A    between atoms: C_38  and  C_51
   19  A    between atoms: C_39  and  O_56
   20  A    between atoms: C_45  and  C_46
   21  A    between atoms: O_48  and  O_56
   22  A    between atoms: C_61  and  C_64
                            x       y       z     vdW  Elec       q    Type
                         _______ _______ _______ _____ _____    ______ ____

>  <TORSDO>
F 22

$$$$
=
 OpenBabel11062422353D

 67 75  0  0  1  0  0  0  0  0999 V2000
  194.2420  172.3530  141.9100 C   0  0  0  0  0  0  0  0  0  0  0  0
  193.9370  172.5070  140.6700 C   0  0  0  0  0  0  0  0  0  0  0  0
  194.4150  171.9440  143.0540 C   0  0  0  0  0  3  0  0  0  0  0  0
  193.5240  171.4180  145.0540 O   0  0  0  0  0  0  0  0  0  0  0  0
  193.7550  172.3430  144.1600 C   0  0  0  0  0  0  0  0  0  0  0  0
  194.2770  173.6460  144.4550 O   0  0  0  0  0  0  0  0  0  0  0  0
  194.1810  175.8220  144.1140 O   0  0  0  0  0  0  0  0  0  0  0  0
  194.0710  176.5520  146.2500 C   0  0  0  0  0  2  0  0  0  0  0  0
  193.5480  174.8030  144.8350 C   0  0  2  0  0  0  0  0  0  0  0  0
  194.5650  176.7920  144.9710 O   0  0  0  0  0  0  0  0  0  0  0  0
  193.9880  175.0830  146.3030 C   0  0  0  0  0  2  0  0  0  0  0  0
  191.2090  173.7840  145.0250 O   0  0  0  0  0  0  0  0  0  0  0  0
  191.0130  174.8780  145.8250 C   0  0  1  0  0  3  0  0  0  0  0  0
  191.9330  174.8760  144.5890 C   0  0  1  0  0  0  0  0  0  0  0  0
  185.9070  177.5650  147.7590 N   0  0  0  0  0  0  0  0  0  0  0  0
  187.9390  175.1260  147.6110 F   0  0  0  0  0  0  0  0  0  0  0  0
  186.9740  177.2990  146.8670 C   0  0  0  0  0  0  0  0  0  0  0  0
  186.7810  177.7710  145.6750 C   0  0  0  0  0  0  0  0  0  0  0  0
  184.9700  178.3800  146.9910 C   0  0  0  0  0  3  0  0  0  0  0  0
  190.1670  176.1600  145.5290 C   0  0  2  0  0  3  0  0  0  0  0  0
  187.8790  177.2470  144.7810 C   0  0  0  0  0  2  0  0  0  0  0  0
  189.5200  176.8980  146.7070 C   0  0  2  0  0  3  0  0  0  0  0  0
  185.5160  178.4470  145.6560 O   0  0  0  0  0  0  0  0  0  0  0  0
  188.0880  176.3920  147.0250 C   0  0  1  0  0  0  0  0  0  0  0  0
  188.6280  176.1460  145.6630 C   0  0  2  0  0  0  0  0  0  0  0  0
  192.1130  175.2830  141.9530 O   0  0  0  0  0  0  0  0  0  0  0  0
  191.4020  174.7610  143.0370 C   0  0  0  0  0  0  0  0  0  0  0  0
  190.9380  173.4930  142.6230 O   0  0  0  0  0  0  0  0  0  0  0  0
  187.4740  176.1930  140.6190 C   0  0  0  0  0  2  0  0  0  0  0  0
  189.7220  173.2150  142.0420 C   0  0  0  0  0  2  0  0  0  0  0  0
  188.5160  175.5250  141.4430 C   0  0  0  0  0  3  0  0  0  0  0  0
  188.1610  177.0040  141.6360 C   0  0  0  0  0  2  0  0  0  0  0  0
  189.0980  174.3430  141.7100 C   0  0  0  0  0  2  0  0  0  0  0  0
  193.2780  171.3800  140.1240 O   0  0  0  0  0  0  0  0  0  0  0  0
  192.6130  170.5370  140.8900 O   0  0  0  0  0  0  0  0  0  0  0  0
  192.4030  169.1300  139.2090 O   0  0  0  0  0  1  0  0  0  0  0  0
  191.6830  169.7300  140.2310 C   0  0  2  0  0  0  0  0  0  0  0  0
  190.8130  170.4180  139.4130 F   0  0  0  0  0  0  0  0  0  0  0  0
  190.8670  168.6000  141.0300 C   0  0  0  0  0  2  0  0  0  0  0  0
  191.3340  168.5560  142.3410 O   0  0  0  0  0  1  0  0  0  0  0  0
  194.1590  173.7790  139.9340 C   0  0  0  0  0  2  0  0  0  0  0  0
  195.4270  173.8110  138.9490 C   0  0  2  0  0  3  0  0  0  0  0  0
  196.6440  171.0820  137.3580 N   0  0  0  0  0  1  0  0  0  0  0  0
  195.3070  171.6850  137.3420 C   0  0  1  0  0  3  0  0  0  0  0  0
  195.3740  173.2010  137.4670 C   0  0  1  0  0  3  0  0  0  0  0  0
  193.7150  172.4100  135.8410 C   0  0  1  0  0  3  0  0  0  0  0  0
  194.0530  173.5770  136.7780 C   0  0  2  0  0  3  0  0  0  0  0  0
  194.7230  171.3560  136.0650 N   0  0  0  0  0  2  0  0  0  0  0  0
  192.0440  170.8250  135.1230 O   0  0  0  0  0  0  0  0  0  0  0  0
  188.9490  172.8140  137.5050 C   0  0  1  0  0  3  0  0  0  0  0  0
  191.3300  173.2660  137.8500 C   0  0  0  0  0  2  0  0  0  0  0  0
  188.2540  172.1030  138.4850 O   0  0  0  0  0  1  0  0  0  0  0  0
  192.2720  171.8270  135.9120 C   0  0  0  0  0  0  0  0  0  0  0  0
  189.9260  173.8110  138.1560 C   0  0  0  0  0  2  0  0  0  0  0  0
  189.7870  171.8160  136.6970 C   0  0  0  0  0  2  0  0  0  0  0  0
  191.1660  172.2330  136.7890 N   0  0  0  0  0  0  0  0  0  0  0  0
  194.1150  175.0420  136.2830 C   0  0  0  0  0  0  0  0  0  0  0  0
  195.1520  175.6750  136.2760 O   0  0  0  0  0  1  0  0  0  0  0  0
  193.0260  175.5460  135.5930 O   0  0  0  0  0  0  0  0  0  0  0  0
  196.7190  174.4790  139.5540 C   0  0  2  0  0  3  0  0  0  0  0  0
  197.2850  175.4850  138.7540 O   0  0  0  0  0  1  0  0  0  0  0  0
  197.7870  173.4860  140.0610 C   0  0  0  0  0  2  0  0  0  0  0  0
  197.9010  173.6460  141.5460 N   0  0  0  0  0  0  0  0  0  0  0  0
  196.9650  174.7170  141.8720 C   0  0  0  0  0  2  0  0  0  0  0  0
  197.5060  175.3920  143.0920 C   0  0  0  0  0  1  0  0  0  0  0  0
  197.9410  172.4440  142.3470 C   0  0  0  0  0  2  0  0  0  0  0  0
  197.7280  171.1420  141.5630 C   0  0  0  0  0  1  0  0  0  0  0  0
  1  3  2  0  0  0  0
  2  1  2  0  0  0  0
  3  5  1  0  0  0  0
  5  6  1  0  0  0  0
  5  4  2  0  0  0  0
  7  9  1  0  0  0  0
  7 10  1  0  0  0  0
  8 11  1  0  0  0  0
  9  6  1  6  0  0  0
  9 11  1  0  0  0  0
 10  8  1  0  0  0  0
 13 12  1  6  0  0  0
 14 27  1  6  0  0  0
 14  9  1  0  0  0  0
 14 12  1  0  0  0  0
 14 13  1  0  0  0  0
 17 24  1  0  0  0  0
 17 15  1  0  0  0  0
 18 17  2  0  0  0  0
 19 15  2  0  0  0  0
 20 25  1  0  0  0  0
 20 13  1  1  0  0  0
 20 22  1  0  0  0  0
 21 25  1  0  0  0  0
 21 18  1  0  0  0  0
 22 24  1  0  0  0  0
 23 18  1  0  0  0  0
 23 19  1  0  0  0  0
 24 16  1  0  0  0  0
 25 22  1  0  0  0  0
 25 24  1  0  0  0  0
 26 27  2  0  0  0  0
 28 27  1  0  0  0  0
 29 31  1  0  0  0  0
 29 32  1  0  0  0  0
 30 28  1  0  0  0  0
 31 32  1  0  0  0  0
 31 33  1  0  0  0  0
 33 30  1  0  0  0  0
 34  2  1  0  0  0  0
 34 35  1  0  0  0  0
 36 37  1  0  0  0  0
 37 35  1  0  0  0  0
 37 39  1  0  0  0  0
 38 37  1  0  0  0  0
 39 40  1  0  0  0  0
 41  2  1  0  0  0  0
 42 60  1  0  0  0  0
 42 41  1  0  0  0  0
 44 43  1  0  0  0  0
 44 45  1  0  0  0  0
 45 42  1  0  0  0  0
 46 53  1  0  0  0  0
 46 48  1  0  0  0  0
 46 47  1  0  0  0  0
 47 45  1  0  0  0  0
 48 44  1  0  0  0  0
 49 53  2  0  0  0  0
 50 54  1  0  0  0  0
 50 52  1  0  0  0  0
 51 54  1  0  0  0  0
 53 56  1  0  0  0  0
 55 56  1  0  0  0  0
 55 50  1  0  0  0  0
 56 51  1  0  0  0  0
 57 47  1  0  0  0  0
 58 57  1  0  0  0  0
 59 57  2  0  0  0  0
 60 62  1  0  0  0  0
 61 60  1  0  0  0  0
 62 63  1  0  0  0  0
 63 64  1  0  0  0  0
 63 66  1  0  0  0  0
 64 65  1  0  0  0  0
 67 66  1  0  0  0  0
M  END
>  <MODEL>
8

>  <REMARK>
 VINA RESULT:      -4.7      2.994      8.413
  Name = 
  22 active torsions:
  status: ('A' for Active; 'I' for Inactive)
    1  A    between atoms: C_1  and  N_54
    2  A    between atoms: C_10  and  O_36
    3  A    between atoms: C_11  and  C_16
    4  A    between atoms: C_11  and  N_54
    5  A    between atoms: O_12  and  C_20
    6  A    between atoms: O_12  and  C_30
    7  A    between atoms: C_16  and  C_23
    8  A    between atoms: C_20  and  C_61
    9  A    between atoms: C_23  and  C_40
   10  A    between atoms: C_23  and  C_62
   11  A    between atoms: C_25  and  C_39
   12  A    between atoms: C_27  and  N_54
   13  A    between atoms: C_30  and  C_60
   14  A    between atoms: C_34  and  C_43
   15  A    between atoms: C_35  and  O_48
   16  A    between atoms: C_35  and  C_62
   17  A    between atoms: O_36  and  C_64
   18  A    between atoms: C_38  and  C_51
   19  A    between atoms: C_39  and  O_56
   20  A    between atoms: C_45  and  C_46
   21  A    between atoms: O_48  and  O_56
   22  A    between atoms: C_61  and  C_64
                            x       y       z     vdW  Elec       q    Type
                         _______ _______ _______ _____ _____    ______ ____

>  <TORSDO>
F 22

$$$$
=
 OpenBabel11062422353D

 67 75  0  0  1  0  0  0  0  0999 V2000
  190.6370  173.0540  143.7440 C   0  0  0  0  0  0  0  0  0  0  0  0
  189.4810  173.5930  143.9080 C   0  0  0  0  0  0  0  0  0  0  0  0
  191.7840  172.6340  143.8580 C   0  0  0  0  0  3  0  0  0  0  0  0
  193.1890  174.3620  143.5180 O   0  0  0  0  0  0  0  0  0  0  0  0
  192.8830  173.1200  143.2450 C   0  0  0  0  0  0  0  0  0  0  0  0
  193.8200  172.0340  143.2440 O   0  0  0  0  0  0  0  0  0  0  0  0
  195.5000  170.6820  143.7050 O   0  0  0  0  0  0  0  0  0  0  0  0
  196.0020  171.3750  145.7960 C   0  0  0  0  0  2  0  0  0  0  0  0
  195.1440  172.0350  143.7560 C   0  0  2  0  0  0  0  0  0  0  0  0
  195.9090  170.2900  144.9300 O   0  0  0  0  0  0  0  0  0  0  0  0
  194.9770  172.2980  145.2830 C   0  0  0  0  0  2  0  0  0  0  0  0
  197.5430  172.3400  142.9210 O   0  0  0  0  0  0  0  0  0  0  0  0
  196.9020  172.4230  141.7140 C   0  0  1  0  0  3  0  0  0  0  0  0
  196.3030  172.9370  143.0380 C   0  0  1  0  0  0  0  0  0  0  0  0
  196.7180  173.8740  135.8070 N   0  0  0  0  0  0  0  0  0  0  0  0
  197.3160  171.8880  138.2140 F   0  0  0  0  0  0  0  0  0  0  0  0
  196.8440  174.1120  137.1970 C   0  0  0  0  0  0  0  0  0  0  0  0
  197.3170  175.2860  137.4800 C   0  0  0  0  0  0  0  0  0  0  0  0
  197.1150  175.1280  135.1730 C   0  0  0  0  0  3  0  0  0  0  0  0
  196.6860  173.6830  140.8130 C   0  0  2  0  0  3  0  0  0  0  0  0
  197.5950  175.3340  138.9630 C   0  0  0  0  0  2  0  0  0  0  0  0
  195.8770  173.5270  139.5190 C   0  0  2  0  0  3  0  0  0  0  0  0
  197.5480  175.9870  136.2500 O   0  0  0  0  0  0  0  0  0  0  0  0
  196.7600  173.1740  138.2930 C   0  0  1  0  0  0  0  0  0  0  0  0
  197.4130  173.8260  139.4570 C   0  0  2  0  0  0  0  0  0  0  0  0
  197.9360  174.1490  144.7720 O   0  0  0  0  0  0  0  0  0  0  0  0
  196.8720  174.2350  143.8700 C   0  0  0  0  0  0  0  0  0  0  0  0
  197.0890  175.4150  143.1250 O   0  0  0  0  0  0  0  0  0  0  0  0
  194.1930  177.2650  146.5150 C   0  0  0  0  0  2  0  0  0  0  0  0
  196.4190  176.6080  143.2640 C   0  0  0  0  0  2  0  0  0  0  0  0
  194.9200  176.4890  145.4750 C   0  0  0  0  0  3  0  0  0  0  0  0
  194.0560  175.8010  146.5400 C   0  0  0  0  0  2  0  0  0  0  0  0
  195.6750  176.5950  144.3680 C   0  0  0  0  0  2  0  0  0  0  0  0
  189.3430  174.2200  145.1690 O   0  0  0  0  0  0  0  0  0  0  0  0
  190.3610  174.8320  145.7450 O   0  0  0  0  0  0  0  0  0  0  0  0
  191.1140  174.9300  147.8120 O   0  0  0  0  0  1  0  0  0  0  0  0
  190.0940  175.3940  146.9960 C   0  0  2  0  0  0  0  0  0  0  0  0
  189.0670  174.7880  147.6850 F   0  0  0  0  0  0  0  0  0  0  0  0
  189.9720  176.9870  147.1670 C   0  0  0  0  0  2  0  0  0  0  0  0
  190.8630  177.3990  148.1550 O   0  0  0  0  0  1  0  0  0  0  0  0
  188.4510  173.6400  142.8380 C   0  0  0  0  0  2  0  0  0  0  0  0
  188.9240  174.2490  141.4300 C   0  0  2  0  0  3  0  0  0  0  0  0
  187.4530  175.6770  138.7370 N   0  0  0  0  0  1  0  0  0  0  0  0
  187.2370  175.8880  140.1720 C   0  0  1  0  0  3  0  0  0  0  0  0
  188.5280  175.7320  140.9630 C   0  0  1  0  0  3  0  0  0  0  0  0
  187.1270  177.6030  141.7080 C   0  0  1  0  0  3  0  0  0  0  0  0
  188.1950  176.6080  142.1800 C   0  0  2  0  0  3  0  0  0  0  0  0
  186.7690  177.2440  140.3230 N   0  0  0  0  0  2  0  0  0  0  0  0
  184.7280  177.6700  141.9560 O   0  0  0  0  0  0  0  0  0  0  0  0
  185.0670  178.8080  146.1750 C   0  0  1  0  0  3  0  0  0  0  0  0
  186.9730  177.9190  144.9230 C   0  0  0  0  0  2  0  0  0  0  0  0
  184.4850  178.0120  147.1640 O   0  0  0  0  0  1  0  0  0  0  0  0
  185.8530  177.7620  142.5910 C   0  0  0  0  0  0  0  0  0  0  0  0
  186.6000  178.6730  146.2090 C   0  0  0  0  0  2  0  0  0  0  0  0
  184.5930  178.2920  144.8110 C   0  0  0  0  0  2  0  0  0  0  0  0
  185.7690  177.9480  144.0460 N   0  0  0  0  0  0  0  0  0  0  0  0
  189.5010  177.0660  142.8740 C   0  0  0  0  0  0  0  0  0  0  0  0
  189.4930  177.8320  143.8170 O   0  0  0  0  0  1  0  0  0  0  0  0
  190.6710  176.3870  142.5820 O   0  0  0  0  0  0  0  0  0  0  0  0
  189.7980  173.2790  140.5490 C   0  0  2  0  0  3  0  0  0  0  0  0
  191.0760  173.7690  140.2330 O   0  0  0  0  0  1  0  0  0  0  0  0
  189.0820  172.7100  139.3050 C   0  0  0  0  0  2  0  0  0  0  0  0
  190.0550  172.7150  138.1660 N   0  0  0  0  0  0  0  0  0  0  0  0
  190.0710  171.3340  137.6930 C   0  0  0  0  0  2  0  0  0  0  0  0
  190.1880  170.4740  138.9110 C   0  0  0  0  0  1  0  0  0  0  0  0
  189.9750  173.8070  137.2230 C   0  0  0  0  0  2  0  0  0  0  0  0
  190.9600  173.7150  136.0490 C   0  0  0  0  0  1  0  0  0  0  0  0
  1  3  2  0  0  0  0
  1  2  2  0  0  0  0
  2 34  1  0  0  0  0
  5  4  2  0  0  0  0
  5  3  1  0  0  0  0
  6  5  1  0  0  0  0
  7  9  1  0  0  0  0
  7 10  1  0  0  0  0
  9  6  1  6  0  0  0
  9 11  1  0  0  0  0
 10  8  1  0  0  0  0
 11  8  1  0  0  0  0
 12 14  1  0  0  0  0
 13 12  1  1  0  0  0
 13 14  1  0  0  0  0
 14  9  1  0  0  0  0
 14 27  1  1  0  0  0
 15 17  1  0  0  0  0
 16 24  1  0  0  0  0
 17 18  2  0  0  0  0
 17 24  1  0  0  0  0
 18 21  1  0  0  0  0
 19 15  2  0  0  0  0
 19 23  1  0  0  0  0
 20 13  1  6  0  0  0
 21 25  1  0  0  0  0
 22 20  1  0  0  0  0
 23 18  1  0  0  0  0
 24 25  1  0  0  0  0
 24 22  1  0  0  0  0
 25 22  1  0  0  0  0
 25 20  1  0  0  0  0
 27 26  2  0  0  0  0
 28 30  1  0  0  0  0
 28 27  1  0  0  0  0
 29 32  1  0  0  0  0
 30 33  1  0  0  0  0
 31 29  1  0  0  0  0
 31 32  1  0  0  0  0
 33 31  1  0  0  0  0
 34 35  1  0  0  0  0
 35 37  1  0  0  0  0
 37 39  1  0  0  0  0
 37 38  1  0  0  0  0
 37 36  1  0  0  0  0
 39 40  1  0  0  0  0
 41  2  1  0  0  0  0
 42 41  1  0  0  0  0
 43 44  1  0  0  0  0
 44 48  1  0  0  0  0
 44 45  1  0  0  0  0
 45 42  1  0  0  0  0
 45 47  1  0  0  0  0
 46 47  1  0  0  0  0
 46 53  1  0  0  0  0
 47 57  1  0  0  0  0
 48 46  1  0  0  0  0
 49 53  2  0  0  0  0
 50 54  1  0  0  0  0
 50 52  1  0  0  0  0
 51 54  1  0  0  0  0
 53 56  1  0  0  0  0
 55 50  1  0  0  0  0
 56 55  1  0  0  0  0
 56 51  1  0  0  0  0
 57 58  1  0  0  0  0
 59 57  2  0  0  0  0
 60 42  1  0  0  0  0
 61 60  1  0  0  0  0
 62 60  1  0  0  0  0
 63 62  1  0  0  0  0
 64 63  1  0  0  0  0
 64 65  1  0  0  0  0
 66 63  1  0  0  0  0
 67 66  1  0  0  0  0
M  END
>  <MODEL>
9

>  <REMARK>
 VINA RESULT:      -4.7      2.956      6.473
  Name = 
  22 active torsions:
  status: ('A' for Active; 'I' for Inactive)
    1  A    between atoms: C_1  and  N_54
    2  A    between atoms: C_10  and  O_36
    3  A    between atoms: C_11  and  C_16
    4  A    between atoms: C_11  and  N_54
    5  A    between atoms: O_12  and  C_20
    6  A    between atoms: O_12  and  C_30
    7  A    between atoms: C_16  and  C_23
    8  A    between atoms: C_20  and  C_61
    9  A    between atoms: C_23  and  C_40
   10  A    between atoms: C_23  and  C_62
   11  A    between atoms: C_25  and  C_39
   12  A    between atoms: C_27  and  N_54
   13  A    between atoms: C_30  and  C_60
   14  A    between atoms: C_34  and  C_43
   15  A    between atoms: C_35  and  O_48
   16  A    between atoms: C_35  and  C_62
   17  A    between atoms: O_36  and  C_64
   18  A    between atoms: C_38  and  C_51
   19  A    between atoms: C_39  and  O_56
   20  A    between atoms: C_45  and  C_46
   21  A    between atoms: O_48  and  O_56
   22  A    between atoms: C_61  and  C_64
                            x       y       z     vdW  Elec       q    Type
                         _______ _______ _______ _____ _____    ______ ____

>  <TORSDO>
F 22

$$$$
