=
 OpenBabel11062420293D

 53 60  0  0  1  0  0  0  0  0999 V2000
  189.4880  172.5940  139.5870 N   0  0  0  0  0  2  0  0  0  0  0  0
  188.9150  173.9340  139.5540 C   0  0  0  0  0  2  0  0  0  0  0  0
  190.5380  172.6500  140.5930 C   0  0  1  0  0  3  0  0  0  0  0  0
  189.0820  174.5300  140.9420 C   0  0  0  0  0  2  0  0  0  0  0  0
  190.1580  173.7090  141.6060 C   0  0  2  0  0  3  0  0  0  0  0  0
  192.0270  170.6410  141.2610 C   0  0  2  0  0  3  0  0  0  0  0  0
  190.6940  171.3010  141.2820 C   0  0  2  0  0  0  0  0  0  0  0  0
  190.9840  170.2570  140.3830 O   0  0  0  0  0  0  0  0  0  0  0  0
  189.7640  170.9140  142.2540 O   0  0  0  0  0  1  0  0  0  0  0  0
  192.1860  169.5840  142.3410 C   0  0  0  0  0  2  0  0  0  0  0  0
  193.4680  169.8300  143.1160 C   0  0  1  0  0  3  0  0  0  0  0  0
  194.2490  170.9740  142.4950 C   0  0  0  0  0  2  0  0  0  0  0  0
  194.0420  171.1650  144.8350 C   0  0  1  0  0  3  0  0  0  0  0  0
  194.3230  171.9880  143.5910 C   0  0  1  0  0  3  0  0  0  0  0  0
  193.1580  170.1420  144.4550 O   0  0  0  0  0  0  0  0  0  0  0  0
  195.6710  172.7030  143.5990 C   0  0  0  0  0  2  0  0  0  0  0  0
  194.4710  176.4210  144.0070 C   0  0  0  0  0  2  0  0  0  0  0  0
  194.9640  176.6310  145.4350 C   0  0  0  0  0  2  0  0  0  0  0  0
  195.0140  175.1630  143.3030 C   0  0  1  0  0  3  0  0  0  0  0  0
  196.4000  175.0200  143.5290 O   0  0  0  0  0  0  0  0  0  0  0  0
  195.5620  174.1010  144.1960 C   0  0  2  0  0  0  0  0  0  0  0  0
  194.7380  175.3660  146.2350 C   0  0  0  0  0  2  0  0  0  0  0  0
  195.6570  174.2730  145.7160 C   0  0  0  0  0  2  0  0  0  0  0  0
  195.2160  170.5890  145.3460 O   0  0  0  0  0  0  0  0  0  0  0  0
  194.8580  170.0360  146.4850 O   0  0  0  0  0  0  0  0  0  0  0  0
  195.6000  168.8540  146.5570 C   0  0  0  0  0  3  0  0  0  0  0  0
  197.0390  169.1470  146.1830 C   0  0  0  0  0  2  0  0  0  0  0  0
  196.6560  168.9920  147.6360 C   0  0  0  0  0  2  0  0  0  0  0  0
  191.3720  174.5720  141.9270 C   0  0  0  0  0  2  0  0  0  0  0  0
  191.1380  175.5320  143.0970 C   0  0  2  0  0  3  0  0  0  0  0  0
  190.4520  175.8450  147.7170 O   0  0  0  0  0  1  0  0  0  0  0  0
  191.1450  176.2880  146.5990 C   0  0  0  0  0  3  0  0  0  0  0  0
  191.1550  174.8350  144.4260 C   0  0  0  0  0  0  0  0  0  0  0  0
  191.1530  175.5640  145.5130 C   0  0  0  0  0  0  0  0  0  0  0  0
  190.1740  172.6770  145.1380 C   0  0  0  0  0  2  0  0  0  0  0  0
  191.1160  173.3580  144.4930 C   0  0  0  0  0  3  0  0  0  0  0  0
  188.5600  178.3690  143.0500 N   0  0  0  0  0  2  0  0  0  0  0  0
  190.8630  178.3710  143.3630 O   0  0  0  0  0  0  0  0  0  0  0  0
  189.8230  177.7020  143.1190 C   0  0  0  0  0  0  0  0  0  0  0  0
  189.9060  176.2880  142.9160 N   0  0  0  0  0  2  0  0  0  0  0  0
  187.2840  177.6830  142.8510 C   0  0  2  0  0  3  0  0  0  0  0  0
  186.3170  178.5460  142.0470 C   0  0  0  0  0  2  0  0  0  0  0  0
  185.4810  177.6790  141.1240 C   0  0  0  0  0  2  0  0  0  0  0  0
  182.8840  178.3570  140.6620 N   0  0  0  0  0  0  0  0  0  0  0  0
  182.9640  178.3350  142.0150 O   0  0  0  0  0  0  0  0  0  0  0  0
  184.0470  178.0620  141.2430 C   0  0  0  0  0  0  0  0  0  0  0  0
  186.6940  177.3440  144.1390 N   0  0  0  0  0  2  0  0  0  0  0  0
  186.4970  178.5050  144.8050 O   0  0  0  0  0  0  0  0  0  0  0  0
  187.3330  177.5960  147.3040 C   0  0  0  0  0  1  0  0  0  0  0  0
  184.1160  178.9010  145.5090 C   0  0  0  0  0  1  0  0  0  0  0  0
  185.3520  176.7800  146.0560 C   0  0  0  0  0  2  0  0  0  0  0  0
  185.4640  178.2420  145.7200 C   0  0  1  0  0  0  0  0  0  0  0  0
  185.8280  177.7600  147.1160 C   0  0  2  0  0  3  0  0  0  0  0  0
  2  1  1  0  0  0  0
  2  4  1  0  0  0  0
  3  1  1  6  0  0  0
  3  7  1  0  0  0  0
  3  5  1  0  0  0  0
  4  5  1  0  0  0  0
  5 29  1  6  0  0  0
  6  7  1  0  0  0  0
  6 10  1  1  0  0  0
  7  9  1  1  0  0  0
  8  6  1  0  0  0  0
  8  7  1  0  0  0  0
 11 10  1  6  0  0  0
 11 15  1  0  0  0  0
 12 11  1  0  0  0  0
 12 14  1  0  0  0  0
 13 24  1  6  0  0  0
 14 16  1  1  0  0  0
 14 13  1  0  0  0  0
 15 13  1  0  0  0  0
 17 18  1  0  0  0  0
 18 22  1  0  0  0  0
 19 20  1  0  0  0  0
 19 17  1  1  0  0  0
 19 21  1  0  0  0  0
 20 21  1  0  0  0  0
 21 16  1  6  0  0  0
 21 23  1  0  0  0  0
 23 22  1  0  0  0  0
 24 25  1  0  0  0  0
 25 26  1  0  0  0  0
 26 28  1  0  0  0  0
 27 26  1  0  0  0  0
 27 28  1  0  0  0  0
 30 29  1  6  0  0  0
 30 33  1  0  0  0  0
 32 31  1  0  0  0  0
 33 36  1  0  0  0  0
 33 34  2  0  0  0  0
 34 32  2  0  0  0  0
 36 35  2  0  0  0  0
 37 39  1  0  0  0  0
 39 38  2  0  0  0  0
 40 30  1  0  0  0  0
 40 39  1  0  0  0  0
 41 42  1  1  0  0  0
 41 37  1  0  0  0  0
 41 47  1  0  0  0  0
 43 46  1  0  0  0  0
 43 42  1  0  0  0  0
 44 46  2  0  0  0  0
 44 45  1  0  0  0  0
 46 45  1  0  0  0  0
 47 48  1  0  0  0  0
 48 52  1  0  0  0  0
 51 53  1  0  0  0  0
 52 50  1  6  0  0  0
 52 51  1  0  0  0  0
 52 53  1  0  0  0  0
 53 49  1  6  0  0  0
M  END
>  <MODEL>
1

>  <REMARK>
 VINA RESULT:      -6.6      0.000      0.000
  Name = 
  20 active torsions:
  status: ('A' for Active; 'I' for Inactive)
    1  A    between atoms: C_1  and  C_48
    2  A    between atoms: C_8  and  C_18
    3  A    between atoms: C_8  and  C_32
    4  A    between atoms: N_10  and  C_42
    5  A    between atoms: N_10  and  O_52
    6  A    between atoms: C_11  and  C_35
    7  A    between atoms: C_11  and  C_40
    8  A    between atoms: C_11  and  N_43
    9  A    between atoms: C_12  and  O_52
   10  A    between atoms: O_13  and  C_19
   11  A    between atoms: O_13  and  O_27
   12  A    between atoms: N_15  and  C_42
   13  A    between atoms: C_16  and  C_30
   14  A    between atoms: C_16  and  C_33
   15  A    between atoms: C_18  and  C_42
   16  A    between atoms: C_20  and  C_48
   17  A    between atoms: C_21  and  O_27
   18  A    between atoms: C_26  and  C_34
   19  A    between atoms: C_35  and  C_51
   20  A    between atoms: C_40  and  C_53
                            x       y       z     vdW  Elec       q    Type
                         _______ _______ _______ _____ _____    ______ ____

>  <TORSDO>
F 20

$$$$
=
 OpenBabel11062420293D

 53 60  0  0  1  0  0  0  0  0999 V2000
  189.2850  177.4180  145.7120 N   0  0  0  0  0  2  0  0  0  0  0  0
  189.6500  176.7530  146.9570 C   0  0  0  0  0  2  0  0  0  0  0  0
  190.4470  177.2740  144.8460 C   0  0  1  0  0  3  0  0  0  0  0  0
  190.6360  175.6500  146.6070 C   0  0  0  0  0  2  0  0  0  0  0  0
  191.1720  176.0070  145.2440 C   0  0  2  0  0  3  0  0  0  0  0  0
  188.8630  176.3320  143.0280 C   0  0  2  0  0  3  0  0  0  0  0  0
  190.0200  177.1950  143.3860 C   0  0  2  0  0  0  0  0  0  0  0  0
  190.2020  175.9150  142.8300 O   0  0  0  0  0  0  0  0  0  0  0  0
  190.4040  178.2110  142.5020 O   0  0  0  0  0  1  0  0  0  0  0  0
  188.2470  176.6870  141.6860 C   0  0  0  0  0  2  0  0  0  0  0  0
  186.7360  176.7460  141.8130 C   0  0  1  0  0  3  0  0  0  0  0  0
  186.3370  176.9810  143.2590 C   0  0  0  0  0  2  0  0  0  0  0  0
  185.2090  178.4000  141.7530 C   0  0  1  0  0  3  0  0  0  0  0  0
  185.5940  178.2770  143.2150 C   0  0  1  0  0  3  0  0  0  0  0  0
  186.2340  177.7900  141.0100 O   0  0  0  0  0  0  0  0  0  0  0  0
  184.4120  178.2750  144.1810 C   0  0  0  0  0  2  0  0  0  0  0  0
  185.9420  176.9120  147.5330 C   0  0  0  0  0  2  0  0  0  0  0  0
  186.1380  178.2590  148.2210 C   0  0  0  0  0  2  0  0  0  0  0  0
  185.0550  176.9410  146.2740 C   0  0  1  0  0  3  0  0  0  0  0  0
  183.9000  177.7220  146.4910 O   0  0  0  0  0  0  0  0  0  0  0  0
  184.8740  178.2770  145.6340 C   0  0  2  0  0  0  0  0  0  0  0  0
  186.5950  179.2820  147.2030 C   0  0  0  0  0  2  0  0  0  0  0  0
  185.4630  179.5610  146.2290 C   0  0  0  0  0  2  0  0  0  0  0  0
  183.9970  177.7450  141.4840 O   0  0  0  0  0  0  0  0  0  0  0  0
  183.2930  178.6030  140.7770 O   0  0  0  0  0  0  0  0  0  0  0  0
  181.9920  178.0930  140.7880 C   0  0  0  0  0  3  0  0  0  0  0  0
  181.2560  178.6380  141.9960 C   0  0  0  0  0  2  0  0  0  0  0  0
  181.0070  179.2350  140.6310 C   0  0  0  0  0  2  0  0  0  0  0  0
  192.6710  176.2710  145.3080 C   0  0  0  0  0  2  0  0  0  0  0  0
  193.5130  175.1090  144.7730 C   0  0  2  0  0  3  0  0  0  0  0  0
  197.8670  173.4480  145.2130 O   0  0  0  0  0  1  0  0  0  0  0  0
  196.6130  173.6250  145.7820 C   0  0  0  0  0  3  0  0  0  0  0  0
  194.9840  175.4090  144.7860 C   0  0  0  0  0  0  0  0  0  0  0  0
  195.7970  174.5160  145.2880 C   0  0  0  0  0  0  0  0  0  0  0  0
  196.5720  176.7230  143.4180 C   0  0  0  0  0  2  0  0  0  0  0  0
  195.4930  176.6630  144.1900 C   0  0  0  0  0  3  0  0  0  0  0  0
  192.6910  173.0210  141.6650 N   0  0  0  0  0  2  0  0  0  0  0  0
  193.2470  172.4140  143.8380 O   0  0  0  0  0  0  0  0  0  0  0  0
  193.0120  173.3440  143.0210 C   0  0  0  0  0  0  0  0  0  0  0  0
  193.0700  174.7100  143.4440 N   0  0  0  0  0  2  0  0  0  0  0  0
  192.4780  174.0170  140.6160 C   0  0  2  0  0  3  0  0  0  0  0  0
  191.6020  173.4600  139.4990 C   0  0  0  0  0  2  0  0  0  0  0  0
  190.8400  172.2420  139.9870 C   0  0  0  0  0  2  0  0  0  0  0  0
  188.4420  173.0710  140.9780 N   0  0  0  0  0  0  0  0  0  0  0  0
  188.1440  172.7060  139.7060 O   0  0  0  0  0  0  0  0  0  0  0  0
  189.4090  172.5980  140.1910 C   0  0  0  0  0  0  0  0  0  0  0  0
  193.7580  174.4520  140.0740 N   0  0  0  0  0  2  0  0  0  0  0  0
  194.5540  173.3600  140.0080 O   0  0  0  0  0  0  0  0  0  0  0  0
  196.6270  173.3560  141.8730 C   0  0  0  0  0  1  0  0  0  0  0  0
  196.0460  173.8070  138.0340 C   0  0  0  0  0  1  0  0  0  0  0  0
  196.2100  175.1150  140.1760 C   0  0  0  0  0  2  0  0  0  0  0  0
  195.7900  173.8240  139.5280 C   0  0  1  0  0  0  0  0  0  0  0  0
  196.9820  173.8390  140.4710 C   0  0  2  0  0  3  0  0  0  0  0  0
  1  2  1  0  0  0  0
  3  5  1  0  0  0  0
  3  1  1  1  0  0  0
  4  2  1  0  0  0  0
  5 29  1  1  0  0  0
  5  4  1  0  0  0  0
  6 10  1  6  0  0  0
  6  7  1  0  0  0  0
  7  9  1  6  0  0  0
  7  3  1  0  0  0  0
  8  6  1  0  0  0  0
  8  7  1  0  0  0  0
 11 10  1  1  0  0  0
 11 12  1  0  0  0  0
 13 24  1  1  0  0  0
 13 14  1  0  0  0  0
 14 12  1  0  0  0  0
 14 16  1  1  0  0  0
 15 13  1  0  0  0  0
 15 11  1  0  0  0  0
 17 18  1  0  0  0  0
 19 20  1  0  0  0  0
 19 17  1  1  0  0  0
 21 16  1  6  0  0  0
 21 23  1  0  0  0  0
 21 19  1  0  0  0  0
 21 20  1  0  0  0  0
 22 18  1  0  0  0  0
 23 22  1  0  0  0  0
 25 26  1  0  0  0  0
 25 24  1  0  0  0  0
 26 27  1  0  0  0  0
 28 26  1  0  0  0  0
 28 27  1  0  0  0  0
 30 33  1  0  0  0  0
 30 29  1  6  0  0  0
 31 32  1  0  0  0  0
 33 34  2  0  0  0  0
 34 32  2  0  0  0  0
 35 36  2  0  0  0  0
 36 33  1  0  0  0  0
 37 39  1  0  0  0  0
 39 40  1  0  0  0  0
 39 38  2  0  0  0  0
 40 30  1  0  0  0  0
 41 42  1  6  0  0  0
 41 37  1  0  0  0  0
 42 43  1  0  0  0  0
 43 46  1  0  0  0  0
 45 46  1  0  0  0  0
 45 44  1  0  0  0  0
 46 44  2  0  0  0  0
 47 41  1  0  0  0  0
 48 47  1  0  0  0  0
 51 53  1  0  0  0  0
 52 50  1  6  0  0  0
 52 48  1  0  0  0  0
 52 51  1  0  0  0  0
 52 53  1  0  0  0  0
 53 49  1  1  0  0  0
M  END
>  <MODEL>
2

>  <REMARK>
 VINA RESULT:      -6.5      2.674      9.975
  Name = 
  20 active torsions:
  status: ('A' for Active; 'I' for Inactive)
    1  A    between atoms: C_1  and  C_48
    2  A    between atoms: C_8  and  C_18
    3  A    between atoms: C_8  and  C_32
    4  A    between atoms: N_10  and  C_42
    5  A    between atoms: N_10  and  O_52
    6  A    between atoms: C_11  and  C_35
    7  A    between atoms: C_11  and  C_40
    8  A    between atoms: C_11  and  N_43
    9  A    between atoms: C_12  and  O_52
   10  A    between atoms: O_13  and  C_19
   11  A    between atoms: O_13  and  O_27
   12  A    between atoms: N_15  and  C_42
   13  A    between atoms: C_16  and  C_30
   14  A    between atoms: C_16  and  C_33
   15  A    between atoms: C_18  and  C_42
   16  A    between atoms: C_20  and  C_48
   17  A    between atoms: C_21  and  O_27
   18  A    between atoms: C_26  and  C_34
   19  A    between atoms: C_35  and  C_51
   20  A    between atoms: C_40  and  C_53
                            x       y       z     vdW  Elec       q    Type
                         _______ _______ _______ _____ _____    ______ ____

>  <TORSDO>
F 20

$$$$
=
 OpenBabel11062420293D

 53 60  0  0  1  0  0  0  0  0999 V2000
  196.0720  177.1380  143.9730 N   0  0  0  0  0  2  0  0  0  0  0  0
  197.2070  176.7270  143.1560 C   0  0  0  0  0  2  0  0  0  0  0  0
  195.2420  175.9490  144.1050 C   0  0  1  0  0  3  0  0  0  0  0  0
  197.4330  175.2460  143.4120 C   0  0  0  0  0  2  0  0  0  0  0  0
  196.1440  174.7380  144.0040 C   0  0  2  0  0  3  0  0  0  0  0  0
  193.0740  176.3240  145.4680 C   0  0  2  0  0  3  0  0  0  0  0  0
  194.5130  175.9480  145.4420 C   0  0  2  0  0  0  0  0  0  0  0  0
  194.0960  177.2330  145.8390 O   0  0  0  0  0  0  0  0  0  0  0  0
  195.0390  175.2130  146.5110 O   0  0  0  0  0  1  0  0  0  0  0  0
  192.3560  175.8440  146.7170 C   0  0  0  0  0  2  0  0  0  0  0  0
  191.0050  176.5270  146.8270 C   0  0  1  0  0  3  0  0  0  0  0  0
  190.6980  177.2980  145.5560 C   0  0  0  0  0  2  0  0  0  0  0  0
  188.8970  175.9580  146.2750 C   0  0  1  0  0  3  0  0  0  0  0  0
  189.4480  176.6560  145.0450 C   0  0  1  0  0  3  0  0  0  0  0  0
  190.0020  175.5600  147.0460 O   0  0  0  0  0  0  0  0  0  0  0  0
  188.5050  177.6850  144.4280 C   0  0  0  0  0  2  0  0  0  0  0  0
  187.1940  177.7690  140.7270 C   0  0  0  0  0  2  0  0  0  0  0  0
  187.1200  176.2610  140.5100 C   0  0  0  0  0  2  0  0  0  0  0  0
  187.3730  178.2150  142.1900 C   0  0  1  0  0  3  0  0  0  0  0  0
  186.5180  177.4870  143.0450 O   0  0  0  0  0  0  0  0  0  0  0  0
  187.8910  177.1770  143.1290 C   0  0  2  0  0  0  0  0  0  0  0  0
  188.3010  175.5980  141.1860 C   0  0  0  0  0  2  0  0  0  0  0  0
  188.1580  175.7320  142.6930 C   0  0  0  0  0  2  0  0  0  0  0  0
  188.0930  176.8180  147.0380 O   0  0  0  0  0  0  0  0  0  0  0  0
  186.8620  176.3930  146.8500 O   0  0  0  0  0  0  0  0  0  0  0  0
  186.0550  177.3420  147.4840 C   0  0  0  0  0  3  0  0  0  0  0  0
  185.9320  178.5630  146.5950 C   0  0  0  0  0  2  0  0  0  0  0  0
  184.8020  177.5630  146.6610 C   0  0  0  0  0  2  0  0  0  0  0  0
  195.5060  173.6970  143.0920 C   0  0  0  0  0  2  0  0  0  0  0  0
  194.1320  174.1180  142.5640 C   0  0  2  0  0  3  0  0  0  0  0  0
  190.1330  171.7960  141.8400 O   0  0  0  0  0  1  0  0  0  0  0  0
  190.8240  172.9980  141.7690 C   0  0  0  0  0  3  0  0  0  0  0  0
  193.0140  173.3120  143.1590 C   0  0  0  0  0  0  0  0  0  0  0  0
  191.9170  173.1590  142.4630 C   0  0  0  0  0  0  0  0  0  0  0  0
  193.2180  171.3470  144.6490 C   0  0  0  0  0  2  0  0  0  0  0  0
  193.1830  172.6640  144.4780 C   0  0  0  0  0  3  0  0  0  0  0  0
  194.1780  175.1420  138.8690 N   0  0  0  0  0  2  0  0  0  0  0  0
  194.7360  176.2990  140.8060 O   0  0  0  0  0  0  0  0  0  0  0  0
  194.3530  175.2160  140.2870 C   0  0  0  0  0  0  0  0  0  0  0  0
  194.0940  174.0730  141.1080 N   0  0  0  0  0  2  0  0  0  0  0  0
  193.6650  173.9650  138.1700 C   0  0  2  0  0  3  0  0  0  0  0  0
  194.2040  173.8950  136.7450 C   0  0  0  0  0  2  0  0  0  0  0  0
  195.6230  174.4280  136.6930 C   0  0  0  0  0  2  0  0  0  0  0  0
  196.5890  172.4930  135.0370 N   0  0  0  0  0  0  0  0  0  0  0  0
  197.7130  173.0530  135.5500 O   0  0  0  0  0  0  0  0  0  0  0  0
  196.4790  173.4930  135.9130 C   0  0  0  0  0  0  0  0  0  0  0  0
  192.2090  173.9920  138.1500 N   0  0  0  0  0  2  0  0  0  0  0  0
  191.8070  173.0940  137.2200 O   0  0  0  0  0  0  0  0  0  0  0  0
  190.7040  172.0780  134.8700 C   0  0  0  0  0  1  0  0  0  0  0  0
  189.5900  173.5690  138.3060 C   0  0  0  0  0  1  0  0  0  0  0  0
  190.1040  174.2350  135.9350 C   0  0  0  0  0  2  0  0  0  0  0  0
  190.4260  173.3010  137.0710 C   0  0  1  0  0  0  0  0  0  0  0  0
  189.7360  172.7630  135.8270 C   0  0  2  0  0  3  0  0  0  0  0  0
  2  4  1  0  0  0  0
  2  1  1  0  0  0  0
  3  1  1  1  0  0  0
  3  7  1  0  0  0  0
  4  5  1  0  0  0  0
  5 29  1  6  0  0  0
  5  3  1  0  0  0  0
  6  8  1  0  0  0  0
  6 10  1  1  0  0  0
  7  6  1  0  0  0  0
  7  8  1  0  0  0  0
  7  9  1  1  0  0  0
 11 10  1  6  0  0  0
 11 15  1  0  0  0  0
 12 11  1  0  0  0  0
 13 24  1  1  0  0  0
 13 15  1  0  0  0  0
 14 16  1  1  0  0  0
 14 12  1  0  0  0  0
 14 13  1  0  0  0  0
 18 17  1  0  0  0  0
 18 22  1  0  0  0  0
 19 17  1  6  0  0  0
 19 20  1  0  0  0  0
 19 21  1  0  0  0  0
 20 21  1  0  0  0  0
 21 16  1  1  0  0  0
 22 23  1  0  0  0  0
 23 21  1  0  0  0  0
 25 24  1  0  0  0  0
 25 26  1  0  0  0  0
 27 28  1  0  0  0  0
 27 26  1  0  0  0  0
 28 26  1  0  0  0  0
 30 29  1  1  0  0  0
 30 33  1  0  0  0  0
 32 31  1  0  0  0  0
 32 34  2  0  0  0  0
 33 36  1  0  0  0  0
 34 33  2  0  0  0  0
 36 35  2  0  0  0  0
 37 39  1  0  0  0  0
 39 38  2  0  0  0  0
 39 40  1  0  0  0  0
 40 30  1  0  0  0  0
 41 42  1  6  0  0  0
 41 37  1  0  0  0  0
 43 42  1  0  0  0  0
 44 45  1  0  0  0  0
 44 46  2  0  0  0  0
 45 46  1  0  0  0  0
 46 43  1  0  0  0  0
 47 41  1  0  0  0  0
 48 47  1  0  0  0  0
 51 52  1  0  0  0  0
 52 48  1  0  0  0  0
 52 50  1  1  0  0  0
 53 49  1  6  0  0  0
 53 51  1  0  0  0  0
 53 52  1  0  0  0  0
M  END
>  <MODEL>
3

>  <REMARK>
 VINA RESULT:      -6.4      3.418      9.323
  Name = 
  20 active torsions:
  status: ('A' for Active; 'I' for Inactive)
    1  A    between atoms: C_1  and  C_48
    2  A    between atoms: C_8  and  C_18
    3  A    between atoms: C_8  and  C_32
    4  A    between atoms: N_10  and  C_42
    5  A    between atoms: N_10  and  O_52
    6  A    between atoms: C_11  and  C_35
    7  A    between atoms: C_11  and  C_40
    8  A    between atoms: C_11  and  N_43
    9  A    between atoms: C_12  and  O_52
   10  A    between atoms: O_13  and  C_19
   11  A    between atoms: O_13  and  O_27
   12  A    between atoms: N_15  and  C_42
   13  A    between atoms: C_16  and  C_30
   14  A    between atoms: C_16  and  C_33
   15  A    between atoms: C_18  and  C_42
   16  A    between atoms: C_20  and  C_48
   17  A    between atoms: C_21  and  O_27
   18  A    between atoms: C_26  and  C_34
   19  A    between atoms: C_35  and  C_51
   20  A    between atoms: C_40  and  C_53
                            x       y       z     vdW  Elec       q    Type
                         _______ _______ _______ _____ _____    ______ ____

>  <TORSDO>
F 20

$$$$
=
 OpenBabel11062420293D

 53 60  0  0  1  0  0  0  0  0999 V2000
  196.5670  174.3430  144.9510 N   0  0  0  0  0  2  0  0  0  0  0  0
  195.8020  174.5140  146.1800 C   0  0  0  0  0  2  0  0  0  0  0  0
  195.6940  174.8160  143.8860 C   0  0  1  0  0  3  0  0  0  0  0  0
  194.8600  175.6880  145.9640 C   0  0  0  0  0  2  0  0  0  0  0  0
  194.7710  175.8630  144.4700 C   0  0  2  0  0  3  0  0  0  0  0  0
  197.1140  174.4960  141.7450 C   0  0  2  0  0  3  0  0  0  0  0  0
  196.5110  175.4140  142.7480 C   0  0  2  0  0  0  0  0  0  0  0  0
  197.8710  175.0560  142.8030 O   0  0  0  0  0  0  0  0  0  0  0  0
  196.3350  176.7610  142.4110 O   0  0  0  0  0  1  0  0  0  0  0  0
  197.4810  175.1910  140.4460 C   0  0  0  0  0  2  0  0  0  0  0  0
  196.5380  174.7470  139.3420 C   0  0  1  0  0  3  0  0  0  0  0  0
  195.9010  173.4160  139.6960 C   0  0  0  0  0  2  0  0  0  0  0  0
  194.3380  175.0120  138.9420 C   0  0  1  0  0  3  0  0  0  0  0  0
  194.4390  173.7240  139.7390 C   0  0  1  0  0  3  0  0  0  0  0  0
  195.5330  175.7180  139.1590 O   0  0  0  0  0  0  0  0  0  0  0  0
  193.6090  172.5700  139.1810 C   0  0  0  0  0  2  0  0  0  0  0  0
  189.8180  172.0550  140.0720 C   0  0  0  0  0  2  0  0  0  0  0  0
  190.0240  171.4200  141.4430 C   0  0  0  0  0  2  0  0  0  0  0  0
  191.0660  172.7230  139.4640 C   0  0  1  0  0  3  0  0  0  0  0  0
  191.7440  173.4950  140.4320 O   0  0  0  0  0  0  0  0  0  0  0  0
  192.3770  172.2990  140.0360 C   0  0  2  0  0  0  0  0  0  0  0  0
  191.2210  170.4950  141.3950 C   0  0  0  0  0  2  0  0  0  0  0  0
  192.4840  171.3180  141.2100 C   0  0  0  0  0  2  0  0  0  0  0  0
  194.2010  174.7570  137.5690 O   0  0  0  0  0  0  0  0  0  0  0  0
  193.1190  175.4120  137.2050 O   0  0  0  0  0  0  0  0  0  0  0  0
  192.5230  174.6050  136.2320 C   0  0  0  0  0  3  0  0  0  0  0  0
  191.0180  174.6570  136.3980 C   0  0  0  0  0  2  0  0  0  0  0  0
  191.6830  175.4690  135.3130 C   0  0  0  0  0  2  0  0  0  0  0  0
  193.3470  175.6220  143.9830 C   0  0  0  0  0  2  0  0  0  0  0  0
  192.4400  175.0040  145.0520 C   0  0  2  0  0  3  0  0  0  0  0  0
  193.3370  170.4110  144.9850 O   0  0  0  0  0  1  0  0  0  0  0  0
  193.7100  171.6880  144.5880 C   0  0  0  0  0  3  0  0  0  0  0  0
  191.9650  173.6300  144.6790 C   0  0  0  0  0  0  0  0  0  0  0  0
  192.8410  172.6600  144.6310 C   0  0  0  0  0  0  0  0  0  0  0  0
  189.8470  172.3890  144.9940 C   0  0  0  0  0  2  0  0  0  0  0  0
  190.5280  173.3810  144.4310 C   0  0  0  0  0  3  0  0  0  0  0  0
  189.9810  177.2830  146.9110 N   0  0  0  0  0  2  0  0  0  0  0  0
  192.0710  176.4530  147.4960 O   0  0  0  0  0  0  0  0  0  0  0  0
  191.1650  176.5350  146.6230 C   0  0  0  0  0  0  0  0  0  0  0  0
  191.3190  175.8830  145.3590 N   0  0  0  0  0  2  0  0  0  0  0  0
  188.8360  177.3810  146.0060 C   0  0  2  0  0  3  0  0  0  0  0  0
  187.8540  176.2380  146.2400 C   0  0  0  0  0  2  0  0  0  0  0  0
  186.6030  176.7520  146.9270 C   0  0  0  0  0  2  0  0  0  0  0  0
  184.6750  177.8510  145.3470 N   0  0  0  0  0  0  0  0  0  0  0  0
  185.7430  178.6630  145.1450 O   0  0  0  0  0  0  0  0  0  0  0  0
  185.8210  177.5910  145.9770 C   0  0  0  0  0  0  0  0  0  0  0  0
  189.2910  177.3700  144.6230 N   0  0  0  0  0  2  0  0  0  0  0  0
  188.5060  176.4960  143.9520 O   0  0  0  0  0  0  0  0  0  0  0  0
  187.7680  174.4150  142.2490 C   0  0  0  0  0  1  0  0  0  0  0  0
  188.9580  178.1350  142.1000 C   0  0  0  0  0  1  0  0  0  0  0  0
  189.8320  175.7760  142.0610 C   0  0  0  0  0  2  0  0  0  0  0  0
  188.7800  176.7120  142.5920 C   0  0  1  0  0  0  0  0  0  0  0  0
  188.3940  175.6380  141.5870 C   0  0  2  0  0  3  0  0  0  0  0  0
  1  2  1  0  0  0  0
  3  5  1  0  0  0  0
  3  1  1  1  0  0  0
  4  2  1  0  0  0  0
  5 29  1  6  0  0  0
  5  4  1  0  0  0  0
  6 10  1  6  0  0  0
  6  7  1  0  0  0  0
  6  8  1  0  0  0  0
  7  9  1  6  0  0  0
  7  8  1  0  0  0  0
  7  3  1  0  0  0  0
 11 12  1  0  0  0  0
 11 10  1  1  0  0  0
 12 14  1  0  0  0  0
 13 24  1  6  0  0  0
 13 15  1  0  0  0  0
 13 14  1  0  0  0  0
 14 16  1  6  0  0  0
 15 11  1  0  0  0  0
 17 18  1  0  0  0  0
 19 21  1  0  0  0  0
 19 17  1  1  0  0  0
 19 20  1  0  0  0  0
 21 16  1  6  0  0  0
 21 20  1  0  0  0  0
 21 23  1  0  0  0  0
 22 18  1  0  0  0  0
 23 22  1  0  0  0  0
 25 24  1  0  0  0  0
 26 27  1  0  0  0  0
 26 25  1  0  0  0  0
 28 26  1  0  0  0  0
 28 27  1  0  0  0  0
 30 29  1  6  0  0  0
 30 40  1  0  0  0  0
 32 34  2  0  0  0  0
 32 31  1  0  0  0  0
 33 30  1  0  0  0  0
 34 33  2  0  0  0  0
 36 33  1  0  0  0  0
 36 35  2  0  0  0  0
 39 37  1  0  0  0  0
 39 38  2  0  0  0  0
 40 39  1  0  0  0  0
 41 42  1  6  0  0  0
 41 37  1  0  0  0  0
 42 43  1  0  0  0  0
 44 46  2  0  0  0  0
 45 44  1  0  0  0  0
 45 46  1  0  0  0  0
 46 43  1  0  0  0  0
 47 41  1  0  0  0  0
 48 47  1  0  0  0  0
 51 52  1  0  0  0  0
 52 50  1  6  0  0  0
 52 48  1  0  0  0  0
 53 51  1  0  0  0  0
 53 49  1  1  0  0  0
 53 52  1  0  0  0  0
M  END
>  <MODEL>
4

>  <REMARK>
 VINA RESULT:      -6.4      2.844      6.720
  Name = 
  20 active torsions:
  status: ('A' for Active; 'I' for Inactive)
    1  A    between atoms: C_1  and  C_48
    2  A    between atoms: C_8  and  C_18
    3  A    between atoms: C_8  and  C_32
    4  A    between atoms: N_10  and  C_42
    5  A    between atoms: N_10  and  O_52
    6  A    between atoms: C_11  and  C_35
    7  A    between atoms: C_11  and  C_40
    8  A    between atoms: C_11  and  N_43
    9  A    between atoms: C_12  and  O_52
   10  A    between atoms: O_13  and  C_19
   11  A    between atoms: O_13  and  O_27
   12  A    between atoms: N_15  and  C_42
   13  A    between atoms: C_16  and  C_30
   14  A    between atoms: C_16  and  C_33
   15  A    between atoms: C_18  and  C_42
   16  A    between atoms: C_20  and  C_48
   17  A    between atoms: C_21  and  O_27
   18  A    between atoms: C_26  and  C_34
   19  A    between atoms: C_35  and  C_51
   20  A    between atoms: C_40  and  C_53
                            x       y       z     vdW  Elec       q    Type
                         _______ _______ _______ _____ _____    ______ ____

>  <TORSDO>
F 20

$$$$
=
 OpenBabel11062420293D

 53 60  0  0  1  0  0  0  0  0999 V2000
  189.3240  170.4460  138.2610 N   0  0  0  0  0  2  0  0  0  0  0  0
  190.2750  169.5120  137.6710 C   0  0  0  0  0  2  0  0  0  0  0  0
  190.1080  171.2740  139.1660 C   0  0  1  0  0  3  0  0  0  0  0  0
  191.6270  170.2060  137.6400 C   0  0  0  0  0  2  0  0  0  0  0  0
  191.5240  171.3350  138.6330 C   0  0  2  0  0  3  0  0  0  0  0  0
  188.7120  173.0350  140.4490 C   0  0  2  0  0  3  0  0  0  0  0  0
  189.5220  172.6770  139.2540 C   0  0  2  0  0  0  0  0  0  0  0  0
  188.1160  172.6860  139.2120 O   0  0  0  0  0  0  0  0  0  0  0  0
  190.0790  173.7030  138.4830 O   0  0  0  0  0  1  0  0  0  0  0  0
  188.5890  174.5350  140.6570 C   0  0  0  0  0  2  0  0  0  0  0  0
  187.7640  174.8140  141.9000 C   0  0  1  0  0  3  0  0  0  0  0  0
  188.6400  174.7570  143.1390 C   0  0  0  0  0  2  0  0  0  0  0  0
  187.2590  176.6660  143.0770 C   0  0  1  0  0  3  0  0  0  0  0  0
  188.5280  176.1310  143.7160 C   0  0  1  0  0  3  0  0  0  0  0  0
  187.1740  176.0910  141.7990 O   0  0  0  0  0  0  0  0  0  0  0  0
  188.5000  176.0950  145.2420 C   0  0  0  0  0  2  0  0  0  0  0  0
  191.8370  175.1300  147.0760 C   0  0  0  0  0  2  0  0  0  0  0  0
  192.6580  176.3390  146.6370 C   0  0  0  0  0  2  0  0  0  0  0  0
  190.3200  175.2450  146.8340 C   0  0  1  0  0  3  0  0  0  0  0  0
  189.8440  176.5160  147.2210 O   0  0  0  0  0  0  0  0  0  0  0  0
  189.8940  176.2660  145.8340 C   0  0  2  0  0  0  0  0  0  0  0  0
  192.3160  176.6860  145.2050 C   0  0  0  0  0  2  0  0  0  0  0  0
  190.8890  177.2040  145.1410 C   0  0  0  0  0  2  0  0  0  0  0  0
  186.1220  176.3090  143.8170 O   0  0  0  0  0  0  0  0  0  0  0  0
  185.2780  177.3060  143.6510 O   0  0  0  0  0  0  0  0  0  0  0  0
  185.5570  178.1880  144.6990 C   0  0  0  0  0  3  0  0  0  0  0  0
  185.2360  179.6020  144.2560 C   0  0  0  0  0  2  0  0  0  0  0  0
  184.2720  178.8540  145.1470 C   0  0  0  0  0  2  0  0  0  0  0  0
  192.5120  171.1380  139.7770 C   0  0  0  0  0  2  0  0  0  0  0  0
  193.4230  172.3480  140.0020 C   0  0  2  0  0  3  0  0  0  0  0  0
  197.0500  169.7030  138.6780 O   0  0  0  0  0  1  0  0  0  0  0  0
  196.3300  170.2750  139.7180 C   0  0  0  0  0  3  0  0  0  0  0  0
  194.7030  172.2590  139.2230 C   0  0  0  0  0  0  0  0  0  0  0  0
  195.5170  171.2670  139.4740 C   0  0  0  0  0  0  0  0  0  0  0  0
  194.6430  173.0780  136.8880 C   0  0  0  0  0  2  0  0  0  0  0  0
  194.9970  173.2430  138.1580 C   0  0  0  0  0  3  0  0  0  0  0  0
  193.2690  173.6600  143.6020 N   0  0  0  0  0  2  0  0  0  0  0  0
  191.8450  173.9400  141.7870 O   0  0  0  0  0  0  0  0  0  0  0  0
  192.8890  173.4030  142.2470 C   0  0  0  0  0  0  0  0  0  0  0  0
  193.6860  172.5490  141.4210 N   0  0  0  0  0  2  0  0  0  0  0  0
  194.4980  173.1550  144.2140 C   0  0  2  0  0  3  0  0  0  0  0  0
  194.2230  172.5820  145.6010 C   0  0  0  0  0  2  0  0  0  0  0  0
  194.2130  171.0660  145.5510 C   0  0  0  0  0  2  0  0  0  0  0  0
  196.8200  170.5980  146.1870 N   0  0  0  0  0  0  0  0  0  0  0  0
  196.5690  169.6880  145.2130 O   0  0  0  0  0  0  0  0  0  0  0  0
  195.6090  170.5550  145.6300 C   0  0  0  0  0  0  0  0  0  0  0  0
  195.4850  174.2210  144.3030 N   0  0  0  0  0  2  0  0  0  0  0  0
  195.8840  174.5000  143.0410 O   0  0  0  0  0  0  0  0  0  0  0  0
  196.5640  175.5640  140.5550 C   0  0  0  0  0  1  0  0  0  0  0  0
  195.7500  176.7300  144.1950 C   0  0  0  0  0  1  0  0  0  0  0  0
  197.6750  176.0930  142.7070 C   0  0  0  0  0  2  0  0  0  0  0  0
  196.2280  175.8630  143.0480 C   0  0  1  0  0  0  0  0  0  0  0  0
  196.5940  176.5320  141.7330 C   0  0  2  0  0  3  0  0  0  0  0  0
  2  1  1  0  0  0  0
  3  1  1  6  0  0  0
  3  7  1  0  0  0  0
  4  2  1  0  0  0  0
  4  5  1  0  0  0  0
  5  3  1  0  0  0  0
  5 29  1  1  0  0  0
  6 10  1  6  0  0  0
  7  9  1  6  0  0  0
  7  6  1  0  0  0  0
  8  7  1  0  0  0  0
  8  6  1  0  0  0  0
 11 10  1  6  0  0  0
 11 12  1  0  0  0  0
 12 14  1  0  0  0  0
 13 14  1  0  0  0  0
 13 24  1  1  0  0  0
 14 16  1  1  0  0  0
 15 11  1  0  0  0  0
 15 13  1  0  0  0  0
 18 17  1  0  0  0  0
 19 17  1  6  0  0  0
 19 20  1  0  0  0  0
 21 16  1  6  0  0  0
 21 19  1  0  0  0  0
 21 20  1  0  0  0  0
 22 18  1  0  0  0  0
 23 22  1  0  0  0  0
 23 21  1  0  0  0  0
 25 24  1  0  0  0  0
 25 26  1  0  0  0  0
 26 28  1  0  0  0  0
 27 26  1  0  0  0  0
 27 28  1  0  0  0  0
 30 29  1  1  0  0  0
 30 40  1  0  0  0  0
 31 32  1  0  0  0  0
 33 34  2  0  0  0  0
 33 30  1  0  0  0  0
 34 32  2  0  0  0  0
 35 36  2  0  0  0  0
 36 33  1  0  0  0  0
 37 41  1  0  0  0  0
 38 39  2  0  0  0  0
 39 37  1  0  0  0  0
 40 39  1  0  0  0  0
 41 47  1  0  0  0  0
 41 42  1  1  0  0  0
 43 42  1  0  0  0  0
 43 46  1  0  0  0  0
 45 46  1  0  0  0  0
 45 44  1  0  0  0  0
 46 44  2  0  0  0  0
 48 52  1  0  0  0  0
 48 47  1  0  0  0  0
 51 52  1  0  0  0  0
 52 50  1  1  0  0  0
 53 49  1  6  0  0  0
 53 51  1  0  0  0  0
 53 52  1  0  0  0  0
M  END
>  <MODEL>
5

>  <REMARK>
 VINA RESULT:      -6.4      3.117      9.157
  Name = 
  20 active torsions:
  status: ('A' for Active; 'I' for Inactive)
    1  A    between atoms: C_1  and  C_48
    2  A    between atoms: C_8  and  C_18
    3  A    between atoms: C_8  and  C_32
    4  A    between atoms: N_10  and  C_42
    5  A    between atoms: N_10  and  O_52
    6  A    between atoms: C_11  and  C_35
    7  A    between atoms: C_11  and  C_40
    8  A    between atoms: C_11  and  N_43
    9  A    between atoms: C_12  and  O_52
   10  A    between atoms: O_13  and  C_19
   11  A    between atoms: O_13  and  O_27
   12  A    between atoms: N_15  and  C_42
   13  A    between atoms: C_16  and  C_30
   14  A    between atoms: C_16  and  C_33
   15  A    between atoms: C_18  and  C_42
   16  A    between atoms: C_20  and  C_48
   17  A    between atoms: C_21  and  O_27
   18  A    between atoms: C_26  and  C_34
   19  A    between atoms: C_35  and  C_51
   20  A    between atoms: C_40  and  C_53
                            x       y       z     vdW  Elec       q    Type
                         _______ _______ _______ _____ _____    ______ ____

>  <TORSDO>
F 20

$$$$
=
 OpenBabel11062420293D

 53 60  0  0  1  0  0  0  0  0999 V2000
  189.1700  176.4850  145.9930 N   0  0  0  0  0  2  0  0  0  0  0  0
  189.4130  175.4380  146.9780 C   0  0  0  0  0  2  0  0  0  0  0  0
  190.3850  176.5500  145.1940 C   0  0  1  0  0  3  0  0  0  0  0  0
  190.3760  174.4430  146.3500 C   0  0  0  0  0  2  0  0  0  0  0  0
  191.0260  175.1790  145.2060 C   0  0  2  0  0  3  0  0  0  0  0  0
  189.0830  176.1580  142.9910 C   0  0  2  0  0  3  0  0  0  0  0  0
  190.0660  176.9640  143.7630 C   0  0  2  0  0  0  0  0  0  0  0  0
  190.4810  176.0140  142.8120 O   0  0  0  0  0  0  0  0  0  0  0  0
  190.3370  178.2750  143.3510 O   0  0  0  0  0  1  0  0  0  0  0  0
  188.5020  176.9050  141.8040 C   0  0  0  0  0  2  0  0  0  0  0  0
  186.9850  176.8830  141.8760 C   0  0  1  0  0  3  0  0  0  0  0  0
  186.5200  177.1860  143.2890 C   0  0  0  0  0  2  0  0  0  0  0  0
  185.3710  178.4370  141.6540 C   0  0  1  0  0  3  0  0  0  0  0  0
  185.7070  178.4310  143.1340 C   0  0  1  0  0  3  0  0  0  0  0  0
  186.4560  177.8430  140.9890 O   0  0  0  0  0  0  0  0  0  0  0  0
  184.4910  178.4210  144.0570 C   0  0  0  0  0  2  0  0  0  0  0  0
  185.6500  176.7780  147.4320 C   0  0  0  0  0  2  0  0  0  0  0  0
  186.0570  178.0630  148.1460 C   0  0  0  0  0  2  0  0  0  0  0  0
  184.8230  176.9750  146.1470 C   0  0  1  0  0  3  0  0  0  0  0  0
  183.8170  177.9450  146.3420 O   0  0  0  0  0  0  0  0  0  0  0  0
  184.8990  178.3270  145.5230 C   0  0  2  0  0  0  0  0  0  0  0  0
  186.7190  178.9990  147.1580 C   0  0  0  0  0  2  0  0  0  0  0  0
  185.6860  179.4820  146.1540 C   0  0  0  0  0  2  0  0  0  0  0  0
  184.2100  177.6960  141.3880 O   0  0  0  0  0  0  0  0  0  0  0  0
  183.3680  178.5580  140.8570 O   0  0  0  0  0  0  0  0  0  0  0  0
  182.1030  178.0130  141.0930 C   0  0  0  0  0  3  0  0  0  0  0  0
  181.3290  178.9350  142.0150 C   0  0  0  0  0  2  0  0  0  0  0  0
  181.0460  178.9440  140.5310 C   0  0  0  0  0  2  0  0  0  0  0  0
  192.5260  175.3150  145.4380 C   0  0  0  0  0  2  0  0  0  0  0  0
  193.3120  174.0550  145.0610 C   0  0  2  0  0  3  0  0  0  0  0  0
  196.6540  176.9120  143.4590 O   0  0  0  0  0  1  0  0  0  0  0  0
  195.5540  176.1150  143.1760 C   0  0  0  0  0  3  0  0  0  0  0  0
  194.7820  174.3170  144.9080 C   0  0  0  0  0  0  0  0  0  0  0  0
  195.1660  175.2160  144.0380 C   0  0  0  0  0  0  0  0  0  0  0  0
  197.0730  173.7800  145.6730 C   0  0  0  0  0  2  0  0  0  0  0  0
  195.7580  173.6120  145.7660 C   0  0  0  0  0  3  0  0  0  0  0  0
  192.4360  171.5030  142.3380 N   0  0  0  0  0  2  0  0  0  0  0  0
  193.3910  171.2590  144.4420 O   0  0  0  0  0  0  0  0  0  0  0  0
  192.8840  172.0340  143.5880 C   0  0  0  0  0  0  0  0  0  0  0  0
  192.7610  173.4330  143.8640 N   0  0  0  0  0  2  0  0  0  0  0  0
  191.9060  172.3190  141.2460 C   0  0  2  0  0  3  0  0  0  0  0  0
  192.7770  173.5480  141.0060 C   0  0  0  0  0  2  0  0  0  0  0  0
  193.7650  173.2810  139.8860 C   0  0  0  0  0  2  0  0  0  0  0  0
  192.7070  174.5920  137.7460 N   0  0  0  0  0  0  0  0  0  0  0  0
  193.8460  175.2820  138.0020 O   0  0  0  0  0  0  0  0  0  0  0  0
  193.4930  174.2050  138.7510 C   0  0  0  0  0  0  0  0  0  0  0  0
  190.5410  172.7280  141.5460 N   0  0  0  0  0  2  0  0  0  0  0  0
  190.1540  173.5740  140.5630 O   0  0  0  0  0  0  0  0  0  0  0  0
  189.5890  172.5520  138.0310 C   0  0  0  0  0  1  0  0  0  0  0  0
  187.8840  173.0530  141.5130 C   0  0  0  0  0  1  0  0  0  0  0  0
  188.1910  174.1740  139.2820 C   0  0  0  0  0  2  0  0  0  0  0  0
  188.8000  173.2790  140.3270 C   0  0  1  0  0  0  0  0  0  0  0  0
  188.4030  172.7000  138.9780 C   0  0  2  0  0  3  0  0  0  0  0  0
  1  2  1  0  0  0  0
  3  5  1  0  0  0  0
  3  1  1  1  0  0  0
  4  2  1  0  0  0  0
  5 29  1  1  0  0  0
  5  4  1  0  0  0  0
  6 10  1  6  0  0  0
  6  7  1  0  0  0  0
  7  9  1  6  0  0  0
  7  3  1  0  0  0  0
  8  6  1  0  0  0  0
  8  7  1  0  0  0  0
 11 10  1  1  0  0  0
 11 12  1  0  0  0  0
 13 24  1  1  0  0  0
 13 14  1  0  0  0  0
 14 12  1  0  0  0  0
 14 16  1  1  0  0  0
 15 13  1  0  0  0  0
 15 11  1  0  0  0  0
 17 18  1  0  0  0  0
 19 20  1  0  0  0  0
 19 17  1  1  0  0  0
 21 16  1  6  0  0  0
 21 19  1  0  0  0  0
 21 23  1  0  0  0  0
 21 20  1  0  0  0  0
 22 18  1  0  0  0  0
 23 22  1  0  0  0  0
 25 26  1  0  0  0  0
 25 24  1  0  0  0  0
 26 27  1  0  0  0  0
 28 26  1  0  0  0  0
 28 27  1  0  0  0  0
 30 29  1  6  0  0  0
 32 31  1  0  0  0  0
 32 34  2  0  0  0  0
 33 30  1  0  0  0  0
 33 36  1  0  0  0  0
 34 33  2  0  0  0  0
 35 36  2  0  0  0  0
 37 39  1  0  0  0  0
 39 40  1  0  0  0  0
 39 38  2  0  0  0  0
 40 30  1  0  0  0  0
 41 42  1  1  0  0  0
 41 47  1  0  0  0  0
 41 37  1  0  0  0  0
 43 42  1  0  0  0  0
 44 45  1  0  0  0  0
 44 46  2  0  0  0  0
 45 46  1  0  0  0  0
 46 43  1  0  0  0  0
 48 47  1  0  0  0  0
 51 52  1  0  0  0  0
 52 48  1  0  0  0  0
 52 50  1  1  0  0  0
 53 49  1  6  0  0  0
 53 51  1  0  0  0  0
 53 52  1  0  0  0  0
M  END
>  <MODEL>
6

>  <REMARK>
 VINA RESULT:      -6.3      2.530      9.640
  Name = 
  20 active torsions:
  status: ('A' for Active; 'I' for Inactive)
    1  A    between atoms: C_1  and  C_48
    2  A    between atoms: C_8  and  C_18
    3  A    between atoms: C_8  and  C_32
    4  A    between atoms: N_10  and  C_42
    5  A    between atoms: N_10  and  O_52
    6  A    between atoms: C_11  and  C_35
    7  A    between atoms: C_11  and  C_40
    8  A    between atoms: C_11  and  N_43
    9  A    between atoms: C_12  and  O_52
   10  A    between atoms: O_13  and  C_19
   11  A    between atoms: O_13  and  O_27
   12  A    between atoms: N_15  and  C_42
   13  A    between atoms: C_16  and  C_30
   14  A    between atoms: C_16  and  C_33
   15  A    between atoms: C_18  and  C_42
   16  A    between atoms: C_20  and  C_48
   17  A    between atoms: C_21  and  O_27
   18  A    between atoms: C_26  and  C_34
   19  A    between atoms: C_35  and  C_51
   20  A    between atoms: C_40  and  C_53
                            x       y       z     vdW  Elec       q    Type
                         _______ _______ _______ _____ _____    ______ ____

>  <TORSDO>
F 20

$$$$
=
 OpenBabel11062420293D

 53 60  0  0  1  0  0  0  0  0999 V2000
  195.5920  174.7990  144.7330 N   0  0  0  0  0  2  0  0  0  0  0  0
  195.4260  175.2230  146.1180 C   0  0  0  0  0  2  0  0  0  0  0  0
  194.2780  174.9510  144.1250 C   0  0  1  0  0  3  0  0  0  0  0  0
  194.3110  176.2560  146.1420 C   0  0  0  0  0  2  0  0  0  0  0  0
  193.5500  176.0580  144.8570 C   0  0  2  0  0  3  0  0  0  0  0  0
  195.0140  174.2950  141.7310 C   0  0  2  0  0  3  0  0  0  0  0  0
  194.4070  175.2980  142.6470 C   0  0  2  0  0  0  0  0  0  0  0  0
  195.7460  175.4040  142.2250 O   0  0  0  0  0  0  0  0  0  0  0  0
  193.6040  176.3080  142.1060 O   0  0  0  0  0  1  0  0  0  0  0  0
  194.6680  174.5350  140.2720 C   0  0  0  0  0  2  0  0  0  0  0  0
  193.8150  173.3920  139.7520 C   0  0  1  0  0  3  0  0  0  0  0  0
  192.8900  172.8850  140.8440 C   0  0  0  0  0  2  0  0  0  0  0  0
  191.7810  173.2470  138.7960 C   0  0  1  0  0  3  0  0  0  0  0  0
  191.5230  173.1150  140.2860 C   0  0  1  0  0  3  0  0  0  0  0  0
  193.0490  173.8350  138.6540 O   0  0  0  0  0  0  0  0  0  0  0  0
  190.5690  171.9840  140.6630 C   0  0  0  0  0  2  0  0  0  0  0  0
  190.5780  172.1940  144.5850 C   0  0  0  0  0  2  0  0  0  0  0  0
  189.2090  172.8460  144.7490 C   0  0  0  0  0  2  0  0  0  0  0  0
  190.8700  171.6270  143.1830 C   0  0  1  0  0  3  0  0  0  0  0  0
  189.7580  170.9140  142.6870 O   0  0  0  0  0  0  0  0  0  0  0  0
  190.0230  172.1570  142.0750 C   0  0  2  0  0  0  0  0  0  0  0  0
  189.0020  173.8650  143.6490 C   0  0  0  0  0  2  0  0  0  0  0  0
  188.8760  173.1450  142.3170 C   0  0  0  0  0  2  0  0  0  0  0  0
  191.7840  171.9960  138.1610 O   0  0  0  0  0  0  0  0  0  0  0  0
  191.4740  172.2470  136.9070 O   0  0  0  0  0  0  0  0  0  0  0  0
  190.1160  172.5740  136.9330 C   0  0  0  0  0  3  0  0  0  0  0  0
  189.8070  173.5070  135.7790 C   0  0  0  0  0  2  0  0  0  0  0  0
  189.4500  172.0420  135.6800 C   0  0  0  0  0  2  0  0  0  0  0  0
  192.1160  175.6290  145.1410 C   0  0  0  0  0  2  0  0  0  0  0  0
  191.2170  176.7870  145.5860 C   0  0  2  0  0  3  0  0  0  0  0  0
  191.3110  178.1040  150.0770 O   0  0  0  0  0  1  0  0  0  0  0  0
  192.0010  177.5890  148.9880 C   0  0  0  0  0  3  0  0  0  0  0  0
  190.6710  176.5920  146.9710 C   0  0  0  0  0  0  0  0  0  0  0  0
  191.3400  177.0890  147.9800 C   0  0  0  0  0  0  0  0  0  0  0  0
  189.2650  174.5910  147.3480 C   0  0  0  0  0  2  0  0  0  0  0  0
  189.3780  175.9030  147.1720 C   0  0  0  0  0  3  0  0  0  0  0  0
  189.2010  178.0860  142.5950 N   0  0  0  0  0  2  0  0  0  0  0  0
  191.4630  178.2140  143.1140 O   0  0  0  0  0  0  0  0  0  0  0  0
  190.3200  177.7880  143.4340 C   0  0  0  0  0  0  0  0  0  0  0  0
  190.1450  177.0170  144.6270 N   0  0  0  0  0  2  0  0  0  0  0  0
  187.8230  177.7100  142.9080 C   0  0  2  0  0  3  0  0  0  0  0  0
  186.9660  177.6650  141.6470 C   0  0  0  0  0  2  0  0  0  0  0  0
  185.5990  177.0870  141.9600 C   0  0  0  0  0  2  0  0  0  0  0  0
  183.2850  178.2840  141.1630 N   0  0  0  0  0  0  0  0  0  0  0  0
  184.1910  178.7220  140.2550 O   0  0  0  0  0  0  0  0  0  0  0  0
  184.5510  177.8750  141.2540 C   0  0  0  0  0  0  0  0  0  0  0  0
  187.2540  178.6520  143.8620 N   0  0  0  0  0  2  0  0  0  0  0  0
  186.6430  177.9230  144.8250 O   0  0  0  0  0  0  0  0  0  0  0  0
  186.1840  177.7250  147.5680 C   0  0  0  0  0  1  0  0  0  0  0  0
  185.1980  179.9570  144.5150 C   0  0  0  0  0  1  0  0  0  0  0  0
  184.4380  177.9460  145.8210 C   0  0  0  0  0  2  0  0  0  0  0  0
  185.6130  178.7410  145.3180 C   0  0  1  0  0  0  0  0  0  0  0  0
  185.3050  178.7120  146.8070 C   0  0  2  0  0  3  0  0  0  0  0  0
  1  2  1  0  0  0  0
  2  4  1  0  0  0  0
  3  1  1  1  0  0  0
  3  5  1  0  0  0  0
  5 29  1  1  0  0  0
  5  4  1  0  0  0  0
  6 10  1  6  0  0  0
  6  8  1  0  0  0  0
  6  7  1  0  0  0  0
  7  9  1  6  0  0  0
  7  3  1  0  0  0  0
  8  7  1  0  0  0  0
 11 10  1  1  0  0  0
 11 12  1  0  0  0  0
 13 24  1  6  0  0  0
 13 14  1  0  0  0  0
 14 16  1  6  0  0  0
 14 12  1  0  0  0  0
 15 13  1  0  0  0  0
 15 11  1  0  0  0  0
 17 18  1  0  0  0  0
 19 17  1  1  0  0  0
 20 19  1  0  0  0  0
 21 16  1  6  0  0  0
 21 23  1  0  0  0  0
 21 20  1  0  0  0  0
 21 19  1  0  0  0  0
 22 18  1  0  0  0  0
 23 22  1  0  0  0  0
 25 26  1  0  0  0  0
 25 24  1  0  0  0  0
 27 26  1  0  0  0  0
 28 27  1  0  0  0  0
 28 26  1  0  0  0  0
 30 29  1  6  0  0  0
 30 33  1  0  0  0  0
 32 31  1  0  0  0  0
 33 36  1  0  0  0  0
 33 34  2  0  0  0  0
 34 32  2  0  0  0  0
 36 35  2  0  0  0  0
 37 41  1  0  0  0  0
 37 39  1  0  0  0  0
 38 39  2  0  0  0  0
 39 40  1  0  0  0  0
 40 30  1  0  0  0  0
 41 42  1  6  0  0  0
 41 47  1  0  0  0  0
 42 43  1  0  0  0  0
 44 46  2  0  0  0  0
 45 44  1  0  0  0  0
 45 46  1  0  0  0  0
 46 43  1  0  0  0  0
 47 48  1  0  0  0  0
 48 52  1  0  0  0  0
 51 53  1  0  0  0  0
 52 50  1  6  0  0  0
 52 51  1  0  0  0  0
 52 53  1  0  0  0  0
 53 49  1  1  0  0  0
M  END
>  <MODEL>
7

>  <REMARK>
 VINA RESULT:      -6.3      2.713      5.751
  Name = 
  20 active torsions:
  status: ('A' for Active; 'I' for Inactive)
    1  A    between atoms: C_1  and  C_48
    2  A    between atoms: C_8  and  C_18
    3  A    between atoms: C_8  and  C_32
    4  A    between atoms: N_10  and  C_42
    5  A    between atoms: N_10  and  O_52
    6  A    between atoms: C_11  and  C_35
    7  A    between atoms: C_11  and  C_40
    8  A    between atoms: C_11  and  N_43
    9  A    between atoms: C_12  and  O_52
   10  A    between atoms: O_13  and  C_19
   11  A    between atoms: O_13  and  O_27
   12  A    between atoms: N_15  and  C_42
   13  A    between atoms: C_16  and  C_30
   14  A    between atoms: C_16  and  C_33
   15  A    between atoms: C_18  and  C_42
   16  A    between atoms: C_20  and  C_48
   17  A    between atoms: C_21  and  O_27
   18  A    between atoms: C_26  and  C_34
   19  A    between atoms: C_35  and  C_51
   20  A    between atoms: C_40  and  C_53
                            x       y       z     vdW  Elec       q    Type
                         _______ _______ _______ _____ _____    ______ ____

>  <TORSDO>
F 20

$$$$
=
 OpenBabel11062420293D

 53 60  0  0  1  0  0  0  0  0999 V2000
  190.2160  171.2240  139.1800 N   0  0  0  0  0  2  0  0  0  0  0  0
  191.5540  170.6860  138.9630 C   0  0  0  0  0  2  0  0  0  0  0  0
  190.3740  172.2450  140.2060 C   0  0  1  0  0  3  0  0  0  0  0  0
  192.5420  171.7990  139.2690 C   0  0  0  0  0  2  0  0  0  0  0  0
  191.7790  172.7980  140.1010 C   0  0  2  0  0  3  0  0  0  0  0  0
  188.7030  173.9440  141.2160 C   0  0  2  0  0  3  0  0  0  0  0  0
  189.3570  173.3610  140.0130 C   0  0  2  0  0  0  0  0  0  0  0  0
  188.0550  172.9880  140.3960 O   0  0  0  0  0  0  0  0  0  0  0  0
  189.3640  174.0990  138.8240 O   0  0  0  0  0  1  0  0  0  0  0  0
  188.0980  175.3130  140.9600 C   0  0  0  0  0  2  0  0  0  0  0  0
  187.3550  175.7850  142.1970 C   0  0  1  0  0  3  0  0  0  0  0  0
  188.2470  175.6830  143.4200 C   0  0  0  0  0  2  0  0  0  0  0  0
  187.1460  177.7610  143.2570 C   0  0  1  0  0  3  0  0  0  0  0  0
  188.3450  177.0930  143.9060 C   0  0  1  0  0  3  0  0  0  0  0  0
  186.9460  177.1230  142.0210 O   0  0  0  0  0  0  0  0  0  0  0  0
  188.3540  177.1580  145.4310 C   0  0  0  0  0  2  0  0  0  0  0  0
  191.1400  175.2970  147.4820 C   0  0  0  0  0  2  0  0  0  0  0  0
  192.3450  175.9540  146.8160 C   0  0  0  0  0  2  0  0  0  0  0  0
  189.7840  175.9700  147.1960 C   0  0  1  0  0  3  0  0  0  0  0  0
  189.8880  177.3740  147.3020 O   0  0  0  0  0  0  0  0  0  0  0  0
  189.7370  176.8590  145.9980 C   0  0  2  0  0  0  0  0  0  0  0  0
  192.0720  176.1220  145.3370 C   0  0  0  0  0  2  0  0  0  0  0  0
  190.9740  177.1540  145.1420 C   0  0  0  0  0  2  0  0  0  0  0  0
  185.9910  177.6150  144.0390 O   0  0  0  0  0  0  0  0  0  0  0  0
  185.6560  178.8400  144.3870 O   0  0  0  0  0  0  0  0  0  0  0  0
  184.5460  178.6840  145.2210 C   0  0  0  0  0  3  0  0  0  0  0  0
  184.8030  177.5410  146.1820 C   0  0  0  0  0  2  0  0  0  0  0  0
  184.9530  178.9680  146.6530 C   0  0  0  0  0  2  0  0  0  0  0  0
  192.3890  172.9190  141.4920 C   0  0  0  0  0  2  0  0  0  0  0  0
  192.9820  171.6040  142.0070 C   0  0  2  0  0  3  0  0  0  0  0  0
  189.3170  171.9320  144.8990 O   0  0  0  0  0  1  0  0  0  0  0  0
  190.3840  172.5660  144.2780 C   0  0  0  0  0  3  0  0  0  0  0  0
  192.3270  171.1350  143.2740 C   0  0  0  0  0  0  0  0  0  0  0  0
  191.3570  171.8540  143.7770 C   0  0  0  0  0  0  0  0  0  0  0  0
  192.4500  168.6660  143.3870 C   0  0  0  0  0  2  0  0  0  0  0  0
  192.7380  169.8580  143.8970 C   0  0  0  0  0  3  0  0  0  0  0  0
  196.7520  170.9740  141.7160 N   0  0  0  0  0  2  0  0  0  0  0  0
  194.9460  170.1620  140.5000 O   0  0  0  0  0  0  0  0  0  0  0  0
  195.3540  170.9180  141.4220 C   0  0  0  0  0  0  0  0  0  0  0  0
  194.4260  171.7100  142.1710 N   0  0  0  0  0  2  0  0  0  0  0  0
  197.3270  171.7530  142.8120 C   0  0  2  0  0  3  0  0  0  0  0  0
  196.5890  171.4860  144.1200 C   0  0  0  0  0  2  0  0  0  0  0  0
  197.4300  170.6080  145.0280 C   0  0  0  0  0  2  0  0  0  0  0  0
  195.9250  168.7160  146.2840 N   0  0  0  0  0  0  0  0  0  0  0  0
  196.1630  168.1670  145.0670 O   0  0  0  0  0  0  0  0  0  0  0  0
  196.6580  169.3890  145.3960 C   0  0  0  0  0  0  0  0  0  0  0  0
  197.2770  173.1730  142.4940 N   0  0  0  0  0  2  0  0  0  0  0  0
  197.1510  173.8390  143.6650 O   0  0  0  0  0  0  0  0  0  0  0  0
  195.6260  174.9790  145.7020 C   0  0  0  0  0  1  0  0  0  0  0  0
  197.1010  175.8790  142.1960 C   0  0  0  0  0  1  0  0  0  0  0  0
  195.0350  174.9530  143.2930 C   0  0  0  0  0  2  0  0  0  0  0  0
  196.5360  175.0590  143.3380 C   0  0  1  0  0  0  0  0  0  0  0  0
  195.6990  175.7630  144.3960 C   0  0  2  0  0  3  0  0  0  0  0  0
  2  1  1  0  0  0  0
  2  4  1  0  0  0  0
  3  1  1  6  0  0  0
  4  5  1  0  0  0  0
  5  3  1  0  0  0  0
  5 29  1  1  0  0  0
  6 10  1  6  0  0  0
  7  9  1  6  0  0  0
  7  3  1  0  0  0  0
  7  8  1  0  0  0  0
  7  6  1  0  0  0  0
  8  6  1  0  0  0  0
 11 10  1  6  0  0  0
 11 12  1  0  0  0  0
 12 14  1  0  0  0  0
 13 14  1  0  0  0  0
 13 24  1  1  0  0  0
 14 16  1  1  0  0  0
 15 11  1  0  0  0  0
 15 13  1  0  0  0  0
 18 17  1  0  0  0  0
 19 20  1  0  0  0  0
 19 17  1  6  0  0  0
 21 16  1  6  0  0  0
 21 19  1  0  0  0  0
 21 20  1  0  0  0  0
 22 18  1  0  0  0  0
 23 22  1  0  0  0  0
 23 21  1  0  0  0  0
 24 25  1  0  0  0  0
 25 26  1  0  0  0  0
 26 27  1  0  0  0  0
 26 28  1  0  0  0  0
 27 28  1  0  0  0  0
 30 29  1  1  0  0  0
 30 40  1  0  0  0  0
 30 33  1  0  0  0  0
 32 31  1  0  0  0  0
 33 34  2  0  0  0  0
 33 36  1  0  0  0  0
 34 32  2  0  0  0  0
 35 36  2  0  0  0  0
 37 41  1  0  0  0  0
 38 39  2  0  0  0  0
 39 37  1  0  0  0  0
 39 40  1  0  0  0  0
 41 42  1  1  0  0  0
 42 43  1  0  0  0  0
 43 46  1  0  0  0  0
 45 46  1  0  0  0  0
 45 44  1  0  0  0  0
 46 44  2  0  0  0  0
 47 41  1  0  0  0  0
 47 48  1  0  0  0  0
 51 52  1  0  0  0  0
 51 53  1  0  0  0  0
 52 50  1  6  0  0  0
 52 48  1  0  0  0  0
 52 53  1  0  0  0  0
 53 49  1  1  0  0  0
M  END
>  <MODEL>
8

>  <REMARK>
 VINA RESULT:      -6.2      2.999      9.248
  Name = 
  20 active torsions:
  status: ('A' for Active; 'I' for Inactive)
    1  A    between atoms: C_1  and  C_48
    2  A    between atoms: C_8  and  C_18
    3  A    between atoms: C_8  and  C_32
    4  A    between atoms: N_10  and  C_42
    5  A    between atoms: N_10  and  O_52
    6  A    between atoms: C_11  and  C_35
    7  A    between atoms: C_11  and  C_40
    8  A    between atoms: C_11  and  N_43
    9  A    between atoms: C_12  and  O_52
   10  A    between atoms: O_13  and  C_19
   11  A    between atoms: O_13  and  O_27
   12  A    between atoms: N_15  and  C_42
   13  A    between atoms: C_16  and  C_30
   14  A    between atoms: C_16  and  C_33
   15  A    between atoms: C_18  and  C_42
   16  A    between atoms: C_20  and  C_48
   17  A    between atoms: C_21  and  O_27
   18  A    between atoms: C_26  and  C_34
   19  A    between atoms: C_35  and  C_51
   20  A    between atoms: C_40  and  C_53
                            x       y       z     vdW  Elec       q    Type
                         _______ _______ _______ _____ _____    ______ ____

>  <TORSDO>
F 20

$$$$
=
 OpenBabel11062420293D

 53 60  0  0  1  0  0  0  0  0999 V2000
  189.6090  170.4130  138.4600 N   0  0  0  0  0  2  0  0  0  0  0  0
  190.6540  169.4320  138.1930 C   0  0  0  0  0  2  0  0  0  0  0  0
  190.1440  171.2680  139.5100 C   0  0  1  0  0  3  0  0  0  0  0  0
  191.9850  170.0960  138.5050 C   0  0  0  0  0  2  0  0  0  0  0  0
  191.6520  171.2740  139.3840 C   0  0  2  0  0  3  0  0  0  0  0  0
  188.6510  173.1830  140.4060 C   0  0  2  0  0  3  0  0  0  0  0  0
  189.6020  172.6850  139.3770 C   0  0  2  0  0  0  0  0  0  0  0  0
  188.2150  172.7210  139.1390 O   0  0  0  0  0  0  0  0  0  0  0  0
  190.2950  173.6140  138.5910 O   0  0  0  0  0  1  0  0  0  0  0  0
  188.5550  174.6980  140.4450 C   0  0  0  0  0  2  0  0  0  0  0  0
  187.7530  175.1310  141.6590 C   0  0  1  0  0  3  0  0  0  0  0  0
  188.5160  174.8220  142.9340 C   0  0  0  0  0  2  0  0  0  0  0  0
  187.6440  177.0120  142.8920 C   0  0  1  0  0  3  0  0  0  0  0  0
  188.7070  176.1640  143.5650 C   0  0  1  0  0  3  0  0  0  0  0  0
  187.4950  176.5150  141.5860 O   0  0  0  0  0  0  0  0  0  0  0  0
  188.5840  176.0870  145.0850 C   0  0  0  0  0  2  0  0  0  0  0  0
  191.5350  175.5960  147.6310 C   0  0  0  0  0  2  0  0  0  0  0  0
  192.5710  176.4390  146.8950 C   0  0  0  0  0  2  0  0  0  0  0  0
  190.0850  175.7590  147.1370 C   0  0  1  0  0  3  0  0  0  0  0  0
  189.7740  177.1210  146.9330 O   0  0  0  0  0  0  0  0  0  0  0  0
  189.9220  176.3360  145.7710 C   0  0  2  0  0  0  0  0  0  0  0  0
  192.4300  176.2200  145.4040 C   0  0  0  0  0  2  0  0  0  0  0  0
  191.1130  176.8140  144.9320 C   0  0  0  0  0  2  0  0  0  0  0  0
  186.4140  176.9200  143.5590 O   0  0  0  0  0  0  0  0  0  0  0  0
  185.9960  178.1620  143.6820 O   0  0  0  0  0  0  0  0  0  0  0  0
  184.8640  178.0800  144.4980 C   0  0  0  0  0  3  0  0  0  0  0  0
  185.2630  177.5130  145.8460 C   0  0  0  0  0  2  0  0  0  0  0  0
  185.0400  178.9990  145.6900 C   0  0  0  0  0  2  0  0  0  0  0  0
  192.2830  171.1130  140.7620 C   0  0  0  0  0  2  0  0  0  0  0  0
  193.1220  172.3220  141.1870 C   0  0  2  0  0  3  0  0  0  0  0  0
  196.0120  175.2550  138.9610 O   0  0  0  0  0  1  0  0  0  0  0  0
  194.7280  174.7440  139.0930 C   0  0  0  0  0  3  0  0  0  0  0  0
  194.3610  172.4850  140.3540 C   0  0  0  0  0  0  0  0  0  0  0  0
  194.5410  173.6160  139.7210 C   0  0  0  0  0  0  0  0  0  0  0  0
  196.6730  171.6140  140.4800 C   0  0  0  0  0  2  0  0  0  0  0  0
  195.3720  171.4080  140.3050 C   0  0  0  0  0  3  0  0  0  0  0  0
  193.0120  172.8040  144.9880 N   0  0  0  0  0  2  0  0  0  0  0  0
  191.4400  173.2150  143.3270 O   0  0  0  0  0  0  0  0  0  0  0  0
  192.5840  172.7770  143.6240 C   0  0  0  0  0  0  0  0  0  0  0  0
  193.4470  172.2610  142.6050 N   0  0  0  0  0  2  0  0  0  0  0  0
  194.3430  172.3960  145.4350 C   0  0  2  0  0  3  0  0  0  0  0  0
  195.3900  172.6680  144.3590 C   0  0  0  0  0  2  0  0  0  0  0  0
  196.1510  173.9420  144.6760 C   0  0  0  0  0  2  0  0  0  0  0  0
  194.8410  175.4850  142.8530 N   0  0  0  0  0  0  0  0  0  0  0  0
  195.5150  176.3930  143.6020 O   0  0  0  0  0  0  0  0  0  0  0  0
  195.6100  175.0620  143.8570 C   0  0  0  0  0  0  0  0  0  0  0  0
  194.3420  170.9810  145.7800 N   0  0  0  0  0  2  0  0  0  0  0  0
  195.5810  170.6810  146.2330 O   0  0  0  0  0  0  0  0  0  0  0  0
  197.9410  169.3760  145.5240 C   0  0  0  0  0  1  0  0  0  0  0  0
  194.5950  168.7000  147.4260 C   0  0  0  0  0  1  0  0  0  0  0  0
  195.6450  168.5200  145.1470 C   0  0  0  0  0  2  0  0  0  0  0  0
  195.5800  169.2910  146.4380 C   0  0  1  0  0  0  0  0  0  0  0  0
  196.8320  168.5000  146.0960 C   0  0  2  0  0  3  0  0  0  0  0  0
  2  1  1  0  0  0  0
  2  4  1  0  0  0  0
  3  1  1  6  0  0  0
  4  5  1  0  0  0  0
  5  3  1  0  0  0  0
  5 29  1  1  0  0  0
  6 10  1  6  0  0  0
  7  9  1  6  0  0  0
  7  3  1  0  0  0  0
  7  6  1  0  0  0  0
  8  7  1  0  0  0  0
  8  6  1  0  0  0  0
 11 10  1  6  0  0  0
 11 12  1  0  0  0  0
 12 14  1  0  0  0  0
 13 24  1  1  0  0  0
 13 14  1  0  0  0  0
 14 16  1  1  0  0  0
 15 11  1  0  0  0  0
 15 13  1  0  0  0  0
 18 17  1  0  0  0  0
 19 17  1  6  0  0  0
 20 19  1  0  0  0  0
 21 16  1  6  0  0  0
 21 20  1  0  0  0  0
 21 19  1  0  0  0  0
 22 18  1  0  0  0  0
 23 22  1  0  0  0  0
 23 21  1  0  0  0  0
 24 25  1  0  0  0  0
 25 26  1  0  0  0  0
 26 28  1  0  0  0  0
 26 27  1  0  0  0  0
 28 27  1  0  0  0  0
 30 29  1  6  0  0  0
 30 40  1  0  0  0  0
 31 32  1  0  0  0  0
 32 34  2  0  0  0  0
 33 30  1  0  0  0  0
 34 33  2  0  0  0  0
 36 33  1  0  0  0  0
 36 35  2  0  0  0  0
 37 41  1  0  0  0  0
 38 39  2  0  0  0  0
 39 37  1  0  0  0  0
 40 39  1  0  0  0  0
 41 42  1  6  0  0  0
 41 47  1  0  0  0  0
 42 43  1  0  0  0  0
 44 45  1  0  0  0  0
 44 46  2  0  0  0  0
 45 46  1  0  0  0  0
 46 43  1  0  0  0  0
 47 48  1  0  0  0  0
 48 52  1  0  0  0  0
 51 53  1  0  0  0  0
 51 52  1  0  0  0  0
 52 50  1  1  0  0  0
 53 49  1  6  0  0  0
 53 52  1  0  0  0  0
M  END
>  <MODEL>
9

>  <REMARK>
 VINA RESULT:      -6.2      2.913      8.974
  Name = 
  20 active torsions:
  status: ('A' for Active; 'I' for Inactive)
    1  A    between atoms: C_1  and  C_48
    2  A    between atoms: C_8  and  C_18
    3  A    between atoms: C_8  and  C_32
    4  A    between atoms: N_10  and  C_42
    5  A    between atoms: N_10  and  O_52
    6  A    between atoms: C_11  and  C_35
    7  A    between atoms: C_11  and  C_40
    8  A    between atoms: C_11  and  N_43
    9  A    between atoms: C_12  and  O_52
   10  A    between atoms: O_13  and  C_19
   11  A    between atoms: O_13  and  O_27
   12  A    between atoms: N_15  and  C_42
   13  A    between atoms: C_16  and  C_30
   14  A    between atoms: C_16  and  C_33
   15  A    between atoms: C_18  and  C_42
   16  A    between atoms: C_20  and  C_48
   17  A    between atoms: C_21  and  O_27
   18  A    between atoms: C_26  and  C_34
   19  A    between atoms: C_35  and  C_51
   20  A    between atoms: C_40  and  C_53
                            x       y       z     vdW  Elec       q    Type
                         _______ _______ _______ _____ _____    ______ ____

>  <TORSDO>
F 20

$$$$
