=
 OpenBabel11062423093D

 28 29  0  0  1  0  0  0  0  0999 V2000
  187.5140  177.5050  146.0010 C   0  0  0  0  0  0  0  0  0  0  0  0
  184.5160  177.9860  145.5150 C   0  0  0  0  0  3  0  0  0  0  0  0
  184.7830  178.7920  146.7210 C   0  0  0  0  0  3  0  0  0  0  0  0
  185.9080  178.7760  147.4470 C   0  0  0  0  0  3  0  0  0  0  0  0
  187.1000  177.9440  147.1940 C   0  0  0  0  0  3  0  0  0  0  0  0
  185.4400  177.5890  144.6410 C   0  0  0  0  0  3  0  0  0  0  0  0
  186.8740  178.0040  144.7290 C   0  0  2  0  0  3  0  0  0  0  0  0
  188.7320  176.6360  145.9630 C   0  0  0  0  0  2  0  0  0  0  0  0
  188.5580  175.4420  146.8880 C   0  0  0  0  0  2  0  0  0  0  0  0
  189.5180  174.3310  146.5050 C   0  0  0  0  0  2  0  0  0  0  0  0
  190.5610  174.8460  145.5300 C   0  0  0  0  0  2  0  0  0  0  0  0
  191.8840  175.1160  147.8470 O   0  0  0  0  0  0  0  0  0  0  0  0
  193.0390  173.9390  146.0290 O   0  0  0  0  0  0  0  0  0  0  0  0
  192.1170  175.0800  146.3620 S   0  0  0  0  0  0  0  0  0  0  0  0
  192.8490  176.6260  145.8370 C   0  0  2  0  0  3  0  0  0  0  0  0
  193.1720  176.1970  143.5170 O   0  0  0  0  0  0  0  0  0  0  0  0
  192.5730  176.8760  144.3910 C   0  0  0  0  0  0  0  0  0  0  0  0
  191.6690  177.8590  144.0020 O   0  0  0  0  0  1  0  0  0  0  0  0
  194.8690  177.9060  145.8470 O   0  0  0  0  0  1  0  0  0  0  0  0
  194.3500  176.6340  146.0890 C   0  0  0  0  0  2  0  0  0  0  0  0
  187.6200  177.5630  143.4700 C   0  0  0  0  0  2  0  0  0  0  0  0
  186.9940  176.3140  142.8600 C   0  0  0  0  0  2  0  0  0  0  0  0
  190.3220  174.8030  141.8980 C   0  0  0  0  0  3  0  0  0  0  0  0
  188.0310  175.3320  142.4270 C   0  0  0  0  0  0  0  0  0  0  0  0
  189.3650  175.7310  142.3130 C   0  0  0  0  0  3  0  0  0  0  0  0
  188.6590  173.1170  141.7110 C   0  0  0  0  0  3  0  0  0  0  0  0
  189.9530  173.5250  141.6060 N   0  0  0  0  0  0  0  0  0  0  0  0
  187.6720  174.0150  142.1240 C   0  0  0  0  0  3  0  0  0  0  0  0
  1  5  2  0  0  0  0
  2  3  1  0  0  0  0
  3  4  2  0  0  0  0
  5  4  1  0  0  0  0
  6  7  1  0  0  0  0
  6  2  2  0  0  0  0
  7 21  1  6  0  0  0
  7  1  1  0  0  0  0
  8  1  1  0  0  0  0
  8  9  1  0  0  0  0
 10  9  1  0  0  0  0
 11 14  1  0  0  0  0
 11 10  1  0  0  0  0
 13 14  2  0  0  0  0
 14 12  2  0  0  0  0
 15 20  1  6  0  0  0
 15 14  1  0  0  0  0
 16 17  2  0  0  0  0
 17 15  1  0  0  0  0
 18 17  1  0  0  0  0
 19 20  1  0  0  0  0
 22 21  1  0  0  0  0
 23 25  1  0  0  0  0
 24 22  1  0  0  0  0
 25 24  2  0  0  0  0
 26 28  2  0  0  0  0
 27 26  1  0  0  0  0
 27 23  2  0  0  0  0
 28 24  1  0  0  0  0
M  END
>  <MODEL>
1

>  <REMARK>
 VINA RESULT:      -6.3      0.000      0.000
  Name = 
  11 active torsions:
  status: ('A' for Active; 'I' for Inactive)
    1  A    between atoms: C_2  and  C_22
    2  A    between atoms: C_3  and  C_4
    3  A    between atoms: C_3  and  C_7
    4  A    between atoms: C_4  and  C_12
    5  A    between atoms: C_10  and  C_24
    6  A    between atoms: C_12  and  C_20
    7  A    between atoms: C_20  and  S_27
    8  A    between atoms: C_22  and  C_26
    9  A    between atoms: C_24  and  C_25
   10  A    between atoms: C_24  and  S_27
   11  A    between atoms: C_26  and  C_28
                            x       y       z     vdW  Elec       q    Type
                         _______ _______ _______ _____ _____    ______ ____

>  <TORSDO>
F 11

$$$$
=
 OpenBabel11062423093D

 28 29  0  0  1  0  0  0  0  0999 V2000
  186.5080  177.9090  144.7650 C   0  0  0  0  0  0  0  0  0  0  0  0
  185.7300  178.4230  147.6950 C   0  0  0  0  0  3  0  0  0  0  0  0
  184.4330  178.4960  146.9980 C   0  0  0  0  0  3  0  0  0  0  0  0
  184.2510  178.5210  145.6710 C   0  0  0  0  0  3  0  0  0  0  0  0
  185.3100  178.4900  144.6420 C   0  0  0  0  0  3  0  0  0  0  0  0
  186.8170  177.8120  147.2250 C   0  0  0  0  0  3  0  0  0  0  0  0
  186.8250  177.0310  145.9500 C   0  0  2  0  0  3  0  0  0  0  0  0
  187.4580  178.0240  143.6140 C   0  0  0  0  0  2  0  0  0  0  0  0
  186.7200  177.8330  142.2990 C   0  0  0  0  0  2  0  0  0  0  0  0
  187.3030  176.6640  141.5280 C   0  0  0  0  0  2  0  0  0  0  0  0
  187.2180  175.3920  142.3520 C   0  0  0  0  0  2  0  0  0  0  0  0
  187.8300  172.8200  141.8990 O   0  0  0  0  0  0  0  0  0  0  0  0
  188.7240  174.4770  140.3250 O   0  0  0  0  0  0  0  0  0  0  0  0
  188.4080  174.2020  141.7690 S   0  0  0  0  0  0  0  0  0  0  0  0
  189.8990  174.3190  142.7510 C   0  0  2  0  0  3  0  0  0  0  0  0
  191.2090  172.7140  141.5780 O   0  0  0  0  0  0  0  0  0  0  0  0
  191.0910  173.9100  141.9500 C   0  0  0  0  0  0  0  0  0  0  0  0
  192.0770  174.8360  141.6230 O   0  0  0  0  0  1  0  0  0  0  0  0
  190.9560  173.5930  144.7690 O   0  0  0  0  0  1  0  0  0  0  0  0
  189.7960  173.4640  144.0060 C   0  0  0  0  0  2  0  0  0  0  0  0
  188.1500  176.2850  145.8070 C   0  0  0  0  0  2  0  0  0  0  0  0
  189.1920  176.8030  146.7920 C   0  0  0  0  0  2  0  0  0  0  0  0
  192.9200  176.2900  146.4460 C   0  0  0  0  0  3  0  0  0  0  0  0
  190.5670  176.7600  146.2160 C   0  0  0  0  0  0  0  0  0  0  0  0
  191.6370  176.3160  146.9970 C   0  0  0  0  0  3  0  0  0  0  0  0
  192.0910  177.1300  144.3840 C   0  0  0  0  0  3  0  0  0  0  0  0
  193.1200  176.6950  145.1620 N   0  0  0  0  0  0  0  0  0  0  0  0
  190.7930  177.1710  144.8980 C   0  0  0  0  0  3  0  0  0  0  0  0
  1  7  1  0  0  0  0
  3  2  1  0  0  0  0
  4  3  2  0  0  0  0
  5  1  2  0  0  0  0
  5  4  1  0  0  0  0
  6  2  2  0  0  0  0
  7 21  1  6  0  0  0
  7  6  1  0  0  0  0
  8  1  1  0  0  0  0
  9  8  1  0  0  0  0
 10  9  1  0  0  0  0
 10 11  1  0  0  0  0
 13 14  2  0  0  0  0
 14 12  2  0  0  0  0
 14 11  1  0  0  0  0
 14 15  1  0  0  0  0
 15 20  1  1  0  0  0
 16 17  2  0  0  0  0
 17 15  1  0  0  0  0
 18 17  1  0  0  0  0
 20 19  1  0  0  0  0
 21 22  1  0  0  0  0
 23 25  1  0  0  0  0
 24 22  1  0  0  0  0
 24 25  2  0  0  0  0
 26 28  2  0  0  0  0
 26 27  1  0  0  0  0
 27 23  2  0  0  0  0
 28 24  1  0  0  0  0
M  END
>  <MODEL>
2

>  <REMARK>
 VINA RESULT:      -6.2      2.696      4.724
  Name = 
  11 active torsions:
  status: ('A' for Active; 'I' for Inactive)
    1  A    between atoms: C_2  and  C_22
    2  A    between atoms: C_3  and  C_4
    3  A    between atoms: C_3  and  C_7
    4  A    between atoms: C_4  and  C_12
    5  A    between atoms: C_10  and  C_24
    6  A    between atoms: C_12  and  C_20
    7  A    between atoms: C_20  and  S_27
    8  A    between atoms: C_22  and  C_26
    9  A    between atoms: C_24  and  C_25
   10  A    between atoms: C_24  and  S_27
   11  A    between atoms: C_26  and  C_28
                            x       y       z     vdW  Elec       q    Type
                         _______ _______ _______ _____ _____    ______ ____

>  <TORSDO>
F 11

$$$$
=
 OpenBabel11062423093D

 28 29  0  0  1  0  0  0  0  0999 V2000
  187.6140  177.4400  146.5390 C   0  0  0  0  0  0  0  0  0  0  0  0
  184.5450  177.5710  146.4000 C   0  0  0  0  0  3  0  0  0  0  0  0
  184.8750  178.6730  147.3230 C   0  0  0  0  0  3  0  0  0  0  0  0
  186.0780  178.9200  147.8580 C   0  0  0  0  0  3  0  0  0  0  0  0
  187.3100  178.1360  147.6400 C   0  0  0  0  0  3  0  0  0  0  0  0
  185.3890  177.0320  145.5210 C   0  0  0  0  0  3  0  0  0  0  0  0
  186.7710  177.5540  145.2930 C   0  0  2  0  0  3  0  0  0  0  0  0
  188.9020  176.6770  146.5320 C   0  0  0  0  0  2  0  0  0  0  0  0
  188.6900  175.2780  147.0900 C   0  0  0  0  0  2  0  0  0  0  0  0
  189.5980  174.2850  146.3890 C   0  0  0  0  0  2  0  0  0  0  0  0
  190.3390  174.9600  145.2480 C   0  0  0  0  0  2  0  0  0  0  0  0
  192.2450  174.9270  147.1350 O   0  0  0  0  0  0  0  0  0  0  0  0
  192.8630  174.1090  144.9060 O   0  0  0  0  0  0  0  0  0  0  0  0
  192.0630  175.1360  145.6570 S   0  0  0  0  0  0  0  0  0  0  0  0
  192.6170  176.7800  145.2160 C   0  0  2  0  0  3  0  0  0  0  0  0
  192.3810  176.6530  142.8500 O   0  0  0  0  0  0  0  0  0  0  0  0
  192.0150  177.2080  143.9180 C   0  0  0  0  0  0  0  0  0  0  0  0
  191.0630  178.2210  143.8790 O   0  0  0  0  0  1  0  0  0  0  0  0
  194.6720  177.1470  146.3820 O   0  0  0  0  0  1  0  0  0  0  0  0
  194.1350  176.8410  145.1320 C   0  0  0  0  0  2  0  0  0  0  0  0
  187.3940  176.8620  144.0820 C   0  0  0  0  0  2  0  0  0  0  0  0
  187.7700  177.8670  142.9980 C   0  0  0  0  0  2  0  0  0  0  0  0
  184.5920  178.3400  141.0080 C   0  0  0  0  0  3  0  0  0  0  0  0
  186.7890  177.8590  141.8740 C   0  0  0  0  0  0  0  0  0  0  0  0
  185.5010  178.3630  142.0680 C   0  0  0  0  0  3  0  0  0  0  0  0
  186.2120  177.3330  139.5930 C   0  0  0  0  0  3  0  0  0  0  0  0
  184.9620  177.8280  139.8020 N   0  0  0  0  0  0  0  0  0  0  0  0
  187.1510  177.3380  140.6270 C   0  0  0  0  0  3  0  0  0  0  0  0
  1  5  2  0  0  0  0
  2  3  1  0  0  0  0
  3  4  2  0  0  0  0
  5  4  1  0  0  0  0
  6  2  2  0  0  0  0
  7 21  1  6  0  0  0
  7  6  1  0  0  0  0
  7  1  1  0  0  0  0
  8  1  1  0  0  0  0
  8  9  1  0  0  0  0
 10  9  1  0  0  0  0
 11 14  1  0  0  0  0
 11 10  1  0  0  0  0
 13 14  2  0  0  0  0
 14 12  2  0  0  0  0
 15 20  1  6  0  0  0
 15 14  1  0  0  0  0
 16 17  2  0  0  0  0
 17 15  1  0  0  0  0
 18 17  1  0  0  0  0
 20 19  1  0  0  0  0
 22 21  1  0  0  0  0
 23 25  1  0  0  0  0
 24 25  2  0  0  0  0
 24 22  1  0  0  0  0
 26 27  1  0  0  0  0
 26 28  2  0  0  0  0
 27 23  2  0  0  0  0
 28 24  1  0  0  0  0
M  END
>  <MODEL>
3

>  <REMARK>
 VINA RESULT:      -6.2      2.033      2.538
  Name = 
  11 active torsions:
  status: ('A' for Active; 'I' for Inactive)
    1  A    between atoms: C_2  and  C_22
    2  A    between atoms: C_3  and  C_4
    3  A    between atoms: C_3  and  C_7
    4  A    between atoms: C_4  and  C_12
    5  A    between atoms: C_10  and  C_24
    6  A    between atoms: C_12  and  C_20
    7  A    between atoms: C_20  and  S_27
    8  A    between atoms: C_22  and  C_26
    9  A    between atoms: C_24  and  C_25
   10  A    between atoms: C_24  and  S_27
   11  A    between atoms: C_26  and  C_28
                            x       y       z     vdW  Elec       q    Type
                         _______ _______ _______ _____ _____    ______ ____

>  <TORSDO>
F 11

$$$$
=
 OpenBabel11062423093D

 28 29  0  0  1  0  0  0  0  0999 V2000
  186.6100  177.8480  144.7610 C   0  0  0  0  0  0  0  0  0  0  0  0
  185.7440  178.2310  147.6870 C   0  0  0  0  0  3  0  0  0  0  0  0
  184.4710  178.3560  146.9530 C   0  0  0  0  0  3  0  0  0  0  0  0
  184.3320  178.4470  145.6240 C   0  0  0  0  0  3  0  0  0  0  0  0
  185.4230  178.4510  144.6290 C   0  0  0  0  0  3  0  0  0  0  0  0
  186.8380  177.6290  147.2220 C   0  0  0  0  0  3  0  0  0  0  0  0
  186.8770  176.9100  145.9120 C   0  0  2  0  0  3  0  0  0  0  0  0
  187.5980  178.0060  143.6480 C   0  0  0  0  0  2  0  0  0  0  0  0
  186.8860  177.9900  142.3040 C   0  0  0  0  0  2  0  0  0  0  0  0
  187.4500  176.8950  141.4180 C   0  0  0  0  0  2  0  0  0  0  0  0
  188.7830  176.4120  141.9590 C   0  0  0  0  0  2  0  0  0  0  0  0
  189.6130  174.2080  143.2430 O   0  0  0  0  0  0  0  0  0  0  0  0
  187.3910  174.1290  142.2060 O   0  0  0  0  0  0  0  0  0  0  0  0
  188.7990  174.6340  142.0530 S   0  0  0  0  0  0  0  0  0  0  0  0
  189.5270  173.9630  140.5620 C   0  0  2  0  0  3  0  0  0  0  0  0
  188.0480  172.5160  139.3840 O   0  0  0  0  0  1  0  0  0  0  0  0
  188.4750  173.6890  139.5390 C   0  0  0  0  0  0  0  0  0  0  0  0
  187.9730  174.7170  138.7470 O   0  0  0  0  0  0  0  0  0  0  0  0
  191.5770  172.7640  140.2870 O   0  0  0  0  0  1  0  0  0  0  0  0
  190.3080  172.6910  140.8600 C   0  0  0  0  0  2  0  0  0  0  0  0
  188.1980  176.1540  145.7740 C   0  0  0  0  0  2  0  0  0  0  0  0
  189.2270  176.6400  146.7880 C   0  0  0  0  0  2  0  0  0  0  0  0
  192.9450  176.0460  146.4550 C   0  0  0  0  0  3  0  0  0  0  0  0
  190.6110  176.6040  146.2310 C   0  0  0  0  0  0  0  0  0  0  0  0
  191.6540  176.0640  146.9870 C   0  0  0  0  0  3  0  0  0  0  0  0
  192.1770  177.0820  144.4600 C   0  0  0  0  0  3  0  0  0  0  0  0
  193.1790  176.5520  145.2130 N   0  0  0  0  0  0  0  0  0  0  0  0
  190.8710  177.1180  144.9560 C   0  0  0  0  0  3  0  0  0  0  0  0
  1  7  1  0  0  0  0
  3  2  1  0  0  0  0
  4  3  2  0  0  0  0
  5  1  2  0  0  0  0
  5  4  1  0  0  0  0
  6  2  2  0  0  0  0
  7 21  1  6  0  0  0
  7  6  1  0  0  0  0
  8  1  1  0  0  0  0
  9  8  1  0  0  0  0
 10 11  1  0  0  0  0
 10  9  1  0  0  0  0
 11 14  1  0  0  0  0
 14 13  2  0  0  0  0
 14 12  2  0  0  0  0
 15 20  1  1  0  0  0
 15 14  1  0  0  0  0
 16 17  1  0  0  0  0
 17 15  1  0  0  0  0
 18 17  2  0  0  0  0
 19 20  1  0  0  0  0
 21 22  1  0  0  0  0
 23 25  1  0  0  0  0
 24 22  1  0  0  0  0
 24 25  2  0  0  0  0
 26 28  2  0  0  0  0
 26 27  1  0  0  0  0
 27 23  2  0  0  0  0
 28 24  1  0  0  0  0
M  END
>  <MODEL>
4

>  <REMARK>
 VINA RESULT:      -6.2      3.161      5.239
  Name = 
  11 active torsions:
  status: ('A' for Active; 'I' for Inactive)
    1  A    between atoms: C_2  and  C_22
    2  A    between atoms: C_3  and  C_4
    3  A    between atoms: C_3  and  C_7
    4  A    between atoms: C_4  and  C_12
    5  A    between atoms: C_10  and  C_24
    6  A    between atoms: C_12  and  C_20
    7  A    between atoms: C_20  and  S_27
    8  A    between atoms: C_22  and  C_26
    9  A    between atoms: C_24  and  C_25
   10  A    between atoms: C_24  and  S_27
   11  A    between atoms: C_26  and  C_28
                            x       y       z     vdW  Elec       q    Type
                         _______ _______ _______ _____ _____    ______ ____

>  <TORSDO>
F 11

$$$$
=
 OpenBabel11062423093D

 28 29  0  0  1  0  0  0  0  0999 V2000
  187.2310  177.3280  145.0420 C   0  0  0  0  0  0  0  0  0  0  0  0
  185.6900  179.1180  143.0740 C   0  0  0  0  0  3  0  0  0  0  0  0
  185.3320  179.6930  144.3840 C   0  0  0  0  0  3  0  0  0  0  0  0
  185.6030  179.1570  145.5810 C   0  0  0  0  0  3  0  0  0  0  0  0
  186.3030  177.8810  145.8300 C   0  0  0  0  0  3  0  0  0  0  0  0
  186.7640  178.3660  142.8380 C   0  0  0  0  0  3  0  0  0  0  0  0
  187.8070  178.0870  143.8720 C   0  0  2  0  0  3  0  0  0  0  0  0
  187.7950  176.0040  145.4550 C   0  0  0  0  0  2  0  0  0  0  0  0
  188.1090  176.0060  146.9430 C   0  0  0  0  0  2  0  0  0  0  0  0
  188.9740  174.8120  147.3040 C   0  0  0  0  0  2  0  0  0  0  0  0
  190.1230  174.6760  146.3220 C   0  0  0  0  0  2  0  0  0  0  0  0
  191.2210  177.0730  145.8270 O   0  0  0  0  0  0  0  0  0  0  0  0
  191.2890  176.2680  148.1440 O   0  0  0  0  0  0  0  0  0  0  0  0
  191.3970  175.8620  146.7000 S   0  0  0  0  0  0  0  0  0  0  0  0
  193.0020  175.1340  146.3920 C   0  0  2  0  0  3  0  0  0  0  0  0
  194.4080  176.1050  144.7340 O   0  0  0  0  0  0  0  0  0  0  0  0
  193.9660  176.1680  145.9100 C   0  0  0  0  0  0  0  0  0  0  0  0
  194.3880  177.1910  146.7530 O   0  0  0  0  0  1  0  0  0  0  0  0
  193.7600  172.9620  145.7410 O   0  0  0  0  0  1  0  0  0  0  0  0
  192.9040  174.0020  145.3810 C   0  0  0  0  0  2  0  0  0  0  0  0
  189.0010  177.3830  143.2290 C   0  0  0  0  0  2  0  0  0  0  0  0
  188.5850  176.6020  141.9870 C   0  0  0  0  0  2  0  0  0  0  0  0
  188.1030  172.8540  142.0120 C   0  0  0  0  0  3  0  0  0  0  0  0
  188.8500  175.1420  142.1390 C   0  0  0  0  0  0  0  0  0  0  0  0
  187.8420  174.2170  141.8550 C   0  0  0  0  0  3  0  0  0  0  0  0
  190.3220  173.3220  142.7180 C   0  0  0  0  0  3  0  0  0  0  0  0
  189.3270  172.4370  142.4370 N   0  0  0  0  0  0  0  0  0  0  0  0
  190.1020  174.6930  142.5740 C   0  0  0  0  0  3  0  0  0  0  0  0
  1  8  1  0  0  0  0
  1  5  2  0  0  0  0
  2  3  1  0  0  0  0
  3  4  2  0  0  0  0
  4  5  1  0  0  0  0
  6  2  2  0  0  0  0
  6  7  1  0  0  0  0
  7 21  1  6  0  0  0
  7  1  1  0  0  0  0
  8  9  1  0  0  0  0
  9 10  1  0  0  0  0
 11 14  1  0  0  0  0
 11 10  1  0  0  0  0
 12 14  2  0  0  0  0
 14 13  2  0  0  0  0
 15 20  1  6  0  0  0
 15 14  1  0  0  0  0
 16 17  2  0  0  0  0
 17 15  1  0  0  0  0
 17 18  1  0  0  0  0
 20 19  1  0  0  0  0
 22 24  1  0  0  0  0
 22 21  1  0  0  0  0
 23 27  1  0  0  0  0
 24 28  2  0  0  0  0
 25 23  2  0  0  0  0
 25 24  1  0  0  0  0
 27 26  2  0  0  0  0
 28 26  1  0  0  0  0
M  END
>  <MODEL>
5

>  <REMARK>
 VINA RESULT:      -6.1      1.365      2.312
  Name = 
  11 active torsions:
  status: ('A' for Active; 'I' for Inactive)
    1  A    between atoms: C_2  and  C_22
    2  A    between atoms: C_3  and  C_4
    3  A    between atoms: C_3  and  C_7
    4  A    between atoms: C_4  and  C_12
    5  A    between atoms: C_10  and  C_24
    6  A    between atoms: C_12  and  C_20
    7  A    between atoms: C_20  and  S_27
    8  A    between atoms: C_22  and  C_26
    9  A    between atoms: C_24  and  C_25
   10  A    between atoms: C_24  and  S_27
   11  A    between atoms: C_26  and  C_28
                            x       y       z     vdW  Elec       q    Type
                         _______ _______ _______ _____ _____    ______ ____

>  <TORSDO>
F 11

$$$$
=
 OpenBabel11062423093D

 28 29  0  0  1  0  0  0  0  0999 V2000
  189.6800  174.7590  145.8210 C   0  0  0  0  0  0  0  0  0  0  0  0
  190.4210  174.6090  142.8400 C   0  0  0  0  0  3  0  0  0  0  0  0
  189.9960  173.2290  143.1380 C   0  0  0  0  0  3  0  0  0  0  0  0
  189.7470  172.7250  144.3540 C   0  0  0  0  0  3  0  0  0  0  0  0
  189.8570  173.4460  145.6380 C   0  0  0  0  0  3  0  0  0  0  0  0
  190.0860  175.6830  143.5540 C   0  0  0  0  0  3  0  0  0  0  0  0
  189.1420  175.6280  144.7120 C   0  0  2  0  0  3  0  0  0  0  0  0
  189.8770  175.3020  147.2010 C   0  0  0  0  0  2  0  0  0  0  0  0
  191.3540  175.3060  147.5620 C   0  0  0  0  0  2  0  0  0  0  0  0
  192.0890  176.3730  146.7720 C   0  0  0  0  0  2  0  0  0  0  0  0
  193.5680  176.0400  146.6840 C   0  0  0  0  0  2  0  0  0  0  0  0
  193.3190  174.1840  144.7640 O   0  0  0  0  0  0  0  0  0  0  0  0
  193.4870  176.5230  144.0430 O   0  0  0  0  0  0  0  0  0  0  0  0
  193.9790  175.5070  145.0350 S   0  0  0  0  0  0  0  0  0  0  0  0
  195.7540  175.3270  144.8910 C   0  0  2  0  0  3  0  0  0  0  0  0
  196.7920  176.8940  143.4300 O   0  0  0  0  0  1  0  0  0  0  0  0
  196.2220  175.7790  143.5470 C   0  0  0  0  0  0  0  0  0  0  0  0
  196.0230  174.9840  142.4230 O   0  0  0  0  0  0  0  0  0  0  0  0
  197.0400  173.8190  146.2280 O   0  0  0  0  0  1  0  0  0  0  0  0
  196.1790  173.8860  145.1330 C   0  0  0  0  0  2  0  0  0  0  0  0
  188.8030  177.0450  145.1720 C   0  0  0  0  0  2  0  0  0  0  0  0
  187.8300  177.7250  144.2150 C   0  0  0  0  0  2  0  0  0  0  0  0
  184.4750  179.2470  145.0590 C   0  0  0  0  0  3  0  0  0  0  0  0
  186.5010  177.9570  144.8510 C   0  0  0  0  0  0  0  0  0  0  0  0
  185.7120  179.0380  144.4470 C   0  0  0  0  0  3  0  0  0  0  0  0
  184.7990  177.3470  146.4470 C   0  0  0  0  0  3  0  0  0  0  0  0
  184.0470  178.4050  146.0390 N   0  0  0  0  0  0  0  0  0  0  0  0
  186.0430  177.1030  145.8600 C   0  0  0  0  0  3  0  0  0  0  0  0
  1  8  1  0  0  0  0
  2  3  1  0  0  0  0
  2  6  2  0  0  0  0
  3  4  2  0  0  0  0
  4  5  1  0  0  0  0
  5  1  2  0  0  0  0
  6  7  1  0  0  0  0
  7 21  1  1  0  0  0
  7  1  1  0  0  0  0
  8  9  1  0  0  0  0
 10  9  1  0  0  0  0
 11 10  1  0  0  0  0
 12 14  2  0  0  0  0
 13 14  2  0  0  0  0
 14 11  1  0  0  0  0
 15 14  1  0  0  0  0
 15 20  1  6  0  0  0
 16 17  1  0  0  0  0
 17 15  1  0  0  0  0
 18 17  2  0  0  0  0
 20 19  1  0  0  0  0
 22 24  1  0  0  0  0
 22 21  1  0  0  0  0
 23 27  1  0  0  0  0
 24 28  2  0  0  0  0
 25 24  1  0  0  0  0
 25 23  2  0  0  0  0
 27 26  2  0  0  0  0
 28 26  1  0  0  0  0
M  END
>  <MODEL>
6

>  <REMARK>
 VINA RESULT:      -6.1      2.590      5.032
  Name = 
  11 active torsions:
  status: ('A' for Active; 'I' for Inactive)
    1  A    between atoms: C_2  and  C_22
    2  A    between atoms: C_3  and  C_4
    3  A    between atoms: C_3  and  C_7
    4  A    between atoms: C_4  and  C_12
    5  A    between atoms: C_10  and  C_24
    6  A    between atoms: C_12  and  C_20
    7  A    between atoms: C_20  and  S_27
    8  A    between atoms: C_22  and  C_26
    9  A    between atoms: C_24  and  C_25
   10  A    between atoms: C_24  and  S_27
   11  A    between atoms: C_26  and  C_28
                            x       y       z     vdW  Elec       q    Type
                         _______ _______ _______ _____ _____    ______ ____

>  <TORSDO>
F 11

$$$$
=
 OpenBabel11062423093D

 28 29  0  0  1  0  0  0  0  0999 V2000
  186.5850  177.4550  144.8750 C   0  0  0  0  0  0  0  0  0  0  0  0
  186.2620  178.5110  147.7450 C   0  0  0  0  0  3  0  0  0  0  0  0
  184.8730  178.4930  147.2470 C   0  0  0  0  0  3  0  0  0  0  0  0
  184.4920  178.2820  145.9810 C   0  0  0  0  0  3  0  0  0  0  0  0
  185.3820  178.0370  144.8290 C   0  0  0  0  0  3  0  0  0  0  0  0
  187.2640  177.7960  147.2360 C   0  0  0  0  0  3  0  0  0  0  0  0
  187.0780  176.7970  146.1400 C   0  0  2  0  0  3  0  0  0  0  0  0
  187.3490  177.3340  143.5940 C   0  0  0  0  0  2  0  0  0  0  0  0
  186.6040  176.4370  142.6180 C   0  0  0  0  0  2  0  0  0  0  0  0
  187.4490  175.2300  142.2560 C   0  0  0  0  0  2  0  0  0  0  0  0
  188.9080  175.6280  142.1190 C   0  0  0  0  0  2  0  0  0  0  0  0
  191.3430  174.5450  141.8150 O   0  0  0  0  0  0  0  0  0  0  0  0
  189.9840  173.7330  143.6890 O   0  0  0  0  0  0  0  0  0  0  0  0
  189.9510  174.1910  142.2580 S   0  0  0  0  0  0  0  0  0  0  0  0
  189.3090  172.8840  141.2160 C   0  0  2  0  0  3  0  0  0  0  0  0
  190.0770  170.8320  142.1480 O   0  0  0  0  0  1  0  0  0  0  0  0
  190.2140  171.6960  141.2440 C   0  0  0  0  0  0  0  0  0  0  0  0
  191.2120  171.5430  140.2870 O   0  0  0  0  0  0  0  0  0  0  0  0
  188.2080  172.5540  139.1200 O   0  0  0  0  0  1  0  0  0  0  0  0
  189.1260  173.3660  139.7850 C   0  0  0  0  0  2  0  0  0  0  0  0
  188.3670  176.0020  145.9380 C   0  0  0  0  0  2  0  0  0  0  0  0
  189.4600  176.4570  146.8990 C   0  0  0  0  0  2  0  0  0  0  0  0
  193.1860  176.3800  146.2680 C   0  0  0  0  0  3  0  0  0  0  0  0
  190.7830  176.5680  146.2190 C   0  0  0  0  0  0  0  0  0  0  0  0
  191.9540  176.2620  146.9160 C   0  0  0  0  0  3  0  0  0  0  0  0
  192.1080  177.0940  144.2750 C   0  0  0  0  0  3  0  0  0  0  0  0
  193.2370  176.7910  144.9710 N   0  0  0  0  0  0  0  0  0  0  0  0
  190.8580  176.9880  144.8870 C   0  0  0  0  0  3  0  0  0  0  0  0
  1  7  1  0  0  0  0
  3  2  1  0  0  0  0
  4  3  2  0  0  0  0
  5  1  2  0  0  0  0
  5  4  1  0  0  0  0
  6  2  2  0  0  0  0
  7 21  1  6  0  0  0
  7  6  1  0  0  0  0
  8  1  1  0  0  0  0
  9  8  1  0  0  0  0
 10  9  1  0  0  0  0
 11 10  1  0  0  0  0
 11 14  1  0  0  0  0
 12 14  2  0  0  0  0
 14 13  2  0  0  0  0
 15 20  1  6  0  0  0
 15 17  1  0  0  0  0
 15 14  1  0  0  0  0
 17 16  1  0  0  0  0
 18 17  2  0  0  0  0
 19 20  1  0  0  0  0
 21 22  1  0  0  0  0
 23 25  1  0  0  0  0
 24 22  1  0  0  0  0
 24 25  2  0  0  0  0
 26 28  2  0  0  0  0
 26 27  1  0  0  0  0
 27 23  2  0  0  0  0
 28 24  1  0  0  0  0
M  END
>  <MODEL>
7

>  <REMARK>
 VINA RESULT:      -6.0      2.864      5.236
  Name = 
  11 active torsions:
  status: ('A' for Active; 'I' for Inactive)
    1  A    between atoms: C_2  and  C_22
    2  A    between atoms: C_3  and  C_4
    3  A    between atoms: C_3  and  C_7
    4  A    between atoms: C_4  and  C_12
    5  A    between atoms: C_10  and  C_24
    6  A    between atoms: C_12  and  C_20
    7  A    between atoms: C_20  and  S_27
    8  A    between atoms: C_22  and  C_26
    9  A    between atoms: C_24  and  C_25
   10  A    between atoms: C_24  and  S_27
   11  A    between atoms: C_26  and  C_28
                            x       y       z     vdW  Elec       q    Type
                         _______ _______ _______ _____ _____    ______ ____

>  <TORSDO>
F 11

$$$$
=
 OpenBabel11062423093D

 28 29  0  0  1  0  0  0  0  0999 V2000
  191.1060  176.8690  145.1180 C   0  0  0  0  0  0  0  0  0  0  0  0
  189.6690  174.9890  147.0820 C   0  0  0  0  0  3  0  0  0  0  0  0
  190.9380  175.2750  147.7770 C   0  0  0  0  0  3  0  0  0  0  0  0
  191.9990  175.9050  147.2550 C   0  0  0  0  0  3  0  0  0  0  0  0
  192.1140  176.4300  145.8790 C   0  0  0  0  0  3  0  0  0  0  0  0
  189.1360  175.7450  146.1230 C   0  0  0  0  0  3  0  0  0  0  0  0
  189.7240  177.0510  145.6950 C   0  0  2  0  0  3  0  0  0  0  0  0
  191.4300  177.3270  143.7310 C   0  0  0  0  0  2  0  0  0  0  0  0
  191.6890  176.1310  142.8270 C   0  0  0  0  0  2  0  0  0  0  0  0
  190.3800  175.4730  142.4300 C   0  0  0  0  0  2  0  0  0  0  0  0
  190.4550  173.9730  142.6470 C   0  0  0  0  0  2  0  0  0  0  0  0
  188.6350  172.0460  143.0560 O   0  0  0  0  0  0  0  0  0  0  0  0
  187.8130  174.2050  142.2280 O   0  0  0  0  0  0  0  0  0  0  0  0
  188.9310  173.2030  142.1430 S   0  0  0  0  0  0  0  0  0  0  0  0
  189.0880  172.6100  140.4620 C   0  0  2  0  0  3  0  0  0  0  0  0
  190.6520  170.8390  140.7550 O   0  0  0  0  0  1  0  0  0  0  0  0
  190.4200  171.9680  140.2520 C   0  0  0  0  0  0  0  0  0  0  0  0
  191.4090  172.6130  139.5150 O   0  0  0  0  0  0  0  0  0  0  0  0
  188.1780  173.2820  138.3550 O   0  0  0  0  0  1  0  0  0  0  0  0
  188.8910  173.7400  139.4630 C   0  0  0  0  0  2  0  0  0  0  0  0
  188.7660  177.7630  144.7410 C   0  0  0  0  0  2  0  0  0  0  0  0
  187.5060  176.9400  144.4970 C   0  0  0  0  0  2  0  0  0  0  0  0
  184.4590  177.9050  146.5140 C   0  0  0  0  0  3  0  0  0  0  0  0
  186.2800  177.6570  144.9550 C   0  0  0  0  0  0  0  0  0  0  0  0
  185.6100  177.2300  146.1040 C   0  0  0  0  0  3  0  0  0  0  0  0
  184.6370  179.3990  144.6760 C   0  0  0  0  0  3  0  0  0  0  0  0
  183.9990  178.9670  145.7970 N   0  0  0  0  0  0  0  0  0  0  0  0
  185.7920  178.7500  144.2330 C   0  0  0  0  0  3  0  0  0  0  0  0
  1  7  1  0  0  0  0
  1  5  2  0  0  0  0
  2  3  1  0  0  0  0
  4  3  2  0  0  0  0
  5  4  1  0  0  0  0
  6  2  2  0  0  0  0
  7 21  1  6  0  0  0
  7  6  1  0  0  0  0
  8  1  1  0  0  0  0
  9  8  1  0  0  0  0
 10 11  1  0  0  0  0
 10  9  1  0  0  0  0
 14 13  2  0  0  0  0
 14 11  1  0  0  0  0
 14 12  2  0  0  0  0
 15 20  1  6  0  0  0
 15 14  1  0  0  0  0
 17 15  1  0  0  0  0
 17 16  1  0  0  0  0
 18 17  2  0  0  0  0
 19 20  1  0  0  0  0
 22 21  1  0  0  0  0
 22 24  1  0  0  0  0
 24 25  2  0  0  0  0
 25 23  1  0  0  0  0
 26 27  1  0  0  0  0
 27 23  2  0  0  0  0
 28 26  2  0  0  0  0
 28 24  1  0  0  0  0
M  END
>  <MODEL>
8

>  <REMARK>
 VINA RESULT:      -6.0      3.668      6.225
  Name = 
  11 active torsions:
  status: ('A' for Active; 'I' for Inactive)
    1  A    between atoms: C_2  and  C_22
    2  A    between atoms: C_3  and  C_4
    3  A    between atoms: C_3  and  C_7
    4  A    between atoms: C_4  and  C_12
    5  A    between atoms: C_10  and  C_24
    6  A    between atoms: C_12  and  C_20
    7  A    between atoms: C_20  and  S_27
    8  A    between atoms: C_22  and  C_26
    9  A    between atoms: C_24  and  C_25
   10  A    between atoms: C_24  and  S_27
   11  A    between atoms: C_26  and  C_28
                            x       y       z     vdW  Elec       q    Type
                         _______ _______ _______ _____ _____    ______ ____

>  <TORSDO>
F 11

$$$$
=
 OpenBabel11062423093D

 28 29  0  0  1  0  0  0  0  0999 V2000
  191.0980  176.8440  145.1390 C   0  0  0  0  0  0  0  0  0  0  0  0
  189.6380  174.9700  147.0910 C   0  0  0  0  0  3  0  0  0  0  0  0
  190.8920  175.2710  147.8070 C   0  0  0  0  0  3  0  0  0  0  0  0
  191.9570  175.9050  147.3000 C   0  0  0  0  0  3  0  0  0  0  0  0
  192.0950  176.4190  145.9230 C   0  0  0  0  0  3  0  0  0  0  0  0
  189.1180  175.7140  146.1160 C   0  0  0  0  0  3  0  0  0  0  0  0
  189.7040  177.0210  145.6870 C   0  0  2  0  0  3  0  0  0  0  0  0
  191.4450  177.2930  143.7540 C   0  0  0  0  0  2  0  0  0  0  0  0
  191.7630  176.0930  142.8750 C   0  0  0  0  0  2  0  0  0  0  0  0
  190.4840  175.4630  142.3560 C   0  0  0  0  0  2  0  0  0  0  0  0
  190.7970  174.2020  141.5700 C   0  0  0  0  0  2  0  0  0  0  0  0
  188.3030  173.6730  142.4010 O   0  0  0  0  0  0  0  0  0  0  0  0
  189.1300  172.4080  140.4680 O   0  0  0  0  0  0  0  0  0  0  0  0
  189.5040  173.0000  141.7990 S   0  0  0  0  0  0  0  0  0  0  0  0
  190.0760  171.7090  142.8990 C   0  0  2  0  0  3  0  0  0  0  0  0
  189.3160  171.9180  145.1450 O   0  0  0  0  0  1  0  0  0  0  0  0
  190.1930  172.2210  144.2960 C   0  0  0  0  0  0  0  0  0  0  0  0
  191.2570  173.0390  144.6650 O   0  0  0  0  0  0  0  0  0  0  0  0
  191.9620  170.3380  143.4280 O   0  0  0  0  0  1  0  0  0  0  0  0
  191.4130  171.1490  142.4350 C   0  0  0  0  0  2  0  0  0  0  0  0
  188.7590  177.7180  144.7100 C   0  0  0  0  0  2  0  0  0  0  0  0
  187.4890  176.9040  144.4850 C   0  0  0  0  0  2  0  0  0  0  0  0
  184.4550  177.9220  146.4950 C   0  0  0  0  0  3  0  0  0  0  0  0
  186.2740  177.6400  144.9380 C   0  0  0  0  0  0  0  0  0  0  0  0
  185.5970  177.2290  146.0890 C   0  0  0  0  0  3  0  0  0  0  0  0
  184.6550  179.4040  144.6480 C   0  0  0  0  0  3  0  0  0  0  0  0
  184.0100  178.9870  145.7710 N   0  0  0  0  0  0  0  0  0  0  0  0
  185.8010  178.7370  144.2090 C   0  0  0  0  0  3  0  0  0  0  0  0
  1  7  1  0  0  0  0
  1  5  2  0  0  0  0
  2  3  1  0  0  0  0
  4  3  2  0  0  0  0
  5  4  1  0  0  0  0
  6  2  2  0  0  0  0
  7 21  1  6  0  0  0
  7  6  1  0  0  0  0
  8  1  1  0  0  0  0
  9  8  1  0  0  0  0
 10  9  1  0  0  0  0
 11 14  1  0  0  0  0
 11 10  1  0  0  0  0
 13 14  2  0  0  0  0
 14 12  2  0  0  0  0
 14 15  1  0  0  0  0
 15 20  1  6  0  0  0
 15 17  1  0  0  0  0
 17 18  2  0  0  0  0
 17 16  1  0  0  0  0
 20 19  1  0  0  0  0
 22 21  1  0  0  0  0
 22 24  1  0  0  0  0
 24 25  2  0  0  0  0
 25 23  1  0  0  0  0
 26 27  1  0  0  0  0
 27 23  2  0  0  0  0
 28 26  2  0  0  0  0
 28 24  1  0  0  0  0
M  END
>  <MODEL>
9

>  <REMARK>
 VINA RESULT:      -6.0      3.220      5.826
  Name = 
  11 active torsions:
  status: ('A' for Active; 'I' for Inactive)
    1  A    between atoms: C_2  and  C_22
    2  A    between atoms: C_3  and  C_4
    3  A    between atoms: C_3  and  C_7
    4  A    between atoms: C_4  and  C_12
    5  A    between atoms: C_10  and  C_24
    6  A    between atoms: C_12  and  C_20
    7  A    between atoms: C_20  and  S_27
    8  A    between atoms: C_22  and  C_26
    9  A    between atoms: C_24  and  C_25
   10  A    between atoms: C_24  and  S_27
   11  A    between atoms: C_26  and  C_28
                            x       y       z     vdW  Elec       q    Type
                         _______ _______ _______ _____ _____    ______ ____

>  <TORSDO>
F 11

$$$$
