=
 OpenBabel11072408413D

 65 71  0  0  1  0  0  0  0  0999 V2000
  193.0750  176.7940  145.3900 C   0  0  1  0  0  3  0  0  0  0  0  0
  190.7540  176.1440  144.1760 C   0  0  1  0  0  3  0  0  0  0  0  0
  190.0280  177.4230  144.5610 C   0  0  0  0  0  1  0  0  0  0  0  0
  190.1000  175.8710  147.1680 C   0  0  0  0  0  2  0  0  0  0  0  0
  192.1790  174.9240  147.7630 O   0  0  0  0  0  0  0  0  0  0  0  0
  192.9950  174.9700  143.7250 C   0  0  1  0  0  0  0  0  0  0  0  0
  193.2330  173.8210  144.6930 C   0  0  0  0  0  2  0  0  0  0  0  0
  189.5080  174.9000  146.1520 C   0  0  0  0  0  2  0  0  0  0  0  0
  192.2970  176.2500  144.1650 C   0  0  2  0  0  3  0  0  0  0  0  0
  194.2930  174.8880  144.4900 C   0  0  2  0  0  0  0  0  0  0  0  0
  192.3240  177.0340  146.7000 C   0  0  0  0  0  2  0  0  0  0  0  0
  190.2110  174.8320  144.7830 C   0  0  1  0  0  3  0  0  0  0  0  0
  194.3160  175.9310  145.5970 C   0  0  0  0  0  2  0  0  0  0  0  0
  191.5870  175.8420  147.2170 C   0  0  0  0  0  0  0  0  0  0  0  0
  193.0850  174.6760  142.3600 O   0  0  0  0  0  1  0  0  0  0  0  0
  196.3790  173.6800  144.9790 N   0  0  0  0  0  0  0  0  0  0  0  0
  196.7870  174.9980  144.3860 C   0  0  2  0  0  3  0  0  0  0  0  0
  195.5780  174.3110  143.8960 C   0  0  2  0  0  3  0  0  0  0  0  0
  197.1340  172.5340  144.4430 C   0  0  0  0  0  2  0  0  0  0  0  0
  194.4080  168.1660  141.9550 O   0  0  0  0  0  1  0  0  0  0  0  0
  196.2530  171.4610  143.7770 C   0  0  1  0  0  3  0  0  0  0  0  0
  195.9880  169.9240  141.7310 C   0  0  0  0  0  2  0  0  0  0  0  0
  195.2400  168.4090  146.9520 C   0  0  0  0  0  0  0  0  0  0  0  0
  196.6070  168.6210  146.3970 C   0  0  0  0  0  2  0  0  0  0  0  0
  194.7330  169.4250  142.4820 C   0  0  2  0  0  0  0  0  0  0  0  0
  196.8120  171.0460  142.4140 C   0  0  1  0  0  3  0  0  0  0  0  0
  196.7070  169.9230  145.6720 C   0  0  0  0  0  3  0  0  0  0  0  0
  195.0910  168.1790  148.3480 N   0  0  0  0  0  1  0  0  0  0  0  0
  194.9970  169.2870  143.9710 C   0  0  0  0  0  0  0  0  0  0  0  0
  194.1730  168.2920  146.1630 C   0  0  0  0  0  3  0  0  0  0  0  0
  195.9830  170.2210  144.5880 C   0  0  0  0  0  0  0  0  0  0  0  0
  194.1680  168.5120  144.7000 C   0  0  0  0  0  3  0  0  0  0  0  0
  193.5960  170.4520  142.2820 C   0  0  0  0  0  3  0  0  0  0  0  0
  192.7070  170.0780  141.1080 C   0  0  0  0  0  2  0  0  0  0  0  0
  192.2110  169.8630  142.5330 C   0  0  0  0  0  2  0  0  0  0  0  0
  196.9230  172.1560  141.5640 O   0  0  0  0  0  0  0  0  0  0  0  0
  197.7270  171.7010  140.5140 C   0  0  0  0  0  1  0  0  0  0  0  0
  197.9380  174.9290  143.3690 C   0  0  0  0  0  2  0  0  0  0  0  0
  196.7320  176.7220  142.4100 O   0  0  0  0  0  1  0  0  0  0  0  0
  197.6290  175.7030  142.0970 C   0  0  0  0  0  2  0  0  0  0  0  0
  189.3700  174.1870  143.8660 O   0  0  0  0  0  0  0  0  0  0  0  0
  189.2580  171.8080  144.0360 C   0  0  0  0  0  1  0  0  0  0  0  0
  190.0300  173.0080  143.4950 C   0  0  1  0  0  3  0  0  0  0  0  0
  190.0680  172.9240  141.9780 C   0  0  0  0  0  2  0  0  0  0  0  0
  188.7140  173.2690  141.3850 C   0  0  0  0  0  2  0  0  0  0  0  0
  188.8800  174.2650  140.2410 C   0  0  1  0  0  3  0  0  0  0  0  0
  189.2620  174.2600  137.8950 O   0  0  0  0  0  0  0  0  0  0  0  0
  188.1810  172.4070  138.6970 O   0  0  0  0  0  1  0  0  0  0  0  0
  188.8100  173.6340  138.8840 C   0  0  0  0  0  0  0  0  0  0  0  0
  187.9440  175.4630  140.3740 C   0  0  0  0  0  2  0  0  0  0  0  0
  187.1030  175.3750  141.5630 N   0  0  0  0  0  2  0  0  0  0  0  0
  187.2700  176.6030  142.3350 C   0  0  1  0  0  3  0  0  0  0  0  0
  187.9280  177.6530  141.4640 C   0  0  0  0  0  1  0  0  0  0  0  0
  185.9420  177.1310  142.8830 C   0  0  2  0  0  3  0  0  0  0  0  0
  185.2320  178.0030  141.8970 C   0  0  0  0  0  0  0  0  0  0  0  0
  185.0830  177.6060  140.5710 O   0  0  0  0  0  0  0  0  0  0  0  0
  184.7240  179.0860  142.2870 O   0  0  0  0  0  1  0  0  0  0  0  0
  186.1290  177.8220  144.1520 N   0  0  0  0  0  2  0  0  0  0  0  0
  186.4400  176.8030  145.1390 C   0  0  0  0  0  2  0  0  0  0  0  0
  185.2130  176.4950  145.9830 C   0  0  0  0  0  2  0  0  0  0  0  0
  185.3420  177.1140  147.3640 C   0  0  0  0  0  2  0  0  0  0  0  0
  186.7730  177.5620  147.6220 C   0  0  0  0  0  2  0  0  0  0  0  0
  185.8310  179.8480  147.6430 F   0  0  0  0  0  0  0  0  0  0  0  0
  187.6830  179.3910  148.7950 O   0  0  0  0  0  0  0  0  0  0  0  0
  186.7850  178.9840  148.0750 C   0  0  0  0  0  0  0  0  0  0  0  0
  1 13  1  1  0  0  0
  1 11  1  0  0  0  0
  2  3  1  1  0  0  0
  2 12  1  0  0  0  0
  4 14  1  0  0  0  0
  6 15  1  6  0  0  0
  6  9  1  0  0  0  0
  6 10  1  0  0  0  0
  6  7  1  0  0  0  0
  8  4  1  0  0  0  0
  9  2  1  0  0  0  0
  9  1  1  0  0  0  0
 10  7  1  0  0  0  0
 10 13  1  0  0  0  0
 11 14  1  0  0  0  0
 12  8  1  0  0  0  0
 14  5  2  0  0  0  0
 17 16  1  0  0  0  0
 18 17  1  0  0  0  0
 18 10  1  0  0  0  0
 18 16  1  0  0  0  0
 19 16  1  0  0  0  0
 20 25  1  0  0  0  0
 21 19  1  0  0  0  0
 21 31  1  0  0  0  0
 22 26  1  0  0  0  0
 22 25  1  0  0  0  0
 23 28  1  0  0  0  0
 24 23  1  0  0  0  0
 25 29  1  0  0  0  0
 26 21  1  0  0  0  0
 27 24  1  0  0  0  0
 29 31  1  0  0  0  0
 29 32  2  0  0  0  0
 30 23  2  0  0  0  0
 31 27  2  0  0  0  0
 32 30  1  0  0  0  0
 33 25  1  0  0  0  0
 33 35  1  0  0  0  0
 34 33  1  0  0  0  0
 34 35  1  0  0  0  0
 36 26  1  0  0  0  0
 37 36  1  0  0  0  0
 38 17  1  0  0  0  0
 40 39  1  0  0  0  0
 40 38  1  0  0  0  0
 41 12  1  0  0  0  0
 43 41  1  0  0  0  0
 43 42  1  0  0  0  0
 44 43  1  0  0  0  0
 45 44  1  0  0  0  0
 46 50  1  0  0  0  0
 46 45  1  0  0  0  0
 47 49  2  0  0  0  0
 48 49  1  0  0  0  0
 49 46  1  0  0  0  0
 50 51  1  0  0  0  0
 51 52  1  0  0  0  0
 52 54  1  0  0  0  0
 53 52  1  0  0  0  0
 54 58  1  0  0  0  0
 55 57  1  0  0  0  0
 55 54  1  0  0  0  0
 56 55  2  0  0  0  0
 58 59  1  0  0  0  0
 59 60  1  0  0  0  0
 60 61  1  0  0  0  0
 61 62  1  0  0  0  0
 62 65  1  0  0  0  0
 63 65  1  0  0  0  0
 65 64  2  0  0  0  0
M  END
>  <MODEL>
1

>  <REMARK>
 VINA RESULT:      -6.1      0.000      0.000
  Name = 
  24 active torsions:
  status: ('A' for Active; 'I' for Inactive)
    1  A    between atoms: C_1  and  C_19
    2  A    between atoms: C_2  and  C_48
    3  A    between atoms: C_2  and  C_56
    4  A    between atoms: C_4  and  C_57
    5  A    between atoms: C_11  and  CA_55
    6  A    between atoms: O_15  and  C_29
    7  A    between atoms: N_18  and  C_57
    8  A    between atoms: C_22  and  C_53
    9  A    between atoms: C_22  and  C_58
   10  A    between atoms: C_25  and  N_34
   11  A    between atoms: C_25  and  CA_55
   12  A    between atoms: C_27  and  C_47
   13  A    between atoms: C_27  and  C_48
   14  A    between atoms: C_27  and  C_50
   15  A    between atoms: O_28  and  C_44
   16  A    between atoms: O_28  and  C_56
   17  A    between atoms: C_32  and  C_45
   18  A    between atoms: N_34  and  C_47
   19  A    between atoms: C_36  and  C_42
   20  A    between atoms: C_45  and  C_65
   21  A    between atoms: C_46  and  N_59
   22  A    between atoms: C_46  and  C_60
   23  A    between atoms: C_53  and  C_60
   24  A    between atoms: CA_55  and  N_59
                            x       y       z     vdW  Elec       q    Type
                         _______ _______ _______ _____ _____    ______ ____

>  <TORSDO>
F 24

$$$$
=
 OpenBabel11072408413D

 65 71  0  0  1  0  0  0  0  0999 V2000
  189.5380  177.8260  144.1970 C   0  0  1  0  0  3  0  0  0  0  0  0
  188.4150  176.8170  141.9590 C   0  0  1  0  0  3  0  0  0  0  0  0
  187.4950  178.0030  141.7130 C   0  0  0  0  0  1  0  0  0  0  0  0
  186.1740  176.5890  144.0520 C   0  0  0  0  0  2  0  0  0  0  0  0
  187.5950  175.9570  145.8280 O   0  0  0  0  0  0  0  0  0  0  0  0
  190.5930  175.9370  143.0020 C   0  0  1  0  0  0  0  0  0  0  0  0
  190.3210  174.8730  144.0560 C   0  0  0  0  0  2  0  0  0  0  0  0
  186.3650  175.5050  142.9980 C   0  0  0  0  0  2  0  0  0  0  0  0
  189.6630  177.1290  142.8180 C   0  0  2  0  0  3  0  0  0  0  0  0
  191.2080  176.0640  144.3740 C   0  0  2  0  0  0  0  0  0  0  0  0
  188.1490  178.0200  144.8070 C   0  0  0  0  0  2  0  0  0  0  0  0
  187.7350  175.4730  142.2920 C   0  0  1  0  0  3  0  0  0  0  0  0
  190.4970  177.1480  145.1700 C   0  0  0  0  0  2  0  0  0  0  0  0
  187.3530  176.7630  144.9430 C   0  0  0  0  0  0  0  0  0  0  0  0
  191.4820  175.5980  141.9770 O   0  0  0  0  0  1  0  0  0  0  0  0
  192.6290  174.2930  145.3210 N   0  0  0  0  0  0  0  0  0  0  0  0
  192.8940  175.5250  146.1370 C   0  0  2  0  0  3  0  0  0  0  0  0
  192.6430  175.6390  144.6880 C   0  0  2  0  0  3  0  0  0  0  0  0
  193.8490  173.5530  144.9550 C   0  0  0  0  0  2  0  0  0  0  0  0
  193.5360  168.8270  141.7530 O   0  0  0  0  0  1  0  0  0  0  0  0
  193.5870  172.2890  144.1160 C   0  0  1  0  0  3  0  0  0  0  0  0
  193.9520  171.1620  141.8320 C   0  0  0  0  0  2  0  0  0  0  0  0
  194.6110  168.7320  146.7090 C   0  0  0  0  0  0  0  0  0  0  0  0
  195.6110  169.7090  146.1910 C   0  0  0  0  0  2  0  0  0  0  0  0
  193.2150  169.9750  142.4920 C   0  0  2  0  0  0  0  0  0  0  0  0
  194.1420  172.4340  142.6980 C   0  0  1  0  0  3  0  0  0  0  0  0
  194.9530  170.9590  145.7060 C   0  0  0  0  0  3  0  0  0  0  0  0
  194.7400  168.2560  148.0420 N   0  0  0  0  0  1  0  0  0  0  0  0
  193.6580  169.7790  143.9320 C   0  0  0  0  0  0  0  0  0  0  0  0
  193.6850  168.1900  145.9180 C   0  0  0  0  0  3  0  0  0  0  0  0
  194.0770  170.9890  144.6970 C   0  0  0  0  0  0  0  0  0  0  0  0
  193.4240  168.5860  144.5180 C   0  0  0  0  0  3  0  0  0  0  0  0
  191.6980  170.2690  142.4840 C   0  0  0  0  0  3  0  0  0  0  0  0
  191.2140  170.6610  141.0990 C   0  0  0  0  0  2  0  0  0  0  0  0
  190.9030  169.2730  141.6450 C   0  0  0  0  0  2  0  0  0  0  0  0
  193.5810  173.5490  142.0560 O   0  0  0  0  0  0  0  0  0  0  0  0
  194.6730  174.1780  141.4500 C   0  0  0  0  0  1  0  0  0  0  0  0
  194.3720  175.7730  146.4840 C   0  0  0  0  0  2  0  0  0  0  0  0
  195.0660  177.8190  145.5240 O   0  0  0  0  0  1  0  0  0  0  0  0
  194.6660  177.2440  146.7280 C   0  0  0  0  0  2  0  0  0  0  0  0
  187.6390  174.6800  141.1390 O   0  0  0  0  0  0  0  0  0  0  0  0
  188.0210  172.6590  142.3490 C   0  0  0  0  0  1  0  0  0  0  0  0
  188.5560  173.6350  141.3070 C   0  0  1  0  0  3  0  0  0  0  0  0
  188.7150  172.9040  139.9840 C   0  0  0  0  0  2  0  0  0  0  0  0
  189.5970  173.6950  139.0340 C   0  0  0  0  0  2  0  0  0  0  0  0
  189.2360  173.3680  137.5880 C   0  0  1  0  0  3  0  0  0  0  0  0
  187.5940  175.0760  137.3950 O   0  0  0  0  0  1  0  0  0  0  0  0
  188.9860  174.8710  135.5870 O   0  0  0  0  0  0  0  0  0  0  0  0
  188.5770  174.5030  136.8650 C   0  0  0  0  0  0  0  0  0  0  0  0
  190.4170  172.7920  136.8120 C   0  0  0  0  0  2  0  0  0  0  0  0
  191.0280  171.6580  137.4990 N   0  0  0  0  0  2  0  0  0  0  0  0
  192.4740  171.7380  137.3170 C   0  0  1  0  0  3  0  0  0  0  0  0
  193.0760  172.5450  138.4480 C   0  0  0  0  0  1  0  0  0  0  0  0
  193.1280  170.3550  137.2510 C   0  0  2  0  0  3  0  0  0  0  0  0
  192.1250  169.2680  137.0290 C   0  0  0  0  0  0  0  0  0  0  0  0
  191.5410  168.6060  138.1050 O   0  0  0  0  0  1  0  0  0  0  0  0
  191.7750  168.9840  135.8550 O   0  0  0  0  0  0  0  0  0  0  0  0
  193.9300  170.0910  138.4390 N   0  0  0  0  0  2  0  0  0  0  0  0
  195.1270  169.4030  137.9880 C   0  0  0  0  0  2  0  0  0  0  0  0
  196.2720  170.3900  137.8230 C   0  0  0  0  0  2  0  0  0  0  0  0
  196.5310  171.1340  139.1210 C   0  0  0  0  0  2  0  0  0  0  0  0
  197.0970  170.1960  140.1760 C   0  0  0  0  0  2  0  0  0  0  0  0
  197.2810  170.4080  142.6320 F   0  0  0  0  0  0  0  0  0  0  0  0
  197.8350  172.1200  141.3170 O   0  0  0  0  0  0  0  0  0  0  0  0
  197.4460  170.9660  141.4050 C   0  0  0  0  0  0  0  0  0  0  0  0
  1 11  1  1  0  0  0
  1 13  1  0  0  0  0
  2  3  1  1  0  0  0
  2 12  1  0  0  0  0
  2  9  1  0  0  0  0
  4 14  1  0  0  0  0
  6 15  1  6  0  0  0
  6  7  1  0  0  0  0
  6 10  1  0  0  0  0
  7 10  1  0  0  0  0
  8  4  1  0  0  0  0
  9  6  1  0  0  0  0
  9  1  1  0  0  0  0
 10 18  1  0  0  0  0
 10 13  1  0  0  0  0
 11 14  1  0  0  0  0
 12  8  1  0  0  0  0
 14  5  2  0  0  0  0
 16 17  1  0  0  0  0
 17 38  1  0  0  0  0
 18 16  1  0  0  0  0
 18 17  1  0  0  0  0
 19 16  1  0  0  0  0
 20 25  1  0  0  0  0
 21 31  1  0  0  0  0
 21 19  1  0  0  0  0
 22 25  1  0  0  0  0
 22 26  1  0  0  0  0
 23 28  1  0  0  0  0
 24 23  1  0  0  0  0
 25 29  1  0  0  0  0
 26 21  1  0  0  0  0
 27 24  1  0  0  0  0
 29 32  2  0  0  0  0
 29 31  1  0  0  0  0
 30 23  2  0  0  0  0
 31 27  2  0  0  0  0
 32 30  1  0  0  0  0
 33 25  1  0  0  0  0
 34 35  1  0  0  0  0
 34 33  1  0  0  0  0
 35 33  1  0  0  0  0
 36 26  1  0  0  0  0
 37 36  1  0  0  0  0
 38 40  1  0  0  0  0
 39 40  1  0  0  0  0
 41 43  1  0  0  0  0
 41 12  1  0  0  0  0
 43 42  1  0  0  0  0
 44 43  1  0  0  0  0
 45 44  1  0  0  0  0
 46 45  1  0  0  0  0
 48 49  2  0  0  0  0
 49 47  1  0  0  0  0
 49 46  1  0  0  0  0
 50 51  1  0  0  0  0
 50 46  1  0  0  0  0
 52 51  1  0  0  0  0
 52 53  1  0  0  0  0
 54 52  1  0  0  0  0
 54 58  1  0  0  0  0
 55 54  1  0  0  0  0
 55 56  1  0  0  0  0
 57 55  2  0  0  0  0
 59 58  1  0  0  0  0
 60 59  1  0  0  0  0
 60 61  1  0  0  0  0
 61 62  1  0  0  0  0
 62 65  1  0  0  0  0
 64 65  2  0  0  0  0
 65 63  1  0  0  0  0
M  END
>  <MODEL>
2

>  <REMARK>
 VINA RESULT:      -5.7      3.181      6.789
  Name = 
  24 active torsions:
  status: ('A' for Active; 'I' for Inactive)
    1  A    between atoms: C_1  and  C_19
    2  A    between atoms: C_2  and  C_48
    3  A    between atoms: C_2  and  C_56
    4  A    between atoms: C_4  and  C_57
    5  A    between atoms: C_11  and  CA_55
    6  A    between atoms: O_15  and  C_29
    7  A    between atoms: N_18  and  C_57
    8  A    between atoms: C_22  and  C_53
    9  A    between atoms: C_22  and  C_58
   10  A    between atoms: C_25  and  N_34
   11  A    between atoms: C_25  and  CA_55
   12  A    between atoms: C_27  and  C_47
   13  A    between atoms: C_27  and  C_48
   14  A    between atoms: C_27  and  C_50
   15  A    between atoms: O_28  and  C_44
   16  A    between atoms: O_28  and  C_56
   17  A    between atoms: C_32  and  C_45
   18  A    between atoms: N_34  and  C_47
   19  A    between atoms: C_36  and  C_42
   20  A    between atoms: C_45  and  C_65
   21  A    between atoms: C_46  and  N_59
   22  A    between atoms: C_46  and  C_60
   23  A    between atoms: C_53  and  C_60
   24  A    between atoms: CA_55  and  N_59
                            x       y       z     vdW  Elec       q    Type
                         _______ _______ _______ _____ _____    ______ ____

>  <TORSDO>
F 24

$$$$
=
 OpenBabel11072408413D

 65 71  0  0  1  0  0  0  0  0999 V2000
  189.9230  171.0310  140.9200 C   0  0  1  0  0  3  0  0  0  0  0  0
  191.1040  170.1150  138.6730 C   0  0  1  0  0  3  0  0  0  0  0  0
  190.9150  168.6420  139.0020 C   0  0  0  0  0  1  0  0  0  0  0  0
  193.1550  169.4760  140.8740 C   0  0  0  0  0  2  0  0  0  0  0  0
  192.8200  171.4800  142.0760 O   0  0  0  0  0  0  0  0  0  0  0  0
  190.2960  172.5340  138.9940 C   0  0  1  0  0  0  0  0  0  0  0  0
  191.3660  173.4030  139.6380 C   0  0  0  0  0  2  0  0  0  0  0  0
  193.6140  169.9250  139.4910 C   0  0  0  0  0  2  0  0  0  0  0  0
  190.1180  171.0720  139.3830 C   0  0  2  0  0  3  0  0  0  0  0  0
  189.9610  173.3590  140.2110 C   0  0  2  0  0  0  0  0  0  0  0  0
  190.8670  170.1770  141.7670 C   0  0  0  0  0  2  0  0  0  0  0  0
  192.5580  170.6290  138.6170 C   0  0  1  0  0  3  0  0  0  0  0  0
  189.8380  172.4640  141.4360 C   0  0  0  0  0  2  0  0  0  0  0  0
  192.3170  170.4860  141.5760 C   0  0  0  0  0  0  0  0  0  0  0  0
  189.7500  172.9920  137.7910 O   0  0  0  0  0  1  0  0  0  0  0  0
  188.2390  174.8110  141.2010 N   0  0  0  0  0  0  0  0  0  0  0  0
  187.8450  174.6120  139.7650 C   0  0  2  0  0  3  0  0  0  0  0  0
  189.2700  174.7210  140.1320 C   0  0  2  0  0  3  0  0  0  0  0  0
  188.1120  176.2050  141.6600 C   0  0  0  0  0  2  0  0  0  0  0  0
  189.7590  177.6360  146.9450 O   0  0  0  0  0  1  0  0  0  0  0  0
  188.5210  176.4200  143.1280 C   0  0  1  0  0  3  0  0  0  0  0  0
  190.3990  177.2110  144.6990 C   0  0  0  0  0  2  0  0  0  0  0  0
  185.0980  178.5540  145.1670 C   0  0  0  0  0  0  0  0  0  0  0  0
  185.9600  179.1640  144.1150 C   0  0  0  0  0  2  0  0  0  0  0  0
  189.3630  176.9180  145.8070 C   0  0  2  0  0  0  0  0  0  0  0  0
  189.9610  176.9250  143.2390 C   0  0  1  0  0  3  0  0  0  0  0  0
  186.7310  178.1240  143.3700 C   0  0  0  0  0  3  0  0  0  0  0  0
  183.6990  178.8080  145.1450 N   0  0  0  0  0  1  0  0  0  0  0  0
  187.9710  177.3650  145.3960 C   0  0  0  0  0  0  0  0  0  0  0  0
  185.6160  177.8950  146.2030 C   0  0  0  0  0  3  0  0  0  0  0  0
  187.6290  177.3180  143.9460 C   0  0  0  0  0  0  0  0  0  0  0  0
  187.0450  177.5470  146.3610 C   0  0  0  0  0  3  0  0  0  0  0  0
  189.3300  175.3940  146.0620 C   0  0  0  0  0  3  0  0  0  0  0  0
  190.3380  174.9840  147.1210 C   0  0  0  0  0  2  0  0  0  0  0  0
  188.8550  175.0360  147.4670 C   0  0  0  0  0  2  0  0  0  0  0  0
  190.8500  176.0270  142.6300 O   0  0  0  0  0  0  0  0  0  0  0  0
  192.0800  176.3050  143.2340 C   0  0  0  0  0  1  0  0  0  0  0  0
  187.3410  175.8750  139.0460 C   0  0  0  0  0  2  0  0  0  0  0  0
  185.8560  176.0430  137.2140 O   0  0  0  0  0  1  0  0  0  0  0  0
  187.1470  175.6480  137.5550 C   0  0  0  0  0  2  0  0  0  0  0  0
  193.0090  170.6600  137.2890 O   0  0  0  0  0  0  0  0  0  0  0  0
  195.1500  170.6930  136.2340 C   0  0  0  0  0  1  0  0  0  0  0  0
  194.2590  171.2920  137.3170 C   0  0  1  0  0  3  0  0  0  0  0  0
  194.0660  172.7730  137.0330 C   0  0  0  0  0  2  0  0  0  0  0  0
  194.6010  173.6150  138.1780 C   0  0  0  0  0  2  0  0  0  0  0  0
  196.1150  173.4510  138.2860 C   0  0  1  0  0  3  0  0  0  0  0  0
  197.2930  173.6960  136.2370 O   0  0  0  0  0  0  0  0  0  0  0  0
  197.1970  175.5900  137.5230 O   0  0  0  0  0  1  0  0  0  0  0  0
  196.8770  174.2570  137.2790 C   0  0  0  0  0  0  0  0  0  0  0  0
  196.6200  173.6700  139.7090 C   0  0  0  0  0  2  0  0  0  0  0  0
  195.5440  174.0280  140.6280 N   0  0  0  0  0  2  0  0  0  0  0  0
  195.9060  175.2770  141.2920 C   0  0  1  0  0  3  0  0  0  0  0  0
  194.8780  176.3370  140.9540 C   0  0  0  0  0  1  0  0  0  0  0  0
  196.0160  175.1170  142.8110 C   0  0  2  0  0  3  0  0  0  0  0  0
  196.2860  176.4180  143.4970 C   0  0  0  0  0  0  0  0  0  0  0  0
  195.4120  176.9110  144.4610 O   0  0  0  0  0  1  0  0  0  0  0  0
  197.3420  177.0470  143.2300 O   0  0  0  0  0  0  0  0  0  0  0  0
  197.0190  174.1210  143.1670 N   0  0  0  0  0  2  0  0  0  0  0  0
  196.3450  173.1240  143.9810 C   0  0  0  0  0  2  0  0  0  0  0  0
  197.3640  172.2600  144.7070 C   0  0  0  0  0  2  0  0  0  0  0  0
  196.8600  171.8800  146.0880 C   0  0  0  0  0  2  0  0  0  0  0  0
  196.6990  170.3720  146.2060 C   0  0  0  0  0  2  0  0  0  0  0  0
  195.1950  168.8420  144.9790 F   0  0  0  0  0  0  0  0  0  0  0  0
  194.3750  170.6690  145.9590 O   0  0  0  0  0  0  0  0  0  0  0  0
  195.3460  169.9660  145.7260 C   0  0  0  0  0  0  0  0  0  0  0  0
  1 13  1  1  0  0  0
  1 11  1  0  0  0  0
  2  3  1  1  0  0  0
  2  9  1  0  0  0  0
  4 14  1  0  0  0  0
  6 15  1  6  0  0  0
  6  9  1  0  0  0  0
  6  7  1  0  0  0  0
  6 10  1  0  0  0  0
  7 10  1  0  0  0  0
  8  4  1  0  0  0  0
  9  1  1  0  0  0  0
 10 13  1  0  0  0  0
 12  2  1  0  0  0  0
 12  8  1  0  0  0  0
 14 11  1  0  0  0  0
 14  5  2  0  0  0  0
 16 19  1  0  0  0  0
 17 18  1  0  0  0  0
 17 16  1  0  0  0  0
 18 10  1  0  0  0  0
 18 16  1  0  0  0  0
 19 21  1  0  0  0  0
 21 26  1  0  0  0  0
 21 31  1  0  0  0  0
 22 25  1  0  0  0  0
 23 30  2  0  0  0  0
 24 23  1  0  0  0  0
 25 33  1  0  0  0  0
 25 20  1  0  0  0  0
 26 22  1  0  0  0  0
 27 31  2  0  0  0  0
 27 24  1  0  0  0  0
 28 23  1  0  0  0  0
 29 25  1  0  0  0  0
 29 32  2  0  0  0  0
 30 32  1  0  0  0  0
 31 29  1  0  0  0  0
 33 34  1  0  0  0  0
 33 35  1  0  0  0  0
 34 35  1  0  0  0  0
 36 37  1  0  0  0  0
 36 26  1  0  0  0  0
 38 17  1  0  0  0  0
 39 40  1  0  0  0  0
 40 38  1  0  0  0  0
 41 43  1  0  0  0  0
 41 12  1  0  0  0  0
 42 43  1  0  0  0  0
 44 43  1  0  0  0  0
 44 45  1  0  0  0  0
 45 46  1  0  0  0  0
 46 50  1  0  0  0  0
 47 49  2  0  0  0  0
 49 48  1  0  0  0  0
 49 46  1  0  0  0  0
 50 51  1  0  0  0  0
 51 52  1  0  0  0  0
 52 54  1  0  0  0  0
 53 52  1  0  0  0  0
 54 58  1  0  0  0  0
 54 55  1  0  0  0  0
 55 56  1  0  0  0  0
 57 55  2  0  0  0  0
 58 59  1  0  0  0  0
 59 60  1  0  0  0  0
 60 61  1  0  0  0  0
 61 62  1  0  0  0  0
 63 65  1  0  0  0  0
 65 64  2  0  0  0  0
 65 62  1  0  0  0  0
M  END
>  <MODEL>
3

>  <REMARK>
 VINA RESULT:      -5.6      3.184      9.974
  Name = 
  24 active torsions:
  status: ('A' for Active; 'I' for Inactive)
    1  A    between atoms: C_1  and  C_19
    2  A    between atoms: C_2  and  C_48
    3  A    between atoms: C_2  and  C_56
    4  A    between atoms: C_4  and  C_57
    5  A    between atoms: C_11  and  CA_55
    6  A    between atoms: O_15  and  C_29
    7  A    between atoms: N_18  and  C_57
    8  A    between atoms: C_22  and  C_53
    9  A    between atoms: C_22  and  C_58
   10  A    between atoms: C_25  and  N_34
   11  A    between atoms: C_25  and  CA_55
   12  A    between atoms: C_27  and  C_47
   13  A    between atoms: C_27  and  C_48
   14  A    between atoms: C_27  and  C_50
   15  A    between atoms: O_28  and  C_44
   16  A    between atoms: O_28  and  C_56
   17  A    between atoms: C_32  and  C_45
   18  A    between atoms: N_34  and  C_47
   19  A    between atoms: C_36  and  C_42
   20  A    between atoms: C_45  and  C_65
   21  A    between atoms: C_46  and  N_59
   22  A    between atoms: C_46  and  C_60
   23  A    between atoms: C_53  and  C_60
   24  A    between atoms: CA_55  and  N_59
                            x       y       z     vdW  Elec       q    Type
                         _______ _______ _______ _____ _____    ______ ____

>  <TORSDO>
F 24

$$$$
=
 OpenBabel11072408413D

 65 71  0  0  1  0  0  0  0  0999 V2000
  191.5630  176.1550  146.4930 C   0  0  1  0  0  3  0  0  0  0  0  0
  189.6070  177.8500  145.7250 C   0  0  1  0  0  3  0  0  0  0  0  0
  189.3000  178.3580  147.1240 C   0  0  0  0  0  1  0  0  0  0  0  0
  188.0800  175.5790  147.1270 C   0  0  0  0  0  2  0  0  0  0  0  0
  189.4330  173.8430  146.2730 O   0  0  0  0  0  0  0  0  0  0  0  0
  191.3220  176.8050  144.1200 C   0  0  1  0  0  0  0  0  0  0  0  0
  190.8560  175.4530  143.6020 C   0  0  0  0  0  2  0  0  0  0  0  0
  187.4990  176.2600  145.8930 C   0  0  0  0  0  2  0  0  0  0  0  0
  191.0250  177.2570  145.5440 C   0  0  2  0  0  3  0  0  0  0  0  0
  192.2340  175.6070  144.2180 C   0  0  2  0  0  0  0  0  0  0  0  0
  190.6060  175.5010  147.4900 C   0  0  0  0  0  2  0  0  0  0  0  0
  188.4900  177.0520  145.0190 C   0  0  1  0  0  3  0  0  0  0  0  0
  192.3080  175.1190  145.6580 C   0  0  0  0  0  2  0  0  0  0  0  0
  189.3820  174.9060  146.8730 C   0  0  0  0  0  0  0  0  0  0  0  0
  191.6860  177.7580  143.1630 O   0  0  0  0  0  1  0  0  0  0  0  0
  194.4300  174.5510  143.8790 N   0  0  0  0  0  0  0  0  0  0  0  0
  194.6080  176.0040  143.5460 C   0  0  2  0  0  3  0  0  0  0  0  0
  193.3470  175.3190  143.2090 C   0  0  2  0  0  3  0  0  0  0  0  0
  195.0720  173.6420  142.9120 C   0  0  0  0  0  2  0  0  0  0  0  0
  195.9800  168.6610  145.5680 O   0  0  0  0  0  1  0  0  0  0  0  0
  195.4320  172.2630  143.4950 C   0  0  1  0  0  3  0  0  0  0  0  0
  196.2960  171.0140  145.5710 C   0  0  0  0  0  2  0  0  0  0  0  0
  192.0400  169.4570  142.4760 C   0  0  0  0  0  0  0  0  0  0  0  0
  191.9270  170.6000  143.4270 C   0  0  0  0  0  2  0  0  0  0  0  0
  196.0700  169.7580  144.6990 C   0  0  2  0  0  0  0  0  0  0  0  0
  195.9730  172.3830  144.9210 C   0  0  1  0  0  3  0  0  0  0  0  0
  193.0630  171.5560  143.2680 C   0  0  0  0  0  3  0  0  0  0  0  0
  190.9660  169.1970  141.5810 N   0  0  0  0  0  1  0  0  0  0  0  0
  194.7830  169.8640  143.8980 C   0  0  0  0  0  0  0  0  0  0  0  0
  193.0520  168.5920  142.5350 C   0  0  0  0  0  3  0  0  0  0  0  0
  194.3410  171.2250  143.4770 C   0  0  0  0  0  0  0  0  0  0  0  0
  194.2400  168.7320  143.4040 C   0  0  0  0  0  3  0  0  0  0  0  0
  197.2490  169.6240  143.7100 C   0  0  0  0  0  3  0  0  0  0  0  0
  197.7030  168.1800  143.5750 C   0  0  0  0  0  2  0  0  0  0  0  0
  196.8900  168.8270  142.4590 C   0  0  0  0  0  2  0  0  0  0  0  0
  197.1010  173.2180  144.9560 O   0  0  0  0  0  0  0  0  0  0  0  0
  197.1940  173.6070  146.2960 C   0  0  0  0  0  1  0  0  0  0  0  0
  195.4580  176.2890  142.2970 C   0  0  0  0  0  2  0  0  0  0  0  0
  197.7590  176.1610  141.7690 O   0  0  0  0  0  1  0  0  0  0  0  0
  196.8600  176.7590  142.6500 C   0  0  0  0  0  2  0  0  0  0  0  0
  187.7720  177.8880  144.1520 O   0  0  0  0  0  0  0  0  0  0  0  0
  186.6880  177.7760  142.0290 C   0  0  0  0  0  1  0  0  0  0  0  0
  187.0290  177.0410  143.3210 C   0  0  1  0  0  3  0  0  0  0  0  0
  187.8720  175.8210  142.9850 C   0  0  0  0  0  2  0  0  0  0  0  0
  187.6100  175.3610  141.5620 C   0  0  0  0  0  2  0  0  0  0  0  0
  188.4800  174.1500  141.2330 C   0  0  1  0  0  3  0  0  0  0  0  0
  187.0290  172.4530  142.0500 O   0  0  0  0  0  0  0  0  0  0  0  0
  189.1320  172.4400  142.9590 O   0  0  0  0  0  1  0  0  0  0  0  0
  188.1800  172.9520  142.0820 C   0  0  0  0  0  0  0  0  0  0  0  0
  188.4780  173.8230  139.7430 C   0  0  0  0  0  2  0  0  0  0  0  0
  189.0200  172.4950  139.4700 N   0  0  0  0  0  2  0  0  0  0  0  0
  189.2000  172.3620  138.0270 C   0  0  1  0  0  3  0  0  0  0  0  0
  188.8160  173.6630  137.3550 C   0  0  0  0  0  1  0  0  0  0  0  0
  190.6340  171.9790  137.6530 C   0  0  2  0  0  3  0  0  0  0  0  0
  191.3280  173.0660  136.8960 C   0  0  0  0  0  0  0  0  0  0  0  0
  191.8450  174.1770  137.5560 O   0  0  0  0  0  1  0  0  0  0  0  0
  191.4860  172.9470  135.6540 O   0  0  0  0  0  0  0  0  0  0  0  0
  190.6720  170.7220  136.9150 N   0  0  0  0  0  2  0  0  0  0  0  0
  191.2300  169.7280  137.8150 C   0  0  0  0  0  2  0  0  0  0  0  0
  192.7360  169.6370  137.6310 C   0  0  0  0  0  2  0  0  0  0  0  0
  193.4320  169.4620  138.9690 C   0  0  0  0  0  2  0  0  0  0  0  0
  193.7570  170.8130  139.5880 C   0  0  0  0  0  2  0  0  0  0  0  0
  195.7610  172.1670  140.0970 F   0  0  0  0  0  0  0  0  0  0  0  0
  195.9830  170.0840  139.3360 O   0  0  0  0  0  0  0  0  0  0  0  0
  195.2360  170.9860  139.6810 C   0  0  0  0  0  0  0  0  0  0  0  0
  1 13  1  6  0  0  0
  1 11  1  0  0  0  0
  2  3  1  1  0  0  0
  5 14  2  0  0  0  0
  6 15  1  6  0  0  0
  6 10  1  0  0  0  0
  6  9  1  0  0  0  0
  7  6  1  0  0  0  0
  7 10  1  0  0  0  0
  8  4  1  0  0  0  0
  9  2  1  0  0  0  0
  9  1  1  0  0  0  0
 10 13  1  0  0  0  0
 12  2  1  0  0  0  0
 12  8  1  0  0  0  0
 14  4  1  0  0  0  0
 14 11  1  0  0  0  0
 17 16  1  0  0  0  0
 18 17  1  0  0  0  0
 18 16  1  0  0  0  0
 18 10  1  0  0  0  0
 19 21  1  0  0  0  0
 19 16  1  0  0  0  0
 21 26  1  0  0  0  0
 23 30  2  0  0  0  0
 23 24  1  0  0  0  0
 25 20  1  0  0  0  0
 25 22  1  0  0  0  0
 26 36  1  0  0  0  0
 26 22  1  0  0  0  0
 27 24  1  0  0  0  0
 27 31  2  0  0  0  0
 28 23  1  0  0  0  0
 29 25  1  0  0  0  0
 30 32  1  0  0  0  0
 31 21  1  0  0  0  0
 31 29  1  0  0  0  0
 32 29  2  0  0  0  0
 33 25  1  0  0  0  0
 34 33  1  0  0  0  0
 35 34  1  0  0  0  0
 35 33  1  0  0  0  0
 36 37  1  0  0  0  0
 38 40  1  0  0  0  0
 38 17  1  0  0  0  0
 39 40  1  0  0  0  0
 41 12  1  0  0  0  0
 42 43  1  0  0  0  0
 43 41  1  0  0  0  0
 44 43  1  0  0  0  0
 45 44  1  0  0  0  0
 46 45  1  0  0  0  0
 46 49  1  0  0  0  0
 47 49  2  0  0  0  0
 49 48  1  0  0  0  0
 50 46  1  0  0  0  0
 51 50  1  0  0  0  0
 52 51  1  0  0  0  0
 53 52  1  0  0  0  0
 54 52  1  0  0  0  0
 55 56  1  0  0  0  0
 55 54  1  0  0  0  0
 57 55  2  0  0  0  0
 58 54  1  0  0  0  0
 58 59  1  0  0  0  0
 60 59  1  0  0  0  0
 60 61  1  0  0  0  0
 61 62  1  0  0  0  0
 62 65  1  0  0  0  0
 64 65  2  0  0  0  0
 65 63  1  0  0  0  0
M  END
>  <MODEL>
4

>  <REMARK>
 VINA RESULT:      -4.9      3.096      6.255
  Name = 
  24 active torsions:
  status: ('A' for Active; 'I' for Inactive)
    1  A    between atoms: C_1  and  C_19
    2  A    between atoms: C_2  and  C_48
    3  A    between atoms: C_2  and  C_56
    4  A    between atoms: C_4  and  C_57
    5  A    between atoms: C_11  and  CA_55
    6  A    between atoms: O_15  and  C_29
    7  A    between atoms: N_18  and  C_57
    8  A    between atoms: C_22  and  C_53
    9  A    between atoms: C_22  and  C_58
   10  A    between atoms: C_25  and  N_34
   11  A    between atoms: C_25  and  CA_55
   12  A    between atoms: C_27  and  C_47
   13  A    between atoms: C_27  and  C_48
   14  A    between atoms: C_27  and  C_50
   15  A    between atoms: O_28  and  C_44
   16  A    between atoms: O_28  and  C_56
   17  A    between atoms: C_32  and  C_45
   18  A    between atoms: N_34  and  C_47
   19  A    between atoms: C_36  and  C_42
   20  A    between atoms: C_45  and  C_65
   21  A    between atoms: C_46  and  N_59
   22  A    between atoms: C_46  and  C_60
   23  A    between atoms: C_53  and  C_60
   24  A    between atoms: CA_55  and  N_59
                            x       y       z     vdW  Elec       q    Type
                         _______ _______ _______ _____ _____    ______ ____

>  <TORSDO>
F 24

$$$$
=
 OpenBabel11072408413D

 65 71  0  0  1  0  0  0  0  0999 V2000
  190.0060  171.2230  142.1120 C   0  0  1  0  0  3  0  0  0  0  0  0
  191.6790  169.7040  140.6350 C   0  0  1  0  0  3  0  0  0  0  0  0
  191.4720  168.4340  141.4450 C   0  0  0  0  0  1  0  0  0  0  0  0
  193.2200  170.1230  143.2630 C   0  0  0  0  0  2  0  0  0  0  0  0
  192.5650  172.3730  143.5470 O   0  0  0  0  0  0  0  0  0  0  0  0
  190.7410  171.9730  139.8740 C   0  0  1  0  0  0  0  0  0  0  0  0
  191.6150  173.1280  140.3410 C   0  0  0  0  0  2  0  0  0  0  0  0
  193.9540  170.0980  141.9280 C   0  0  0  0  0  2  0  0  0  0  0  0
  190.5310  170.7360  140.7370 C   0  0  2  0  0  3  0  0  0  0  0  0
  190.1210  173.1350  140.6090 C   0  0  2  0  0  0  0  0  0  0  0  0
  190.7710  170.8370  143.3780 C   0  0  0  0  0  2  0  0  0  0  0  0
  193.0930  170.3230  140.6700 C   0  0  1  0  0  3  0  0  0  0  0  0
  189.7630  172.7270  142.0310 C   0  0  0  0  0  2  0  0  0  0  0  0
  192.2160  171.2170  143.3660 C   0  0  0  0  0  0  0  0  0  0  0  0
  190.4550  171.9090  138.5060 O   0  0  0  0  0  1  0  0  0  0  0  0
  188.1590  174.6190  140.6200 N   0  0  0  0  0  0  0  0  0  0  0  0
  188.1310  173.8960  139.3040 C   0  0  2  0  0  3  0  0  0  0  0  0
  189.4190  174.2940  139.9000 C   0  0  2  0  0  3  0  0  0  0  0  0
  187.8730  176.0600  140.5070 C   0  0  0  0  0  2  0  0  0  0  0  0
  186.3700  179.0750  145.1270 O   0  0  0  0  0  1  0  0  0  0  0  0
  187.4270  176.7140  141.8270 C   0  0  1  0  0  3  0  0  0  0  0  0
  188.1300  178.2740  143.7480 C   0  0  0  0  0  2  0  0  0  0  0  0
  183.3050  178.4330  141.1380 C   0  0  0  0  0  0  0  0  0  0  0  0
  184.5470  178.9500  140.4970 C   0  0  0  0  0  2  0  0  0  0  0  0
  186.6880  178.0300  144.2470 C   0  0  2  0  0  0  0  0  0  0  0  0
  188.5510  177.5490  142.4450 C   0  0  1  0  0  3  0  0  0  0  0  0
  185.6660  177.9660  140.6040 C   0  0  0  0  0  3  0  0  0  0  0  0
  182.1150  178.3450  140.3630 N   0  0  0  0  0  1  0  0  0  0  0  0
  185.6960  178.0300  143.0960 C   0  0  0  0  0  0  0  0  0  0  0  0
  183.2410  178.1840  142.4450 C   0  0  0  0  0  3  0  0  0  0  0  0
  186.1780  177.5540  141.7680 C   0  0  0  0  0  0  0  0  0  0  0  0
  184.3900  178.2230  143.3760 C   0  0  0  0  0  3  0  0  0  0  0  0
  186.6310  176.6490  144.9380 C   0  0  0  0  0  3  0  0  0  0  0  0
  186.8200  176.7690  146.4410 C   0  0  0  0  0  2  0  0  0  0  0  0
  185.4330  176.4980  145.8700 C   0  0  0  0  0  2  0  0  0  0  0  0
  189.6880  176.7590  142.6730 O   0  0  0  0  0  0  0  0  0  0  0  0
  190.5310  177.5850  143.4210 C   0  0  0  0  0  1  0  0  0  0  0  0
  187.7680  174.7650  138.0890 C   0  0  0  0  0  2  0  0  0  0  0  0
  188.4630  175.4450  135.9340 O   0  0  0  0  0  1  0  0  0  0  0  0
  188.6010  174.4180  136.8650 C   0  0  0  0  0  2  0  0  0  0  0  0
  193.8210  169.9290  139.5380 O   0  0  0  0  0  0  0  0  0  0  0  0
  196.1840  169.8470  139.2150 C   0  0  0  0  0  1  0  0  0  0  0  0
  194.9750  170.7230  139.5220 C   0  0  1  0  0  3  0  0  0  0  0  0
  194.8350  171.7700  138.4280 C   0  0  0  0  0  2  0  0  0  0  0  0
  194.7730  173.1650  139.0220 C   0  0  0  0  0  2  0  0  0  0  0  0
  195.8330  173.3200  140.1090 C   0  0  1  0  0  3  0  0  0  0  0  0
  197.3290  174.0890  138.4290 O   0  0  0  0  0  0  0  0  0  0  0  0
  197.9190  174.6470  140.5710 O   0  0  0  0  0  1  0  0  0  0  0  0
  197.0520  174.0620  139.6530 C   0  0  0  0  0  0  0  0  0  0  0  0
  195.2580  173.8860  141.4030 C   0  0  0  0  0  2  0  0  0  0  0  0
  196.0830  174.9610  141.9500 N   0  0  0  0  0  2  0  0  0  0  0  0
  195.1970  175.9870  142.4920 C   0  0  1  0  0  3  0  0  0  0  0  0
  193.8690  175.9340  141.7660 C   0  0  0  0  0  1  0  0  0  0  0  0
  194.9800  175.8300  143.9990 C   0  0  2  0  0  3  0  0  0  0  0  0
  196.1070  175.0990  144.6570 C   0  0  0  0  0  0  0  0  0  0  0  0
  195.8770  174.2720  145.7530 O   0  0  0  0  0  1  0  0  0  0  0  0
  197.2670  175.1990  144.1810 O   0  0  0  0  0  0  0  0  0  0  0  0
  193.7030  175.1880  144.2870 N   0  0  0  0  0  2  0  0  0  0  0  0
  192.8450  176.2100  144.8610 C   0  0  0  0  0  2  0  0  0  0  0  0
  192.9980  176.2360  146.3740 C   0  0  0  0  0  2  0  0  0  0  0  0
  192.3630  175.0070  146.9990 C   0  0  0  0  0  2  0  0  0  0  0  0
  191.1900  175.3990  147.8850 C   0  0  0  0  0  2  0  0  0  0  0  0
  189.6480  175.8270  146.0010 F   0  0  0  0  0  0  0  0  0  0  0  0
  189.0610  174.4240  147.6290 O   0  0  0  0  0  0  0  0  0  0  0  0
  189.9070  175.1680  147.1600 C   0  0  0  0  0  0  0  0  0  0  0  0
  1 13  1  6  0  0  0
  1 11  1  0  0  0  0
  2 12  1  0  0  0  0
  2  9  1  0  0  0  0
  2  3  1  1  0  0  0
  4 14  1  0  0  0  0
  6 15  1  6  0  0  0
  6  7  1  0  0  0  0
  6 10  1  0  0  0  0
  6  9  1  0  0  0  0
  7 10  1  0  0  0  0
  8  4  1  0  0  0  0
  9  1  1  0  0  0  0
 10 13  1  0  0  0  0
 12  8  1  0  0  0  0
 14 11  1  0  0  0  0
 14  5  2  0  0  0  0
 17 18  1  0  0  0  0
 17 16  1  0  0  0  0
 18 10  1  0  0  0  0
 18 16  1  0  0  0  0
 19 16  1  0  0  0  0
 19 21  1  0  0  0  0
 21 26  1  0  0  0  0
 22 25  1  0  0  0  0
 23 30  2  0  0  0  0
 24 27  1  0  0  0  0
 24 23  1  0  0  0  0
 25 33  1  0  0  0  0
 25 20  1  0  0  0  0
 26 36  1  0  0  0  0
 26 22  1  0  0  0  0
 27 31  2  0  0  0  0
 28 23  1  0  0  0  0
 29 32  2  0  0  0  0
 29 25  1  0  0  0  0
 30 32  1  0  0  0  0
 31 21  1  0  0  0  0
 31 29  1  0  0  0  0
 33 35  1  0  0  0  0
 33 34  1  0  0  0  0
 35 34  1  0  0  0  0
 36 37  1  0  0  0  0
 38 17  1  0  0  0  0
 39 40  1  0  0  0  0
 40 38  1  0  0  0  0
 41 12  1  0  0  0  0
 42 43  1  0  0  0  0
 43 41  1  0  0  0  0
 44 45  1  0  0  0  0
 44 43  1  0  0  0  0
 45 46  1  0  0  0  0
 46 50  1  0  0  0  0
 47 49  2  0  0  0  0
 49 46  1  0  0  0  0
 49 48  1  0  0  0  0
 50 51  1  0  0  0  0
 51 52  1  0  0  0  0
 52 54  1  0  0  0  0
 53 52  1  0  0  0  0
 54 58  1  0  0  0  0
 54 55  1  0  0  0  0
 55 56  1  0  0  0  0
 57 55  2  0  0  0  0
 58 59  1  0  0  0  0
 59 60  1  0  0  0  0
 60 61  1  0  0  0  0
 61 62  1  0  0  0  0
 63 65  1  0  0  0  0
 65 64  2  0  0  0  0
 65 62  1  0  0  0  0
M  END
>  <MODEL>
5

>  <REMARK>
 VINA RESULT:      -4.9      2.641      9.667
  Name = 
  24 active torsions:
  status: ('A' for Active; 'I' for Inactive)
    1  A    between atoms: C_1  and  C_19
    2  A    between atoms: C_2  and  C_48
    3  A    between atoms: C_2  and  C_56
    4  A    between atoms: C_4  and  C_57
    5  A    between atoms: C_11  and  CA_55
    6  A    between atoms: O_15  and  C_29
    7  A    between atoms: N_18  and  C_57
    8  A    between atoms: C_22  and  C_53
    9  A    between atoms: C_22  and  C_58
   10  A    between atoms: C_25  and  N_34
   11  A    between atoms: C_25  and  CA_55
   12  A    between atoms: C_27  and  C_47
   13  A    between atoms: C_27  and  C_48
   14  A    between atoms: C_27  and  C_50
   15  A    between atoms: O_28  and  C_44
   16  A    between atoms: O_28  and  C_56
   17  A    between atoms: C_32  and  C_45
   18  A    between atoms: N_34  and  C_47
   19  A    between atoms: C_36  and  C_42
   20  A    between atoms: C_45  and  C_65
   21  A    between atoms: C_46  and  N_59
   22  A    between atoms: C_46  and  C_60
   23  A    between atoms: C_53  and  C_60
   24  A    between atoms: CA_55  and  N_59
                            x       y       z     vdW  Elec       q    Type
                         _______ _______ _______ _____ _____    ______ ____

>  <TORSDO>
F 24

$$$$
=
 OpenBabel11072408413D

 65 71  0  0  1  0  0  0  0  0999 V2000
  191.8490  175.7410  146.9360 C   0  0  1  0  0  3  0  0  0  0  0  0
  190.1900  177.3990  145.6000 C   0  0  1  0  0  3  0  0  0  0  0  0
  189.5910  178.0350  146.8440 C   0  0  0  0  0  1  0  0  0  0  0  0
  188.2940  175.2910  146.7910 C   0  0  0  0  0  2  0  0  0  0  0  0
  189.7370  173.4610  146.4190 O   0  0  0  0  0  0  0  0  0  0  0  0
  192.1850  176.1820  144.5270 C   0  0  1  0  0  0  0  0  0  0  0  0
  191.7970  174.7990  144.0270 C   0  0  0  0  0  2  0  0  0  0  0  0
  188.0380  175.8710  145.4040 C   0  0  0  0  0  2  0  0  0  0  0  0
  191.5870  176.7640  145.8020 C   0  0  2  0  0  3  0  0  0  0  0  0
  193.0020  174.9810  144.9310 C   0  0  2  0  0  0  0  0  0  0  0  0
  190.6650  175.1970  147.7350 C   0  0  0  0  0  2  0  0  0  0  0  0
  189.2340  176.5630  144.7220 C   0  0  1  0  0  3  0  0  0  0  0  0
  192.7250  174.6210  146.3840 C   0  0  0  0  0  2  0  0  0  0  0  0
  189.5920  174.5730  146.9010 C   0  0  0  0  0  0  0  0  0  0  0  0
  192.7950  177.0390  143.6060 O   0  0  0  0  0  1  0  0  0  0  0  0
  195.2150  173.9470  145.2230 N   0  0  0  0  0  0  0  0  0  0  0  0
  195.4660  175.3430  144.7300 C   0  0  2  0  0  3  0  0  0  0  0  0
  194.3040  174.5830  144.2340 C   0  0  2  0  0  3  0  0  0  0  0  0
  196.0460  172.9280  144.5570 C   0  0  0  0  0  2  0  0  0  0  0  0
  193.6330  168.3750  142.0790 O   0  0  0  0  0  1  0  0  0  0  0  0
  195.2390  171.7860  143.9140 C   0  0  1  0  0  3  0  0  0  0  0  0
  194.9560  170.3280  141.8130 C   0  0  0  0  0  2  0  0  0  0  0  0
  194.9320  168.4810  146.9810 C   0  0  0  0  0  0  0  0  0  0  0  0
  196.2000  168.8900  146.3120 C   0  0  0  0  0  2  0  0  0  0  0  0
  193.8540  169.6380  142.6480 C   0  0  2  0  0  0  0  0  0  0  0  0
  195.7020  171.5100  142.4820 C   0  0  1  0  0  3  0  0  0  0  0  0
  196.0660  170.2270  145.6610 C   0  0  0  0  0  3  0  0  0  0  0  0
  194.9540  168.1660  148.3670 N   0  0  0  0  0  1  0  0  0  0  0  0
  194.2830  169.4630  144.0950 C   0  0  0  0  0  0  0  0  0  0  0  0
  193.8120  168.2670  146.2910 C   0  0  0  0  0  3  0  0  0  0  0  0
  195.2060  170.4830  144.6700 C   0  0  0  0  0  0  0  0  0  0  0  0
  193.6320  168.5540  144.8510 C   0  0  0  0  0  3  0  0  0  0  0  0
  192.5860  170.5210  142.6190 C   0  0  0  0  0  3  0  0  0  0  0  0
  192.0320  170.6560  141.2110 C   0  0  0  0  0  2  0  0  0  0  0  0
  191.3320  169.7500  142.2170 C   0  0  0  0  0  2  0  0  0  0  0  0
  195.5910  172.6660  141.6930 O   0  0  0  0  0  0  0  0  0  0  0  0
  194.7970  172.2650  140.6140 C   0  0  0  0  0  1  0  0  0  0  0  0
  196.5650  175.4710  143.6620 C   0  0  0  0  0  2  0  0  0  0  0  0
  197.4690  176.8060  141.9330 O   0  0  0  0  0  1  0  0  0  0  0  0
  196.5430  176.8260  142.9740 C   0  0  0  0  0  2  0  0  0  0  0  0
  188.7670  177.3330  143.6470 O   0  0  0  0  0  0  0  0  0  0  0  0
  187.8470  177.0790  141.4590 C   0  0  0  0  0  1  0  0  0  0  0  0
  188.0140  176.4660  142.8460 C   0  0  1  0  0  3  0  0  0  0  0  0
  188.7590  175.1470  142.7140 C   0  0  0  0  0  2  0  0  0  0  0  0
  189.1120  174.8710  141.2640 C   0  0  0  0  0  2  0  0  0  0  0  0
  188.9450  173.3850  140.9580 C   0  0  1  0  0  3  0  0  0  0  0  0
  189.0930  172.1670  142.9930 O   0  0  0  0  0  1  0  0  0  0  0  0
  186.9880  172.2940  142.1000 O   0  0  0  0  0  0  0  0  0  0  0  0
  188.3440  172.6050  142.0870 C   0  0  0  0  0  0  0  0  0  0  0  0
  188.2240  173.1430  139.6350 C   0  0  0  0  0  2  0  0  0  0  0  0
  188.9870  173.6350  138.4920 N   0  0  0  0  0  2  0  0  0  0  0  0
  190.0950  172.7150  138.2510 C   0  0  1  0  0  3  0  0  0  0  0  0
  189.5830  171.2910  138.3110 C   0  0  0  0  0  1  0  0  0  0  0  0
  190.7810  172.9720  136.9070 C   0  0  2  0  0  3  0  0  0  0  0  0
  189.8020  173.0370  135.7780 C   0  0  0  0  0  0  0  0  0  0  0  0
  189.2460  171.8760  135.2480 O   0  0  0  0  0  0  0  0  0  0  0  0
  189.4440  174.1590  135.3370 O   0  0  0  0  0  1  0  0  0  0  0  0
  191.8170  171.9810  136.6430 N   0  0  0  0  0  2  0  0  0  0  0  0
  193.0920  172.6450  136.8580 C   0  0  0  0  0  2  0  0  0  0  0  0
  193.1940  173.8830  135.9810 C   0  0  0  0  0  2  0  0  0  0  0  0
  193.6050  175.0910  136.8040 C   0  0  0  0  0  2  0  0  0  0  0  0
  193.8470  174.6990  138.2540 C   0  0  0  0  0  2  0  0  0  0  0  0
  196.2520  175.1510  137.9060 F   0  0  0  0  0  0  0  0  0  0  0  0
  195.2780  175.7010  139.8330 O   0  0  0  0  0  0  0  0  0  0  0  0
  195.1620  175.2340  138.7120 C   0  0  0  0  0  0  0  0  0  0  0  0
  1 13  1  6  0  0  0
  1 11  1  0  0  0  0
  2  9  1  0  0  0  0
  2  3  1  1  0  0  0
  4 14  1  0  0  0  0
  5 14  2  0  0  0  0
  6 15  1  6  0  0  0
  6 10  1  0  0  0  0
  6  9  1  0  0  0  0
  7  6  1  0  0  0  0
  7 10  1  0  0  0  0
  8  4  1  0  0  0  0
  9  1  1  0  0  0  0
 10 13  1  0  0  0  0
 12  8  1  0  0  0  0
 12  2  1  0  0  0  0
 14 11  1  0  0  0  0
 17 16  1  0  0  0  0
 18 17  1  0  0  0  0
 18 10  1  0  0  0  0
 18 16  1  0  0  0  0
 19 16  1  0  0  0  0
 20 25  1  0  0  0  0
 21 19  1  0  0  0  0
 21 31  1  0  0  0  0
 22 26  1  0  0  0  0
 22 25  1  0  0  0  0
 23 28  1  0  0  0  0
 24 23  1  0  0  0  0
 25 29  1  0  0  0  0
 26 21  1  0  0  0  0
 27 24  1  0  0  0  0
 29 31  1  0  0  0  0
 29 32  2  0  0  0  0
 30 23  2  0  0  0  0
 31 27  2  0  0  0  0
 32 30  1  0  0  0  0
 33 25  1  0  0  0  0
 34 35  1  0  0  0  0
 34 33  1  0  0  0  0
 35 33  1  0  0  0  0
 36 26  1  0  0  0  0
 37 36  1  0  0  0  0
 38 17  1  0  0  0  0
 39 40  1  0  0  0  0
 40 38  1  0  0  0  0
 41 12  1  0  0  0  0
 42 43  1  0  0  0  0
 43 41  1  0  0  0  0
 44 43  1  0  0  0  0
 45 44  1  0  0  0  0
 46 45  1  0  0  0  0
 46 49  1  0  0  0  0
 49 48  2  0  0  0  0
 49 47  1  0  0  0  0
 50 46  1  0  0  0  0
 51 50  1  0  0  0  0
 52 53  1  0  0  0  0
 52 51  1  0  0  0  0
 54 52  1  0  0  0  0
 55 54  1  0  0  0  0
 56 55  2  0  0  0  0
 57 55  1  0  0  0  0
 58 59  1  0  0  0  0
 58 54  1  0  0  0  0
 60 61  1  0  0  0  0
 60 59  1  0  0  0  0
 61 62  1  0  0  0  0
 62 65  1  0  0  0  0
 63 65  1  0  0  0  0
 65 64  2  0  0  0  0
M  END
>  <MODEL>
6

>  <REMARK>
 VINA RESULT:      -4.9      3.003      5.528
  Name = 
  24 active torsions:
  status: ('A' for Active; 'I' for Inactive)
    1  A    between atoms: C_1  and  C_19
    2  A    between atoms: C_2  and  C_48
    3  A    between atoms: C_2  and  C_56
    4  A    between atoms: C_4  and  C_57
    5  A    between atoms: C_11  and  CA_55
    6  A    between atoms: O_15  and  C_29
    7  A    between atoms: N_18  and  C_57
    8  A    between atoms: C_22  and  C_53
    9  A    between atoms: C_22  and  C_58
   10  A    between atoms: C_25  and  N_34
   11  A    between atoms: C_25  and  CA_55
   12  A    between atoms: C_27  and  C_47
   13  A    between atoms: C_27  and  C_48
   14  A    between atoms: C_27  and  C_50
   15  A    between atoms: O_28  and  C_44
   16  A    between atoms: O_28  and  C_56
   17  A    between atoms: C_32  and  C_45
   18  A    between atoms: N_34  and  C_47
   19  A    between atoms: C_36  and  C_42
   20  A    between atoms: C_45  and  C_65
   21  A    between atoms: C_46  and  N_59
   22  A    between atoms: C_46  and  C_60
   23  A    between atoms: C_53  and  C_60
   24  A    between atoms: CA_55  and  N_59
                            x       y       z     vdW  Elec       q    Type
                         _______ _______ _______ _____ _____    ______ ____

>  <TORSDO>
F 24

$$$$
=
 OpenBabel11072408413D

 65 71  0  0  1  0  0  0  0  0999 V2000
  187.3730  176.7290  142.6150 C   0  0  1  0  0  3  0  0  0  0  0  0
  188.3610  175.4180  144.7570 C   0  0  1  0  0  3  0  0  0  0  0  0
  187.6930  176.3100  145.7910 C   0  0  0  0  0  1  0  0  0  0  0  0
  189.9410  178.0560  144.7380 C   0  0  0  0  0  2  0  0  0  0  0  0
  190.1730  178.1580  142.3910 O   0  0  0  0  0  0  0  0  0  0  0  0
  188.3400  174.4680  142.3680 C   0  0  1  0  0  0  0  0  0  0  0  0
  189.5800  174.8780  141.5890 C   0  0  0  0  0  2  0  0  0  0  0  0
  190.6160  176.7490  145.1380 C   0  0  0  0  0  2  0  0  0  0  0  0
  187.6800  175.4100  143.3680 C   0  0  2  0  0  3  0  0  0  0  0  0
  188.1970  175.0990  141.0060 C   0  0  2  0  0  0  0  0  0  0  0  0
  187.9360  178.0430  143.1570 C   0  0  0  0  0  2  0  0  0  0  0  0
  189.9030  175.4530  144.7080 C   0  0  1  0  0  3  0  0  0  0  0  0
  187.7100  176.5340  141.1390 C   0  0  0  0  0  2  0  0  0  0  0  0
  189.4180  178.0490  143.3450 C   0  0  0  0  0  0  0  0  0  0  0  0
  188.0540  173.1000  142.4280 O   0  0  0  0  0  1  0  0  0  0  0  0
  189.2920  174.0490  139.0690 N   0  0  0  0  0  0  0  0  0  0  0  0
  188.3190  175.0470  138.5100 C   0  0  2  0  0  3  0  0  0  0  0  0
  187.9800  174.2870  139.7280 C   0  0  2  0  0  3  0  0  0  0  0  0
  189.2750  172.7520  138.3690 C   0  0  0  0  0  2  0  0  0  0  0  0
  194.2100  170.8130  136.2300 O   0  0  0  0  0  1  0  0  0  0  0  0
  190.6700  172.2440  137.9600 C   0  0  1  0  0  3  0  0  0  0  0  0
  191.9690  170.3250  136.8430 C   0  0  0  0  0  2  0  0  0  0  0  0
  192.7910  175.6710  135.9170 C   0  0  0  0  0  0  0  0  0  0  0  0
  191.6060  174.9630  135.3540 C   0  0  0  0  0  2  0  0  0  0  0  0
  193.1930  171.2320  137.1010 C   0  0  2  0  0  0  0  0  0  0  0  0
  190.5940  170.8540  137.3240 C   0  0  1  0  0  3  0  0  0  0  0  0
  190.9020  174.1610  136.4000 C   0  0  0  0  0  3  0  0  0  0  0  0
  192.8740  177.0860  135.7870 N   0  0  0  0  0  1  0  0  0  0  0  0
  192.8710  172.6900  136.8220 C   0  0  0  0  0  0  0  0  0  0  0  0
  193.8360  175.0090  136.4110 C   0  0  0  0  0  3  0  0  0  0  0  0
  191.4710  173.1460  137.0580 C   0  0  0  0  0  0  0  0  0  0  0  0
  193.8940  173.5450  136.6160 C   0  0  0  0  0  3  0  0  0  0  0  0
  193.6040  171.0990  138.5840 C   0  0  0  0  0  3  0  0  0  0  0  0
  193.6670  169.6440  139.0170 C   0  0  0  0  0  2  0  0  0  0  0  0
  194.9570  170.4170  138.7690 C   0  0  0  0  0  2  0  0  0  0  0  0
  189.9990  169.9370  138.2050 O   0  0  0  0  0  0  0  0  0  0  0  0
  190.3800  168.6890  137.7030 C   0  0  0  0  0  1  0  0  0  0  0  0
  187.5160  174.5640  137.2910 C   0  0  0  0  0  2  0  0  0  0  0  0
  187.6200  175.6600  135.1990 O   0  0  0  0  0  1  0  0  0  0  0  0
  187.0030  175.7190  136.4460 C   0  0  0  0  0  2  0  0  0  0  0  0
  190.4340  174.3750  145.4310 O   0  0  0  0  0  0  0  0  0  0  0  0
  192.7040  173.7390  145.8070 C   0  0  0  0  0  1  0  0  0  0  0  0
  191.6160  174.0090  144.7740 C   0  0  1  0  0  3  0  0  0  0  0  0
  191.3630  172.7360  143.9820 C   0  0  0  0  0  2  0  0  0  0  0  0
  192.4670  171.7230  144.2240 C   0  0  0  0  0  2  0  0  0  0  0  0
  193.4320  171.7060  143.0420 C   0  0  1  0  0  3  0  0  0  0  0  0
  193.3170  169.3330  143.0800 O   0  0  0  0  0  1  0  0  0  0  0  0
  195.2210  170.1880  142.1360 O   0  0  0  0  0  0  0  0  0  0  0  0
  193.9720  170.3440  142.7310 C   0  0  0  0  0  0  0  0  0  0  0  0
  192.8530  172.3980  141.8120 C   0  0  0  0  0  2  0  0  0  0  0  0
  193.3170  173.7760  141.6830 N   0  0  0  0  0  2  0  0  0  0  0  0
  194.7770  173.7690  141.6750 C   0  0  1  0  0  3  0  0  0  0  0  0
  195.2690  174.0100  140.2630 C   0  0  0  0  0  1  0  0  0  0  0  0
  195.3690  174.8140  142.6240 C   0  0  2  0  0  3  0  0  0  0  0  0
  195.8490  176.0290  141.8970 C   0  0  0  0  0  0  0  0  0  0  0  0
  197.2090  176.3020  141.7830 O   0  0  0  0  0  1  0  0  0  0  0  0
  195.0100  176.7850  141.3420 O   0  0  0  0  0  0  0  0  0  0  0  0
  196.4300  174.2440  143.4460 N   0  0  0  0  0  2  0  0  0  0  0  0
  195.9780  174.3270  144.8240 C   0  0  0  0  0  2  0  0  0  0  0  0
  196.6740  173.2720  145.6700 C   0  0  0  0  0  2  0  0  0  0  0  0
  197.5840  172.4100  144.8120 C   0  0  0  0  0  2  0  0  0  0  0  0
  197.0100  171.0100  144.6570 C   0  0  0  0  0  2  0  0  0  0  0  0
  195.0740  170.9590  146.1940 F   0  0  0  0  0  0  0  0  0  0  0  0
  196.9780  169.9480  146.7600 O   0  0  0  0  0  0  0  0  0  0  0  0
  196.3530  170.5870  145.9280 C   0  0  0  0  0  0  0  0  0  0  0  0
  1 13  1  6  0  0  0
  1 11  1  0  0  0  0
  1  9  1  0  0  0  0
  2  3  1  1  0  0  0
  4  8  1  0  0  0  0
  5 14  2  0  0  0  0
  6 15  1  1  0  0  0
  6  9  1  0  0  0  0
  7  6  1  0  0  0  0
  9  2  1  0  0  0  0
 10 13  1  0  0  0  0
 10  7  1  0  0  0  0
 10  6  1  0  0  0  0
 11 14  1  0  0  0  0
 12  2  1  0  0  0  0
 12  8  1  0  0  0  0
 12 41  1  0  0  0  0
 14  4  1  0  0  0  0
 16 18  1  0  0  0  0
 17 16  1  0  0  0  0
 17 18  1  0  0  0  0
 18 10  1  0  0  0  0
 19 16  1  0  0  0  0
 20 25  1  0  0  0  0
 21 19  1  0  0  0  0
 22 25  1  0  0  0  0
 22 26  1  0  0  0  0
 23 30  2  0  0  0  0
 24 23  1  0  0  0  0
 24 27  1  0  0  0  0
 25 33  1  0  0  0  0
 26 21  1  0  0  0  0
 26 36  1  0  0  0  0
 27 31  2  0  0  0  0
 28 23  1  0  0  0  0
 29 31  1  0  0  0  0
 29 25  1  0  0  0  0
 30 32  1  0  0  0  0
 31 21  1  0  0  0  0
 32 29  2  0  0  0  0
 33 35  1  0  0  0  0
 33 34  1  0  0  0  0
 35 34  1  0  0  0  0
 37 36  1  0  0  0  0
 38 17  1  0  0  0  0
 39 40  1  0  0  0  0
 40 38  1  0  0  0  0
 43 41  1  0  0  0  0
 43 42  1  0  0  0  0
 44 45  1  0  0  0  0
 44 43  1  0  0  0  0
 46 45  1  0  0  0  0
 48 49  2  0  0  0  0
 49 46  1  0  0  0  0
 49 47  1  0  0  0  0
 50 46  1  0  0  0  0
 51 50  1  0  0  0  0
 52 51  1  0  0  0  0
 52 54  1  0  0  0  0
 53 52  1  0  0  0  0
 54 58  1  0  0  0  0
 55 54  1  0  0  0  0
 56 55  1  0  0  0  0
 57 55  2  0  0  0  0
 58 59  1  0  0  0  0
 59 60  1  0  0  0  0
 61 60  1  0  0  0  0
 62 61  1  0  0  0  0
 62 65  1  0  0  0  0
 65 63  1  0  0  0  0
 65 64  2  0  0  0  0
M  END
>  <MODEL>
7

>  <REMARK>
 VINA RESULT:      -4.6      3.406      8.680
  Name = 
  24 active torsions:
  status: ('A' for Active; 'I' for Inactive)
    1  A    between atoms: C_1  and  C_19
    2  A    between atoms: C_2  and  C_48
    3  A    between atoms: C_2  and  C_56
    4  A    between atoms: C_4  and  C_57
    5  A    between atoms: C_11  and  CA_55
    6  A    between atoms: O_15  and  C_29
    7  A    between atoms: N_18  and  C_57
    8  A    between atoms: C_22  and  C_53
    9  A    between atoms: C_22  and  C_58
   10  A    between atoms: C_25  and  N_34
   11  A    between atoms: C_25  and  CA_55
   12  A    between atoms: C_27  and  C_47
   13  A    between atoms: C_27  and  C_48
   14  A    between atoms: C_27  and  C_50
   15  A    between atoms: O_28  and  C_44
   16  A    between atoms: O_28  and  C_56
   17  A    between atoms: C_32  and  C_45
   18  A    between atoms: N_34  and  C_47
   19  A    between atoms: C_36  and  C_42
   20  A    between atoms: C_45  and  C_65
   21  A    between atoms: C_46  and  N_59
   22  A    between atoms: C_46  and  C_60
   23  A    between atoms: C_53  and  C_60
   24  A    between atoms: CA_55  and  N_59
                            x       y       z     vdW  Elec       q    Type
                         _______ _______ _______ _____ _____    ______ ____

>  <TORSDO>
F 24

$$$$
=
 OpenBabel11072408413D

 65 71  0  0  1  0  0  0  0  0999 V2000
  187.6850  176.5590  142.9070 C   0  0  1  0  0  3  0  0  0  0  0  0
  188.9440  175.0070  144.7220 C   0  0  1  0  0  3  0  0  0  0  0  0
  188.4730  175.7940  145.9350 C   0  0  0  0  0  1  0  0  0  0  0  0
  190.5920  177.6040  144.7310 C   0  0  0  0  0  2  0  0  0  0  0  0
  190.4650  177.9530  142.4000 O   0  0  0  0  0  0  0  0  0  0  0  0
  188.5260  174.3200  142.2810 C   0  0  1  0  0  0  0  0  0  0  0  0
  189.6460  174.7890  141.3650 C   0  0  0  0  0  2  0  0  0  0  0  0
  191.2750  176.2500  144.8840 C   0  0  0  0  0  2  0  0  0  0  0  0
  188.0590  175.1600  143.4630 C   0  0  2  0  0  3  0  0  0  0  0  0
  188.1980  175.0960  141.0300 C   0  0  2  0  0  0  0  0  0  0  0  0
  188.3690  177.7960  143.4890 C   0  0  0  0  0  2  0  0  0  0  0  0
  190.4610  175.0200  144.4380 C   0  0  1  0  0  3  0  0  0  0  0  0
  187.7860  176.5170  141.3850 C   0  0  0  0  0  2  0  0  0  0  0  0
  189.8620  177.7560  143.4430 C   0  0  0  0  0  0  0  0  0  0  0  0
  188.2050  172.9590  142.2430 O   0  0  0  0  0  1  0  0  0  0  0  0
  188.9640  173.9780  138.9770 N   0  0  0  0  0  0  0  0  0  0  0  0
  188.1890  175.1850  138.5330 C   0  0  2  0  0  3  0  0  0  0  0  0
  187.7600  174.4300  139.7240 C   0  0  2  0  0  3  0  0  0  0  0  0
  188.6510  172.7600  138.2090 C   0  0  0  0  0  2  0  0  0  0  0  0
  193.6180  170.4150  136.6230 O   0  0  0  0  0  1  0  0  0  0  0  0
  189.8910  172.0210  137.6760 C   0  0  1  0  0  3  0  0  0  0  0  0
  192.1710  172.2940  136.5150 C   0  0  0  0  0  2  0  0  0  0  0  0
  191.2000  169.1270  140.8900 C   0  0  0  0  0  0  0  0  0  0  0  0
  191.2820  170.6100  141.0130 C   0  0  0  0  0  2  0  0  0  0  0  0
  192.2620  170.7640  136.7120 C   0  0  2  0  0  0  0  0  0  0  0  0
  190.8780  172.9860  137.0160 C   0  0  1  0  0  3  0  0  0  0  0  0
  190.4380  171.2900  139.9850 C   0  0  0  0  0  3  0  0  0  0  0  0
  190.7860  168.3640  142.0170 N   0  0  0  0  0  1  0  0  0  0  0  0
  191.7310  170.3470  138.0720 C   0  0  0  0  0  0  0  0  0  0  0  0
  191.6360  168.4870  139.8060 C   0  0  0  0  0  3  0  0  0  0  0  0
  190.6390  171.1690  138.6690 C   0  0  0  0  0  0  0  0  0  0  0  0
  192.0880  169.1400  138.5580 C   0  0  0  0  0  3  0  0  0  0  0  0
  191.4100  170.0740  135.6230 C   0  0  0  0  0  3  0  0  0  0  0  0
  192.2780  169.5030  134.5140 C   0  0  0  0  0  2  0  0  0  0  0  0
  191.6520  168.5690  135.5420 C   0  0  0  0  0  2  0  0  0  0  0  0
  190.2610  173.6860  135.9670 O   0  0  0  0  0  0  0  0  0  0  0  0
  191.3310  174.2110  135.2350 C   0  0  0  0  0  1  0  0  0  0  0  0
  187.2490  174.9540  137.3380 C   0  0  0  0  0  2  0  0  0  0  0  0
  186.0930  176.4020  135.8700 O   0  0  0  0  0  1  0  0  0  0  0  0
  187.3730  176.0480  136.2890 C   0  0  0  0  0  2  0  0  0  0  0  0
  191.0600  173.8610  144.9540 O   0  0  0  0  0  0  0  0  0  0  0  0
  192.5640  174.0940  143.1150 C   0  0  0  0  0  1  0  0  0  0  0  0
  191.5950  173.1770  143.8550 C   0  0  1  0  0  3  0  0  0  0  0  0
  192.3560  171.9610  144.3590 C   0  0  0  0  0  2  0  0  0  0  0  0
  193.7160  172.3630  144.9000 C   0  0  0  0  0  2  0  0  0  0  0  0
  194.7750  171.3550  144.4610 C   0  0  1  0  0  3  0  0  0  0  0  0
  194.6910  170.0360  146.4370 O   0  0  0  0  0  1  0  0  0  0  0  0
  196.7960  170.6730  145.7940 O   0  0  0  0  0  0  0  0  0  0  0  0
  195.4180  170.6280  145.6030 C   0  0  0  0  0  0  0  0  0  0  0  0
  194.2580  170.4040  143.3850 C   0  0  0  0  0  2  0  0  0  0  0  0
  194.5000  170.9130  142.0380 N   0  0  0  0  0  2  0  0  0  0  0  0
  195.8360  171.5010  142.0030 C   0  0  1  0  0  3  0  0  0  0  0  0
  196.8210  170.4700  141.4940 C   0  0  0  0  0  1  0  0  0  0  0  0
  195.8940  172.7590  141.1330 C   0  0  2  0  0  3  0  0  0  0  0  0
  195.8400  172.4380  139.6730 C   0  0  0  0  0  0  0  0  0  0  0  0
  196.9830  172.5170  138.8830 O   0  0  0  0  0  0  0  0  0  0  0  0
  194.7570  172.0460  139.1680 O   0  0  0  0  0  1  0  0  0  0  0  0
  197.0660  173.5680  141.4470 N   0  0  0  0  0  2  0  0  0  0  0  0
  197.0140  173.8380  142.8730 C   0  0  0  0  0  2  0  0  0  0  0  0
  195.9370  174.8680  143.1750 C   0  0  0  0  0  2  0  0  0  0  0  0
  196.3180  175.7060  144.3830 C   0  0  0  0  0  2  0  0  0  0  0  0
  195.6930  175.1390  145.6490 C   0  0  0  0  0  2  0  0  0  0  0  0
  194.7320  177.3990  145.9370 F   0  0  0  0  0  0  0  0  0  0  0  0
  193.6890  175.6240  146.7890 O   0  0  0  0  0  0  0  0  0  0  0  0
  194.6300  176.0610  146.1470 C   0  0  0  0  0  0  0  0  0  0  0  0
  1 13  1  6  0  0  0
  1  9  1  0  0  0  0
  1 11  1  0  0  0  0
  2  3  1  1  0  0  0
  4  8  1  0  0  0  0
  5 14  2  0  0  0  0
  6 15  1  1  0  0  0
  6  9  1  0  0  0  0
  7  6  1  0  0  0  0
  9  2  1  0  0  0  0
 10  7  1  0  0  0  0
 10 13  1  0  0  0  0
 10  6  1  0  0  0  0
 12  2  1  0  0  0  0
 12  8  1  0  0  0  0
 12 41  1  0  0  0  0
 14 11  1  0  0  0  0
 14  4  1  0  0  0  0
 16 18  1  0  0  0  0
 17 16  1  0  0  0  0
 17 18  1  0  0  0  0
 18 10  1  0  0  0  0
 19 16  1  0  0  0  0
 20 25  1  0  0  0  0
 21 19  1  0  0  0  0
 21 31  1  0  0  0  0
 22 25  1  0  0  0  0
 22 26  1  0  0  0  0
 23 24  1  0  0  0  0
 23 28  1  0  0  0  0
 25 29  1  0  0  0  0
 26 21  1  0  0  0  0
 27 24  1  0  0  0  0
 29 32  2  0  0  0  0
 29 31  1  0  0  0  0
 30 23  2  0  0  0  0
 31 27  2  0  0  0  0
 32 30  1  0  0  0  0
 33 25  1  0  0  0  0
 34 35  1  0  0  0  0
 34 33  1  0  0  0  0
 35 33  1  0  0  0  0
 36 26  1  0  0  0  0
 37 36  1  0  0  0  0
 38 17  1  0  0  0  0
 39 40  1  0  0  0  0
 40 38  1  0  0  0  0
 42 43  1  0  0  0  0
 43 44  1  0  0  0  0
 43 41  1  0  0  0  0
 44 45  1  0  0  0  0
 46 45  1  0  0  0  0
 46 49  1  0  0  0  0
 49 48  2  0  0  0  0
 49 47  1  0  0  0  0
 50 46  1  0  0  0  0
 51 50  1  0  0  0  0
 52 51  1  0  0  0  0
 53 52  1  0  0  0  0
 54 58  1  0  0  0  0
 54 52  1  0  0  0  0
 55 54  1  0  0  0  0
 56 55  2  0  0  0  0
 57 55  1  0  0  0  0
 58 59  1  0  0  0  0
 59 60  1  0  0  0  0
 60 61  1  0  0  0  0
 61 62  1  0  0  0  0
 62 65  1  0  0  0  0
 63 65  1  0  0  0  0
 65 64  2  0  0  0  0
M  END
>  <MODEL>
8

>  <REMARK>
 VINA RESULT:      -4.6      3.164      8.317
  Name = 
  24 active torsions:
  status: ('A' for Active; 'I' for Inactive)
    1  A    between atoms: C_1  and  C_19
    2  A    between atoms: C_2  and  C_48
    3  A    between atoms: C_2  and  C_56
    4  A    between atoms: C_4  and  C_57
    5  A    between atoms: C_11  and  CA_55
    6  A    between atoms: O_15  and  C_29
    7  A    between atoms: N_18  and  C_57
    8  A    between atoms: C_22  and  C_53
    9  A    between atoms: C_22  and  C_58
   10  A    between atoms: C_25  and  N_34
   11  A    between atoms: C_25  and  CA_55
   12  A    between atoms: C_27  and  C_47
   13  A    between atoms: C_27  and  C_48
   14  A    between atoms: C_27  and  C_50
   15  A    between atoms: O_28  and  C_44
   16  A    between atoms: O_28  and  C_56
   17  A    between atoms: C_32  and  C_45
   18  A    between atoms: N_34  and  C_47
   19  A    between atoms: C_36  and  C_42
   20  A    between atoms: C_45  and  C_65
   21  A    between atoms: C_46  and  N_59
   22  A    between atoms: C_46  and  C_60
   23  A    between atoms: C_53  and  C_60
   24  A    between atoms: CA_55  and  N_59
                            x       y       z     vdW  Elec       q    Type
                         _______ _______ _______ _____ _____    ______ ____

>  <TORSDO>
F 24

$$$$
=
 OpenBabel11072408413D

 65 71  0  0  1  0  0  0  0  0999 V2000
  187.0610  176.8470  142.3300 C   0  0  1  0  0  3  0  0  0  0  0  0
  187.9030  175.4150  144.4570 C   0  0  1  0  0  3  0  0  0  0  0  0
  187.2130  176.2850  145.4970 C   0  0  0  0  0  1  0  0  0  0  0  0
  189.5630  177.9980  144.6270 C   0  0  0  0  0  2  0  0  0  0  0  0
  189.9120  178.1890  142.3000 O   0  0  0  0  0  0  0  0  0  0  0  0
  187.9670  174.5670  142.0320 C   0  0  1  0  0  0  0  0  0  0  0  0
  189.2560  174.9670  141.3300 C   0  0  0  0  0  2  0  0  0  0  0  0
  190.1770  176.6530  145.0020 C   0  0  0  0  0  2  0  0  0  0  0  0
  187.2900  175.4880  143.0390 C   0  0  2  0  0  3  0  0  0  0  0  0
  187.9100  175.2580  140.6920 C   0  0  2  0  0  0  0  0  0  0  0  0
  187.6380  178.1180  142.9550 C   0  0  0  0  0  2  0  0  0  0  0  0
  189.4460  175.4000  144.4830 C   0  0  1  0  0  3  0  0  0  0  0  0
  187.4620  176.7020  140.8650 C   0  0  0  0  0  2  0  0  0  0  0  0
  189.1090  178.0660  143.2120 C   0  0  0  0  0  0  0  0  0  0  0  0
  187.6360  173.2080  142.0180 O   0  0  0  0  0  1  0  0  0  0  0  0
  189.0670  174.2150  138.7880 N   0  0  0  0  0  0  0  0  0  0  0  0
  188.1920  175.2900  138.2100 C   0  0  2  0  0  3  0  0  0  0  0  0
  187.7300  174.5080  139.3720 C   0  0  2  0  0  3  0  0  0  0  0  0
  189.0190  172.9480  138.0370 C   0  0  0  0  0  2  0  0  0  0  0  0
  193.9300  170.6220  136.2580 O   0  0  0  0  0  1  0  0  0  0  0  0
  190.4050  172.3550  137.7230 C   0  0  1  0  0  3  0  0  0  0  0  0
  191.6660  170.2760  136.8820 C   0  0  0  0  0  2  0  0  0  0  0  0
  192.6600  175.4400  135.3110 C   0  0  0  0  0  0  0  0  0  0  0  0
  191.4640  174.6990  134.8170 C   0  0  0  0  0  2  0  0  0  0  0  0
  192.9120  171.1750  137.0490 C   0  0  2  0  0  0  0  0  0  0  0  0
  190.2990  170.8990  137.2650 C   0  0  1  0  0  3  0  0  0  0  0  0
  190.7200  174.0540  135.9400 C   0  0  0  0  0  3  0  0  0  0  0  0
  192.7870  176.8240  135.0080 N   0  0  0  0  0  1  0  0  0  0  0  0
  192.6370  172.5950  136.5840 C   0  0  0  0  0  0  0  0  0  0  0  0
  193.6760  174.8160  135.9050 C   0  0  0  0  0  3  0  0  0  0  0  0
  191.2470  173.1140  136.7320 C   0  0  0  0  0  0  0  0  0  0  0  0
  193.6890  173.3890  136.2930 C   0  0  0  0  0  3  0  0  0  0  0  0
  193.2930  171.2180  138.5460 C   0  0  0  0  0  3  0  0  0  0  0  0
  193.6730  169.8410  139.0640 C   0  0  0  0  0  2  0  0  0  0  0  0
  194.7590  170.8760  138.7960 C   0  0  0  0  0  2  0  0  0  0  0  0
  189.6630  170.1160  138.2410 O   0  0  0  0  0  0  0  0  0  0  0  0
  190.2580  168.8580  138.1070 C   0  0  0  0  0  1  0  0  0  0  0  0
  187.4440  174.9010  136.9240 C   0  0  0  0  0  2  0  0  0  0  0  0
  186.0760  176.2150  135.5130 O   0  0  0  0  0  1  0  0  0  0  0  0
  187.3970  176.0420  135.9190 C   0  0  0  0  0  2  0  0  0  0  0  0
  189.9070  174.2760  145.1830 O   0  0  0  0  0  0  0  0  0  0  0  0
  192.1390  173.6620  145.7620 C   0  0  0  0  0  1  0  0  0  0  0  0
  191.1580  173.9630  144.6350 C   0  0  1  0  0  3  0  0  0  0  0  0
  191.0150  172.7250  143.7630 C   0  0  0  0  0  2  0  0  0  0  0  0
  192.0880  171.7050  144.0980 C   0  0  0  0  0  2  0  0  0  0  0  0
  193.2790  171.8690  143.1570 C   0  0  1  0  0  3  0  0  0  0  0  0
  193.3760  169.4940  143.1000 O   0  0  0  0  0  1  0  0  0  0  0  0
  195.2120  170.5530  142.2310 O   0  0  0  0  0  0  0  0  0  0  0  0
  193.9440  170.5740  142.8040 C   0  0  0  0  0  0  0  0  0  0  0  0
  192.9330  172.6990  141.9240 C   0  0  0  0  0  2  0  0  0  0  0  0
  193.6340  173.9790  141.9070 N   0  0  0  0  0  2  0  0  0  0  0  0
  194.5430  173.9880  140.7650 C   0  0  1  0  0  3  0  0  0  0  0  0
  193.9480  174.8360  139.6600 C   0  0  0  0  0  1  0  0  0  0  0  0
  195.9350  174.5070  141.1340 C   0  0  2  0  0  3  0  0  0  0  0  0
  196.8500  174.5570  139.9520 C   0  0  0  0  0  0  0  0  0  0  0  0
  197.1260  173.4100  139.2140 O   0  0  0  0  0  0  0  0  0  0  0  0
  197.3360  175.6620  139.5970 O   0  0  0  0  0  1  0  0  0  0  0  0
  196.5220  173.7260  142.2160 N   0  0  0  0  0  2  0  0  0  0  0  0
  197.2300  174.6650  143.0700 C   0  0  0  0  0  2  0  0  0  0  0  0
  196.3340  175.8460  143.4090 C   0  0  0  0  0  2  0  0  0  0  0  0
  195.6780  175.6510  144.7650 C   0  0  0  0  0  2  0  0  0  0  0  0
  195.3190  176.9920  145.3870 C   0  0  0  0  0  2  0  0  0  0  0  0
  193.0200  177.5050  144.6370 F   0  0  0  0  0  0  0  0  0  0  0  0
  193.3830  176.7780  146.7130 O   0  0  0  0  0  0  0  0  0  0  0  0
  193.8470  177.0650  145.6200 C   0  0  0  0  0  0  0  0  0  0  0  0
  1 13  1  6  0  0  0
  1 11  1  0  0  0  0
  1  9  1  0  0  0  0
  2 12  1  0  0  0  0
  2  3  1  1  0  0  0
  4  8  1  0  0  0  0
  5 14  2  0  0  0  0
  6 15  1  1  0  0  0
  6  9  1  0  0  0  0
  7  6  1  0  0  0  0
  9  2  1  0  0  0  0
 10 13  1  0  0  0  0
 10  7  1  0  0  0  0
 10  6  1  0  0  0  0
 11 14  1  0  0  0  0
 12  8  1  0  0  0  0
 12 41  1  0  0  0  0
 14  4  1  0  0  0  0
 16 18  1  0  0  0  0
 17 16  1  0  0  0  0
 17 18  1  0  0  0  0
 18 10  1  0  0  0  0
 19 16  1  0  0  0  0
 20 25  1  0  0  0  0
 21 19  1  0  0  0  0
 22 25  1  0  0  0  0
 22 26  1  0  0  0  0
 23 30  2  0  0  0  0
 24 23  1  0  0  0  0
 24 27  1  0  0  0  0
 25 33  1  0  0  0  0
 26 21  1  0  0  0  0
 26 36  1  0  0  0  0
 27 31  2  0  0  0  0
 28 23  1  0  0  0  0
 29 31  1  0  0  0  0
 29 25  1  0  0  0  0
 30 32  1  0  0  0  0
 31 21  1  0  0  0  0
 32 29  2  0  0  0  0
 33 35  1  0  0  0  0
 33 34  1  0  0  0  0
 35 34  1  0  0  0  0
 37 36  1  0  0  0  0
 38 17  1  0  0  0  0
 39 40  1  0  0  0  0
 40 38  1  0  0  0  0
 43 41  1  0  0  0  0
 43 42  1  0  0  0  0
 44 45  1  0  0  0  0
 44 43  1  0  0  0  0
 46 45  1  0  0  0  0
 48 49  2  0  0  0  0
 49 47  1  0  0  0  0
 49 46  1  0  0  0  0
 50 46  1  0  0  0  0
 51 50  1  0  0  0  0
 52 54  1  0  0  0  0
 52 51  1  0  0  0  0
 53 52  1  0  0  0  0
 54 58  1  0  0  0  0
 55 54  1  0  0  0  0
 56 55  2  0  0  0  0
 57 55  1  0  0  0  0
 58 59  1  0  0  0  0
 59 60  1  0  0  0  0
 60 61  1  0  0  0  0
 61 62  1  0  0  0  0
 62 65  1  0  0  0  0
 63 65  1  0  0  0  0
 65 64  2  0  0  0  0
M  END
>  <MODEL>
9

>  <REMARK>
 VINA RESULT:      -4.5      3.247      8.523
  Name = 
  24 active torsions:
  status: ('A' for Active; 'I' for Inactive)
    1  A    between atoms: C_1  and  C_19
    2  A    between atoms: C_2  and  C_48
    3  A    between atoms: C_2  and  C_56
    4  A    between atoms: C_4  and  C_57
    5  A    between atoms: C_11  and  CA_55
    6  A    between atoms: O_15  and  C_29
    7  A    between atoms: N_18  and  C_57
    8  A    between atoms: C_22  and  C_53
    9  A    between atoms: C_22  and  C_58
   10  A    between atoms: C_25  and  N_34
   11  A    between atoms: C_25  and  CA_55
   12  A    between atoms: C_27  and  C_47
   13  A    between atoms: C_27  and  C_48
   14  A    between atoms: C_27  and  C_50
   15  A    between atoms: O_28  and  C_44
   16  A    between atoms: O_28  and  C_56
   17  A    between atoms: C_32  and  C_45
   18  A    between atoms: N_34  and  C_47
   19  A    between atoms: C_36  and  C_42
   20  A    between atoms: C_45  and  C_65
   21  A    between atoms: C_46  and  N_59
   22  A    between atoms: C_46  and  C_60
   23  A    between atoms: C_53  and  C_60
   24  A    between atoms: CA_55  and  N_59
                            x       y       z     vdW  Elec       q    Type
                         _______ _______ _______ _____ _____    ______ ____

>  <TORSDO>
F 24

$$$$
