=
 OpenBabel11072408393D

 47 52  0  0  1  0  0  0  0  0999 V2000
  191.2840  173.3540  141.2280 N   0  0  0  0  0  0  0  0  0  0  0  0
  194.7130  175.0000  142.6650 C   0  0  0  0  0  0  0  0  0  0  0  0
  192.2230  175.5140  142.3130 N   0  0  0  0  0  0  0  0  0  0  0  0
  195.8820  175.3980  142.9060 O   0  0  0  0  0  0  0  0  0  0  0  0
  189.1870  174.3450  141.1960 O   0  0  0  0  0  0  0  0  0  0  0  0
  194.5260  173.6590  142.1440 N   0  0  0  0  0  0  0  0  0  0  0  0
  189.9100  173.3830  140.8280 C   0  0  0  0  0  0  0  0  0  0  0  0
  193.5090  175.9770  142.9040 C   0  0  1  0  0  3  0  0  0  0  0  0
  193.3230  173.4060  141.7790 C   0  0  0  0  0  0  0  0  0  0  0  0
  192.4070  172.4600  141.2020 C   0  0  1  0  0  3  0  0  0  0  0  0
  192.1960  174.3160  141.8460 C   0  0  0  0  0  0  0  0  0  0  0  0
  192.6510  168.7090  143.0310 C   0  0  0  0  0  2  0  0  0  0  0  0
  191.9140  169.9760  141.2940 C   0  0  0  0  0  2  0  0  0  0  0  0
  192.1710  171.2470  142.1180 C   0  0  1  0  0  3  0  0  0  0  0  0
  193.2510  171.0400  143.0060 O   0  0  0  0  0  0  0  0  0  0  0  0
  191.5680  168.9150  142.1550 O   0  0  0  0  0  0  0  0  0  0  0  0
  192.8950  169.9770  143.8600 C   0  0  0  0  0  2  0  0  0  0  0  0
  188.2530  172.8860  138.9730 C   0  0  0  0  0  2  0  0  0  0  0  0
  189.3100  172.3440  139.9130 C   0  0  1  0  0  3  0  0  0  0  0  0
  189.6350  172.5850  138.4320 C   0  0  2  0  0  3  0  0  0  0  0  0
  190.3210  173.7880  138.2180 O   0  0  0  0  0  0  0  0  0  0  0  0
  190.7910  173.7680  136.5870 P   0  0  0  0  0  0  0  0  0  0  0  0
  189.4280  173.6290  135.5940 O   0  0  0  0  0  0  0  0  0  0  0  0
  191.7250  172.6060  136.3330 O   0  0  0  0  0  1  0  0  0  0  0  0
  191.5920  175.2120  136.2260 O   0  0  0  0  0  1  0  0  0  0  0  0
  193.3230  176.2910  144.4020 C   0  0  1  0  0  3  0  0  0  0  0  0
  194.1510  177.3580  144.7650 O   0  0  0  0  0  1  0  0  0  0  0  0
  191.8650  176.6370  144.7400 C   0  0  1  0  0  3  0  0  0  0  0  0
  191.2630  175.7650  147.0420 C   0  0  0  0  0  0  0  0  0  0  0  0
  191.7050  176.8140  146.1780 N   0  0  0  0  0  2  0  0  0  0  0  0
  191.1320  175.9920  148.2720 O   0  0  0  0  0  0  0  0  0  0  0  0
  190.9690  174.4000  146.5110 C   0  0  0  0  0  2  0  0  0  0  0  0
  189.5820  174.3690  145.8990 C   0  0  0  0  0  2  0  0  0  0  0  0
  189.6170  173.6050  144.6210 C   0  0  0  0  0  3  0  0  0  0  0  0
  189.7720  172.2860  144.6440 C   0  0  0  0  0  2  0  0  0  0  0  0
  191.4370  177.9230  144.0430 C   0  0  0  0  0  2  0  0  0  0  0  0
  189.0550  177.8030  144.5810 N   0  0  0  0  0  0  0  0  0  0  0  0
  190.0280  177.8610  143.6900 N   0  0  0  0  0  0  0  0  0  0  0  0
  187.9210  177.7820  143.8600 C   0  0  0  0  0  0  0  0  0  0  0  0
  189.5780  177.8770  142.4460 N   0  0  0  0  0  0  0  0  0  0  0  0
  188.2330  177.8220  142.5140 C   0  0  0  0  0  3  0  0  0  0  0  0
  184.6050  178.2150  146.5640 C   0  0  0  0  0  2  0  0  0  0  0  0
  186.5480  177.6830  144.4340 C   0  0  0  0  0  3  0  0  0  0  0  0
  184.5550  178.9720  145.2400 C   0  0  0  0  0  2  0  0  0  0  0  0
  185.9540  179.0770  144.6420 C   0  0  0  0  0  2  0  0  0  0  0  0
  186.5850  176.9150  145.7540 C   0  0  0  0  0  2  0  0  0  0  0  0
  185.1830  176.8190  146.3490 C   0  0  0  0  0  2  0  0  0  0  0  0
  1 11  1  0  0  0  0
  2  8  1  0  0  0  0
  2  4  2  0  0  0  0
  3  8  1  0  0  0  0
  6  2  1  0  0  0  0
  7  5  2  0  0  0  0
  7  1  1  0  0  0  0
  8 26  1  1  0  0  0
  9 11  1  0  0  0  0
  9  6  2  0  0  0  0
 10  1  1  0  0  0  0
 10  9  1  1  0  0  0
 10 14  1  0  0  0  0
 11  3  2  0  0  0  0
 12 17  1  0  0  0  0
 13 16  1  0  0  0  0
 14 13  1  6  0  0  0
 14 15  1  0  0  0  0
 15 17  1  0  0  0  0
 16 12  1  0  0  0  0
 18 19  1  0  0  0  0
 19  7  1  1  0  0  0
 20 21  1  1  0  0  0
 20 18  1  0  0  0  0
 20 19  1  0  0  0  0
 22 21  1  0  0  0  0
 23 22  2  0  0  0  0
 24 22  1  0  0  0  0
 25 22  1  0  0  0  0
 26 28  1  0  0  0  0
 26 27  1  6  0  0  0
 28 36  1  6  0  0  0
 28 30  1  0  0  0  0
 29 31  2  0  0  0  0
 30 29  1  0  0  0  0
 32 29  1  0  0  0  0
 33 32  1  0  0  0  0
 34 35  2  0  0  0  0
 34 33  1  0  0  0  0
 38 36  1  0  0  0  0
 38 37  1  0  0  0  0
 39 43  1  0  0  0  0
 39 37  2  0  0  0  0
 40 41  2  0  0  0  0
 40 38  1  0  0  0  0
 41 39  1  0  0  0  0
 43 45  1  0  0  0  0
 43 46  1  0  0  0  0
 44 42  1  0  0  0  0
 45 44  1  0  0  0  0
 46 47  1  0  0  0  0
 47 42  1  0  0  0  0
M  END
>  <MODEL>
1

>  <REMARK>
 VINA RESULT:      -7.1      0.000      0.000
  Name = 
  13 active torsions:
  status: ('A' for Active; 'I' for Inactive)
    1  A    between atoms: C_2  and  C_13
    2  A    between atoms: C_2  and  C_17
    3  A    between atoms: C_2  and  N_36
    4  A    between atoms: C_4  and  C_44
    5  A    between atoms: P_7  and  O_33
    6  A    between atoms: N_10  and  C_13
    7  A    between atoms: C_12  and  C_34
    8  A    between atoms: C_14  and  C_43
    9  A    between atoms: C_17  and  C_39
   10  A    between atoms: C_21  and  C_38
   11  A    between atoms: C_23  and  C_41
   12  A    between atoms: C_25  and  O_33
   13  A    between atoms: C_43  and  C_44
                            x       y       z     vdW  Elec       q    Type
                         _______ _______ _______ _____ _____    ______ ____

>  <TORSDO>
F 13

$$$$
=
 OpenBabel11072408393D

 47 52  0  0  1  0  0  0  0  0999 V2000
  192.4870  171.4830  140.7610 N   0  0  0  0  0  0  0  0  0  0  0  0
  193.6180  172.5620  144.5130 C   0  0  0  0  0  0  0  0  0  0  0  0
  194.4270  172.5880  142.0780 N   0  0  0  0  0  0  0  0  0  0  0  0
  193.8640  172.6720  145.7420 O   0  0  0  0  0  0  0  0  0  0  0  0
  193.6980  171.8070  138.8090 O   0  0  0  0  0  0  0  0  0  0  0  0
  192.3570  171.9740  144.1050 N   0  0  0  0  0  0  0  0  0  0  0  0
  192.7000  171.2750  139.3600 C   0  0  0  0  0  0  0  0  0  0  0  0
  194.6940  173.0320  143.4740 C   0  0  1  0  0  3  0  0  0  0  0  0
  192.2680  171.7560  142.8440 C   0  0  0  0  0  0  0  0  0  0  0  0
  191.4830  171.2400  141.7560 C   0  0  1  0  0  3  0  0  0  0  0  0
  193.2860  172.0420  141.8500 C   0  0  0  0  0  0  0  0  0  0  0  0
  188.3320  173.9620  142.1330 C   0  0  0  0  0  2  0  0  0  0  0  0
  189.2050  171.9220  142.6310 C   0  0  0  0  0  2  0  0  0  0  0  0
  190.2260  172.0870  141.4950 C   0  0  1  0  0  3  0  0  0  0  0  0
  190.5390  173.4540  141.3180 O   0  0  0  0  0  0  0  0  0  0  0  0
  188.0140  172.6000  142.3000 O   0  0  0  0  0  0  0  0  0  0  0  0
  189.3420  174.1210  140.9890 C   0  0  0  0  0  2  0  0  0  0  0  0
  190.3510  170.4280  138.9090 C   0  0  0  0  0  2  0  0  0  0  0  0
  191.8180  170.3750  138.5310 C   0  0  1  0  0  3  0  0  0  0  0  0
  190.8160  171.1470  137.6600 C   0  0  2  0  0  3  0  0  0  0  0  0
  190.8420  172.5270  137.9030 O   0  0  0  0  0  0  0  0  0  0  0  0
  189.6350  173.1920  136.9120 P   0  0  0  0  0  0  0  0  0  0  0  0
  189.3250  172.1620  135.6060 O   0  0  0  0  0  0  0  0  0  0  0  0
  190.0750  174.5450  136.3980 O   0  0  0  0  0  1  0  0  0  0  0  0
  188.2180  173.3770  137.8160 O   0  0  0  0  0  1  0  0  0  0  0  0
  194.8920  174.5610  143.5160 C   0  0  1  0  0  3  0  0  0  0  0  0
  195.2470  175.0240  142.2440 O   0  0  0  0  0  1  0  0  0  0  0  0
  193.6270  175.2920  143.9910 C   0  0  1  0  0  3  0  0  0  0  0  0
  193.3080  176.2860  146.3010 C   0  0  0  0  0  0  0  0  0  0  0  0
  193.9600  176.2600  145.0290 N   0  0  0  0  0  2  0  0  0  0  0  0
  193.6340  177.1600  147.1440 O   0  0  0  0  0  0  0  0  0  0  0  0
  192.2560  175.2840  146.6500 C   0  0  0  0  0  2  0  0  0  0  0  0
  191.0710  175.9780  147.2910 C   0  0  0  0  0  2  0  0  0  0  0  0
  189.9950  174.9830  147.5590 C   0  0  0  0  0  3  0  0  0  0  0  0
  189.4930  174.2680  146.5600 C   0  0  0  0  0  2  0  0  0  0  0  0
  192.9600  176.0290  142.8360 C   0  0  0  0  0  2  0  0  0  0  0  0
  190.6310  176.0860  143.5780 N   0  0  0  0  0  0  0  0  0  0  0  0
  191.7610  176.7100  143.2980 N   0  0  0  0  0  0  0  0  0  0  0  0
  189.7900  177.0530  143.9860 C   0  0  0  0  0  0  0  0  0  0  0  0
  191.6860  178.0150  143.5030 N   0  0  0  0  0  0  0  0  0  0  0  0
  190.4370  178.2730  143.9400 C   0  0  0  0  0  3  0  0  0  0  0  0
  185.6960  177.8430  145.0400 C   0  0  0  0  0  2  0  0  0  0  0  0
  188.3690  176.8340  144.3810 C   0  0  0  0  0  3  0  0  0  0  0  0
  185.9730  177.1440  143.7120 C   0  0  0  0  0  2  0  0  0  0  0  0
  187.4260  177.3590  143.2980 C   0  0  0  0  0  2  0  0  0  0  0  0
  188.0840  177.5200  145.7170 C   0  0  0  0  0  2  0  0  0  0  0  0
  186.6280  177.3050  146.1220 C   0  0  0  0  0  2  0  0  0  0  0  0
  1 10  1  0  0  0  0
  1 11  1  0  0  0  0
  2  4  2  0  0  0  0
  3  8  1  0  0  0  0
  5  7  2  0  0  0  0
  6  2  1  0  0  0  0
  7  1  1  0  0  0  0
  8 26  1  6  0  0  0
  8  2  1  0  0  0  0
  9  6  2  0  0  0  0
 10  9  1  1  0  0  0
 11  3  2  0  0  0  0
 11  9  1  0  0  0  0
 12 16  1  0  0  0  0
 14 10  1  0  0  0  0
 14 13  1  1  0  0  0
 15 14  1  0  0  0  0
 16 13  1  0  0  0  0
 17 15  1  0  0  0  0
 17 12  1  0  0  0  0
 19 18  1  0  0  0  0
 19  7  1  1  0  0  0
 20 21  1  1  0  0  0
 20 19  1  0  0  0  0
 20 18  1  0  0  0  0
 22 25  1  0  0  0  0
 22 21  1  0  0  0  0
 23 22  2  0  0  0  0
 24 22  1  0  0  0  0
 26 27  1  6  0  0  0
 26 28  1  0  0  0  0
 28 36  1  6  0  0  0
 28 30  1  0  0  0  0
 29 32  1  0  0  0  0
 29 31  2  0  0  0  0
 30 29  1  0  0  0  0
 32 33  1  0  0  0  0
 33 34  1  0  0  0  0
 35 34  2  0  0  0  0
 36 38  1  0  0  0  0
 37 39  2  0  0  0  0
 38 40  1  0  0  0  0
 38 37  1  0  0  0  0
 39 43  1  0  0  0  0
 40 41  2  0  0  0  0
 41 39  1  0  0  0  0
 42 47  1  0  0  0  0
 43 46  1  0  0  0  0
 44 42  1  0  0  0  0
 45 44  1  0  0  0  0
 45 43  1  0  0  0  0
 46 47  1  0  0  0  0
M  END
>  <MODEL>
2

>  <REMARK>
 VINA RESULT:      -6.9      1.884      3.155
  Name = 
  13 active torsions:
  status: ('A' for Active; 'I' for Inactive)
    1  A    between atoms: C_2  and  C_13
    2  A    between atoms: C_2  and  C_17
    3  A    between atoms: C_2  and  N_36
    4  A    between atoms: C_4  and  C_44
    5  A    between atoms: P_7  and  O_33
    6  A    between atoms: N_10  and  C_13
    7  A    between atoms: C_12  and  C_34
    8  A    between atoms: C_14  and  C_43
    9  A    between atoms: C_17  and  C_39
   10  A    between atoms: C_21  and  C_38
   11  A    between atoms: C_23  and  C_41
   12  A    between atoms: C_25  and  O_33
   13  A    between atoms: C_43  and  C_44
                            x       y       z     vdW  Elec       q    Type
                         _______ _______ _______ _____ _____    ______ ____

>  <TORSDO>
F 13

$$$$
=
 OpenBabel11072408393D

 47 52  0  0  1  0  0  0  0  0999 V2000
  194.7430  173.1940  143.1780 N   0  0  0  0  0  0  0  0  0  0  0  0
  191.6590  171.6960  140.9920 C   0  0  0  0  0  0  0  0  0  0  0  0
  192.1850  173.4180  142.8220 N   0  0  0  0  0  0  0  0  0  0  0  0
  190.8210  171.0080  140.3550 O   0  0  0  0  0  0  0  0  0  0  0  0
  194.6160  174.8760  144.7700 O   0  0  0  0  0  0  0  0  0  0  0  0
  193.0650  171.3540  140.8880 N   0  0  0  0  0  0  0  0  0  0  0  0
  195.3160  173.9840  144.2260 C   0  0  0  0  0  0  0  0  0  0  0  0
  191.1520  172.8720  141.8980 C   0  0  1  0  0  3  0  0  0  0  0  0
  193.8200  172.0050  141.6960 C   0  0  0  0  0  0  0  0  0  0  0  0
  195.1480  172.2250  142.2000 C   0  0  1  0  0  3  0  0  0  0  0  0
  193.3910  173.0050  142.6540 C   0  0  0  0  0  0  0  0  0  0  0  0
  196.9010  173.3930  138.5880 C   0  0  0  0  0  2  0  0  0  0  0  0
  196.6080  171.7910  140.1750 C   0  0  0  0  0  2  0  0  0  0  0  0
  196.0720  172.8560  141.1440 C   0  0  1  0  0  3  0  0  0  0  0  0
  195.4250  173.8850  140.4250 O   0  0  0  0  0  0  0  0  0  0  0  0
  197.5550  172.3730  139.3070 O   0  0  0  0  0  0  0  0  0  0  0  0
  196.3790  174.4590  139.5610 C   0  0  0  0  0  2  0  0  0  0  0  0
  196.8030  173.7910  146.2720 C   0  0  0  0  0  2  0  0  0  0  0  0
  196.7040  173.7370  144.7610 C   0  0  1  0  0  3  0  0  0  0  0  0
  196.8140  172.4430  145.5810 C   0  0  2  0  0  3  0  0  0  0  0  0
  195.5740  171.8170  145.7690 O   0  0  0  0  0  0  0  0  0  0  0  0
  195.8760  170.1510  145.6510 P   0  0  0  0  0  0  0  0  0  0  0  0
  194.7980  169.4430  144.5560 O   0  0  0  0  0  0  0  0  0  0  0  0
  195.7220  169.5000  147.0070 O   0  0  0  0  0  1  0  0  0  0  0  0
  197.4570  169.9150  145.1000 O   0  0  0  0  0  1  0  0  0  0  0  0
  190.5370  174.0090  141.0570 C   0  0  1  0  0  3  0  0  0  0  0  0
  189.9230  173.4740  139.9200 O   0  0  0  0  0  1  0  0  0  0  0  0
  189.5090  174.8240  141.8570 C   0  0  1  0  0  3  0  0  0  0  0  0
  190.2280  176.4160  143.6930 C   0  0  0  0  0  0  0  0  0  0  0  0
  190.0970  176.0780  142.3110 N   0  0  0  0  0  2  0  0  0  0  0  0
  190.7300  177.5230  144.0140 O   0  0  0  0  0  0  0  0  0  0  0  0
  189.7910  175.4700  144.7640 C   0  0  0  0  0  2  0  0  0  0  0  0
  190.8550  175.3750  145.8390 C   0  0  0  0  0  2  0  0  0  0  0  0
  190.2080  175.2880  147.1770 C   0  0  0  0  0  3  0  0  0  0  0  0
  189.0730  174.6120  147.3190 C   0  0  0  0  0  2  0  0  0  0  0  0
  188.2860  175.1420  141.0040 C   0  0  0  0  0  2  0  0  0  0  0  0
  186.8150  175.8780  142.8120 N   0  0  0  0  0  0  0  0  0  0  0  0
  187.4430  176.1170  141.6750 N   0  0  0  0  0  0  0  0  0  0  0  0
  186.1720  177.0230  143.1040 C   0  0  0  0  0  0  0  0  0  0  0  0
  187.2360  177.3450  141.2280 N   0  0  0  0  0  0  0  0  0  0  0  0
  186.4230  177.9540  142.1140 C   0  0  0  0  0  3  0  0  0  0  0  0
  184.7340  178.4340  146.9030 C   0  0  0  0  0  2  0  0  0  0  0  0
  185.2930  177.2270  144.2910 C   0  0  0  0  0  3  0  0  0  0  0  0
  184.0150  178.9060  145.6440 C   0  0  0  0  0  2  0  0  0  0  0  0
  184.9040  178.7000  144.4210 C   0  0  0  0  0  2  0  0  0  0  0  0
  185.9990  176.7440  145.5570 C   0  0  0  0  0  2  0  0  0  0  0  0
  185.1050  176.9590  146.7750 C   0  0  0  0  0  2  0  0  0  0  0  0
  1  7  1  0  0  0  0
  2  8  1  0  0  0  0
  4  2  2  0  0  0  0
  6  2  1  0  0  0  0
  6  9  2  0  0  0  0
  7  5  2  0  0  0  0
  8 26  1  6  0  0  0
  8  3  1  0  0  0  0
  9 11  1  0  0  0  0
 10  9  1  6  0  0  0
 10  1  1  0  0  0  0
 11  3  2  0  0  0  0
 11  1  1  0  0  0  0
 12 16  1  0  0  0  0
 12 17  1  0  0  0  0
 14 13  1  6  0  0  0
 14 10  1  0  0  0  0
 15 14  1  0  0  0  0
 16 13  1  0  0  0  0
 17 15  1  0  0  0  0
 19  7  1  1  0  0  0
 19 20  1  0  0  0  0
 19 18  1  0  0  0  0
 20 21  1  1  0  0  0
 20 18  1  0  0  0  0
 22 21  1  0  0  0  0
 22 24  1  0  0  0  0
 23 22  2  0  0  0  0
 25 22  1  0  0  0  0
 26 27  1  6  0  0  0
 26 28  1  0  0  0  0
 28 36  1  6  0  0  0
 28 30  1  0  0  0  0
 29 31  2  0  0  0  0
 29 32  1  0  0  0  0
 30 29  1  0  0  0  0
 32 33  1  0  0  0  0
 33 34  1  0  0  0  0
 34 35  2  0  0  0  0
 36 38  1  0  0  0  0
 37 39  2  0  0  0  0
 38 37  1  0  0  0  0
 39 43  1  0  0  0  0
 40 38  1  0  0  0  0
 40 41  2  0  0  0  0
 41 39  1  0  0  0  0
 43 45  1  0  0  0  0
 43 46  1  0  0  0  0
 44 42  1  0  0  0  0
 45 44  1  0  0  0  0
 46 47  1  0  0  0  0
 47 42  1  0  0  0  0
M  END
>  <MODEL>
3

>  <REMARK>
 VINA RESULT:      -6.7      3.093      5.886
  Name = 
  13 active torsions:
  status: ('A' for Active; 'I' for Inactive)
    1  A    between atoms: C_2  and  C_13
    2  A    between atoms: C_2  and  C_17
    3  A    between atoms: C_2  and  N_36
    4  A    between atoms: C_4  and  C_44
    5  A    between atoms: P_7  and  O_33
    6  A    between atoms: N_10  and  C_13
    7  A    between atoms: C_12  and  C_34
    8  A    between atoms: C_14  and  C_43
    9  A    between atoms: C_17  and  C_39
   10  A    between atoms: C_21  and  C_38
   11  A    between atoms: C_23  and  C_41
   12  A    between atoms: C_25  and  O_33
   13  A    between atoms: C_43  and  C_44
                            x       y       z     vdW  Elec       q    Type
                         _______ _______ _______ _____ _____    ______ ____

>  <TORSDO>
F 13

$$$$
=
 OpenBabel11072408393D

 47 52  0  0  1  0  0  0  0  0999 V2000
  191.5340  173.9680  140.9260 N   0  0  0  0  0  0  0  0  0  0  0  0
  195.2760  175.0540  139.7650 C   0  0  0  0  0  0  0  0  0  0  0  0
  193.6250  175.2810  141.7170 N   0  0  0  0  0  0  0  0  0  0  0  0
  196.3230  175.4290  139.1770 O   0  0  0  0  0  0  0  0  0  0  0  0
  190.5190  174.4690  142.9510 O   0  0  0  0  0  0  0  0  0  0  0  0
  194.3350  174.2160  139.0460 N   0  0  0  0  0  0  0  0  0  0  0  0
  190.3930  173.9980  141.7910 C   0  0  0  0  0  0  0  0  0  0  0  0
  195.0110  175.5340  141.2340 C   0  0  1  0  0  3  0  0  0  0  0  0
  193.2290  174.0230  139.6670 C   0  0  0  0  0  0  0  0  0  0  0  0
  191.9220  173.4250  139.6560 C   0  0  1  0  0  3  0  0  0  0  0  0
  192.8730  174.5550  140.9690 C   0  0  0  0  0  0  0  0  0  0  0  0
  191.8700  169.3750  138.6200 C   0  0  0  0  0  2  0  0  0  0  0  0
  190.7100  171.2670  139.1160 C   0  0  0  0  0  2  0  0  0  0  0  0
  191.9860  171.8890  139.7040 C   0  0  1  0  0  3  0  0  0  0  0  0
  193.1240  171.3880  139.0330 O   0  0  0  0  0  0  0  0  0  0  0  0
  190.7380  169.8690  139.2970 O   0  0  0  0  0  0  0  0  0  0  0  0
  193.1410  169.9910  139.2190 C   0  0  0  0  0  2  0  0  0  0  0  0
  187.9210  173.8460  142.3400 C   0  0  0  0  0  2  0  0  0  0  0  0
  189.0220  173.5600  141.3390 C   0  0  1  0  0  3  0  0  0  0  0  0
  188.0560  174.7340  141.1200 C   0  0  2  0  0  3  0  0  0  0  0  0
  188.6070  175.9650  141.5020 O   0  0  0  0  0  0  0  0  0  0  0  0
  187.3600  177.1030  141.3230 P   0  0  0  0  0  0  0  0  0  0  0  0
  186.7660  177.0660  139.7390 O   0  0  0  0  0  0  0  0  0  0  0  0
  187.8760  178.4890  141.6390 O   0  0  0  0  0  1  0  0  0  0  0  0
  186.1060  176.7210  142.3910 O   0  0  0  0  0  1  0  0  0  0  0  0
  196.0340  174.9330  142.2190 C   0  0  1  0  0  3  0  0  0  0  0  0
  197.2230  175.6670  142.1680 O   0  0  0  0  0  1  0  0  0  0  0  0
  195.5040  174.9180  143.6610 C   0  0  1  0  0  3  0  0  0  0  0  0
  195.9730  173.1460  145.4110 C   0  0  0  0  0  0  0  0  0  0  0  0
  196.4130  174.1800  144.5290 N   0  0  0  0  0  2  0  0  0  0  0  0
  196.8110  172.5610  146.1440 O   0  0  0  0  0  0  0  0  0  0  0  0
  194.5370  172.7380  145.4670 C   0  0  0  0  0  2  0  0  0  0  0  0
  194.3910  171.2910  145.0400 C   0  0  0  0  0  2  0  0  0  0  0  0
  193.6300  171.2210  143.7620 C   0  0  0  0  0  3  0  0  0  0  0  0
  194.2350  171.5140  142.6170 C   0  0  0  0  0  2  0  0  0  0  0  0
  195.3610  176.3360  144.2020 C   0  0  0  0  0  2  0  0  0  0  0  0
  193.0090  176.5970  144.8130 N   0  0  0  0  0  0  0  0  0  0  0  0
  194.2690  176.4030  145.1580 N   0  0  0  0  0  0  0  0  0  0  0  0
  192.3220  176.5720  145.9690 C   0  0  0  0  0  0  0  0  0  0  0  0
  194.4220  176.2570  146.4640 N   0  0  0  0  0  0  0  0  0  0  0  0
  193.1980  176.3640  147.0180 C   0  0  0  0  0  3  0  0  0  0  0  0
  188.0950  176.2340  145.2530 C   0  0  0  0  0  2  0  0  0  0  0  0
  190.8510  176.7810  146.0910 C   0  0  0  0  0  3  0  0  0  0  0  0
  188.6460  175.6880  146.5670 C   0  0  0  0  0  2  0  0  0  0  0  0
  190.1520  175.4710  146.4560 C   0  0  0  0  0  2  0  0  0  0  0  0
  190.2910  177.3410  144.7830 C   0  0  0  0  0  2  0  0  0  0  0  0
  188.7830  177.5490  144.9010 C   0  0  0  0  0  2  0  0  0  0  0  0
  1 11  1  0  0  0  0
  1  7  1  0  0  0  0
  2  8  1  0  0  0  0
  4  2  2  0  0  0  0
  6  9  2  0  0  0  0
  6  2  1  0  0  0  0
  7  5  2  0  0  0  0
  8  3  1  0  0  0  0
  8 26  1  1  0  0  0
  9 11  1  0  0  0  0
 10  9  1  1  0  0  0
 10 14  1  0  0  0  0
 10  1  1  0  0  0  0
 11  3  2  0  0  0  0
 12 17  1  0  0  0  0
 12 16  1  0  0  0  0
 13 16  1  0  0  0  0
 14 13  1  6  0  0  0
 15 17  1  0  0  0  0
 15 14  1  0  0  0  0
 19  7  1  1  0  0  0
 19 18  1  0  0  0  0
 20 19  1  0  0  0  0
 20 21  1  1  0  0  0
 20 18  1  0  0  0  0
 22 21  1  0  0  0  0
 22 24  1  0  0  0  0
 22 25  1  0  0  0  0
 23 22  2  0  0  0  0
 26 27  1  1  0  0  0
 26 28  1  0  0  0  0
 28 36  1  1  0  0  0
 28 30  1  0  0  0  0
 29 32  1  0  0  0  0
 29 31  2  0  0  0  0
 30 29  1  0  0  0  0
 33 32  1  0  0  0  0
 34 33  1  0  0  0  0
 35 34  2  0  0  0  0
 36 38  1  0  0  0  0
 37 38  1  0  0  0  0
 37 39  2  0  0  0  0
 38 40  1  0  0  0  0
 39 43  1  0  0  0  0
 39 41  1  0  0  0  0
 40 41  2  0  0  0  0
 42 44  1  0  0  0  0
 43 45  1  0  0  0  0
 45 44  1  0  0  0  0
 46 47  1  0  0  0  0
 46 43  1  0  0  0  0
 47 42  1  0  0  0  0
M  END
>  <MODEL>
4

>  <REMARK>
 VINA RESULT:      -6.7      2.981      4.571
  Name = 
  13 active torsions:
  status: ('A' for Active; 'I' for Inactive)
    1  A    between atoms: C_2  and  C_13
    2  A    between atoms: C_2  and  C_17
    3  A    between atoms: C_2  and  N_36
    4  A    between atoms: C_4  and  C_44
    5  A    between atoms: P_7  and  O_33
    6  A    between atoms: N_10  and  C_13
    7  A    between atoms: C_12  and  C_34
    8  A    between atoms: C_14  and  C_43
    9  A    between atoms: C_17  and  C_39
   10  A    between atoms: C_21  and  C_38
   11  A    between atoms: C_23  and  C_41
   12  A    between atoms: C_25  and  O_33
   13  A    between atoms: C_43  and  C_44
                            x       y       z     vdW  Elec       q    Type
                         _______ _______ _______ _____ _____    ______ ____

>  <TORSDO>
F 13

$$$$
=
 OpenBabel11072408393D

 47 52  0  0  1  0  0  0  0  0999 V2000
  191.9300  173.0880  140.5180 N   0  0  0  0  0  0  0  0  0  0  0  0
  195.7450  174.4710  140.2760 C   0  0  0  0  0  0  0  0  0  0  0  0
  193.4470  175.0560  141.2570 N   0  0  0  0  0  0  0  0  0  0  0  0
  196.9120  174.8170  139.9590 O   0  0  0  0  0  0  0  0  0  0  0  0
  190.1670  174.0930  141.6400 O   0  0  0  0  0  0  0  0  0  0  0  0
  195.2230  173.2230  139.7540 N   0  0  0  0  0  0  0  0  0  0  0  0
  190.5410  173.1890  140.8510 C   0  0  0  0  0  0  0  0  0  0  0  0
  194.8910  175.4140  141.1920 C   0  0  1  0  0  3  0  0  0  0  0  0
  193.9770  173.0370  139.9980 C   0  0  0  0  0  0  0  0  0  0  0  0
  192.8230  172.1960  139.8350 C   0  0  1  0  0  3  0  0  0  0  0  0
  193.1010  173.9400  140.7210 C   0  0  0  0  0  0  0  0  0  0  0  0
  194.3450  168.7040  141.5580 C   0  0  0  0  0  2  0  0  0  0  0  0
  193.6070  169.7900  139.7020 C   0  0  0  0  0  2  0  0  0  0  0  0
  192.9640  170.8640  140.5920 C   0  0  1  0  0  3  0  0  0  0  0  0
  193.7050  171.0130  141.7860 O   0  0  0  0  0  0  0  0  0  0  0  0
  193.5990  168.5510  140.3740 O   0  0  0  0  0  0  0  0  0  0  0  0
  193.6910  169.7690  142.4480 C   0  0  0  0  0  2  0  0  0  0  0  0
  188.1680  172.9940  139.9750 C   0  0  0  0  0  2  0  0  0  0  0  0
  189.4920  172.3010  140.2290 C   0  0  1  0  0  3  0  0  0  0  0  0
  189.0990  172.7340  138.8090 C   0  0  2  0  0  3  0  0  0  0  0  0
  189.7060  173.9380  138.4250 O   0  0  0  0  0  0  0  0  0  0  0  0
  189.6650  173.9540  136.7280 P   0  0  0  0  0  0  0  0  0  0  0  0
  189.2960  172.4100  136.1430 O   0  0  0  0  0  0  0  0  0  0  0  0
  191.0040  174.3970  136.1820 O   0  0  0  0  0  1  0  0  0  0  0  0
  188.4710  175.0370  136.2160 O   0  0  0  0  0  1  0  0  0  0  0  0
  195.4790  175.5080  142.6140 C   0  0  1  0  0  3  0  0  0  0  0  0
  196.0790  176.7590  142.7940 O   0  0  0  0  0  1  0  0  0  0  0  0
  194.4080  175.2950  143.6950 C   0  0  1  0  0  3  0  0  0  0  0  0
  193.6010  173.1040  144.6800 C   0  0  0  0  0  0  0  0  0  0  0  0
  194.6420  174.0430  144.4030 N   0  0  0  0  0  2  0  0  0  0  0  0
  193.8720  172.0500  145.3100 O   0  0  0  0  0  0  0  0  0  0  0  0
  192.2010  173.3460  144.2200 C   0  0  0  0  0  2  0  0  0  0  0  0
  191.3930  172.0670  144.3160 C   0  0  0  0  0  2  0  0  0  0  0  0
  189.9780  172.3930  144.6440 C   0  0  0  0  0  3  0  0  0  0  0  0
  189.7000  173.4550  145.3910 C   0  0  0  0  0  2  0  0  0  0  0  0
  194.4250  176.4350  144.7070 C   0  0  0  0  0  2  0  0  0  0  0  0
  192.0520  177.0150  144.8030 N   0  0  0  0  0  0  0  0  0  0  0  0
  193.1390  176.5330  145.3780 N   0  0  0  0  0  0  0  0  0  0  0  0
  191.0880  176.9120  145.7360 C   0  0  0  0  0  0  0  0  0  0  0  0
  192.9220  176.1310  146.6200 N   0  0  0  0  0  0  0  0  0  0  0  0
  191.6220  176.3630  146.8870 C   0  0  0  0  0  3  0  0  0  0  0  0
  186.8340  176.8150  145.1150 C   0  0  0  0  0  2  0  0  0  0  0  0
  189.6790  177.3660  145.5590 C   0  0  0  0  0  3  0  0  0  0  0  0
  187.3500  177.2630  146.4790 C   0  0  0  0  0  2  0  0  0  0  0  0
  188.7930  176.8060  146.6720 C   0  0  0  0  0  2  0  0  0  0  0  0
  189.1570  176.9340  144.1890 C   0  0  0  0  0  2  0  0  0  0  0  0
  187.7120  177.3900  144.0070 C   0  0  0  0  0  2  0  0  0  0  0  0
  1 11  1  0  0  0  0
  1  7  1  0  0  0  0
  2  8  1  0  0  0  0
  4  2  2  0  0  0  0
  6  9  2  0  0  0  0
  6  2  1  0  0  0  0
  7  5  2  0  0  0  0
  8  3  1  0  0  0  0
  8 26  1  1  0  0  0
  9 11  1  0  0  0  0
 10  9  1  1  0  0  0
 10  1  1  0  0  0  0
 10 14  1  0  0  0  0
 11  3  2  0  0  0  0
 12 17  1  0  0  0  0
 13 16  1  0  0  0  0
 14 13  1  6  0  0  0
 14 15  1  0  0  0  0
 15 17  1  0  0  0  0
 16 12  1  0  0  0  0
 18 19  1  0  0  0  0
 19  7  1  1  0  0  0
 20 21  1  1  0  0  0
 20 18  1  0  0  0  0
 20 19  1  0  0  0  0
 22 21  1  0  0  0  0
 23 22  2  0  0  0  0
 24 22  1  0  0  0  0
 25 22  1  0  0  0  0
 26 27  1  1  0  0  0
 26 28  1  0  0  0  0
 28 30  1  0  0  0  0
 28 36  1  1  0  0  0
 29 31  2  0  0  0  0
 30 29  1  0  0  0  0
 32 33  1  0  0  0  0
 32 29  1  0  0  0  0
 33 34  1  0  0  0  0
 34 35  2  0  0  0  0
 36 38  1  0  0  0  0
 37 38  1  0  0  0  0
 37 39  2  0  0  0  0
 38 40  1  0  0  0  0
 39 41  1  0  0  0  0
 40 41  2  0  0  0  0
 42 44  1  0  0  0  0
 43 39  1  0  0  0  0
 43 45  1  0  0  0  0
 44 45  1  0  0  0  0
 46 43  1  0  0  0  0
 47 46  1  0  0  0  0
 47 42  1  0  0  0  0
M  END
>  <MODEL>
5

>  <REMARK>
 VINA RESULT:      -6.6      1.878      2.878
  Name = 
  13 active torsions:
  status: ('A' for Active; 'I' for Inactive)
    1  A    between atoms: C_2  and  C_13
    2  A    between atoms: C_2  and  C_17
    3  A    between atoms: C_2  and  N_36
    4  A    between atoms: C_4  and  C_44
    5  A    between atoms: P_7  and  O_33
    6  A    between atoms: N_10  and  C_13
    7  A    between atoms: C_12  and  C_34
    8  A    between atoms: C_14  and  C_43
    9  A    between atoms: C_17  and  C_39
   10  A    between atoms: C_21  and  C_38
   11  A    between atoms: C_23  and  C_41
   12  A    between atoms: C_25  and  O_33
   13  A    between atoms: C_43  and  C_44
                            x       y       z     vdW  Elec       q    Type
                         _______ _______ _______ _____ _____    ______ ____

>  <TORSDO>
F 13

$$$$
=
 OpenBabel11072408393D

 47 52  0  0  1  0  0  0  0  0999 V2000
  194.7310  176.2070  143.5670 N   0  0  0  0  0  0  0  0  0  0  0  0
  192.2230  176.4240  146.7600 C   0  0  0  0  0  0  0  0  0  0  0  0
  192.2900  176.7880  144.2200 N   0  0  0  0  0  0  0  0  0  0  0  0
  191.6510  176.5910  147.8680 O   0  0  0  0  0  0  0  0  0  0  0  0
  194.1900  176.6530  141.3560 O   0  0  0  0  0  0  0  0  0  0  0  0
  193.6050  175.9820  146.7490 N   0  0  0  0  0  0  0  0  0  0  0  0
  195.0930  176.4100  142.1970 C   0  0  0  0  0  0  0  0  0  0  0  0
  191.4370  176.7330  145.4390 C   0  0  1  0  0  3  0  0  0  0  0  0
  194.1470  175.9980  145.5860 C   0  0  0  0  0  0  0  0  0  0  0  0
  195.3290  175.7760  144.7980 C   0  0  1  0  0  3  0  0  0  0  0  0
  193.5110  176.4060  144.3480 C   0  0  0  0  0  0  0  0  0  0  0  0
  196.0490  171.7770  145.7790 C   0  0  0  0  0  2  0  0  0  0  0  0
  196.7420  173.9420  145.8260 C   0  0  0  0  0  2  0  0  0  0  0  0
  195.7150  174.2890  144.7370 C   0  0  1  0  0  3  0  0  0  0  0  0
  194.5870  173.4460  144.8470 O   0  0  0  0  0  0  0  0  0  0  0  0
  197.1780  172.6110  145.6590 O   0  0  0  0  0  0  0  0  0  0  0  0
  195.0330  172.1200  144.6810 C   0  0  0  0  0  2  0  0  0  0  0  0
  197.2690  175.1240  141.9740 C   0  0  0  0  0  2  0  0  0  0  0  0
  196.5280  176.4230  141.7310 C   0  0  1  0  0  3  0  0  0  0  0  0
  196.7960  175.4520  140.5730 C   0  0  2  0  0  3  0  0  0  0  0  0
  195.6810  174.6600  140.2630 O   0  0  0  0  0  0  0  0  0  0  0  0
  195.6580  174.5390  138.5700 P   0  0  0  0  0  0  0  0  0  0  0  0
  194.2660  175.2810  137.9560 O   0  0  0  0  0  1  0  0  0  0  0  0
  195.6820  173.0850  138.1550 O   0  0  0  0  0  1  0  0  0  0  0  0
  197.0200  175.3190  137.9420 O   0  0  0  0  0  0  0  0  0  0  0  0
  190.2730  175.7430  145.2290 C   0  0  1  0  0  3  0  0  0  0  0  0
  190.1960  174.8690  146.3180 O   0  0  0  0  0  1  0  0  0  0  0  0
  188.9270  176.4650  145.0570 C   0  0  1  0  0  3  0  0  0  0  0  0
  187.2660  177.4180  146.7170 C   0  0  0  0  0  0  0  0  0  0  0  0
  188.6060  177.2300  146.2550 N   0  0  0  0  0  2  0  0  0  0  0  0
  187.0600  178.1040  147.7500 O   0  0  0  0  0  0  0  0  0  0  0  0
  186.1090  176.8010  146.0010 C   0  0  0  0  0  2  0  0  0  0  0  0
  185.0520  177.8500  145.7210 C   0  0  0  0  0  2  0  0  0  0  0  0
  185.2880  178.4540  144.3800 C   0  0  0  0  0  3  0  0  0  0  0  0
  185.5600  179.7490  144.2780 C   0  0  0  0  0  2  0  0  0  0  0  0
  188.9710  177.4190  143.8690 C   0  0  0  0  0  2  0  0  0  0  0  0
  189.0010  175.5720  142.2680 N   0  0  0  0  0  0  0  0  0  0  0  0
  188.5290  176.7410  142.6620 N   0  0  0  0  0  0  0  0  0  0  0  0
  188.3290  175.2860  141.1390 C   0  0  0  0  0  0  0  0  0  0  0  0
  187.5980  177.2140  141.8490 N   0  0  0  0  0  0  0  0  0  0  0  0
  187.4460  176.3120  140.8590 C   0  0  0  0  0  3  0  0  0  0  0  0
  189.9580  172.6200  138.1840 C   0  0  0  0  0  2  0  0  0  0  0  0
  188.5440  174.0700  140.3040 C   0  0  0  0  0  3  0  0  0  0  0  0
  190.1730  172.2780  139.6550 C   0  0  0  0  0  2  0  0  0  0  0  0
  189.9530  173.5160  140.5200 C   0  0  0  0  0  2  0  0  0  0  0  0
  188.3180  174.3980  138.8290 C   0  0  0  0  0  2  0  0  0  0  0  0
  188.5450  173.1570  137.9700 C   0  0  0  0  0  2  0  0  0  0  0  0
  1 11  1  0  0  0  0
  1 10  1  0  0  0  0
  2  4  2  0  0  0  0
  3 11  2  0  0  0  0
  3  8  1  0  0  0  0
  5  7  2  0  0  0  0
  6  2  1  0  0  0  0
  7  1  1  0  0  0  0
  8 26  1  6  0  0  0
  8  2  1  0  0  0  0
  9  6  2  0  0  0  0
 10  9  1  1  0  0  0
 11  9  1  0  0  0  0
 14 10  1  0  0  0  0
 14 15  1  0  0  0  0
 14 13  1  1  0  0  0
 16 12  1  0  0  0  0
 16 13  1  0  0  0  0
 17 15  1  0  0  0  0
 17 12  1  0  0  0  0
 19 18  1  0  0  0  0
 19  7  1  1  0  0  0
 20 21  1  1  0  0  0
 20 19  1  0  0  0  0
 20 18  1  0  0  0  0
 22 21  1  0  0  0  0
 23 22  1  0  0  0  0
 24 22  1  0  0  0  0
 25 22  2  0  0  0  0
 26 27  1  1  0  0  0
 28 36  1  6  0  0  0
 28 26  1  0  0  0  0
 28 30  1  0  0  0  0
 29 31  2  0  0  0  0
 30 29  1  0  0  0  0
 32 29  1  0  0  0  0
 33 32  1  0  0  0  0
 34 33  1  0  0  0  0
 35 34  2  0  0  0  0
 37 38  1  0  0  0  0
 38 36  1  0  0  0  0
 39 37  2  0  0  0  0
 40 38  1  0  0  0  0
 41 39  1  0  0  0  0
 41 40  2  0  0  0  0
 42 44  1  0  0  0  0
 43 45  1  0  0  0  0
 43 39  1  0  0  0  0
 44 45  1  0  0  0  0
 46 43  1  0  0  0  0
 47 42  1  0  0  0  0
 47 46  1  0  0  0  0
M  END
>  <MODEL>
6

>  <REMARK>
 VINA RESULT:      -6.6      2.789      5.925
  Name = 
  13 active torsions:
  status: ('A' for Active; 'I' for Inactive)
    1  A    between atoms: C_2  and  C_13
    2  A    between atoms: C_2  and  C_17
    3  A    between atoms: C_2  and  N_36
    4  A    between atoms: C_4  and  C_44
    5  A    between atoms: P_7  and  O_33
    6  A    between atoms: N_10  and  C_13
    7  A    between atoms: C_12  and  C_34
    8  A    between atoms: C_14  and  C_43
    9  A    between atoms: C_17  and  C_39
   10  A    between atoms: C_21  and  C_38
   11  A    between atoms: C_23  and  C_41
   12  A    between atoms: C_25  and  O_33
   13  A    between atoms: C_43  and  C_44
                            x       y       z     vdW  Elec       q    Type
                         _______ _______ _______ _____ _____    ______ ____

>  <TORSDO>
F 13

$$$$
=
 OpenBabel11072408393D

 47 52  0  0  1  0  0  0  0  0999 V2000
  194.1210  174.9150  140.6400 N   0  0  0  0  0  0  0  0  0  0  0  0
  191.4650  172.1640  139.2600 C   0  0  0  0  0  0  0  0  0  0  0  0
  191.7320  173.9910  141.0420 N   0  0  0  0  0  0  0  0  0  0  0  0
  190.8500  171.1610  138.8130 O   0  0  0  0  0  0  0  0  0  0  0  0
  193.7760  176.4150  142.3750 O   0  0  0  0  0  0  0  0  0  0  0  0
  192.7810  172.4660  138.7290 N   0  0  0  0  0  0  0  0  0  0  0  0
  194.5890  175.9040  141.5640 C   0  0  0  0  0  0  0  0  0  0  0  0
  190.8040  173.0250  140.3910 C   0  0  1  0  0  3  0  0  0  0  0  0
  193.3930  173.4030  139.3570 C   0  0  0  0  0  0  0  0  0  0  0  0
  194.5850  174.1940  139.4890 C   0  0  1  0  0  3  0  0  0  0  0  0
  192.8880  174.1410  140.4990 C   0  0  0  0  0  0  0  0  0  0  0  0
  195.4320  175.7270  135.6930 C   0  0  0  0  0  2  0  0  0  0  0  0
  196.1980  174.9660  137.6940 C   0  0  0  0  0  2  0  0  0  0  0  0
  194.7930  175.1360  138.2910 C   0  0  1  0  0  3  0  0  0  0  0  0
  193.8140  174.9400  137.2910 O   0  0  0  0  0  0  0  0  0  0  0  0
  196.4060  175.9330  136.6890 O   0  0  0  0  0  0  0  0  0  0  0  0
  194.0320  175.9100  136.2930 C   0  0  0  0  0  2  0  0  0  0  0  0
  196.4790  176.7190  143.0470 C   0  0  0  0  0  2  0  0  0  0  0  0
  196.0410  176.3020  141.6580 C   0  0  1  0  0  3  0  0  0  0  0  0
  196.8730  175.3500  142.5300 C   0  0  2  0  0  3  0  0  0  0  0  0
  196.0890  174.3740  143.1620 O   0  0  0  0  0  0  0  0  0  0  0  0
  196.7440  172.8810  142.6880 P   0  0  0  0  0  0  0  0  0  0  0  0
  197.8930  173.1140  141.4680 O   0  0  0  0  0  0  0  0  0  0  0  0
  195.6450  171.9720  142.1830 O   0  0  0  0  0  1  0  0  0  0  0  0
  197.4920  172.1590  144.0210 O   0  0  0  0  0  1  0  0  0  0  0  0
  189.5460  173.7560  139.8850 C   0  0  1  0  0  3  0  0  0  0  0  0
  188.6410  172.8270  139.3600 O   0  0  0  0  0  1  0  0  0  0  0  0
  188.8610  174.5620  140.9990 C   0  0  1  0  0  3  0  0  0  0  0  0
  187.4720  176.6780  141.1390 C   0  0  0  0  0  0  0  0  0  0  0  0
  187.9240  175.5220  140.4290 N   0  0  0  0  0  2  0  0  0  0  0  0
  186.6500  177.4560  140.5910 O   0  0  0  0  0  0  0  0  0  0  0  0
  187.9720  176.9840  142.5130 C   0  0  0  0  0  2  0  0  0  0  0  0
  189.1900  177.8820  142.4340 C   0  0  0  0  0  2  0  0  0  0  0  0
  189.9100  177.8630  143.7370 C   0  0  0  0  0  3  0  0  0  0  0  0
  191.1580  178.3120  143.8090 C   0  0  0  0  0  2  0  0  0  0  0  0
  188.0970  173.6420  141.9440 C   0  0  0  0  0  2  0  0  0  0  0  0
  189.6020  174.2340  143.7770 N   0  0  0  0  0  0  0  0  0  0  0  0
  188.9090  173.3300  143.1090 N   0  0  0  0  0  0  0  0  0  0  0  0
  190.1860  173.5550  144.7810 C   0  0  0  0  0  0  0  0  0  0  0  0
  189.0200  172.1180  143.6280 N   0  0  0  0  0  0  0  0  0  0  0  0
  189.8340  172.2210  144.6980 C   0  0  0  0  0  3  0  0  0  0  0  0
  192.4930  176.4510  146.9680 C   0  0  0  0  0  2  0  0  0  0  0  0
  191.1050  174.1520  145.7920 C   0  0  0  0  0  3  0  0  0  0  0  0
  191.3090  175.7960  147.6730 C   0  0  0  0  0  2  0  0  0  0  0  0
  190.3630  175.1790  146.6480 C   0  0  0  0  0  2  0  0  0  0  0  0
  192.3020  174.7990  145.0970 C   0  0  0  0  0  2  0  0  0  0  0  0
  193.2410  175.4190  146.1280 C   0  0  0  0  0  2  0  0  0  0  0  0
  1  7  1  0  0  0  0
  2  8  1  0  0  0  0
  4  2  2  0  0  0  0
  6  2  1  0  0  0  0
  6  9  2  0  0  0  0
  7  5  2  0  0  0  0
  8 26  1  6  0  0  0
  8  3  1  0  0  0  0
  9 11  1  0  0  0  0
 10  9  1  6  0  0  0
 10  1  1  0  0  0  0
 11  1  1  0  0  0  0
 11  3  2  0  0  0  0
 12 17  1  0  0  0  0
 12 16  1  0  0  0  0
 14 13  1  6  0  0  0
 14 10  1  0  0  0  0
 15 14  1  0  0  0  0
 16 13  1  0  0  0  0
 17 15  1  0  0  0  0
 19  7  1  1  0  0  0
 19 20  1  0  0  0  0
 19 18  1  0  0  0  0
 20 18  1  0  0  0  0
 20 21  1  1  0  0  0
 22 21  1  0  0  0  0
 22 25  1  0  0  0  0
 23 22  2  0  0  0  0
 24 22  1  0  0  0  0
 26 27  1  1  0  0  0
 26 28  1  0  0  0  0
 28 36  1  1  0  0  0
 29 32  1  0  0  0  0
 30 28  1  0  0  0  0
 30 29  1  0  0  0  0
 31 29  2  0  0  0  0
 33 32  1  0  0  0  0
 33 34  1  0  0  0  0
 34 35  2  0  0  0  0
 36 38  1  0  0  0  0
 37 39  2  0  0  0  0
 38 40  1  0  0  0  0
 38 37  1  0  0  0  0
 39 43  1  0  0  0  0
 40 41  2  0  0  0  0
 41 39  1  0  0  0  0
 42 44  1  0  0  0  0
 43 45  1  0  0  0  0
 45 44  1  0  0  0  0
 46 43  1  0  0  0  0
 46 47  1  0  0  0  0
 47 42  1  0  0  0  0
M  END
>  <MODEL>
7

>  <REMARK>
 VINA RESULT:      -6.6      3.105      6.864
  Name = 
  13 active torsions:
  status: ('A' for Active; 'I' for Inactive)
    1  A    between atoms: C_2  and  C_13
    2  A    between atoms: C_2  and  C_17
    3  A    between atoms: C_2  and  N_36
    4  A    between atoms: C_4  and  C_44
    5  A    between atoms: P_7  and  O_33
    6  A    between atoms: N_10  and  C_13
    7  A    between atoms: C_12  and  C_34
    8  A    between atoms: C_14  and  C_43
    9  A    between atoms: C_17  and  C_39
   10  A    between atoms: C_21  and  C_38
   11  A    between atoms: C_23  and  C_41
   12  A    between atoms: C_25  and  O_33
   13  A    between atoms: C_43  and  C_44
                            x       y       z     vdW  Elec       q    Type
                         _______ _______ _______ _____ _____    ______ ____

>  <TORSDO>
F 13

$$$$
=
 OpenBabel11072408393D

 47 52  0  0  1  0  0  0  0  0999 V2000
  192.8310  173.4730  140.6210 N   0  0  0  0  0  0  0  0  0  0  0  0
  195.2530  175.9030  142.8040 C   0  0  0  0  0  0  0  0  0  0  0  0
  192.7960  175.5770  142.1360 N   0  0  0  0  0  0  0  0  0  0  0  0
  196.1630  176.6280  143.2820 O   0  0  0  0  0  0  0  0  0  0  0  0
  190.5310  173.6610  140.3960 O   0  0  0  0  0  0  0  0  0  0  0  0
  195.6260  174.7050  142.0750 N   0  0  0  0  0  0  0  0  0  0  0  0
  191.5890  173.0990  140.0150 C   0  0  0  0  0  0  0  0  0  0  0  0
  193.7570  176.3360  142.9830 C   0  0  1  0  0  3  0  0  0  0  0  0
  194.6430  174.1240  141.4910 C   0  0  0  0  0  0  0  0  0  0  0  0
  194.2010  173.0460  140.6480 C   0  0  1  0  0  3  0  0  0  0  0  0
  193.2590  174.5560  141.5060 C   0  0  0  0  0  0  0  0  0  0  0  0
  195.7080  169.4360  142.1220 C   0  0  0  0  0  2  0  0  0  0  0  0
  194.9050  170.6290  140.3610 C   0  0  0  0  0  2  0  0  0  0  0  0
  194.3430  171.6770  141.3340 C   0  0  1  0  0  3  0  0  0  0  0  0
  195.1500  171.7480  142.4910 O   0  0  0  0  0  0  0  0  0  0  0  0
  194.8950  169.3600  140.9740 O   0  0  0  0  0  0  0  0  0  0  0  0
  195.1350  170.4750  143.0940 C   0  0  0  0  0  2  0  0  0  0  0  0
  190.2560  172.2410  138.0350 C   0  0  0  0  0  2  0  0  0  0  0  0
  191.5070  172.1100  138.8790 C   0  0  1  0  0  3  0  0  0  0  0  0
  191.5670  172.7740  137.4960 C   0  0  2  0  0  3  0  0  0  0  0  0
  191.5620  174.1740  137.5680 O   0  0  0  0  0  0  0  0  0  0  0  0
  191.1570  174.7150  136.0110 P   0  0  0  0  0  0  0  0  0  0  0  0
  191.5720  173.5410  134.8650 O   0  0  0  0  0  0  0  0  0  0  0  0
  191.8880  176.0030  135.7050 O   0  0  0  0  0  1  0  0  0  0  0  0
  189.4910  174.9910  135.9390 O   0  0  0  0  0  1  0  0  0  0  0  0
  193.3230  176.2760  144.4620 C   0  0  1  0  0  3  0  0  0  0  0  0
  193.9150  177.3280  145.1690 O   0  0  0  0  0  1  0  0  0  0  0  0
  191.7960  176.3520  144.6170 C   0  0  1  0  0  3  0  0  0  0  0  0
  190.4020  175.1050  146.3280 C   0  0  0  0  0  0  0  0  0  0  0  0
  191.4110  176.0610  145.9920 N   0  0  0  0  0  2  0  0  0  0  0  0
  190.1090  174.9170  147.5360 O   0  0  0  0  0  0  0  0  0  0  0  0
  189.7030  174.3170  145.2700 C   0  0  0  0  0  2  0  0  0  0  0  0
  190.4950  173.0660  144.9460 C   0  0  0  0  0  2  0  0  0  0  0  0
  189.6690  172.1540  144.1060 C   0  0  0  0  0  3  0  0  0  0  0  0
  190.2180  171.5320  143.0700 C   0  0  0  0  0  2  0  0  0  0  0  0
  191.2810  177.7390  144.2510 C   0  0  0  0  0  2  0  0  0  0  0  0
  188.8870  177.7180  144.7420 N   0  0  0  0  0  0  0  0  0  0  0  0
  189.8800  177.6730  143.8720 N   0  0  0  0  0  0  0  0  0  0  0  0
  187.7680  177.6530  143.9980 C   0  0  0  0  0  0  0  0  0  0  0  0
  189.4570  177.5820  142.6220 N   0  0  0  0  0  0  0  0  0  0  0  0
  188.1100  177.5610  142.6630 C   0  0  0  0  0  3  0  0  0  0  0  0
  184.4110  178.3810  146.5860 C   0  0  0  0  0  2  0  0  0  0  0  0
  186.3810  177.6370  144.5460 C   0  0  0  0  0  3  0  0  0  0  0  0
  184.4110  179.0390  145.2090 C   0  0  0  0  0  2  0  0  0  0  0  0
  185.8260  179.0590  144.6370 C   0  0  0  0  0  2  0  0  0  0  0  0
  186.3670  176.9680  145.9200 C   0  0  0  0  0  2  0  0  0  0  0  0
  184.9500  176.9570  146.4880 C   0  0  0  0  0  2  0  0  0  0  0  0
  1 10  1  0  0  0  0
  1 11  1  0  0  0  0
  2  8  1  0  0  0  0
  2  4  2  0  0  0  0
  3  8  1  0  0  0  0
  6  2  1  0  0  0  0
  7  5  2  0  0  0  0
  7  1  1  0  0  0  0
  8 26  1  1  0  0  0
  9 11  1  0  0  0  0
  9  6  2  0  0  0  0
 10 14  1  0  0  0  0
 10  9  1  1  0  0  0
 11  3  2  0  0  0  0
 12 17  1  0  0  0  0
 13 16  1  0  0  0  0
 14 13  1  6  0  0  0
 14 15  1  0  0  0  0
 15 17  1  0  0  0  0
 16 12  1  0  0  0  0
 18 19  1  0  0  0  0
 19  7  1  1  0  0  0
 20 21  1  1  0  0  0
 20 18  1  0  0  0  0
 20 19  1  0  0  0  0
 22 21  1  0  0  0  0
 23 22  2  0  0  0  0
 24 22  1  0  0  0  0
 25 22  1  0  0  0  0
 26 28  1  0  0  0  0
 26 27  1  1  0  0  0
 28 36  1  1  0  0  0
 28 30  1  0  0  0  0
 29 31  2  0  0  0  0
 30 29  1  0  0  0  0
 32 29  1  0  0  0  0
 33 32  1  0  0  0  0
 34 33  1  0  0  0  0
 35 34  2  0  0  0  0
 38 36  1  0  0  0  0
 38 37  1  0  0  0  0
 39 43  1  0  0  0  0
 39 37  2  0  0  0  0
 40 41  2  0  0  0  0
 40 38  1  0  0  0  0
 41 39  1  0  0  0  0
 43 45  1  0  0  0  0
 43 46  1  0  0  0  0
 44 42  1  0  0  0  0
 45 44  1  0  0  0  0
 46 47  1  0  0  0  0
 47 42  1  0  0  0  0
M  END
>  <MODEL>
8

>  <REMARK>
 VINA RESULT:      -6.6      1.417      1.672
  Name = 
  13 active torsions:
  status: ('A' for Active; 'I' for Inactive)
    1  A    between atoms: C_2  and  C_13
    2  A    between atoms: C_2  and  C_17
    3  A    between atoms: C_2  and  N_36
    4  A    between atoms: C_4  and  C_44
    5  A    between atoms: P_7  and  O_33
    6  A    between atoms: N_10  and  C_13
    7  A    between atoms: C_12  and  C_34
    8  A    between atoms: C_14  and  C_43
    9  A    between atoms: C_17  and  C_39
   10  A    between atoms: C_21  and  C_38
   11  A    between atoms: C_23  and  C_41
   12  A    between atoms: C_25  and  O_33
   13  A    between atoms: C_43  and  C_44
                            x       y       z     vdW  Elec       q    Type
                         _______ _______ _______ _____ _____    ______ ____

>  <TORSDO>
F 13

$$$$
=
 OpenBabel11072408393D

 47 52  0  0  1  0  0  0  0  0999 V2000
  193.4160  174.0800  143.8100 N   0  0  0  0  0  0  0  0  0  0  0  0
  191.4270  175.7250  146.9510 C   0  0  0  0  0  0  0  0  0  0  0  0
  191.3070  175.4660  144.4000 N   0  0  0  0  0  0  0  0  0  0  0  0
  191.0460  176.2960  148.0050 O   0  0  0  0  0  0  0  0  0  0  0  0
  192.7730  174.1460  141.5830 O   0  0  0  0  0  0  0  0  0  0  0  0
  192.6310  174.9150  146.9920 N   0  0  0  0  0  0  0  0  0  0  0  0
  193.6660  173.8530  142.4180 C   0  0  0  0  0  0  0  0  0  0  0  0
  190.6100  175.9360  145.6290 C   0  0  1  0  0  3  0  0  0  0  0  0
  193.0260  174.5110  145.8410 C   0  0  0  0  0  0  0  0  0  0  0  0
  194.0110  173.7880  145.0840 C   0  0  1  0  0  3  0  0  0  0  0  0
  192.3880  174.7910  144.5680 C   0  0  0  0  0  0  0  0  0  0  0  0
  194.2480  169.6280  144.7400 C   0  0  0  0  0  2  0  0  0  0  0  0
  193.0750  171.5420  144.3770 C   0  0  0  0  0  2  0  0  0  0  0  0
  193.9770  172.2790  145.3790 C   0  0  1  0  0  3  0  0  0  0  0  0
  195.2710  171.7120  145.3760 O   0  0  0  0  0  0  0  0  0  0  0  0
  192.9560  170.1890  144.7530 O   0  0  0  0  0  0  0  0  0  0  0  0
  195.1400  170.3600  145.7510 C   0  0  0  0  0  2  0  0  0  0  0  0
  195.4050  173.9450  140.5730 C   0  0  0  0  0  2  0  0  0  0  0  0
  194.9920  173.3500  141.9040 C   0  0  1  0  0  3  0  0  0  0  0  0
  196.0690  174.4420  141.8400 C   0  0  2  0  0  3  0  0  0  0  0  0
  195.5680  175.7130  142.1580 O   0  0  0  0  0  0  0  0  0  0  0  0
  196.4410  176.2250  143.5210 P   0  0  0  0  0  0  0  0  0  0  0  0
  195.3950  176.9420  144.6410 O   0  0  0  0  0  1  0  0  0  0  0  0
  197.5040  177.2180  143.1110 O   0  0  0  0  0  0  0  0  0  0  0  0
  197.1810  174.8840  144.2370 O   0  0  0  0  0  1  0  0  0  0  0  0
  189.2090  175.3000  145.7220 C   0  0  1  0  0  3  0  0  0  0  0  0
  188.9910  174.8300  147.0220 O   0  0  0  0  0  1  0  0  0  0  0  0
  188.0990  176.2940  145.3450 C   0  0  1  0  0  3  0  0  0  0  0  0
  186.7880  177.7900  146.9150 C   0  0  0  0  0  0  0  0  0  0  0  0
  188.0210  177.3650  146.3310 N   0  0  0  0  0  2  0  0  0  0  0  0
  186.7920  178.7330  147.7480 O   0  0  0  0  0  0  0  0  0  0  0  0
  185.4980  177.1250  146.5640 C   0  0  0  0  0  2  0  0  0  0  0  0
  184.5000  178.1540  146.0690 C   0  0  0  0  0  2  0  0  0  0  0  0
  184.7680  178.4610  144.6370 C   0  0  0  0  0  3  0  0  0  0  0  0
  185.1420  179.6850  144.2820 C   0  0  0  0  0  2  0  0  0  0  0  0
  188.3650  176.9110  143.9770 C   0  0  0  0  0  2  0  0  0  0  0  0
  189.1040  175.7270  141.9700 N   0  0  0  0  0  0  0  0  0  0  0  0
  188.2210  175.9080  142.9350 N   0  0  0  0  0  0  0  0  0  0  0  0
  188.6190  174.7080  141.2390 C   0  0  0  0  0  0  0  0  0  0  0  0
  187.2040  175.0650  142.8590 N   0  0  0  0  0  0  0  0  0  0  0  0
  187.4210  174.2840  141.7820 C   0  0  0  0  0  3  0  0  0  0  0  0
  189.3620  172.2430  137.7940 C   0  0  0  0  0  2  0  0  0  0  0  0
  189.2620  174.1600  140.0100 C   0  0  0  0  0  3  0  0  0  0  0  0
  188.9720  173.7000  137.5640 C   0  0  0  0  0  2  0  0  0  0  0  0
  188.3150  174.2730  138.8160 C   0  0  0  0  0  2  0  0  0  0  0  0
  189.6690  172.7040  140.2350 C   0  0  0  0  0  2  0  0  0  0  0  0
  190.3210  172.1370  138.9770 C   0  0  0  0  0  2  0  0  0  0  0  0
  1 11  1  0  0  0  0
  1 10  1  0  0  0  0
  2  6  1  0  0  0  0
  2  4  2  0  0  0  0
  3 11  2  0  0  0  0
  3  8  1  0  0  0  0
  5  7  2  0  0  0  0
  7  1  1  0  0  0  0
  8 26  1  1  0  0  0
  8  2  1  0  0  0  0
  9  6  2  0  0  0  0
 10 14  1  0  0  0  0
 10  9  1  1  0  0  0
 11  9  1  0  0  0  0
 12 16  1  0  0  0  0
 12 17  1  0  0  0  0
 13 16  1  0  0  0  0
 14 13  1  6  0  0  0
 15 14  1  0  0  0  0
 15 17  1  0  0  0  0
 18 20  1  0  0  0  0
 18 19  1  0  0  0  0
 19  7  1  1  0  0  0
 20 19  1  0  0  0  0
 20 21  1  1  0  0  0
 21 22  1  0  0  0  0
 22 25  1  0  0  0  0
 22 23  1  0  0  0  0
 24 22  2  0  0  0  0
 26 27  1  1  0  0  0
 28 36  1  6  0  0  0
 28 26  1  0  0  0  0
 28 30  1  0  0  0  0
 29 31  2  0  0  0  0
 30 29  1  0  0  0  0
 32 29  1  0  0  0  0
 33 32  1  0  0  0  0
 34 33  1  0  0  0  0
 35 34  2  0  0  0  0
 37 38  1  0  0  0  0
 38 36  1  0  0  0  0
 39 41  1  0  0  0  0
 39 37  2  0  0  0  0
 40 38  1  0  0  0  0
 41 40  2  0  0  0  0
 42 47  1  0  0  0  0
 43 46  1  0  0  0  0
 43 39  1  0  0  0  0
 44 42  1  0  0  0  0
 44 45  1  0  0  0  0
 45 43  1  0  0  0  0
 47 46  1  0  0  0  0
M  END
>  <MODEL>
9

>  <REMARK>
 VINA RESULT:      -6.5      2.827      6.190
  Name = 
  13 active torsions:
  status: ('A' for Active; 'I' for Inactive)
    1  A    between atoms: C_2  and  C_13
    2  A    between atoms: C_2  and  C_17
    3  A    between atoms: C_2  and  N_36
    4  A    between atoms: C_4  and  C_44
    5  A    between atoms: P_7  and  O_33
    6  A    between atoms: N_10  and  C_13
    7  A    between atoms: C_12  and  C_34
    8  A    between atoms: C_14  and  C_43
    9  A    between atoms: C_17  and  C_39
   10  A    between atoms: C_21  and  C_38
   11  A    between atoms: C_23  and  C_41
   12  A    between atoms: C_25  and  O_33
   13  A    between atoms: C_43  and  C_44
                            x       y       z     vdW  Elec       q    Type
                         _______ _______ _______ _____ _____    ______ ____

>  <TORSDO>
F 13

$$$$
