=
 OpenBabel11072408313D

 56 61  0  0  1  0  0  0  0  0999 V2000
  191.2480  170.7130  139.5410 C   0  0  0  0  0  2  0  0  0  0  0  0
  188.7630  175.3590  141.9390 C   0  0  2  0  0  3  0  0  0  0  0  0
  189.8450  171.7960  142.7480 C   0  0  0  0  0  3  0  0  0  0  0  0
  192.8440  172.7360  139.5950 C   0  0  2  0  0  3  0  0  0  0  0  0
  191.3860  172.2460  139.5440 C   0  0  2  0  0  0  0  0  0  0  0  0
  192.5640  177.3820  142.9930 C   0  0  0  0  0  2  0  0  0  0  0  0
  193.8370  175.3360  142.4110 C   0  0  0  0  0  3  0  0  0  0  0  0
  196.1850  173.3440  142.0870 C   0  0  0  0  0  2  0  0  0  0  0  0
  196.4660  174.0220  139.9170 O   0  0  0  0  0  0  0  0  0  0  0  0
  193.6610  172.4670  138.3430 C   0  0  0  0  0  2  0  0  0  0  0  0
  195.0740  172.3000  140.3230 C   0  0  2  0  0  3  0  0  0  0  0  0
  195.5340  173.5830  140.8100 N   0  0  1  0  0  0  0  0  0  0  0  0
  195.1100  172.4260  138.8250 C   0  0  2  0  0  3  0  0  0  0  0  0
  187.4020  173.2860  141.8980 C   0  0  0  0  0  2  0  0  0  0  0  0
  190.7290  172.6680  140.7180 O   0  0  0  0  0  0  0  0  0  0  0  0
  191.3350  175.4380  141.9910 C   0  0  0  0  0  2  0  0  0  0  0  0
  196.1970  174.6140  142.9320 C   0  0  1  0  0  3  0  0  0  0  0  0
  192.5110  175.8570  142.8880 C   0  0  2  0  0  3  0  0  0  0  0  0
  191.2450  177.9230  143.5390 C   0  0  0  0  0  2  0  0  0  0  0  0
  188.5150  173.9030  142.3290 C   0  0  0  0  0  0  0  0  0  0  0  0
  194.8100  175.0830  143.2960 C   0  0  0  0  0  3  0  0  0  0  0  0
  193.6340  172.1060  140.7130 C   0  0  0  0  0  2  0  0  0  0  0  0
  190.0780  177.4670  142.6640 C   0  0  0  0  0  2  0  0  0  0  0  0
  190.7490  170.3010  140.9370 C   0  0  2  0  0  3  0  0  0  0  0  0
  190.0280  175.9400  142.6250 C   0  0  1  0  0  3  0  0  0  0  0  0
  195.9230  173.7120  138.6530 C   0  0  1  0  0  3  0  0  0  0  0  0
  189.4690  173.1720  143.2470 C   0  0  0  0  0  2  0  0  0  0  0  0
  190.7430  172.7850  138.4280 O   0  0  0  0  0  1  0  0  0  0  0  0
  190.4270  171.6200  141.5590 C   0  0  0  0  0  0  0  0  0  0  0  0
  192.5850  168.5800  140.7480 C   0  0  0  0  0  1  0  0  0  0  0  0
  191.8810  169.5820  141.6590 C   0  0  0  0  0  2  0  0  0  0  0  0
  196.9720  174.4150  144.2390 C   0  0  0  0  0  2  0  0  0  0  0  0
  196.1610  173.8190  145.3040 N   0  0  0  0  0  2  0  0  0  0  0  0
  195.9670  172.4130  145.4880 C   0  0  0  0  0  0  0  0  0  0  0  0
  197.1840  171.5280  145.6350 C   0  0  0  0  0  2  0  0  0  0  0  0
  194.4750  170.4120  145.7510 C   0  0  0  0  0  2  0  0  0  0  0  0
  195.7220  169.5450  145.6050 C   0  0  0  0  0  2  0  0  0  0  0  0
  196.8690  170.2160  146.3320 C   0  0  0  0  0  2  0  0  0  0  0  0
  194.7080  171.8890  145.4840 C   0  0  0  0  0  0  0  0  0  0  0  0
  192.7370  172.4580  144.2790 O   0  0  0  0  0  0  0  0  0  0  0  0
  193.1480  173.7540  146.1050 O   0  0  0  0  0  1  0  0  0  0  0  0
  193.4910  172.7060  145.2560 C   0  0  0  0  0  0  0  0  0  0  0  0
  187.2690  176.3710  142.2800 S   0  0  0  0  0  0  0  0  0  0  0  0
  187.3300  176.0900  144.0840 C   0  0  0  0  0  2  0  0  0  0  0  0
  187.5050  177.3980  144.8550 C   0  0  0  0  0  2  0  0  0  0  0  0
  188.1250  177.1550  146.2250 C   0  0  0  0  0  2  0  0  0  0  0  0
  188.8660  175.8180  146.2170 C   0  0  2  0  0  3  0  0  0  0  0  0
  188.4610  175.0530  147.3110 O   0  0  0  0  0  1  0  0  0  0  0  0
  190.3780  176.0180  146.2750 C   0  0  0  0  0  2  0  0  0  0  0  0
  191.3530  175.3030  148.3300 O   0  0  0  0  0  0  0  0  0  0  0  0
  190.8530  176.2610  147.6790 C   0  0  0  0  0  0  0  0  0  0  0  0
  190.7820  177.5270  148.2690 O   0  0  0  0  0  0  0  0  0  0  0  0
  191.5410  177.8710  149.4240 C   0  0  0  0  0  1  0  0  0  0  0  0
  195.1460  174.9100  138.1070 C   0  0  0  0  0  2  0  0  0  0  0  0
  194.5280  175.4290  135.7490 C   0  0  0  0  0  1  0  0  0  0  0  0
  195.6700  175.3230  136.7380 C   0  0  0  0  0  2  0  0  0  0  0  0
  1  5  1  0  0  0  0
  1 24  1  0  0  0  0
  2 43  1  1  0  0  0
  2 20  1  0  0  0  0
  2 25  1  0  0  0  0
  3 27  1  0  0  0  0
  4 10  1  6  0  0  0
  4 22  1  0  0  0  0
  5 28  1  6  0  0  0
  5  4  1  0  0  0  0
  5 15  1  0  0  0  0
  6 19  1  0  0  0  0
  7 18  1  0  0  0  0
  7 21  2  0  0  0  0
  8 17  1  0  0  0  0
  9 12  1  0  0  0  0
 11 22  1  1  0  0  0
 11 12  1  0  0  0  0
 12  8  1  1  0  0  0
 13 10  1  1  0  0  0
 13 11  1  0  0  0  0
 14 20  2  0  0  0  0
 15 29  1  0  0  0  0
 17 21  1  0  0  0  0
 17 32  1  1  0  0  0
 18 16  1  6  0  0  0
 18  6  1  0  0  0  0
 20 27  1  0  0  0  0
 23 19  1  0  0  0  0
 24 29  1  0  0  0  0
 24 31  1  1  0  0  0
 25 16  1  6  0  0  0
 25 23  1  0  0  0  0
 26 54  1  1  0  0  0
 26 13  1  0  0  0  0
 26  9  1  0  0  0  0
 29  3  2  0  0  0  0
 30 31  1  0  0  0  0
 32 33  1  0  0  0  0
 33 34  1  0  0  0  0
 34 35  1  0  0  0  0
 35 38  1  0  0  0  0
 37 36  1  0  0  0  0
 37 38  1  0  0  0  0
 39 34  2  0  0  0  0
 39 36  1  0  0  0  0
 40 42  2  0  0  0  0
 42 39  1  0  0  0  0
 42 41  1  0  0  0  0
 43 44  1  0  0  0  0
 44 45  1  0  0  0  0
 45 46  1  0  0  0  0
 47 46  1  0  0  0  0
 47 49  1  0  0  0  0
 47 48  1  1  0  0  0
 49 51  1  0  0  0  0
 51 52  1  0  0  0  0
 51 50  2  0  0  0  0
 52 53  1  0  0  0  0
 55 56  1  0  0  0  0
 56 54  1  0  0  0  0
M  END
>  <MODEL>
1

>  <REMARK>
 VINA RESULT:      -6.3      0.000      0.000
  Name = 
  15 active torsions:
  status: ('A' for Active; 'I' for Inactive)
    1  A    between atoms: C_3  and  S_16
    2  A    between atoms: C_4  and  N_38
    3  A    between atoms: C_5  and  C_8
    4  A    between atoms: C_5  and  O_27
    5  A    between atoms: C_7  and  C_30
    6  A    between atoms: C_7  and  N_38
    7  A    between atoms: C_8  and  C_12
    8  A    between atoms: C_12  and  C_35
    9  A    between atoms: S_16  and  C_34
   10  A    between atoms: C_21  and  C_46
   11  A    between atoms: C_34  and  C_49
   12  A    between atoms: C_35  and  C_49
   13  A    between atoms: C_37  and  C_43
   14  A    between atoms: C_43  and  C_51
   15  A    between atoms: C_50  and  C_56
                            x       y       z     vdW  Elec       q    Type
                         _______ _______ _______ _____ _____    ______ ____

>  <TORSDO>
F 15

$$$$
=
 OpenBabel11072408313D

 56 61  0  0  1  0  0  0  0  0999 V2000
  195.4710  170.3000  143.7690 C   0  0  0  0  0  2  0  0  0  0  0  0
  191.4020  170.7320  139.6740 C   0  0  2  0  0  3  0  0  0  0  0  0
  192.0960  169.0780  143.0360 C   0  0  0  0  0  3  0  0  0  0  0  0
  194.6130  172.7180  143.5180 C   0  0  2  0  0  3  0  0  0  0  0  0
  194.8530  171.3580  142.8380 C   0  0  2  0  0  0  0  0  0  0  0  0
  189.6340  174.4910  141.2220 C   0  0  0  0  0  2  0  0  0  0  0  0
  190.9930  174.3040  143.2870 C   0  0  0  0  0  3  0  0  0  0  0  0
  192.0970  174.8650  146.1240 C   0  0  0  0  0  2  0  0  0  0  0  0
  193.8120  176.0850  145.2200 O   0  0  0  0  0  0  0  0  0  0  0  0
  195.8710  173.4880  143.8840 C   0  0  0  0  0  2  0  0  0  0  0  0
  194.1290  173.8800  145.5440 C   0  0  2  0  0  3  0  0  0  0  0  0
  193.1680  174.8860  145.1430 N   0  0  1  0  0  0  0  0  0  0  0  0
  195.4500  174.3920  145.0410 C   0  0  2  0  0  3  0  0  0  0  0  0
  192.2680  168.4520  140.1230 C   0  0  0  0  0  2  0  0  0  0  0  0
  193.6070  170.8220  142.4540 O   0  0  0  0  0  0  0  0  0  0  0  0
  191.3290  172.6500  141.3900 C   0  0  0  0  0  2  0  0  0  0  0  0
  190.8130  175.4380  145.5320 C   0  0  1  0  0  3  0  0  0  0  0  0
  190.3430  173.5290  142.1760 C   0  0  2  0  0  3  0  0  0  0  0  0
  188.9130  173.7160  140.1220 C   0  0  0  0  0  2  0  0  0  0  0  0
  191.6280  169.5350  140.5960 C   0  0  0  0  0  0  0  0  0  0  0  0
  190.2870  174.6170  144.3810 C   0  0  0  0  0  3  0  0  0  0  0  0
  193.8450  172.5980  144.8090 C   0  0  0  0  0  2  0  0  0  0  0  0
  189.8950  172.8150  139.3740 C   0  0  0  0  0  2  0  0  0  0  0  0
  194.3580  169.2980  144.1180 C   0  0  2  0  0  3  0  0  0  0  0  0
  190.5430  171.8340  140.3500 C   0  0  1  0  0  3  0  0  0  0  0  0
  195.0930  175.8370  144.6840 C   0  0  1  0  0  3  0  0  0  0  0  0
  191.0840  169.5270  142.0060 C   0  0  0  0  0  2  0  0  0  0  0  0
  195.6570  171.5280  141.7090 O   0  0  0  0  0  1  0  0  0  0  0  0
  193.2560  169.7170  143.1990 C   0  0  0  0  0  0  0  0  0  0  0  0
  195.2250  169.5140  146.4770 C   0  0  0  0  0  1  0  0  0  0  0  0
  193.9880  169.4810  145.5840 C   0  0  0  0  0  2  0  0  0  0  0  0
  189.6980  175.5250  146.5800 C   0  0  0  0  0  2  0  0  0  0  0  0
  188.3560  175.5360  145.9940 N   0  0  0  0  0  2  0  0  0  0  0  0
  187.4390  176.6320  146.0850 C   0  0  0  0  0  0  0  0  0  0  0  0
  186.6960  176.8480  147.3840 C   0  0  0  0  0  2  0  0  0  0  0  0
  186.3050  178.6420  145.0970 C   0  0  0  0  0  2  0  0  0  0  0  0
  185.3830  178.6370  146.3120 C   0  0  0  0  0  2  0  0  0  0  0  0
  186.1960  178.2740  147.5380 C   0  0  0  0  0  2  0  0  0  0  0  0
  187.2170  177.4300  145.0010 C   0  0  0  0  0  0  0  0  0  0  0  0
  187.2820  176.4960  142.8140 O   0  0  0  0  0  0  0  0  0  0  0  0
  189.0930  177.7590  143.3680 O   0  0  0  0  0  1  0  0  0  0  0  0
  187.8570  177.2030  143.6830 C   0  0  0  0  0  0  0  0  0  0  0  0
  190.6790  170.1780  138.0800 S   0  0  0  0  0  0  0  0  0  0  0  0
  192.2320  170.4030  137.1470 C   0  0  0  0  0  2  0  0  0  0  0  0
  193.0190  171.6180  137.6400 C   0  0  0  0  0  2  0  0  0  0  0  0
  193.1100  172.6930  136.5650 C   0  0  0  0  0  2  0  0  0  0  0  0
  192.2350  173.8830  136.9600 C   0  0  2  0  0  3  0  0  0  0  0  0
  191.0970  173.9130  136.1540 O   0  0  0  0  0  1  0  0  0  0  0  0
  192.9890  175.2020  136.8160 C   0  0  0  0  0  2  0  0  0  0  0  0
  195.3320  175.3240  137.2370 O   0  0  0  0  0  0  0  0  0  0  0  0
  194.1750  175.2680  137.7350 C   0  0  0  0  0  0  0  0  0  0  0  0
  194.0240  175.2990  139.1250 O   0  0  0  0  0  0  0  0  0  0  0  0
  194.3220  174.1740  139.9470 C   0  0  0  0  0  1  0  0  0  0  0  0
  195.1090  176.1650  143.1900 C   0  0  0  0  0  2  0  0  0  0  0  0
  196.8440  176.2300  141.4020 C   0  0  0  0  0  1  0  0  0  0  0  0
  196.4550  176.7430  142.7730 C   0  0  0  0  0  2  0  0  0  0  0  0
  1 24  1  0  0  0  0
  2 43  1  6  0  0  0
  2 25  1  0  0  0  0
  2 20  1  0  0  0  0
  3 29  2  0  0  0  0
  4 10  1  1  0  0  0
  4 22  1  0  0  0  0
  5 28  1  6  0  0  0
  5  4  1  0  0  0  0
  5  1  1  0  0  0  0
  7 21  2  0  0  0  0
 11 22  1  6  0  0  0
 12  9  1  0  0  0  0
 12 11  1  0  0  0  0
 12  8  1  1  0  0  0
 13 10  1  6  0  0  0
 13 11  1  0  0  0  0
 14 20  2  0  0  0  0
 15  5  1  0  0  0  0
 15 29  1  0  0  0  0
 16 18  1  0  0  0  0
 17  8  1  0  0  0  0
 17 32  1  1  0  0  0
 18  6  1  6  0  0  0
 18  7  1  0  0  0  0
 19  6  1  0  0  0  0
 20 27  1  0  0  0  0
 21 17  1  0  0  0  0
 23 19  1  0  0  0  0
 24 31  1  1  0  0  0
 25 23  1  6  0  0  0
 25 16  1  0  0  0  0
 26 54  1  6  0  0  0
 26 13  1  0  0  0  0
 26  9  1  0  0  0  0
 27  3  1  0  0  0  0
 29 24  1  0  0  0  0
 31 30  1  0  0  0  0
 33 34  1  0  0  0  0
 33 32  1  0  0  0  0
 34 35  1  0  0  0  0
 35 38  1  0  0  0  0
 36 37  1  0  0  0  0
 37 38  1  0  0  0  0
 39 36  1  0  0  0  0
 39 34  2  0  0  0  0
 40 42  2  0  0  0  0
 41 42  1  0  0  0  0
 42 39  1  0  0  0  0
 44 45  1  0  0  0  0
 44 43  1  0  0  0  0
 46 47  1  0  0  0  0
 46 45  1  0  0  0  0
 47 48  1  6  0  0  0
 49 47  1  0  0  0  0
 49 51  1  0  0  0  0
 50 51  2  0  0  0  0
 51 52  1  0  0  0  0
 52 53  1  0  0  0  0
 55 56  1  0  0  0  0
 56 54  1  0  0  0  0
M  END
>  <MODEL>
2

>  <REMARK>
 VINA RESULT:      -6.3      2.561      7.620
  Name = 
  15 active torsions:
  status: ('A' for Active; 'I' for Inactive)
    1  A    between atoms: C_3  and  S_16
    2  A    between atoms: C_4  and  N_38
    3  A    between atoms: C_5  and  C_8
    4  A    between atoms: C_5  and  O_27
    5  A    between atoms: C_7  and  C_30
    6  A    between atoms: C_7  and  N_38
    7  A    between atoms: C_8  and  C_12
    8  A    between atoms: C_12  and  C_35
    9  A    between atoms: S_16  and  C_34
   10  A    between atoms: C_21  and  C_46
   11  A    between atoms: C_34  and  C_49
   12  A    between atoms: C_35  and  C_49
   13  A    between atoms: C_37  and  C_43
   14  A    between atoms: C_43  and  C_51
   15  A    between atoms: C_50  and  C_56
                            x       y       z     vdW  Elec       q    Type
                         _______ _______ _______ _____ _____    ______ ____

>  <TORSDO>
F 15

$$$$
=
 OpenBabel11072408313D

 56 61  0  0  1  0  0  0  0  0999 V2000
  190.9140  171.4150  138.6050 C   0  0  0  0  0  2  0  0  0  0  0  0
  189.7240  175.5240  142.5060 C   0  0  2  0  0  3  0  0  0  0  0  0
  189.9650  171.7390  142.1290 C   0  0  0  0  0  3  0  0  0  0  0  0
  192.9460  172.9370  139.0470 C   0  0  2  0  0  3  0  0  0  0  0  0
  191.4120  172.8080  139.0300 C   0  0  2  0  0  0  0  0  0  0  0  0
  193.9450  176.2700  143.6410 C   0  0  0  0  0  2  0  0  0  0  0  0
  194.6640  174.2790  142.3520 C   0  0  0  0  0  3  0  0  0  0  0  0
  196.4510  172.0290  141.1980 C   0  0  0  0  0  2  0  0  0  0  0  0
  196.7810  173.2620  139.2960 O   0  0  0  0  0  0  0  0  0  0  0  0
  193.6130  172.8960  137.6830 C   0  0  0  0  0  2  0  0  0  0  0  0
  195.0400  171.8360  139.3530 C   0  0  2  0  0  3  0  0  0  0  0  0
  195.8160  172.7800  140.1290 N   0  0  1  0  0  0  0  0  0  0  0  0
  195.0330  172.4030  137.9600 C   0  0  2  0  0  3  0  0  0  0  0  0
  187.9090  173.9020  142.0350 C   0  0  0  0  0  2  0  0  0  0  0  0
  190.9320  172.9810  140.3440 O   0  0  0  0  0  0  0  0  0  0  0  0
  192.2410  175.0340  142.2770 C   0  0  0  0  0  2  0  0  0  0  0  0
  196.8060  172.9480  142.3640 C   0  0  1  0  0  3  0  0  0  0  0  0
  193.5250  174.8980  143.1110 C   0  0  2  0  0  3  0  0  0  0  0  0
  192.8200  176.8870  144.4700 C   0  0  0  0  0  2  0  0  0  0  0  0
  189.1570  174.1050  142.4900 C   0  0  0  0  0  0  0  0  0  0  0  0
  195.5900  173.5670  143.0070 C   0  0  0  0  0  3  0  0  0  0  0  0
  193.6160  171.8430  139.8380 C   0  0  0  0  0  2  0  0  0  0  0  0
  191.5380  176.9790  143.6440 C   0  0  0  0  0  2  0  0  0  0  0  0
  190.3990  170.7120  139.8730 C   0  0  2  0  0  3  0  0  0  0  0  0
  191.1230  175.5840  143.1770 C   0  0  1  0  0  3  0  0  0  0  0  0
  196.1190  173.4760  138.0690 C   0  0  1  0  0  3  0  0  0  0  0  0
  189.9520  172.9440  143.0420 C   0  0  0  0  0  2  0  0  0  0  0  0
  190.8630  173.7860  138.1980 O   0  0  0  0  0  1  0  0  0  0  0  0
  190.4300  171.8160  140.8800 C   0  0  0  0  0  0  0  0  0  0  0  0
  191.8490  168.8550  138.9730 C   0  0  0  0  0  1  0  0  0  0  0  0
  191.3600  169.5840  140.2210 C   0  0  0  0  0  2  0  0  0  0  0  0
  197.5740  172.1990  143.4590 C   0  0  0  0  0  2  0  0  0  0  0  0
  196.8530  172.1440  144.7320 N   0  0  0  0  0  2  0  0  0  0  0  0
  196.4820  170.9350  145.4050 C   0  0  0  0  0  0  0  0  0  0  0  0
  197.5580  169.9190  145.7120 C   0  0  0  0  0  2  0  0  0  0  0  0
  194.7700  169.4590  146.4950 C   0  0  0  0  0  2  0  0  0  0  0  0
  195.8280  168.3610  146.5190 C   0  0  0  0  0  2  0  0  0  0  0  0
  197.1690  168.9850  146.8460 C   0  0  0  0  0  2  0  0  0  0  0  0
  195.1750  170.6990  145.7160 C   0  0  0  0  0  0  0  0  0  0  0  0
  193.2570  171.3150  144.4510 O   0  0  0  0  0  0  0  0  0  0  0  0
  193.9140  172.8490  146.0000 O   0  0  0  0  0  1  0  0  0  0  0  0
  194.0760  171.6260  145.3560 C   0  0  0  0  0  0  0  0  0  0  0  0
  188.5330  176.6760  143.2960 S   0  0  0  0  0  0  0  0  0  0  0  0
  188.2490  177.6370  141.7680 C   0  0  0  0  0  2  0  0  0  0  0  0
  186.7890  177.5700  141.3210 C   0  0  0  0  0  2  0  0  0  0  0  0
  185.9390  178.6040  142.0500 C   0  0  0  0  0  2  0  0  0  0  0  0
  184.6800  177.9320  142.5960 C   0  0  2  0  0  3  0  0  0  0  0  0
  183.6560  178.0180  141.6520 O   0  0  0  0  0  1  0  0  0  0  0  0
  184.2200  178.5830  143.8980 C   0  0  0  0  0  2  0  0  0  0  0  0
  185.7410  179.4070  145.5370 O   0  0  0  0  0  0  0  0  0  0  0  0
  185.2220  178.3920  144.9990 C   0  0  0  0  0  0  0  0  0  0  0  0
  185.5700  177.1190  145.4620 O   0  0  0  0  0  0  0  0  0  0  0  0
  185.9310  176.8750  146.8170 C   0  0  0  0  0  1  0  0  0  0  0  0
  195.6250  174.9200  137.9840 C   0  0  0  0  0  2  0  0  0  0  0  0
  197.4150  175.7280  136.4480 C   0  0  0  0  0  1  0  0  0  0  0  0
  195.9240  175.5200  136.6160 C   0  0  0  0  0  2  0  0  0  0  0  0
  1  5  1  0  0  0  0
  1 24  1  0  0  0  0
  2 25  1  0  0  0  0
  2 43  1  1  0  0  0
  3 27  1  0  0  0  0
  4 10  1  6  0  0  0
  4 22  1  0  0  0  0
  5 28  1  6  0  0  0
  5  4  1  0  0  0  0
  5 15  1  0  0  0  0
  6 19  1  0  0  0  0
  7 21  2  0  0  0  0
  7 18  1  0  0  0  0
  8 17  1  0  0  0  0
  9 12  1  0  0  0  0
 11 22  1  1  0  0  0
 11 12  1  0  0  0  0
 12  8  1  1  0  0  0
 13 10  1  1  0  0  0
 13 26  1  0  0  0  0
 13 11  1  0  0  0  0
 14 20  2  0  0  0  0
 15 29  1  0  0  0  0
 17 21  1  0  0  0  0
 17 32  1  1  0  0  0
 18 16  1  6  0  0  0
 18  6  1  0  0  0  0
 20  2  1  0  0  0  0
 20 27  1  0  0  0  0
 23 19  1  0  0  0  0
 24 31  1  1  0  0  0
 24 29  1  0  0  0  0
 25 16  1  6  0  0  0
 25 23  1  0  0  0  0
 26 54  1  1  0  0  0
 26  9  1  0  0  0  0
 29  3  2  0  0  0  0
 30 31  1  0  0  0  0
 32 33  1  0  0  0  0
 33 34  1  0  0  0  0
 34 35  1  0  0  0  0
 34 39  2  0  0  0  0
 35 38  1  0  0  0  0
 36 37  1  0  0  0  0
 37 38  1  0  0  0  0
 39 36  1  0  0  0  0
 40 42  2  0  0  0  0
 42 39  1  0  0  0  0
 42 41  1  0  0  0  0
 44 43  1  0  0  0  0
 45 44  1  0  0  0  0
 45 46  1  0  0  0  0
 46 47  1  0  0  0  0
 47 48  1  6  0  0  0
 47 49  1  0  0  0  0
 49 51  1  0  0  0  0
 51 52  1  0  0  0  0
 51 50  2  0  0  0  0
 52 53  1  0  0  0  0
 55 56  1  0  0  0  0
 56 54  1  0  0  0  0
M  END
>  <MODEL>
3

>  <REMARK>
 VINA RESULT:      -6.3      2.032      2.852
  Name = 
  15 active torsions:
  status: ('A' for Active; 'I' for Inactive)
    1  A    between atoms: C_3  and  S_16
    2  A    between atoms: C_4  and  N_38
    3  A    between atoms: C_5  and  C_8
    4  A    between atoms: C_5  and  O_27
    5  A    between atoms: C_7  and  C_30
    6  A    between atoms: C_7  and  N_38
    7  A    between atoms: C_8  and  C_12
    8  A    between atoms: C_12  and  C_35
    9  A    between atoms: S_16  and  C_34
   10  A    between atoms: C_21  and  C_46
   11  A    between atoms: C_34  and  C_49
   12  A    between atoms: C_35  and  C_49
   13  A    between atoms: C_37  and  C_43
   14  A    between atoms: C_43  and  C_51
   15  A    between atoms: C_50  and  C_56
                            x       y       z     vdW  Elec       q    Type
                         _______ _______ _______ _____ _____    ______ ____

>  <TORSDO>
F 15

$$$$
=
 OpenBabel11072408313D

 56 61  0  0  1  0  0  0  0  0999 V2000
  191.4050  170.7720  139.3410 C   0  0  0  0  0  2  0  0  0  0  0  0
  188.5560  174.9960  142.0900 C   0  0  2  0  0  3  0  0  0  0  0  0
  190.0850  171.5530  142.6680 C   0  0  0  0  0  3  0  0  0  0  0  0
  192.7600  172.9640  139.4010 C   0  0  2  0  0  3  0  0  0  0  0  0
  191.3670  172.3090  139.4080 C   0  0  2  0  0  0  0  0  0  0  0  0
  192.1600  177.4030  143.0250 C   0  0  0  0  0  2  0  0  0  0  0  0
  193.6200  175.5460  142.2770 C   0  0  0  0  0  3  0  0  0  0  0  0
  196.1550  173.8550  141.7290 C   0  0  0  0  0  2  0  0  0  0  0  0
  196.2250  174.6490  139.5810 O   0  0  0  0  0  0  0  0  0  0  0  0
  193.5250  172.8420  138.0940 C   0  0  0  0  0  2  0  0  0  0  0  0
  195.0660  172.7610  139.9820 C   0  0  2  0  0  3  0  0  0  0  0  0
  195.4050  174.0690  140.5030 N   0  0  1  0  0  0  0  0  0  0  0  0
  194.9960  172.9510  138.4920 C   0  0  2  0  0  3  0  0  0  0  0  0
  187.4410  172.7820  142.0270 C   0  0  0  0  0  2  0  0  0  0  0  0
  190.7380  172.6040  140.6350 O   0  0  0  0  0  0  0  0  0  0  0  0
  191.1010  175.3720  142.0020 C   0  0  0  0  0  2  0  0  0  0  0  0
  196.0730  175.0830  142.6310 C   0  0  1  0  0  3  0  0  0  0  0  0
  192.2750  175.8880  142.8510 C   0  0  2  0  0  3  0  0  0  0  0  0
  190.8230  177.7650  143.6690 C   0  0  0  0  0  2  0  0  0  0  0  0
  188.5010  173.5060  142.4240 C   0  0  0  0  0  0  0  0  0  0  0  0
  194.6670  175.3720  143.0930 C   0  0  0  0  0  3  0  0  0  0  0  0
  193.6830  172.3850  140.4420 C   0  0  0  0  0  2  0  0  0  0  0  0
  189.6650  177.2120  142.8390 C   0  0  0  0  0  2  0  0  0  0  0  0
  191.0420  170.2480  140.7400 C   0  0  2  0  0  3  0  0  0  0  0  0
  189.7860  175.6920  142.7310 C   0  0  1  0  0  3  0  0  0  0  0  0
  195.6450  174.3290  138.3360 C   0  0  1  0  0  3  0  0  0  0  0  0
  189.5850  172.8550  143.2520 C   0  0  0  0  0  2  0  0  0  0  0  0
  190.6010  172.8140  138.3560 O   0  0  0  0  0  1  0  0  0  0  0  0
  190.6100  171.4950  141.4420 C   0  0  0  0  0  0  0  0  0  0  0  0
  191.9400  168.5470  142.3720 C   0  0  0  0  0  1  0  0  0  0  0  0
  192.2900  169.6380  141.3640 C   0  0  0  0  0  2  0  0  0  0  0  0
  196.9440  174.9230  143.8820 C   0  0  0  0  0  2  0  0  0  0  0  0
  196.2700  174.2000  144.9630 N   0  0  0  0  0  2  0  0  0  0  0  0
  195.0310  174.5990  145.5580 C   0  0  0  0  0  0  0  0  0  0  0  0
  194.9420  175.9680  146.1940 C   0  0  0  0  0  2  0  0  0  0  0  0
  192.6290  174.1650  146.1430 C   0  0  0  0  0  2  0  0  0  0  0  0
  192.6820  175.4190  147.0110 C   0  0  0  0  0  2  0  0  0  0  0  0
  193.5110  176.4680  146.2990 C   0  0  0  0  0  2  0  0  0  0  0  0
  193.9750  173.7370  145.5840 C   0  0  0  0  0  0  0  0  0  0  0  0
  193.5370  172.0830  143.9300 O   0  0  0  0  0  0  0  0  0  0  0  0
  194.6660  171.3310  145.7580 O   0  0  0  0  0  1  0  0  0  0  0  0
  194.0440  172.3550  145.0500 C   0  0  0  0  0  0  0  0  0  0  0  0
  186.9810  175.8120  142.5610 S   0  0  0  0  0  0  0  0  0  0  0  0
  186.8610  176.7690  141.0100 C   0  0  0  0  0  2  0  0  0  0  0  0
  186.3760  178.1970  141.2620 C   0  0  0  0  0  2  0  0  0  0  0  0
  184.8540  178.2700  141.2800 C   0  0  0  0  0  2  0  0  0  0  0  0
  184.3630  178.2800  142.7270 C   0  0  2  0  0  3  0  0  0  0  0  0
  183.0260  178.6740  142.7640 O   0  0  0  0  0  1  0  0  0  0  0  0
  185.1910  179.2280  143.5910 C   0  0  0  0  0  2  0  0  0  0  0  0
  186.7320  178.4040  145.2120 O   0  0  0  0  0  0  0  0  0  0  0  0
  185.5240  178.6200  144.9220 C   0  0  0  0  0  0  0  0  0  0  0  0
  184.5310  178.3150  145.8580 O   0  0  0  0  0  0  0  0  0  0  0  0
  184.7880  178.2910  147.2590 C   0  0  0  0  0  1  0  0  0  0  0  0
  194.7050  175.4500  137.8920 C   0  0  0  0  0  2  0  0  0  0  0  0
  193.5550  176.4040  135.8960 C   0  0  0  0  0  1  0  0  0  0  0  0
  194.7810  175.6620  136.3850 C   0  0  0  0  0  2  0  0  0  0  0  0
  1  5  1  0  0  0  0
  1 24  1  0  0  0  0
  2 20  1  0  0  0  0
  2 43  1  1  0  0  0
  2 25  1  0  0  0  0
  3 27  1  0  0  0  0
  4 10  1  6  0  0  0
  4  5  1  0  0  0  0
  4 22  1  0  0  0  0
  5 28  1  6  0  0  0
  5 15  1  0  0  0  0
  6 19  1  0  0  0  0
  7 18  1  0  0  0  0
  7 21  2  0  0  0  0
  8 17  1  0  0  0  0
  9 12  1  0  0  0  0
 11 22  1  1  0  0  0
 11 12  1  0  0  0  0
 12  8  1  1  0  0  0
 13 10  1  1  0  0  0
 13 11  1  0  0  0  0
 14 20  2  0  0  0  0
 15 29  1  0  0  0  0
 17 21  1  0  0  0  0
 17 32  1  1  0  0  0
 18 16  1  6  0  0  0
 18  6  1  0  0  0  0
 20 27  1  0  0  0  0
 23 19  1  0  0  0  0
 24 31  1  1  0  0  0
 24 29  1  0  0  0  0
 25 16  1  6  0  0  0
 25 23  1  0  0  0  0
 26 54  1  1  0  0  0
 26 13  1  0  0  0  0
 26  9  1  0  0  0  0
 29  3  2  0  0  0  0
 31 30  1  0  0  0  0
 32 33  1  0  0  0  0
 33 34  1  0  0  0  0
 34 39  2  0  0  0  0
 34 35  1  0  0  0  0
 35 38  1  0  0  0  0
 36 37  1  0  0  0  0
 38 37  1  0  0  0  0
 39 36  1  0  0  0  0
 40 42  2  0  0  0  0
 42 39  1  0  0  0  0
 42 41  1  0  0  0  0
 44 45  1  0  0  0  0
 44 43  1  0  0  0  0
 45 46  1  0  0  0  0
 46 47  1  0  0  0  0
 47 48  1  6  0  0  0
 47 49  1  0  0  0  0
 49 51  1  0  0  0  0
 51 50  2  0  0  0  0
 51 52  1  0  0  0  0
 52 53  1  0  0  0  0
 55 56  1  0  0  0  0
 56 54  1  0  0  0  0
M  END
>  <MODEL>
4

>  <REMARK>
 VINA RESULT:      -6.2      2.098      3.155
  Name = 
  15 active torsions:
  status: ('A' for Active; 'I' for Inactive)
    1  A    between atoms: C_3  and  S_16
    2  A    between atoms: C_4  and  N_38
    3  A    between atoms: C_5  and  C_8
    4  A    between atoms: C_5  and  O_27
    5  A    between atoms: C_7  and  C_30
    6  A    between atoms: C_7  and  N_38
    7  A    between atoms: C_8  and  C_12
    8  A    between atoms: C_12  and  C_35
    9  A    between atoms: S_16  and  C_34
   10  A    between atoms: C_21  and  C_46
   11  A    between atoms: C_34  and  C_49
   12  A    between atoms: C_35  and  C_49
   13  A    between atoms: C_37  and  C_43
   14  A    between atoms: C_43  and  C_51
   15  A    between atoms: C_50  and  C_56
                            x       y       z     vdW  Elec       q    Type
                         _______ _______ _______ _____ _____    ______ ____

>  <TORSDO>
F 15

$$$$
=
 OpenBabel11072408313D

 56 61  0  0  1  0  0  0  0  0999 V2000
  195.9790  173.4120  145.2180 C   0  0  0  0  0  2  0  0  0  0  0  0
  190.3860  174.8620  145.5780 C   0  0  2  0  0  3  0  0  0  0  0  0
  193.8270  176.3610  144.9170 C   0  0  0  0  0  3  0  0  0  0  0  0
  194.5640  172.2360  143.4140 C   0  0  2  0  0  3  0  0  0  0  0  0
  194.5980  172.8630  144.8190 C   0  0  2  0  0  0  0  0  0  0  0  0
  189.3970  173.7910  141.3910 C   0  0  0  0  0  2  0  0  0  0  0  0
  191.8040  173.5050  140.8740 C   0  0  0  0  0  3  0  0  0  0  0  0
  194.4220  173.0520  139.2850 C   0  0  0  0  0  2  0  0  0  0  0  0
  194.3720  170.8270  139.8280 O   0  0  0  0  0  0  0  0  0  0  0  0
  195.3420  170.9390  143.2660 C   0  0  0  0  0  2  0  0  0  0  0  0
  195.4630  172.2360  141.2040 C   0  0  2  0  0  3  0  0  0  0  0  0
  194.2990  172.0810  140.3580 N   0  0  1  0  0  0  0  0  0  0  0  0
  195.6990  170.8680  141.7820 C   0  0  2  0  0  3  0  0  0  0  0  0
  191.9140  175.9830  147.1770 C   0  0  0  0  0  2  0  0  0  0  0  0
  193.7430  173.9840  144.8310 O   0  0  0  0  0  0  0  0  0  0  0  0
  191.0640  173.9810  143.2560 C   0  0  0  0  0  2  0  0  0  0  0  0
  193.0540  173.3720  138.6880 C   0  0  1  0  0  3  0  0  0  0  0  0
  190.8190  174.2180  141.7570 C   0  0  2  0  0  3  0  0  0  0  0  0
  188.3790  174.5550  142.2350 C   0  0  0  0  0  2  0  0  0  0  0  0
  191.5740  175.7690  145.8950 C   0  0  0  0  0  0  0  0  0  0  0  0
  192.1250  174.0230  139.6820 C   0  0  0  0  0  3  0  0  0  0  0  0
  195.1270  173.1470  142.3540 C   0  0  0  0  0  2  0  0  0  0  0  0
  188.6560  174.3450  143.7230 C   0  0  0  0  0  2  0  0  0  0  0  0
  195.8950  174.9460  145.1470 C   0  0  2  0  0  3  0  0  0  0  0  0
  190.0660  174.8300  144.0590 C   0  0  1  0  0  3  0  0  0  0  0  0
  194.7870  170.0100  140.9010 C   0  0  1  0  0  3  0  0  0  0  0  0
  192.3250  176.4790  144.7920 C   0  0  0  0  0  2  0  0  0  0  0  0
  194.1630  171.9320  145.7640 O   0  0  0  0  0  1  0  0  0  0  0  0
  194.4330  175.1720  144.9330 C   0  0  0  0  0  0  0  0  0  0  0  0
  197.9390  174.5140  143.7320 C   0  0  0  0  0  1  0  0  0  0  0  0
  196.7320  175.4190  143.9660 C   0  0  0  0  0  2  0  0  0  0  0  0
  193.1710  174.3130  137.4840 C   0  0  0  0  0  2  0  0  0  0  0  0
  192.3840  173.8720  136.3300 N   0  0  0  0  0  2  0  0  0  0  0  0
  191.9000  172.5380  136.1390 C   0  0  0  0  0  0  0  0  0  0  0  0
  192.8470  171.4970  135.5850 C   0  0  0  0  0  2  0  0  0  0  0  0
  190.0830  170.8120  136.2870 C   0  0  0  0  0  2  0  0  0  0  0  0
  190.9820  169.8910  135.4670 C   0  0  0  0  0  2  0  0  0  0  0  0
  192.4150  170.0800  135.9210 C   0  0  0  0  0  2  0  0  0  0  0  0
  190.5980  172.2360  136.4120 C   0  0  0  0  0  0  0  0  0  0  0  0
  188.9790  173.0630  137.9460 O   0  0  0  0  0  1  0  0  0  0  0  0
  189.3620  174.4040  136.1470 O   0  0  0  0  0  0  0  0  0  0  0  0
  189.6120  173.2430  136.8730 C   0  0  0  0  0  0  0  0  0  0  0  0
  188.9270  175.3530  146.5780 S   0  0  0  0  0  0  0  0  0  0  0  0
  188.7830  176.9990  145.8000 C   0  0  0  0  0  2  0  0  0  0  0  0
  187.3870  177.5940  145.9890 C   0  0  0  0  0  2  0  0  0  0  0  0
  186.3410  176.8170  145.2010 C   0  0  0  0  0  2  0  0  0  0  0  0
  185.8040  177.6920  144.0690 C   0  0  2  0  0  3  0  0  0  0  0  0
  184.5160  178.1260  144.3860 O   0  0  0  0  0  1  0  0  0  0  0  0
  185.7670  176.9330  142.7450 C   0  0  0  0  0  2  0  0  0  0  0  0
  185.2360  178.5650  141.0910 O   0  0  0  0  0  0  0  0  0  0  0  0
  186.1240  177.8190  141.5870 C   0  0  0  0  0  0  0  0  0  0  0  0
  187.4210  177.8580  141.0660 O   0  0  0  0  0  0  0  0  0  0  0  0
  188.5610  178.1070  141.8830 C   0  0  0  0  0  1  0  0  0  0  0  0
  193.5700  169.4110  141.6060 C   0  0  0  0  0  2  0  0  0  0  0  0
  191.1540  169.9680  141.8680 C   0  0  0  0  0  1  0  0  0  0  0  0
  192.2830  169.7750  140.8770 C   0  0  0  0  0  2  0  0  0  0  0  0
  2 20  1  0  0  0  0
  2 43  1  1  0  0  0
  3 29  2  0  0  0  0
  4 22  1  6  0  0  0
  4  5  1  0  0  0  0
  5 15  1  0  0  0  0
  5  1  1  0  0  0  0
  5 28  1  1  0  0  0
  6 18  1  0  0  0  0
  6 19  1  0  0  0  0
  9 12  1  0  0  0  0
  9 26  1  0  0  0  0
 10  4  1  0  0  0  0
 11 13  1  0  0  0  0
 11 22  1  1  0  0  0
 12  8  1  6  0  0  0
 12 11  1  0  0  0  0
 13 10  1  1  0  0  0
 15 29  1  0  0  0  0
 17 32  1  6  0  0  0
 17  8  1  0  0  0  0
 17 21  1  0  0  0  0
 18  7  1  6  0  0  0
 18 16  1  0  0  0  0
 19 23  1  0  0  0  0
 20 14  2  0  0  0  0
 21  7  2  0  0  0  0
 23 25  1  0  0  0  0
 24 31  1  6  0  0  0
 24  1  1  0  0  0  0
 25 16  1  6  0  0  0
 25  2  1  0  0  0  0
 26 54  1  1  0  0  0
 26 13  1  0  0  0  0
 27  3  1  0  0  0  0
 27 20  1  0  0  0  0
 29 24  1  0  0  0  0
 30 31  1  0  0  0  0
 33 32  1  0  0  0  0
 34 33  1  0  0  0  0
 34 39  2  0  0  0  0
 35 38  1  0  0  0  0
 35 34  1  0  0  0  0
 36 39  1  0  0  0  0
 37 38  1  0  0  0  0
 37 36  1  0  0  0  0
 39 42  1  0  0  0  0
 41 42  2  0  0  0  0
 42 40  1  0  0  0  0
 44 45  1  0  0  0  0
 44 43  1  0  0  0  0
 46 45  1  0  0  0  0
 47 48  1  1  0  0  0
 47 46  1  0  0  0  0
 49 47  1  0  0  0  0
 50 51  2  0  0  0  0
 51 49  1  0  0  0  0
 52 51  1  0  0  0  0
 52 53  1  0  0  0  0
 56 54  1  0  0  0  0
 56 55  1  0  0  0  0
M  END
>  <MODEL>
5

>  <REMARK>
 VINA RESULT:      -6.1      2.694      6.727
  Name = 
  15 active torsions:
  status: ('A' for Active; 'I' for Inactive)
    1  A    between atoms: C_3  and  S_16
    2  A    between atoms: C_4  and  N_38
    3  A    between atoms: C_5  and  C_8
    4  A    between atoms: C_5  and  O_27
    5  A    between atoms: C_7  and  C_30
    6  A    between atoms: C_7  and  N_38
    7  A    between atoms: C_8  and  C_12
    8  A    between atoms: C_12  and  C_35
    9  A    between atoms: S_16  and  C_34
   10  A    between atoms: C_21  and  C_46
   11  A    between atoms: C_34  and  C_49
   12  A    between atoms: C_35  and  C_49
   13  A    between atoms: C_37  and  C_43
   14  A    between atoms: C_43  and  C_51
   15  A    between atoms: C_50  and  C_56
                            x       y       z     vdW  Elec       q    Type
                         _______ _______ _______ _____ _____    ______ ____

>  <TORSDO>
F 15

$$$$
=
 OpenBabel11072408313D

 56 61  0  0  1  0  0  0  0  0999 V2000
  197.7680  174.1660  144.7050 C   0  0  0  0  0  2  0  0  0  0  0  0
  192.3370  175.8620  145.7740 C   0  0  2  0  0  3  0  0  0  0  0  0
  195.0100  175.9300  143.0600 C   0  0  0  0  0  3  0  0  0  0  0  0
  196.1980  172.1620  145.1130 C   0  0  2  0  0  3  0  0  0  0  0  0
  196.4920  173.6480  145.3920 C   0  0  2  0  0  0  0  0  0  0  0  0
  190.4560  172.0080  144.6520 C   0  0  0  0  0  2  0  0  0  0  0  0
  192.6130  171.1990  143.7370 C   0  0  0  0  0  3  0  0  0  0  0  0
  194.6960  169.4230  142.2890 C   0  0  0  0  0  2  0  0  0  0  0  0
  195.3080  168.5000  144.2930 O   0  0  0  0  0  0  0  0  0  0  0  0
  197.1730  171.1820  145.7420 C   0  0  0  0  0  2  0  0  0  0  0  0
  196.4010  170.3380  143.5890 C   0  0  2  0  0  3  0  0  0  0  0  0
  195.1090  169.6880  143.6560 N   0  0  1  0  0  0  0  0  0  0  0  0
  197.0960  169.9370  144.8600 C   0  0  2  0  0  3  0  0  0  0  0  0
  193.9650  177.6590  145.2560 C   0  0  0  0  0  2  0  0  0  0  0  0
  195.4460  174.4220  144.8480 O   0  0  0  0  0  0  0  0  0  0  0  0
  192.5000  173.4330  144.9370 C   0  0  0  0  0  2  0  0  0  0  0  0
  193.1790  169.2790  142.2030 C   0  0  1  0  0  3  0  0  0  0  0  0
  191.7890  172.4210  144.0250 C   0  0  2  0  0  3  0  0  0  0  0  0
  189.5780  173.2340  144.8920 C   0  0  0  0  0  2  0  0  0  0  0  0
  193.3290  176.5520  144.8390 C   0  0  0  0  0  0  0  0  0  0  0  0
  192.4520  170.5460  142.5790 C   0  0  0  0  0  3  0  0  0  0  0  0
  196.2120  171.8300  143.6430 C   0  0  0  0  0  2  0  0  0  0  0  0
  190.3110  174.2510  145.7660 C   0  0  0  0  0  2  0  0  0  0  0  0
  197.3220  175.0520  143.5300 C   0  0  2  0  0  3  0  0  0  0  0  0
  191.6100  174.6780  145.0830 C   0  0  1  0  0  3  0  0  0  0  0  0
  196.1880  168.8070  145.3530 C   0  0  1  0  0  3  0  0  0  0  0  0
  193.5490  176.0460  143.4320 C   0  0  0  0  0  2  0  0  0  0  0  0
  196.5680  173.8650  146.7690 O   0  0  0  0  0  1  0  0  0  0  0  0
  195.8490  175.1600  143.7570 C   0  0  0  0  0  0  0  0  0  0  0  0
  197.8770  175.3130  141.0830 C   0  0  0  0  0  1  0  0  0  0  0  0
  197.6550  174.3320  142.2310 C   0  0  0  0  0  2  0  0  0  0  0  0
  192.7280  168.8930  140.7900 C   0  0  0  0  0  2  0  0  0  0  0  0
  193.0140  169.9270  139.7920 N   0  0  0  0  0  2  0  0  0  0  0  0
  192.1430  171.0200  139.4820 C   0  0  0  0  0  0  0  0  0  0  0  0
  190.7110  170.7180  139.1010 C   0  0  0  0  0  2  0  0  0  0  0  0
  191.6940  173.4780  139.2390 C   0  0  0  0  0  2  0  0  0  0  0  0
  190.3650  173.1040  138.5900 C   0  0  0  0  0  2  0  0  0  0  0  0
  189.7890  171.9060  139.3160 C   0  0  0  0  0  2  0  0  0  0  0  0
  192.6180  172.2980  139.4920 C   0  0  0  0  0  0  0  0  0  0  0  0
  194.3750  173.0250  140.9220 O   0  0  0  0  0  1  0  0  0  0  0  0
  195.0180  172.5250  138.7960 O   0  0  0  0  0  0  0  0  0  0  0  0
  194.0340  172.6340  139.7740 C   0  0  0  0  0  0  0  0  0  0  0  0
  191.1560  177.0870  146.4630 S   0  0  0  0  0  0  0  0  0  0  0  0
  190.5780  177.6480  144.8230 C   0  0  0  0  0  2  0  0  0  0  0  0
  189.0710  177.4520  144.6560 C   0  0  0  0  0  2  0  0  0  0  0  0
  188.6110  177.8610  143.2620 C   0  0  0  0  0  2  0  0  0  0  0  0
  187.0870  177.9770  143.2440 C   0  0  2  0  0  3  0  0  0  0  0  0
  186.7070  179.0110  142.3890 O   0  0  0  0  0  1  0  0  0  0  0  0
  186.5320  178.2490  144.6400 C   0  0  0  0  0  2  0  0  0  0  0  0
  185.5850  176.0720  144.4280 O   0  0  0  0  0  0  0  0  0  0  0  0
  185.6690  177.1200  145.1240 C   0  0  0  0  0  0  0  0  0  0  0  0
  184.9820  177.1920  146.3400 O   0  0  0  0  0  0  0  0  0  0  0  0
  184.4940  178.4220  146.8660 C   0  0  0  0  0  1  0  0  0  0  0  0
  195.3930  169.1110  146.6230 C   0  0  0  0  0  2  0  0  0  0  0  0
  197.2020  168.4470  148.2040 C   0  0  0  0  0  1  0  0  0  0  0  0
  195.7840  168.1660  147.7520 C   0  0  0  0  0  2  0  0  0  0  0  0
  1  5  1  0  0  0  0
  2 43  1  6  0  0  0
  3 27  1  0  0  0  0
  3 29  2  0  0  0  0
  4 22  1  6  0  0  0
  4  5  1  0  0  0  0
  4 10  1  0  0  0  0
  5 28  1  1  0  0  0
  6 19  1  0  0  0  0
  9 26  1  0  0  0  0
 11 22  1  1  0  0  0
 11 12  1  0  0  0  0
 11 13  1  0  0  0  0
 12  8  1  6  0  0  0
 12  9  1  0  0  0  0
 13 26  1  0  0  0  0
 13 10  1  1  0  0  0
 15  5  1  0  0  0  0
 17 32  1  6  0  0  0
 17  8  1  0  0  0  0
 17 21  1  0  0  0  0
 18  7  1  1  0  0  0
 18  6  1  0  0  0  0
 18 16  1  0  0  0  0
 19 23  1  0  0  0  0
 20 14  2  0  0  0  0
 20  2  1  0  0  0  0
 21  7  2  0  0  0  0
 24 31  1  6  0  0  0
 24 29  1  0  0  0  0
 24  1  1  0  0  0  0
 25 16  1  1  0  0  0
 25 23  1  0  0  0  0
 25  2  1  0  0  0  0
 26 54  1  1  0  0  0
 27 20  1  0  0  0  0
 29 15  1  0  0  0  0
 30 31  1  0  0  0  0
 33 32  1  0  0  0  0
 34 39  2  0  0  0  0
 34 33  1  0  0  0  0
 35 38  1  0  0  0  0
 35 34  1  0  0  0  0
 36 39  1  0  0  0  0
 37 36  1  0  0  0  0
 37 38  1  0  0  0  0
 39 42  1  0  0  0  0
 41 42  2  0  0  0  0
 42 40  1  0  0  0  0
 44 43  1  0  0  0  0
 45 44  1  0  0  0  0
 46 45  1  0  0  0  0
 47 48  1  6  0  0  0
 47 46  1  0  0  0  0
 47 49  1  0  0  0  0
 49 51  1  0  0  0  0
 50 51  2  0  0  0  0
 51 52  1  0  0  0  0
 52 53  1  0  0  0  0
 54 56  1  0  0  0  0
 56 55  1  0  0  0  0
M  END
>  <MODEL>
6

>  <REMARK>
 VINA RESULT:      -6.0      2.716      7.019
  Name = 
  15 active torsions:
  status: ('A' for Active; 'I' for Inactive)
    1  A    between atoms: C_3  and  S_16
    2  A    between atoms: C_4  and  N_38
    3  A    between atoms: C_5  and  C_8
    4  A    between atoms: C_5  and  O_27
    5  A    between atoms: C_7  and  C_30
    6  A    between atoms: C_7  and  N_38
    7  A    between atoms: C_8  and  C_12
    8  A    between atoms: C_12  and  C_35
    9  A    between atoms: S_16  and  C_34
   10  A    between atoms: C_21  and  C_46
   11  A    between atoms: C_34  and  C_49
   12  A    between atoms: C_35  and  C_49
   13  A    between atoms: C_37  and  C_43
   14  A    between atoms: C_43  and  C_51
   15  A    between atoms: C_50  and  C_56
                            x       y       z     vdW  Elec       q    Type
                         _______ _______ _______ _____ _____    ______ ____

>  <TORSDO>
F 15

$$$$
=
 OpenBabel11072408313D

 56 61  0  0  1  0  0  0  0  0999 V2000
  197.6220  174.1700  144.3810 C   0  0  0  0  0  2  0  0  0  0  0  0
  192.2680  174.9860  146.4270 C   0  0  2  0  0  3  0  0  0  0  0  0
  194.7840  176.4500  143.9690 C   0  0  0  0  0  3  0  0  0  0  0  0
  196.0680  172.1900  143.8240 C   0  0  2  0  0  3  0  0  0  0  0  0
  196.3840  173.3490  144.7860 C   0  0  2  0  0  0  0  0  0  0  0  0
  190.3090  172.1470  143.6410 C   0  0  0  0  0  2  0  0  0  0  0  0
  192.4070  171.9480  142.3370 C   0  0  0  0  0  3  0  0  0  0  0  0
  194.3960  171.1710  140.0950 C   0  0  0  0  0  2  0  0  0  0  0  0
  195.1160  169.3920  141.3460 O   0  0  0  0  0  0  0  0  0  0  0  0
  197.0730  171.0500  143.8340 C   0  0  0  0  0  2  0  0  0  0  0  0
  196.1760  171.3630  141.5880 C   0  0  2  0  0  3  0  0  0  0  0  0
  194.8870  170.7350  141.3910 N   0  0  1  0  0  0  0  0  0  0  0  0
  196.9400  170.4030  142.4570 C   0  0  2  0  0  3  0  0  0  0  0  0
  193.8730  176.8420  146.7840 C   0  0  0  0  0  2  0  0  0  0  0  0
  195.3130  174.2660  144.7510 O   0  0  0  0  0  0  0  0  0  0  0  0
  192.3730  173.2930  144.4900 C   0  0  0  0  0  2  0  0  0  0  0  0
  192.8760  171.0510  140.0270 C   0  0  1  0  0  3  0  0  0  0  0  0
  191.6060  172.8480  143.2340 C   0  0  2  0  0  3  0  0  0  0  0  0
  189.4510  173.0730  144.5010 C   0  0  0  0  0  2  0  0  0  0  0  0
  193.2090  176.0710  145.9060 C   0  0  0  0  0  0  0  0  0  0  0  0
  192.1780  171.9500  141.0170 C   0  0  0  0  0  3  0  0  0  0  0  0
  195.9980  172.6280  142.3840 C   0  0  0  0  0  2  0  0  0  0  0  0
  190.2370  173.5420  145.7250 C   0  0  0  0  0  2  0  0  0  0  0  0
  197.1150  175.5100  143.8240 C   0  0  2  0  0  3  0  0  0  0  0  0
  191.4970  174.2820  145.2780 C   0  0  1  0  0  3  0  0  0  0  0  0
  196.0560  169.1560  142.3710 C   0  0  1  0  0  3  0  0  0  0  0  0
  193.3480  176.3320  144.4240 C   0  0  0  0  0  2  0  0  0  0  0  0
  196.5390  172.8600  146.0840 O   0  0  0  0  0  1  0  0  0  0  0  0
  195.6570  175.4570  144.1500 C   0  0  0  0  0  0  0  0  0  0  0  0
  196.4640  176.5360  141.6130 C   0  0  0  0  0  1  0  0  0  0  0  0
  197.3710  175.5350  142.3230 C   0  0  0  0  0  2  0  0  0  0  0  0
  192.3450  171.4050  138.6330 C   0  0  0  0  0  2  0  0  0  0  0  0
  191.7130  172.7240  138.5750 N   0  0  0  0  0  2  0  0  0  0  0  0
  192.1740  173.8120  137.7670 C   0  0  0  0  0  0  0  0  0  0  0  0
  193.4810  174.4810  138.1310 C   0  0  0  0  0  2  0  0  0  0  0  0
  191.9250  175.3560  135.8040 C   0  0  0  0  0  2  0  0  0  0  0  0
  193.0820  176.1680  136.3790 C   0  0  0  0  0  2  0  0  0  0  0  0
  194.1070  175.2130  136.9560 C   0  0  0  0  0  2  0  0  0  0  0  0
  191.4210  174.2540  136.7200 C   0  0  0  0  0  0  0  0  0  0  0  0
  190.0000  172.7700  135.5200 O   0  0  0  0  0  0  0  0  0  0  0  0
  188.9290  174.1380  136.9920 O   0  0  0  0  0  1  0  0  0  0  0  0
  190.0940  173.6860  136.3790 C   0  0  0  0  0  0  0  0  0  0  0  0
  191.1330  175.6810  147.6910 S   0  0  0  0  0  0  0  0  0  0  0  0
  190.3440  176.8500  146.5300 C   0  0  0  0  0  2  0  0  0  0  0  0
  188.8380  176.9550  146.7680 C   0  0  0  0  0  2  0  0  0  0  0  0
  188.0530  176.6240  145.5040 C   0  0  0  0  0  2  0  0  0  0  0  0
  187.7930  177.9080  144.7170 C   0  0  2  0  0  3  0  0  0  0  0  0
  186.5060  178.3700  144.9880 O   0  0  0  0  0  1  0  0  0  0  0  0
  187.9400  177.6800  143.2150 C   0  0  0  0  0  2  0  0  0  0  0  0
  190.3050  177.9170  143.0330 O   0  0  0  0  0  0  0  0  0  0  0  0
  189.3060  177.1670  142.8610 C   0  0  0  0  0  0  0  0  0  0  0  0
  189.4990  175.8690  142.3760 O   0  0  0  0  0  0  0  0  0  0  0  0
  188.5090  175.1890  141.6110 C   0  0  0  0  0  1  0  0  0  0  0  0
  195.3350  168.7730  143.6640 C   0  0  0  0  0  2  0  0  0  0  0  0
  193.0680  169.2110  144.6050 C   0  0  0  0  0  1  0  0  0  0  0  0
  193.8360  168.6350  143.4330 C   0  0  0  0  0  2  0  0  0  0  0  0
  1  5  1  0  0  0  0
  2 43  1  1  0  0  0
  3 29  2  0  0  0  0
  3 27  1  0  0  0  0
  4 22  1  6  0  0  0
  4 10  1  0  0  0  0
  4  5  1  0  0  0  0
  5 28  1  1  0  0  0
  6 19  1  0  0  0  0
  9 12  1  0  0  0  0
  9 26  1  0  0  0  0
 11 22  1  1  0  0  0
 11 13  1  0  0  0  0
 12  8  1  6  0  0  0
 12 11  1  0  0  0  0
 13 10  1  1  0  0  0
 15  5  1  0  0  0  0
 17 32  1  6  0  0  0
 17  8  1  0  0  0  0
 17 21  1  0  0  0  0
 18  7  1  1  0  0  0
 18  6  1  0  0  0  0
 18 16  1  0  0  0  0
 19 23  1  0  0  0  0
 20  2  1  0  0  0  0
 20 14  2  0  0  0  0
 21  7  2  0  0  0  0
 24 31  1  6  0  0  0
 24 29  1  0  0  0  0
 24  1  1  0  0  0  0
 25 16  1  1  0  0  0
 25 23  1  0  0  0  0
 25  2  1  0  0  0  0
 26 13  1  0  0  0  0
 26 54  1  1  0  0  0
 27 20  1  0  0  0  0
 29 15  1  0  0  0  0
 30 31  1  0  0  0  0
 33 32  1  0  0  0  0
 34 35  1  0  0  0  0
 34 33  1  0  0  0  0
 36 37  1  0  0  0  0
 36 39  1  0  0  0  0
 37 38  1  0  0  0  0
 38 35  1  0  0  0  0
 39 34  2  0  0  0  0
 40 42  2  0  0  0  0
 42 39  1  0  0  0  0
 42 41  1  0  0  0  0
 44 45  1  0  0  0  0
 44 43  1  0  0  0  0
 46 45  1  0  0  0  0
 47 48  1  6  0  0  0
 47 46  1  0  0  0  0
 49 47  1  0  0  0  0
 51 50  2  0  0  0  0
 51 49  1  0  0  0  0
 52 51  1  0  0  0  0
 53 52  1  0  0  0  0
 56 54  1  0  0  0  0
 56 55  1  0  0  0  0
M  END
>  <MODEL>
7

>  <REMARK>
 VINA RESULT:      -6.0      2.567      6.996
  Name = 
  15 active torsions:
  status: ('A' for Active; 'I' for Inactive)
    1  A    between atoms: C_3  and  S_16
    2  A    between atoms: C_4  and  N_38
    3  A    between atoms: C_5  and  C_8
    4  A    between atoms: C_5  and  O_27
    5  A    between atoms: C_7  and  C_30
    6  A    between atoms: C_7  and  N_38
    7  A    between atoms: C_8  and  C_12
    8  A    between atoms: C_12  and  C_35
    9  A    between atoms: S_16  and  C_34
   10  A    between atoms: C_21  and  C_46
   11  A    between atoms: C_34  and  C_49
   12  A    between atoms: C_35  and  C_49
   13  A    between atoms: C_37  and  C_43
   14  A    between atoms: C_43  and  C_51
   15  A    between atoms: C_50  and  C_56
                            x       y       z     vdW  Elec       q    Type
                         _______ _______ _______ _____ _____    ______ ____

>  <TORSDO>
F 15

$$$$
=
 OpenBabel11072408313D

 56 61  0  0  1  0  0  0  0  0999 V2000
  197.7750  173.9660  144.2330 C   0  0  0  0  0  2  0  0  0  0  0  0
  192.5330  175.5750  146.0890 C   0  0  2  0  0  3  0  0  0  0  0  0
  194.9430  176.0330  143.1720 C   0  0  0  0  0  3  0  0  0  0  0  0
  196.1790  171.9560  144.4630 C   0  0  2  0  0  3  0  0  0  0  0  0
  196.5510  173.3680  144.9480 C   0  0  2  0  0  0  0  0  0  0  0  0
  190.4170  171.9970  144.5470 C   0  0  0  0  0  2  0  0  0  0  0  0
  192.4490  171.3050  143.3070 C   0  0  0  0  0  3  0  0  0  0  0  0
  194.3220  169.7500  141.3940 C   0  0  0  0  0  2  0  0  0  0  0  0
  195.0840  168.4970  143.1530 O   0  0  0  0  0  0  0  0  0  0  0  0
  197.1720  170.8650  144.8270 C   0  0  0  0  0  2  0  0  0  0  0  0
  196.1720  170.4030  142.6520 C   0  0  2  0  0  3  0  0  0  0  0  0
  194.8700  169.7780  142.7390 N   0  0  1  0  0  0  0  0  0  0  0  0
  196.9680  169.7840  143.7680 C   0  0  2  0  0  3  0  0  0  0  0  0
  194.1700  177.3990  145.7110 C   0  0  0  0  0  2  0  0  0  0  0  0
  195.4880  174.2430  144.6420 O   0  0  0  0  0  0  0  0  0  0  0  0
  192.5300  173.3140  144.8580 C   0  0  0  0  0  2  0  0  0  0  0  0
  192.7990  169.6520  141.4350 C   0  0  1  0  0  3  0  0  0  0  0  0
  191.7000  172.4800  143.8680 C   0  0  2  0  0  3  0  0  0  0  0  0
  189.6110  173.1850  145.0670 C   0  0  0  0  0  2  0  0  0  0  0  0
  193.4580  176.3890  145.1850 C   0  0  0  0  0  0  0  0  0  0  0  0
  192.1570  170.8560  142.0800 C   0  0  0  0  0  3  0  0  0  0  0  0
  196.0440  171.8690  142.9650 C   0  0  0  0  0  2  0  0  0  0  0  0
  190.4580  174.0290  146.0180 C   0  0  0  0  0  2  0  0  0  0  0  0
  197.2540  175.0430  143.2670 C   0  0  2  0  0  3  0  0  0  0  0  0
  191.7020  174.5360  145.2890 C   0  0  1  0  0  3  0  0  0  0  0  0
  196.0690  168.6080  144.1570 C   0  0  1  0  0  3  0  0  0  0  0  0
  193.5280  176.1160  143.7000 C   0  0  0  0  0  2  0  0  0  0  0  0
  196.7640  173.3550  146.3280 O   0  0  0  0  0  1  0  0  0  0  0  0
  195.8140  175.1420  143.6510 C   0  0  0  0  0  0  0  0  0  0  0  0
  197.6900  175.6860  140.8660 C   0  0  0  0  0  1  0  0  0  0  0  0
  197.4390  174.5400  141.8410 C   0  0  0  0  0  2  0  0  0  0  0  0
  192.2050  169.5140  140.0280 C   0  0  0  0  0  2  0  0  0  0  0  0
  191.2000  170.5340  139.7250 N   0  0  0  0  0  2  0  0  0  0  0  0
  191.3610  171.5700  138.7500 C   0  0  0  0  0  0  0  0  0  0  0  0
  192.4320  171.4100  137.6950 C   0  0  0  0  0  2  0  0  0  0  0  0
  190.6920  173.7700  137.7430 C   0  0  0  0  0  2  0  0  0  0  0  0
  191.9570  173.6910  136.8950 C   0  0  0  0  0  2  0  0  0  0  0  0
  192.1640  172.2550  136.4610 C   0  0  0  0  0  2  0  0  0  0  0  0
  190.5890  172.6930  138.8100 C   0  0  0  0  0  0  0  0  0  0  0  0
  189.9500  173.3940  140.9920 O   0  0  0  0  0  1  0  0  0  0  0  0
  188.2370  172.6610  139.6840 O   0  0  0  0  0  0  0  0  0  0  0  0
  189.5880  172.9320  139.8770 C   0  0  0  0  0  0  0  0  0  0  0  0
  191.4660  176.6940  147.0790 S   0  0  0  0  0  0  0  0  0  0  0  0
  190.4150  177.1600  145.6600 C   0  0  0  0  0  2  0  0  0  0  0  0
  189.0050  177.5530  146.1050 C   0  0  0  0  0  2  0  0  0  0  0  0
  187.9630  176.5850  145.5590 C   0  0  0  0  0  2  0  0  0  0  0  0
  186.6120  177.2940  145.4640 C   0  0  2  0  0  3  0  0  0  0  0  0
  185.8900  177.0820  146.6380 O   0  0  0  0  0  1  0  0  0  0  0  0
  185.7990  176.7890  144.2750 C   0  0  0  0  0  2  0  0  0  0  0  0
  187.1080  175.5630  142.7050 O   0  0  0  0  0  0  0  0  0  0  0  0
  186.6360  176.6860  143.0330 C   0  0  0  0  0  0  0  0  0  0  0  0
  186.8790  177.7950  142.2180 O   0  0  0  0  0  0  0  0  0  0  0  0
  186.2020  177.9920  140.9800 C   0  0  0  0  0  1  0  0  0  0  0  0
  195.4080  168.7150  145.5310 C   0  0  0  0  0  2  0  0  0  0  0  0
  195.7010  168.3880  147.9860 C   0  0  0  0  0  1  0  0  0  0  0  0
  196.3210  168.1680  146.6210 C   0  0  0  0  0  2  0  0  0  0  0  0
  1  5  1  0  0  0  0
  2 43  1  6  0  0  0
  3 29  2  0  0  0  0
  3 27  1  0  0  0  0
  4 22  1  6  0  0  0
  4 10  1  0  0  0  0
  4  5  1  0  0  0  0
  5 28  1  1  0  0  0
  6 19  1  0  0  0  0
  8 17  1  0  0  0  0
  9 26  1  0  0  0  0
 11 12  1  0  0  0  0
 11 22  1  1  0  0  0
 11 13  1  0  0  0  0
 12  8  1  6  0  0  0
 12  9  1  0  0  0  0
 13 26  1  0  0  0  0
 13 10  1  1  0  0  0
 15  5  1  0  0  0  0
 17 32  1  6  0  0  0
 17 21  1  0  0  0  0
 18  7  1  1  0  0  0
 18  6  1  0  0  0  0
 18 16  1  0  0  0  0
 19 23  1  0  0  0  0
 20 14  2  0  0  0  0
 20  2  1  0  0  0  0
 21  7  2  0  0  0  0
 24 31  1  6  0  0  0
 24 29  1  0  0  0  0
 24  1  1  0  0  0  0
 25 16  1  1  0  0  0
 25 23  1  0  0  0  0
 25  2  1  0  0  0  0
 26 54  1  1  0  0  0
 27 20  1  0  0  0  0
 29 15  1  0  0  0  0
 30 31  1  0  0  0  0
 33 32  1  0  0  0  0
 34 39  2  0  0  0  0
 34 33  1  0  0  0  0
 35 34  1  0  0  0  0
 36 39  1  0  0  0  0
 37 36  1  0  0  0  0
 38 37  1  0  0  0  0
 38 35  1  0  0  0  0
 39 42  1  0  0  0  0
 41 42  2  0  0  0  0
 42 40  1  0  0  0  0
 44 45  1  0  0  0  0
 44 43  1  0  0  0  0
 46 45  1  0  0  0  0
 47 46  1  0  0  0  0
 47 48  1  1  0  0  0
 49 47  1  0  0  0  0
 50 51  2  0  0  0  0
 51 49  1  0  0  0  0
 52 51  1  0  0  0  0
 53 52  1  0  0  0  0
 54 56  1  0  0  0  0
 56 55  1  0  0  0  0
M  END
>  <MODEL>
8

>  <REMARK>
 VINA RESULT:      -5.8      2.742      7.089
  Name = 
  15 active torsions:
  status: ('A' for Active; 'I' for Inactive)
    1  A    between atoms: C_3  and  S_16
    2  A    between atoms: C_4  and  N_38
    3  A    between atoms: C_5  and  C_8
    4  A    between atoms: C_5  and  O_27
    5  A    between atoms: C_7  and  C_30
    6  A    between atoms: C_7  and  N_38
    7  A    between atoms: C_8  and  C_12
    8  A    between atoms: C_12  and  C_35
    9  A    between atoms: S_16  and  C_34
   10  A    between atoms: C_21  and  C_46
   11  A    between atoms: C_34  and  C_49
   12  A    between atoms: C_35  and  C_49
   13  A    between atoms: C_37  and  C_43
   14  A    between atoms: C_43  and  C_51
   15  A    between atoms: C_50  and  C_56
                            x       y       z     vdW  Elec       q    Type
                         _______ _______ _______ _____ _____    ______ ____

>  <TORSDO>
F 15

$$$$
=
 OpenBabel11072408313D

 56 61  0  0  1  0  0  0  0  0999 V2000
  196.2000  175.7470  144.8800 C   0  0  0  0  0  2  0  0  0  0  0  0
  190.4630  175.3240  144.2310 C   0  0  2  0  0  3  0  0  0  0  0  0
  193.6030  176.4630  142.3970 C   0  0  0  0  0  3  0  0  0  0  0  0
  195.4020  173.2970  144.9590 C   0  0  2  0  0  3  0  0  0  0  0  0
  195.0520  174.7760  145.2070 C   0  0  2  0  0  0  0  0  0  0  0  0
  190.4950  171.1000  142.8850 C   0  0  0  0  0  2  0  0  0  0  0  0
  192.9640  171.1620  142.6840 C   0  0  0  0  0  3  0  0  0  0  0  0
  195.8680  170.3180  142.0180 C   0  0  0  0  0  2  0  0  0  0  0  0
  196.1560  169.5970  144.1730 O   0  0  0  0  0  0  0  0  0  0  0  0
  196.4330  172.7100  145.9070 C   0  0  0  0  0  2  0  0  0  0  0  0
  196.6760  171.7330  143.6860 C   0  0  2  0  0  3  0  0  0  0  0  0
  195.7420  170.6590  143.4250 N   0  0  1  0  0  0  0  0  0  0  0  0
  197.0660  171.5580  145.1270 C   0  0  2  0  0  3  0  0  0  0  0  0
  191.4180  177.6070  144.0780 C   0  0  0  0  0  2  0  0  0  0  0  0
  194.0060  175.1420  144.3350 O   0  0  0  0  0  0  0  0  0  0  0  0
  191.7180  173.1540  143.6450 C   0  0  0  0  0  2  0  0  0  0  0  0
  194.5980  169.6400  141.5120 C   0  0  1  0  0  3  0  0  0  0  0  0
  191.7130  171.9920  142.6390 C   0  0  2  0  0  3  0  0  0  0  0  0
  189.2080  171.9160  142.7790 C   0  0  0  0  0  2  0  0  0  0  0  0
  191.3700  176.3630  143.5730 C   0  0  0  0  0  0  0  0  0  0  0  0
  193.3920  170.5430  141.5760 C   0  0  0  0  0  3  0  0  0  0  0  0
  195.9610  173.0530  143.5800 C   0  0  0  0  0  2  0  0  0  0  0  0
  189.2410  173.0930  143.7540 C   0  0  0  0  0  2  0  0  0  0  0  0
  195.8300  176.4600  143.5680 C   0  0  2  0  0  3  0  0  0  0  0  0
  190.4410  173.9870  143.4440 C   0  0  1  0  0  3  0  0  0  0  0  0
  196.5190  170.1570  145.4160 C   0  0  1  0  0  3  0  0  0  0  0  0
  192.1560  176.0290  142.3260 C   0  0  0  0  0  2  0  0  0  0  0  0
  194.6410  174.9500  146.5300 O   0  0  0  0  0  1  0  0  0  0  0  0
  194.4180  176.0200  143.3560 C   0  0  0  0  0  0  0  0  0  0  0  0
  196.5630  176.7340  141.1700 C   0  0  0  0  0  1  0  0  0  0  0  0
  196.7610  175.9620  142.4710 C   0  0  0  0  0  2  0  0  0  0  0  0
  194.7480  169.1760  140.0590 C   0  0  0  0  0  2  0  0  0  0  0  0
  194.8420  170.2850  139.1070 N   0  0  0  0  0  2  0  0  0  0  0  0
  193.7180  170.9350  138.5030 C   0  0  0  0  0  0  0  0  0  0  0  0
  192.6440  170.0810  137.8680 C   0  0  0  0  0  2  0  0  0  0  0  0
  192.4350  173.0060  137.9000 C   0  0  0  0  0  2  0  0  0  0  0  0
  191.5430  172.1220  137.0340 C   0  0  0  0  0  2  0  0  0  0  0  0
  191.3150  170.8090  137.7530 C   0  0  0  0  0  2  0  0  0  0  0  0
  193.6520  172.2970  138.4690 C   0  0  0  0  0  0  0  0  0  0  0  0
  195.6670  173.5440  138.2530 O   0  0  0  0  0  0  0  0  0  0  0  0
  194.7180  173.6110  140.3220 O   0  0  0  0  0  1  0  0  0  0  0  0
  194.7230  173.1730  139.0010 C   0  0  0  0  0  0  0  0  0  0  0  0
  188.7770  176.0110  144.4670 S   0  0  0  0  0  0  0  0  0  0  0  0
  188.8510  175.9170  146.2900 C   0  0  0  0  0  2  0  0  0  0  0  0
  187.5720  176.4500  146.9370 C   0  0  0  0  0  2  0  0  0  0  0  0
  186.5430  176.8460  145.8850 C   0  0  0  0  0  2  0  0  0  0  0  0
  185.6230  177.9250  146.4560 C   0  0  2  0  0  3  0  0  0  0  0  0
  184.3390  177.4060  146.6180 O   0  0  0  0  0  1  0  0  0  0  0  0
  185.5610  179.1460  145.5420 C   0  0  0  0  0  2  0  0  0  0  0  0
  186.3200  178.8340  143.3040 O   0  0  0  0  0  0  0  0  0  0  0  0
  185.3510  178.7560  144.1070 C   0  0  0  0  0  0  0  0  0  0  0  0
  184.1190  178.2790  143.6490 O   0  0  0  0  0  0  0  0  0  0  0  0
  183.7660  178.2870  142.2700 C   0  0  0  0  0  1  0  0  0  0  0  0
  195.3350  170.1020  146.3820 C   0  0  0  0  0  2  0  0  0  0  0  0
  194.2580  168.2290  147.6250 C   0  0  0  0  0  1  0  0  0  0  0  0
  194.5870  168.7810  146.2530 C   0  0  0  0  0  2  0  0  0  0  0  0
  1  5  1  0  0  0  0
  2 43  1  6  0  0  0
  3 29  2  0  0  0  0
  4 22  1  6  0  0  0
  4  5  1  0  0  0  0
  4 10  1  0  0  0  0
  5 28  1  1  0  0  0
  9 26  1  0  0  0  0
 11 22  1  1  0  0  0
 11 13  1  0  0  0  0
 12  8  1  6  0  0  0
 12 11  1  0  0  0  0
 12  9  1  0  0  0  0
 13 26  1  0  0  0  0
 13 10  1  1  0  0  0
 15  5  1  0  0  0  0
 17 32  1  6  0  0  0
 17 21  1  0  0  0  0
 17  8  1  0  0  0  0
 18  7  1  1  0  0  0
 18  6  1  0  0  0  0
 18 16  1  0  0  0  0
 19  6  1  0  0  0  0
 19 23  1  0  0  0  0
 20 14  2  0  0  0  0
 20  2  1  0  0  0  0
 21  7  2  0  0  0  0
 24 31  1  6  0  0  0
 24  1  1  0  0  0  0
 25 16  1  1  0  0  0
 25 23  1  0  0  0  0
 25  2  1  0  0  0  0
 26 54  1  1  0  0  0
 27  3  1  0  0  0  0
 27 20  1  0  0  0  0
 29 24  1  0  0  0  0
 29 15  1  0  0  0  0
 30 31  1  0  0  0  0
 33 32  1  0  0  0  0
 34 33  1  0  0  0  0
 35 34  1  0  0  0  0
 36 39  1  0  0  0  0
 37 38  1  0  0  0  0
 37 36  1  0  0  0  0
 38 35  1  0  0  0  0
 39 34  2  0  0  0  0
 39 42  1  0  0  0  0
 40 42  2  0  0  0  0
 42 41  1  0  0  0  0
 43 44  1  0  0  0  0
 44 45  1  0  0  0  0
 46 47  1  0  0  0  0
 46 45  1  0  0  0  0
 47 48  1  6  0  0  0
 49 47  1  0  0  0  0
 50 51  2  0  0  0  0
 51 49  1  0  0  0  0
 52 51  1  0  0  0  0
 53 52  1  0  0  0  0
 56 54  1  0  0  0  0
 56 55  1  0  0  0  0
M  END
>  <MODEL>
9

>  <REMARK>
 VINA RESULT:      -5.7      2.407      6.831
  Name = 
  15 active torsions:
  status: ('A' for Active; 'I' for Inactive)
    1  A    between atoms: C_3  and  S_16
    2  A    between atoms: C_4  and  N_38
    3  A    between atoms: C_5  and  C_8
    4  A    between atoms: C_5  and  O_27
    5  A    between atoms: C_7  and  C_30
    6  A    between atoms: C_7  and  N_38
    7  A    between atoms: C_8  and  C_12
    8  A    between atoms: C_12  and  C_35
    9  A    between atoms: S_16  and  C_34
   10  A    between atoms: C_21  and  C_46
   11  A    between atoms: C_34  and  C_49
   12  A    between atoms: C_35  and  C_49
   13  A    between atoms: C_37  and  C_43
   14  A    between atoms: C_43  and  C_51
   15  A    between atoms: C_50  and  C_56
                            x       y       z     vdW  Elec       q    Type
                         _______ _______ _______ _____ _____    ______ ____

>  <TORSDO>
F 15

$$$$
