=
 OpenBabel11072409253D

 39 43  0  0  1  0  0  0  0  0999 V2000
  189.3060  172.3200  139.9330 C   0  0  0  0  0  3  0  0  0  0  0  0
  188.4560  174.5600  140.8700 C   0  0  0  0  0  0  0  0  0  0  0  0
  189.3490  173.4940  143.2530 C   0  0  1  0  0  3  0  0  0  0  0  0
  188.9030  174.0130  142.0270 C   0  0  0  0  0  0  0  0  0  0  0  0
  188.6850  173.6530  139.7700 C   0  0  0  0  0  3  0  0  0  0  0  0
  189.7410  171.8020  141.1540 N   0  0  0  0  0  0  0  0  0  0  0  0
  189.5060  172.6940  142.1120 C   0  0  0  0  0  0  0  0  0  0  0  0
  187.8650  175.8580  140.7870 N   0  0  0  0  0  2  0  0  0  0  0  0
  187.0170  175.6970  138.6060 O   0  0  0  0  0  0  0  0  0  0  0  0
  187.2080  176.3970  139.6350 C   0  0  0  0  0  0  0  0  0  0  0  0
  186.7520  177.8150  139.6500 C   0  0  0  0  0  2  0  0  0  0  0  0
  184.4620  177.8010  140.8540 C   0  0  0  0  0  2  0  0  0  0  0  0
  186.2910  178.5300  142.0710 C   0  0  0  0  0  0  0  0  0  0  0  0
  185.8920  178.0580  140.7980 N   0  0  0  0  0  0  0  0  0  0  0  0
  187.4720  178.8230  142.3830 O   0  0  0  0  0  0  0  0  0  0  0  0
  185.1440  178.5930  142.9410 C   0  0  0  0  0  0  0  0  0  0  0  0
  184.0780  178.1730  142.2700 C   0  0  0  0  0  3  0  0  0  0  0  0
  185.1530  178.9990  144.3750 C   0  0  0  0  0  2  0  0  0  0  0  0
  187.0900  177.2990  146.6690 N   0  0  0  0  0  0  0  0  0  0  0  0
  185.4660  178.9410  147.4710 C   0  0  0  0  0  2  0  0  0  0  0  0
  186.7040  178.1050  147.6140 C   0  0  0  0  0  3  0  0  0  0  0  0
  186.8020  176.3980  144.5410 O   0  0  0  0  0  0  0  0  0  0  0  0
  184.4240  178.1880  146.6460 C   0  0  0  0  0  2  0  0  0  0  0  0
  185.0010  177.7830  145.2850 C   0  0  2  0  0  3  0  0  0  0  0  0
  186.3330  177.1120  145.4640 C   0  0  0  0  0  0  0  0  0  0  0  0
  190.5890  174.1070  143.5850 O   0  0  0  0  0  0  0  0  0  0  0  0
  191.1820  176.2850  147.1390 C   0  0  0  0  0  0  0  0  0  0  0  0
  190.1790  175.3200  147.0700 C   0  0  0  0  0  3  0  0  0  0  0  0
  191.9990  176.5220  146.0320 C   0  0  0  0  0  3  0  0  0  0  0  0
  190.8060  174.8240  144.7680 C   0  0  0  0  0  0  0  0  0  0  0  0
  189.9910  174.5950  145.8910 C   0  0  0  0  0  3  0  0  0  0  0  0
  191.8350  175.7940  144.8400 C   0  0  0  0  0  0  0  0  0  0  0  0
  191.5360  177.6310  149.3270 N   0  0  0  0  0  0  0  0  0  0  0  0
  191.3770  177.0320  148.3510 C   0  0  0  0  0  0  0  0  0  0  0  0
  192.3480  176.9090  142.8160 O   0  0  0  0  0  0  0  0  0  0  0  0
  192.7480  176.1090  143.7050 C   0  0  0  0  0  0  0  0  0  0  0  0
  194.3470  174.3080  144.3920 C   0  0  0  0  0  1  0  0  0  0  0  0
  194.1450  175.5680  143.5670 C   0  0  2  0  0  3  0  0  0  0  0  0
  195.1060  176.5290  143.8870 O   0  0  0  0  0  1  0  0  0  0  0  0
  1  6  1  0  0  0  0
  2  4  2  0  0  0  0
  3 26  1  6  0  0  0
  4  7  1  0  0  0  0
  4  3  1  0  0  0  0
  5  1  2  0  0  0  0
  5  2  1  0  0  0  0
  6  7  2  0  0  0  0
  7  3  1  0  0  0  0
  8  2  1  0  0  0  0
  9 10  2  0  0  0  0
 10 11  1  0  0  0  0
 10  8  1  0  0  0  0
 11 14  1  0  0  0  0
 12 17  1  0  0  0  0
 13 15  2  0  0  0  0
 13 16  1  0  0  0  0
 14 12  1  0  0  0  0
 14 13  1  0  0  0  0
 16 18  1  0  0  0  0
 17 16  2  0  0  0  0
 19 21  2  0  0  0  0
 20 21  1  0  0  0  0
 22 25  2  0  0  0  0
 23 20  1  0  0  0  0
 24 18  1  6  0  0  0
 24 25  1  0  0  0  0
 24 23  1  0  0  0  0
 25 19  1  0  0  0  0
 26 30  1  0  0  0  0
 27 34  1  0  0  0  0
 28 27  1  0  0  0  0
 29 27  2  0  0  0  0
 30 32  2  0  0  0  0
 30 31  1  0  0  0  0
 31 28  2  0  0  0  0
 32 29  1  0  0  0  0
 34 33  3  0  0  0  0
 35 36  2  0  0  0  0
 36 32  1  0  0  0  0
 38 36  1  0  0  0  0
 38 39  1  0  0  0  0
 38 37  1  1  0  0  0
M  END
>  <MODEL>
1

>  <REMARK>
 VINA RESULT:      -7.7      0.000      0.000
  Name = 
  10 active torsions:
  status: ('A' for Active; 'I' for Inactive)
    1  A    between atoms: C_1  and  C_38
    2  A    between atoms: C_4  and  N_13
    3  A    between atoms: C_6  and  O_28
    4  A    between atoms: N_9  and  C_27
    5  A    between atoms: C_15  and  C_26
    6  A    between atoms: C_15  and  C_31
    7  A    between atoms: C_22  and  C_34
    8  A    between atoms: C_27  and  C_33
    9  A    between atoms: O_28  and  C_32
   10  A    between atoms: C_34  and  C_39
                            x       y       z     vdW  Elec       q    Type
                         _______ _______ _______ _____ _____    ______ ____

>  <TORSDO>
F 10

$$$$
=
 OpenBabel11072409253D

 39 43  0  0  1  0  0  0  0  0999 V2000
  196.8870  173.2770  144.9810 C   0  0  0  0  0  3  0  0  0  0  0  0
  194.5910  174.2960  145.5350 C   0  0  0  0  0  0  0  0  0  0  0  0
  195.5820  176.4210  144.0810 C   0  0  1  0  0  3  0  0  0  0  0  0
  195.1020  175.3260  144.8170 C   0  0  0  0  0  0  0  0  0  0  0  0
  195.5470  173.2160  145.6050 C   0  0  0  0  0  3  0  0  0  0  0  0
  197.3660  174.3700  144.2570 N   0  0  0  0  0  0  0  0  0  0  0  0
  196.4300  175.3150  144.2300 C   0  0  0  0  0  0  0  0  0  0  0  0
  193.2840  174.3060  146.1110 N   0  0  0  0  0  2  0  0  0  0  0  0
  193.2730  176.5240  146.8730 O   0  0  0  0  0  0  0  0  0  0  0  0
  192.6920  175.4090  146.8050 C   0  0  0  0  0  0  0  0  0  0  0  0
  191.3700  175.2320  147.4670 C   0  0  0  0  0  2  0  0  0  0  0  0
  189.6760  174.6440  145.6000 C   0  0  0  0  0  2  0  0  0  0  0  0
  189.6220  176.8030  146.4340 C   0  0  0  0  0  0  0  0  0  0  0  0
  190.2940  175.5620  146.5450 N   0  0  0  0  0  0  0  0  0  0  0  0
  189.8820  177.8170  147.1300 O   0  0  0  0  0  0  0  0  0  0  0  0
  188.5930  176.7040  145.4300 C   0  0  0  0  0  0  0  0  0  0  0  0
  188.5970  175.4710  144.9370 C   0  0  0  0  0  3  0  0  0  0  0  0
  187.6360  177.7820  145.0470 C   0  0  0  0  0  2  0  0  0  0  0  0
  184.2790  178.4280  145.5060 N   0  0  0  0  0  0  0  0  0  0  0  0
  185.3840  179.2610  143.4920 C   0  0  0  0  0  2  0  0  0  0  0  0
  184.2930  179.2770  144.5210 C   0  0  0  0  0  3  0  0  0  0  0  0
  185.2610  176.6620  146.6630 O   0  0  0  0  0  0  0  0  0  0  0  0
  185.8600  177.8290  143.2620 C   0  0  0  0  0  2  0  0  0  0  0  0
  186.3100  177.1890  144.5810 C   0  0  2  0  0  3  0  0  0  0  0  0
  185.2630  177.3920  145.6390 C   0  0  0  0  0  0  0  0  0  0  0  0
  194.9860  176.4010  142.7900 O   0  0  0  0  0  0  0  0  0  0  0  0
  191.1540  174.8110  142.0710 C   0  0  0  0  0  0  0  0  0  0  0  0
  191.2920  176.0370  142.7190 C   0  0  0  0  0  3  0  0  0  0  0  0
  192.2890  174.1140  141.6480 C   0  0  0  0  0  3  0  0  0  0  0  0
  193.7160  175.8720  142.5300 C   0  0  0  0  0  0  0  0  0  0  0  0
  192.5650  176.5640  142.9490 C   0  0  0  0  0  3  0  0  0  0  0  0
  193.5790  174.6330  141.8580 C   0  0  0  0  0  0  0  0  0  0  0  0
  188.7940  173.8280  141.6430 N   0  0  0  0  0  0  0  0  0  0  0  0
  189.8460  174.2680  141.8340 C   0  0  0  0  0  0  0  0  0  0  0  0
  195.0420  172.7790  142.0090 O   0  0  0  0  0  0  0  0  0  0  0  0
  194.7360  173.8260  141.3780 C   0  0  0  0  0  0  0  0  0  0  0  0
  196.9550  174.5990  140.5110 C   0  0  0  0  0  1  0  0  0  0  0  0
  195.5470  174.1550  140.1530 C   0  0  2  0  0  3  0  0  0  0  0  0
  194.9140  175.1090  139.3540 O   0  0  0  0  0  1  0  0  0  0  0  0
  1  5  1  0  0  0  0
  2  5  2  0  0  0  0
  2  8  1  0  0  0  0
  3 26  1  6  0  0  0
  3  7  1  0  0  0  0
  3  4  1  0  0  0  0
  4  2  1  0  0  0  0
  6  1  2  0  0  0  0
  7  6  1  0  0  0  0
  7  4  2  0  0  0  0
  8 10  1  0  0  0  0
 10  9  2  0  0  0  0
 10 11  1  0  0  0  0
 12 14  1  0  0  0  0
 13 14  1  0  0  0  0
 13 15  2  0  0  0  0
 14 11  1  0  0  0  0
 16 13  1  0  0  0  0
 17 16  2  0  0  0  0
 17 12  1  0  0  0  0
 18 16  1  0  0  0  0
 19 25  1  0  0  0  0
 20 21  1  0  0  0  0
 21 19  2  0  0  0  0
 23 20  1  0  0  0  0
 23 24  1  0  0  0  0
 24 18  1  1  0  0  0
 24 25  1  0  0  0  0
 25 22  2  0  0  0  0
 27 28  1  0  0  0  0
 28 31  2  0  0  0  0
 29 32  1  0  0  0  0
 29 27  2  0  0  0  0
 30 26  1  0  0  0  0
 30 31  1  0  0  0  0
 32 30  2  0  0  0  0
 33 34  3  0  0  0  0
 34 27  1  0  0  0  0
 36 32  1  0  0  0  0
 36 35  2  0  0  0  0
 38 37  1  1  0  0  0
 38 36  1  0  0  0  0
 39 38  1  0  0  0  0
M  END
>  <MODEL>
2

>  <REMARK>
 VINA RESULT:      -7.5      2.836      6.173
  Name = 
  10 active torsions:
  status: ('A' for Active; 'I' for Inactive)
    1  A    between atoms: C_1  and  C_38
    2  A    between atoms: C_4  and  N_13
    3  A    between atoms: C_6  and  O_28
    4  A    between atoms: N_9  and  C_27
    5  A    between atoms: C_15  and  C_26
    6  A    between atoms: C_15  and  C_31
    7  A    between atoms: C_22  and  C_34
    8  A    between atoms: C_27  and  C_33
    9  A    between atoms: O_28  and  C_32
   10  A    between atoms: C_34  and  C_39
                            x       y       z     vdW  Elec       q    Type
                         _______ _______ _______ _____ _____    ______ ____

>  <TORSDO>
F 10

$$$$
=
 OpenBabel11072409253D

 39 43  0  0  1  0  0  0  0  0999 V2000
  185.9870  176.7810  142.8430 C   0  0  0  0  0  3  0  0  0  0  0  0
  188.1540  175.4070  142.6560 C   0  0  0  0  0  0  0  0  0  0  0  0
  189.3160  177.9090  142.6220 C   0  0  1  0  0  3  0  0  0  0  0  0
  188.6990  176.6480  142.6410 C   0  0  0  0  0  0  0  0  0  0  0  0
  186.7170  175.4960  142.7710 C   0  0  0  0  0  3  0  0  0  0  0  0
  186.6010  178.0340  142.8150 N   0  0  0  0  0  0  0  0  0  0  0  0
  187.9170  177.8700  142.7170 C   0  0  0  0  0  0  0  0  0  0  0  0
  188.9220  174.2050  142.5830 N   0  0  0  0  0  2  0  0  0  0  0  0
  189.2770  174.1770  140.2660 O   0  0  0  0  0  0  0  0  0  0  0  0
  189.4150  173.6070  141.3800 C   0  0  0  0  0  0  0  0  0  0  0  0
  190.0920  172.2820  141.4440 C   0  0  0  0  0  2  0  0  0  0  0  0
  192.3710  172.1230  140.2280 C   0  0  0  0  0  2  0  0  0  0  0  0
  192.3750  173.0010  142.3700 C   0  0  0  0  0  0  0  0  0  0  0  0
  191.5350  172.4490  141.3740 N   0  0  0  0  0  0  0  0  0  0  0  0
  191.9750  173.4200  143.4850 O   0  0  0  0  0  0  0  0  0  0  0  0
  193.7350  173.0260  141.8930 C   0  0  0  0  0  0  0  0  0  0  0  0
  193.7620  172.5320  140.6600 C   0  0  0  0  0  3  0  0  0  0  0  0
  194.9110  173.5710  142.6280 C   0  0  0  0  0  2  0  0  0  0  0  0
  196.3900  176.6630  142.2340 N   0  0  0  0  0  0  0  0  0  0  0  0
  197.6330  174.8870  143.3640 C   0  0  0  0  0  2  0  0  0  0  0  0
  197.3460  176.3260  143.0490 C   0  0  0  0  0  3  0  0  0  0  0  0
  194.6200  176.0680  140.8430 O   0  0  0  0  0  0  0  0  0  0  0  0
  197.3420  174.0200  142.1410 C   0  0  0  0  0  2  0  0  0  0  0  0
  195.8980  174.2240  141.6650 C   0  0  2  0  0  3  0  0  0  0  0  0
  195.5950  175.6890  141.5410 C   0  0  0  0  0  0  0  0  0  0  0  0
  189.8790  178.1620  143.9030 O   0  0  0  0  0  0  0  0  0  0  0  0
  193.2700  176.1260  145.3440 C   0  0  0  0  0  0  0  0  0  0  0  0
  193.3140  176.7690  144.1090 C   0  0  0  0  0  3  0  0  0  0  0  0
  192.1040  176.1670  146.1110 C   0  0  0  0  0  3  0  0  0  0  0  0
  191.0060  177.4970  144.4000 C   0  0  0  0  0  0  0  0  0  0  0  0
  192.1880  177.4490  143.6380 C   0  0  0  0  0  3  0  0  0  0  0  0
  190.9640  176.8570  145.6620 C   0  0  0  0  0  0  0  0  0  0  0  0
  195.3590  174.8630  146.2180 N   0  0  0  0  0  0  0  0  0  0  0  0
  194.4270  175.4260  145.8290 C   0  0  0  0  0  0  0  0  0  0  0  0
  189.6600  177.7370  147.4310 O   0  0  0  0  0  0  0  0  0  0  0  0
  189.7600  176.8510  146.5400 C   0  0  0  0  0  0  0  0  0  0  0  0
  187.2730  176.5780  146.4260 C   0  0  0  0  0  1  0  0  0  0  0  0
  188.6200  175.8770  146.4070 C   0  0  2  0  0  3  0  0  0  0  0  0
  188.6750  174.8810  147.3840 O   0  0  0  0  0  1  0  0  0  0  0  0
  2  5  1  0  0  0  0
  3  4  1  0  0  0  0
  3  7  1  0  0  0  0
  3 26  1  1  0  0  0
  4  2  2  0  0  0  0
  4  7  1  0  0  0  0
  5  1  2  0  0  0  0
  6  1  1  0  0  0  0
  7  6  2  0  0  0  0
  8  2  1  0  0  0  0
  9 10  2  0  0  0  0
 10 11  1  0  0  0  0
 10  8  1  0  0  0  0
 12 17  1  0  0  0  0
 12 14  1  0  0  0  0
 13 15  2  0  0  0  0
 14 11  1  0  0  0  0
 14 13  1  0  0  0  0
 16 13  1  0  0  0  0
 16 18  1  0  0  0  0
 17 16  2  0  0  0  0
 19 21  2  0  0  0  0
 21 20  1  0  0  0  0
 22 25  2  0  0  0  0
 23 20  1  0  0  0  0
 24 23  1  0  0  0  0
 24 18  1  1  0  0  0
 25 24  1  0  0  0  0
 25 19  1  0  0  0  0
 26 30  1  0  0  0  0
 27 34  1  0  0  0  0
 27 29  1  0  0  0  0
 28 27  2  0  0  0  0
 30 32  1  0  0  0  0
 31 28  1  0  0  0  0
 31 30  2  0  0  0  0
 32 29  2  0  0  0  0
 32 36  1  0  0  0  0
 34 33  3  0  0  0  0
 36 35  2  0  0  0  0
 38 37  1  1  0  0  0
 38 36  1  0  0  0  0
 38 39  1  0  0  0  0
M  END
>  <MODEL>
3

>  <REMARK>
 VINA RESULT:      -7.5      2.942      7.446
  Name = 
  10 active torsions:
  status: ('A' for Active; 'I' for Inactive)
    1  A    between atoms: C_1  and  C_38
    2  A    between atoms: C_4  and  N_13
    3  A    between atoms: C_6  and  O_28
    4  A    between atoms: N_9  and  C_27
    5  A    between atoms: C_15  and  C_26
    6  A    between atoms: C_15  and  C_31
    7  A    between atoms: C_22  and  C_34
    8  A    between atoms: C_27  and  C_33
    9  A    between atoms: O_28  and  C_32
   10  A    between atoms: C_34  and  C_39
                            x       y       z     vdW  Elec       q    Type
                         _______ _______ _______ _____ _____    ______ ____

>  <TORSDO>
F 10

$$$$
=
 OpenBabel11072409253D

 39 43  0  0  1  0  0  0  0  0999 V2000
  197.1150  173.7960  145.0860 C   0  0  0  0  0  3  0  0  0  0  0  0
  194.6850  174.5310  145.5000 C   0  0  0  0  0  0  0  0  0  0  0  0
  195.3640  176.5320  143.7260 C   0  0  1  0  0  3  0  0  0  0  0  0
  195.0450  175.5030  144.6270 C   0  0  0  0  0  0  0  0  0  0  0  0
  195.7910  173.6310  145.7260 C   0  0  0  0  0  3  0  0  0  0  0  0
  197.4340  174.8240  144.1980 N   0  0  0  0  0  0  0  0  0  0  0  0
  196.3680  175.6020  144.0340 C   0  0  0  0  0  0  0  0  0  0  0  0
  193.3840  174.4330  146.0810 N   0  0  0  0  0  2  0  0  0  0  0  0
  193.2380  176.6100  146.9400 O   0  0  0  0  0  0  0  0  0  0  0  0
  192.7280  175.4650  146.8250 C   0  0  0  0  0  0  0  0  0  0  0  0
  191.4240  175.1760  147.4840 C   0  0  0  0  0  2  0  0  0  0  0  0
  190.0420  177.3420  147.1750 C   0  0  0  0  0  2  0  0  0  0  0  0
  189.4930  175.5380  145.8330 C   0  0  0  0  0  0  0  0  0  0  0  0
  190.3620  175.9570  146.8680 N   0  0  0  0  0  0  0  0  0  0  0  0
  189.5150  174.3990  145.3030 O   0  0  0  0  0  0  0  0  0  0  0  0
  188.6120  176.6220  145.4760 C   0  0  0  0  0  0  0  0  0  0  0  0
  188.9100  177.6750  146.2280 C   0  0  0  0  0  3  0  0  0  0  0  0
  187.5810  176.5950  144.4010 C   0  0  0  0  0  2  0  0  0  0  0  0
  185.8950  178.0190  141.7490 N   0  0  0  0  0  0  0  0  0  0  0  0
  184.7950  177.8990  143.9280 C   0  0  0  0  0  2  0  0  0  0  0  0
  184.7890  178.0180  142.4330 C   0  0  0  0  0  3  0  0  0  0  0  0
  188.2170  177.8700  141.6660 O   0  0  0  0  0  0  0  0  0  0  0  0
  186.0360  178.5820  144.4980 C   0  0  0  0  0  2  0  0  0  0  0  0
  187.3100  178.0010  143.8730 C   0  0  2  0  0  3  0  0  0  0  0  0
  187.1840  177.9680  142.3770 C   0  0  0  0  0  0  0  0  0  0  0  0
  194.7950  176.2240  142.4600 O   0  0  0  0  0  0  0  0  0  0  0  0
  190.8010  174.9770  142.0000 C   0  0  0  0  0  0  0  0  0  0  0  0
  191.0880  176.1740  142.6520 C   0  0  0  0  0  3  0  0  0  0  0  0
  191.8380  174.1950  141.4870 C   0  0  0  0  0  3  0  0  0  0  0  0
  193.4700  175.8090  142.2850 C   0  0  0  0  0  0  0  0  0  0  0  0
  192.4150  176.5870  142.7960 C   0  0  0  0  0  3  0  0  0  0  0  0
  193.1800  174.5990  141.6090 C   0  0  0  0  0  0  0  0  0  0  0  0
  188.3390  174.2070  141.7290 N   0  0  0  0  0  0  0  0  0  0  0  0
  189.4370  174.5500  141.8510 C   0  0  0  0  0  0  0  0  0  0  0  0
  194.3300  173.6280  139.7820 O   0  0  0  0  0  0  0  0  0  0  0  0
  194.2270  173.7070  141.0360 C   0  0  0  0  0  0  0  0  0  0  0  0
  196.1370  172.0880  140.9880 C   0  0  0  0  0  1  0  0  0  0  0  0
  195.2100  172.9190  141.8590 C   0  0  2  0  0  3  0  0  0  0  0  0
  194.5680  172.1180  142.8050 O   0  0  0  0  0  1  0  0  0  0  0  0
  1  5  1  0  0  0  0
  2  5  2  0  0  0  0
  2  8  1  0  0  0  0
  3 26  1  6  0  0  0
  3  7  1  0  0  0  0
  3  4  1  0  0  0  0
  4  2  1  0  0  0  0
  6  1  2  0  0  0  0
  7  6  1  0  0  0  0
  7  4  2  0  0  0  0
  8 10  1  0  0  0  0
 10  9  2  0  0  0  0
 10 11  1  0  0  0  0
 13 14  1  0  0  0  0
 14 12  1  0  0  0  0
 14 11  1  0  0  0  0
 15 13  2  0  0  0  0
 16 13  1  0  0  0  0
 16 17  2  0  0  0  0
 17 12  1  0  0  0  0
 18 16  1  0  0  0  0
 19 25  1  0  0  0  0
 19 21  2  0  0  0  0
 20 23  1  0  0  0  0
 21 20  1  0  0  0  0
 22 25  2  0  0  0  0
 24 18  1  1  0  0  0
 24 23  1  0  0  0  0
 25 24  1  0  0  0  0
 27 28  1  0  0  0  0
 28 31  2  0  0  0  0
 29 32  1  0  0  0  0
 29 27  2  0  0  0  0
 30 26  1  0  0  0  0
 30 31  1  0  0  0  0
 32 30  2  0  0  0  0
 33 34  3  0  0  0  0
 34 27  1  0  0  0  0
 35 36  2  0  0  0  0
 36 32  1  0  0  0  0
 36 38  1  0  0  0  0
 38 37  1  6  0  0  0
 38 39  1  0  0  0  0
M  END
>  <MODEL>
4

>  <REMARK>
 VINA RESULT:      -7.4      2.742      6.318
  Name = 
  10 active torsions:
  status: ('A' for Active; 'I' for Inactive)
    1  A    between atoms: C_1  and  C_38
    2  A    between atoms: C_4  and  N_13
    3  A    between atoms: C_6  and  O_28
    4  A    between atoms: N_9  and  C_27
    5  A    between atoms: C_15  and  C_26
    6  A    between atoms: C_15  and  C_31
    7  A    between atoms: C_22  and  C_34
    8  A    between atoms: C_27  and  C_33
    9  A    between atoms: O_28  and  C_32
   10  A    between atoms: C_34  and  C_39
                            x       y       z     vdW  Elec       q    Type
                         _______ _______ _______ _____ _____    ______ ____

>  <TORSDO>
F 10

$$$$
=
 OpenBabel11072409253D

 39 43  0  0  1  0  0  0  0  0999 V2000
  186.5580  176.4470  143.0540 C   0  0  0  0  0  3  0  0  0  0  0  0
  188.8330  175.4690  142.3570 C   0  0  0  0  0  0  0  0  0  0  0  0
  189.7910  177.7060  143.6570 C   0  0  1  0  0  3  0  0  0  0  0  0
  189.2770  176.5760  143.0010 C   0  0  0  0  0  0  0  0  0  0  0  0
  187.3900  175.4120  142.4020 C   0  0  0  0  0  3  0  0  0  0  0  0
  187.0700  177.5740  143.6980 N   0  0  0  0  0  0  0  0  0  0  0  0
  188.3980  177.5510  143.6230 C   0  0  0  0  0  0  0  0  0  0  0  0
  189.6970  174.5090  141.7470 N   0  0  0  0  0  2  0  0  0  0  0  0
  188.7440  172.5730  142.6630 O   0  0  0  0  0  0  0  0  0  0  0  0
  189.6510  173.0960  141.9640 C   0  0  0  0  0  0  0  0  0  0  0  0
  190.7000  172.2280  141.3600 C   0  0  0  0  0  2  0  0  0  0  0  0
  193.0580  173.1860  141.8310 C   0  0  0  0  0  2  0  0  0  0  0  0
  192.2370  171.6180  143.3230 C   0  0  0  0  0  0  0  0  0  0  0  0
  191.9320  172.3140  142.1300 N   0  0  0  0  0  0  0  0  0  0  0  0
  191.4670  170.8000  143.8860 O   0  0  0  0  0  0  0  0  0  0  0  0
  193.5400  172.0150  143.7920 C   0  0  0  0  0  0  0  0  0  0  0  0
  194.0340  172.9210  142.9570 C   0  0  0  0  0  3  0  0  0  0  0  0
  194.2040  171.5420  145.0400 C   0  0  0  0  0  2  0  0  0  0  0  0
  196.9080  169.9850  146.5130 N   0  0  0  0  0  0  0  0  0  0  0  0
  194.6640  169.1030  146.9170 C   0  0  0  0  0  2  0  0  0  0  0  0
  196.1120  169.2840  147.2660 C   0  0  0  0  0  3  0  0  0  0  0  0
  197.2540  171.3260  144.6410 O   0  0  0  0  0  0  0  0  0  0  0  0
  194.4970  169.0660  145.4000 C   0  0  0  0  0  2  0  0  0  0  0  0
  195.0850  170.3280  144.7590 C   0  0  2  0  0  3  0  0  0  0  0  0
  196.4730  170.5750  145.2790 C   0  0  0  0  0  0  0  0  0  0  0  0
  190.2880  177.3100  144.9290 O   0  0  0  0  0  0  0  0  0  0  0  0
  194.0730  175.5410  145.4520 C   0  0  0  0  0  0  0  0  0  0  0  0
  193.8480  176.4070  144.3840 C   0  0  0  0  0  3  0  0  0  0  0  0
  193.0450  175.2690  146.3580 C   0  0  0  0  0  3  0  0  0  0  0  0
  191.5480  176.7300  145.1230 C   0  0  0  0  0  0  0  0  0  0  0  0
  192.5920  176.9970  144.2190 C   0  0  0  0  0  3  0  0  0  0  0  0
  191.7780  175.8620  146.2180 C   0  0  0  0  0  0  0  0  0  0  0  0
  196.4030  174.4460  145.7610 N   0  0  0  0  0  0  0  0  0  0  0  0
  195.3630  174.9330  145.6240 C   0  0  0  0  0  0  0  0  0  0  0  0
  190.8650  175.9600  148.3990 O   0  0  0  0  0  0  0  0  0  0  0  0
  190.7360  175.5180  147.2260 C   0  0  0  0  0  0  0  0  0  0  0  0
  189.6910  173.8290  145.7000 C   0  0  0  0  0  1  0  0  0  0  0  0
  189.5040  174.7060  146.9260 C   0  0  2  0  0  3  0  0  0  0  0  0
  188.3730  175.5140  146.7910 O   0  0  0  0  0  1  0  0  0  0  0  0
  1  6  1  0  0  0  0
  2  5  1  0  0  0  0
  2  4  2  0  0  0  0
  3 26  1  1  0  0  0
  4  7  1  0  0  0  0
  4  3  1  0  0  0  0
  5  1  2  0  0  0  0
  7  3  1  0  0  0  0
  7  6  2  0  0  0  0
  8 10  1  0  0  0  0
  8  2  1  0  0  0  0
 10  9  2  0  0  0  0
 11 10  1  0  0  0  0
 11 14  1  0  0  0  0
 12 14  1  0  0  0  0
 12 17  1  0  0  0  0
 13 16  1  0  0  0  0
 13 15  2  0  0  0  0
 14 13  1  0  0  0  0
 16 18  1  0  0  0  0
 17 16  2  0  0  0  0
 19 21  2  0  0  0  0
 20 21  1  0  0  0  0
 22 25  2  0  0  0  0
 23 20  1  0  0  0  0
 24 18  1  1  0  0  0
 24 25  1  0  0  0  0
 24 23  1  0  0  0  0
 25 19  1  0  0  0  0
 26 30  1  0  0  0  0
 27 34  1  0  0  0  0
 27 29  1  0  0  0  0
 28 27  2  0  0  0  0
 30 32  1  0  0  0  0
 31 28  1  0  0  0  0
 31 30  2  0  0  0  0
 32 29  2  0  0  0  0
 32 36  1  0  0  0  0
 34 33  3  0  0  0  0
 36 35  2  0  0  0  0
 38 37  1  6  0  0  0
 38 36  1  0  0  0  0
 39 38  1  0  0  0  0
M  END
>  <MODEL>
5

>  <REMARK>
 VINA RESULT:      -7.4      3.477      7.845
  Name = 
  10 active torsions:
  status: ('A' for Active; 'I' for Inactive)
    1  A    between atoms: C_1  and  C_38
    2  A    between atoms: C_4  and  N_13
    3  A    between atoms: C_6  and  O_28
    4  A    between atoms: N_9  and  C_27
    5  A    between atoms: C_15  and  C_26
    6  A    between atoms: C_15  and  C_31
    7  A    between atoms: C_22  and  C_34
    8  A    between atoms: C_27  and  C_33
    9  A    between atoms: O_28  and  C_32
   10  A    between atoms: C_34  and  C_39
                            x       y       z     vdW  Elec       q    Type
                         _______ _______ _______ _____ _____    ______ ____

>  <TORSDO>
F 10

$$$$
=
 OpenBabel11072409253D

 39 43  0  0  1  0  0  0  0  0999 V2000
  197.1060  173.5810  145.2300 C   0  0  0  0  0  3  0  0  0  0  0  0
  194.9150  174.8480  145.6880 C   0  0  0  0  0  0  0  0  0  0  0  0
  194.7560  174.8490  142.9340 C   0  0  1  0  0  3  0  0  0  0  0  0
  194.8620  174.8350  144.3340 C   0  0  0  0  0  0  0  0  0  0  0  0
  196.1070  174.1730  146.1460 C   0  0  0  0  0  3  0  0  0  0  0  0
  197.0050  173.6030  143.8380 N   0  0  0  0  0  0  0  0  0  0  0  0
  195.8830  174.2310  143.4950 C   0  0  0  0  0  0  0  0  0  0  0  0
  193.9100  175.4410  146.5130 N   0  0  0  0  0  2  0  0  0  0  0  0
  192.0860  174.1580  145.7880 O   0  0  0  0  0  0  0  0  0  0  0  0
  192.5190  175.1060  146.4950 C   0  0  0  0  0  0  0  0  0  0  0  0
  191.5650  175.8980  147.3190 C   0  0  0  0  0  2  0  0  0  0  0  0
  190.8980  177.4990  145.3980 C   0  0  0  0  0  2  0  0  0  0  0  0
  189.1870  176.3770  146.4810 C   0  0  0  0  0  0  0  0  0  0  0  0
  190.5900  176.5610  146.4660 N   0  0  0  0  0  0  0  0  0  0  0  0
  188.5790  175.6050  147.2640 O   0  0  0  0  0  0  0  0  0  0  0  0
  188.5850  177.1870  145.4520 C   0  0  0  0  0  0  0  0  0  0  0  0
  189.5470  177.8390  144.8080 C   0  0  0  0  0  3  0  0  0  0  0  0
  187.1340  177.2410  145.1160 C   0  0  0  0  0  2  0  0  0  0  0  0
  184.7690  178.6270  143.0210 N   0  0  0  0  0  0  0  0  0  0  0  0
  184.3460  178.5870  145.4280 C   0  0  0  0  0  2  0  0  0  0  0  0
  183.9080  178.6660  143.9950 C   0  0  0  0  0  3  0  0  0  0  0  0
  186.9660  178.4300  142.2750 O   0  0  0  0  0  0  0  0  0  0  0  0
  185.7060  179.2600  145.5940 C   0  0  0  0  0  2  0  0  0  0  0  0
  186.7380  178.6380  144.6460 C   0  0  2  0  0  3  0  0  0  0  0  0
  186.1850  178.5670  143.2510 C   0  0  0  0  0  0  0  0  0  0  0  0
  193.8130  173.8610  142.5360 O   0  0  0  0  0  0  0  0  0  0  0  0
  189.6650  174.5720  142.4330 C   0  0  0  0  0  0  0  0  0  0  0  0
  190.5590  175.6330  142.3120 C   0  0  0  0  0  3  0  0  0  0  0  0
  190.1450  173.2680  142.5780 C   0  0  0  0  0  3  0  0  0  0  0  0
  192.4320  174.0840  142.4850 C   0  0  0  0  0  0  0  0  0  0  0  0
  191.9340  175.3910  142.3400 C   0  0  0  0  0  3  0  0  0  0  0  0
  191.5260  173.0010  142.5940 C   0  0  0  0  0  0  0  0  0  0  0  0
  187.1110  175.0170  142.3860 N   0  0  0  0  0  0  0  0  0  0  0  0
  188.2500  174.8180  142.4060 C   0  0  0  0  0  0  0  0  0  0  0  0
  191.9950  171.0930  143.9140 O   0  0  0  0  0  0  0  0  0  0  0  0
  191.9550  171.5830  142.7530 C   0  0  0  0  0  0  0  0  0  0  0  0
  191.0970  169.9030  141.1060 C   0  0  0  0  0  1  0  0  0  0  0  0
  192.3080  170.6720  141.6080 C   0  0  2  0  0  3  0  0  0  0  0  0
  193.3460  169.8000  141.9410 O   0  0  0  0  0  1  0  0  0  0  0  0
  1  5  1  0  0  0  0
  2  5  2  0  0  0  0
  2  8  1  0  0  0  0
  3 26  1  1  0  0  0
  3  7  1  0  0  0  0
  3  4  1  0  0  0  0
  4  2  1  0  0  0  0
  6  1  2  0  0  0  0
  7  6  1  0  0  0  0
  7  4  2  0  0  0  0
  9 10  2  0  0  0  0
 10  8  1  0  0  0  0
 10 11  1  0  0  0  0
 12 14  1  0  0  0  0
 13 15  2  0  0  0  0
 14 13  1  0  0  0  0
 14 11  1  0  0  0  0
 16 13  1  0  0  0  0
 17 12  1  0  0  0  0
 17 16  2  0  0  0  0
 18 16  1  0  0  0  0
 19 25  1  0  0  0  0
 19 21  2  0  0  0  0
 20 23  1  0  0  0  0
 21 20  1  0  0  0  0
 22 25  2  0  0  0  0
 24 18  1  1  0  0  0
 24 23  1  0  0  0  0
 25 24  1  0  0  0  0
 27 29  1  0  0  0  0
 28 31  1  0  0  0  0
 28 27  2  0  0  0  0
 29 32  2  0  0  0  0
 30 26  1  0  0  0  0
 30 32  1  0  0  0  0
 31 30  2  0  0  0  0
 32 36  1  0  0  0  0
 33 34  3  0  0  0  0
 34 27  1  0  0  0  0
 36 35  2  0  0  0  0
 38 37  1  1  0  0  0
 38 39  1  0  0  0  0
 38 36  1  0  0  0  0
M  END
>  <MODEL>
6

>  <REMARK>
 VINA RESULT:      -7.3      2.668      6.198
  Name = 
  10 active torsions:
  status: ('A' for Active; 'I' for Inactive)
    1  A    between atoms: C_1  and  C_38
    2  A    between atoms: C_4  and  N_13
    3  A    between atoms: C_6  and  O_28
    4  A    between atoms: N_9  and  C_27
    5  A    between atoms: C_15  and  C_26
    6  A    between atoms: C_15  and  C_31
    7  A    between atoms: C_22  and  C_34
    8  A    between atoms: C_27  and  C_33
    9  A    between atoms: O_28  and  C_32
   10  A    between atoms: C_34  and  C_39
                            x       y       z     vdW  Elec       q    Type
                         _______ _______ _______ _____ _____    ______ ____

>  <TORSDO>
F 10

$$$$
=
 OpenBabel11072409253D

 39 43  0  0  1  0  0  0  0  0999 V2000
  192.4490  175.4260  147.0000 C   0  0  0  0  0  3  0  0  0  0  0  0
  190.7260  174.5510  145.3030 C   0  0  0  0  0  0  0  0  0  0  0  0
  189.0980  176.4030  146.5410 C   0  0  1  0  0  3  0  0  0  0  0  0
  189.9470  175.4680  145.9280 C   0  0  0  0  0  0  0  0  0  0  0  0
  192.0500  174.5480  145.8780 C   0  0  0  0  0  3  0  0  0  0  0  0
  191.6010  176.3490  147.6140 N   0  0  0  0  0  0  0  0  0  0  0  0
  190.4090  176.2990  147.0260 C   0  0  0  0  0  0  0  0  0  0  0  0
  190.2720  173.7350  144.2220 N   0  0  0  0  0  2  0  0  0  0  0  0
  189.3170  172.0080  145.4870 O   0  0  0  0  0  0  0  0  0  0  0  0
  189.6270  172.4650  144.3560 C   0  0  0  0  0  0  0  0  0  0  0  0
  189.3250  171.6650  143.1370 C   0  0  0  0  0  2  0  0  0  0  0  0
  188.3200  173.7180  141.9230 C   0  0  0  0  0  2  0  0  0  0  0  0
  189.8470  172.4380  140.7460 C   0  0  0  0  0  0  0  0  0  0  0  0
  189.1700  172.5390  141.9840 N   0  0  0  0  0  0  0  0  0  0  0  0
  190.6870  171.5460  140.4660 O   0  0  0  0  0  0  0  0  0  0  0  0
  189.4420  173.5200  139.8860 C   0  0  0  0  0  0  0  0  0  0  0  0
  188.5680  174.2770  140.5390 C   0  0  0  0  0  3  0  0  0  0  0  0
  189.9590  173.7910  138.5150 C   0  0  0  0  0  2  0  0  0  0  0  0
  188.8760  174.9170  135.4380 N   0  0  0  0  0  0  0  0  0  0  0  0
  190.5540  173.1410  135.5300 C   0  0  0  0  0  2  0  0  0  0  0  0
  189.8360  174.2670  134.8470 C   0  0  0  0  0  3  0  0  0  0  0  0
  187.5450  175.2860  137.3130 O   0  0  0  0  0  0  0  0  0  0  0  0
  189.5910  172.3950  136.4510 C   0  0  0  0  0  2  0  0  0  0  0  0
  188.9490  173.3570  137.4570 C   0  0  2  0  0  3  0  0  0  0  0  0
  188.4050  174.5630  136.7470 C   0  0  0  0  0  0  0  0  0  0  0  0
  188.9850  177.5410  145.6960 O   0  0  0  0  0  0  0  0  0  0  0  0
  187.1760  177.5170  141.8940 C   0  0  0  0  0  0  0  0  0  0  0  0
  188.5650  177.5110  142.0080 C   0  0  0  0  0  3  0  0  0  0  0  0
  186.3820  177.5190  143.0440 C   0  0  0  0  0  3  0  0  0  0  0  0
  188.3730  177.5150  144.4370 C   0  0  0  0  0  0  0  0  0  0  0  0
  189.1600  177.5120  143.2710 C   0  0  0  0  0  3  0  0  0  0  0  0
  186.9620  177.5070  144.3250 C   0  0  0  0  0  0  0  0  0  0  0  0
  186.0690  177.5170  139.5490 N   0  0  0  0  0  0  0  0  0  0  0  0
  186.5620  177.5170  140.5960 C   0  0  0  0  0  0  0  0  0  0  0  0
  185.7970  176.4160  146.0740 O   0  0  0  0  0  0  0  0  0  0  0  0
  186.0450  177.5110  145.5000 C   0  0  0  0  0  0  0  0  0  0  0  0
  185.2720  178.6520  147.5910 C   0  0  0  0  0  1  0  0  0  0  0  0
  185.4220  178.7510  146.0830 C   0  0  2  0  0  3  0  0  0  0  0  0
  184.1970  179.0460  145.4810 O   0  0  0  0  0  1  0  0  0  0  0  0
  1  6  1  0  0  0  0
  2  5  1  0  0  0  0
  2  4  2  0  0  0  0
  3 26  1  6  0  0  0
  3  7  1  0  0  0  0
  4  3  1  0  0  0  0
  4  7  1  0  0  0  0
  5  1  2  0  0  0  0
  7  6  2  0  0  0  0
  8 10  1  0  0  0  0
  8  2  1  0  0  0  0
 10  9  2  0  0  0  0
 11 10  1  0  0  0  0
 12 14  1  0  0  0  0
 13 14  1  0  0  0  0
 14 11  1  0  0  0  0
 15 13  2  0  0  0  0
 16 17  2  0  0  0  0
 16 13  1  0  0  0  0
 17 12  1  0  0  0  0
 18 16  1  0  0  0  0
 19 25  1  0  0  0  0
 20 23  1  0  0  0  0
 21 19  2  0  0  0  0
 21 20  1  0  0  0  0
 23 24  1  0  0  0  0
 24 18  1  1  0  0  0
 25 22  2  0  0  0  0
 25 24  1  0  0  0  0
 27 28  2  0  0  0  0
 27 29  1  0  0  0  0
 28 31  1  0  0  0  0
 29 32  2  0  0  0  0
 30 26  1  0  0  0  0
 31 30  2  0  0  0  0
 32 30  1  0  0  0  0
 32 36  1  0  0  0  0
 33 34  3  0  0  0  0
 34 27  1  0  0  0  0
 36 35  2  0  0  0  0
 36 38  1  0  0  0  0
 38 37  1  1  0  0  0
 39 38  1  0  0  0  0
M  END
>  <MODEL>
7

>  <REMARK>
 VINA RESULT:      -7.3      2.434      8.180
  Name = 
  10 active torsions:
  status: ('A' for Active; 'I' for Inactive)
    1  A    between atoms: C_1  and  C_38
    2  A    between atoms: C_4  and  N_13
    3  A    between atoms: C_6  and  O_28
    4  A    between atoms: N_9  and  C_27
    5  A    between atoms: C_15  and  C_26
    6  A    between atoms: C_15  and  C_31
    7  A    between atoms: C_22  and  C_34
    8  A    between atoms: C_27  and  C_33
    9  A    between atoms: O_28  and  C_32
   10  A    between atoms: C_34  and  C_39
                            x       y       z     vdW  Elec       q    Type
                         _______ _______ _______ _____ _____    ______ ____

>  <TORSDO>
F 10

$$$$
=
 OpenBabel11072409253D

 39 43  0  0  1  0  0  0  0  0999 V2000
  185.4780  178.4060  143.0720 C   0  0  0  0  0  3  0  0  0  0  0  0
  187.6810  177.5650  144.0990 C   0  0  0  0  0  0  0  0  0  0  0  0
  187.2600  175.4500  142.3800 C   0  0  1  0  0  3  0  0  0  0  0  0
  187.4500  176.5380  143.2460 C   0  0  0  0  0  0  0  0  0  0  0  0
  186.6300  178.5500  143.9890 C   0  0  0  0  0  3  0  0  0  0  0  0
  185.2850  177.3200  142.2180 N   0  0  0  0  0  0  0  0  0  0  0  0
  186.2930  176.4650  142.3700 C   0  0  0  0  0  0  0  0  0  0  0  0
  188.8190  177.6380  144.9590 N   0  0  0  0  0  2  0  0  0  0  0  0
  187.8770  176.6160  146.8470 O   0  0  0  0  0  0  0  0  0  0  0  0
  188.8590  177.2030  146.3220 C   0  0  0  0  0  0  0  0  0  0  0  0
  190.0780  177.4600  147.1380 C   0  0  0  0  0  2  0  0  0  0  0  0
  191.3250  175.2350  147.5740 C   0  0  0  0  0  2  0  0  0  0  0  0
  192.0230  176.5000  145.7660 C   0  0  0  0  0  0  0  0  0  0  0  0
  191.1030  176.4710  146.8400 N   0  0  0  0  0  0  0  0  0  0  0  0
  192.0880  177.4180  144.9090 O   0  0  0  0  0  0  0  0  0  0  0  0
  192.8410  175.3140  145.8000 C   0  0  0  0  0  0  0  0  0  0  0  0
  192.4570  174.5640  146.8270 C   0  0  0  0  0  3  0  0  0  0  0  0
  193.8990  174.9500  144.8160 C   0  0  0  0  0  2  0  0  0  0  0  0
  197.2140  174.5540  143.9480 N   0  0  0  0  0  0  0  0  0  0  0  0
  195.9220  176.3530  142.9120 C   0  0  0  0  0  2  0  0  0  0  0  0
  197.0700  175.3870  142.9600 C   0  0  0  0  0  3  0  0  0  0  0  0
  196.4540  173.6530  145.9560 O   0  0  0  0  0  0  0  0  0  0  0  0
  195.5520  176.7880  144.3280 C   0  0  0  0  0  2  0  0  0  0  0  0
  195.2380  175.5690  145.2050 C   0  0  2  0  0  3  0  0  0  0  0  0
  196.3290  174.5440  145.0770 C   0  0  0  0  0  0  0  0  0  0  0  0
  188.1260  175.5980  141.2610 O   0  0  0  0  0  0  0  0  0  0  0  0
  189.7240  172.3280  139.1460 C   0  0  0  0  0  0  0  0  0  0  0  0
  188.6760  173.0670  138.6020 C   0  0  0  0  0  3  0  0  0  0  0  0
  190.2540  172.6800  140.3900 C   0  0  0  0  0  3  0  0  0  0  0  0
  188.6770  174.5200  140.5580 C   0  0  0  0  0  0  0  0  0  0  0  0
  188.1540  174.1550  139.3050 C   0  0  0  0  0  3  0  0  0  0  0  0
  189.7520  173.7800  141.1070 C   0  0  0  0  0  0  0  0  0  0  0  0
  190.6970  170.3050  137.8480 N   0  0  0  0  0  0  0  0  0  0  0  0
  190.2630  171.2080  138.4260 C   0  0  0  0  0  0  0  0  0  0  0  0
  191.1370  175.0850  142.5150 O   0  0  0  0  0  0  0  0  0  0  0  0
  190.3710  174.0870  142.4270 C   0  0  0  0  0  0  0  0  0  0  0  0
  189.1030  172.1920  143.4610 C   0  0  0  0  0  1  0  0  0  0  0  0
  190.1090  173.3070  143.6870 C   0  0  2  0  0  3  0  0  0  0  0  0
  189.7030  174.1370  144.7340 O   0  0  0  0  0  1  0  0  0  0  0  0
  1  5  1  0  0  0  0
  2  8  1  0  0  0  0
  3 26  1  6  0  0  0
  3  4  1  0  0  0  0
  4  2  1  0  0  0  0
  5  2  2  0  0  0  0
  6  7  1  0  0  0  0
  6  1  2  0  0  0  0
  7  3  1  0  0  0  0
  7  4  2  0  0  0  0
  8 10  1  0  0  0  0
 10  9  2  0  0  0  0
 10 11  1  0  0  0  0
 13 16  1  0  0  0  0
 13 14  1  0  0  0  0
 14 11  1  0  0  0  0
 14 12  1  0  0  0  0
 15 13  2  0  0  0  0
 16 17  2  0  0  0  0
 17 12  1  0  0  0  0
 18 16  1  0  0  0  0
 19 25  1  0  0  0  0
 20 21  1  0  0  0  0
 20 23  1  0  0  0  0
 21 19  2  0  0  0  0
 23 24  1  0  0  0  0
 24 18  1  6  0  0  0
 25 24  1  0  0  0  0
 25 22  2  0  0  0  0
 27 29  1  0  0  0  0
 28 27  2  0  0  0  0
 28 31  1  0  0  0  0
 29 32  2  0  0  0  0
 30 32  1  0  0  0  0
 30 26  1  0  0  0  0
 31 30  2  0  0  0  0
 32 36  1  0  0  0  0
 33 34  3  0  0  0  0
 34 27  1  0  0  0  0
 36 35  2  0  0  0  0
 36 38  1  0  0  0  0
 38 37  1  6  0  0  0
 38 39  1  0  0  0  0
M  END
>  <MODEL>
8

>  <REMARK>
 VINA RESULT:      -7.3      2.371      8.058
  Name = 
  10 active torsions:
  status: ('A' for Active; 'I' for Inactive)
    1  A    between atoms: C_1  and  C_38
    2  A    between atoms: C_4  and  N_13
    3  A    between atoms: C_6  and  O_28
    4  A    between atoms: N_9  and  C_27
    5  A    between atoms: C_15  and  C_26
    6  A    between atoms: C_15  and  C_31
    7  A    between atoms: C_22  and  C_34
    8  A    between atoms: C_27  and  C_33
    9  A    between atoms: O_28  and  C_32
   10  A    between atoms: C_34  and  C_39
                            x       y       z     vdW  Elec       q    Type
                         _______ _______ _______ _____ _____    ______ ____

>  <TORSDO>
F 10

$$$$
=
 OpenBabel11072409253D

 39 43  0  0  1  0  0  0  0  0999 V2000
  185.5620  179.2950  144.9410 C   0  0  0  0  0  3  0  0  0  0  0  0
  186.8860  177.2060  145.6450 C   0  0  0  0  0  0  0  0  0  0  0  0
  185.9580  176.2420  143.2320 C   0  0  1  0  0  3  0  0  0  0  0  0
  186.4160  176.7570  144.4550 C   0  0  0  0  0  0  0  0  0  0  0  0
  186.4300  178.5550  145.8830 C   0  0  0  0  0  3  0  0  0  0  0  0
  185.1000  178.7800  143.7290 N   0  0  0  0  0  0  0  0  0  0  0  0
  185.5670  177.5430  143.5780 C   0  0  0  0  0  0  0  0  0  0  0  0
  187.7220  176.4320  146.5070 N   0  0  0  0  0  2  0  0  0  0  0  0
  189.6040  177.8310  146.4870 O   0  0  0  0  0  0  0  0  0  0  0  0
  189.0730  176.7510  146.8560 C   0  0  0  0  0  0  0  0  0  0  0  0
  189.8680  175.7840  147.6620 C   0  0  0  0  0  2  0  0  0  0  0  0
  190.8710  174.1520  145.9210 C   0  0  0  0  0  2  0  0  0  0  0  0
  192.2980  175.7270  146.8380 C   0  0  0  0  0  0  0  0  0  0  0  0
  190.9660  175.2500  146.8710 N   0  0  0  0  0  0  0  0  0  0  0  0
  192.7240  176.6940  147.5180 O   0  0  0  0  0  0  0  0  0  0  0  0
  193.0640  174.9510  145.8960 C   0  0  0  0  0  0  0  0  0  0  0  0
  192.2670  174.0410  145.3480 C   0  0  0  0  0  3  0  0  0  0  0  0
  194.4950  175.1670  145.5410 C   0  0  0  0  0  2  0  0  0  0  0  0
  197.3060  174.4770  143.6620 N   0  0  0  0  0  0  0  0  0  0  0  0
  197.1980  173.6860  145.9730 C   0  0  0  0  0  2  0  0  0  0  0  0
  197.9370  174.0780  144.7270 C   0  0  0  0  0  3  0  0  0  0  0  0
  195.3150  175.0010  142.5730 O   0  0  0  0  0  0  0  0  0  0  0  0
  195.8600  173.0500  145.6040 C   0  0  0  0  0  2  0  0  0  0  0  0
  195.0350  173.9970  144.7240 C   0  0  2  0  0  3  0  0  0  0  0  0
  195.8730  174.5120  143.5890 C   0  0  0  0  0  0  0  0  0  0  0  0
  187.0200  176.2940  142.2870 O   0  0  0  0  0  0  0  0  0  0  0  0
  189.7200  173.1140  141.7190 C   0  0  0  0  0  0  0  0  0  0  0  0
  188.3490  172.8940  141.6130 C   0  0  0  0  0  3  0  0  0  0  0  0
  190.2010  174.3950  142.0020 C   0  0  0  0  0  3  0  0  0  0  0  0
  187.9280  175.2480  142.0820 C   0  0  0  0  0  0  0  0  0  0  0  0
  187.4570  173.9540  141.7950 C   0  0  0  0  0  3  0  0  0  0  0  0
  189.3220  175.4780  142.1760 C   0  0  0  0  0  0  0  0  0  0  0  0
  191.3780  171.1490  141.3790 N   0  0  0  0  0  0  0  0  0  0  0  0
  190.6390  172.0260  141.5320 C   0  0  0  0  0  0  0  0  0  0  0  0
  189.3700  177.8370  141.9880 O   0  0  0  0  0  0  0  0  0  0  0  0
  189.9150  176.8110  142.4770 C   0  0  0  0  0  0  0  0  0  0  0  0
  191.2760  178.4860  143.7490 C   0  0  0  0  0  1  0  0  0  0  0  0
  191.1080  177.0240  143.3710 C   0  0  2  0  0  3  0  0  0  0  0  0
  192.2790  176.5220  142.7990 O   0  0  0  0  0  1  0  0  0  0  0  0
  1  5  1  0  0  0  0
  2  5  2  0  0  0  0
  2  8  1  0  0  0  0
  3 26  1  6  0  0  0
  3  7  1  0  0  0  0
  3  4  1  0  0  0  0
  4  2  1  0  0  0  0
  6  1  2  0  0  0  0
  7  6  1  0  0  0  0
  7  4  2  0  0  0  0
  8 10  1  0  0  0  0
  9 10  2  0  0  0  0
 10 11  1  0  0  0  0
 12 14  1  0  0  0  0
 13 14  1  0  0  0  0
 13 15  2  0  0  0  0
 14 11  1  0  0  0  0
 16 13  1  0  0  0  0
 17 16  2  0  0  0  0
 17 12  1  0  0  0  0
 18 16  1  0  0  0  0
 19 21  2  0  0  0  0
 21 20  1  0  0  0  0
 22 25  2  0  0  0  0
 23 20  1  0  0  0  0
 24 18  1  1  0  0  0
 24 23  1  0  0  0  0
 25 19  1  0  0  0  0
 25 24  1  0  0  0  0
 27 29  1  0  0  0  0
 28 27  2  0  0  0  0
 28 31  1  0  0  0  0
 29 32  2  0  0  0  0
 30 32  1  0  0  0  0
 30 26  1  0  0  0  0
 31 30  2  0  0  0  0
 32 36  1  0  0  0  0
 33 34  3  0  0  0  0
 34 27  1  0  0  0  0
 35 36  2  0  0  0  0
 36 38  1  0  0  0  0
 38 37  1  6  0  0  0
 39 38  1  0  0  0  0
M  END
>  <MODEL>
9

>  <REMARK>
 VINA RESULT:      -7.3      2.462      7.935
  Name = 
  10 active torsions:
  status: ('A' for Active; 'I' for Inactive)
    1  A    between atoms: C_1  and  C_38
    2  A    between atoms: C_4  and  N_13
    3  A    between atoms: C_6  and  O_28
    4  A    between atoms: N_9  and  C_27
    5  A    between atoms: C_15  and  C_26
    6  A    between atoms: C_15  and  C_31
    7  A    between atoms: C_22  and  C_34
    8  A    between atoms: C_27  and  C_33
    9  A    between atoms: O_28  and  C_32
   10  A    between atoms: C_34  and  C_39
                            x       y       z     vdW  Elec       q    Type
                         _______ _______ _______ _____ _____    ______ ____

>  <TORSDO>
F 10

$$$$
