=
 OpenBabel11062422593D

 61 63  0  0  1  0  0  0  0  0999 V2000
  196.9550  173.7930  145.0980 O   0  0  0  0  0  1  0  0  0  0  0  0
  194.3460  174.4250  143.1900 C   0  0  2  0  0  3  0  0  0  0  0  0
  194.1180  173.0030  143.7480 C   0  0  1  0  0  3  0  0  0  0  0  0
  197.1270  175.8270  140.9870 C   0  0  0  0  0  2  0  0  0  0  0  0
  196.3110  172.5560  145.0890 C   0  0  1  0  0  3  0  0  0  0  0  0
  195.7340  174.6430  142.5600 C   0  0  1  0  0  3  0  0  0  0  0  0
  194.7830  172.6970  145.1190 C   0  0  2  0  0  3  0  0  0  0  0  0
  197.2100  174.3340  140.6890 C   0  0  1  0  0  3  0  0  0  0  0  0
  196.8460  171.6280  143.9910 C   0  0  1  0  0  3  0  0  0  0  0  0
  197.3940  172.3600  142.9300 O   0  0  0  0  0  0  0  0  0  0  0  0
  194.2140  171.4460  145.7790 C   0  0  0  0  0  1  0  0  0  0  0  0
  196.0570  173.6810  141.4240 C   0  0  1  0  0  3  0  0  0  0  0  0
  195.9770  176.0280  141.9600 C   0  0  2  0  0  3  0  0  0  0  0  0
  194.7740  176.5400  141.1730 C   0  0  0  0  0  1  0  0  0  0  0  0
  196.4440  172.2860  141.9090 C   0  0  0  0  0  2  0  0  0  0  0  0
  192.6520  172.6970  143.7200 C   0  0  0  0  0  0  0  0  0  0  0  0
  191.9790  172.8120  144.7780 O   0  0  0  0  0  0  0  0  0  0  0  0
  192.0550  172.2600  142.5370 O   0  0  0  0  0  0  0  0  0  0  0  0
  192.7470  171.4500  141.5980 C   0  0  1  0  0  3  0  0  0  0  0  0
  192.6150  169.9720  141.9820 C   0  0  0  0  0  2  0  0  0  0  0  0
  193.3540  169.0600  141.0480 C   0  0  0  0  0  3  0  0  0  0  0  0
  194.5740  169.0180  141.0520 O   0  0  0  0  0  0  0  0  0  0  0  0
  192.2340  171.7330  140.1910 C   0  0  0  0  0  2  0  0  0  0  0  0
  190.7590  172.0990  140.2240 C   0  0  0  0  0  2  0  0  0  0  0  0
  190.5240  173.4050  139.4850 C   0  0  0  0  0  2  0  0  0  0  0  0
  188.7400  173.7540  139.3870 S   0  0  0  0  0  0  0  0  0  0  0  0
  188.4200  172.9200  140.9690 C   0  0  0  0  0  1  0  0  0  0  0  0
  197.9050  170.7110  144.5800 C   0  0  0  0  0  2  0  0  0  0  0  0
  197.3390  169.9550  145.7680 C   0  0  0  0  0  1  0  0  0  0  0  0
  193.8750  175.5630  144.1130 C   0  0  0  0  0  2  0  0  0  0  0  0
  192.4530  175.9460  143.8760 C   0  0  0  0  0  3  0  0  0  0  0  0
  191.9400  177.0440  144.4140 C   0  0  0  0  0  3  0  0  0  0  0  0
  190.5160  177.4340  144.1480 C   0  0  1  0  0  3  0  0  0  0  0  0
  189.3060  175.8940  142.7210 O   0  0  0  0  0  1  0  0  0  0  0  0
  190.0530  177.0750  142.7270 C   0  0  0  0  0  2  0  0  0  0  0  0
  189.5890  176.8960  145.2450 C   0  0  1  0  0  3  0  0  0  0  0  0
  190.2930  176.8890  146.6010 C   0  0  0  0  0  2  0  0  0  0  0  0
  190.3290  175.5160  147.1900 C   0  0  0  0  0  0  0  0  0  0  0  0
  189.5940  174.6130  146.7120 O   0  0  0  0  0  0  0  0  0  0  0  0
  191.1810  175.2280  148.2510 O   0  0  0  0  0  1  0  0  0  0  0  0
  188.3950  177.6700  145.3130 O   0  0  0  0  0  0  0  0  0  0  0  0
  187.1500  176.9360  147.1170 O   0  0  0  0  0  0  0  0  0  0  0  0
  187.2120  177.1950  145.8850 C   0  0  0  0  0  0  0  0  0  0  0  0
  186.3720  176.6280  143.6910 N   0  0  0  0  0  1  0  0  0  0  0  0
  185.9890  177.0300  145.0370 C   0  0  2  0  0  3  0  0  0  0  0  0
  185.9230  179.4470  144.9640 O   0  0  0  0  0  1  0  0  0  0  0  0
  185.1290  178.2960  144.9890 C   0  0  2  0  0  3  0  0  0  0  0  0
  184.1710  178.3510  146.1660 C   0  0  0  0  0  1  0  0  0  0  0  0
  197.1070  174.0750  139.1960 C   0  0  0  0  0  2  0  0  0  0  0  0
  196.6420  175.2450  138.5400 O   0  0  0  0  0  0  0  0  0  0  0  0
  195.8890  175.1970  137.3630 C   0  0  0  0  0  0  0  0  0  0  0  0
  196.4080  175.5320  136.2640 O   0  0  0  0  0  0  0  0  0  0  0  0
  194.4650  174.6930  137.4490 C   0  0  0  0  0  2  0  0  0  0  0  0
  192.6420  173.4350  136.4690 C   0  0  0  0  0  2  0  0  0  0  0  0
  194.1000  173.6300  136.5020 N   0  0  0  0  0  0  0  0  0  0  0  0
  194.7360  172.3640  136.8570 C   0  0  0  0  0  2  0  0  0  0  0  0
  192.3460  171.9430  136.4650 C   0  0  2  0  0  3  0  0  0  0  0  0
  193.8620  170.1550  136.9110 O   0  0  0  0  0  0  0  0  0  0  0  0
  193.6700  171.3510  136.7530 C   0  0  0  0  0  0  0  0  0  0  0  0
  190.8230  170.6030  135.2070 O   0  0  0  0  0  1  0  0  0  0  0  0
  191.8580  171.5310  135.0840 C   0  0  0  0  0  2  0  0  0  0  0  0
  2  3  1  0  0  0  0
  2 30  1  1  0  0  0
  3 16  1  1  0  0  0
  3  7  1  0  0  0  0
  4 13  1  0  0  0  0
  5  1  1  6  0  0  0
  5  7  1  0  0  0  0
  6  2  1  0  0  0  0
  7 11  1  0  0  0  0
  8  4  1  0  0  0  0
  8 12  1  0  0  0  0
  9 28  1  0  0  0  0
  9  5  1  0  0  0  0
 10  9  1  0  0  0  0
 12 15  1  0  0  0  0
 12  6  1  0  0  0  0
 13  6  1  0  0  0  0
 14 13  1  0  0  0  0
 15 10  1  0  0  0  0
 16 17  2  0  0  0  0
 18 16  1  0  0  0  0
 19 20  1  0  0  0  0
 19 18  1  0  0  0  0
 21 22  2  0  0  0  0
 21 20  1  0  0  0  0
 23 24  1  0  0  0  0
 23 19  1  0  0  0  0
 25 24  1  0  0  0  0
 26 25  1  0  0  0  0
 26 27  1  0  0  0  0
 28 29  1  0  0  0  0
 31 30  1  0  0  0  0
 31 32  2  0  0  0  0
 33 32  1  0  0  0  0
 33 36  1  0  0  0  0
 34 35  1  0  0  0  0
 35 33  1  0  0  0  0
 36 41  1  0  0  0  0
 36 37  1  0  0  0  0
 37 38  1  0  0  0  0
 38 40  1  0  0  0  0
 39 38  2  0  0  0  0
 41 43  1  0  0  0  0
 43 42  2  0  0  0  0
 44 45  1  0  0  0  0
 45 43  1  0  0  0  0
 46 47  1  0  0  0  0
 47 45  1  0  0  0  0
 47 48  1  0  0  0  0
 49  8  1  0  0  0  0
 50 49  1  0  0  0  0
 51 53  1  0  0  0  0
 51 50  1  0  0  0  0
 52 51  2  0  0  0  0
 54 55  1  0  0  0  0
 55 56  1  0  0  0  0
 55 53  1  0  0  0  0
 57 54  1  0  0  0  0
 57 59  1  0  0  0  0
 59 56  1  0  0  0  0
 59 58  2  0  0  0  0
 61 60  1  0  0  0  0
 61 57  1  0  0  0  0
M  END
>  <MODEL>
1

>  <REMARK>
 VINA RESULT:      -5.2      0.000      0.000
  Name = 
  27 active torsions:
  status: ('A' for Active; 'I' for Inactive)
    1  A    between atoms: O_2  and  C_4
    2  A    between atoms: O_2  and  C_27
    3  A    between atoms: C_3  and  C_43
    4  A    between atoms: C_4  and  C_28
    5  A    between atoms: C_5  and  C_61
    6  A    between atoms: C_7  and  C_24
    7  A    between atoms: C_8  and  C_43
    8  A    between atoms: N_9  and  C_21
    9  A    between atoms: C_10  and  C_46
   10  A    between atoms: C_17  and  C_33
   11  A    between atoms: C_18  and  C_22
   12  A    between atoms: C_18  and  O_35
   13  A    between atoms: C_18  and  C_61
   14  A    between atoms: S_19  and  C_32
   15  A    between atoms: C_21  and  C_27
   16  A    between atoms: C_22  and  C_47
   17  A    between atoms: C_22  and  C_56
   18  A    between atoms: C_24  and  C_41
   19  A    between atoms: C_31  and  C_41
   20  A    between atoms: C_31  and  C_44
   21  A    between atoms: C_32  and  C_44
   22  A    between atoms: O_35  and  C_37
   23  A    between atoms: C_37  and  C_48
   24  A    between atoms: C_40  and  C_52
   25  A    between atoms: C_41  and  O_57
   26  A    between atoms: C_46  and  O_57
   27  A    between atoms: C_48  and  C_53
                            x       y       z     vdW  Elec       q    Type
                         _______ _______ _______ _____ _____    ______ ____

>  <TORSDO>
F 27

$$$$
=
 OpenBabel11062422593D

 61 63  0  0  1  0  0  0  0  0999 V2000
  191.9620  174.8930  145.6490 O   0  0  0  0  0  1  0  0  0  0  0  0
  191.3630  175.3160  142.4380 C   0  0  2  0  0  3  0  0  0  0  0  0
  190.1800  175.9840  143.1730 C   0  0  1  0  0  3  0  0  0  0  0  0
  192.5610  171.6940  142.4140 C   0  0  0  0  0  2  0  0  0  0  0  0
  190.6770  175.4360  145.6750 C   0  0  1  0  0  3  0  0  0  0  0  0
  191.6660  173.8790  142.9030 C   0  0  1  0  0  3  0  0  0  0  0  0
  190.4820  176.5160  144.6010 C   0  0  2  0  0  3  0  0  0  0  0  0
  191.1080  171.5430  142.8490 C   0  0  1  0  0  3  0  0  0  0  0  0
  189.5890  174.3570  145.7010 C   0  0  1  0  0  3  0  0  0  0  0  0
  190.0440  173.1620  145.1300 O   0  0  0  0  0  0  0  0  0  0  0  0
  189.4150  177.4820  145.1040 C   0  0  0  0  0  1  0  0  0  0  0  0
  190.4880  172.9240  142.7750 C   0  0  1  0  0  3  0  0  0  0  0  0
  192.8050  173.1730  142.1670 C   0  0  2  0  0  3  0  0  0  0  0  0
  192.7620  173.4150  140.6610 C   0  0  0  0  0  1  0  0  0  0  0  0
  189.4410  173.1080  143.8710 C   0  0  0  0  0  2  0  0  0  0  0  0
  189.5680  177.0150  142.2750 C   0  0  0  0  0  0  0  0  0  0  0  0
  189.9670  178.2070  142.3440 O   0  0  0  0  0  0  0  0  0  0  0  0
  188.5460  176.6540  141.3970 O   0  0  0  0  0  0  0  0  0  0  0  0
  187.2050  177.0840  141.5840 C   0  0  1  0  0  3  0  0  0  0  0  0
  186.4550  177.0600  140.2470 C   0  0  0  0  0  2  0  0  0  0  0  0
  185.1850  177.8580  140.2770 C   0  0  0  0  0  3  0  0  0  0  0  0
  185.1490  178.9540  140.8140 O   0  0  0  0  0  0  0  0  0  0  0  0
  186.5280  176.2260  142.6460 C   0  0  0  0  0  2  0  0  0  0  0  0
  185.6160  177.0760  143.5170 C   0  0  0  0  0  2  0  0  0  0  0  0
  185.9120  176.8300  144.9860 C   0  0  0  0  0  2  0  0  0  0  0  0
  185.7320  178.3780  145.9270 S   0  0  0  0  0  0  0  0  0  0  0  0
  184.4000  178.9640  144.8400 C   0  0  0  0  0  1  0  0  0  0  0  0
  189.1640  174.1070  147.1380 C   0  0  0  0  0  2  0  0  0  0  0  0
  188.3190  175.2620  147.6420 C   0  0  0  0  0  1  0  0  0  0  0  0
  192.6040  176.2090  142.2660 C   0  0  0  0  0  2  0  0  0  0  0  0
  193.7220  175.8200  143.1750 C   0  0  0  0  0  3  0  0  0  0  0  0
  194.2530  176.6950  144.0200 C   0  0  0  0  0  3  0  0  0  0  0  0
  195.3600  176.2870  144.9480 C   0  0  1  0  0  3  0  0  0  0  0  0
  194.1140  177.0290  146.8900 O   0  0  0  0  0  1  0  0  0  0  0  0
  194.8640  175.9720  146.3680 C   0  0  0  0  0  2  0  0  0  0  0  0
  196.2010  175.1620  144.3330 C   0  0  1  0  0  3  0  0  0  0  0  0
  197.2910  175.7290  143.4240 C   0  0  0  0  0  2  0  0  0  0  0  0
  197.0190  175.4180  141.9880 C   0  0  0  0  0  0  0  0  0  0  0  0
  197.1430  174.2370  141.5710 O   0  0  0  0  0  1  0  0  0  0  0  0
  196.6140  176.4230  141.1150 O   0  0  0  0  0  0  0  0  0  0  0  0
  196.7800  174.3570  145.3550 O   0  0  0  0  0  0  0  0  0  0  0  0
  197.0160  172.3260  146.4360 O   0  0  0  0  0  0  0  0  0  0  0  0
  196.4300  173.0190  145.5610 C   0  0  0  0  0  0  0  0  0  0  0  0
  194.1750  172.1520  145.6250 N   0  0  0  0  0  1  0  0  0  0  0  0
  195.3190  172.4100  144.7630 C   0  0  2  0  0  3  0  0  0  0  0  0
  195.7140  170.0280  144.9110 O   0  0  0  0  0  1  0  0  0  0  0  0
  195.7440  171.1260  144.0450 C   0  0  2  0  0  3  0  0  0  0  0  0
  197.1290  171.2710  143.4380 C   0  0  0  0  0  1  0  0  0  0  0  0
  190.3680  170.5760  141.9400 C   0  0  0  0  0  2  0  0  0  0  0  0
  191.3020  169.8730  141.1320 O   0  0  0  0  0  0  0  0  0  0  0  0
  190.9670  169.3500  139.8810 C   0  0  0  0  0  0  0  0  0  0  0  0
  190.2250  168.3340  139.7960 O   0  0  0  0  0  0  0  0  0  0  0  0
  191.4800  170.0640  138.6490 C   0  0  0  0  0  2  0  0  0  0  0  0
  191.0720  171.3330  136.6280 C   0  0  0  0  0  2  0  0  0  0  0  0
  190.4740  170.7800  137.8530 N   0  0  0  0  0  0  0  0  0  0  0  0
  189.8750  171.8720  138.6170 C   0  0  0  0  0  2  0  0  0  0  0  0
  190.5540  172.7490  136.4240 C   0  0  2  0  0  3  0  0  0  0  0  0
  189.3660  174.1050  137.9860 O   0  0  0  0  0  0  0  0  0  0  0  0
  189.8680  173.0280  137.7020 C   0  0  0  0  0  0  0  0  0  0  0  0
  189.6610  171.5670  134.5520 O   0  0  0  0  0  1  0  0  0  0  0  0
  189.5680  172.7620  135.2650 C   0  0  0  0  0  2  0  0  0  0  0  0
  2 30  1  1  0  0  0
  2  6  1  0  0  0  0
  2  3  1  0  0  0  0
  3 16  1  6  0  0  0
  3  7  1  0  0  0  0
  4  8  1  0  0  0  0
  5  1  1  6  0  0  0
  5  9  1  0  0  0  0
  7 11  1  0  0  0  0
  7  5  1  0  0  0  0
  9 28  1  0  0  0  0
 10  9  1  0  0  0  0
 12  8  1  0  0  0  0
 12  6  1  0  0  0  0
 12 15  1  0  0  0  0
 13  4  1  0  0  0  0
 13  6  1  0  0  0  0
 14 13  1  0  0  0  0
 15 10  1  0  0  0  0
 16 17  2  0  0  0  0
 18 19  1  0  0  0  0
 18 16  1  0  0  0  0
 19 23  1  0  0  0  0
 20 21  1  0  0  0  0
 20 19  1  0  0  0  0
 21 22  2  0  0  0  0
 23 24  1  0  0  0  0
 24 25  1  0  0  0  0
 25 26  1  0  0  0  0
 27 26  1  0  0  0  0
 28 29  1  0  0  0  0
 30 31  1  0  0  0  0
 31 32  2  0  0  0  0
 32 33  1  0  0  0  0
 33 35  1  0  0  0  0
 35 34  1  0  0  0  0
 36 33  1  0  0  0  0
 36 41  1  0  0  0  0
 37 36  1  0  0  0  0
 38 37  1  0  0  0  0
 39 38  1  0  0  0  0
 40 38  2  0  0  0  0
 41 43  1  0  0  0  0
 43 42  2  0  0  0  0
 45 43  1  0  0  0  0
 45 44  1  0  0  0  0
 47 45  1  0  0  0  0
 47 46  1  0  0  0  0
 48 47  1  0  0  0  0
 49  8  1  0  0  0  0
 50 49  1  0  0  0  0
 51 50  1  0  0  0  0
 52 51  2  0  0  0  0
 53 51  1  0  0  0  0
 54 55  1  0  0  0  0
 55 56  1  0  0  0  0
 55 53  1  0  0  0  0
 57 54  1  0  0  0  0
 57 59  1  0  0  0  0
 59 58  2  0  0  0  0
 59 56  1  0  0  0  0
 60 61  1  0  0  0  0
 61 57  1  0  0  0  0
M  END
>  <MODEL>
2

>  <REMARK>
 VINA RESULT:      -5.2      2.894      7.738
  Name = 
  27 active torsions:
  status: ('A' for Active; 'I' for Inactive)
    1  A    between atoms: O_2  and  C_4
    2  A    between atoms: O_2  and  C_27
    3  A    between atoms: C_3  and  C_43
    4  A    between atoms: C_4  and  C_28
    5  A    between atoms: C_5  and  C_61
    6  A    between atoms: C_7  and  C_24
    7  A    between atoms: C_8  and  C_43
    8  A    between atoms: N_9  and  C_21
    9  A    between atoms: C_10  and  C_46
   10  A    between atoms: C_17  and  C_33
   11  A    between atoms: C_18  and  C_22
   12  A    between atoms: C_18  and  O_35
   13  A    between atoms: C_18  and  C_61
   14  A    between atoms: S_19  and  C_32
   15  A    between atoms: C_21  and  C_27
   16  A    between atoms: C_22  and  C_47
   17  A    between atoms: C_22  and  C_56
   18  A    between atoms: C_24  and  C_41
   19  A    between atoms: C_31  and  C_41
   20  A    between atoms: C_31  and  C_44
   21  A    between atoms: C_32  and  C_44
   22  A    between atoms: O_35  and  C_37
   23  A    between atoms: C_37  and  C_48
   24  A    between atoms: C_40  and  C_52
   25  A    between atoms: C_41  and  O_57
   26  A    between atoms: C_46  and  O_57
   27  A    between atoms: C_48  and  C_53
                            x       y       z     vdW  Elec       q    Type
                         _______ _______ _______ _____ _____    ______ ____

>  <TORSDO>
F 27

$$$$
=
 OpenBabel11062422593D

 61 63  0  0  1  0  0  0  0  0999 V2000
  192.1420  171.0920  140.1220 O   0  0  0  0  0  1  0  0  0  0  0  0
  193.5910  173.4720  141.8780 C   0  0  2  0  0  3  0  0  0  0  0  0
  194.4600  172.2130  142.0890 C   0  0  1  0  0  3  0  0  0  0  0  0
  189.9370  174.1560  142.7320 C   0  0  0  0  0  2  0  0  0  0  0  0
  193.1260  170.3750  140.8030 C   0  0  1  0  0  3  0  0  0  0  0  0
  192.0870  173.2510  142.1200 C   0  0  1  0  0  3  0  0  0  0  0  0
  194.4340  171.1690  140.9380 C   0  0  2  0  0  3  0  0  0  0  0  0
  190.2720  173.0070  143.6770 C   0  0  1  0  0  3  0  0  0  0  0  0
  192.6070  169.7730  142.1140 C   0  0  1  0  0  3  0  0  0  0  0  0
  191.5240  170.5050  142.6170 O   0  0  0  0  0  0  0  0  0  0  0  0
  195.5780  170.1660  141.0310 C   0  0  0  0  0  1  0  0  0  0  0  0
  191.7530  172.7290  143.5110 C   0  0  1  0  0  3  0  0  0  0  0  0
  191.2030  174.4880  141.9600 C   0  0  2  0  0  3  0  0  0  0  0  0
  191.8260  175.7330  142.5860 C   0  0  0  0  0  1  0  0  0  0  0  0
  192.0470  171.2410  143.6820 C   0  0  0  0  0  2  0  0  0  0  0  0
  195.8450  172.6350  142.4730 C   0  0  0  0  0  0  0  0  0  0  0  0
  196.6490  172.9990  141.5760 O   0  0  0  0  0  0  0  0  0  0  0  0
  196.2400  172.5900  143.8110 O   0  0  0  0  0  0  0  0  0  0  0  0
  195.4040  172.0520  144.8260 C   0  0  1  0  0  3  0  0  0  0  0  0
  196.2140  171.1150  145.7290 C   0  0  0  0  0  2  0  0  0  0  0  0
  195.4390  169.9000  146.1510 C   0  0  0  0  0  3  0  0  0  0  0  0
  194.5510  169.4510  145.4440 O   0  0  0  0  0  0  0  0  0  0  0  0
  194.7410  173.1810  145.6050 C   0  0  0  0  0  2  0  0  0  0  0  0
  195.3060  174.5270  145.1790 C   0  0  0  0  0  2  0  0  0  0  0  0
  195.0130  175.5790  146.2350 C   0  0  0  0  0  2  0  0  0  0  0  0
  193.7530  176.7420  145.6250 S   0  0  0  0  0  0  0  0  0  0  0  0
  192.6120  176.3210  146.9750 C   0  0  0  0  0  1  0  0  0  0  0  0
  192.1820  168.3340  141.8710 C   0  0  0  0  0  2  0  0  0  0  0  0
  190.6840  168.2630  141.6370 C   0  0  0  0  0  1  0  0  0  0  0  0
  193.9240  174.2810  140.6120 C   0  0  0  0  0  2  0  0  0  0  0  0
  192.9680  174.0210  139.4960 C   0  0  0  0  0  3  0  0  0  0  0  0
  193.3730  174.0270  138.2320 C   0  0  0  0  0  3  0  0  0  0  0  0
  192.4090  173.7380  137.1190 C   0  0  1  0  0  3  0  0  0  0  0  0
  192.8800  176.0490  136.5630 O   0  0  0  0  0  1  0  0  0  0  0  0
  191.9780  175.0020  136.3580 C   0  0  0  0  0  2  0  0  0  0  0  0
  192.9470  172.6310  136.2050 C   0  0  1  0  0  3  0  0  0  0  0  0
  193.3890  171.4160  137.0190 C   0  0  0  0  0  2  0  0  0  0  0  0
  194.7380  170.9360  136.5930 C   0  0  0  0  0  0  0  0  0  0  0  0
  195.2370  171.3500  135.5140 O   0  0  0  0  0  0  0  0  0  0  0  0
  195.4530  170.0470  137.3900 O   0  0  0  0  0  1  0  0  0  0  0  0
  191.9610  172.2520  135.2490 O   0  0  0  0  0  0  0  0  0  0  0  0
  191.4240  170.0130  135.0350 O   0  0  0  0  0  0  0  0  0  0  0  0
  191.1010  171.1650  135.4330 C   0  0  0  0  0  0  0  0  0  0  0  0
  189.3260  172.7220  135.9490 N   0  0  0  0  0  1  0  0  0  0  0  0
  189.7990  171.3590  136.1460 C   0  0  2  0  0  3  0  0  0  0  0  0
  189.4460  169.7410  137.9090 O   0  0  0  0  0  1  0  0  0  0  0  0
  189.8910  171.0390  137.6400 C   0  0  2  0  0  3  0  0  0  0  0  0
  189.1010  172.0410  138.4640 C   0  0  0  0  0  1  0  0  0  0  0  0
  189.9560  173.3800  145.1150 C   0  0  0  0  0  2  0  0  0  0  0  0
  189.5190  174.7300  145.1720 O   0  0  0  0  0  0  0  0  0  0  0  0
  189.1130  175.3370  146.3630 C   0  0  0  0  0  0  0  0  0  0  0  0
  188.7990  174.6320  147.3600 O   0  0  0  0  0  0  0  0  0  0  0  0
  189.1080  176.8490  146.4270 C   0  0  0  0  0  2  0  0  0  0  0  0
  186.7270  177.1170  146.7780 C   0  0  0  0  0  2  0  0  0  0  0  0
  187.8830  177.5090  145.9560 N   0  0  0  0  0  0  0  0  0  0  0  0
  187.6030  177.1730  144.5620 C   0  0  0  0  0  2  0  0  0  0  0  0
  185.5440  176.8400  145.8620 C   0  0  2  0  0  3  0  0  0  0  0  0
  185.5650  176.5870  143.4900 O   0  0  0  0  0  0  0  0  0  0  0  0
  186.1660  176.8460  144.5220 C   0  0  0  0  0  0  0  0  0  0  0  0
  184.5220  178.4430  147.3060 O   0  0  0  0  0  1  0  0  0  0  0  0
  184.5300  177.9670  145.9940 C   0  0  0  0  0  2  0  0  0  0  0  0
  2 30  1  6  0  0  0
  2  3  1  0  0  0  0
  2  6  1  0  0  0  0
  3 16  1  6  0  0  0
  4  8  1  0  0  0  0
  5  1  1  1  0  0  0
  5  7  1  0  0  0  0
  5  9  1  0  0  0  0
  6 12  1  0  0  0  0
  7 11  1  0  0  0  0
  7  3  1  0  0  0  0
  8 49  1  0  0  0  0
  9 10  1  0  0  0  0
 10 15  1  0  0  0  0
 12  8  1  0  0  0  0
 12 15  1  0  0  0  0
 13  6  1  0  0  0  0
 13 14  1  0  0  0  0
 13  4  1  0  0  0  0
 16 18  1  0  0  0  0
 17 16  2  0  0  0  0
 18 19  1  0  0  0  0
 19 23  1  0  0  0  0
 19 20  1  0  0  0  0
 20 21  1  0  0  0  0
 22 21  2  0  0  0  0
 24 23  1  0  0  0  0
 24 25  1  0  0  0  0
 26 25  1  0  0  0  0
 26 27  1  0  0  0  0
 28  9  1  0  0  0  0
 29 28  1  0  0  0  0
 31 30  1  0  0  0  0
 32 31  2  0  0  0  0
 33 32  1  0  0  0  0
 35 34  1  0  0  0  0
 35 33  1  0  0  0  0
 36 37  1  0  0  0  0
 36 33  1  0  0  0  0
 38 37  1  0  0  0  0
 38 40  1  0  0  0  0
 39 38  2  0  0  0  0
 41 43  1  0  0  0  0
 41 36  1  0  0  0  0
 42 43  2  0  0  0  0
 43 45  1  0  0  0  0
 44 45  1  0  0  0  0
 45 47  1  0  0  0  0
 47 46  1  0  0  0  0
 47 48  1  0  0  0  0
 49 50  1  0  0  0  0
 50 51  1  0  0  0  0
 51 53  1  0  0  0  0
 51 52  2  0  0  0  0
 55 53  1  0  0  0  0
 55 54  1  0  0  0  0
 56 55  1  0  0  0  0
 57 61  1  0  0  0  0
 57 54  1  0  0  0  0
 58 59  2  0  0  0  0
 59 56  1  0  0  0  0
 59 57  1  0  0  0  0
 61 60  1  0  0  0  0
M  END
>  <MODEL>
3

>  <REMARK>
 VINA RESULT:      -4.9      2.417      9.105
  Name = 
  27 active torsions:
  status: ('A' for Active; 'I' for Inactive)
    1  A    between atoms: O_2  and  C_4
    2  A    between atoms: O_2  and  C_27
    3  A    between atoms: C_3  and  C_43
    4  A    between atoms: C_4  and  C_28
    5  A    between atoms: C_5  and  C_61
    6  A    between atoms: C_7  and  C_24
    7  A    between atoms: C_8  and  C_43
    8  A    between atoms: N_9  and  C_21
    9  A    between atoms: C_10  and  C_46
   10  A    between atoms: C_17  and  C_33
   11  A    between atoms: C_18  and  C_22
   12  A    between atoms: C_18  and  O_35
   13  A    between atoms: C_18  and  C_61
   14  A    between atoms: S_19  and  C_32
   15  A    between atoms: C_21  and  C_27
   16  A    between atoms: C_22  and  C_47
   17  A    between atoms: C_22  and  C_56
   18  A    between atoms: C_24  and  C_41
   19  A    between atoms: C_31  and  C_41
   20  A    between atoms: C_31  and  C_44
   21  A    between atoms: C_32  and  C_44
   22  A    between atoms: O_35  and  C_37
   23  A    between atoms: C_37  and  C_48
   24  A    between atoms: C_40  and  C_52
   25  A    between atoms: C_41  and  O_57
   26  A    between atoms: C_46  and  O_57
   27  A    between atoms: C_48  and  C_53
                            x       y       z     vdW  Elec       q    Type
                         _______ _______ _______ _____ _____    ______ ____

>  <TORSDO>
F 27

$$$$
=
 OpenBabel11062422593D

 61 63  0  0  1  0  0  0  0  0999 V2000
  193.4640  175.4990  142.3070 O   0  0  0  0  0  1  0  0  0  0  0  0
  192.6570  172.5620  143.5610 C   0  0  2  0  0  3  0  0  0  0  0  0
  194.1960  172.5530  143.4390 C   0  0  1  0  0  3  0  0  0  0  0  0
  189.9450  172.9110  140.9000 C   0  0  0  0  0  2  0  0  0  0  0  0
  194.6940  174.8400  142.2860 C   0  0  1  0  0  3  0  0  0  0  0  0
  191.9230  172.9930  142.2770 C   0  0  1  0  0  3  0  0  0  0  0  0
  194.8910  173.9410  143.5150 C   0  0  2  0  0  3  0  0  0  0  0  0
  191.1360  172.4330  140.0760 C   0  0  1  0  0  3  0  0  0  0  0  0
  194.9640  174.1530  140.9420 C   0  0  1  0  0  3  0  0  0  0  0  0
  193.7690  173.8400  140.2810 O   0  0  0  0  0  0  0  0  0  0  0  0
  196.3900  173.8310  143.7730 C   0  0  0  0  0  1  0  0  0  0  0  0
  192.2520  172.1390  141.0590 C   0  0  1  0  0  3  0  0  0  0  0  0
  190.3960  172.9730  142.3500 C   0  0  2  0  0  3  0  0  0  0  0  0
  189.8650  171.7340  143.0640 C   0  0  0  0  0  1  0  0  0  0  0  0
  193.6130  172.4620  140.4470 C   0  0  0  0  0  2  0  0  0  0  0  0
  194.7560  171.5580  144.4100 C   0  0  0  0  0  0  0  0  0  0  0  0
  193.9720  170.9340  145.1720 O   0  0  0  0  0  0  0  0  0  0  0  0
  196.1340  171.3560  144.4820 O   0  0  0  0  0  0  0  0  0  0  0  0
  196.7450  170.1570  144.0270 C   0  0  1  0  0  3  0  0  0  0  0  0
  197.9390  169.8050  144.9230 C   0  0  0  0  0  2  0  0  0  0  0  0
  197.5750  168.8610  146.0320 C   0  0  0  0  0  3  0  0  0  0  0  0
  197.4130  169.2700  147.1710 O   0  0  0  0  0  0  0  0  0  0  0  0
  195.7120  169.0380  143.9690 C   0  0  0  0  0  2  0  0  0  0  0  0
  195.6700  168.4220  142.5800 C   0  0  0  0  0  2  0  0  0  0  0  0
  194.8290  169.2780  141.6500 C   0  0  0  0  0  2  0  0  0  0  0  0
  193.4090  168.3210  141.0320 S   0  0  0  0  0  0  0  0  0  0  0  0
  192.3780  168.8070  142.4470 C   0  0  0  0  0  1  0  0  0  0  0  0
  195.8040  175.0700  140.0690 C   0  0  0  0  0  2  0  0  0  0  0  0
  196.8050  174.2580  139.2680 C   0  0  0  0  0  1  0  0  0  0  0  0
  192.1150  173.2000  144.8520 C   0  0  0  0  0  2  0  0  0  0  0  0
  191.9360  174.6760  144.7330 C   0  0  0  0  0  3  0  0  0  0  0  0
  190.7980  175.2590  145.0880 C   0  0  0  0  0  3  0  0  0  0  0  0
  190.6380  176.7480  144.9880 C   0  0  1  0  0  3  0  0  0  0  0  0
  191.3080  177.8810  142.9540 O   0  0  0  0  0  1  0  0  0  0  0  0
  191.7670  177.4200  144.1900 C   0  0  0  0  0  2  0  0  0  0  0  0
  189.2370  177.1140  144.4860 C   0  0  1  0  0  3  0  0  0  0  0  0
  188.4960  175.8750  143.9810 C   0  0  0  0  0  2  0  0  0  0  0  0
  188.0600  176.0420  142.5620 C   0  0  0  0  0  0  0  0  0  0  0  0
  188.2810  177.1260  141.9640 O   0  0  0  0  0  1  0  0  0  0  0  0
  187.4260  174.9980  141.8950 O   0  0  0  0  0  0  0  0  0  0  0  0
  188.4880  177.7500  145.5170 O   0  0  0  0  0  0  0  0  0  0  0  0
  186.9580  176.4440  146.6570 O   0  0  0  0  0  0  0  0  0  0  0  0
  187.1790  177.3820  145.8450 C   0  0  0  0  0  0  0  0  0  0  0  0
  186.4950  179.0030  144.1880 N   0  0  0  0  0  1  0  0  0  0  0  0
  186.0260  178.1360  145.2590 C   0  0  2  0  0  3  0  0  0  0  0  0
  186.1120  179.3930  147.3250 O   0  0  0  0  0  1  0  0  0  0  0  0
  185.2620  178.9510  146.3060 C   0  0  2  0  0  3  0  0  0  0  0  0
  184.1170  178.1470  146.8970 C   0  0  0  0  0  1  0  0  0  0  0  0
  190.7800  171.1870  139.2840 C   0  0  0  0  0  2  0  0  0  0  0  0
  189.7140  171.4780  138.3910 O   0  0  0  0  0  0  0  0  0  0  0  0
  189.9290  171.8520  137.0620 C   0  0  0  0  0  0  0  0  0  0  0  0
  190.0230  170.9720  136.1630 O   0  0  0  0  0  0  0  0  0  0  0  0
  189.9990  173.3280  136.7390 C   0  0  0  0  0  2  0  0  0  0  0  0
  192.3600  173.7730  137.0380 C   0  0  0  0  0  2  0  0  0  0  0  0
  191.2340  173.7880  136.0900 N   0  0  0  0  0  0  0  0  0  0  0  0
  191.0830  175.1420  135.5630 C   0  0  0  0  0  2  0  0  0  0  0  0
  193.1670  175.0510  136.8630 C   0  0  2  0  0  3  0  0  0  0  0  0
  192.5490  177.0100  135.6490 O   0  0  0  0  0  0  0  0  0  0  0  0
  192.3000  175.8600  135.9810 C   0  0  0  0  0  0  0  0  0  0  0  0
  195.3930  175.7630  136.3790 O   0  0  0  0  0  1  0  0  0  0  0  0
  194.4840  174.7250  136.1750 C   0  0  0  0  0  2  0  0  0  0  0  0
  2 30  1  1  0  0  0
  3  7  1  0  0  0  0
  3  2  1  0  0  0  0
  3 16  1  1  0  0  0
  4 13  1  0  0  0  0
  5  1  1  6  0  0  0
  5  7  1  0  0  0  0
  6 13  1  0  0  0  0
  6  2  1  0  0  0  0
  7 11  1  0  0  0  0
  8  4  1  0  0  0  0
  8 12  1  0  0  0  0
  9  5  1  0  0  0  0
 10 15  1  0  0  0  0
 10  9  1  0  0  0  0
 12  6  1  0  0  0  0
 13 14  1  0  0  0  0
 15 12  1  0  0  0  0
 16 18  1  0  0  0  0
 16 17  2  0  0  0  0
 19 18  1  0  0  0  0
 19 20  1  0  0  0  0
 20 21  1  0  0  0  0
 21 22  2  0  0  0  0
 23 19  1  0  0  0  0
 24 23  1  0  0  0  0
 25 24  1  0  0  0  0
 26 25  1  0  0  0  0
 26 27  1  0  0  0  0
 28  9  1  0  0  0  0
 29 28  1  0  0  0  0
 31 30  1  0  0  0  0
 31 32  2  0  0  0  0
 33 32  1  0  0  0  0
 34 35  1  0  0  0  0
 35 33  1  0  0  0  0
 36 33  1  0  0  0  0
 36 41  1  0  0  0  0
 37 36  1  0  0  0  0
 38 37  1  0  0  0  0
 39 38  1  0  0  0  0
 40 38  2  0  0  0  0
 41 43  1  0  0  0  0
 43 42  2  0  0  0  0
 44 45  1  0  0  0  0
 45 43  1  0  0  0  0
 45 47  1  0  0  0  0
 47 48  1  0  0  0  0
 47 46  1  0  0  0  0
 49  8  1  0  0  0  0
 50 49  1  0  0  0  0
 51 50  1  0  0  0  0
 52 51  2  0  0  0  0
 53 51  1  0  0  0  0
 55 53  1  0  0  0  0
 55 54  1  0  0  0  0
 56 59  1  0  0  0  0
 56 55  1  0  0  0  0
 57 54  1  0  0  0  0
 58 59  2  0  0  0  0
 59 57  1  0  0  0  0
 61 60  1  0  0  0  0
 61 57  1  0  0  0  0
M  END
>  <MODEL>
4

>  <REMARK>
 VINA RESULT:      -4.4      2.196      4.845
  Name = 
  27 active torsions:
  status: ('A' for Active; 'I' for Inactive)
    1  A    between atoms: O_2  and  C_4
    2  A    between atoms: O_2  and  C_27
    3  A    between atoms: C_3  and  C_43
    4  A    between atoms: C_4  and  C_28
    5  A    between atoms: C_5  and  C_61
    6  A    between atoms: C_7  and  C_24
    7  A    between atoms: C_8  and  C_43
    8  A    between atoms: N_9  and  C_21
    9  A    between atoms: C_10  and  C_46
   10  A    between atoms: C_17  and  C_33
   11  A    between atoms: C_18  and  C_22
   12  A    between atoms: C_18  and  O_35
   13  A    between atoms: C_18  and  C_61
   14  A    between atoms: S_19  and  C_32
   15  A    between atoms: C_21  and  C_27
   16  A    between atoms: C_22  and  C_47
   17  A    between atoms: C_22  and  C_56
   18  A    between atoms: C_24  and  C_41
   19  A    between atoms: C_31  and  C_41
   20  A    between atoms: C_31  and  C_44
   21  A    between atoms: C_32  and  C_44
   22  A    between atoms: O_35  and  C_37
   23  A    between atoms: C_37  and  C_48
   24  A    between atoms: C_40  and  C_52
   25  A    between atoms: C_41  and  O_57
   26  A    between atoms: C_46  and  O_57
   27  A    between atoms: C_48  and  C_53
                            x       y       z     vdW  Elec       q    Type
                         _______ _______ _______ _____ _____    ______ ____

>  <TORSDO>
F 27

$$$$
=
 OpenBabel11062422593D

 61 63  0  0  1  0  0  0  0  0999 V2000
  193.4650  176.1380  145.4420 O   0  0  0  0  0  1  0  0  0  0  0  0
  191.7110  175.5220  142.7230 C   0  0  2  0  0  3  0  0  0  0  0  0
  190.7210  176.1620  143.7200 C   0  0  1  0  0  3  0  0  0  0  0  0
  193.7390  172.2980  142.9430 C   0  0  0  0  0  2  0  0  0  0  0  0
  192.1720  176.4410  145.8710 C   0  0  1  0  0  3  0  0  0  0  0  0
  192.5240  174.3490  143.3040 C   0  0  1  0  0  3  0  0  0  0  0  0
  191.3420  177.1220  144.7720 C   0  0  2  0  0  3  0  0  0  0  0  0
  192.6190  172.0350  143.9430 C   0  0  1  0  0  3  0  0  0  0  0  0
  191.4850  175.2460  146.5420 C   0  0  1  0  0  3  0  0  0  0  0  0
  192.0150  174.0330  146.0870 O   0  0  0  0  0  0  0  0  0  0  0  0
  190.2970  177.9970  145.4560 C   0  0  0  0  0  1  0  0  0  0  0  0
  191.6690  173.2130  143.8490 C   0  0  1  0  0  3  0  0  0  0  0  0
  193.4840  173.6650  142.3310 C   0  0  2  0  0  3  0  0  0  0  0  0
  192.8650  173.4580  140.9520 C   0  0  0  0  0  1  0  0  0  0  0  0
  191.0540  173.5230  145.2110 C   0  0  0  0  0  2  0  0  0  0  0  0
  189.5880  176.7770  142.9550 C   0  0  0  0  0  0  0  0  0  0  0  0
  189.7600  177.8870  142.3870 O   0  0  0  0  0  0  0  0  0  0  0  0
  188.3520  176.1330  142.9060 O   0  0  0  0  0  0  0  0  0  0  0  0
  187.1360  176.8470  142.7280 C   0  0  1  0  0  3  0  0  0  0  0  0
  186.7440  176.8540  141.2460 C   0  0  0  0  0  2  0  0  0  0  0  0
  186.2440  178.1900  140.7820 C   0  0  0  0  0  3  0  0  0  0  0  0
  185.4410  178.8220  141.4510 O   0  0  0  0  0  0  0  0  0  0  0  0
  186.0500  176.2510  143.6150 C   0  0  0  0  0  2  0  0  0  0  0  0
  185.5070  177.3000  144.5720 C   0  0  0  0  0  2  0  0  0  0  0  0
  185.4120  176.7310  145.9770 C   0  0  0  0  0  2  0  0  0  0  0  0
  186.6770  177.4890  147.0450 S   0  0  0  0  0  0  0  0  0  0  0  0
  187.8090  176.0870  146.8160 C   0  0  0  0  0  1  0  0  0  0  0  0
  191.6610  175.3480  148.0480 C   0  0  0  0  0  2  0  0  0  0  0  0
  191.4520  176.7800  148.5040 C   0  0  0  0  0  1  0  0  0  0  0  0
  192.5350  176.5250  141.8970 C   0  0  0  0  0  2  0  0  0  0  0  0
  193.9970  176.4430  142.1840 C   0  0  0  0  0  3  0  0  0  0  0  0
  194.8900  176.4710  141.2040 C   0  0  0  0  0  3  0  0  0  0  0  0
  196.3590  176.4130  141.5050 C   0  0  1  0  0  3  0  0  0  0  0  0
  197.6130  176.9430  143.5100 O   0  0  0  0  0  1  0  0  0  0  0  0
  196.6560  176.0760  142.9750 C   0  0  0  0  0  2  0  0  0  0  0  0
  197.0850  175.4980  140.5120 C   0  0  1  0  0  3  0  0  0  0  0  0
  197.5010  174.1880  141.1800 C   0  0  0  0  0  2  0  0  0  0  0  0
  197.0940  173.0060  140.3610 C   0  0  0  0  0  0  0  0  0  0  0  0
  195.9740  172.4670  140.5560 O   0  0  0  0  0  1  0  0  0  0  0  0
  197.9400  172.5090  139.3750 O   0  0  0  0  0  0  0  0  0  0  0  0
  196.2580  175.2350  139.3820 O   0  0  0  0  0  0  0  0  0  0  0  0
  197.8990  175.6920  137.8190 O   0  0  0  0  0  0  0  0  0  0  0  0
  196.7140  175.3420  138.0650 C   0  0  0  0  0  0  0  0  0  0  0  0
  195.8590  176.0410  135.9140 N   0  0  0  0  0  1  0  0  0  0  0  0
  195.7980  175.0000  136.9310 C   0  0  2  0  0  3  0  0  0  0  0  0
  194.0760  173.4280  137.5760 O   0  0  0  0  0  1  0  0  0  0  0  0
  194.3520  174.7850  137.3850 C   0  0  2  0  0  3  0  0  0  0  0  0
  193.3710  175.3790  136.3880 C   0  0  0  0  0  1  0  0  0  0  0  0
  191.8960  170.7390  143.6160 C   0  0  0  0  0  2  0  0  0  0  0  0
  192.0200  170.4610  142.2290 O   0  0  0  0  0  0  0  0  0  0  0  0
  191.6260  169.2430  141.6690 C   0  0  0  0  0  0  0  0  0  0  0  0
  191.8170  168.1660  142.2960 O   0  0  0  0  0  0  0  0  0  0  0  0
  190.9310  169.2670  140.3250 C   0  0  0  0  0  2  0  0  0  0  0  0
  189.7550  170.7810  138.8460 C   0  0  0  0  0  2  0  0  0  0  0  0
  191.0030  170.5350  139.5860 N   0  0  0  0  0  0  0  0  0  0  0  0
  192.1170  170.5340  138.6410 C   0  0  0  0  0  2  0  0  0  0  0  0
  190.1010  171.2890  137.4540 C   0  0  2  0  0  3  0  0  0  0  0  0
  192.2340  171.2750  136.3870 O   0  0  0  0  0  0  0  0  0  0  0  0
  191.5600  171.0660  137.3840 C   0  0  0  0  0  0  0  0  0  0  0  0
  190.7270  173.5080  138.0720 O   0  0  0  0  0  1  0  0  0  0  0  0
  189.7760  172.7730  137.3650 C   0  0  0  0  0  2  0  0  0  0  0  0
  2 30  1  1  0  0  0
  2  6  1  0  0  0  0
  2  3  1  0  0  0  0
  3 16  1  6  0  0  0
  3  7  1  0  0  0  0
  4  8  1  0  0  0  0
  5  1  1  6  0  0  0
  5  9  1  0  0  0  0
  6 12  1  0  0  0  0
  7 11  1  0  0  0  0
  7  5  1  0  0  0  0
  9 28  1  0  0  0  0
 10  9  1  0  0  0  0
 12  8  1  0  0  0  0
 12 15  1  0  0  0  0
 13  4  1  0  0  0  0
 13  6  1  0  0  0  0
 14 13  1  0  0  0  0
 15 10  1  0  0  0  0
 17 16  2  0  0  0  0
 18 16  1  0  0  0  0
 19 18  1  0  0  0  0
 19 23  1  0  0  0  0
 20 19  1  0  0  0  0
 21 20  1  0  0  0  0
 21 22  2  0  0  0  0
 23 24  1  0  0  0  0
 24 25  1  0  0  0  0
 25 26  1  0  0  0  0
 27 26  1  0  0  0  0
 28 29  1  0  0  0  0
 30 31  1  0  0  0  0
 32 33  1  0  0  0  0
 32 31  2  0  0  0  0
 33 35  1  0  0  0  0
 35 34  1  0  0  0  0
 36 37  1  0  0  0  0
 36 33  1  0  0  0  0
 38 39  1  0  0  0  0
 38 37  1  0  0  0  0
 40 38  2  0  0  0  0
 41 36  1  0  0  0  0
 42 43  2  0  0  0  0
 43 41  1  0  0  0  0
 44 45  1  0  0  0  0
 45 47  1  0  0  0  0
 45 43  1  0  0  0  0
 47 46  1  0  0  0  0
 48 47  1  0  0  0  0
 49  8  1  0  0  0  0
 50 49  1  0  0  0  0
 51 50  1  0  0  0  0
 51 52  2  0  0  0  0
 53 51  1  0  0  0  0
 54 55  1  0  0  0  0
 55 53  1  0  0  0  0
 56 55  1  0  0  0  0
 57 54  1  0  0  0  0
 58 59  2  0  0  0  0
 59 57  1  0  0  0  0
 59 56  1  0  0  0  0
 61 57  1  0  0  0  0
 61 60  1  0  0  0  0
M  END
>  <MODEL>
5

>  <REMARK>
 VINA RESULT:      -4.3      2.707      7.989
  Name = 
  27 active torsions:
  status: ('A' for Active; 'I' for Inactive)
    1  A    between atoms: O_2  and  C_4
    2  A    between atoms: O_2  and  C_27
    3  A    between atoms: C_3  and  C_43
    4  A    between atoms: C_4  and  C_28
    5  A    between atoms: C_5  and  C_61
    6  A    between atoms: C_7  and  C_24
    7  A    between atoms: C_8  and  C_43
    8  A    between atoms: N_9  and  C_21
    9  A    between atoms: C_10  and  C_46
   10  A    between atoms: C_17  and  C_33
   11  A    between atoms: C_18  and  C_22
   12  A    between atoms: C_18  and  O_35
   13  A    between atoms: C_18  and  C_61
   14  A    between atoms: S_19  and  C_32
   15  A    between atoms: C_21  and  C_27
   16  A    between atoms: C_22  and  C_47
   17  A    between atoms: C_22  and  C_56
   18  A    between atoms: C_24  and  C_41
   19  A    between atoms: C_31  and  C_41
   20  A    between atoms: C_31  and  C_44
   21  A    between atoms: C_32  and  C_44
   22  A    between atoms: O_35  and  C_37
   23  A    between atoms: C_37  and  C_48
   24  A    between atoms: C_40  and  C_52
   25  A    between atoms: C_41  and  O_57
   26  A    between atoms: C_46  and  O_57
   27  A    between atoms: C_48  and  C_53
                            x       y       z     vdW  Elec       q    Type
                         _______ _______ _______ _____ _____    ______ ____

>  <TORSDO>
F 27

$$$$
=
 OpenBabel11062422593D

 61 63  0  0  1  0  0  0  0  0999 V2000
  192.6510  171.6350  139.8360 O   0  0  0  0  0  1  0  0  0  0  0  0
  193.7180  173.9380  141.9350 C   0  0  2  0  0  3  0  0  0  0  0  0
  194.7230  172.7720  142.0520 C   0  0  1  0  0  3  0  0  0  0  0  0
  189.9720  174.0860  142.6430 C   0  0  0  0  0  2  0  0  0  0  0  0
  193.6840  170.9600  140.4870 C   0  0  1  0  0  3  0  0  0  0  0  0
  192.2420  173.5170  142.0600 C   0  0  1  0  0  3  0  0  0  0  0  0
  194.8770  171.8790  140.7890 C   0  0  2  0  0  3  0  0  0  0  0  0
  190.4020  172.8780  143.4680 C   0  0  1  0  0  3  0  0  0  0  0  0
  193.1830  170.1480  141.6870 C   0  0  1  0  0  3  0  0  0  0  0  0
  191.9970  170.6840  142.2050 O   0  0  0  0  0  0  0  0  0  0  0  0
  196.1290  171.0110  140.8350 C   0  0  0  0  0  1  0  0  0  0  0  0
  191.9110  172.7950  143.3600 C   0  0  1  0  0  3  0  0  0  0  0  0
  191.2220  174.6530  141.9910 C   0  0  2  0  0  3  0  0  0  0  0  0
  191.6590  175.8770  142.7900 C   0  0  0  0  0  1  0  0  0  0  0  0
  192.3770  171.3420  143.3770 C   0  0  0  0  0  2  0  0  0  0  0  0
  196.0280  173.3020  142.5630 C   0  0  0  0  0  0  0  0  0  0  0  0
  197.0750  173.1110  141.8930 O   0  0  0  0  0  0  0  0  0  0  0  0
  196.0740  173.9710  143.7870 O   0  0  0  0  0  0  0  0  0  0  0  0
  196.5350  173.3410  144.9740 C   0  0  1  0  0  3  0  0  0  0  0  0
  196.2020  174.2100  146.1920 C   0  0  0  0  0  2  0  0  0  0  0  0
  195.1540  175.2440  145.9000 C   0  0  0  0  0  3  0  0  0  0  0  0
  193.9870  175.0520  146.2030 O   0  0  0  0  0  0  0  0  0  0  0  0
  195.9450  171.9400  145.0800 C   0  0  0  0  0  2  0  0  0  0  0  0
  197.0140  170.9400  145.4890 C   0  0  0  0  0  2  0  0  0  0  0  0
  196.6740  169.5580  144.9580 C   0  0  0  0  0  2  0  0  0  0  0  0
  195.6860  168.6430  146.1830 S   0  0  0  0  0  0  0  0  0  0  0  0
  194.2760  168.5080  145.0450 C   0  0  0  0  0  1  0  0  0  0  0  0
  192.9480  168.7100  141.2570 C   0  0  0  0  0  2  0  0  0  0  0  0
  194.1800  168.1660  140.5570 C   0  0  0  0  0  1  0  0  0  0  0  0
  194.0060  174.9270  140.7910 C   0  0  0  0  0  2  0  0  0  0  0  0
  193.2560  174.5980  139.5440 C   0  0  0  0  0  3  0  0  0  0  0  0
  193.8350  174.6880  138.3540 C   0  0  0  0  0  3  0  0  0  0  0  0
  193.0790  174.3300  137.1070 C   0  0  1  0  0  3  0  0  0  0  0  0
  193.4780  175.9860  135.3840 O   0  0  0  0  0  1  0  0  0  0  0  0
  192.5600  175.5610  136.3480 C   0  0  0  0  0  2  0  0  0  0  0  0
  193.8960  173.3740  136.2300 C   0  0  1  0  0  3  0  0  0  0  0  0
  194.7020  172.3980  137.0880 C   0  0  0  0  0  2  0  0  0  0  0  0
  196.1460  172.4030  136.7060 C   0  0  0  0  0  0  0  0  0  0  0  0
  196.5540  173.1920  135.8150 O   0  0  0  0  0  0  0  0  0  0  0  0
  197.0440  171.5510  137.3420 O   0  0  0  0  0  1  0  0  0  0  0  0
  193.0410  172.6590  135.3420 O   0  0  0  0  0  0  0  0  0  0  0  0
  190.7560  172.9350  135.1150 O   0  0  0  0  0  0  0  0  0  0  0  0
  191.7190  172.3300  135.6590 C   0  0  0  0  0  0  0  0  0  0  0  0
  191.5620  169.9360  135.9480 N   0  0  0  0  0  1  0  0  0  0  0  0
  191.4390  171.2200  136.6230 C   0  0  2  0  0  3  0  0  0  0  0  0
  189.9910  172.4800  138.0950 O   0  0  0  0  0  1  0  0  0  0  0  0
  190.0640  171.3440  137.2830 C   0  0  2  0  0  3  0  0  0  0  0  0
  189.7320  170.1040  138.0940 C   0  0  0  0  0  1  0  0  0  0  0  0
  189.9770  173.0350  144.9180 C   0  0  0  0  0  2  0  0  0  0  0  0
  189.4380  174.3340  145.1190 O   0  0  0  0  0  0  0  0  0  0  0  0
  189.5980  175.0360  146.3160 C   0  0  0  0  0  0  0  0  0  0  0  0
  190.7070  175.0230  146.9160 O   0  0  0  0  0  0  0  0  0  0  0  0
  188.4230  175.8360  146.8360 C   0  0  0  0  0  2  0  0  0  0  0  0
  186.8460  176.7680  145.2530 C   0  0  0  0  0  2  0  0  0  0  0  0
  188.0550  177.0220  146.0520 N   0  0  0  0  0  0  0  0  0  0  0  0
  189.1360  177.4190  145.1530 C   0  0  0  0  0  2  0  0  0  0  0  0
  187.0490  177.3390  143.8580 C   0  0  2  0  0  3  0  0  0  0  0  0
  189.0860  178.1030  142.8780 O   0  0  0  0  0  0  0  0  0  0  0  0
  188.4880  177.6770  143.8550 C   0  0  0  0  0  0  0  0  0  0  0  0
  186.1060  178.9290  142.3480 O   0  0  0  0  0  1  0  0  0  0  0  0
  186.1990  178.5910  143.6980 C   0  0  0  0  0  2  0  0  0  0  0  0
  2 30  1  6  0  0  0
  2  3  1  0  0  0  0
  2  6  1  0  0  0  0
  3 16  1  6  0  0  0
  4  8  1  0  0  0  0
  5  1  1  1  0  0  0
  5  7  1  0  0  0  0
  5  9  1  0  0  0  0
  6 12  1  0  0  0  0
  7 11  1  0  0  0  0
  7  3  1  0  0  0  0
  8 49  1  0  0  0  0
  9 10  1  0  0  0  0
 10 15  1  0  0  0  0
 12 15  1  0  0  0  0
 12  8  1  0  0  0  0
 13  6  1  0  0  0  0
 13  4  1  0  0  0  0
 13 14  1  0  0  0  0
 16 18  1  0  0  0  0
 17 16  2  0  0  0  0
 18 19  1  0  0  0  0
 19 23  1  0  0  0  0
 19 20  1  0  0  0  0
 21 20  1  0  0  0  0
 21 22  2  0  0  0  0
 23 24  1  0  0  0  0
 25 24  1  0  0  0  0
 25 26  1  0  0  0  0
 27 26  1  0  0  0  0
 28  9  1  0  0  0  0
 29 28  1  0  0  0  0
 31 30  1  0  0  0  0
 32 31  2  0  0  0  0
 33 32  1  0  0  0  0
 34 35  1  0  0  0  0
 35 33  1  0  0  0  0
 36 37  1  0  0  0  0
 36 33  1  0  0  0  0
 38 37  1  0  0  0  0
 38 40  1  0  0  0  0
 39 38  2  0  0  0  0
 41 43  1  0  0  0  0
 41 36  1  0  0  0  0
 42 43  2  0  0  0  0
 43 45  1  0  0  0  0
 44 45  1  0  0  0  0
 45 47  1  0  0  0  0
 47 48  1  0  0  0  0
 47 46  1  0  0  0  0
 49 50  1  0  0  0  0
 50 51  1  0  0  0  0
 51 53  1  0  0  0  0
 51 52  2  0  0  0  0
 54 55  1  0  0  0  0
 55 53  1  0  0  0  0
 56 55  1  0  0  0  0
 57 54  1  0  0  0  0
 58 59  2  0  0  0  0
 59 57  1  0  0  0  0
 59 56  1  0  0  0  0
 60 61  1  0  0  0  0
 61 57  1  0  0  0  0
M  END
>  <MODEL>
6

>  <REMARK>
 VINA RESULT:      -4.2      2.506      8.940
  Name = 
  27 active torsions:
  status: ('A' for Active; 'I' for Inactive)
    1  A    between atoms: O_2  and  C_4
    2  A    between atoms: O_2  and  C_27
    3  A    between atoms: C_3  and  C_43
    4  A    between atoms: C_4  and  C_28
    5  A    between atoms: C_5  and  C_61
    6  A    between atoms: C_7  and  C_24
    7  A    between atoms: C_8  and  C_43
    8  A    between atoms: N_9  and  C_21
    9  A    between atoms: C_10  and  C_46
   10  A    between atoms: C_17  and  C_33
   11  A    between atoms: C_18  and  C_22
   12  A    between atoms: C_18  and  O_35
   13  A    between atoms: C_18  and  C_61
   14  A    between atoms: S_19  and  C_32
   15  A    between atoms: C_21  and  C_27
   16  A    between atoms: C_22  and  C_47
   17  A    between atoms: C_22  and  C_56
   18  A    between atoms: C_24  and  C_41
   19  A    between atoms: C_31  and  C_41
   20  A    between atoms: C_31  and  C_44
   21  A    between atoms: C_32  and  C_44
   22  A    between atoms: O_35  and  C_37
   23  A    between atoms: C_37  and  C_48
   24  A    between atoms: C_40  and  C_52
   25  A    between atoms: C_41  and  O_57
   26  A    between atoms: C_46  and  O_57
   27  A    between atoms: C_48  and  C_53
                            x       y       z     vdW  Elec       q    Type
                         _______ _______ _______ _____ _____    ______ ____

>  <TORSDO>
F 27

$$$$
=
 OpenBabel11062422593D

 61 63  0  0  1  0  0  0  0  0999 V2000
  185.9310  175.5370  143.3460 O   0  0  0  0  0  1  0  0  0  0  0  0
  188.9940  175.6080  142.1370 C   0  0  2  0  0  3  0  0  0  0  0  0
  188.9200  176.7710  143.1500 C   0  0  1  0  0  3  0  0  0  0  0  0
  187.0340  174.9640  138.9280 C   0  0  0  0  0  2  0  0  0  0  0  0
  186.4220  176.7180  143.9020 C   0  0  1  0  0  3  0  0  0  0  0  0
  187.8450  175.5880  141.1120 C   0  0  1  0  0  3  0  0  0  0  0  0
  187.8980  176.5990  144.3080 C   0  0  2  0  0  3  0  0  0  0  0  0
  186.8740  176.4710  139.0990 C   0  0  1  0  0  3  0  0  0  0  0  0
  186.0930  177.9460  143.0450 C   0  0  1  0  0  3  0  0  0  0  0  0
  185.9150  177.5960  141.7010 O   0  0  0  0  0  0  0  0  0  0  0  0
  188.1440  177.5730  145.4550 C   0  0  0  0  0  1  0  0  0  0  0  0
  187.7240  176.8640  140.2910 C   0  0  1  0  0  3  0  0  0  0  0  0
  187.9100  174.4730  140.0680 C   0  0  2  0  0  3  0  0  0  0  0  0
  189.3220  174.2670  139.5260 C   0  0  0  0  0  1  0  0  0  0  0  0
  187.0820  178.0160  141.0590 C   0  0  0  0  0  2  0  0  0  0  0  0
  190.3040  177.0920  143.6270 C   0  0  0  0  0  0  0  0  0  0  0  0
  190.9590  177.9980  143.0500 O   0  0  0  0  0  0  0  0  0  0  0  0
  190.8640  176.3640  144.6780 O   0  0  0  0  0  0  0  0  0  0  0  0
  192.2340  176.4860  145.0330 C   0  0  1  0  0  3  0  0  0  0  0  0
  192.3920  176.3770  146.5540 C   0  0  0  0  0  2  0  0  0  0  0  0
  191.3290  175.5310  147.1910 C   0  0  0  0  0  3  0  0  0  0  0  0
  191.2920  175.3820  148.4020 O   0  0  0  0  0  0  0  0  0  0  0  0
  193.0580  175.4430  144.2870 C   0  0  0  0  0  2  0  0  0  0  0  0
  194.1150  176.1150  143.4250 C   0  0  0  0  0  2  0  0  0  0  0  0
  195.3540  176.4140  144.2510 C   0  0  0  0  0  2  0  0  0  0  0  0
  196.8060  176.5730  143.1640 S   0  0  0  0  0  0  0  0  0  0  0  0
  195.7650  176.8070  141.6930 C   0  0  0  0  0  1  0  0  0  0  0  0
  184.8280  178.6020  143.5740 C   0  0  0  0  0  2  0  0  0  0  0  0
  185.1780  179.8420  144.3760 C   0  0  0  0  0  1  0  0  0  0  0  0
  189.3290  174.2370  142.7520 C   0  0  0  0  0  2  0  0  0  0  0  0
  190.7030  173.7700  142.4020 C   0  0  0  0  0  3  0  0  0  0  0  0
  191.0110  172.4800  142.4140 C   0  0  0  0  0  3  0  0  0  0  0  0
  192.3880  172.0190  142.0360 C   0  0  1  0  0  3  0  0  0  0  0  0
  192.6130  171.7550  144.4340 O   0  0  0  0  0  1  0  0  0  0  0  0
  193.1390  171.3570  143.2020 C   0  0  0  0  0  2  0  0  0  0  0  0
  192.3460  171.1550  140.7700 C   0  0  1  0  0  3  0  0  0  0  0  0
  190.9130  170.9990  140.2620 C   0  0  0  0  0  2  0  0  0  0  0  0
  190.8230  169.9550  139.1970 C   0  0  0  0  0  0  0  0  0  0  0  0
  191.0320  170.2670  137.9970 O   0  0  0  0  0  0  0  0  0  0  0  0
  190.5270  168.6360  139.5290 O   0  0  0  0  0  1  0  0  0  0  0  0
  193.1710  171.7180  139.7550 O   0  0  0  0  0  0  0  0  0  0  0  0
  194.9500  170.2710  140.0550 O   0  0  0  0  0  0  0  0  0  0  0  0
  194.5030  171.3420  139.5610 C   0  0  0  0  0  0  0  0  0  0  0  0
  196.5400  171.4120  138.2600 N   0  0  0  0  0  1  0  0  0  0  0  0
  195.4040  172.1970  138.7230 C   0  0  2  0  0  3  0  0  0  0  0  0
  195.6730  173.3320  140.8420 O   0  0  0  0  0  1  0  0  0  0  0  0
  195.8870  173.4460  139.4650 C   0  0  2  0  0  3  0  0  0  0  0  0
  195.2050  174.6950  138.9340 C   0  0  0  0  0  1  0  0  0  0  0  0
  187.3280  177.2080  137.8520 C   0  0  0  0  0  2  0  0  0  0  0  0
  187.0790  176.4060  136.7060 O   0  0  0  0  0  0  0  0  0  0  0  0
  187.7730  176.5750  135.5060 C   0  0  0  0  0  0  0  0  0  0  0  0
  187.8540  177.7170  134.9760 O   0  0  0  0  0  0  0  0  0  0  0  0
  188.4510  175.3670  134.8980 C   0  0  0  0  0  2  0  0  0  0  0  0
  190.8620  175.4520  135.1020 C   0  0  0  0  0  2  0  0  0  0  0  0
  189.6220  174.8540  135.6210 N   0  0  0  0  0  0  0  0  0  0  0  0
  189.7200  173.4000  135.5070 C   0  0  0  0  0  2  0  0  0  0  0  0
  191.9160  174.3630  134.9700 C   0  0  2  0  0  3  0  0  0  0  0  0
  191.5950  172.0030  135.0920 O   0  0  0  0  0  0  0  0  0  0  0  0
  191.1330  173.1300  135.1880 C   0  0  0  0  0  0  0  0  0  0  0  0
  193.0100  175.8770  136.4560 O   0  0  0  0  0  1  0  0  0  0  0  0
  192.9620  174.5400  136.0600 C   0  0  0  0  0  2  0  0  0  0  0  0
  2 30  1  1  0  0  0
  2  3  1  0  0  0  0
  3 16  1  1  0  0  0
  3  7  1  0  0  0  0
  4  8  1  0  0  0  0
  4 13  1  0  0  0  0
  5  1  1  6  0  0  0
  5  7  1  0  0  0  0
  6  2  1  0  0  0  0
  7 11  1  0  0  0  0
  8 12  1  0  0  0  0
  9 28  1  0  0  0  0
  9  5  1  0  0  0  0
 10  9  1  0  0  0  0
 12 15  1  0  0  0  0
 12  6  1  0  0  0  0
 13  6  1  0  0  0  0
 14 13  1  0  0  0  0
 15 10  1  0  0  0  0
 16 18  1  0  0  0  0
 17 16  2  0  0  0  0
 18 19  1  0  0  0  0
 19 20  1  0  0  0  0
 20 21  1  0  0  0  0
 21 22  2  0  0  0  0
 23 19  1  0  0  0  0
 24 25  1  0  0  0  0
 24 23  1  0  0  0  0
 26 25  1  0  0  0  0
 27 26  1  0  0  0  0
 28 29  1  0  0  0  0
 31 32  2  0  0  0  0
 31 30  1  0  0  0  0
 33 32  1  0  0  0  0
 33 35  1  0  0  0  0
 35 34  1  0  0  0  0
 36 33  1  0  0  0  0
 37 36  1  0  0  0  0
 38 40  1  0  0  0  0
 38 37  1  0  0  0  0
 39 38  2  0  0  0  0
 41 36  1  0  0  0  0
 43 41  1  0  0  0  0
 43 42  2  0  0  0  0
 44 45  1  0  0  0  0
 45 47  1  0  0  0  0
 45 43  1  0  0  0  0
 47 46  1  0  0  0  0
 48 47  1  0  0  0  0
 49  8  1  0  0  0  0
 50 49  1  0  0  0  0
 51 50  1  0  0  0  0
 52 51  2  0  0  0  0
 53 51  1  0  0  0  0
 53 55  1  0  0  0  0
 54 55  1  0  0  0  0
 56 55  1  0  0  0  0
 57 54  1  0  0  0  0
 57 59  1  0  0  0  0
 57 61  1  0  0  0  0
 58 59  2  0  0  0  0
 59 56  1  0  0  0  0
 61 60  1  0  0  0  0
M  END
>  <MODEL>
7

>  <REMARK>
 VINA RESULT:      -3.9      3.078      8.909
  Name = 
  27 active torsions:
  status: ('A' for Active; 'I' for Inactive)
    1  A    between atoms: O_2  and  C_4
    2  A    between atoms: O_2  and  C_27
    3  A    between atoms: C_3  and  C_43
    4  A    between atoms: C_4  and  C_28
    5  A    between atoms: C_5  and  C_61
    6  A    between atoms: C_7  and  C_24
    7  A    between atoms: C_8  and  C_43
    8  A    between atoms: N_9  and  C_21
    9  A    between atoms: C_10  and  C_46
   10  A    between atoms: C_17  and  C_33
   11  A    between atoms: C_18  and  C_22
   12  A    between atoms: C_18  and  O_35
   13  A    between atoms: C_18  and  C_61
   14  A    between atoms: S_19  and  C_32
   15  A    between atoms: C_21  and  C_27
   16  A    between atoms: C_22  and  C_47
   17  A    between atoms: C_22  and  C_56
   18  A    between atoms: C_24  and  C_41
   19  A    between atoms: C_31  and  C_41
   20  A    between atoms: C_31  and  C_44
   21  A    between atoms: C_32  and  C_44
   22  A    between atoms: O_35  and  C_37
   23  A    between atoms: C_37  and  C_48
   24  A    between atoms: C_40  and  C_52
   25  A    between atoms: C_41  and  O_57
   26  A    between atoms: C_46  and  O_57
   27  A    between atoms: C_48  and  C_53
                            x       y       z     vdW  Elec       q    Type
                         _______ _______ _______ _____ _____    ______ ____

>  <TORSDO>
F 27

$$$$
=
 OpenBabel11062422593D

 61 63  0  0  1  0  0  0  0  0999 V2000
  192.6040  175.8560  142.5940 O   0  0  0  0  0  1  0  0  0  0  0  0
  191.6950  172.7320  143.1060 C   0  0  2  0  0  3  0  0  0  0  0  0
  193.1970  172.7910  143.4600 C   0  0  1  0  0  3  0  0  0  0  0  0
  189.8730  173.4180  139.8260 C   0  0  0  0  0  2  0  0  0  0  0  0
  193.8320  175.2480  142.8530 C   0  0  1  0  0  3  0  0  0  0  0  0
  191.3430  173.3400  141.7360 C   0  0  1  0  0  3  0  0  0  0  0  0
  193.7280  174.1700  143.9420 C   0  0  2  0  0  3  0  0  0  0  0  0
  191.2880  173.1160  139.3440 C   0  0  1  0  0  3  0  0  0  0  0  0
  194.5410  174.7950  141.5710 C   0  0  1  0  0  3  0  0  0  0  0  0
  193.6230  174.5540  140.5410 O   0  0  0  0  0  0  0  0  0  0  0  0
  195.0870  174.0680  144.6250 C   0  0  0  0  0  1  0  0  0  0  0  0
  192.0830  172.7040  140.5670 C   0  0  1  0  0  3  0  0  0  0  0  0
  189.8690  173.2600  141.3370 C   0  0  2  0  0  3  0  0  0  0  0  0
  189.2490  171.9070  141.6710 C   0  0  0  0  0  1  0  0  0  0  0  0
  193.5340  173.1640  140.4510 C   0  0  0  0  0  2  0  0  0  0  0  0
  193.5210  171.6710  144.4010 C   0  0  0  0  0  0  0  0  0  0  0  0
  192.7810  170.6540  144.4250 O   0  0  0  0  0  0  0  0  0  0  0  0
  194.6150  171.7800  145.2600 O   0  0  0  0  0  0  0  0  0  0  0  0
  195.4650  170.6760  145.5410 C   0  0  1  0  0  3  0  0  0  0  0  0
  194.6570  169.5400  146.1770 C   0  0  0  0  0  2  0  0  0  0  0  0
  195.4100  168.8240  147.2590 C   0  0  0  0  0  3  0  0  0  0  0  0
  194.8250  168.3600  148.2250 O   0  0  0  0  0  0  0  0  0  0  0  0
  196.1840  170.2380  144.2700 C   0  0  0  0  0  2  0  0  0  0  0  0
  197.0460  171.3670  143.7280 C   0  0  0  0  0  2  0  0  0  0  0  0
  196.7940  171.5550  142.2430 C   0  0  0  0  0  2  0  0  0  0  0  0
  197.8870  172.8530  141.5830 S   0  0  0  0  0  0  0  0  0  0  0  0
  197.1440  172.7340  139.9290 C   0  0  0  0  0  1  0  0  0  0  0  0
  195.5270  175.8660  141.1370 C   0  0  0  0  0  2  0  0  0  0  0  0
  196.2930  176.3900  142.3390 C   0  0  0  0  0  1  0  0  0  0  0  0
  190.7470  173.1360  144.2500 C   0  0  0  0  0  2  0  0  0  0  0  0
  190.7220  174.6100  144.4810 C   0  0  0  0  0  3  0  0  0  0  0  0
  189.6020  175.3070  144.3360 C   0  0  0  0  0  3  0  0  0  0  0  0
  189.5820  176.7850  144.5960 C   0  0  1  0  0  3  0  0  0  0  0  0
  191.0490  178.7100  144.4740 O   0  0  0  0  0  1  0  0  0  0  0  0
  190.9800  177.3670  144.8550 C   0  0  0  0  0  2  0  0  0  0  0  0
  188.8100  177.5220  143.4950 C   0  0  1  0  0  3  0  0  0  0  0  0
  188.5470  176.6030  142.3030 C   0  0  0  0  0  2  0  0  0  0  0  0
  187.8200  177.3200  141.2120 C   0  0  0  0  0  0  0  0  0  0  0  0
  188.1720  178.4840  140.8880 O   0  0  0  0  0  1  0  0  0  0  0  0
  186.7680  176.7020  140.5430 O   0  0  0  0  0  0  0  0  0  0  0  0
  187.5810  178.0330  144.0050 O   0  0  0  0  0  0  0  0  0  0  0  0
  186.0680  176.2850  143.9700 O   0  0  0  0  0  0  0  0  0  0  0  0
  186.6130  177.2240  144.6090 C   0  0  0  0  0  0  0  0  0  0  0  0
  185.2690  176.4550  146.4650 N   0  0  0  0  0  1  0  0  0  0  0  0
  186.2470  177.4490  146.0430 C   0  0  2  0  0  3  0  0  0  0  0  0
  185.9290  179.2490  147.6270 O   0  0  0  0  0  1  0  0  0  0  0  0
  185.7140  178.8610  146.3010 C   0  0  2  0  0  3  0  0  0  0  0  0
  184.2360  178.9580  145.9650 C   0  0  0  0  0  1  0  0  0  0  0  0
  191.2810  172.0030  138.3100 C   0  0  0  0  0  2  0  0  0  0  0  0
  190.6690  172.4670  137.1150 O   0  0  0  0  0  0  0  0  0  0  0  0
  191.4100  172.8900  136.0090 C   0  0  0  0  0  0  0  0  0  0  0  0
  192.1060  172.0640  135.3570 O   0  0  0  0  0  0  0  0  0  0  0  0
  191.3120  174.3430  135.5990 C   0  0  0  0  0  2  0  0  0  0  0  0
  193.0420  175.7630  134.6750 C   0  0  0  0  0  2  0  0  0  0  0  0
  192.4820  175.1780  135.9030 N   0  0  0  0  0  0  0  0  0  0  0  0
  193.5250  174.4040  136.5720 C   0  0  0  0  0  2  0  0  0  0  0  0
  194.5590  175.6520  134.7250 C   0  0  2  0  0  3  0  0  0  0  0  0
  195.8770  174.3610  136.2370 O   0  0  0  0  0  0  0  0  0  0  0  0
  194.7790  174.7680  135.8880 C   0  0  0  0  0  0  0  0  0  0  0  0
  196.5130  176.9090  135.2730 O   0  0  0  0  0  1  0  0  0  0  0  0
  195.1560  177.0300  134.9710 C   0  0  0  0  0  2  0  0  0  0  0  0
  2  3  1  0  0  0  0
  2 30  1  1  0  0  0
  3  7  1  0  0  0  0
  3 16  1  1  0  0  0
  4 13  1  0  0  0  0
  5  1  1  6  0  0  0
  5  7  1  0  0  0  0
  6  2  1  0  0  0  0
  7 11  1  0  0  0  0
  8  4  1  0  0  0  0
  8 12  1  0  0  0  0
  9  5  1  0  0  0  0
 10  9  1  0  0  0  0
 12  6  1  0  0  0  0
 13 14  1  0  0  0  0
 13  6  1  0  0  0  0
 15 10  1  0  0  0  0
 15 12  1  0  0  0  0
 16 17  2  0  0  0  0
 16 18  1  0  0  0  0
 18 19  1  0  0  0  0
 19 20  1  0  0  0  0
 20 21  1  0  0  0  0
 21 22  2  0  0  0  0
 23 19  1  0  0  0  0
 24 23  1  0  0  0  0
 25 24  1  0  0  0  0
 26 25  1  0  0  0  0
 27 26  1  0  0  0  0
 28  9  1  0  0  0  0
 28 29  1  0  0  0  0
 30 31  1  0  0  0  0
 32 31  2  0  0  0  0
 32 33  1  0  0  0  0
 33 35  1  0  0  0  0
 34 35  1  0  0  0  0
 36 41  1  0  0  0  0
 36 33  1  0  0  0  0
 37 36  1  0  0  0  0
 38 37  1  0  0  0  0
 39 38  1  0  0  0  0
 40 38  2  0  0  0  0
 41 43  1  0  0  0  0
 42 43  2  0  0  0  0
 43 45  1  0  0  0  0
 45 47  1  0  0  0  0
 45 44  1  0  0  0  0
 47 46  1  0  0  0  0
 48 47  1  0  0  0  0
 49  8  1  0  0  0  0
 50 49  1  0  0  0  0
 51 50  1  0  0  0  0
 52 51  2  0  0  0  0
 53 55  1  0  0  0  0
 53 51  1  0  0  0  0
 54 57  1  0  0  0  0
 54 55  1  0  0  0  0
 55 56  1  0  0  0  0
 57 61  1  0  0  0  0
 57 59  1  0  0  0  0
 59 58  2  0  0  0  0
 59 56  1  0  0  0  0
 61 60  1  0  0  0  0
M  END
>  <MODEL>
8

>  <REMARK>
 VINA RESULT:      -3.8      2.459      5.066
  Name = 
  27 active torsions:
  status: ('A' for Active; 'I' for Inactive)
    1  A    between atoms: O_2  and  C_4
    2  A    between atoms: O_2  and  C_27
    3  A    between atoms: C_3  and  C_43
    4  A    between atoms: C_4  and  C_28
    5  A    between atoms: C_5  and  C_61
    6  A    between atoms: C_7  and  C_24
    7  A    between atoms: C_8  and  C_43
    8  A    between atoms: N_9  and  C_21
    9  A    between atoms: C_10  and  C_46
   10  A    between atoms: C_17  and  C_33
   11  A    between atoms: C_18  and  C_22
   12  A    between atoms: C_18  and  O_35
   13  A    between atoms: C_18  and  C_61
   14  A    between atoms: S_19  and  C_32
   15  A    between atoms: C_21  and  C_27
   16  A    between atoms: C_22  and  C_47
   17  A    between atoms: C_22  and  C_56
   18  A    between atoms: C_24  and  C_41
   19  A    between atoms: C_31  and  C_41
   20  A    between atoms: C_31  and  C_44
   21  A    between atoms: C_32  and  C_44
   22  A    between atoms: O_35  and  C_37
   23  A    between atoms: C_37  and  C_48
   24  A    between atoms: C_40  and  C_52
   25  A    between atoms: C_41  and  O_57
   26  A    between atoms: C_46  and  O_57
   27  A    between atoms: C_48  and  C_53
                            x       y       z     vdW  Elec       q    Type
                         _______ _______ _______ _____ _____    ______ ____

>  <TORSDO>
F 27

$$$$
=
 OpenBabel11062422593D

 61 63  0  0  1  0  0  0  0  0999 V2000
  192.1240  172.5920  144.5120 O   0  0  0  0  0  1  0  0  0  0  0  0
  192.3360  173.9240  141.5070 C   0  0  2  0  0  3  0  0  0  0  0  0
  193.1490  174.8550  142.4330 C   0  0  1  0  0  3  0  0  0  0  0  0
  188.6420  172.9720  141.5460 C   0  0  0  0  0  2  0  0  0  0  0  0
  192.7650  173.8000  144.7880 C   0  0  1  0  0  3  0  0  0  0  0  0
  190.9210  173.5980  142.0220 C   0  0  1  0  0  3  0  0  0  0  0  0
  193.7680  174.1880  143.6930 C   0  0  2  0  0  3  0  0  0  0  0  0
  188.6380  174.2830  142.3240 C   0  0  1  0  0  3  0  0  0  0  0  0
  191.7770  174.9090  145.1720 C   0  0  1  0  0  3  0  0  0  0  0  0
  190.5090  174.6730  144.6260 O   0  0  0  0  0  0  0  0  0  0  0  0
  194.8500  175.0470  144.3380 C   0  0  0  0  0  1  0  0  0  0  0  0
  190.0520  174.8240  142.2670 C   0  0  1  0  0  3  0  0  0  0  0  0
  190.0740  172.7120  141.1090 C   0  0  2  0  0  3  0  0  0  0  0  0
  190.1990  173.1030  139.6400 C   0  0  0  0  0  1  0  0  0  0  0  0
  190.4030  175.5630  143.5560 C   0  0  0  0  0  2  0  0  0  0  0  0
  194.1500  175.6070  141.6100 C   0  0  0  0  0  0  0  0  0  0  0  0
  194.0690  176.8610  141.5350 O   0  0  0  0  0  0  0  0  0  0  0  0
  195.1390  174.9130  140.9120 O   0  0  0  0  0  0  0  0  0  0  0  0
  195.8020  175.4720  139.7870 C   0  0  1  0  0  3  0  0  0  0  0  0
  197.3170  175.2910  139.9280 C   0  0  0  0  0  2  0  0  0  0  0  0
  197.6890  174.0100  140.6150 C   0  0  0  0  0  3  0  0  0  0  0  0
  197.6060  173.9050  141.8280 O   0  0  0  0  0  0  0  0  0  0  0  0
  195.2590  174.8530  138.5040 C   0  0  0  0  0  2  0  0  0  0  0  0
  196.3030  174.9120  137.4000 C   0  0  0  0  0  2  0  0  0  0  0  0
  195.6790  174.5450  136.0650 C   0  0  0  0  0  2  0  0  0  0  0  0
  196.3850  172.9820  135.4540 S   0  0  0  0  0  0  0  0  0  0  0  0
  197.8700  173.1710  136.4830 C   0  0  0  0  0  1  0  0  0  0  0  0
  191.6750  174.9880  146.6860 C   0  0  0  0  0  2  0  0  0  0  0  0
  190.6580  176.0410  147.0880 C   0  0  0  0  0  1  0  0  0  0  0  0
  193.1150  172.7130  140.9640 C   0  0  0  0  0  2  0  0  0  0  0  0
  193.0810  171.5450  141.8920 C   0  0  0  0  0  3  0  0  0  0  0  0
  193.9320  170.5360  141.7530 C   0  0  0  0  0  3  0  0  0  0  0  0
  193.9070  169.3780  142.7080 C   0  0  1  0  0  3  0  0  0  0  0  0
  191.9630  168.8330  141.3690 O   0  0  0  0  0  1  0  0  0  0  0  0
  192.7020  168.4500  142.4910 C   0  0  0  0  0  2  0  0  0  0  0  0
  195.2520  168.6410  142.7060 C   0  0  1  0  0  3  0  0  0  0  0  0
  196.3710  169.5460  142.1910 C   0  0  0  0  0  2  0  0  0  0  0  0
  196.7290  169.2180  140.7780 C   0  0  0  0  0  0  0  0  0  0  0  0
  196.2840  168.1670  140.2490 O   0  0  0  0  0  1  0  0  0  0  0  0
  197.5390  170.0770  140.0400 O   0  0  0  0  0  0  0  0  0  0  0  0
  195.5620  168.1690  144.0140 O   0  0  0  0  0  0  0  0  0  0  0  0
  194.0830  168.9160  145.6270 O   0  0  0  0  0  0  0  0  0  0  0  0
  195.2600  168.8870  145.1740 C   0  0  0  0  0  0  0  0  0  0  0  0
  196.4870  169.0380  147.2510 N   0  0  0  0  0  1  0  0  0  0  0  0
  196.3500  169.5980  145.9140 C   0  0  2  0  0  3  0  0  0  0  0  0
  194.7590  171.4110  146.0950 O   0  0  0  0  0  1  0  0  0  0  0  0
  196.1200  171.1100  145.9930 C   0  0  2  0  0  3  0  0  0  0  0  0
  196.7190  171.8170  144.7890 C   0  0  0  0  0  1  0  0  0  0  0  0
  187.6620  175.2720  141.7110 C   0  0  0  0  0  2  0  0  0  0  0  0
  187.5950  176.4390  142.5190 O   0  0  0  0  0  0  0  0  0  0  0  0
  187.2450  177.6890  142.0040 C   0  0  0  0  0  0  0  0  0  0  0  0
  187.3140  177.9060  140.7640 O   0  0  0  0  0  0  0  0  0  0  0  0
  186.7450  178.7430  142.9680 C   0  0  0  0  0  2  0  0  0  0  0  0
  185.7650  179.3290  145.1030 C   0  0  0  0  0  2  0  0  0  0  0  0
  185.9990  178.2480  144.1320 N   0  0  0  0  0  0  0  0  0  0  0  0
  186.7170  177.1650  144.8000 C   0  0  0  0  0  2  0  0  0  0  0  0
  186.0290  178.7970  146.5040 C   0  0  2  0  0  3  0  0  0  0  0  0
  187.0920  176.7490  147.1090 O   0  0  0  0  0  0  0  0  0  0  0  0
  186.6530  177.4840  146.2370 C   0  0  0  0  0  0  0  0  0  0  0  0
  183.6990  178.3110  146.3240 O   0  0  0  0  0  1  0  0  0  0  0  0
  184.7060  178.6280  147.2360 C   0  0  0  0  0  2  0  0  0  0  0  0
  2 30  1  1  0  0  0
  2  6  1  0  0  0  0
  2  3  1  0  0  0  0
  3 16  1  6  0  0  0
  3  7  1  0  0  0  0
  4  8  1  0  0  0  0
  5  1  1  6  0  0  0
  5  9  1  0  0  0  0
  6 12  1  0  0  0  0
  7 11  1  0  0  0  0
  7  5  1  0  0  0  0
  9 28  1  0  0  0  0
 10  9  1  0  0  0  0
 12  8  1  0  0  0  0
 12 15  1  0  0  0  0
 13  4  1  0  0  0  0
 13  6  1  0  0  0  0
 14 13  1  0  0  0  0
 15 10  1  0  0  0  0
 17 16  2  0  0  0  0
 18 16  1  0  0  0  0
 19 20  1  0  0  0  0
 19 18  1  0  0  0  0
 20 21  1  0  0  0  0
 21 22  2  0  0  0  0
 23 19  1  0  0  0  0
 24 23  1  0  0  0  0
 25 24  1  0  0  0  0
 26 25  1  0  0  0  0
 26 27  1  0  0  0  0
 28 29  1  0  0  0  0
 30 31  1  0  0  0  0
 32 31  2  0  0  0  0
 32 33  1  0  0  0  0
 34 35  1  0  0  0  0
 35 33  1  0  0  0  0
 36 33  1  0  0  0  0
 36 41  1  0  0  0  0
 37 36  1  0  0  0  0
 38 37  1  0  0  0  0
 39 38  1  0  0  0  0
 40 38  2  0  0  0  0
 41 43  1  0  0  0  0
 43 42  2  0  0  0  0
 43 45  1  0  0  0  0
 45 47  1  0  0  0  0
 45 44  1  0  0  0  0
 47 46  1  0  0  0  0
 48 47  1  0  0  0  0
 49  8  1  0  0  0  0
 49 50  1  0  0  0  0
 51 50  1  0  0  0  0
 51 53  1  0  0  0  0
 52 51  2  0  0  0  0
 53 55  1  0  0  0  0
 54 57  1  0  0  0  0
 55 56  1  0  0  0  0
 55 54  1  0  0  0  0
 56 59  1  0  0  0  0
 57 61  1  0  0  0  0
 59 57  1  0  0  0  0
 59 58  2  0  0  0  0
 60 61  1  0  0  0  0
M  END
>  <MODEL>
9

>  <REMARK>
 VINA RESULT:      -3.8      2.938      9.365
  Name = 
  27 active torsions:
  status: ('A' for Active; 'I' for Inactive)
    1  A    between atoms: O_2  and  C_4
    2  A    between atoms: O_2  and  C_27
    3  A    between atoms: C_3  and  C_43
    4  A    between atoms: C_4  and  C_28
    5  A    between atoms: C_5  and  C_61
    6  A    between atoms: C_7  and  C_24
    7  A    between atoms: C_8  and  C_43
    8  A    between atoms: N_9  and  C_21
    9  A    between atoms: C_10  and  C_46
   10  A    between atoms: C_17  and  C_33
   11  A    between atoms: C_18  and  C_22
   12  A    between atoms: C_18  and  O_35
   13  A    between atoms: C_18  and  C_61
   14  A    between atoms: S_19  and  C_32
   15  A    between atoms: C_21  and  C_27
   16  A    between atoms: C_22  and  C_47
   17  A    between atoms: C_22  and  C_56
   18  A    between atoms: C_24  and  C_41
   19  A    between atoms: C_31  and  C_41
   20  A    between atoms: C_31  and  C_44
   21  A    between atoms: C_32  and  C_44
   22  A    between atoms: O_35  and  C_37
   23  A    between atoms: C_37  and  C_48
   24  A    between atoms: C_40  and  C_52
   25  A    between atoms: C_41  and  O_57
   26  A    between atoms: C_46  and  O_57
   27  A    between atoms: C_48  and  C_53
                            x       y       z     vdW  Elec       q    Type
                         _______ _______ _______ _____ _____    ______ ____

>  <TORSDO>
F 27

$$$$
