=
 OpenBabel11062421133D

 33 36  0  0  1  0  0  0  0  0999 V2000
  183.7450  178.7560  144.1450 C   0  0  0  0  0  2  0  0  0  0  0  0
  187.5640  176.3500  144.5740 C   0  0  0  0  0  2  0  0  0  0  0  0
  187.4600  177.6370  146.8160 C   0  0  0  0  0  0  0  0  0  0  0  0
  183.9430  179.3030  145.4460 O   0  0  0  0  0  0  0  0  0  0  0  0
  185.5820  179.0990  147.2170 N   0  0  0  0  0  0  0  0  0  0  0  0
  189.0230  176.5870  144.3420 C   0  0  0  0  0  3  0  0  0  0  0  0
  188.7700  177.1460  147.3890 C   0  0  0  0  0  2  0  0  0  0  0  0
  186.7450  178.5290  147.6380 C   0  0  0  0  0  3  0  0  0  0  0  0
  185.1110  178.8160  145.9800 C   0  0  0  0  0  0  0  0  0  0  0  0
  184.9880  177.8760  143.8500 C   0  0  2  0  0  3  0  0  0  0  0  0
  185.7630  177.9820  145.1250 C   0  0  0  0  0  0  0  0  0  0  0  0
  189.9160  176.4000  145.3180 C   0  0  0  0  0  0  0  0  0  0  0  0
  186.9570  177.3570  145.5080 C   0  0  0  0  0  0  0  0  0  0  0  0
  189.4440  175.9780  146.6790 C   0  0  0  0  0  2  0  0  0  0  0  0
  192.9450  176.3990  142.9820 C   0  0  0  0  0  2  0  0  0  0  0  0
  193.7250  175.8110  145.2380 C   0  0  0  0  0  0  0  0  0  0  0  0
  191.9120  174.1230  145.0930 C   0  0  0  0  0  1  0  0  0  0  0  0
  194.0240  176.2580  144.0160 C   0  0  0  0  0  3  0  0  0  0  0  0
  191.3770  176.6120  145.0250 C   0  0  2  0  0  3  0  0  0  0  0  0
  191.6700  177.0260  143.5650 C   0  0  0  0  0  2  0  0  0  0  0  0
  192.2940  175.5100  145.5940 C   0  0  2  0  0  3  0  0  0  0  0  0
  194.7960  175.6470  146.2220 C   0  0  0  0  0  3  0  0  0  0  0  0
  195.6690  174.7500  146.0870 O   0  0  0  0  0  0  0  0  0  0  0  0
  185.7270  178.4490  142.7950 O   0  0  0  0  0  0  0  0  0  0  0  0
  185.7180  177.5870  141.6700 C   0  0  1  0  0  3  0  0  0  0  0  0
  184.9320  179.3400  140.2530 F   0  0  0  0  0  0  0  0  0  0  0  0
  185.0470  177.2650  139.4080 F   0  0  0  0  0  0  0  0  0  0  0  0
  183.4450  177.7820  140.9100 F   0  0  0  0  0  0  0  0  0  0  0  0
  184.7610  177.9980  140.5430 C   0  0  0  0  0  0  0  0  0  0  0  0
  187.0740  177.1050  141.2290 C   0  0  0  0  0  0  0  0  0  0  0  0
  187.3530  175.7080  141.1370 N   0  0  0  0  0  2  0  0  0  0  0  0
  188.5640  175.2660  140.7220 O   0  0  0  0  0  1  0  0  0  0  0  0
  187.9550  177.9460  140.9110 O   0  0  0  0  0  0  0  0  0  0  0  0
  1  4  1  0  0  0  0
  2 13  1  0  0  0  0
  3  7  1  0  0  0  0
  3  8  2  0  0  0  0
  4  9  1  0  0  0  0
  5  8  1  0  0  0  0
  6  2  1  0  0  0  0
  6 12  2  0  0  0  0
  9  5  2  0  0  0  0
 10 24  1  6  0  0  0
 10  1  1  0  0  0  0
 10 11  1  0  0  0  0
 11 13  2  0  0  0  0
 11  9  1  0  0  0  0
 12 14  1  0  0  0  0
 13  3  1  0  0  0  0
 14  7  1  0  0  0  0
 15 20  1  0  0  0  0
 15 18  1  0  0  0  0
 16 21  1  0  0  0  0
 16 22  1  0  0  0  0
 18 16  2  0  0  0  0
 19 12  1  6  0  0  0
 19 21  1  0  0  0  0
 20 19  1  0  0  0  0
 21 17  1  6  0  0  0
 23 22  2  0  0  0  0
 25 30  1  6  0  0  0
 25 24  1  0  0  0  0
 26 29  1  0  0  0  0
 27 29  1  0  0  0  0
 29 28  1  0  0  0  0
 29 25  1  0  0  0  0
 31 30  1  0  0  0  0
 32 31  1  0  0  0  0
 33 30  2  0  0  0  0
M  END
>  <MODEL>
1

>  <REMARK>
 VINA RESULT:      -7.8      0.000      0.000
  Name = 
  6 active torsions:
  status: ('A' for Active; 'I' for Inactive)
    1  A    between atoms: C_8  and  C_22
    2  A    between atoms: C_16  and  C_25
    3  A    between atoms: C_17  and  O_30
    4  A    between atoms: C_20  and  C_23
    5  A    between atoms: C_25  and  C_28
    6  A    between atoms: C_25  and  O_30
                            x       y       z     vdW  Elec       q    Type
                         _______ _______ _______ _____ _____    ______ ____

>  <TORSDO>
F 6

$$$$
=
 OpenBabel11062421133D

 33 36  0  0  1  0  0  0  0  0999 V2000
  186.8330  177.1440  144.8390 C   0  0  0  0  0  2  0  0  0  0  0  0
  190.5090  174.4960  144.6920 C   0  0  0  0  0  2  0  0  0  0  0  0
  190.9950  176.0120  146.7310 C   0  0  0  0  0  0  0  0  0  0  0  0
  187.3540  177.8050  145.9890 O   0  0  0  0  0  0  0  0  0  0  0  0
  189.3420  177.6530  147.3620 N   0  0  0  0  0  0  0  0  0  0  0  0
  191.8870  174.5890  144.1140 C   0  0  0  0  0  3  0  0  0  0  0  0
  192.3720  175.4780  147.0530 C   0  0  0  0  0  2  0  0  0  0  0  0
  190.5380  177.0390  147.5790 C   0  0  0  0  0  3  0  0  0  0  0  0
  188.5850  177.2840  146.3040 C   0  0  0  0  0  0  0  0  0  0  0  0
  187.9230  176.1410  144.3820 C   0  0  2  0  0  3  0  0  0  0  0  0
  188.9760  176.3160  145.4310 C   0  0  0  0  0  0  0  0  0  0  0  0
  192.9680  174.4330  144.8820 C   0  0  0  0  0  0  0  0  0  0  0  0
  190.1900  175.6390  145.6100 C   0  0  0  0  0  0  0  0  0  0  0  0
  192.8000  174.1930  146.3550 C   0  0  0  0  0  2  0  0  0  0  0  0
  196.7890  174.3540  145.0350 C   0  0  0  0  0  2  0  0  0  0  0  0
  196.1330  175.8680  143.2130 C   0  0  0  0  0  0  0  0  0  0  0  0
  194.7360  176.9000  144.9850 C   0  0  0  0  0  1  0  0  0  0  0  0
  197.0790  175.1080  143.7700 C   0  0  0  0  0  3  0  0  0  0  0  0
  194.3320  174.4950  144.2490 C   0  0  2  0  0  3  0  0  0  0  0  0
  195.4100  173.6800  144.9980 C   0  0  0  0  0  2  0  0  0  0  0  0
  194.7580  175.9160  143.8220 C   0  0  2  0  0  3  0  0  0  0  0  0
  196.4450  176.6240  141.9990 C   0  0  0  0  0  3  0  0  0  0  0  0
  195.5390  176.9430  141.1830 O   0  0  0  0  0  0  0  0  0  0  0  0
  188.4300  176.5400  143.1290 O   0  0  0  0  0  0  0  0  0  0  0  0
  187.7460  175.8640  142.0880 C   0  0  1  0  0  3  0  0  0  0  0  0
  185.9500  177.1150  141.1360 F   0  0  0  0  0  0  0  0  0  0  0  0
  188.0350  177.9070  140.9000 F   0  0  0  0  0  0  0  0  0  0  0  0
  187.3770  176.0990  139.7230 F   0  0  0  0  0  0  0  0  0  0  0  0
  187.2700  176.7570  140.9350 C   0  0  0  0  0  0  0  0  0  0  0  0
  188.3470  174.5450  141.6840 C   0  0  0  0  0  0  0  0  0  0  0  0
  189.6780  174.4800  141.1730 N   0  0  0  0  0  2  0  0  0  0  0  0
  190.2330  173.2960  140.8250 O   0  0  0  0  0  1  0  0  0  0  0  0
  187.6750  173.4890  141.8300 O   0  0  0  0  0  0  0  0  0  0  0  0
  1  4  1  0  0  0  0
  2 13  1  0  0  0  0
  3  7  1  0  0  0  0
  3  8  2  0  0  0  0
  4  9  1  0  0  0  0
  5  8  1  0  0  0  0
  6  2  1  0  0  0  0
  6 12  2  0  0  0  0
  9  5  2  0  0  0  0
 10 24  1  6  0  0  0
 10  1  1  0  0  0  0
 10 11  1  0  0  0  0
 11 13  2  0  0  0  0
 11  9  1  0  0  0  0
 12 14  1  0  0  0  0
 13  3  1  0  0  0  0
 14  7  1  0  0  0  0
 16 18  2  0  0  0  0
 16 21  1  0  0  0  0
 18 15  1  0  0  0  0
 19 12  1  1  0  0  0
 19 20  1  0  0  0  0
 20 15  1  0  0  0  0
 21 19  1  0  0  0  0
 21 17  1  1  0  0  0
 22 16  1  0  0  0  0
 23 22  2  0  0  0  0
 25 30  1  6  0  0  0
 25 24  1  0  0  0  0
 27 29  1  0  0  0  0
 28 29  1  0  0  0  0
 29 26  1  0  0  0  0
 29 25  1  0  0  0  0
 30 33  2  0  0  0  0
 31 30  1  0  0  0  0
 32 31  1  0  0  0  0
M  END
>  <MODEL>
2

>  <REMARK>
 VINA RESULT:      -7.3      2.349      3.747
  Name = 
  6 active torsions:
  status: ('A' for Active; 'I' for Inactive)
    1  A    between atoms: C_8  and  C_22
    2  A    between atoms: C_16  and  C_25
    3  A    between atoms: C_17  and  O_30
    4  A    between atoms: C_20  and  C_23
    5  A    between atoms: C_25  and  C_28
    6  A    between atoms: C_25  and  O_30
                            x       y       z     vdW  Elec       q    Type
                         _______ _______ _______ _____ _____    ______ ____

>  <TORSDO>
F 6

$$$$
=
 OpenBabel11062421133D

 33 36  0  0  1  0  0  0  0  0999 V2000
  186.3630  177.6990  143.2350 C   0  0  0  0  0  2  0  0  0  0  0  0
  190.8170  176.9150  142.9090 C   0  0  0  0  0  2  0  0  0  0  0  0
  189.7960  174.6880  142.0780 C   0  0  0  0  0  0  0  0  0  0  0  0
  186.0960  176.3940  142.7290 O   0  0  0  0  0  0  0  0  0  0  0  0
  187.3920  174.4920  141.9780 N   0  0  0  0  0  0  0  0  0  0  0  0
  191.8680  176.2800  143.7630 C   0  0  0  0  0  3  0  0  0  0  0  0
  191.0930  173.9400  141.8700 C   0  0  0  0  0  2  0  0  0  0  0  0
  188.6290  173.9600  141.7740 C   0  0  0  0  0  3  0  0  0  0  0  0
  187.2790  175.7360  142.4980 C   0  0  0  0  0  0  0  0  0  0  0  0
  187.9040  177.8040  143.3750 C   0  0  2  0  0  3  0  0  0  0  0  0
  188.3630  176.4860  142.8360 C   0  0  0  0  0  0  0  0  0  0  0  0
  192.6180  175.2760  143.3000 C   0  0  0  0  0  0  0  0  0  0  0  0
  189.6610  175.9970  142.6370 C   0  0  0  0  0  0  0  0  0  0  0  0
  192.3790  174.7540  141.9120 C   0  0  0  0  0  2  0  0  0  0  0  0
  194.9710  175.4010  146.3130 C   0  0  0  0  0  2  0  0  0  0  0  0
  196.0950  174.1470  144.5230 C   0  0  0  0  0  0  0  0  0  0  0  0
  195.5230  176.1510  143.1770 C   0  0  0  0  0  1  0  0  0  0  0  0
  196.0130  174.4370  145.8230 C   0  0  0  0  0  3  0  0  0  0  0  0
  193.6900  174.6960  144.1830 C   0  0  2  0  0  3  0  0  0  0  0  0
  193.6050  175.1530  145.6560 C   0  0  0  0  0  2  0  0  0  0  0  0
  195.1020  174.7380  143.5600 C   0  0  2  0  0  3  0  0  0  0  0  0
  197.1400  173.2320  144.0590 C   0  0  0  0  0  3  0  0  0  0  0  0
  197.7100  172.4410  144.8560 O   0  0  0  0  0  0  0  0  0  0  0  0
  188.2440  177.9040  144.7390 O   0  0  0  0  0  0  0  0  0  0  0  0
  187.6640  176.8340  145.4650 C   0  0  1  0  0  3  0  0  0  0  0  0
  189.8440  176.6170  146.4150 F   0  0  0  0  0  0  0  0  0  0  0  0
  188.1400  175.5600  147.4200 F   0  0  0  0  0  0  0  0  0  0  0  0
  188.9380  174.7930  145.4550 F   0  0  0  0  0  0  0  0  0  0  0  0
  188.6640  175.9280  146.1970 C   0  0  0  0  0  0  0  0  0  0  0  0
  186.4220  177.1890  146.2380 C   0  0  0  0  0  0  0  0  0  0  0  0
  186.3600  178.3960  146.9970 N   0  0  0  0  0  2  0  0  0  0  0  0
  185.2400  178.7320  147.6780 O   0  0  0  0  0  1  0  0  0  0  0  0
  185.4230  176.4250  146.1850 O   0  0  0  0  0  0  0  0  0  0  0  0
  1 10  1  0  0  0  0
  2  6  1  0  0  0  0
  3 13  1  0  0  0  0
  4  1  1  0  0  0  0
  5  9  2  0  0  0  0
  7 14  1  0  0  0  0
  7  3  1  0  0  0  0
  8  5  1  0  0  0  0
  8  3  2  0  0  0  0
  9  4  1  0  0  0  0
  9 11  1  0  0  0  0
 10 24  1  1  0  0  0
 11 10  1  0  0  0  0
 12  6  2  0  0  0  0
 13 11  2  0  0  0  0
 13  2  1  0  0  0  0
 14 12  1  0  0  0  0
 16 18  2  0  0  0  0
 18 15  1  0  0  0  0
 19 12  1  6  0  0  0
 19 20  1  0  0  0  0
 20 15  1  0  0  0  0
 21 17  1  1  0  0  0
 21 19  1  0  0  0  0
 21 16  1  0  0  0  0
 22 16  1  0  0  0  0
 22 23  2  0  0  0  0
 25 24  1  1  0  0  0
 25 29  1  0  0  0  0
 25 30  1  0  0  0  0
 28 29  1  0  0  0  0
 29 26  1  0  0  0  0
 29 27  1  0  0  0  0
 30 31  1  0  0  0  0
 31 32  1  0  0  0  0
 33 30  2  0  0  0  0
M  END
>  <MODEL>
3

>  <REMARK>
 VINA RESULT:      -7.1      3.200      5.329
  Name = 
  6 active torsions:
  status: ('A' for Active; 'I' for Inactive)
    1  A    between atoms: C_8  and  C_22
    2  A    between atoms: C_16  and  C_25
    3  A    between atoms: C_17  and  O_30
    4  A    between atoms: C_20  and  C_23
    5  A    between atoms: C_25  and  C_28
    6  A    between atoms: C_25  and  O_30
                            x       y       z     vdW  Elec       q    Type
                         _______ _______ _______ _____ _____    ______ ____

>  <TORSDO>
F 6

$$$$
=
 OpenBabel11062421133D

 33 36  0  0  1  0  0  0  0  0999 V2000
  192.2580  172.9870  142.2170 C   0  0  0  0  0  2  0  0  0  0  0  0
  190.1540  176.8430  143.3400 C   0  0  0  0  0  2  0  0  0  0  0  0
  189.4760  175.2550  145.2670 C   0  0  0  0  0  0  0  0  0  0  0  0
  191.7420  172.3630  143.3900 O   0  0  0  0  0  0  0  0  0  0  0  0
  190.3380  173.0010  145.2560 N   0  0  0  0  0  0  0  0  0  0  0  0
  188.7900  177.4250  143.1480 C   0  0  0  0  0  3  0  0  0  0  0  0
  188.5630  176.2110  146.0010 C   0  0  0  0  0  2  0  0  0  0  0  0
  189.5990  173.9790  145.8500 C   0  0  0  0  0  3  0  0  0  0  0  0
  190.9520  173.2520  144.0770 C   0  0  0  0  0  0  0  0  0  0  0  0
  191.6460  174.4110  142.1770 C   0  0  2  0  0  3  0  0  0  0  0  0
  190.8560  174.4540  143.4470 C   0  0  0  0  0  0  0  0  0  0  0  0
  188.0620  177.8340  144.1910 C   0  0  0  0  0  0  0  0  0  0  0  0
  190.1210  175.5020  144.0150 C   0  0  0  0  0  0  0  0  0  0  0  0
  188.6080  177.6750  145.5810 C   0  0  0  0  0  2  0  0  0  0  0  0
  184.5190  178.7900  145.2710 C   0  0  0  0  0  2  0  0  0  0  0  0
  184.4740  178.3030  142.8630 C   0  0  0  0  0  0  0  0  0  0  0  0
  185.5770  176.1990  143.5780 C   0  0  0  0  0  1  0  0  0  0  0  0
  183.8900  178.8860  143.9120 C   0  0  0  0  0  3  0  0  0  0  0  0
  186.7110  178.4500  143.9460 C   0  0  2  0  0  3  0  0  0  0  0  0
  186.0380  179.0130  145.2180 C   0  0  0  0  0  2  0  0  0  0  0  0
  185.7960  177.6060  143.0340 C   0  0  2  0  0  3  0  0  0  0  0  0
  183.8270  178.3770  141.5510 C   0  0  0  0  0  3  0  0  0  0  0  0
  184.5090  178.4550  140.4960 O   0  0  0  0  0  0  0  0  0  0  0  0
  190.7770  174.5160  141.0720 O   0  0  0  0  0  0  0  0  0  0  0  0
  190.1330  173.2740  140.8400 C   0  0  1  0  0  3  0  0  0  0  0  0
  188.4070  172.4320  142.2590 F   0  0  0  0  0  0  0  0  0  0  0  0
  188.2100  174.5260  141.4780 F   0  0  0  0  0  0  0  0  0  0  0  0
  187.9020  172.7740  140.0910 F   0  0  0  0  0  0  0  0  0  0  0  0
  188.6330  173.2490  141.1660 C   0  0  0  0  0  0  0  0  0  0  0  0
  190.5340  172.5790  139.5670 C   0  0  0  0  0  0  0  0  0  0  0  0
  190.8530  173.3320  138.3980 N   0  0  0  0  0  2  0  0  0  0  0  0
  191.2340  172.7150  137.2550 O   0  0  0  0  0  1  0  0  0  0  0  0
  190.6170  171.3220  139.5500 O   0  0  0  0  0  0  0  0  0  0  0  0
  1  4  1  0  0  0  0
  2 13  1  0  0  0  0
  3  8  2  0  0  0  0
  3  7  1  0  0  0  0
  4  9  1  0  0  0  0
  5  8  1  0  0  0  0
  6  2  1  0  0  0  0
  6 12  2  0  0  0  0
  9  5  2  0  0  0  0
 10 24  1  6  0  0  0
 10  1  1  0  0  0  0
 10 11  1  0  0  0  0
 11 13  2  0  0  0  0
 11  9  1  0  0  0  0
 12 14  1  0  0  0  0
 13  3  1  0  0  0  0
 14  7  1  0  0  0  0
 16 21  1  0  0  0  0
 16 18  2  0  0  0  0
 18 15  1  0  0  0  0
 19 12  1  1  0  0  0
 19 20  1  0  0  0  0
 20 15  1  0  0  0  0
 21 17  1  1  0  0  0
 21 19  1  0  0  0  0
 22 16  1  0  0  0  0
 23 22  2  0  0  0  0
 25 30  1  6  0  0  0
 25 24  1  0  0  0  0
 25 29  1  0  0  0  0
 28 29  1  0  0  0  0
 29 27  1  0  0  0  0
 29 26  1  0  0  0  0
 31 30  1  0  0  0  0
 32 31  1  0  0  0  0
 33 30  2  0  0  0  0
M  END
>  <MODEL>
4

>  <REMARK>
 VINA RESULT:      -7.1      3.333      7.186
  Name = 
  6 active torsions:
  status: ('A' for Active; 'I' for Inactive)
    1  A    between atoms: C_8  and  C_22
    2  A    between atoms: C_16  and  C_25
    3  A    between atoms: C_17  and  O_30
    4  A    between atoms: C_20  and  C_23
    5  A    between atoms: C_25  and  C_28
    6  A    between atoms: C_25  and  O_30
                            x       y       z     vdW  Elec       q    Type
                         _______ _______ _______ _____ _____    ______ ____

>  <TORSDO>
F 6

$$$$
=
 OpenBabel11062421133D

 33 36  0  0  1  0  0  0  0  0999 V2000
  184.7770  177.5210  146.3170 C   0  0  0  0  0  2  0  0  0  0  0  0
  188.6890  175.2340  146.4510 C   0  0  0  0  0  2  0  0  0  0  0  0
  189.2790  177.4220  147.6990 C   0  0  0  0  0  0  0  0  0  0  0  0
  185.3760  178.5900  147.0440 O   0  0  0  0  0  0  0  0  0  0  0  0
  187.5470  179.0770  147.9980 N   0  0  0  0  0  0  0  0  0  0  0  0
  189.9440  175.1900  145.6390 C   0  0  0  0  0  3  0  0  0  0  0  0
  190.7430  177.1290  147.9340 C   0  0  0  0  0  2  0  0  0  0  0  0
  188.8280  178.6600  148.1980 C   0  0  0  0  0  3  0  0  0  0  0  0
  186.6940  178.2970  147.2940 C   0  0  0  0  0  0  0  0  0  0  0  0
  185.9030  176.4880  146.0540 C   0  0  2  0  0  3  0  0  0  0  0  0
  187.0690  177.1010  146.7650 C   0  0  0  0  0  0  0  0  0  0  0  0
  191.1380  175.3950  146.2030 C   0  0  0  0  0  0  0  0  0  0  0  0
  188.3690  176.6140  146.9480 C   0  0  0  0  0  0  0  0  0  0  0  0
  191.2180  175.7060  147.6700 C   0  0  0  0  0  2  0  0  0  0  0  0
  194.7600  176.2980  145.3690 C   0  0  0  0  0  2  0  0  0  0  0  0
  193.5650  175.9240  143.2550 C   0  0  0  0  0  0  0  0  0  0  0  0
  191.9620  177.5490  144.2280 C   0  0  0  0  0  1  0  0  0  0  0  0
  194.7320  176.0010  143.8990 C   0  0  0  0  0  3  0  0  0  0  0  0
  192.3760  175.3020  145.3520 C   0  0  2  0  0  3  0  0  0  0  0  0
  193.6920  175.5040  146.1360 C   0  0  0  0  0  2  0  0  0  0  0  0
  192.2780  176.0730  144.0200 C   0  0  2  0  0  3  0  0  0  0  0  0
  193.5580  175.6690  141.8130 C   0  0  0  0  0  3  0  0  0  0  0  0
  192.6900  174.9200  141.2920 O   0  0  0  0  0  0  0  0  0  0  0  0
  186.1680  176.4270  144.6710 O   0  0  0  0  0  0  0  0  0  0  0  0
  186.5730  177.7000  144.1960 C   0  0  1  0  0  3  0  0  0  0  0  0
  188.8820  178.2900  144.3150 F   0  0  0  0  0  0  0  0  0  0  0  0
  188.3200  176.4340  143.1880 F   0  0  0  0  0  0  0  0  0  0  0  0
  187.8630  178.4630  142.3150 F   0  0  0  0  0  0  0  0  0  0  0  0
  187.9320  177.7260  143.4840 C   0  0  0  0  0  0  0  0  0  0  0  0
  185.4830  178.5120  143.5480 C   0  0  0  0  0  0  0  0  0  0  0  0
  184.5100  177.8860  142.7130 N   0  0  0  0  0  2  0  0  0  0  0  0
  183.5160  178.6060  142.1420 O   0  0  0  0  0  1  0  0  0  0  0  0
  185.4170  179.7490  143.7750 O   0  0  0  0  0  0  0  0  0  0  0  0
  1  4  1  0  0  0  0
  2 13  1  0  0  0  0
  3  7  1  0  0  0  0
  3  8  2  0  0  0  0
  4  9  1  0  0  0  0
  5  8  1  0  0  0  0
  6 12  2  0  0  0  0
  6  2  1  0  0  0  0
  9  5  2  0  0  0  0
 10 24  1  6  0  0  0
 10  1  1  0  0  0  0
 10 11  1  0  0  0  0
 11 13  2  0  0  0  0
 11  9  1  0  0  0  0
 12 14  1  0  0  0  0
 13  3  1  0  0  0  0
 14  7  1  0  0  0  0
 15 20  1  0  0  0  0
 16 18  2  0  0  0  0
 16 21  1  0  0  0  0
 18 15  1  0  0  0  0
 19 20  1  0  0  0  0
 19 12  1  1  0  0  0
 21 17  1  1  0  0  0
 21 19  1  0  0  0  0
 22 16  1  0  0  0  0
 23 22  2  0  0  0  0
 25 30  1  6  0  0  0
 25 24  1  0  0  0  0
 27 29  1  0  0  0  0
 28 29  1  0  0  0  0
 29 25  1  0  0  0  0
 29 26  1  0  0  0  0
 30 33  2  0  0  0  0
 31 30  1  0  0  0  0
 32 31  1  0  0  0  0
M  END
>  <MODEL>
5

>  <REMARK>
 VINA RESULT:      -7.1      2.436      3.320
  Name = 
  6 active torsions:
  status: ('A' for Active; 'I' for Inactive)
    1  A    between atoms: C_8  and  C_22
    2  A    between atoms: C_16  and  C_25
    3  A    between atoms: C_17  and  O_30
    4  A    between atoms: C_20  and  C_23
    5  A    between atoms: C_25  and  C_28
    6  A    between atoms: C_25  and  O_30
                            x       y       z     vdW  Elec       q    Type
                         _______ _______ _______ _____ _____    ______ ____

>  <TORSDO>
F 6

$$$$
=
 OpenBabel11062421133D

 33 36  0  0  1  0  0  0  0  0999 V2000
  185.8590  177.0210  145.1270 C   0  0  0  0  0  2  0  0  0  0  0  0
  189.6670  174.5690  145.3350 C   0  0  0  0  0  2  0  0  0  0  0  0
  190.1610  176.5080  146.9750 C   0  0  0  0  0  0  0  0  0  0  0  0
  186.3960  177.9360  146.0780 O   0  0  0  0  0  0  0  0  0  0  0  0
  188.4500  178.1720  147.3370 N   0  0  0  0  0  0  0  0  0  0  0  0
  191.0080  174.5970  144.6730 C   0  0  0  0  0  3  0  0  0  0  0  0
  191.5790  176.1180  147.3230 C   0  0  0  0  0  2  0  0  0  0  0  0
  189.6870  177.6720  147.6100 C   0  0  0  0  0  3  0  0  0  0  0  0
  187.6670  177.5500  146.4260 C   0  0  0  0  0  0  0  0  0  0  0  0
  186.9820  175.9930  144.8310 C   0  0  2  0  0  3  0  0  0  0  0  0
  188.0700  176.4350  145.7570 C   0  0  0  0  0  0  0  0  0  0  0  0
  192.1320  174.6580  145.3940 C   0  0  0  0  0  0  0  0  0  0  0  0
  189.3270  175.8680  146.0060 C   0  0  0  0  0  0  0  0  0  0  0  0
  192.0450  174.7330  146.8910 C   0  0  0  0  0  2  0  0  0  0  0  0
  195.9540  174.7860  145.3410 C   0  0  0  0  0  2  0  0  0  0  0  0
  195.1300  175.8400  143.2790 C   0  0  0  0  0  0  0  0  0  0  0  0
  193.7600  177.1660  144.8660 C   0  0  0  0  0  1  0  0  0  0  0  0
  196.1420  175.2610  143.9300 C   0  0  0  0  0  3  0  0  0  0  0  0
  193.4590  174.6430  144.6850 C   0  0  2  0  0  3  0  0  0  0  0  0
  194.6140  174.0590  145.5280 C   0  0  0  0  0  2  0  0  0  0  0  0
  193.7840  175.9560  143.9410 C   0  0  2  0  0  3  0  0  0  0  0  0
  195.3420  176.3280  141.9150 C   0  0  0  0  0  3  0  0  0  0  0  0
  196.4570  176.7930  141.5590 O   0  0  0  0  0  0  0  0  0  0  0  0
  187.4070  176.1350  143.4950 O   0  0  0  0  0  0  0  0  0  0  0  0
  187.7190  177.4920  143.2260 C   0  0  1  0  0  3  0  0  0  0  0  0
  189.2260  178.6660  141.7940 F   0  0  0  0  0  0  0  0  0  0  0  0
  189.8520  178.2940  143.9160 F   0  0  0  0  0  0  0  0  0  0  0  0
  189.8060  176.5880  142.4410 F   0  0  0  0  0  0  0  0  0  0  0  0
  189.1800  177.7570  142.8360 C   0  0  0  0  0  0  0  0  0  0  0  0
  186.6860  178.2340  142.4220 C   0  0  0  0  0  0  0  0  0  0  0  0
  186.1040  177.6400  141.2620 N   0  0  0  0  0  2  0  0  0  0  0  0
  185.1610  178.2940  140.5450 O   0  0  0  0  0  1  0  0  0  0  0  0
  186.3140  179.3770  142.7990 O   0  0  0  0  0  0  0  0  0  0  0  0
  1  4  1  0  0  0  0
  2 13  1  0  0  0  0
  3  7  1  0  0  0  0
  3  8  2  0  0  0  0
  4  9  1  0  0  0  0
  5  8  1  0  0  0  0
  6  2  1  0  0  0  0
  6 12  2  0  0  0  0
  9  5  2  0  0  0  0
 10 24  1  6  0  0  0
 10  1  1  0  0  0  0
 10 11  1  0  0  0  0
 11 13  2  0  0  0  0
 11  9  1  0  0  0  0
 12 14  1  0  0  0  0
 13  3  1  0  0  0  0
 14  7  1  0  0  0  0
 15 20  1  0  0  0  0
 16 18  2  0  0  0  0
 16 21  1  0  0  0  0
 18 15  1  0  0  0  0
 19 12  1  1  0  0  0
 19 20  1  0  0  0  0
 21 19  1  0  0  0  0
 21 17  1  1  0  0  0
 22 16  1  0  0  0  0
 23 22  2  0  0  0  0
 25 30  1  6  0  0  0
 25 24  1  0  0  0  0
 26 29  1  0  0  0  0
 28 29  1  0  0  0  0
 29 25  1  0  0  0  0
 29 27  1  0  0  0  0
 30 33  2  0  0  0  0
 31 30  1  0  0  0  0
 32 31  1  0  0  0  0
M  END
>  <MODEL>
6

>  <REMARK>
 VINA RESULT:      -7.0      2.501      3.593
  Name = 
  6 active torsions:
  status: ('A' for Active; 'I' for Inactive)
    1  A    between atoms: C_8  and  C_22
    2  A    between atoms: C_16  and  C_25
    3  A    between atoms: C_17  and  O_30
    4  A    between atoms: C_20  and  C_23
    5  A    between atoms: C_25  and  C_28
    6  A    between atoms: C_25  and  O_30
                            x       y       z     vdW  Elec       q    Type
                         _______ _______ _______ _____ _____    ______ ____

>  <TORSDO>
F 6

$$$$
=
 OpenBabel11062421133D

 33 36  0  0  1  0  0  0  0  0999 V2000
  191.9230  172.5080  141.2160 C   0  0  0  0  0  2  0  0  0  0  0  0
  191.0350  175.8050  144.1990 C   0  0  0  0  0  2  0  0  0  0  0  0
  189.8900  173.7510  145.2790 C   0  0  0  0  0  0  0  0  0  0  0  0
  191.2290  171.5760  142.0390 O   0  0  0  0  0  0  0  0  0  0  0  0
  190.0490  171.6230  144.1530 N   0  0  0  0  0  0  0  0  0  0  0  0
  189.9060  176.7510  144.4610 C   0  0  0  0  0  3  0  0  0  0  0  0
  189.2900  174.4620  146.4710 C   0  0  0  0  0  2  0  0  0  0  0  0
  189.6230  172.3710  145.2080 C   0  0  0  0  0  3  0  0  0  0  0  0
  190.7260  172.2180  143.1440 C   0  0  0  0  0  0  0  0  0  0  0  0
  191.7600  173.8940  141.8940 C   0  0  2  0  0  3  0  0  0  0  0  0
  190.9990  173.5510  143.1360 C   0  0  0  0  0  0  0  0  0  0  0  0
  189.3160  176.8070  145.6580 C   0  0  0  0  0  0  0  0  0  0  0  0
  190.5980  174.3690  144.2010 C   0  0  0  0  0  0  0  0  0  0  0  0
  189.7710  175.8800  146.7490 C   0  0  0  0  0  2  0  0  0  0  0  0
  186.1870  178.0510  147.4710 C   0  0  0  0  0  2  0  0  0  0  0  0
  186.0530  178.7910  145.1310 C   0  0  0  0  0  0  0  0  0  0  0  0
  186.4760  176.3900  144.6680 C   0  0  0  0  0  1  0  0  0  0  0  0
  185.6430  178.9420  146.3920 C   0  0  0  0  0  3  0  0  0  0  0  0
  188.2110  177.8030  145.8850 C   0  0  2  0  0  3  0  0  0  0  0  0
  187.7050  177.8560  147.3430 C   0  0  0  0  0  2  0  0  0  0  0  0
  187.1090  177.7690  144.8050 C   0  0  2  0  0  3  0  0  0  0  0  0
  185.4860  179.6450  144.0860 C   0  0  0  0  0  3  0  0  0  0  0  0
  185.5580  179.3200  142.8720 O   0  0  0  0  0  0  0  0  0  0  0  0
  190.9760  174.7280  141.0720 O   0  0  0  0  0  0  0  0  0  0  0  0
  189.6920  174.1590  140.8830 C   0  0  1  0  0  3  0  0  0  0  0  0
  187.6940  175.2450  140.1570 F   0  0  0  0  0  0  0  0  0  0  0  0
  187.7790  174.4810  142.2650 F   0  0  0  0  0  0  0  0  0  0  0  0
  188.9650  176.3090  141.6810 F   0  0  0  0  0  0  0  0  0  0  0  0
  188.5160  175.0710  141.2560 C   0  0  0  0  0  0  0  0  0  0  0  0
  189.5260  173.3700  139.6120 C   0  0  0  0  0  0  0  0  0  0  0  0
  190.2010  173.7670  138.4190 N   0  0  0  0  0  2  0  0  0  0  0  0
  190.0730  173.0520  137.2770 O   0  0  0  0  0  1  0  0  0  0  0  0
  188.8080  172.3350  139.6160 O   0  0  0  0  0  0  0  0  0  0  0  0
  1 10  1  0  0  0  0
  1  4  1  0  0  0  0
  2 13  1  0  0  0  0
  2  6  1  0  0  0  0
  3  7  1  0  0  0  0
  4  9  1  0  0  0  0
  5  8  1  0  0  0  0
  6 12  2  0  0  0  0
  7 14  1  0  0  0  0
  8  3  2  0  0  0  0
  9  5  2  0  0  0  0
 10 24  1  6  0  0  0
 10 11  1  0  0  0  0
 11  9  1  0  0  0  0
 11 13  2  0  0  0  0
 12 14  1  0  0  0  0
 13  3  1  0  0  0  0
 16 18  2  0  0  0  0
 18 15  1  0  0  0  0
 19 12  1  1  0  0  0
 19 20  1  0  0  0  0
 20 15  1  0  0  0  0
 21 17  1  1  0  0  0
 21 16  1  0  0  0  0
 21 19  1  0  0  0  0
 22 16  1  0  0  0  0
 23 22  2  0  0  0  0
 25 30  1  6  0  0  0
 25 24  1  0  0  0  0
 25 29  1  0  0  0  0
 26 29  1  0  0  0  0
 29 28  1  0  0  0  0
 29 27  1  0  0  0  0
 30 33  2  0  0  0  0
 31 30  1  0  0  0  0
 32 31  1  0  0  0  0
M  END
>  <MODEL>
7

>  <REMARK>
 VINA RESULT:      -6.9      3.197      6.714
  Name = 
  6 active torsions:
  status: ('A' for Active; 'I' for Inactive)
    1  A    between atoms: C_8  and  C_22
    2  A    between atoms: C_16  and  C_25
    3  A    between atoms: C_17  and  O_30
    4  A    between atoms: C_20  and  C_23
    5  A    between atoms: C_25  and  C_28
    6  A    between atoms: C_25  and  O_30
                            x       y       z     vdW  Elec       q    Type
                         _______ _______ _______ _____ _____    ______ ____

>  <TORSDO>
F 6

$$$$
=
 OpenBabel11062421133D

 33 36  0  0  1  0  0  0  0  0999 V2000
  185.9750  177.2200  144.0240 C   0  0  0  0  0  2  0  0  0  0  0  0
  189.8010  174.9900  144.9970 C   0  0  0  0  0  2  0  0  0  0  0  0
  189.5900  176.6310  146.9860 C   0  0  0  0  0  0  0  0  0  0  0  0
  186.1130  177.9800  145.2210 O   0  0  0  0  0  0  0  0  0  0  0  0
  187.6800  178.1040  147.0630 N   0  0  0  0  0  0  0  0  0  0  0  0
  191.2650  175.2110  144.7840 C   0  0  0  0  0  3  0  0  0  0  0  0
  190.8810  176.2660  147.6830 C   0  0  0  0  0  2  0  0  0  0  0  0
  188.8310  177.6350  147.6180 C   0  0  0  0  0  3  0  0  0  0  0  0
  187.2640  177.6110  145.8740 C   0  0  0  0  0  0  0  0  0  0  0  0
  187.2390  176.3250  143.9280 C   0  0  2  0  0  3  0  0  0  0  0  0
  187.9600  176.6570  145.1970 C   0  0  0  0  0  0  0  0  0  0  0  0
  192.1200  175.2070  145.8110 C   0  0  0  0  0  0  0  0  0  0  0  0
  189.1440  176.1270  145.7240 C   0  0  0  0  0  0  0  0  0  0  0  0
  191.5970  175.0090  147.2050 C   0  0  0  0  0  2  0  0  0  0  0  0
  195.0970  175.8020  143.4860 C   0  0  0  0  0  2  0  0  0  0  0  0
  195.8570  174.3870  145.3460 C   0  0  0  0  0  0  0  0  0  0  0  0
  193.8970  173.0110  144.6980 C   0  0  0  0  0  1  0  0  0  0  0  0
  196.1760  175.2170  144.3490 C   0  0  0  0  0  3  0  0  0  0  0  0
  193.5890  175.3940  145.5430 C   0  0  2  0  0  3  0  0  0  0  0  0
  193.8940  176.2780  144.3140 C   0  0  0  0  0  2  0  0  0  0  0  0
  194.4120  174.0920  145.6400 C   0  0  2  0  0  3  0  0  0  0  0  0
  196.9250  173.7970  146.1550 C   0  0  0  0  0  3  0  0  0  0  0  0
  197.0660  172.5480  146.2320 O   0  0  0  0  0  0  0  0  0  0  0  0
  188.0140  176.7280  142.8220 O   0  0  0  0  0  0  0  0  0  0  0  0
  187.6390  175.9900  141.6710 C   0  0  1  0  0  3  0  0  0  0  0  0
  185.8060  177.1360  140.6590 F   0  0  0  0  0  0  0  0  0  0  0  0
  187.8570  178.0180  140.4420 F   0  0  0  0  0  0  0  0  0  0  0  0
  187.3040  176.1570  139.2940 F   0  0  0  0  0  0  0  0  0  0  0  0
  187.1450  176.8360  140.4890 C   0  0  0  0  0  0  0  0  0  0  0  0
  188.5590  174.8530  141.3170 C   0  0  0  0  0  0  0  0  0  0  0  0
  188.0330  173.6120  140.8470 N   0  0  0  0  0  2  0  0  0  0  0  0
  188.8540  172.5910  140.5090 O   0  0  0  0  0  1  0  0  0  0  0  0
  189.8050  175.0140  141.4110 O   0  0  0  0  0  0  0  0  0  0  0  0
  1  4  1  0  0  0  0
  2 13  1  0  0  0  0
  3  8  2  0  0  0  0
  3  7  1  0  0  0  0
  4  9  1  0  0  0  0
  5  8  1  0  0  0  0
  6  2  1  0  0  0  0
  6 12  2  0  0  0  0
  9  5  2  0  0  0  0
 10 24  1  6  0  0  0
 10  1  1  0  0  0  0
 10 11  1  0  0  0  0
 11 13  2  0  0  0  0
 11  9  1  0  0  0  0
 12 14  1  0  0  0  0
 13  3  1  0  0  0  0
 14  7  1  0  0  0  0
 15 20  1  0  0  0  0
 15 18  1  0  0  0  0
 16 21  1  0  0  0  0
 16 22  1  0  0  0  0
 18 16  2  0  0  0  0
 19 21  1  0  0  0  0
 19 12  1  6  0  0  0
 20 19  1  0  0  0  0
 21 17  1  6  0  0  0
 22 23  2  0  0  0  0
 25 30  1  6  0  0  0
 25 24  1  0  0  0  0
 27 29  1  0  0  0  0
 28 29  1  0  0  0  0
 29 26  1  0  0  0  0
 29 25  1  0  0  0  0
 30 33  2  0  0  0  0
 31 30  1  0  0  0  0
 32 31  1  0  0  0  0
M  END
>  <MODEL>
8

>  <REMARK>
 VINA RESULT:      -6.9      1.809      2.663
  Name = 
  6 active torsions:
  status: ('A' for Active; 'I' for Inactive)
    1  A    between atoms: C_8  and  C_22
    2  A    between atoms: C_16  and  C_25
    3  A    between atoms: C_17  and  O_30
    4  A    between atoms: C_20  and  C_23
    5  A    between atoms: C_25  and  C_28
    6  A    between atoms: C_25  and  O_30
                            x       y       z     vdW  Elec       q    Type
                         _______ _______ _______ _____ _____    ______ ____

>  <TORSDO>
F 6

$$$$
=
 OpenBabel11062421133D

 33 36  0  0  1  0  0  0  0  0999 V2000
  193.8180  174.2760  143.7770 C   0  0  0  0  0  2  0  0  0  0  0  0
  190.6670  177.4560  144.4880 C   0  0  0  0  0  2  0  0  0  0  0  0
  189.6710  175.4020  145.7060 C   0  0  0  0  0  0  0  0  0  0  0  0
  193.0460  173.3420  144.5270 O   0  0  0  0  0  0  0  0  0  0  0  0
  190.9390  173.3490  145.7200 N   0  0  0  0  0  0  0  0  0  0  0  0
  189.3840  177.8720  143.8380 C   0  0  0  0  0  3  0  0  0  0  0  0
  188.3660  176.0360  146.1310 C   0  0  0  0  0  2  0  0  0  0  0  0
  189.8390  174.0590  146.0930 C   0  0  0  0  0  3  0  0  0  0  0  0
  191.8830  173.9380  144.9500 C   0  0  0  0  0  0  0  0  0  0  0  0
  192.9750  175.5750  143.6980 C   0  0  2  0  0  3  0  0  0  0  0  0
  191.7750  175.2240  144.5210 C   0  0  0  0  0  0  0  0  0  0  0  0
  188.2470  177.9340  144.5360 C   0  0  0  0  0  0  0  0  0  0  0  0
  190.6720  176.0090  144.8830 C   0  0  0  0  0  0  0  0  0  0  0  0
  188.2490  177.5480  145.9870 C   0  0  0  0  0  2  0  0  0  0  0  0
  184.4470  178.2950  144.2930 C   0  0  0  0  0  2  0  0  0  0  0  0
  185.3370  178.0890  142.0120 C   0  0  0  0  0  0  0  0  0  0  0  0
  186.4410  176.0760  142.9520 C   0  0  0  0  0  1  0  0  0  0  0  0
  184.3330  178.4660  142.8070 C   0  0  0  0  0  3  0  0  0  0  0  0
  186.9900  178.3960  143.8490 C   0  0  2  0  0  3  0  0  0  0  0  0
  185.8280  178.7160  144.8160 C   0  0  0  0  0  2  0  0  0  0  0  0
  186.6070  177.5530  142.6150 C   0  0  2  0  0  3  0  0  0  0  0  0
  185.1940  178.2310  140.5620 C   0  0  0  0  0  3  0  0  0  0  0  0
  185.8720  177.5230  139.7710 O   0  0  0  0  0  0  0  0  0  0  0  0
  192.5860  175.8000  142.3620 O   0  0  0  0  0  0  0  0  0  0  0  0
  192.4550  174.5650  141.6780 C   0  0  1  0  0  3  0  0  0  0  0  0
  190.9180  173.8840  139.9840 F   0  0  0  0  0  0  0  0  0  0  0  0
  190.6750  173.0260  142.0420 F   0  0  0  0  0  0  0  0  0  0  0  0
  190.1290  175.1790  141.6480 F   0  0  0  0  0  0  0  0  0  0  0  0
  191.0150  174.1630  141.3350 C   0  0  0  0  0  0  0  0  0  0  0  0
  193.4730  174.3270  140.5960 C   0  0  0  0  0  0  0  0  0  0  0  0
  193.9910  173.0180  140.3620 N   0  0  0  0  0  2  0  0  0  0  0  0
  194.8920  172.7920  139.3780 O   0  0  0  0  0  1  0  0  0  0  0  0
  193.8440  175.2910  139.8750 O   0  0  0  0  0  0  0  0  0  0  0  0
  1  4  1  0  0  0  0
  2 13  1  0  0  0  0
  3  8  2  0  0  0  0
  3  7  1  0  0  0  0
  4  9  1  0  0  0  0
  5  8  1  0  0  0  0
  6  2  1  0  0  0  0
  6 12  2  0  0  0  0
  9  5  2  0  0  0  0
 10 24  1  6  0  0  0
 10  1  1  0  0  0  0
 10 11  1  0  0  0  0
 11 13  2  0  0  0  0
 11  9  1  0  0  0  0
 12 14  1  0  0  0  0
 13  3  1  0  0  0  0
 14  7  1  0  0  0  0
 15 20  1  0  0  0  0
 16 21  1  0  0  0  0
 16 18  2  0  0  0  0
 18 15  1  0  0  0  0
 19 12  1  1  0  0  0
 19 20  1  0  0  0  0
 21 17  1  1  0  0  0
 21 19  1  0  0  0  0
 22 16  1  0  0  0  0
 23 22  2  0  0  0  0
 25 30  1  6  0  0  0
 25 24  1  0  0  0  0
 26 29  1  0  0  0  0
 29 28  1  0  0  0  0
 29 25  1  0  0  0  0
 29 27  1  0  0  0  0
 31 30  1  0  0  0  0
 32 31  1  0  0  0  0
 33 30  2  0  0  0  0
M  END
>  <MODEL>
9

>  <REMARK>
 VINA RESULT:      -6.9      3.499      7.360
  Name = 
  6 active torsions:
  status: ('A' for Active; 'I' for Inactive)
    1  A    between atoms: C_8  and  C_22
    2  A    between atoms: C_16  and  C_25
    3  A    between atoms: C_17  and  O_30
    4  A    between atoms: C_20  and  C_23
    5  A    between atoms: C_25  and  C_28
    6  A    between atoms: C_25  and  O_30
                            x       y       z     vdW  Elec       q    Type
                         _______ _______ _______ _____ _____    ______ ____

>  <TORSDO>
F 6

$$$$
