=
 OpenBabel11062421283D

 31 34  0  0  1  0  0  0  0  0999 V2000
  188.2700  176.0930  146.1890 C   0  0  0  0  0  0  0  0  0  0  0  0
  189.1410  175.1280  146.8710 C   0  0  0  0  0  0  0  0  0  0  0  0
  186.9730  176.2720  146.6730 N   0  0  0  0  0  0  0  0  0  0  0  0
  190.9420  175.8510  145.2190 C   0  0  0  0  0  0  0  0  0  0  0  0
  190.0740  176.7270  144.6670 C   0  0  0  0  0  3  0  0  0  0  0  0
  190.5760  175.0160  146.4390 C   0  0  0  0  0  3  0  0  0  0  0  0
  188.6780  176.8750  145.1430 C   0  0  0  0  0  0  0  0  0  0  0  0
  187.7380  177.8010  144.5610 C   0  0  0  0  0  3  0  0  0  0  0  0
  186.0820  177.0780  146.1440 C   0  0  0  0  0  3  0  0  0  0  0  0
  186.4290  177.9070  145.0700 C   0  0  0  0  0  0  0  0  0  0  0  0
  188.7010  174.4100  147.8720 O   0  0  0  0  0  1  0  0  0  0  0  0
  193.6140  174.8780  140.6840 C   0  0  0  0  0  1  0  0  0  0  0  0
  194.4130  175.9430  141.4480 C   0  0  2  0  0  3  0  0  0  0  0  0
  192.2730  175.5630  144.6410 C   0  0  0  0  0  0  0  0  0  0  0  0
  195.7560  175.6070  141.2410 O   0  0  0  0  0  0  0  0  0  0  0  0
  192.5500  175.8320  143.3850 N   0  0  0  0  0  0  0  0  0  0  0  0
  194.6880  176.0250  145.3740 C   0  0  1  0  0  3  0  0  0  0  0  0
  197.0840  175.2480  144.0980 O   0  0  0  0  0  1  0  0  0  0  0  0
  196.5480  176.4880  142.0680 C   0  0  0  0  0  2  0  0  0  0  0  0
  194.9810  176.3790  143.9940 C   0  0  2  0  0  3  0  0  0  0  0  0
  194.6730  177.2950  146.2280 C   0  0  0  0  0  1  0  0  0  0  0  0
  193.9630  175.8910  142.9510 C   0  0  2  0  0  3  0  0  0  0  0  0
  196.3470  176.3030  143.5520 C   0  0  1  0  0  3  0  0  0  0  0  0
  193.3920  175.4910  145.5350 O   0  0  0  0  0  0  0  0  0  0  0  0
  185.4070  178.7720  144.5520 N   0  0  0  0  0  2  0  0  0  0  0  0
  185.5610  179.1470  143.1390 C   0  0  0  0  0  2  0  0  0  0  0  0
  186.3210  177.6490  141.1350 C   0  0  0  0  0  1  0  0  0  0  0  0
  185.2010  178.0400  142.0790 C   0  0  2  0  0  3  0  0  0  0  0  0
  183.8940  178.2760  141.4310 C   0  0  0  0  0  0  0  0  0  0  0  0
  183.8150  178.0620  140.2170 O   0  0  0  0  0  0  0  0  0  0  0  0
  182.6440  178.4060  142.1800 O   0  0  0  0  0  1  0  0  0  0  0  0
  1  3  1  0  0  0  0
  1  2  2  0  0  0  0
  2 11  1  0  0  0  0
  4  6  2  0  0  0  0
  5  7  2  0  0  0  0
  5  4  1  0  0  0  0
  6  2  1  0  0  0  0
  7  1  1  0  0  0  0
  8 10  2  0  0  0  0
  8  7  1  0  0  0  0
  9  3  2  0  0  0  0
 10  9  1  0  0  0  0
 13 12  1  6  0  0  0
 13 22  1  0  0  0  0
 14  4  1  0  0  0  0
 14 24  1  0  0  0  0
 15 13  1  0  0  0  0
 15 19  1  0  0  0  0
 16 14  2  0  0  0  0
 17 24  1  0  0  0  0
 17 21  1  1  0  0  0
 19 23  1  0  0  0  0
 20 17  1  0  0  0  0
 22 16  1  0  0  0  0
 22 20  1  0  0  0  0
 23 20  1  0  0  0  0
 23 18  1  0  0  0  0
 25 10  1  0  0  0  0
 26 25  1  0  0  0  0
 27 28  1  0  0  0  0
 28 26  1  0  0  0  0
 29 28  1  0  0  0  0
 29 31  1  0  0  0  0
 30 29  2  0  0  0  0
M  END
>  <MODEL>
1

>  <REMARK>
 VINA RESULT:      -7.9      0.000      0.000
  Name = 
  5 active torsions:
  status: ('A' for Active; 'I' for Inactive)
    1  A    between atoms: C_3  and  C_14
    2  A    between atoms: C_7  and  C_28
    3  A    between atoms: C_26  and  N_29
    4  A    between atoms: C_28  and  C_31
    5  A    between atoms: N_29  and  C_31
                            x       y       z     vdW  Elec       q    Type
                         _______ _______ _______ _____ _____    ______ ____

>  <TORSDO>
F 5

$$$$
=
 OpenBabel11062421283D

 31 34  0  0  1  0  0  0  0  0999 V2000
  192.5130  176.4180  146.3260 C   0  0  0  0  0  0  0  0  0  0  0  0
  191.5360  176.7590  147.3690 C   0  0  0  0  0  0  0  0  0  0  0  0
  193.8530  176.2920  146.6920 N   0  0  0  0  0  0  0  0  0  0  0  0
  189.7730  176.5560  145.5390 C   0  0  0  0  0  0  0  0  0  0  0  0
  190.7410  176.2290  144.6540 C   0  0  0  0  0  3  0  0  0  0  0  0
  190.0750  176.7760  147.0160 C   0  0  0  0  0  3  0  0  0  0  0  0
  192.1730  176.1540  145.0280 C   0  0  0  0  0  0  0  0  0  0  0  0
  193.2170  175.8120  144.0940 C   0  0  0  0  0  3  0  0  0  0  0  0
  194.8320  176.0200  145.8600 C   0  0  0  0  0  3  0  0  0  0  0  0
  194.5590  175.7400  144.5160 C   0  0  0  0  0  0  0  0  0  0  0  0
  191.9150  176.9960  148.5990 O   0  0  0  0  0  1  0  0  0  0  0  0
  184.9840  178.2140  147.2610 C   0  0  0  0  0  1  0  0  0  0  0  0
  185.2670  178.9630  145.9510 C   0  0  2  0  0  3  0  0  0  0  0  0
  188.3710  176.8120  145.1430 C   0  0  0  0  0  0  0  0  0  0  0  0
  184.0340  179.0150  145.2900 O   0  0  0  0  0  0  0  0  0  0  0  0
  187.6120  177.6550  145.8060 N   0  0  0  0  0  0  0  0  0  0  0  0
  187.2020  177.3540  142.9240 C   0  0  1  0  0  3  0  0  0  0  0  0
  184.4420  177.6930  142.4370 O   0  0  0  0  0  1  0  0  0  0  0  0
  184.2760  179.5740  143.9800 C   0  0  0  0  0  2  0  0  0  0  0  0
  186.4020  178.3290  143.6480 C   0  0  2  0  0  3  0  0  0  0  0  0
  188.2130  178.0880  142.0400 C   0  0  0  0  0  1  0  0  0  0  0  0
  186.3760  178.1680  145.1760 C   0  0  2  0  0  3  0  0  0  0  0  0
  185.1370  178.7180  143.0840 C   0  0  1  0  0  3  0  0  0  0  0  0
  188.0040  176.5680  143.7790 O   0  0  0  0  0  0  0  0  0  0  0  0
  195.6780  175.4380  143.6680 N   0  0  0  0  0  2  0  0  0  0  0  0
  196.8370  174.8410  144.3490 C   0  0  0  0  0  2  0  0  0  0  0  0
  195.8920  172.5660  143.4720 C   0  0  0  0  0  1  0  0  0  0  0  0
  196.9210  173.2690  144.3350 C   0  0  2  0  0  3  0  0  0  0  0  0
  197.0970  172.6960  145.6860 C   0  0  0  0  0  0  0  0  0  0  0  0
  197.0280  173.4720  146.6450 O   0  0  0  0  0  1  0  0  0  0  0  0
  197.0010  171.2630  145.9640 O   0  0  0  0  0  0  0  0  0  0  0  0
  1  3  1  0  0  0  0
  1  2  2  0  0  0  0
  2 11  1  0  0  0  0
  4  6  2  0  0  0  0
  5  7  2  0  0  0  0
  5  4  1  0  0  0  0
  6  2  1  0  0  0  0
  7  1  1  0  0  0  0
  8 10  2  0  0  0  0
  8  7  1  0  0  0  0
  9  3  2  0  0  0  0
 10  9  1  0  0  0  0
 13 12  1  1  0  0  0
 14  4  1  0  0  0  0
 14 16  2  0  0  0  0
 15 13  1  0  0  0  0
 17 21  1  6  0  0  0
 17 20  1  0  0  0  0
 17 24  1  0  0  0  0
 18 23  1  0  0  0  0
 19 15  1  0  0  0  0
 20 22  1  0  0  0  0
 22 16  1  0  0  0  0
 22 13  1  0  0  0  0
 23 20  1  0  0  0  0
 23 19  1  0  0  0  0
 24 14  1  0  0  0  0
 25 26  1  0  0  0  0
 25 10  1  0  0  0  0
 27 28  1  0  0  0  0
 28 26  1  0  0  0  0
 28 29  1  0  0  0  0
 29 31  2  0  0  0  0
 29 30  1  0  0  0  0
M  END
>  <MODEL>
2

>  <REMARK>
 VINA RESULT:      -7.9      2.453      9.508
  Name = 
  5 active torsions:
  status: ('A' for Active; 'I' for Inactive)
    1  A    between atoms: C_3  and  C_14
    2  A    between atoms: C_7  and  C_28
    3  A    between atoms: C_26  and  N_29
    4  A    between atoms: C_28  and  C_31
    5  A    between atoms: N_29  and  C_31
                            x       y       z     vdW  Elec       q    Type
                         _______ _______ _______ _____ _____    ______ ____

>  <TORSDO>
F 5

$$$$
=
 OpenBabel11062421283D

 31 34  0  0  1  0  0  0  0  0999 V2000
  192.3520  175.9130  146.4130 C   0  0  0  0  0  0  0  0  0  0  0  0
  191.2670  175.5610  147.3380 C   0  0  0  0  0  0  0  0  0  0  0  0
  193.6680  175.6880  146.8210 N   0  0  0  0  0  0  0  0  0  0  0  0
  189.6830  176.2980  145.4820 C   0  0  0  0  0  0  0  0  0  0  0  0
  190.7460  176.5750  144.6940 C   0  0  0  0  0  3  0  0  0  0  0  0
  189.8450  175.6820  146.8660 C   0  0  0  0  0  3  0  0  0  0  0  0
  192.1450  176.3920  145.1490 C   0  0  0  0  0  0  0  0  0  0  0  0
  193.2890  176.6890  144.3230 C   0  0  0  0  0  3  0  0  0  0  0  0
  194.7310  175.9820  146.1090 C   0  0  0  0  0  3  0  0  0  0  0  0
  194.5950  176.4760  144.8070 C   0  0  0  0  0  0  0  0  0  0  0  0
  191.5220  175.1000  148.5350 O   0  0  0  0  0  1  0  0  0  0  0  0
  185.0180  178.1800  147.3130 C   0  0  0  0  0  1  0  0  0  0  0  0
  185.3290  178.9480  146.0200 C   0  0  2  0  0  3  0  0  0  0  0  0
  188.2930  176.6460  145.1110 C   0  0  0  0  0  0  0  0  0  0  0  0
  184.0930  179.0900  145.3770 O   0  0  0  0  0  0  0  0  0  0  0  0
  187.5930  177.5120  145.8070 N   0  0  0  0  0  0  0  0  0  0  0  0
  187.1310  177.3160  142.9250 C   0  0  1  0  0  3  0  0  0  0  0  0
  184.3890  177.8260  142.4840 O   0  0  0  0  0  1  0  0  0  0  0  0
  184.3510  179.6700  144.0800 C   0  0  0  0  0  2  0  0  0  0  0  0
  186.3970  178.3150  143.6850 C   0  0  2  0  0  3  0  0  0  0  0  0
  188.1720  178.0140  142.0470 C   0  0  0  0  0  1  0  0  0  0  0  0
  186.3810  178.1130  145.2090 C   0  0  2  0  0  3  0  0  0  0  0  0
  185.1510  178.7910  143.1490 C   0  0  1  0  0  3  0  0  0  0  0  0
  187.8960  176.4610  143.7460 O   0  0  0  0  0  0  0  0  0  0  0  0
  195.8020  176.7620  144.0840 N   0  0  0  0  0  2  0  0  0  0  0  0
  196.2320  175.7160  143.1440 C   0  0  0  0  0  2  0  0  0  0  0  0
  194.9460  176.2430  140.9300 C   0  0  0  0  0  1  0  0  0  0  0  0
  196.2880  176.1220  141.6240 C   0  0  2  0  0  3  0  0  0  0  0  0
  197.3140  175.3690  140.8710 C   0  0  0  0  0  0  0  0  0  0  0  0
  197.5470  174.2120  141.2320 O   0  0  0  0  0  1  0  0  0  0  0  0
  197.7970  175.7800  139.5530 O   0  0  0  0  0  0  0  0  0  0  0  0
  1  3  1  0  0  0  0
  1  2  2  0  0  0  0
  2 11  1  0  0  0  0
  4  6  2  0  0  0  0
  5  7  2  0  0  0  0
  5  4  1  0  0  0  0
  6  2  1  0  0  0  0
  7  1  1  0  0  0  0
  8 10  2  0  0  0  0
  8  7  1  0  0  0  0
  9  3  2  0  0  0  0
 10  9  1  0  0  0  0
 13 12  1  1  0  0  0
 14  4  1  0  0  0  0
 14 16  2  0  0  0  0
 15 13  1  0  0  0  0
 17 21  1  6  0  0  0
 17 20  1  0  0  0  0
 17 24  1  0  0  0  0
 18 23  1  0  0  0  0
 19 15  1  0  0  0  0
 20 22  1  0  0  0  0
 22 16  1  0  0  0  0
 22 13  1  0  0  0  0
 23 20  1  0  0  0  0
 23 19  1  0  0  0  0
 24 14  1  0  0  0  0
 25 10  1  0  0  0  0
 26 25  1  0  0  0  0
 27 28  1  0  0  0  0
 28 26  1  0  0  0  0
 29 30  1  0  0  0  0
 29 28  1  0  0  0  0
 31 29  2  0  0  0  0
M  END
>  <MODEL>
3

>  <REMARK>
 VINA RESULT:      -7.8      1.990      9.110
  Name = 
  5 active torsions:
  status: ('A' for Active; 'I' for Inactive)
    1  A    between atoms: C_3  and  C_14
    2  A    between atoms: C_7  and  C_28
    3  A    between atoms: C_26  and  N_29
    4  A    between atoms: C_28  and  C_31
    5  A    between atoms: N_29  and  C_31
                            x       y       z     vdW  Elec       q    Type
                         _______ _______ _______ _____ _____    ______ ____

>  <TORSDO>
F 5

$$$$
=
 OpenBabel11062421283D

 31 34  0  0  1  0  0  0  0  0999 V2000
  185.3610  177.8680  140.9920 C   0  0  0  0  0  0  0  0  0  0  0  0
  186.6490  177.5220  140.3760 C   0  0  0  0  0  0  0  0  0  0  0  0
  184.2380  177.9570  140.1700 N   0  0  0  0  0  0  0  0  0  0  0  0
  187.6010  177.5960  142.7390 C   0  0  0  0  0  0  0  0  0  0  0  0
  186.3720  177.8940  143.2170 C   0  0  0  0  0  3  0  0  0  0  0  0
  187.8410  177.3000  141.2640 C   0  0  0  0  0  3  0  0  0  0  0  0
  185.1890  178.0470  142.3370 C   0  0  0  0  0  0  0  0  0  0  0  0
  183.8730  178.3690  142.8310 C   0  0  0  0  0  3  0  0  0  0  0  0
  183.0350  178.2850  140.5810 C   0  0  0  0  0  3  0  0  0  0  0  0
  182.7840  178.4840  141.9440 C   0  0  0  0  0  0  0  0  0  0  0  0
  186.7570  177.3540  139.0830 O   0  0  0  0  0  1  0  0  0  0  0  0
  189.4430  178.0100  147.7480 C   0  0  0  0  0  1  0  0  0  0  0  0
  190.1660  176.8170  147.1080 C   0  0  2  0  0  3  0  0  0  0  0  0
  188.8190  177.6200  143.5780 C   0  0  0  0  0  0  0  0  0  0  0  0
  191.4780  176.8880  147.5880 O   0  0  0  0  0  0  0  0  0  0  0  0
  188.7840  177.2950  144.8510 N   0  0  0  0  0  0  0  0  0  0  0  0
  191.2020  176.7090  143.3120 C   0  0  1  0  0  3  0  0  0  0  0  0
  193.3960  177.0040  145.0650 O   0  0  0  0  0  1  0  0  0  0  0  0
  192.2420  175.8770  146.8950 C   0  0  0  0  0  2  0  0  0  0  0  0
  191.1420  176.2970  144.7050 C   0  0  2  0  0  3  0  0  0  0  0  0
  191.1230  175.4710  142.4160 C   0  0  0  0  0  1  0  0  0  0  0  0
  190.0440  176.9640  145.5500 C   0  0  2  0  0  3  0  0  0  0  0  0
  192.3810  176.1070  145.4090 C   0  0  1  0  0  3  0  0  0  0  0  0
  190.0880  177.4820  142.9250 O   0  0  0  0  0  0  0  0  0  0  0  0
  181.4430  178.8260  142.3210 N   0  0  0  0  0  2  0  0  0  0  0  0
  180.5070  179.0210  141.2030 C   0  0  0  0  0  2  0  0  0  0  0  0
  178.5580  178.0170  139.7800 C   0  0  0  0  0  1  0  0  0  0  0  0
  179.3420  177.9710  141.0760 C   0  0  2  0  0  3  0  0  0  0  0  0
  178.5170  177.8850  142.3000 C   0  0  0  0  0  0  0  0  0  0  0  0
  178.4620  176.7920  142.8720 O   0  0  0  0  0  0  0  0  0  0  0  0
  178.0650  179.0630  143.0410 O   0  0  0  0  0  1  0  0  0  0  0  0
  1  7  1  0  0  0  0
  2  1  2  0  0  0  0
  2  6  1  0  0  0  0
  3  9  2  0  0  0  0
  3  1  1  0  0  0  0
  4  5  1  0  0  0  0
  4 14  1  0  0  0  0
  6  4  2  0  0  0  0
  7  8  1  0  0  0  0
  7  5  2  0  0  0  0
  9 10  1  0  0  0  0
 10 25  1  0  0  0  0
 10  8  2  0  0  0  0
 11  2  1  0  0  0  0
 13 15  1  0  0  0  0
 13 12  1  1  0  0  0
 14 16  2  0  0  0  0
 16 22  1  0  0  0  0
 17 21  1  6  0  0  0
 17 20  1  0  0  0  0
 18 23  1  0  0  0  0
 19 15  1  0  0  0  0
 20 23  1  0  0  0  0
 20 22  1  0  0  0  0
 22 13  1  0  0  0  0
 23 19  1  0  0  0  0
 24 17  1  0  0  0  0
 24 14  1  0  0  0  0
 26 25  1  0  0  0  0
 27 28  1  0  0  0  0
 28 26  1  0  0  0  0
 28 29  1  0  0  0  0
 29 30  2  0  0  0  0
 29 31  1  0  0  0  0
M  END
>  <MODEL>
4

>  <REMARK>
 VINA RESULT:      -7.7      2.976      5.859
  Name = 
  5 active torsions:
  status: ('A' for Active; 'I' for Inactive)
    1  A    between atoms: C_3  and  C_14
    2  A    between atoms: C_7  and  C_28
    3  A    between atoms: C_26  and  N_29
    4  A    between atoms: C_28  and  C_31
    5  A    between atoms: N_29  and  C_31
                            x       y       z     vdW  Elec       q    Type
                         _______ _______ _______ _____ _____    ______ ____

>  <TORSDO>
F 5

$$$$
=
 OpenBabel11062421283D

 31 34  0  0  1  0  0  0  0  0999 V2000
  191.9760  174.9220  142.0370 C   0  0  0  0  0  0  0  0  0  0  0  0
  190.5530  174.6220  141.8330 C   0  0  0  0  0  0  0  0  0  0  0  0
  192.9160  174.1910  141.3100 N   0  0  0  0  0  0  0  0  0  0  0  0
  190.0980  176.5210  143.4710 C   0  0  0  0  0  0  0  0  0  0  0  0
  191.4290  176.7360  143.5800 C   0  0  0  0  0  3  0  0  0  0  0  0
  189.5260  175.4830  142.5140 C   0  0  0  0  0  3  0  0  0  0  0  0
  192.4300  175.9210  142.8540 C   0  0  0  0  0  0  0  0  0  0  0  0
  193.8520  176.1340  142.9630 C   0  0  0  0  0  3  0  0  0  0  0  0
  194.2170  174.3340  141.4140 C   0  0  0  0  0  3  0  0  0  0  0  0
  194.7540  175.3350  142.2320 C   0  0  0  0  0  0  0  0  0  0  0  0
  190.1720  173.6590  141.0340 O   0  0  0  0  0  1  0  0  0  0  0  0
  185.6070  179.4340  143.4610 C   0  0  0  0  0  1  0  0  0  0  0  0
  185.4040  178.3110  144.4880 C   0  0  2  0  0  3  0  0  0  0  0  0
  189.1000  177.2020  144.3250 C   0  0  0  0  0  0  0  0  0  0  0  0
  184.7090  178.9080  145.5460 O   0  0  0  0  0  0  0  0  0  0  0  0
  187.8790  177.4380  143.9010 N   0  0  0  0  0  0  0  0  0  0  0  0
  188.3060  176.9060  146.7460 C   0  0  1  0  0  3  0  0  0  0  0  0
  186.4240  178.4530  148.1730 O   0  0  0  0  0  1  0  0  0  0  0  0
  184.6270  177.9330  146.6080 C   0  0  0  0  0  2  0  0  0  0  0  0
  186.9480  177.1090  146.2680 C   0  0  2  0  0  3  0  0  0  0  0  0
  188.4960  175.4320  147.1150 C   0  0  0  0  0  1  0  0  0  0  0  0
  186.8200  177.7610  144.8820 C   0  0  2  0  0  3  0  0  0  0  0  0
  185.9580  177.5530  147.2110 C   0  0  1  0  0  3  0  0  0  0  0  0
  189.2750  177.1350  145.7460 O   0  0  0  0  0  0  0  0  0  0  0  0
  196.1840  175.4410  142.2870 N   0  0  0  0  0  2  0  0  0  0  0  0
  196.7420  175.7290  143.6170 C   0  0  0  0  0  2  0  0  0  0  0  0
  197.6750  173.2870  143.5750 C   0  0  0  0  0  1  0  0  0  0  0  0
  197.3200  174.5000  144.4130 C   0  0  2  0  0  3  0  0  0  0  0  0
  196.5530  174.2060  145.6410 C   0  0  0  0  0  0  0  0  0  0  0  0
  197.0610  173.4280  146.4550 O   0  0  0  0  0  1  0  0  0  0  0  0
  195.4300  175.0260  146.0960 O   0  0  0  0  0  0  0  0  0  0  0  0
  1  7  1  0  0  0  0
  2  1  2  0  0  0  0
  2  6  1  0  0  0  0
  3  9  2  0  0  0  0
  3  1  1  0  0  0  0
  4  5  1  0  0  0  0
  4 14  1  0  0  0  0
  6  4  2  0  0  0  0
  7  8  1  0  0  0  0
  7  5  2  0  0  0  0
  9 10  1  0  0  0  0
 10 25  1  0  0  0  0
 10  8  2  0  0  0  0
 11  2  1  0  0  0  0
 13 12  1  6  0  0  0
 13 22  1  0  0  0  0
 13 15  1  0  0  0  0
 14 24  1  0  0  0  0
 15 19  1  0  0  0  0
 16 14  2  0  0  0  0
 16 22  1  0  0  0  0
 17 21  1  6  0  0  0
 19 23  1  0  0  0  0
 20 17  1  0  0  0  0
 20 23  1  0  0  0  0
 22 20  1  0  0  0  0
 23 18  1  0  0  0  0
 24 17  1  0  0  0  0
 25 26  1  0  0  0  0
 26 28  1  0  0  0  0
 27 28  1  0  0  0  0
 28 29  1  0  0  0  0
 29 31  2  0  0  0  0
 29 30  1  0  0  0  0
M  END
>  <MODEL>
5

>  <REMARK>
 VINA RESULT:      -7.5      2.483      9.321
  Name = 
  5 active torsions:
  status: ('A' for Active; 'I' for Inactive)
    1  A    between atoms: C_3  and  C_14
    2  A    between atoms: C_7  and  C_28
    3  A    between atoms: C_26  and  N_29
    4  A    between atoms: C_28  and  C_31
    5  A    between atoms: N_29  and  C_31
                            x       y       z     vdW  Elec       q    Type
                         _______ _______ _______ _____ _____    ______ ____

>  <TORSDO>
F 5

$$$$
=
 OpenBabel11062421283D

 31 34  0  0  1  0  0  0  0  0999 V2000
  188.0910  175.8600  142.2370 C   0  0  0  0  0  0  0  0  0  0  0  0
  188.6970  174.6490  141.6680 C   0  0  0  0  0  0  0  0  0  0  0  0
  186.7270  176.0760  142.0320 N   0  0  0  0  0  0  0  0  0  0  0  0
  190.8570  175.4190  142.7790 C   0  0  0  0  0  0  0  0  0  0  0  0
  190.2090  176.4960  143.2760 C   0  0  0  0  0  3  0  0  0  0  0  0
  190.1330  174.3400  141.9840 C   0  0  0  0  0  3  0  0  0  0  0  0
  188.7750  176.7570  143.0100 C   0  0  0  0  0  0  0  0  0  0  0  0
  188.0700  177.9030  143.5290 C   0  0  0  0  0  3  0  0  0  0  0  0
  186.0650  177.1260  142.4580 C   0  0  0  0  0  3  0  0  0  0  0  0
  186.7010  178.0860  143.2540 C   0  0  0  0  0  0  0  0  0  0  0  0
  187.9940  173.8190  140.9400 O   0  0  0  0  0  1  0  0  0  0  0  0
  195.4850  175.6610  140.1000 C   0  0  0  0  0  1  0  0  0  0  0  0
  195.6970  176.4170  141.4190 C   0  0  2  0  0  3  0  0  0  0  0  0
  192.3220  175.2420  142.8830 C   0  0  0  0  0  0  0  0  0  0  0  0
  196.9960  176.0860  141.8210 O   0  0  0  0  0  0  0  0  0  0  0  0
  193.1480  175.8470  142.0610 N   0  0  0  0  0  0  0  0  0  0  0  0
  194.0120  175.3460  144.8110 C   0  0  1  0  0  3  0  0  0  0  0  0
  196.7900  174.8470  144.7330 O   0  0  0  0  0  1  0  0  0  0  0  0
  197.1920  176.6480  143.1380 C   0  0  0  0  0  2  0  0  0  0  0  0
  194.9040  176.0680  143.9180 C   0  0  2  0  0  3  0  0  0  0  0  0
  193.4550  176.3140  145.8580 C   0  0  0  0  0  1  0  0  0  0  0  0
  194.5790  175.9560  142.4190 C   0  0  2  0  0  3  0  0  0  0  0  0
  196.3120  176.0510  144.2090 C   0  0  1  0  0  3  0  0  0  0  0  0
  192.8630  174.8570  144.1540 O   0  0  0  0  0  0  0  0  0  0  0  0
  185.9100  179.2010  143.6950 N   0  0  0  0  0  2  0  0  0  0  0  0
  185.9100  179.4340  145.1470 C   0  0  0  0  0  2  0  0  0  0  0  0
  184.0660  178.2500  146.5730 C   0  0  0  0  0  1  0  0  0  0  0  0
  185.4890  178.2150  146.0500 C   0  0  2  0  0  3  0  0  0  0  0  0
  186.5150  177.8720  147.0570 C   0  0  0  0  0  0  0  0  0  0  0  0
  186.6820  178.6640  147.9900 O   0  0  0  0  0  1  0  0  0  0  0  0
  187.0770  176.5290  147.1980 O   0  0  0  0  0  0  0  0  0  0  0  0
  1  7  1  0  0  0  0
  2  6  2  0  0  0  0
  2  1  1  0  0  0  0
  3  1  2  0  0  0  0
  3  9  1  0  0  0  0
  4 14  1  0  0  0  0
  4  5  2  0  0  0  0
  6  4  1  0  0  0  0
  7  5  1  0  0  0  0
  7  8  2  0  0  0  0
  9 10  2  0  0  0  0
 10  8  1  0  0  0  0
 10 25  1  0  0  0  0
 11  2  1  0  0  0  0
 13 12  1  6  0  0  0
 13 15  1  0  0  0  0
 13 22  1  0  0  0  0
 14 24  1  0  0  0  0
 15 19  1  0  0  0  0
 16 22  1  0  0  0  0
 16 14  2  0  0  0  0
 17 21  1  1  0  0  0
 19 23  1  0  0  0  0
 20 23  1  0  0  0  0
 20 17  1  0  0  0  0
 22 20  1  0  0  0  0
 23 18  1  0  0  0  0
 24 17  1  0  0  0  0
 25 26  1  0  0  0  0
 26 28  1  0  0  0  0
 28 27  1  0  0  0  0
 28 29  1  0  0  0  0
 29 31  2  0  0  0  0
 29 30  1  0  0  0  0
M  END
>  <MODEL>
6

>  <REMARK>
 VINA RESULT:      -7.5      2.505      3.597
  Name = 
  5 active torsions:
  status: ('A' for Active; 'I' for Inactive)
    1  A    between atoms: C_3  and  C_14
    2  A    between atoms: C_7  and  C_28
    3  A    between atoms: C_26  and  N_29
    4  A    between atoms: C_28  and  C_31
    5  A    between atoms: N_29  and  C_31
                            x       y       z     vdW  Elec       q    Type
                         _______ _______ _______ _____ _____    ______ ____

>  <TORSDO>
F 5

$$$$
=
 OpenBabel11062421283D

 31 34  0  0  1  0  0  0  0  0999 V2000
  185.4760  177.7430  141.1510 C   0  0  0  0  0  0  0  0  0  0  0  0
  186.7610  177.3400  140.5650 C   0  0  0  0  0  0  0  0  0  0  0  0
  184.4890  178.2430  140.3000 N   0  0  0  0  0  0  0  0  0  0  0  0
  187.4140  176.6300  142.9240 C   0  0  0  0  0  0  0  0  0  0  0  0
  186.1960  177.0120  143.3690 C   0  0  0  0  0  3  0  0  0  0  0  0
  187.7860  176.6860  141.4480 C   0  0  0  0  0  3  0  0  0  0  0  0
  185.1690  177.5980  142.4760 C   0  0  0  0  0  0  0  0  0  0  0  0
  183.8670  178.0150  142.9350 C   0  0  0  0  0  3  0  0  0  0  0  0
  183.3090  178.6660  140.6910 C   0  0  0  0  0  3  0  0  0  0  0  0
  182.9260  178.5490  142.0330 C   0  0  0  0  0  0  0  0  0  0  0  0
  187.0010  177.4950  139.2880 O   0  0  0  0  0  1  0  0  0  0  0  0
  192.6780  175.7240  143.2810 C   0  0  0  0  0  1  0  0  0  0  0  0
  192.2960  176.5930  144.4870 C   0  0  2  0  0  3  0  0  0  0  0  0
  188.5090  176.2160  143.8300 C   0  0  0  0  0  0  0  0  0  0  0  0
  193.0600  176.0950  145.5490 O   0  0  0  0  0  0  0  0  0  0  0  0
  189.7560  176.5600  143.6030 N   0  0  0  0  0  0  0  0  0  0  0  0
  188.8540  176.2690  146.3710 C   0  0  1  0  0  3  0  0  0  0  0  0
  191.0440  175.2900  147.8610 O   0  0  0  0  0  1  0  0  0  0  0  0
  192.6240  176.7770  146.7460 C   0  0  0  0  0  2  0  0  0  0  0  0
  190.2190  176.7060  146.1210 C   0  0  2  0  0  3  0  0  0  0  0  0
  188.0410  177.4440  146.9210 C   0  0  0  0  0  1  0  0  0  0  0  0
  190.7460  176.4640  144.6980 C   0  0  2  0  0  3  0  0  0  0  0  0
  191.2000  176.4830  147.1490 C   0  0  1  0  0  3  0  0  0  0  0  0
  188.1750  175.9070  145.1890 O   0  0  0  0  0  0  0  0  0  0  0  0
  181.6170  179.0200  142.3840 N   0  0  0  0  0  2  0  0  0  0  0  0
  180.6660  179.1200  141.2670 C   0  0  0  0  0  2  0  0  0  0  0  0
  178.9960  177.7870  139.7590 C   0  0  0  0  0  1  0  0  0  0  0  0
  179.6240  177.9480  141.1300 C   0  0  2  0  0  3  0  0  0  0  0  0
  178.6730  177.8970  142.2610 C   0  0  0  0  0  0  0  0  0  0  0  0
  178.4450  176.7910  142.7610 O   0  0  0  0  0  0  0  0  0  0  0  0
  178.2720  179.0810  143.0200 O   0  0  0  0  0  1  0  0  0  0  0  0
  1  7  1  0  0  0  0
  2  1  2  0  0  0  0
  2  6  1  0  0  0  0
  3  9  2  0  0  0  0
  3  1  1  0  0  0  0
  4  5  1  0  0  0  0
  4 14  1  0  0  0  0
  6  4  2  0  0  0  0
  7  8  1  0  0  0  0
  7  5  2  0  0  0  0
  9 10  1  0  0  0  0
 10 25  1  0  0  0  0
 10  8  2  0  0  0  0
 11  2  1  0  0  0  0
 13 12  1  6  0  0  0
 13 22  1  0  0  0  0
 13 15  1  0  0  0  0
 14 24  1  0  0  0  0
 15 19  1  0  0  0  0
 16 14  2  0  0  0  0
 16 22  1  0  0  0  0
 17 21  1  6  0  0  0
 19 23  1  0  0  0  0
 20 17  1  0  0  0  0
 20 23  1  0  0  0  0
 22 20  1  0  0  0  0
 23 18  1  0  0  0  0
 24 17  1  0  0  0  0
 26 25  1  0  0  0  0
 27 28  1  0  0  0  0
 28 26  1  0  0  0  0
 28 29  1  0  0  0  0
 29 30  2  0  0  0  0
 29 31  1  0  0  0  0
M  END
>  <MODEL>
7

>  <REMARK>
 VINA RESULT:      -7.4      2.758      5.566
  Name = 
  5 active torsions:
  status: ('A' for Active; 'I' for Inactive)
    1  A    between atoms: C_3  and  C_14
    2  A    between atoms: C_7  and  C_28
    3  A    between atoms: C_26  and  N_29
    4  A    between atoms: C_28  and  C_31
    5  A    between atoms: N_29  and  C_31
                            x       y       z     vdW  Elec       q    Type
                         _______ _______ _______ _____ _____    ______ ____

>  <TORSDO>
F 5

$$$$
=
 OpenBabel11062421283D

 31 34  0  0  1  0  0  0  0  0999 V2000
  184.9470  178.4580  144.2130 C   0  0  0  0  0  0  0  0  0  0  0  0
  185.6500  178.6090  145.4940 C   0  0  0  0  0  0  0  0  0  0  0  0
  183.6070  178.8380  144.1440 N   0  0  0  0  0  0  0  0  0  0  0  0
  187.7150  177.7630  144.2620 C   0  0  0  0  0  0  0  0  0  0  0  0
  186.9900  177.6750  143.1240 C   0  0  0  0  0  3  0  0  0  0  0  0
  187.1240  178.3210  145.5500 C   0  0  0  0  0  3  0  0  0  0  0  0
  185.5510  178.0220  143.0650 C   0  0  0  0  0  0  0  0  0  0  0  0
  184.7640  177.9290  141.8600 C   0  0  0  0  0  3  0  0  0  0  0  0
  182.8530  178.7300  143.0750 C   0  0  0  0  0  3  0  0  0  0  0  0
  183.4030  178.2910  141.8650 C   0  0  0  0  0  0  0  0  0  0  0  0
  185.0250  179.0370  146.5610 O   0  0  0  0  0  1  0  0  0  0  0  0
  191.5940  176.4150  147.6950 C   0  0  0  0  0  1  0  0  0  0  0  0
  191.4810  175.2670  146.6820 C   0  0  2  0  0  3  0  0  0  0  0  0
  189.0970  177.2490  144.3790 C   0  0  0  0  0  0  0  0  0  0  0  0
  192.7990  174.8610  146.4460 O   0  0  0  0  0  0  0  0  0  0  0  0
  189.5150  176.6430  145.4670 N   0  0  0  0  0  0  0  0  0  0  0  0
  190.6160  175.8240  142.8830 C   0  0  1  0  0  3  0  0  0  0  0  0
  193.3030  175.0740  143.3230 O   0  0  0  0  0  1  0  0  0  0  0  0
  192.7610  173.8850  145.3820 C   0  0  0  0  0  2  0  0  0  0  0  0
  191.0360  175.1130  144.0800 C   0  0  2  0  0  3  0  0  0  0  0  0
  189.7140  174.9140  142.0460 C   0  0  0  0  0  1  0  0  0  0  0  0
  190.7440  175.8210  145.4120 C   0  0  2  0  0  3  0  0  0  0  0  0
  192.3000  174.4280  144.0520 C   0  0  1  0  0  3  0  0  0  0  0  0
  189.8030  176.9400  143.1700 O   0  0  0  0  0  0  0  0  0  0  0  0
  182.5210  178.2110  140.7350 N   0  0  0  0  0  2  0  0  0  0  0  0
  181.2400  178.9160  140.8880 C   0  0  0  0  0  2  0  0  0  0  0  0
  179.0350  178.2510  139.6490 C   0  0  0  0  0  1  0  0  0  0  0  0
  179.9430  178.0240  140.8420 C   0  0  2  0  0  3  0  0  0  0  0  0
  179.2520  177.9570  142.1470 C   0  0  0  0  0  0  0  0  0  0  0  0
  179.1140  179.0140  142.7710 O   0  0  0  0  0  1  0  0  0  0  0  0
  178.4410  176.8130  142.5620 O   0  0  0  0  0  0  0  0  0  0  0  0
  1  2  2  0  0  0  0
  2  6  1  0  0  0  0
  2 11  1  0  0  0  0
  3  1  1  0  0  0  0
  4 14  1  0  0  0  0
  4  6  2  0  0  0  0
  5  4  1  0  0  0  0
  7  5  2  0  0  0  0
  7  1  1  0  0  0  0
  8 10  2  0  0  0  0
  8  7  1  0  0  0  0
  9  3  2  0  0  0  0
 10  9  1  0  0  0  0
 13 12  1  1  0  0  0
 14 16  2  0  0  0  0
 15 13  1  0  0  0  0
 17 21  1  6  0  0  0
 17 24  1  0  0  0  0
 17 20  1  0  0  0  0
 18 23  1  0  0  0  0
 19 15  1  0  0  0  0
 20 22  1  0  0  0  0
 22 16  1  0  0  0  0
 22 13  1  0  0  0  0
 23 20  1  0  0  0  0
 23 19  1  0  0  0  0
 24 14  1  0  0  0  0
 25 26  1  0  0  0  0
 25 10  1  0  0  0  0
 27 28  1  0  0  0  0
 28 26  1  0  0  0  0
 28 29  1  0  0  0  0
 29 31  2  0  0  0  0
 29 30  1  0  0  0  0
M  END
>  <MODEL>
8

>  <REMARK>
 VINA RESULT:      -7.4      2.838      5.030
  Name = 
  5 active torsions:
  status: ('A' for Active; 'I' for Inactive)
    1  A    between atoms: C_3  and  C_14
    2  A    between atoms: C_7  and  C_28
    3  A    between atoms: C_26  and  N_29
    4  A    between atoms: C_28  and  C_31
    5  A    between atoms: N_29  and  C_31
                            x       y       z     vdW  Elec       q    Type
                         _______ _______ _______ _____ _____    ______ ____

>  <TORSDO>
F 5

$$$$
=
 OpenBabel11062421283D

 31 34  0  0  1  0  0  0  0  0999 V2000
  185.0170  178.3460  144.4410 C   0  0  0  0  0  0  0  0  0  0  0  0
  185.7190  178.4610  145.7250 C   0  0  0  0  0  0  0  0  0  0  0  0
  183.7700  178.9590  144.3120 N   0  0  0  0  0  0  0  0  0  0  0  0
  187.6080  177.1620  144.6090 C   0  0  0  0  0  0  0  0  0  0  0  0
  186.8930  177.1240  143.4620 C   0  0  0  0  0  3  0  0  0  0  0  0
  187.1140  177.9130  145.8400 C   0  0  0  0  0  3  0  0  0  0  0  0
  185.5440  177.7240  143.3420 C   0  0  0  0  0  0  0  0  0  0  0  0
  184.7680  177.6860  142.1270 C   0  0  0  0  0  3  0  0  0  0  0  0
  183.0220  178.9110  143.2330 C   0  0  0  0  0  3  0  0  0  0  0  0
  183.4960  178.2910  142.0720 C   0  0  0  0  0  0  0  0  0  0  0  0
  185.1720  179.0730  146.7430 O   0  0  0  0  0  1  0  0  0  0  0  0
  189.8360  172.2950  144.6380 C   0  0  0  0  0  1  0  0  0  0  0  0
  190.7440  173.1930  143.7850 C   0  0  2  0  0  3  0  0  0  0  0  0
  188.8700  176.4150  144.7970 C   0  0  0  0  0  0  0  0  0  0  0  0
  192.0470  172.7940  144.1020 O   0  0  0  0  0  0  0  0  0  0  0  0
  189.0510  175.2260  144.2690 N   0  0  0  0  0  0  0  0  0  0  0  0
  191.3570  177.0010  144.5670 C   0  0  1  0  0  3  0  0  0  0  0  0
  193.5980  175.3710  145.1080 O   0  0  0  0  0  1  0  0  0  0  0  0
  192.9470  173.7120  143.4420 C   0  0  0  0  0  2  0  0  0  0  0  0
  191.5470  175.7080  143.9290 C   0  0  2  0  0  3  0  0  0  0  0  0
  191.4730  178.1060  143.5140 C   0  0  0  0  0  1  0  0  0  0  0  0
  190.4220  174.6840  144.1520 C   0  0  2  0  0  3  0  0  0  0  0  0
  192.8650  175.1340  143.9420 C   0  0  1  0  0  3  0  0  0  0  0  0
  190.0570  177.1640  145.0910 O   0  0  0  0  0  0  0  0  0  0  0  0
  182.6290  178.2900  140.9280 N   0  0  0  0  0  2  0  0  0  0  0  0
  181.2070  178.0500  141.2190 C   0  0  0  0  0  2  0  0  0  0  0  0
  180.0060  180.2630  140.5130 C   0  0  0  0  0  1  0  0  0  0  0  0
  180.1710  178.7740  140.2810 C   0  0  2  0  0  3  0  0  0  0  0  0
  178.9060  178.0210  140.1430 C   0  0  0  0  0  0  0  0  0  0  0  0
  178.4500  177.8810  139.0040 O   0  0  0  0  0  0  0  0  0  0  0  0
  178.3690  177.1640  141.1990 O   0  0  0  0  0  1  0  0  0  0  0  0
  1  2  2  0  0  0  0
  2  6  1  0  0  0  0
  2 11  1  0  0  0  0
  3  1  1  0  0  0  0
  4 14  1  0  0  0  0
  4  6  2  0  0  0  0
  5  4  1  0  0  0  0
  7  5  2  0  0  0  0
  7  1  1  0  0  0  0
  8  7  1  0  0  0  0
  9  3  2  0  0  0  0
 10  8  2  0  0  0  0
 10  9  1  0  0  0  0
 13 15  1  0  0  0  0
 13 22  1  0  0  0  0
 13 12  1  1  0  0  0
 14 24  1  0  0  0  0
 16 14  2  0  0  0  0
 17 21  1  6  0  0  0
 17 24  1  0  0  0  0
 19 23  1  0  0  0  0
 19 15  1  0  0  0  0
 20 23  1  0  0  0  0
 20 22  1  0  0  0  0
 20 17  1  0  0  0  0
 22 16  1  0  0  0  0
 23 18  1  0  0  0  0
 25 26  1  0  0  0  0
 25 10  1  0  0  0  0
 28 27  1  0  0  0  0
 28 26  1  0  0  0  0
 29 28  1  0  0  0  0
 29 31  1  0  0  0  0
 30 29  2  0  0  0  0
M  END
>  <MODEL>
9

>  <REMARK>
 VINA RESULT:      -7.3      2.887      4.593
  Name = 
  5 active torsions:
  status: ('A' for Active; 'I' for Inactive)
    1  A    between atoms: C_3  and  C_14
    2  A    between atoms: C_7  and  C_28
    3  A    between atoms: C_26  and  N_29
    4  A    between atoms: C_28  and  C_31
    5  A    between atoms: N_29  and  C_31
                            x       y       z     vdW  Elec       q    Type
                         _______ _______ _______ _____ _____    ______ ____

>  <TORSDO>
F 5

$$$$
