=
 OpenBabel11062423053D

 57 60  0  0  1  0  0  0  0  0999 V2000
  191.7330  173.6810  139.8540 O   0  0  0  0  0  0  0  0  0  0  0  0
  188.5220  174.0600  141.4650 C   0  0  0  0  0  2  0  0  0  0  0  0
  190.6340  173.7190  140.7200 C   0  0  0  0  0  0  0  0  0  0  0  0
  189.4600  174.1100  140.3610 N   0  0  0  0  0  0  0  0  0  0  0  0
  190.7410  173.3160  142.1390 C   0  0  0  0  0  2  0  0  0  0  0  0
  189.3230  173.5390  142.6570 C   0  0  1  0  0  3  0  0  0  0  0  0
  189.3130  174.4980  143.7610 N   0  0  0  0  0  2  0  0  0  0  0  0
  189.7050  172.9720  145.5000 O   0  0  0  0  0  0  0  0  0  0  0  0
  189.5140  174.1670  145.1440 C   0  0  0  0  0  0  0  0  0  0  0  0
  189.4660  175.2360  146.1860 C   0  0  2  0  0  3  0  0  0  0  0  0
  189.3690  176.6020  145.5290 C   0  0  0  0  0  2  0  0  0  0  0  0
  188.1410  177.2580  145.9430 N   0  0  0  0  0  2  0  0  0  0  0  0
  187.5510  177.8430  144.7510 C   0  0  0  0  0  2  0  0  0  0  0  0
  185.3990  178.3130  143.5670 C   0  0  1  0  0  3  0  0  0  0  0  0
  184.1210  178.8580  145.4580 C   0  0  0  0  0  2  0  0  0  0  0  0
  185.4570  178.3630  145.9550 C   0  0  0  0  0  2  0  0  0  0  0  0
  184.2260  179.0580  144.0180 N   0  0  0  0  0  2  0  0  0  0  0  0
  186.0450  177.6520  144.7720 C   0  0  2  0  0  3  0  0  0  0  0  0
  185.0140  177.3400  142.6440 O   0  0  0  0  0  0  0  0  0  0  0  0
  185.7230  177.6520  141.4820 C   0  0  0  0  0  2  0  0  0  0  0  0
  184.9400  178.4660  140.6640 O   0  0  0  0  0  1  0  0  0  0  0  0
  190.6440  175.1700  147.0390 N   0  0  0  0  0  2  0  0  0  0  0  0
  191.4490  176.3570  146.7780 C   0  0  0  0  0  2  0  0  0  0  0  0
  192.9110  175.9820  146.5470 C   0  0  0  0  0  2  0  0  0  0  0  0
  193.0540  174.9370  145.4460 C   0  0  0  0  0  2  0  0  0  0  0  0
  193.6540  175.6690  143.9320 S   0  0  0  0  0  0  0  0  0  0  0  0
  192.5470  176.4310  143.2580 O   0  0  0  0  0  0  0  0  0  0  0  0
  194.2240  174.3790  142.8500 C   0  0  0  0  0  1  0  0  0  0  0  0
  194.7960  176.6020  144.2310 O   0  0  0  0  0  0  0  0  0  0  0  0
  191.8970  172.7780  138.7950 C   0  0  0  0  0  0  0  0  0  0  0  0
  191.5420  173.0680  137.6210 O   0  0  0  0  0  0  0  0  0  0  0  0
  192.4880  171.4330  139.0640 C   0  0  2  0  0  3  0  0  0  0  0  0
  193.9770  171.5590  139.3610 C   0  0  0  0  0  2  0  0  0  0  0  0
  197.7970  171.7830  140.6270 O   0  0  0  0  0  0  0  0  0  0  0  0
  195.5920  171.3980  141.3470 N   0  0  0  0  0  0  0  0  0  0  0  0
  194.2420  171.3480  140.8200 C   0  0  0  0  0  0  0  0  0  0  0  0
  196.2260  173.3490  139.9330 N   0  0  0  0  0  2  0  0  0  0  0  0
  193.2600  171.0870  141.5660 O   0  0  0  0  0  0  0  0  0  0  0  0
  196.5930  172.1560  140.6330 C   0  0  0  0  0  0  0  0  0  0  0  0
  195.9580  170.7010  142.5660 C   0  0  0  0  0  0  0  0  0  0  0  0
  197.1750  170.5050  142.8420 O   0  0  0  0  0  0  0  0  0  0  0  0
  194.9230  170.2470  143.5600 C   0  0  1  0  0  3  0  0  0  0  0  0
  195.2080  168.8890  144.0000 N   0  0  0  0  0  1  0  0  0  0  0  0
  195.1090  170.4290  145.9890 N   0  0  0  0  0  1  0  0  0  0  0  0
  194.8840  171.1810  144.7620 C   0  0  0  0  0  2  0  0  0  0  0  0
  197.1380  174.0740  139.2400 O   0  0  0  0  0  0  0  0  0  0  0  0
  194.9280  174.7910  138.7110 C   0  0  0  0  0  2  0  0  0  0  0  0
  196.7350  175.1920  137.1730 C   0  0  0  0  0  2  0  0  0  0  0  0
  195.4510  175.6090  136.4640 C   0  0  1  0  0  3  0  0  0  0  0  0
  196.4050  175.1030  138.6440 C   0  0  2  0  0  3  0  0  0  0  0  0
  194.4710  174.4640  136.2040 C   0  0  2  0  0  3  0  0  0  0  0  0
  194.3070  175.3550  137.4370 C   0  0  1  0  0  3  0  0  0  0  0  0
  195.0130  173.2090  136.5110 O   0  0  0  0  0  1  0  0  0  0  0  0
  192.2990  170.6060  137.9550 O   0  0  0  0  0  0  0  0  0  0  0  0
  192.2340  169.3110  138.4810 C   0  0  0  0  0  2  0  0  0  0  0  0
  189.7350  169.6120  137.7100 C   0  0  0  0  0  1  0  0  0  0  0  0
  190.5910  169.0290  139.2040 S   0  0  0  0  0  0  0  0  0  0  0  0
  1  3  1  0  0  0  0
  2  6  1  0  0  0  0
  3  5  1  0  0  0  0
  4  3  2  0  0  0  0
  4  2  1  0  0  0  0
  5  6  1  0  0  0  0
  6  7  1  1  0  0  0
  7  9  1  0  0  0  0
  9  8  2  0  0  0  0
  9 10  1  0  0  0  0
 10 11  1  6  0  0  0
 10 22  1  0  0  0  0
 11 12  1  0  0  0  0
 13 12  1  0  0  0  0
 14 19  1  6  0  0  0
 14 17  1  0  0  0  0
 14 18  1  0  0  0  0
 15 16  1  0  0  0  0
 17 15  1  0  0  0  0
 18 13  1  6  0  0  0
 18 16  1  0  0  0  0
 20 19  1  0  0  0  0
 21 20  1  0  0  0  0
 23 22  1  0  0  0  0
 24 23  1  0  0  0  0
 25 24  1  0  0  0  0
 26 29  2  0  0  0  0
 26 25  1  0  0  0  0
 27 26  2  0  0  0  0
 28 26  1  0  0  0  0
 30 32  1  0  0  0  0
 30  1  1  0  0  0  0
 31 30  2  0  0  0  0
 32 33  1  6  0  0  0
 33 36  1  0  0  0  0
 34 39  2  0  0  0  0
 35 40  1  0  0  0  0
 36 35  1  0  0  0  0
 36 38  2  0  0  0  0
 37 39  1  0  0  0  0
 39 35  1  0  0  0  0
 40 41  2  0  0  0  0
 40 42  1  0  0  0  0
 42 43  1  1  0  0  0
 42 45  1  0  0  0  0
 45 44  1  0  0  0  0
 46 37  1  0  0  0  0
 48 50  1  0  0  0  0
 49 48  1  1  0  0  0
 49 52  1  0  0  0  0
 50 47  1  0  0  0  0
 50 46  1  6  0  0  0
 51 49  1  0  0  0  0
 51 53  1  1  0  0  0
 51 52  1  0  0  0  0
 52 47  1  1  0  0  0
 54 55  1  0  0  0  0
 54 32  1  0  0  0  0
 55 57  1  0  0  0  0
 56 57  1  0  0  0  0
M  END
>  <MODEL>
1

>  <REMARK>
 VINA RESULT:      -5.0      0.000      0.000
  Name = 
  25 active torsions:
  status: ('A' for Active; 'I' for Inactive)
    1  A    between atoms: C_1  and  C_26
    2  A    between atoms: C_1  and  O_54
    3  A    between atoms: O_2  and  C_26
    4  A    between atoms: O_2  and  C_44
    5  A    between atoms: C_3  and  O_42
    6  A    between atoms: C_4  and  O_42
    7  A    between atoms: N_5  and  C_49
    8  A    between atoms: C_7  and  S_28
    9  A    between atoms: C_7  and  C_39
   10  A    between atoms: N_10  and  C_23
   11  A    between atoms: N_10  and  C_51
   12  A    between atoms: C_11  and  C_41
   13  A    between atoms: N_14  and  O_40
   14  A    between atoms: C_16  and  C_39
   15  A    between atoms: C_16  and  N_57
   16  A    between atoms: S_17  and  C_44
   17  A    between atoms: C_23  and  C_34
   18  A    between atoms: C_24  and  O_54
   19  A    between atoms: C_26  and  C_41
   20  A    between atoms: C_30  and  C_31
   21  A    between atoms: C_31  and  C_50
   22  A    between atoms: C_32  and  O_40
   23  A    between atoms: C_34  and  C_53
   24  A    between atoms: C_34  and  N_57
   25  A    between atoms: C_48  and  C_51
                            x       y       z     vdW  Elec       q    Type
                         _______ _______ _______ _____ _____    ______ ____

>  <TORSDO>
F 25

$$$$
=
 OpenBabel11062423053D

 57 60  0  0  1  0  0  0  0  0999 V2000
  190.8650  174.9580  145.8190 O   0  0  0  0  0  0  0  0  0  0  0  0
  187.6030  176.4040  146.3910 C   0  0  0  0  0  2  0  0  0  0  0  0
  189.7170  175.7570  145.8960 C   0  0  0  0  0  0  0  0  0  0  0  0
  188.6300  175.3850  146.4800 N   0  0  0  0  0  0  0  0  0  0  0  0
  189.6610  177.1050  145.2920 C   0  0  0  0  0  2  0  0  0  0  0  0
  188.2400  177.5580  145.6180 C   0  0  1  0  0  3  0  0  0  0  0  0
  187.4910  177.8550  144.3980 N   0  0  0  0  0  2  0  0  0  0  0  0
  185.7550  179.0820  145.3920 O   0  0  0  0  0  0  0  0  0  0  0  0
  186.2750  178.6180  144.3400 C   0  0  0  0  0  0  0  0  0  0  0  0
  185.5910  178.8420  143.0320 C   0  0  2  0  0  3  0  0  0  0  0  0
  184.3950  177.9160  142.9030 C   0  0  0  0  0  2  0  0  0  0  0  0
  183.2020  178.6940  142.6190 N   0  0  0  0  0  2  0  0  0  0  0  0
  182.4050  177.9220  141.6800 C   0  0  0  0  0  2  0  0  0  0  0  0
  179.9900  178.1970  142.2640 C   0  0  1  0  0  3  0  0  0  0  0  0
  179.1560  178.3170  140.0750 C   0  0  0  0  0  2  0  0  0  0  0  0
  180.6610  178.3160  139.9750 C   0  0  0  0  0  2  0  0  0  0  0  0
  178.7990  177.9810  141.4480 N   0  0  0  0  0  2  0  0  0  0  0  0
  181.1180  178.6610  141.3610 C   0  0  2  0  0  3  0  0  0  0  0  0
  179.7290  179.1680  143.2320 O   0  0  0  0  0  0  0  0  0  0  0  0
  178.4760  178.8290  143.7480 C   0  0  0  0  0  2  0  0  0  0  0  0
  178.4580  179.0710  145.1220 O   0  0  0  0  0  1  0  0  0  0  0  0
  186.5170  178.6240  141.9290 N   0  0  0  0  0  2  0  0  0  0  0  0
  186.1330  177.3860  141.2640 C   0  0  0  0  0  2  0  0  0  0  0  0
  187.3660  176.6020  140.8210 C   0  0  0  0  0  2  0  0  0  0  0  0
  187.7560  175.5450  141.8490 C   0  0  0  0  0  2  0  0  0  0  0  0
  188.6200  174.1840  141.0820 S   0  0  0  0  0  0  0  0  0  0  0  0
  190.0780  174.2340  141.4460 O   0  0  0  0  0  0  0  0  0  0  0  0
  188.4500  174.3090  139.3170 C   0  0  0  0  0  1  0  0  0  0  0  0
  188.0320  172.8780  141.5430 O   0  0  0  0  0  0  0  0  0  0  0  0
  191.0820  173.9460  144.8740 C   0  0  0  0  0  0  0  0  0  0  0  0
  190.2290  173.0390  144.6730 O   0  0  0  0  0  0  0  0  0  0  0  0
  192.3590  173.9280  144.1000 C   0  0  2  0  0  3  0  0  0  0  0  0
  192.5970  172.5460  143.5050 C   0  0  0  0  0  2  0  0  0  0  0  0
  195.2040  170.1630  141.5630 O   0  0  0  0  0  0  0  0  0  0  0  0
  194.5510  170.8950  143.7000 N   0  0  0  0  0  0  0  0  0  0  0  0
  193.5920  171.7850  144.3260 C   0  0  0  0  0  0  0  0  0  0  0  0
  194.9890  172.4640  141.8140 N   0  0  0  0  0  2  0  0  0  0  0  0
  193.5420  171.9110  145.5790 O   0  0  0  0  0  0  0  0  0  0  0  0
  194.9230  171.1290  142.3240 C   0  0  0  0  0  0  0  0  0  0  0  0
  195.1360  169.7800  144.4200 C   0  0  0  0  0  0  0  0  0  0  0  0
  195.7210  168.8560  143.7880 O   0  0  0  0  0  0  0  0  0  0  0  0
  195.1210  169.7130  145.9240 C   0  0  1  0  0  3  0  0  0  0  0  0
  194.6520  168.4080  146.3650 N   0  0  0  0  0  1  0  0  0  0  0  0
  197.1450  171.0730  145.7660 N   0  0  0  0  0  1  0  0  0  0  0  0
  196.5100  169.9790  146.4880 C   0  0  0  0  0  2  0  0  0  0  0  0
  195.3190  172.7150  140.5240 O   0  0  0  0  0  0  0  0  0  0  0  0
  196.5890  174.1790  141.9110 C   0  0  0  0  0  2  0  0  0  0  0  0
  196.5120  174.5260  139.5310 C   0  0  0  0  0  2  0  0  0  0  0  0
  197.2510  175.7180  140.1270 C   0  0  1  0  0  3  0  0  0  0  0  0
  196.5060  173.4490  140.5900 C   0  0  2  0  0  3  0  0  0  0  0  0
  196.4010  176.5930  141.0520 C   0  0  2  0  0  3  0  0  0  0  0  0
  197.2990  175.4990  141.6340 C   0  0  1  0  0  3  0  0  0  0  0  0
  195.0470  176.2320  141.0410 O   0  0  0  0  0  1  0  0  0  0  0  0
  193.4220  174.2680  144.9390 O   0  0  0  0  0  0  0  0  0  0  0  0
  194.0900  175.2990  144.2690 C   0  0  0  0  0  2  0  0  0  0  0  0
  193.9890  176.3930  146.6610 C   0  0  0  0  0  1  0  0  0  0  0  0
  193.5900  176.9020  144.9630 S   0  0  0  0  0  0  0  0  0  0  0  0
  1  3  1  0  0  0  0
  2  4  1  0  0  0  0
  3  4  2  0  0  0  0
  5  6  1  0  0  0  0
  5  3  1  0  0  0  0
  6  7  1  6  0  0  0
  6  2  1  0  0  0  0
  9  7  1  0  0  0  0
  9  8  2  0  0  0  0
 10 11  1  6  0  0  0
 10  9  1  0  0  0  0
 12 11  1  0  0  0  0
 13 12  1  0  0  0  0
 14 19  1  1  0  0  0
 15 17  1  0  0  0  0
 16 15  1  0  0  0  0
 16 18  1  0  0  0  0
 17 14  1  0  0  0  0
 18 13  1  1  0  0  0
 18 14  1  0  0  0  0
 19 20  1  0  0  0  0
 20 21  1  0  0  0  0
 22 10  1  0  0  0  0
 23 22  1  0  0  0  0
 24 23  1  0  0  0  0
 24 25  1  0  0  0  0
 26 27  2  0  0  0  0
 26 29  2  0  0  0  0
 26 25  1  0  0  0  0
 28 26  1  0  0  0  0
 30  1  1  0  0  0  0
 31 30  2  0  0  0  0
 32 33  1  1  0  0  0
 32 30  1  0  0  0  0
 32 54  1  0  0  0  0
 33 36  1  0  0  0  0
 34 39  2  0  0  0  0
 35 36  1  0  0  0  0
 35 40  1  0  0  0  0
 36 38  2  0  0  0  0
 37 39  1  0  0  0  0
 39 35  1  0  0  0  0
 40 42  1  0  0  0  0
 41 40  2  0  0  0  0
 42 43  1  6  0  0  0
 42 45  1  0  0  0  0
 44 45  1  0  0  0  0
 46 37  1  0  0  0  0
 48 50  1  0  0  0  0
 49 48  1  6  0  0  0
 49 51  1  0  0  0  0
 49 52  1  0  0  0  0
 50 46  1  1  0  0  0
 50 47  1  0  0  0  0
 51 53  1  6  0  0  0
 51 52  1  0  0  0  0
 52 47  1  6  0  0  0
 55 54  1  0  0  0  0
 55 57  1  0  0  0  0
 57 56  1  0  0  0  0
M  END
>  <MODEL>
2

>  <REMARK>
 VINA RESULT:      -4.8      3.068      5.844
  Name = 
  25 active torsions:
  status: ('A' for Active; 'I' for Inactive)
    1  A    between atoms: C_1  and  C_26
    2  A    between atoms: C_1  and  O_54
    3  A    between atoms: O_2  and  C_26
    4  A    between atoms: O_2  and  C_44
    5  A    between atoms: C_3  and  O_42
    6  A    between atoms: C_4  and  O_42
    7  A    between atoms: N_5  and  C_49
    8  A    between atoms: C_7  and  S_28
    9  A    between atoms: C_7  and  C_39
   10  A    between atoms: N_10  and  C_23
   11  A    between atoms: N_10  and  C_51
   12  A    between atoms: C_11  and  C_41
   13  A    between atoms: N_14  and  O_40
   14  A    between atoms: C_16  and  C_39
   15  A    between atoms: C_16  and  N_57
   16  A    between atoms: S_17  and  C_44
   17  A    between atoms: C_23  and  C_34
   18  A    between atoms: C_24  and  O_54
   19  A    between atoms: C_26  and  C_41
   20  A    between atoms: C_30  and  C_31
   21  A    between atoms: C_31  and  C_50
   22  A    between atoms: C_32  and  O_40
   23  A    between atoms: C_34  and  C_53
   24  A    between atoms: C_34  and  N_57
   25  A    between atoms: C_48  and  C_51
                            x       y       z     vdW  Elec       q    Type
                         _______ _______ _______ _____ _____    ______ ____

>  <TORSDO>
F 25

$$$$
=
 OpenBabel11062423053D

 57 60  0  0  1  0  0  0  0  0999 V2000
  192.0710  173.7220  140.8790 O   0  0  0  0  0  0  0  0  0  0  0  0
  188.5910  173.7590  139.9110 C   0  0  0  0  0  2  0  0  0  0  0  0
  190.6850  173.8840  140.7650 C   0  0  0  0  0  0  0  0  0  0  0  0
  189.9960  173.4310  139.7740 N   0  0  0  0  0  0  0  0  0  0  0  0
  189.8960  174.6110  141.7820 C   0  0  0  0  0  2  0  0  0  0  0  0
  188.4780  174.5350  141.2220 C   0  0  1  0  0  3  0  0  0  0  0  0
  187.9290  175.8720  141.0010 N   0  0  0  0  0  2  0  0  0  0  0  0
  186.2340  175.7830  142.6210 O   0  0  0  0  0  0  0  0  0  0  0  0
  186.8270  176.4420  141.7240 C   0  0  0  0  0  0  0  0  0  0  0  0
  186.3450  177.8170  141.3950 C   0  0  2  0  0  3  0  0  0  0  0  0
  186.1150  178.6080  142.6710 C   0  0  0  0  0  2  0  0  0  0  0  0
  187.3770  178.7980  143.3640 N   0  0  0  0  0  2  0  0  0  0  0  0
  187.0860  178.7850  144.7870 C   0  0  0  0  0  2  0  0  0  0  0  0
  186.2580  177.3150  146.6330 C   0  0  1  0  0  3  0  0  0  0  0  0
  188.0730  175.8300  146.6810 C   0  0  0  0  0  2  0  0  0  0  0  0
  188.2780  176.7400  145.4950 C   0  0  0  0  0  2  0  0  0  0  0  0
  186.9880  176.3800  147.4840 N   0  0  0  0  0  2  0  0  0  0  0  0
  186.9280  177.3550  145.2710 C   0  0  2  0  0  3  0  0  0  0  0  0
  184.9350  176.8940  146.4960 O   0  0  0  0  0  0  0  0  0  0  0  0
  184.1680  178.0080  146.8460 C   0  0  0  0  0  2  0  0  0  0  0  0
  183.7800  178.6880  145.6910 O   0  0  0  0  0  1  0  0  0  0  0  0
  185.1170  177.7540  140.6150 N   0  0  0  0  0  2  0  0  0  0  0  0
  184.0510  178.3430  141.4140 C   0  0  0  0  0  2  0  0  0  0  0  0
  182.6890  178.1020  140.7660 C   0  0  0  0  0  2  0  0  0  0  0  0
  181.5530  178.6090  141.6460 C   0  0  0  0  0  2  0  0  0  0  0  0
  179.9920  178.5610  140.7810 S   0  0  0  0  0  0  0  0  0  0  0  0
  180.1280  177.7470  139.5240 O   0  0  0  0  0  0  0  0  0  0  0  0
  179.5100  180.2190  140.3600 C   0  0  0  0  0  1  0  0  0  0  0  0
  178.9360  177.9500  141.6620 O   0  0  0  0  0  0  0  0  0  0  0  0
  192.7860  172.5830  140.4830 C   0  0  0  0  0  0  0  0  0  0  0  0
  192.2170  171.6140  139.9100 O   0  0  0  0  0  0  0  0  0  0  0  0
  194.2520  172.5040  140.7600 C   0  0  2  0  0  3  0  0  0  0  0  0
  194.5650  173.1080  142.1230 C   0  0  0  0  0  2  0  0  0  0  0  0
  197.5300  173.9580  144.7180 O   0  0  0  0  0  0  0  0  0  0  0  0
  196.0440  172.2660  144.0420 N   0  0  0  0  0  0  0  0  0  0  0  0
  194.9740  172.0400  143.0900 C   0  0  0  0  0  0  0  0  0  0  0  0
  195.3000  174.5910  144.5410 N   0  0  0  0  0  2  0  0  0  0  0  0
  194.3880  170.9260  143.0210 O   0  0  0  0  0  0  0  0  0  0  0  0
  196.3460  173.6210  144.4420 C   0  0  0  0  0  0  0  0  0  0  0  0
  196.8150  171.1670  144.5940 C   0  0  0  0  0  0  0  0  0  0  0  0
  197.9150  171.3950  145.1730 O   0  0  0  0  0  0  0  0  0  0  0  0
  196.3140  169.7490  144.5530 C   0  0  1  0  0  3  0  0  0  0  0  0
  197.1190  168.9580  143.6340 N   0  0  0  0  0  1  0  0  0  0  0  0
  195.0580  169.2710  146.5940 N   0  0  0  0  0  1  0  0  0  0  0  0
  196.3520  169.1240  145.9410 C   0  0  0  0  0  2  0  0  0  0  0  0
  195.5530  175.8740  144.8980 O   0  0  0  0  0  0  0  0  0  0  0  0
  193.8580  176.7600  146.3180 C   0  0  0  0  0  2  0  0  0  0  0  0
  193.2620  175.5880  144.3020 C   0  0  0  0  0  2  0  0  0  0  0  0
  191.9640  175.8630  145.0530 C   0  0  1  0  0  3  0  0  0  0  0  0
  194.3060  176.5030  144.8990 C   0  0  2  0  0  3  0  0  0  0  0  0
  191.8520  175.1560  146.4060 C   0  0  2  0  0  3  0  0  0  0  0  0
  192.3400  176.6040  146.3290 C   0  0  1  0  0  3  0  0  0  0  0  0
  192.8940  174.2450  146.6260 O   0  0  0  0  0  1  0  0  0  0  0  0
  194.9550  173.1920  139.7690 O   0  0  0  0  0  0  0  0  0  0  0  0
  195.9430  172.2980  139.3460 C   0  0  0  0  0  2  0  0  0  0  0  0
  194.8950  172.4960  136.9390 C   0  0  0  0  0  1  0  0  0  0  0  0
  196.5270  172.7710  137.6920 S   0  0  0  0  0  0  0  0  0  0  0  0
  2  6  1  0  0  0  0
  3  1  1  0  0  0  0
  3  5  1  0  0  0  0
  4  2  1  0  0  0  0
  4  3  2  0  0  0  0
  6  7  1  6  0  0  0
  6  5  1  0  0  0  0
  7  9  1  0  0  0  0
  9  8  2  0  0  0  0
 10  9  1  0  0  0  0
 10 11  1  1  0  0  0
 11 12  1  0  0  0  0
 12 13  1  0  0  0  0
 14 19  1  6  0  0  0
 14 17  1  0  0  0  0
 15 17  1  0  0  0  0
 16 15  1  0  0  0  0
 18 13  1  1  0  0  0
 18 16  1  0  0  0  0
 18 14  1  0  0  0  0
 19 20  1  0  0  0  0
 21 20  1  0  0  0  0
 22 10  1  0  0  0  0
 22 23  1  0  0  0  0
 24 23  1  0  0  0  0
 24 25  1  0  0  0  0
 26 25  1  0  0  0  0
 26 29  2  0  0  0  0
 27 26  2  0  0  0  0
 28 26  1  0  0  0  0
 30 32  1  0  0  0  0
 30  1  1  0  0  0  0
 31 30  2  0  0  0  0
 32 33  1  1  0  0  0
 33 36  1  0  0  0  0
 35 39  1  0  0  0  0
 35 40  1  0  0  0  0
 36 35  1  0  0  0  0
 37 46  1  0  0  0  0
 38 36  2  0  0  0  0
 39 37  1  0  0  0  0
 39 34  2  0  0  0  0
 40 41  2  0  0  0  0
 42 43  1  6  0  0  0
 42 40  1  0  0  0  0
 42 45  1  0  0  0  0
 45 44  1  0  0  0  0
 48 50  1  0  0  0  0
 49 48  1  6  0  0  0
 49 52  1  0  0  0  0
 49 51  1  0  0  0  0
 50 46  1  1  0  0  0
 50 47  1  0  0  0  0
 51 53  1  6  0  0  0
 52 47  1  6  0  0  0
 52 51  1  0  0  0  0
 54 32  1  0  0  0  0
 55 54  1  0  0  0  0
 56 57  1  0  0  0  0
 57 55  1  0  0  0  0
M  END
>  <MODEL>
3

>  <REMARK>
 VINA RESULT:      -4.8      3.294      6.650
  Name = 
  25 active torsions:
  status: ('A' for Active; 'I' for Inactive)
    1  A    between atoms: C_1  and  C_26
    2  A    between atoms: C_1  and  O_54
    3  A    between atoms: O_2  and  C_26
    4  A    between atoms: O_2  and  C_44
    5  A    between atoms: C_3  and  O_42
    6  A    between atoms: C_4  and  O_42
    7  A    between atoms: N_5  and  C_49
    8  A    between atoms: C_7  and  S_28
    9  A    between atoms: C_7  and  C_39
   10  A    between atoms: N_10  and  C_23
   11  A    between atoms: N_10  and  C_51
   12  A    between atoms: C_11  and  C_41
   13  A    between atoms: N_14  and  O_40
   14  A    between atoms: C_16  and  C_39
   15  A    between atoms: C_16  and  N_57
   16  A    between atoms: S_17  and  C_44
   17  A    between atoms: C_23  and  C_34
   18  A    between atoms: C_24  and  O_54
   19  A    between atoms: C_26  and  C_41
   20  A    between atoms: C_30  and  C_31
   21  A    between atoms: C_31  and  C_50
   22  A    between atoms: C_32  and  O_40
   23  A    between atoms: C_34  and  C_53
   24  A    between atoms: C_34  and  N_57
   25  A    between atoms: C_48  and  C_51
                            x       y       z     vdW  Elec       q    Type
                         _______ _______ _______ _____ _____    ______ ____

>  <TORSDO>
F 25

$$$$
=
 OpenBabel11062423053D

 57 60  0  0  1  0  0  0  0  0999 V2000
  188.8270  172.9510  140.9930 O   0  0  0  0  0  0  0  0  0  0  0  0
  188.2960  176.0070  142.8470 C   0  0  0  0  0  2  0  0  0  0  0  0
  188.5490  174.2490  141.4410 C   0  0  0  0  0  0  0  0  0  0  0  0
  188.6660  174.6160  142.6700 N   0  0  0  0  0  0  0  0  0  0  0  0
  188.0810  175.3100  140.5230 C   0  0  0  0  0  2  0  0  0  0  0  0
  187.9060  176.5040  141.4560 C   0  0  1  0  0  3  0  0  0  0  0  0
  186.5270  176.9900  141.4350 N   0  0  0  0  0  2  0  0  0  0  0  0
  186.9420  179.1380  142.2820 O   0  0  0  0  0  0  0  0  0  0  0  0
  186.1070  178.3010  141.8460 C   0  0  0  0  0  0  0  0  0  0  0  0
  184.6620  178.6760  141.7920 C   0  0  2  0  0  3  0  0  0  0  0  0
  183.9210  178.0700  142.9720 C   0  0  0  0  0  2  0  0  0  0  0  0
  184.8450  177.8570  144.0720 N   0  0  0  0  0  2  0  0  0  0  0  0
  184.6630  178.9620  144.9990 C   0  0  0  0  0  2  0  0  0  0  0  0
  186.4780  177.5760  146.0190 C   0  0  1  0  0  3  0  0  0  0  0  0
  185.7450  177.6990  148.2440 C   0  0  0  0  0  2  0  0  0  0  0  0
  184.8690  178.6270  147.4380 C   0  0  0  0  0  2  0  0  0  0  0  0
  186.5220  176.8950  147.3090 N   0  0  0  0  0  2  0  0  0  0  0  0
  185.6310  178.8280  146.1610 C   0  0  2  0  0  3  0  0  0  0  0  0
  187.7700  177.9230  145.6240 O   0  0  0  0  0  0  0  0  0  0  0  0
  188.6090  177.2000  146.4740 C   0  0  0  0  0  2  0  0  0  0  0  0
  189.9390  177.5110  146.1910 O   0  0  0  0  0  1  0  0  0  0  0  0
  184.0650  178.2290  140.5410 N   0  0  0  0  0  2  0  0  0  0  0  0
  182.7240  177.7450  140.8360 C   0  0  0  0  0  2  0  0  0  0  0  0
  181.6930  178.8590  140.6630 C   0  0  0  0  0  2  0  0  0  0  0  0
  180.3400  178.3070  140.2300 C   0  0  0  0  0  2  0  0  0  0  0  0
  179.0090  179.3840  140.7350 S   0  0  0  0  0  0  0  0  0  0  0  0
  179.4280  180.8210  140.5840 O   0  0  0  0  0  0  0  0  0  0  0  0
  178.6150  179.0630  142.4380 C   0  0  0  0  0  1  0  0  0  0  0  0
  177.7910  179.1260  139.8900 O   0  0  0  0  0  0  0  0  0  0  0  0
  189.1660  172.6070  139.6770 C   0  0  0  0  0  0  0  0  0  0  0  0
  188.3180  172.1120  138.8860 O   0  0  0  0  0  0  0  0  0  0  0  0
  190.5680  172.8130  139.2030 C   0  0  2  0  0  3  0  0  0  0  0  0
  191.3740  173.5700  140.2510 C   0  0  0  0  0  2  0  0  0  0  0  0
  194.5880  175.9240  140.8620 O   0  0  0  0  0  0  0  0  0  0  0  0
  193.8980  173.6830  140.6940 N   0  0  0  0  0  0  0  0  0  0  0  0
  192.6940  172.9030  140.4830 C   0  0  0  0  0  0  0  0  0  0  0  0
  192.7370  175.3440  142.1430 N   0  0  0  0  0  2  0  0  0  0  0  0
  192.7320  171.6430  140.4480 O   0  0  0  0  0  0  0  0  0  0  0  0
  193.7760  175.0250  141.2130 C   0  0  0  0  0  0  0  0  0  0  0  0
  195.2130  173.1490  140.3910 C   0  0  0  0  0  0  0  0  0  0  0  0
  196.2040  173.9260  140.2930 O   0  0  0  0  0  0  0  0  0  0  0  0
  195.4520  171.6710  140.2450 C   0  0  1  0  0  3  0  0  0  0  0  0
  196.0360  171.3810  138.9440 N   0  0  0  0  0  1  0  0  0  0  0  0
  195.5920  170.5300  142.4020 N   0  0  0  0  0  1  0  0  0  0  0  0
  196.3730  171.1630  141.3470 C   0  0  0  0  0  2  0  0  0  0  0  0
  192.5860  176.5980  142.6370 O   0  0  0  0  0  0  0  0  0  0  0  0
  193.2720  176.8370  144.9060 C   0  0  0  0  0  2  0  0  0  0  0  0
  191.9320  174.9540  144.2350 C   0  0  0  0  0  2  0  0  0  0  0  0
  192.3370  174.7140  145.6850 C   0  0  1  0  0  3  0  0  0  0  0  0
  192.1720  176.4190  143.9590 C   0  0  2  0  0  3  0  0  0  0  0  0
  193.8410  174.5390  145.9030 C   0  0  2  0  0  3  0  0  0  0  0  0
  193.1850  175.9050  146.1100 C   0  0  1  0  0  3  0  0  0  0  0  0
  194.5540  174.4570  144.7000 O   0  0  0  0  0  1  0  0  0  0  0  0
  190.5580  173.5340  138.0080 O   0  0  0  0  0  0  0  0  0  0  0  0
  191.2760  172.7400  137.1070 C   0  0  0  0  0  2  0  0  0  0  0  0
  192.1620  173.2400  134.6790 C   0  0  0  0  0  1  0  0  0  0  0  0
  190.5520  172.8930  135.4470 S   0  0  0  0  0  0  0  0  0  0  0  0
  1  3  1  0  0  0  0
  3  4  2  0  0  0  0
  4  2  1  0  0  0  0
  5  3  1  0  0  0  0
  5  6  1  0  0  0  0
  6  7  1  1  0  0  0
  6  2  1  0  0  0  0
  7  9  1  0  0  0  0
  9  8  2  0  0  0  0
 10  9  1  0  0  0  0
 10 11  1  1  0  0  0
 11 12  1  0  0  0  0
 12 13  1  0  0  0  0
 14 19  1  1  0  0  0
 14 18  1  0  0  0  0
 14 17  1  0  0  0  0
 16 15  1  0  0  0  0
 17 15  1  0  0  0  0
 18 13  1  6  0  0  0
 18 16  1  0  0  0  0
 19 20  1  0  0  0  0
 21 20  1  0  0  0  0
 22 23  1  0  0  0  0
 22 10  1  0  0  0  0
 24 23  1  0  0  0  0
 25 24  1  0  0  0  0
 25 26  1  0  0  0  0
 26 28  1  0  0  0  0
 27 26  2  0  0  0  0
 29 26  2  0  0  0  0
 30  1  1  0  0  0  0
 31 30  2  0  0  0  0
 32 30  1  0  0  0  0
 32 33  1  1  0  0  0
 33 36  1  0  0  0  0
 34 39  2  0  0  0  0
 35 39  1  0  0  0  0
 36 35  1  0  0  0  0
 37 46  1  0  0  0  0
 38 36  2  0  0  0  0
 39 37  1  0  0  0  0
 40 35  1  0  0  0  0
 41 40  2  0  0  0  0
 42 43  1  6  0  0  0
 42 40  1  0  0  0  0
 42 45  1  0  0  0  0
 45 44  1  0  0  0  0
 49 48  1  6  0  0  0
 49 51  1  0  0  0  0
 49 52  1  0  0  0  0
 50 46  1  6  0  0  0
 50 48  1  0  0  0  0
 50 47  1  0  0  0  0
 51 53  1  6  0  0  0
 51 52  1  0  0  0  0
 52 47  1  6  0  0  0
 54 32  1  0  0  0  0
 55 54  1  0  0  0  0
 56 57  1  0  0  0  0
 57 55  1  0  0  0  0
M  END
>  <MODEL>
4

>  <REMARK>
 VINA RESULT:      -4.8      3.459      7.106
  Name = 
  25 active torsions:
  status: ('A' for Active; 'I' for Inactive)
    1  A    between atoms: C_1  and  C_26
    2  A    between atoms: C_1  and  O_54
    3  A    between atoms: O_2  and  C_26
    4  A    between atoms: O_2  and  C_44
    5  A    between atoms: C_3  and  O_42
    6  A    between atoms: C_4  and  O_42
    7  A    between atoms: N_5  and  C_49
    8  A    between atoms: C_7  and  S_28
    9  A    between atoms: C_7  and  C_39
   10  A    between atoms: N_10  and  C_23
   11  A    between atoms: N_10  and  C_51
   12  A    between atoms: C_11  and  C_41
   13  A    between atoms: N_14  and  O_40
   14  A    between atoms: C_16  and  C_39
   15  A    between atoms: C_16  and  N_57
   16  A    between atoms: S_17  and  C_44
   17  A    between atoms: C_23  and  C_34
   18  A    between atoms: C_24  and  O_54
   19  A    between atoms: C_26  and  C_41
   20  A    between atoms: C_30  and  C_31
   21  A    between atoms: C_31  and  C_50
   22  A    between atoms: C_32  and  O_40
   23  A    between atoms: C_34  and  C_53
   24  A    between atoms: C_34  and  N_57
   25  A    between atoms: C_48  and  C_51
                            x       y       z     vdW  Elec       q    Type
                         _______ _______ _______ _____ _____    ______ ____

>  <TORSDO>
F 25

$$$$
=
 OpenBabel11062423053D

 57 60  0  0  1  0  0  0  0  0999 V2000
  188.4480  176.6510  147.1710 O   0  0  0  0  0  0  0  0  0  0  0  0
  184.9320  177.4730  147.0610 C   0  0  0  0  0  2  0  0  0  0  0  0
  187.1730  177.1740  146.9240 C   0  0  0  0  0  0  0  0  0  0  0  0
  186.1100  176.7680  147.5280 N   0  0  0  0  0  0  0  0  0  0  0  0
  186.9440  178.2400  145.9250 C   0  0  0  0  0  2  0  0  0  0  0  0
  185.4360  178.4550  146.0050 C   0  0  1  0  0  3  0  0  0  0  0  0
  184.8010  178.2120  144.7110 N   0  0  0  0  0  2  0  0  0  0  0  0
  185.7480  180.0220  143.5570 O   0  0  0  0  0  0  0  0  0  0  0  0
  184.9950  179.0110  143.5330 C   0  0  0  0  0  0  0  0  0  0  0  0
  184.2770  178.6700  142.2680 C   0  0  2  0  0  3  0  0  0  0  0  0
  182.7770  178.6690  142.5050 C   0  0  0  0  0  2  0  0  0  0  0  0
  182.1150  177.9260  141.4460 N   0  0  0  0  0  2  0  0  0  0  0  0
  181.3060  178.8780  140.7020 C   0  0  0  0  0  2  0  0  0  0  0  0
  178.9160  179.5630  140.4390 C   0  0  1  0  0  3  0  0  0  0  0  0
  178.0140  178.1790  142.1040 C   0  0  0  0  0  2  0  0  0  0  0  0
  179.4690  177.8070  141.9610 C   0  0  0  0  0  2  0  0  0  0  0  0
  177.7920  179.4110  141.3580 N   0  0  0  0  0  2  0  0  0  0  0  0
  179.8670  178.3970  140.6400 C   0  0  2  0  0  3  0  0  0  0  0  0
  178.4520  179.5710  139.1230 O   0  0  0  0  0  0  0  0  0  0  0  0
  177.9340  180.8550  138.9350 C   0  0  0  0  0  2  0  0  0  0  0  0
  178.9490  181.7070  138.4990 O   0  0  0  0  0  1  0  0  0  0  0  0
  184.7090  177.3720  141.7710 N   0  0  0  0  0  2  0  0  0  0  0  0
  185.9570  177.5650  141.0450 C   0  0  0  0  0  2  0  0  0  0  0  0
  185.7240  177.5050  139.5370 C   0  0  0  0  0  2  0  0  0  0  0  0
  187.0210  177.2380  138.7810 C   0  0  0  0  0  2  0  0  0  0  0  0
  186.7460  176.1660  137.3810 S   0  0  0  0  0  0  0  0  0  0  0  0
  187.4350  174.8480  137.6010 O   0  0  0  0  0  0  0  0  0  0  0  0
  187.4050  176.9370  135.9210 C   0  0  0  0  0  1  0  0  0  0  0  0
  185.2710  175.9360  137.1930 O   0  0  0  0  0  0  0  0  0  0  0  0
  188.8480  175.3360  146.9000 C   0  0  0  0  0  0  0  0  0  0  0  0
  189.0230  174.4970  147.8250 O   0  0  0  0  0  0  0  0  0  0  0  0
  189.0910  174.9200  145.4860 C   0  0  2  0  0  3  0  0  0  0  0  0
  190.1040  173.7830  145.4360 C   0  0  0  0  0  2  0  0  0  0  0  0
  192.3260  171.5870  142.8890 O   0  0  0  0  0  0  0  0  0  0  0  0
  192.3220  173.5600  144.1690 N   0  0  0  0  0  0  0  0  0  0  0  0
  191.4590  174.3020  145.0670 C   0  0  0  0  0  0  0  0  0  0  0  0
  190.4470  172.9350  142.6520 N   0  0  0  0  0  2  0  0  0  0  0  0
  191.8400  175.3830  145.5930 O   0  0  0  0  0  0  0  0  0  0  0  0
  191.7250  172.6440  143.2250 C   0  0  0  0  0  0  0  0  0  0  0  0
  193.7650  173.7130  144.2020 C   0  0  0  0  0  0  0  0  0  0  0  0
  194.5050  172.8580  143.6400 O   0  0  0  0  0  0  0  0  0  0  0  0
  194.4200  174.9070  144.8430 C   0  0  1  0  0  3  0  0  0  0  0  0
  195.6840  174.5210  145.4520 N   0  0  0  0  0  1  0  0  0  0  0  0
  196.0110  176.5270  143.9430 N   0  0  0  0  0  1  0  0  0  0  0  0
  194.6560  176.0070  143.8180 C   0  0  0  0  0  2  0  0  0  0  0  0
  189.8520  172.0890  141.7760 O   0  0  0  0  0  0  0  0  0  0  0  0
  189.6130  171.8550  139.4170 C   0  0  0  0  0  2  0  0  0  0  0  0
  191.0550  173.5530  140.3280 C   0  0  0  0  0  2  0  0  0  0  0  0
  191.2640  173.5600  138.8180 C   0  0  1  0  0  3  0  0  0  0  0  0
  189.7660  172.8060  140.5810 C   0  0  2  0  0  3  0  0  0  0  0  0
  191.8670  172.2710  138.2560 C   0  0  2  0  0  3  0  0  0  0  0  0
  190.3520  172.4850  138.2410 C   0  0  1  0  0  3  0  0  0  0  0  0
  192.2780  171.3850  139.2600 O   0  0  0  0  0  1  0  0  0  0  0  0
  189.5680  176.0070  144.7530 O   0  0  0  0  0  0  0  0  0  0  0  0
  188.6970  176.1130  143.6630 C   0  0  0  0  0  2  0  0  0  0  0  0
  190.7100  177.7210  143.1220 C   0  0  0  0  0  1  0  0  0  0  0  0
  189.6300  176.6020  142.1820 S   0  0  0  0  0  0  0  0  0  0  0  0
  2  4  1  0  0  0  0
  3  1  1  0  0  0  0
  3  4  2  0  0  0  0
  5  6  1  0  0  0  0
  5  3  1  0  0  0  0
  6  7  1  6  0  0  0
  6  2  1  0  0  0  0
  9  8  2  0  0  0  0
  9  7  1  0  0  0  0
 10 11  1  1  0  0  0
 10  9  1  0  0  0  0
 12 11  1  0  0  0  0
 13 12  1  0  0  0  0
 14 19  1  6  0  0  0
 14 18  1  0  0  0  0
 14 17  1  0  0  0  0
 16 15  1  0  0  0  0
 17 15  1  0  0  0  0
 18 13  1  1  0  0  0
 18 16  1  0  0  0  0
 20 19  1  0  0  0  0
 21 20  1  0  0  0  0
 22 10  1  0  0  0  0
 23 22  1  0  0  0  0
 24 23  1  0  0  0  0
 25 24  1  0  0  0  0
 26 27  2  0  0  0  0
 26 25  1  0  0  0  0
 28 26  1  0  0  0  0
 29 26  2  0  0  0  0
 30  1  1  0  0  0  0
 30 31  2  0  0  0  0
 32 33  1  1  0  0  0
 32 30  1  0  0  0  0
 34 39  2  0  0  0  0
 35 40  1  0  0  0  0
 35 36  1  0  0  0  0
 36 33  1  0  0  0  0
 36 38  2  0  0  0  0
 37 39  1  0  0  0  0
 39 35  1  0  0  0  0
 40 42  1  0  0  0  0
 41 40  2  0  0  0  0
 42 43  1  6  0  0  0
 45 44  1  0  0  0  0
 45 42  1  0  0  0  0
 46 37  1  0  0  0  0
 47 50  1  0  0  0  0
 48 50  1  0  0  0  0
 49 48  1  1  0  0  0
 50 46  1  1  0  0  0
 51 49  1  0  0  0  0
 51 53  1  1  0  0  0
 52 51  1  0  0  0  0
 52 49  1  0  0  0  0
 52 47  1  1  0  0  0
 54 32  1  0  0  0  0
 55 54  1  0  0  0  0
 57 56  1  0  0  0  0
 57 55  1  0  0  0  0
M  END
>  <MODEL>
5

>  <REMARK>
 VINA RESULT:      -4.6      3.785      7.481
  Name = 
  25 active torsions:
  status: ('A' for Active; 'I' for Inactive)
    1  A    between atoms: C_1  and  C_26
    2  A    between atoms: C_1  and  O_54
    3  A    between atoms: O_2  and  C_26
    4  A    between atoms: O_2  and  C_44
    5  A    between atoms: C_3  and  O_42
    6  A    between atoms: C_4  and  O_42
    7  A    between atoms: N_5  and  C_49
    8  A    between atoms: C_7  and  S_28
    9  A    between atoms: C_7  and  C_39
   10  A    between atoms: N_10  and  C_23
   11  A    between atoms: N_10  and  C_51
   12  A    between atoms: C_11  and  C_41
   13  A    between atoms: N_14  and  O_40
   14  A    between atoms: C_16  and  C_39
   15  A    between atoms: C_16  and  N_57
   16  A    between atoms: S_17  and  C_44
   17  A    between atoms: C_23  and  C_34
   18  A    between atoms: C_24  and  O_54
   19  A    between atoms: C_26  and  C_41
   20  A    between atoms: C_30  and  C_31
   21  A    between atoms: C_31  and  C_50
   22  A    between atoms: C_32  and  O_40
   23  A    between atoms: C_34  and  C_53
   24  A    between atoms: C_34  and  N_57
   25  A    between atoms: C_48  and  C_51
                            x       y       z     vdW  Elec       q    Type
                         _______ _______ _______ _____ _____    ______ ____

>  <TORSDO>
F 25

$$$$
=
 OpenBabel11062423053D

 57 60  0  0  1  0  0  0  0  0999 V2000
  188.2480  173.7930  142.4240 O   0  0  0  0  0  0  0  0  0  0  0  0
  190.7680  173.4340  144.9880 C   0  0  0  0  0  2  0  0  0  0  0  0
  189.2920  173.3990  143.2700 C   0  0  0  0  0  0  0  0  0  0  0  0
  189.6530  174.0670  144.3120 N   0  0  0  0  0  0  0  0  0  0  0  0
  190.0800  172.1720  143.0220 C   0  0  0  0  0  2  0  0  0  0  0  0
  191.0810  172.1800  144.1740 C   0  0  1  0  0  3  0  0  0  0  0  0
  192.4550  172.2020  143.6750 N   0  0  0  0  0  2  0  0  0  0  0  0
  193.0730  170.0480  144.3730 O   0  0  0  0  0  0  0  0  0  0  0  0
  193.3940  171.1210  143.7920 C   0  0  0  0  0  0  0  0  0  0  0  0
  194.7790  171.2680  143.2550 C   0  0  2  0  0  3  0  0  0  0  0  0
  195.3050  172.6640  143.5420 C   0  0  0  0  0  2  0  0  0  0  0  0
  195.8270  172.7210  144.8970 N   0  0  0  0  0  2  0  0  0  0  0  0
  196.2910  174.0800  145.1160 C   0  0  0  0  0  2  0  0  0  0  0  0
  195.6330  176.3550  144.3140 C   0  0  1  0  0  3  0  0  0  0  0  0
  194.1870  176.8970  146.0800 C   0  0  0  0  0  2  0  0  0  0  0  0
  194.5920  175.4560  146.2670 C   0  0  0  0  0  2  0  0  0  0  0  0
  195.0400  177.4700  145.0460 N   0  0  0  0  0  2  0  0  0  0  0  0
  195.1440  175.0570  144.9300 C   0  0  2  0  0  3  0  0  0  0  0  0
  195.2510  176.4150  142.9730 O   0  0  0  0  0  0  0  0  0  0  0  0
  196.4200  176.7440  142.2840 C   0  0  0  0  0  2  0  0  0  0  0  0
  197.5020  176.7200  143.1640 O   0  0  0  0  0  1  0  0  0  0  0  0
  194.8000  171.0090  141.8220 N   0  0  0  0  0  2  0  0  0  0  0  0
  195.2980  172.2070  141.1600 C   0  0  0  0  0  2  0  0  0  0  0  0
  194.2560  172.7680  140.1940 C   0  0  0  0  0  2  0  0  0  0  0  0
  194.7790  172.7970  138.7620 C   0  0  0  0  0  2  0  0  0  0  0  0
  195.2000  174.4570  138.2600 S   0  0  0  0  0  0  0  0  0  0  0  0
  193.9510  175.2860  138.1320 O   0  0  0  0  0  0  0  0  0  0  0  0
  196.0290  174.3960  136.6880 C   0  0  0  0  0  1  0  0  0  0  0  0
  196.1160  175.0840  139.2750 O   0  0  0  0  0  0  0  0  0  0  0  0
  188.2690  174.9180  141.5880 C   0  0  0  0  0  0  0  0  0  0  0  0
  188.4990  174.8150  140.3520 O   0  0  0  0  0  0  0  0  0  0  0  0
  188.0310  176.2710  142.1730 C   0  0  2  0  0  3  0  0  0  0  0  0
  186.5550  176.4500  142.5070 C   0  0  0  0  0  2  0  0  0  0  0  0
  185.0120  180.0340  143.5170 O   0  0  0  0  0  0  0  0  0  0  0  0
  185.8440  178.0230  144.4050 N   0  0  0  0  0  0  0  0  0  0  0  0
  186.3780  176.7490  143.9640 C   0  0  0  0  0  0  0  0  0  0  0  0
  184.1280  178.0900  142.6000 N   0  0  0  0  0  2  0  0  0  0  0  0
  186.7460  175.8740  144.7940 O   0  0  0  0  0  0  0  0  0  0  0  0
  184.9990  178.7740  143.5060 C   0  0  0  0  0  0  0  0  0  0  0  0
  186.1440  178.5580  145.7200 C   0  0  0  0  0  0  0  0  0  0  0  0
  185.9290  179.7770  145.9710 O   0  0  0  0  0  0  0  0  0  0  0  0
  186.6560  177.6840  146.8330 C   0  0  1  0  0  3  0  0  0  0  0  0
  187.8290  178.2870  147.4470 N   0  0  0  0  0  1  0  0  0  0  0  0
  184.3210  177.0970  147.2490 N   0  0  0  0  0  1  0  0  0  0  0  0
  185.5780  177.4660  147.8860 C   0  0  0  0  0  2  0  0  0  0  0  0
  183.3350  178.7650  141.7330 O   0  0  0  0  0  0  0  0  0  0  0  0
  181.4560  178.0070  140.4770 C   0  0  0  0  0  2  0  0  0  0  0  0
  181.1410  179.0550  142.6210 C   0  0  0  0  0  2  0  0  0  0  0  0
  179.7550  178.8550  142.0190 C   0  0  1  0  0  3  0  0  0  0  0  0
  182.0800  178.1620  141.8450 C   0  0  2  0  0  3  0  0  0  0  0  0
  179.5000  179.6520  140.7380 C   0  0  2  0  0  3  0  0  0  0  0  0
  179.9540  178.1930  140.6620 C   0  0  1  0  0  3  0  0  0  0  0  0
  180.5310  180.5560  140.4500 O   0  0  0  0  0  1  0  0  0  0  0  0
  188.4290  177.2530  141.2640 O   0  0  0  0  0  0  0  0  0  0  0  0
  188.9700  178.2730  142.0530 C   0  0  0  0  0  2  0  0  0  0  0  0
  191.4030  177.5580  142.7590 C   0  0  0  0  0  1  0  0  0  0  0  0
  189.7550  177.5530  143.5250 S   0  0  0  0  0  0  0  0  0  0  0  0
  1  3  1  0  0  0  0
  3  4  2  0  0  0  0
  4  2  1  0  0  0  0
  5  3  1  0  0  0  0
  5  6  1  0  0  0  0
  6  7  1  6  0  0  0
  6  2  1  0  0  0  0
  7  9  1  0  0  0  0
  9  8  2  0  0  0  0
 10 11  1  6  0  0  0
 10  9  1  0  0  0  0
 11 12  1  0  0  0  0
 12 13  1  0  0  0  0
 14 19  1  6  0  0  0
 14 18  1  0  0  0  0
 14 17  1  0  0  0  0
 15 16  1  0  0  0  0
 17 15  1  0  0  0  0
 18 13  1  1  0  0  0
 18 16  1  0  0  0  0
 20 19  1  0  0  0  0
 20 21  1  0  0  0  0
 22 10  1  0  0  0  0
 23 22  1  0  0  0  0
 24 23  1  0  0  0  0
 25 24  1  0  0  0  0
 26 25  1  0  0  0  0
 26 29  2  0  0  0  0
 27 26  2  0  0  0  0
 28 26  1  0  0  0  0
 30 32  1  0  0  0  0
 30  1  1  0  0  0  0
 31 30  2  0  0  0  0
 32 33  1  6  0  0  0
 33 36  1  0  0  0  0
 35 40  1  0  0  0  0
 36 35  1  0  0  0  0
 36 38  2  0  0  0  0
 37 39  1  0  0  0  0
 39 34  2  0  0  0  0
 39 35  1  0  0  0  0
 40 41  2  0  0  0  0
 40 42  1  0  0  0  0
 42 43  1  1  0  0  0
 42 45  1  0  0  0  0
 44 45  1  0  0  0  0
 46 37  1  0  0  0  0
 47 50  1  0  0  0  0
 49 48  1  6  0  0  0
 50 46  1  6  0  0  0
 50 48  1  0  0  0  0
 51 53  1  6  0  0  0
 51 49  1  0  0  0  0
 52 47  1  6  0  0  0
 52 51  1  0  0  0  0
 52 49  1  0  0  0  0
 54 55  1  0  0  0  0
 54 32  1  0  0  0  0
 55 57  1  0  0  0  0
 56 57  1  0  0  0  0
M  END
>  <MODEL>
6

>  <REMARK>
 VINA RESULT:      -4.4      3.043     10.363
  Name = 
  25 active torsions:
  status: ('A' for Active; 'I' for Inactive)
    1  A    between atoms: C_1  and  C_26
    2  A    between atoms: C_1  and  O_54
    3  A    between atoms: O_2  and  C_26
    4  A    between atoms: O_2  and  C_44
    5  A    between atoms: C_3  and  O_42
    6  A    between atoms: C_4  and  O_42
    7  A    between atoms: N_5  and  C_49
    8  A    between atoms: C_7  and  S_28
    9  A    between atoms: C_7  and  C_39
   10  A    between atoms: N_10  and  C_23
   11  A    between atoms: N_10  and  C_51
   12  A    between atoms: C_11  and  C_41
   13  A    between atoms: N_14  and  O_40
   14  A    between atoms: C_16  and  C_39
   15  A    between atoms: C_16  and  N_57
   16  A    between atoms: S_17  and  C_44
   17  A    between atoms: C_23  and  C_34
   18  A    between atoms: C_24  and  O_54
   19  A    between atoms: C_26  and  C_41
   20  A    between atoms: C_30  and  C_31
   21  A    between atoms: C_31  and  C_50
   22  A    between atoms: C_32  and  O_40
   23  A    between atoms: C_34  and  C_53
   24  A    between atoms: C_34  and  N_57
   25  A    between atoms: C_48  and  C_51
                            x       y       z     vdW  Elec       q    Type
                         _______ _______ _______ _____ _____    ______ ____

>  <TORSDO>
F 25

$$$$
=
 OpenBabel11062423053D

 57 60  0  0  1  0  0  0  0  0999 V2000
  191.6780  173.8460  140.4110 O   0  0  0  0  0  0  0  0  0  0  0  0
  188.4780  174.5400  141.9380 C   0  0  0  0  0  2  0  0  0  0  0  0
  190.5540  173.9650  141.2380 C   0  0  0  0  0  0  0  0  0  0  0  0
  189.4650  174.5520  140.8770 N   0  0  0  0  0  0  0  0  0  0  0  0
  190.5350  173.4270  142.6160 C   0  0  0  0  0  2  0  0  0  0  0  0
  189.1400  173.8060  143.1030 C   0  0  1  0  0  3  0  0  0  0  0  0
  189.2110  174.6540  144.2920 N   0  0  0  0  0  2  0  0  0  0  0  0
  189.9640  173.0180  145.7950 O   0  0  0  0  0  0  0  0  0  0  0  0
  189.6320  174.2180  145.5940 C   0  0  0  0  0  0  0  0  0  0  0  0
  189.6480  175.1770  146.7380 C   0  0  2  0  0  3  0  0  0  0  0  0
  188.7720  176.3780  146.4250 C   0  0  0  0  0  2  0  0  0  0  0  0
  187.4150  176.1250  146.8780 N   0  0  0  0  0  2  0  0  0  0  0  0
  186.7450  177.4120  146.9490 C   0  0  0  0  0  2  0  0  0  0  0  0
  186.4320  178.6650  144.8080 C   0  0  1  0  0  3  0  0  0  0  0  0
  184.1290  179.0600  145.0170 C   0  0  0  0  0  2  0  0  0  0  0  0
  184.5250  178.1460  146.1500 C   0  0  0  0  0  2  0  0  0  0  0  0
  185.3510  179.5540  144.3940 N   0  0  0  0  0  2  0  0  0  0  0  0
  185.8600  177.6040  145.7310 C   0  0  2  0  0  3  0  0  0  0  0  0
  187.0010  178.0590  143.6880 O   0  0  0  0  0  0  0  0  0  0  0  0
  186.2060  178.4710  142.6170 C   0  0  0  0  0  2  0  0  0  0  0  0
  185.6150  177.3570  142.0200 O   0  0  0  0  0  1  0  0  0  0  0  0
  191.0100  175.6100  147.0210 N   0  0  0  0  0  2  0  0  0  0  0  0
  191.3830  176.5940  146.0140 C   0  0  0  0  0  2  0  0  0  0  0  0
  192.8490  176.4360  145.6170 C   0  0  0  0  0  2  0  0  0  0  0  0
  193.0800  176.8270  144.1610 C   0  0  0  0  0  2  0  0  0  0  0  0
  194.2050  175.6970  143.3580 S   0  0  0  0  0  0  0  0  0  0  0  0
  195.5710  175.8090  143.9770 O   0  0  0  0  0  0  0  0  0  0  0  0
  194.3060  176.1080  141.6310 C   0  0  0  0  0  1  0  0  0  0  0  0
  193.7040  174.2860  143.5000 O   0  0  0  0  0  0  0  0  0  0  0  0
  192.0000  172.7180  139.6450 C   0  0  0  0  0  0  0  0  0  0  0  0
  191.4530  172.5010  138.5290 O   0  0  0  0  0  0  0  0  0  0  0  0
  193.0000  171.7390  140.1660 C   0  0  2  0  0  3  0  0  0  0  0  0
  194.2760  172.4580  140.5850 C   0  0  0  0  0  2  0  0  0  0  0  0
  197.5240  174.7710  141.1760 O   0  0  0  0  0  0  0  0  0  0  0  0
  196.2340  173.7210  139.5130 N   0  0  0  0  0  0  0  0  0  0  0  0
  195.0630  172.8760  139.3810 C   0  0  0  0  0  0  0  0  0  0  0  0
  197.0440  172.5260  141.5440 N   0  0  0  0  0  2  0  0  0  0  0  0
  194.6520  172.5040  138.2490 O   0  0  0  0  0  0  0  0  0  0  0  0
  196.9560  173.7230  140.7640 C   0  0  0  0  0  0  0  0  0  0  0  0
  196.6890  174.5650  138.4230 C   0  0  0  0  0  0  0  0  0  0  0  0
  197.5080  175.5000  138.6470 O   0  0  0  0  0  0  0  0  0  0  0  0
  196.2590  174.3230  137.0020 C   0  0  1  0  0  3  0  0  0  0  0  0
  195.6890  175.5350  136.4350 N   0  0  0  0  0  1  0  0  0  0  0  0
  197.8760  172.5400  136.5820 N   0  0  0  0  0  1  0  0  0  0  0  0
  197.4360  173.8600  136.1540 C   0  0  0  0  0  2  0  0  0  0  0  0
  197.7000  172.4990  142.7300 O   0  0  0  0  0  0  0  0  0  0  0  0
  197.2990  172.6600  145.0730 C   0  0  0  0  0  2  0  0  0  0  0  0
  196.0230  171.1280  143.7250 C   0  0  0  0  0  2  0  0  0  0  0  0
  195.6460  170.8580  145.1780 C   0  0  1  0  0  3  0  0  0  0  0  0
  196.6950  172.4800  143.7000 C   0  0  2  0  0  3  0  0  0  0  0  0
  196.7950  170.3350  146.0440 C   0  0  2  0  0  3  0  0  0  0  0  0
  196.4540  171.8270  146.0310 C   0  0  1  0  0  3  0  0  0  0  0  0
  197.9410  170.0360  145.2960 O   0  0  0  0  0  1  0  0  0  0  0  0
  193.2950  170.7970  139.1780 O   0  0  0  0  0  0  0  0  0  0  0  0
  192.6580  169.6250  139.6000 C   0  0  0  0  0  2  0  0  0  0  0  0
  191.8220  168.6790  141.9090 C   0  0  0  0  0  1  0  0  0  0  0  0
  193.4280  169.0310  141.1340 S   0  0  0  0  0  0  0  0  0  0  0  0
  1  3  1  0  0  0  0
  2  6  1  0  0  0  0
  3  5  1  0  0  0  0
  4  3  2  0  0  0  0
  4  2  1  0  0  0  0
  5  6  1  0  0  0  0
  6  7  1  1  0  0  0
  7  9  1  0  0  0  0
  9  8  2  0  0  0  0
  9 10  1  0  0  0  0
 10 11  1  6  0  0  0
 10 22  1  0  0  0  0
 11 12  1  0  0  0  0
 12 13  1  0  0  0  0
 14 19  1  6  0  0  0
 14 18  1  0  0  0  0
 15 16  1  0  0  0  0
 17 14  1  0  0  0  0
 17 15  1  0  0  0  0
 18 16  1  0  0  0  0
 18 13  1  1  0  0  0
 20 19  1  0  0  0  0
 21 20  1  0  0  0  0
 23 22  1  0  0  0  0
 24 23  1  0  0  0  0
 25 24  1  0  0  0  0
 26 29  2  0  0  0  0
 26 27  2  0  0  0  0
 26 25  1  0  0  0  0
 28 26  1  0  0  0  0
 30 32  1  0  0  0  0
 30  1  1  0  0  0  0
 31 30  2  0  0  0  0
 32 33  1  6  0  0  0
 35 39  1  0  0  0  0
 36 35  1  0  0  0  0
 36 33  1  0  0  0  0
 37 46  1  0  0  0  0
 38 36  2  0  0  0  0
 39 34  2  0  0  0  0
 39 37  1  0  0  0  0
 40 41  2  0  0  0  0
 40 35  1  0  0  0  0
 42 43  1  6  0  0  0
 42 40  1  0  0  0  0
 45 44  1  0  0  0  0
 45 42  1  0  0  0  0
 49 48  1  6  0  0  0
 49 52  1  0  0  0  0
 49 51  1  0  0  0  0
 50 46  1  6  0  0  0
 50 48  1  0  0  0  0
 50 47  1  0  0  0  0
 51 53  1  6  0  0  0
 52 47  1  6  0  0  0
 52 51  1  0  0  0  0
 54 55  1  0  0  0  0
 54 32  1  0  0  0  0
 55 57  1  0  0  0  0
 57 56  1  0  0  0  0
M  END
>  <MODEL>
7

>  <REMARK>
 VINA RESULT:      -4.4      1.729      4.470
  Name = 
  25 active torsions:
  status: ('A' for Active; 'I' for Inactive)
    1  A    between atoms: C_1  and  C_26
    2  A    between atoms: C_1  and  O_54
    3  A    between atoms: O_2  and  C_26
    4  A    between atoms: O_2  and  C_44
    5  A    between atoms: C_3  and  O_42
    6  A    between atoms: C_4  and  O_42
    7  A    between atoms: N_5  and  C_49
    8  A    between atoms: C_7  and  S_28
    9  A    between atoms: C_7  and  C_39
   10  A    between atoms: N_10  and  C_23
   11  A    between atoms: N_10  and  C_51
   12  A    between atoms: C_11  and  C_41
   13  A    between atoms: N_14  and  O_40
   14  A    between atoms: C_16  and  C_39
   15  A    between atoms: C_16  and  N_57
   16  A    between atoms: S_17  and  C_44
   17  A    between atoms: C_23  and  C_34
   18  A    between atoms: C_24  and  O_54
   19  A    between atoms: C_26  and  C_41
   20  A    between atoms: C_30  and  C_31
   21  A    between atoms: C_31  and  C_50
   22  A    between atoms: C_32  and  O_40
   23  A    between atoms: C_34  and  C_53
   24  A    between atoms: C_34  and  N_57
   25  A    between atoms: C_48  and  C_51
                            x       y       z     vdW  Elec       q    Type
                         _______ _______ _______ _____ _____    ______ ____

>  <TORSDO>
F 25

$$$$
=
 OpenBabel11062423053D

 57 60  0  0  1  0  0  0  0  0999 V2000
  188.6240  174.3380  138.6110 O   0  0  0  0  0  0  0  0  0  0  0  0
  187.1880  176.4310  141.1810 C   0  0  0  0  0  2  0  0  0  0  0  0
  188.2110  174.9620  139.7950 C   0  0  0  0  0  0  0  0  0  0  0  0
  187.4330  175.9880  139.8230 N   0  0  0  0  0  0  0  0  0  0  0  0
  188.6550  174.4880  141.1240 C   0  0  0  0  0  2  0  0  0  0  0  0
  187.9720  175.4690  142.0720 C   0  0  1  0  0  3  0  0  0  0  0  0
  188.9550  176.1840  142.8860 N   0  0  0  0  0  2  0  0  0  0  0  0
  189.3230  174.4990  144.4770 O   0  0  0  0  0  0  0  0  0  0  0  0
  189.5970  175.6570  144.0580 C   0  0  0  0  0  0  0  0  0  0  0  0
  190.5760  176.4910  144.8170 C   0  0  2  0  0  3  0  0  0  0  0  0
  191.9810  176.2560  144.2900 C   0  0  0  0  0  2  0  0  0  0  0  0
  192.4760  174.9780  144.7700 N   0  0  0  0  0  2  0  0  0  0  0  0
  193.6970  174.6930  144.0350 C   0  0  0  0  0  2  0  0  0  0  0  0
  196.0400  173.8420  144.2340 C   0  0  1  0  0  3  0  0  0  0  0  0
  195.5620  171.9170  145.4870 C   0  0  0  0  0  2  0  0  0  0  0  0
  194.2800  172.7050  145.3820 C   0  0  0  0  0  2  0  0  0  0  0  0
  196.5250  172.5050  144.5640 N   0  0  0  0  0  2  0  0  0  0  0  0
  194.7280  174.0740  144.9620 C   0  0  2  0  0  3  0  0  0  0  0  0
  196.9760  174.7960  144.6330 O   0  0  0  0  0  0  0  0  0  0  0  0
  197.4850  175.3170  143.4420 C   0  0  0  0  0  2  0  0  0  0  0  0
  196.8530  176.5270  143.1550 O   0  0  0  0  0  1  0  0  0  0  0  0
  190.5140  176.1820  146.2390 N   0  0  0  0  0  2  0  0  0  0  0  0
  189.6510  177.1710  146.8720 C   0  0  0  0  0  2  0  0  0  0  0  0
  188.2040  176.6840  146.9120 C   0  0  0  0  0  2  0  0  0  0  0  0
  187.2250  177.8480  147.0120 C   0  0  0  0  0  2  0  0  0  0  0  0
  185.7970  177.5830  145.9740 S   0  0  0  0  0  0  0  0  0  0  0  0
  186.1740  176.7360  144.7900 O   0  0  0  0  0  0  0  0  0  0  0  0
  185.1940  179.1550  145.4030 C   0  0  0  0  0  1  0  0  0  0  0  0
  184.7130  176.8950  146.7580 O   0  0  0  0  0  0  0  0  0  0  0  0
  189.3080  173.1170  138.5370 C   0  0  0  0  0  0  0  0  0  0  0  0
  188.7620  172.0350  138.8850 O   0  0  0  0  0  0  0  0  0  0  0  0
  190.7220  173.0960  138.0550 C   0  0  2  0  0  3  0  0  0  0  0  0
  191.6750  173.4240  139.1970 C   0  0  0  0  0  2  0  0  0  0  0  0
  193.5900  170.2210  137.6740 O   0  0  0  0  0  0  0  0  0  0  0  0
  192.5240  171.0390  139.6040 N   0  0  0  0  0  0  0  0  0  0  0  0
  191.8600  172.2340  140.0860 C   0  0  0  0  0  0  0  0  0  0  0  0
  194.2670  172.3300  138.3780 N   0  0  0  0  0  2  0  0  0  0  0  0
  191.3840  172.2900  141.2520 O   0  0  0  0  0  0  0  0  0  0  0  0
  193.4630  171.1550  138.5120 C   0  0  0  0  0  0  0  0  0  0  0  0
  192.2640  169.7360  140.1890 C   0  0  0  0  0  0  0  0  0  0  0  0
  192.6090  168.6870  139.5750 O   0  0  0  0  0  0  0  0  0  0  0  0
  191.6400  169.5900  141.5500 C   0  0  1  0  0  3  0  0  0  0  0  0
  190.4310  168.7840  141.4650 N   0  0  0  0  0  1  0  0  0  0  0  0
  193.3600  169.9790  143.2400 N   0  0  0  0  0  1  0  0  0  0  0  0
  192.6180  168.9500  142.5250 C   0  0  0  0  0  2  0  0  0  0  0  0
  195.1450  172.4760  137.3550 O   0  0  0  0  0  0  0  0  0  0  0  0
  196.1640  172.9650  139.4530 C   0  0  0  0  0  2  0  0  0  0  0  0
  196.5700  174.3790  137.5480 C   0  0  0  0  0  2  0  0  0  0  0  0
  197.2160  175.0600  138.7490 C   0  0  1  0  0  3  0  0  0  0  0  0
  196.3190  172.9450  137.9500 C   0  0  2  0  0  3  0  0  0  0  0  0
  196.2300  175.5060  139.8310 C   0  0  2  0  0  3  0  0  0  0  0  0
  196.9590  174.1660  139.9550 C   0  0  1  0  0  3  0  0  0  0  0  0
  194.8940  175.3600  139.4370 O   0  0  0  0  0  1  0  0  0  0  0  0
  190.8810  174.0290  137.0280 O   0  0  0  0  0  0  0  0  0  0  0  0
  192.1900  174.4990  137.1720 C   0  0  0  0  0  2  0  0  0  0  0  0
  192.4780  173.0410  134.9990 C   0  0  0  0  0  1  0  0  0  0  0  0
  192.9450  174.7140  135.5330 S   0  0  0  0  0  0  0  0  0  0  0  0
  1  3  1  0  0  0  0
  2  6  1  0  0  0  0
  3  4  2  0  0  0  0
  3  5  1  0  0  0  0
  4  2  1  0  0  0  0
  5  6  1  0  0  0  0
  6  7  1  6  0  0  0
  7  9  1  0  0  0  0
  9  8  2  0  0  0  0
  9 10  1  0  0  0  0
 10 11  1  6  0  0  0
 10 22  1  0  0  0  0
 11 12  1  0  0  0  0
 13 12  1  0  0  0  0
 14 17  1  0  0  0  0
 14 19  1  1  0  0  0
 14 18  1  0  0  0  0
 16 15  1  0  0  0  0
 17 15  1  0  0  0  0
 18 13  1  6  0  0  0
 18 16  1  0  0  0  0
 20 19  1  0  0  0  0
 21 20  1  0  0  0  0
 22 23  1  0  0  0  0
 23 24  1  0  0  0  0
 24 25  1  0  0  0  0
 26 29  2  0  0  0  0
 26 25  1  0  0  0  0
 27 26  2  0  0  0  0
 28 26  1  0  0  0  0
 30  1  1  0  0  0  0
 30 31  2  0  0  0  0
 32 30  1  0  0  0  0
 32 33  1  1  0  0  0
 33 36  1  0  0  0  0
 34 39  2  0  0  0  0
 35 36  1  0  0  0  0
 35 40  1  0  0  0  0
 36 38  2  0  0  0  0
 37 39  1  0  0  0  0
 39 35  1  0  0  0  0
 40 42  1  0  0  0  0
 41 40  2  0  0  0  0
 42 43  1  6  0  0  0
 42 45  1  0  0  0  0
 45 44  1  0  0  0  0
 46 37  1  0  0  0  0
 48 50  1  0  0  0  0
 49 48  1  6  0  0  0
 49 51  1  0  0  0  0
 49 52  1  0  0  0  0
 50 46  1  6  0  0  0
 50 47  1  0  0  0  0
 51 53  1  6  0  0  0
 51 52  1  0  0  0  0
 52 47  1  6  0  0  0
 54 55  1  0  0  0  0
 54 32  1  0  0  0  0
 56 57  1  0  0  0  0
 57 55  1  0  0  0  0
M  END
>  <MODEL>
8

>  <REMARK>
 VINA RESULT:      -4.3      2.778      6.128
  Name = 
  25 active torsions:
  status: ('A' for Active; 'I' for Inactive)
    1  A    between atoms: C_1  and  C_26
    2  A    between atoms: C_1  and  O_54
    3  A    between atoms: O_2  and  C_26
    4  A    between atoms: O_2  and  C_44
    5  A    between atoms: C_3  and  O_42
    6  A    between atoms: C_4  and  O_42
    7  A    between atoms: N_5  and  C_49
    8  A    between atoms: C_7  and  S_28
    9  A    between atoms: C_7  and  C_39
   10  A    between atoms: N_10  and  C_23
   11  A    between atoms: N_10  and  C_51
   12  A    between atoms: C_11  and  C_41
   13  A    between atoms: N_14  and  O_40
   14  A    between atoms: C_16  and  C_39
   15  A    between atoms: C_16  and  N_57
   16  A    between atoms: S_17  and  C_44
   17  A    between atoms: C_23  and  C_34
   18  A    between atoms: C_24  and  O_54
   19  A    between atoms: C_26  and  C_41
   20  A    between atoms: C_30  and  C_31
   21  A    between atoms: C_31  and  C_50
   22  A    between atoms: C_32  and  O_40
   23  A    between atoms: C_34  and  C_53
   24  A    between atoms: C_34  and  N_57
   25  A    between atoms: C_48  and  C_51
                            x       y       z     vdW  Elec       q    Type
                         _______ _______ _______ _____ _____    ______ ____

>  <TORSDO>
F 25

$$$$
=
 OpenBabel11062423053D

 57 60  0  0  1  0  0  0  0  0999 V2000
  192.7230  172.1540  141.2800 O   0  0  0  0  0  0  0  0  0  0  0  0
  189.7550  174.1880  141.6020 C   0  0  0  0  0  2  0  0  0  0  0  0
  191.5610  172.8240  141.6820 C   0  0  0  0  0  0  0  0  0  0  0  0
  190.9030  173.6270  140.9180 N   0  0  0  0  0  0  0  0  0  0  0  0
  190.9980  172.6670  143.0410 C   0  0  0  0  0  2  0  0  0  0  0  0
  189.7770  173.5810  143.0030 C   0  0  1  0  0  3  0  0  0  0  0  0
  189.8660  174.6190  144.0290 N   0  0  0  0  0  2  0  0  0  0  0  0
  189.4540  173.2520  145.8910 O   0  0  0  0  0  0  0  0  0  0  0  0
  189.7070  174.4020  145.4400 C   0  0  0  0  0  0  0  0  0  0  0  0
  189.8060  175.5490  146.3910 C   0  0  2  0  0  3  0  0  0  0  0  0
  188.4260  175.9260  146.9000 C   0  0  0  0  0  2  0  0  0  0  0  0
  187.6110  176.4070  145.7980 N   0  0  0  0  0  2  0  0  0  0  0  0
  186.3810  176.9240  146.3730 C   0  0  0  0  0  2  0  0  0  0  0  0
  186.2350  177.9560  144.1000 C   0  0  1  0  0  3  0  0  0  0  0  0
  184.4520  179.4150  144.5390 C   0  0  0  0  0  2  0  0  0  0  0  0
  184.6170  178.5400  145.7580 C   0  0  0  0  0  2  0  0  0  0  0  0
  185.6090  179.2060  143.6790 N   0  0  0  0  0  2  0  0  0  0  0  0
  185.4490  177.3910  145.2700 C   0  0  2  0  0  3  0  0  0  0  0  0
  186.2300  177.0450  143.0430 O   0  0  0  0  0  0  0  0  0  0  0  0
  187.0020  177.6480  142.0490 C   0  0  0  0  0  2  0  0  0  0  0  0
  187.2350  176.7340  141.0220 O   0  0  0  0  0  1  0  0  0  0  0  0
  190.4330  176.6940  145.7450 N   0  0  0  0  0  2  0  0  0  0  0  0
  191.8530  176.6660  146.0690 C   0  0  0  0  0  2  0  0  0  0  0  0
  192.7020  176.7340  144.8010 C   0  0  0  0  0  2  0  0  0  0  0  0
  194.1690  176.9910  145.1240 C   0  0  0  0  0  2  0  0  0  0  0  0
  195.1770  175.5720  144.7270 S   0  0  0  0  0  0  0  0  0  0  0  0
  196.4090  176.0100  143.9850 O   0  0  0  0  0  0  0  0  0  0  0  0
  194.2390  174.4600  143.7050 C   0  0  0  0  0  1  0  0  0  0  0  0
  195.5790  174.8590  145.9900 O   0  0  0  0  0  0  0  0  0  0  0  0
  192.7930  170.8010  140.9230 C   0  0  0  0  0  0  0  0  0  0  0  0
  191.7520  170.1280  140.6880 O   0  0  0  0  0  0  0  0  0  0  0  0
  194.1260  170.1330  140.8350 C   0  0  2  0  0  3  0  0  0  0  0  0
  194.5210  169.9300  139.3780 C   0  0  0  0  0  2  0  0  0  0  0  0
  193.9120  170.4770  135.4310 O   0  0  0  0  0  0  0  0  0  0  0  0
  194.8120  171.4820  137.3570 N   0  0  0  0  0  0  0  0  0  0  0  0
  194.9810  171.2200  138.7730 C   0  0  0  0  0  0  0  0  0  0  0  0
  192.5300  170.4830  137.3000 N   0  0  0  0  0  2  0  0  0  0  0  0
  195.5570  172.0520  139.5260 O   0  0  0  0  0  0  0  0  0  0  0  0
  193.7610  170.7960  136.6420 C   0  0  0  0  0  0  0  0  0  0  0  0
  195.6730  172.4090  136.6470 C   0  0  0  0  0  0  0  0  0  0  0  0
  195.7100  172.3990  135.3840 O   0  0  0  0  0  0  0  0  0  0  0  0
  196.4950  173.4410  137.3720 C   0  0  1  0  0  3  0  0  0  0  0  0
  197.8770  173.3930  136.9190 N   0  0  0  0  0  1  0  0  0  0  0  0
  196.8390  175.6250  136.3340 N   0  0  0  0  0  1  0  0  0  0  0  0
  195.9270  174.8360  137.1500 C   0  0  0  0  0  2  0  0  0  0  0  0
  191.5310  169.8260  136.6620 O   0  0  0  0  0  0  0  0  0  0  0  0
  189.9120  171.2210  135.6080 C   0  0  0  0  0  2  0  0  0  0  0  0
  190.7110  171.7440  137.8170 C   0  0  0  0  0  2  0  0  0  0  0  0
  189.8350  172.9120  137.3760 C   0  0  1  0  0  3  0  0  0  0  0  0
  190.3860  170.5910  136.8970 C   0  0  2  0  0  3  0  0  0  0  0  0
  190.3710  173.6860  136.1700 C   0  0  2  0  0  3  0  0  0  0  0  0
  189.3300  172.5810  135.9780 C   0  0  1  0  0  3  0  0  0  0  0  0
  191.6620  173.2830  135.8000 O   0  0  0  0  0  1  0  0  0  0  0  0
  194.0760  168.8980  141.4850 O   0  0  0  0  0  0  0  0  0  0  0  0
  194.8550  169.0670  142.6340 C   0  0  0  0  0  2  0  0  0  0  0  0
  194.4390  170.3630  144.8870 C   0  0  0  0  0  1  0  0  0  0  0  0
  193.8200  168.8410  144.1110 S   0  0  0  0  0  0  0  0  0  0  0  0
  1  3  1  0  0  0  0
  2  6  1  0  0  0  0
  3  5  1  0  0  0  0
  4  2  1  0  0  0  0
  4  3  2  0  0  0  0
  6  5  1  0  0  0  0
  6  7  1  1  0  0  0
  7  9  1  0  0  0  0
  9  8  2  0  0  0  0
  9 10  1  0  0  0  0
 10 11  1  6  0  0  0
 12 13  1  0  0  0  0
 12 11  1  0  0  0  0
 14 19  1  6  0  0  0
 14 18  1  0  0  0  0
 15 16  1  0  0  0  0
 17 14  1  0  0  0  0
 17 15  1  0  0  0  0
 18 16  1  0  0  0  0
 18 13  1  1  0  0  0
 20 19  1  0  0  0  0
 21 20  1  0  0  0  0
 22 23  1  0  0  0  0
 22 10  1  0  0  0  0
 24 25  1  0  0  0  0
 24 23  1  0  0  0  0
 26 25  1  0  0  0  0
 26 29  2  0  0  0  0
 27 26  2  0  0  0  0
 28 26  1  0  0  0  0
 30  1  1  0  0  0  0
 31 30  2  0  0  0  0
 32 33  1  6  0  0  0
 32 30  1  0  0  0  0
 32 54  1  0  0  0  0
 34 39  2  0  0  0  0
 35 36  1  0  0  0  0
 36 33  1  0  0  0  0
 36 38  2  0  0  0  0
 39 37  1  0  0  0  0
 39 35  1  0  0  0  0
 40 35  1  0  0  0  0
 40 42  1  0  0  0  0
 41 40  2  0  0  0  0
 42 43  1  6  0  0  0
 44 45  1  0  0  0  0
 45 42  1  0  0  0  0
 46 37  1  0  0  0  0
 47 50  1  0  0  0  0
 49 48  1  6  0  0  0
 50 46  1  6  0  0  0
 50 48  1  0  0  0  0
 51 53  1  6  0  0  0
 51 49  1  0  0  0  0
 52 47  1  6  0  0  0
 52 51  1  0  0  0  0
 52 49  1  0  0  0  0
 54 55  1  0  0  0  0
 55 57  1  0  0  0  0
 57 56  1  0  0  0  0
M  END
>  <MODEL>
9

>  <REMARK>
 VINA RESULT:      -4.2      2.351      4.472
  Name = 
  25 active torsions:
  status: ('A' for Active; 'I' for Inactive)
    1  A    between atoms: C_1  and  C_26
    2  A    between atoms: C_1  and  O_54
    3  A    between atoms: O_2  and  C_26
    4  A    between atoms: O_2  and  C_44
    5  A    between atoms: C_3  and  O_42
    6  A    between atoms: C_4  and  O_42
    7  A    between atoms: N_5  and  C_49
    8  A    between atoms: C_7  and  S_28
    9  A    between atoms: C_7  and  C_39
   10  A    between atoms: N_10  and  C_23
   11  A    between atoms: N_10  and  C_51
   12  A    between atoms: C_11  and  C_41
   13  A    between atoms: N_14  and  O_40
   14  A    between atoms: C_16  and  C_39
   15  A    between atoms: C_16  and  N_57
   16  A    between atoms: S_17  and  C_44
   17  A    between atoms: C_23  and  C_34
   18  A    between atoms: C_24  and  O_54
   19  A    between atoms: C_26  and  C_41
   20  A    between atoms: C_30  and  C_31
   21  A    between atoms: C_31  and  C_50
   22  A    between atoms: C_32  and  O_40
   23  A    between atoms: C_34  and  C_53
   24  A    between atoms: C_34  and  N_57
   25  A    between atoms: C_48  and  C_51
                            x       y       z     vdW  Elec       q    Type
                         _______ _______ _______ _____ _____    ______ ____

>  <TORSDO>
F 25

$$$$
