=
 OpenBabel11062419283D

 38 41  0  0  1  0  0  0  0  0999 V2000
  189.5730  174.3360  141.3180 C   0  0  0  0  0  0  0  0  0  0  0  0
  188.5120  172.8590  139.6820 O   0  0  0  0  0  1  0  0  0  0  0  0
  190.7430  174.7190  141.9920 C   0  0  0  0  0  3  0  0  0  0  0  0
  192.0220  173.0640  140.7820 C   0  0  0  0  0  3  0  0  0  0  0  0
  190.8660  172.6680  140.1050 C   0  0  0  0  0  3  0  0  0  0  0  0
  189.6430  173.2910  140.3690 C   0  0  0  0  0  0  0  0  0  0  0  0
  191.9610  174.0880  141.7350 C   0  0  0  0  0  0  0  0  0  0  0  0
  196.7750  176.1670  142.3510 C   0  0  0  0  0  1  0  0  0  0  0  0
  193.1830  174.5580  142.4550 C   0  0  2  0  0  3  0  0  0  0  0  0
  192.8230  175.1310  143.7910 C   0  0  0  0  0  3  0  0  0  0  0  0
  195.0320  176.0720  144.0110 N   0  0  0  0  0  0  0  0  0  0  0  0
  194.1060  175.7830  141.4730 S   0  0  0  0  0  0  0  0  0  0  0  0
  193.7100  175.8210  144.5160 C   0  0  0  0  0  0  0  0  0  0  0  0
  195.3550  176.0010  142.7510 C   0  0  0  0  0  0  0  0  0  0  0  0
  190.8050  175.1900  146.4640 C   0  0  0  0  0  2  0  0  0  0  0  0
  192.1290  175.8780  146.4820 N   0  0  0  0  0  0  0  0  0  0  0  0
  193.3570  176.2800  145.8710 C   0  0  0  0  0  0  0  0  0  0  0  0
  190.4880  177.1150  147.7160 N   0  0  0  0  0  1  0  0  0  0  0  0
  191.1710  175.8380  147.6250 C   0  0  1  0  0  3  0  0  0  0  0  0
  194.1500  177.0240  146.5090 O   0  0  0  0  0  0  0  0  0  0  0  0
  188.3070  175.0190  141.6610 C   0  0  0  0  0  0  0  0  0  0  0  0
  187.9820  176.2620  141.0320 N   0  0  0  0  0  2  0  0  0  0  0  0
  187.5260  174.5360  142.5250 O   0  0  0  0  0  0  0  0  0  0  0  0
  186.9440  177.1500  141.5380 C   0  0  2  0  0  3  0  0  0  0  0  0
  186.0500  177.6570  140.4090 C   0  0  0  0  0  2  0  0  0  0  0  0
  185.0690  178.6110  140.9000 N   0  0  0  0  0  2  0  0  0  0  0  0
  183.3190  178.5100  142.4260 O   0  0  0  0  0  1  0  0  0  0  0  0
  183.9390  177.8340  141.3790 C   0  0  0  0  0  2  0  0  0  0  0  0
  187.5350  178.2770  142.3970 C   0  0  0  0  0  2  0  0  0  0  0  0
  188.7630  177.5540  144.2980 O   0  0  0  0  0  0  0  0  0  0  0  0
  187.6450  177.9270  143.8540 C   0  0  0  0  0  0  0  0  0  0  0  0
  184.5140  179.0870  145.6830 C   0  0  0  0  0  3  0  0  0  0  0  0
  185.1330  176.8850  146.4750 C   0  0  0  0  0  3  0  0  0  0  0  0
  186.2290  176.8820  145.6080 C   0  0  0  0  0  3  0  0  0  0  0  0
  184.2720  177.9840  146.5090 C   0  0  0  0  0  3  0  0  0  0  0  0
  186.4780  177.9770  144.7630 C   0  0  0  0  0  0  0  0  0  0  0  0
  185.6130  179.0910  144.8150 C   0  0  0  0  0  0  0  0  0  0  0  0
  185.8310  180.1870  144.0480 F   0  0  0  0  0  0  0  0  0  0  0  0
  1 21  1  0  0  0  0
  1  3  1  0  0  0  0
  2  6  1  0  0  0  0
  4  7  1  0  0  0  0
  5  6  1  0  0  0  0
  5  4  2  0  0  0  0
  6  1  2  0  0  0  0
  7  3  2  0  0  0  0
  8 14  1  0  0  0  0
  9  7  1  6  0  0  0
  9 10  1  0  0  0  0
 10 13  2  0  0  0  0
 11 13  1  0  0  0  0
 12  9  1  0  0  0  0
 12 14  1  0  0  0  0
 13 17  1  0  0  0  0
 14 11  2  0  0  0  0
 15 16  1  0  0  0  0
 15 19  1  0  0  0  0
 16 19  1  0  0  0  0
 17 16  1  0  0  0  0
 17 20  2  0  0  0  0
 19 18  1  6  0  0  0
 21 23  2  0  0  0  0
 22 24  1  0  0  0  0
 22 21  1  0  0  0  0
 24 25  1  6  0  0  0
 24 29  1  0  0  0  0
 25 26  1  0  0  0  0
 26 28  1  0  0  0  0
 28 27  1  0  0  0  0
 29 31  1  0  0  0  0
 31 30  2  0  0  0  0
 31 36  1  0  0  0  0
 32 35  1  0  0  0  0
 33 35  2  0  0  0  0
 34 33  1  0  0  0  0
 36 37  1  0  0  0  0
 36 34  2  0  0  0  0
 37 32  2  0  0  0  0
 38 37  1  0  0  0  0
M  END
>  <MODEL>
1

>  <REMARK>
 VINA RESULT:      -7.9      0.000      0.000
  Name = 
  10 active torsions:
  status: ('A' for Active; 'I' for Inactive)
    1  A    between atoms: C_3  and  C_34
    2  A    between atoms: N_8  and  C_12
    3  A    between atoms: N_8  and  C_17
    4  A    between atoms: C_9  and  C_11
    5  A    between atoms: C_10  and  C_17
    6  A    between atoms: C_10  and  N_22
    7  A    between atoms: C_10  and  C_23
    8  A    between atoms: C_16  and  C_23
    9  A    between atoms: C_16  and  C_30
   10  A    between atoms: C_21  and  C_37
                            x       y       z     vdW  Elec       q    Type
                         _______ _______ _______ _____ _____    ______ ____

>  <TORSDO>
F 10

$$$$
=
 OpenBabel11062419283D

 38 41  0  0  1  0  0  0  0  0999 V2000
  190.4470  177.0390  145.5040 C   0  0  0  0  0  0  0  0  0  0  0  0
  188.8050  177.7830  147.1570 O   0  0  0  0  0  1  0  0  0  0  0  0
  191.6820  176.4210  145.2480 C   0  0  0  0  0  3  0  0  0  0  0  0
  192.0260  176.0540  147.6120 C   0  0  0  0  0  3  0  0  0  0  0  0
  190.8010  176.6680  147.8840 C   0  0  0  0  0  3  0  0  0  0  0  0
  190.0120  177.1670  146.8430 C   0  0  0  0  0  0  0  0  0  0  0  0
  192.4730  175.9350  146.2900 C   0  0  0  0  0  0  0  0  0  0  0  0
  195.8920  171.9530  145.7170 C   0  0  0  0  0  1  0  0  0  0  0  0
  193.7610  175.2560  145.9610 C   0  0  2  0  0  3  0  0  0  0  0  0
  194.4360  175.9300  144.8060 C   0  0  0  0  0  3  0  0  0  0  0  0
  195.9600  174.0750  144.5800 N   0  0  0  0  0  0  0  0  0  0  0  0
  193.5100  173.4880  145.5980 S   0  0  0  0  0  0  0  0  0  0  0  0
  195.4790  175.3700  144.1830 C   0  0  0  0  0  0  0  0  0  0  0  0
  195.2570  173.2150  145.2610 C   0  0  0  0  0  0  0  0  0  0  0  0
  195.7930  174.6520  140.7160 C   0  0  0  0  0  2  0  0  0  0  0  0
  196.1590  175.6450  141.7680 N   0  0  0  0  0  0  0  0  0  0  0  0
  196.1850  176.1070  143.1210 C   0  0  0  0  0  0  0  0  0  0  0  0
  197.8920  175.4390  140.1250 N   0  0  0  0  0  1  0  0  0  0  0  0
  196.4930  175.7720  140.3200 C   0  0  1  0  0  3  0  0  0  0  0  0
  196.8100  177.1660  143.4000 O   0  0  0  0  0  0  0  0  0  0  0  0
  189.6730  177.5660  144.3600 C   0  0  0  0  0  0  0  0  0  0  0  0
  188.2850  177.2430  144.2390 N   0  0  0  0  0  2  0  0  0  0  0  0
  190.2280  178.2680  143.4720 O   0  0  0  0  0  0  0  0  0  0  0  0
  187.5390  177.4360  143.0020 C   0  0  2  0  0  3  0  0  0  0  0  0
  186.4920  178.5380  143.1520 C   0  0  0  0  0  2  0  0  0  0  0  0
  186.1930  178.7950  144.5520 N   0  0  0  0  0  2  0  0  0  0  0  0
  184.1020  178.5180  143.5750 O   0  0  0  0  0  1  0  0  0  0  0  0
  184.8160  178.3840  144.7630 C   0  0  0  0  0  2  0  0  0  0  0  0
  186.9580  176.1140  142.4820 C   0  0  0  0  0  2  0  0  0  0  0  0
  187.8160  175.6660  140.3120 O   0  0  0  0  0  0  0  0  0  0  0  0
  187.8720  175.3860  141.5380 C   0  0  0  0  0  0  0  0  0  0  0  0
  189.3160  172.0390  142.6390 C   0  0  0  0  0  3  0  0  0  0  0  0
  191.0590  173.7180  142.6930 C   0  0  0  0  0  3  0  0  0  0  0  0
  190.1430  174.6810  142.2610 C   0  0  0  0  0  3  0  0  0  0  0  0
  190.6470  172.3960  142.8780 C   0  0  0  0  0  3  0  0  0  0  0  0
  188.8050  174.3360  142.0050 C   0  0  0  0  0  0  0  0  0  0  0  0
  188.3940  173.0010  142.2080 C   0  0  0  0  0  0  0  0  0  0  0  0
  187.1070  172.6230  142.0120 F   0  0  0  0  0  0  0  0  0  0  0  0
  1  6  1  0  0  0  0
  3  1  2  0  0  0  0
  3  7  1  0  0  0  0
  4  5  1  0  0  0  0
  6  2  1  0  0  0  0
  6  5  2  0  0  0  0
  7  4  2  0  0  0  0
  9  7  1  6  0  0  0
 10  9  1  0  0  0  0
 11 14  2  0  0  0  0
 12  9  1  0  0  0  0
 13 11  1  0  0  0  0
 13 10  2  0  0  0  0
 14 12  1  0  0  0  0
 14  8  1  0  0  0  0
 15 16  1  0  0  0  0
 16 17  1  0  0  0  0
 17 20  2  0  0  0  0
 17 13  1  0  0  0  0
 19 18  1  1  0  0  0
 19 15  1  0  0  0  0
 19 16  1  0  0  0  0
 21  1  1  0  0  0  0
 22 21  1  0  0  0  0
 23 21  2  0  0  0  0
 24 29  1  1  0  0  0
 24 25  1  0  0  0  0
 24 22  1  0  0  0  0
 25 26  1  0  0  0  0
 26 28  1  0  0  0  0
 27 28  1  0  0  0  0
 30 31  2  0  0  0  0
 31 36  1  0  0  0  0
 31 29  1  0  0  0  0
 32 35  1  0  0  0  0
 33 35  2  0  0  0  0
 34 33  1  0  0  0  0
 36 37  1  0  0  0  0
 36 34  2  0  0  0  0
 37 32  2  0  0  0  0
 38 37  1  0  0  0  0
M  END
>  <MODEL>
2

>  <REMARK>
 VINA RESULT:      -7.5      2.686      5.798
  Name = 
  10 active torsions:
  status: ('A' for Active; 'I' for Inactive)
    1  A    between atoms: C_3  and  C_34
    2  A    between atoms: N_8  and  C_12
    3  A    between atoms: N_8  and  C_17
    4  A    between atoms: C_9  and  C_11
    5  A    between atoms: C_10  and  C_17
    6  A    between atoms: C_10  and  N_22
    7  A    between atoms: C_10  and  C_23
    8  A    between atoms: C_16  and  C_23
    9  A    between atoms: C_16  and  C_30
   10  A    between atoms: C_21  and  C_37
                            x       y       z     vdW  Elec       q    Type
                         _______ _______ _______ _____ _____    ______ ____

>  <TORSDO>
F 10

$$$$
=
 OpenBabel11062419283D

 38 41  0  0  1  0  0  0  0  0999 V2000
  190.3910  176.7610  145.0830 C   0  0  0  0  0  0  0  0  0  0  0  0
  188.7780  177.0810  146.8940 O   0  0  0  0  0  1  0  0  0  0  0  0
  191.7160  176.4960  144.7040 C   0  0  0  0  0  3  0  0  0  0  0  0
  192.3780  176.3100  147.0210 C   0  0  0  0  0  3  0  0  0  0  0  0
  191.0640  176.5760  147.4160 C   0  0  0  0  0  3  0  0  0  0  0  0
  190.0710  176.8080  146.4600 C   0  0  0  0  0  0  0  0  0  0  0  0
  192.7080  176.2760  145.6610 C   0  0  0  0  0  0  0  0  0  0  0  0
  197.3520  173.7710  145.4950 C   0  0  0  0  0  1  0  0  0  0  0  0
  194.0950  175.9640  145.2030 C   0  0  2  0  0  3  0  0  0  0  0  0
  194.2350  176.2080  143.7320 C   0  0  0  0  0  3  0  0  0  0  0  0
  196.3440  175.0380  143.7120 N   0  0  0  0  0  0  0  0  0  0  0  0
  194.5590  174.2480  145.6030 S   0  0  0  0  0  0  0  0  0  0  0  0
  195.3060  175.7830  143.0530 C   0  0  0  0  0  0  0  0  0  0  0  0
  196.1830  174.4140  144.8440 C   0  0  0  0  0  0  0  0  0  0  0  0
  193.8280  174.3350  140.1630 C   0  0  0  0  0  2  0  0  0  0  0  0
  194.7420  175.4230  140.6190 N   0  0  0  0  0  0  0  0  0  0  0  0
  195.4630  176.1320  141.6300 C   0  0  0  0  0  0  0  0  0  0  0  0
  195.4290  174.5420  138.4990 N   0  0  0  0  0  1  0  0  0  0  0  0
  194.3360  175.1860  139.2040 C   0  0  1  0  0  3  0  0  0  0  0  0
  196.2300  177.0750  141.2940 O   0  0  0  0  0  0  0  0  0  0  0  0
  189.3930  177.0200  144.0230 C   0  0  0  0  0  0  0  0  0  0  0  0
  188.3190  176.0980  143.8240 N   0  0  0  0  0  2  0  0  0  0  0  0
  189.4970  178.0270  143.2710 O   0  0  0  0  0  0  0  0  0  0  0  0
  187.4980  176.0950  142.6200 C   0  0  2  0  0  3  0  0  0  0  0  0
  188.2880  175.5970  141.4120 C   0  0  0  0  0  2  0  0  0  0  0  0
  188.5520  174.1700  141.5060 N   0  0  0  0  0  2  0  0  0  0  0  0
  188.1950  174.6180  139.2540 O   0  0  0  0  0  1  0  0  0  0  0  0
  188.7260  173.6910  140.1460 C   0  0  0  0  0  2  0  0  0  0  0  0
  186.8320  177.4590  142.3890 C   0  0  0  0  0  2  0  0  0  0  0  0
  184.4620  177.5940  142.4880 O   0  0  0  0  0  0  0  0  0  0  0  0
  185.5410  177.6310  143.1370 C   0  0  0  0  0  0  0  0  0  0  0  0
  185.5670  179.3520  146.5330 C   0  0  0  0  0  3  0  0  0  0  0  0
  185.3210  176.9640  146.8490 C   0  0  0  0  0  3  0  0  0  0  0  0
  185.3680  176.7780  145.4640 C   0  0  0  0  0  3  0  0  0  0  0  0
  185.4170  178.2510  147.3830 C   0  0  0  0  0  3  0  0  0  0  0  0
  185.5070  177.8750  144.5970 C   0  0  0  0  0  0  0  0  0  0  0  0
  185.6170  179.1700  145.1460 C   0  0  0  0  0  0  0  0  0  0  0  0
  185.7910  180.2570  144.3550 F   0  0  0  0  0  0  0  0  0  0  0  0
  1  6  1  0  0  0  0
  3  1  2  0  0  0  0
  3  7  1  0  0  0  0
  4  5  1  0  0  0  0
  6  2  1  0  0  0  0
  6  5  2  0  0  0  0
  7  4  2  0  0  0  0
  9 12  1  0  0  0  0
  9  7  1  6  0  0  0
 10  9  1  0  0  0  0
 11 14  2  0  0  0  0
 13 11  1  0  0  0  0
 13 10  2  0  0  0  0
 14  8  1  0  0  0  0
 14 12  1  0  0  0  0
 15 16  1  0  0  0  0
 16 17  1  0  0  0  0
 17 13  1  0  0  0  0
 19 18  1  6  0  0  0
 19 15  1  0  0  0  0
 19 16  1  0  0  0  0
 20 17  2  0  0  0  0
 21  1  1  0  0  0  0
 22 21  1  0  0  0  0
 23 21  2  0  0  0  0
 24 25  1  6  0  0  0
 24 22  1  0  0  0  0
 25 26  1  0  0  0  0
 27 28  1  0  0  0  0
 28 26  1  0  0  0  0
 29 24  1  0  0  0  0
 29 31  1  0  0  0  0
 30 31  2  0  0  0  0
 31 36  1  0  0  0  0
 32 35  1  0  0  0  0
 33 35  2  0  0  0  0
 34 33  1  0  0  0  0
 36 37  1  0  0  0  0
 36 34  2  0  0  0  0
 37 32  2  0  0  0  0
 38 37  1  0  0  0  0
M  END
>  <MODEL>
3

>  <REMARK>
 VINA RESULT:      -7.5      2.337      4.874
  Name = 
  10 active torsions:
  status: ('A' for Active; 'I' for Inactive)
    1  A    between atoms: C_3  and  C_34
    2  A    between atoms: N_8  and  C_12
    3  A    between atoms: N_8  and  C_17
    4  A    between atoms: C_9  and  C_11
    5  A    between atoms: C_10  and  C_17
    6  A    between atoms: C_10  and  N_22
    7  A    between atoms: C_10  and  C_23
    8  A    between atoms: C_16  and  C_23
    9  A    between atoms: C_16  and  C_30
   10  A    between atoms: C_21  and  C_37
                            x       y       z     vdW  Elec       q    Type
                         _______ _______ _______ _____ _____    ______ ____

>  <TORSDO>
F 10

$$$$
=
 OpenBabel11062419283D

 38 41  0  0  1  0  0  0  0  0999 V2000
  189.4460  173.2320  141.8430 C   0  0  0  0  0  0  0  0  0  0  0  0
  188.6180  172.8550  139.5730 O   0  0  0  0  0  1  0  0  0  0  0  0
  190.3100  172.8340  142.8750 C   0  0  0  0  0  3  0  0  0  0  0  0
  191.1940  171.0560  141.4970 C   0  0  0  0  0  3  0  0  0  0  0  0
  190.3390  171.4380  140.4600 C   0  0  0  0  0  3  0  0  0  0  0  0
  189.4620  172.5150  140.6250 C   0  0  0  0  0  0  0  0  0  0  0  0
  191.1760  171.7520  142.7120 C   0  0  0  0  0  0  0  0  0  0  0  0
  194.2590  168.6880  145.7100 C   0  0  0  0  0  1  0  0  0  0  0  0
  192.0990  171.3910  143.8300 C   0  0  2  0  0  3  0  0  0  0  0  0
  193.0110  172.5340  144.1540 C   0  0  0  0  0  3  0  0  0  0  0  0
  194.3930  171.0830  145.4970 N   0  0  0  0  0  0  0  0  0  0  0  0
  193.0710  169.9010  143.4380 S   0  0  0  0  0  0  0  0  0  0  0  0
  194.0710  172.3750  144.9540 C   0  0  0  0  0  0  0  0  0  0  0  0
  193.9600  169.9590  145.0020 C   0  0  0  0  0  0  0  0  0  0  0  0
  193.0860  175.5260  146.2720 C   0  0  0  0  0  2  0  0  0  0  0  0
  194.2750  174.7150  145.8790 N   0  0  0  0  0  0  0  0  0  0  0  0
  194.8860  173.5410  145.3370 C   0  0  0  0  0  0  0  0  0  0  0  0
  194.6190  177.0420  145.4200 N   0  0  0  0  0  1  0  0  0  0  0  0
  194.3310  176.0830  146.4700 C   0  0  1  0  0  3  0  0  0  0  0  0
  196.1390  173.5040  145.2010 O   0  0  0  0  0  0  0  0  0  0  0  0
  188.5280  174.3640  142.0900 C   0  0  0  0  0  0  0  0  0  0  0  0
  189.0460  175.6960  142.1390 N   0  0  0  0  0  2  0  0  0  0  0  0
  187.2990  174.1660  142.2920 O   0  0  0  0  0  0  0  0  0  0  0  0
  188.2910  176.8130  142.6920 C   0  0  2  0  0  3  0  0  0  0  0  0
  188.1260  177.9320  141.6670 C   0  0  0  0  0  2  0  0  0  0  0  0
  186.7850  178.4930  141.7090 N   0  0  0  0  0  2  0  0  0  0  0  0
  184.6080  177.8090  142.1500 O   0  0  0  0  0  1  0  0  0  0  0  0
  185.8660  177.3690  141.7470 C   0  0  0  0  0  2  0  0  0  0  0  0
  188.8870  177.2920  144.0240 C   0  0  0  0  0  2  0  0  0  0  0  0
  188.7540  175.5200  145.6010 O   0  0  0  0  0  0  0  0  0  0  0  0
  188.2820  176.6260  145.2260 C   0  0  0  0  0  0  0  0  0  0  0  0
  186.1880  178.5100  147.7880 C   0  0  0  0  0  3  0  0  0  0  0  0
  184.7290  177.5600  146.1060 C   0  0  0  0  0  3  0  0  0  0  0  0
  185.8380  177.0130  145.4540 C   0  0  0  0  0  3  0  0  0  0  0  0
  184.9040  178.3120  147.2700 C   0  0  0  0  0  3  0  0  0  0  0  0
  187.1360  177.2140  145.9550 C   0  0  0  0  0  0  0  0  0  0  0  0
  187.3020  177.9630  147.1400 C   0  0  0  0  0  0  0  0  0  0  0  0
  188.5280  178.1530  147.6860 F   0  0  0  0  0  0  0  0  0  0  0  0
  1 21  1  0  0  0  0
  1  3  1  0  0  0  0
  2  6  1  0  0  0  0
  4  7  1  0  0  0  0
  5  6  1  0  0  0  0
  5  4  2  0  0  0  0
  6  1  2  0  0  0  0
  7  3  2  0  0  0  0
  9  7  1  6  0  0  0
  9 10  1  0  0  0  0
 10 13  2  0  0  0  0
 12  9  1  0  0  0  0
 12 14  1  0  0  0  0
 13 17  1  0  0  0  0
 13 11  1  0  0  0  0
 14 11  2  0  0  0  0
 14  8  1  0  0  0  0
 15 19  1  0  0  0  0
 16 15  1  0  0  0  0
 16 19  1  0  0  0  0
 17 16  1  0  0  0  0
 19 18  1  6  0  0  0
 20 17  2  0  0  0  0
 21 22  1  0  0  0  0
 21 23  2  0  0  0  0
 22 24  1  0  0  0  0
 24 25  1  6  0  0  0
 24 29  1  0  0  0  0
 25 26  1  0  0  0  0
 26 28  1  0  0  0  0
 28 27  1  0  0  0  0
 29 31  1  0  0  0  0
 31 30  2  0  0  0  0
 31 36  1  0  0  0  0
 33 35  2  0  0  0  0
 34 36  2  0  0  0  0
 34 33  1  0  0  0  0
 35 32  1  0  0  0  0
 36 37  1  0  0  0  0
 37 38  1  0  0  0  0
 37 32  2  0  0  0  0
M  END
>  <MODEL>
4

>  <REMARK>
 VINA RESULT:      -7.3      2.765      3.224
  Name = 
  10 active torsions:
  status: ('A' for Active; 'I' for Inactive)
    1  A    between atoms: C_3  and  C_34
    2  A    between atoms: N_8  and  C_12
    3  A    between atoms: N_8  and  C_17
    4  A    between atoms: C_9  and  C_11
    5  A    between atoms: C_10  and  C_17
    6  A    between atoms: C_10  and  N_22
    7  A    between atoms: C_10  and  C_23
    8  A    between atoms: C_16  and  C_23
    9  A    between atoms: C_16  and  C_30
   10  A    between atoms: C_21  and  C_37
                            x       y       z     vdW  Elec       q    Type
                         _______ _______ _______ _____ _____    ______ ____

>  <TORSDO>
F 10

$$$$
=
 OpenBabel11062419283D

 38 41  0  0  1  0  0  0  0  0999 V2000
  189.8610  175.9060  142.6910 C   0  0  0  0  0  0  0  0  0  0  0  0
  190.8880  173.9420  141.6560 O   0  0  0  0  0  1  0  0  0  0  0  0
  188.6860  176.5580  143.1000 C   0  0  0  0  0  3  0  0  0  0  0  0
  187.3480  174.6910  142.3500 C   0  0  0  0  0  3  0  0  0  0  0  0
  188.5070  174.0300  141.9350 C   0  0  0  0  0  3  0  0  0  0  0  0
  189.7600  174.6290  142.0940 C   0  0  0  0  0  0  0  0  0  0  0  0
  187.4360  175.9630  142.9290 C   0  0  0  0  0  0  0  0  0  0  0  0
  184.5030  179.0430  146.0570 C   0  0  0  0  0  1  0  0  0  0  0  0
  186.2210  176.6840  143.4130 C   0  0  2  0  0  3  0  0  0  0  0  0
  185.3910  177.1560  142.2600 C   0  0  0  0  0  3  0  0  0  0  0  0
  184.0950  178.5590  143.7340 N   0  0  0  0  0  0  0  0  0  0  0  0
  186.6630  178.0880  144.4870 S   0  0  0  0  0  0  0  0  0  0  0  0
  184.3840  178.0210  142.4320 C   0  0  0  0  0  0  0  0  0  0  0  0
  184.9440  178.5680  144.7220 C   0  0  0  0  0  0  0  0  0  0  0  0
  180.9130  178.7780  142.3420 C   0  0  0  0  0  2  0  0  0  0  0  0
  182.1350  178.6760  141.4930 N   0  0  0  0  0  0  0  0  0  0  0  0
  183.5200  178.3820  141.2950 C   0  0  0  0  0  0  0  0  0  0  0  0
  180.1790  177.9980  140.2850 N   0  0  0  0  0  1  0  0  0  0  0  0
  180.7900  179.0990  141.0070 C   0  0  1  0  0  3  0  0  0  0  0  0
  184.0060  178.4490  140.1330 O   0  0  0  0  0  0  0  0  0  0  0  0
  191.1520  176.6050  142.8670 C   0  0  0  0  0  0  0  0  0  0  0  0
  192.3250  175.8510  143.1870 N   0  0  0  0  0  2  0  0  0  0  0  0
  191.2260  177.8600  142.7720 O   0  0  0  0  0  0  0  0  0  0  0  0
  193.5420  176.4700  143.6930 C   0  0  2  0  0  3  0  0  0  0  0  0
  194.7010  175.4760  143.7180 C   0  0  0  0  0  2  0  0  0  0  0  0
  195.9520  176.1140  143.3390 N   0  0  0  0  0  2  0  0  0  0  0  0
  195.8320  175.3560  141.1450 O   0  0  0  0  0  1  0  0  0  0  0  0
  195.8170  176.4960  141.9450 C   0  0  0  0  0  2  0  0  0  0  0  0
  193.3050  177.1590  145.0450 C   0  0  0  0  0  2  0  0  0  0  0  0
  193.6390  175.6780  146.8720 O   0  0  0  0  0  0  0  0  0  0  0  0
  192.8010  176.2300  146.1120 C   0  0  0  0  0  0  0  0  0  0  0  0
  189.4590  174.4070  146.1550 C   0  0  0  0  0  3  0  0  0  0  0  0
  189.1330  176.6900  146.8900 C   0  0  0  0  0  3  0  0  0  0  0  0
  190.4980  176.9390  146.7180 C   0  0  0  0  0  3  0  0  0  0  0  0
  188.6140  175.4240  146.6130 C   0  0  0  0  0  3  0  0  0  0  0  0
  191.3610  175.9250  146.2700 C   0  0  0  0  0  0  0  0  0  0  0  0
  190.8260  174.6520  145.9780 C   0  0  0  0  0  0  0  0  0  0  0  0
  191.6090  173.6500  145.5080 F   0  0  0  0  0  0  0  0  0  0  0  0
  1 21  1  0  0  0  0
  1  3  1  0  0  0  0
  2  6  1  0  0  0  0
  4  7  1  0  0  0  0
  5  6  1  0  0  0  0
  5  4  2  0  0  0  0
  6  1  2  0  0  0  0
  7  3  2  0  0  0  0
  9  7  1  6  0  0  0
  9 12  1  0  0  0  0
 10 13  2  0  0  0  0
 10  9  1  0  0  0  0
 11 14  2  0  0  0  0
 12 14  1  0  0  0  0
 13 11  1  0  0  0  0
 14  8  1  0  0  0  0
 16 15  1  0  0  0  0
 17 16  1  0  0  0  0
 17 13  1  0  0  0  0
 19 18  1  6  0  0  0
 19 16  1  0  0  0  0
 19 15  1  0  0  0  0
 20 17  2  0  0  0  0
 21 22  1  0  0  0  0
 22 24  1  0  0  0  0
 23 21  2  0  0  0  0
 24 25  1  1  0  0  0
 24 29  1  0  0  0  0
 26 25  1  0  0  0  0
 27 28  1  0  0  0  0
 28 26  1  0  0  0  0
 29 31  1  0  0  0  0
 31 36  1  0  0  0  0
 31 30  2  0  0  0  0
 32 35  1  0  0  0  0
 34 33  1  0  0  0  0
 35 33  2  0  0  0  0
 36 34  2  0  0  0  0
 37 32  2  0  0  0  0
 37 36  1  0  0  0  0
 38 37  1  0  0  0  0
M  END
>  <MODEL>
5

>  <REMARK>
 VINA RESULT:      -7.3      2.960      8.366
  Name = 
  10 active torsions:
  status: ('A' for Active; 'I' for Inactive)
    1  A    between atoms: C_3  and  C_34
    2  A    between atoms: N_8  and  C_12
    3  A    between atoms: N_8  and  C_17
    4  A    between atoms: C_9  and  C_11
    5  A    between atoms: C_10  and  C_17
    6  A    between atoms: C_10  and  N_22
    7  A    between atoms: C_10  and  C_23
    8  A    between atoms: C_16  and  C_23
    9  A    between atoms: C_16  and  C_30
   10  A    between atoms: C_21  and  C_37
                            x       y       z     vdW  Elec       q    Type
                         _______ _______ _______ _____ _____    ______ ____

>  <TORSDO>
F 10

$$$$
=
 OpenBabel11062419283D

 38 41  0  0  1  0  0  0  0  0999 V2000
  189.5000  174.2260  141.2520 C   0  0  0  0  0  0  0  0  0  0  0  0
  188.6310  172.8550  139.4220 O   0  0  0  0  0  1  0  0  0  0  0  0
  190.5920  174.5720  142.0640 C   0  0  0  0  0  3  0  0  0  0  0  0
  192.0110  173.0140  140.8800 C   0  0  0  0  0  3  0  0  0  0  0  0
  190.9340  172.6560  140.0650 C   0  0  0  0  0  3  0  0  0  0  0  0
  189.6810  173.2490  140.2470 C   0  0  0  0  0  0  0  0  0  0  0  0
  191.8390  173.9710  141.8890 C   0  0  0  0  0  0  0  0  0  0  0  0
  194.3410  176.6230  145.7070 C   0  0  0  0  0  1  0  0  0  0  0  0
  192.9750  174.4010  142.7570 C   0  0  2  0  0  3  0  0  0  0  0  0
  193.9070  173.2570  143.0150 C   0  0  0  0  0  3  0  0  0  0  0  0
  195.0020  174.5090  144.7620 N   0  0  0  0  0  0  0  0  0  0  0  0
  192.3840  175.0980  144.3330 S   0  0  0  0  0  0  0  0  0  0  0  0
  194.8650  173.3330  143.9460 C   0  0  0  0  0  0  0  0  0  0  0  0
  194.0550  175.3860  144.9370 C   0  0  0  0  0  0  0  0  0  0  0  0
  194.6230  170.3200  145.8160 C   0  0  0  0  0  2  0  0  0  0  0  0
  195.5120  171.0850  144.8930 N   0  0  0  0  0  0  0  0  0  0  0  0
  195.8310  172.2320  144.1010 C   0  0  0  0  0  0  0  0  0  0  0  0
  196.7860  169.8740  146.5220 N   0  0  0  0  0  1  0  0  0  0  0  0
  195.8170  169.7360  145.4510 C   0  0  1  0  0  3  0  0  0  0  0  0
  196.9480  172.2890  143.5200 O   0  0  0  0  0  0  0  0  0  0  0  0
  188.1960  174.8730  141.5110 C   0  0  0  0  0  0  0  0  0  0  0  0
  187.9580  176.1980  141.0310 N   0  0  0  0  0  2  0  0  0  0  0  0
  187.3040  174.2830  142.1780 O   0  0  0  0  0  0  0  0  0  0  0  0
  186.8550  177.0210  141.5110 C   0  0  2  0  0  3  0  0  0  0  0  0
  185.8920  177.3720  140.3790 C   0  0  0  0  0  2  0  0  0  0  0  0
  185.2420  178.6510  140.6160 N   0  0  0  0  0  2  0  0  0  0  0  0
  183.6620  177.9410  142.1660 O   0  0  0  0  0  1  0  0  0  0  0  0
  183.8380  178.3650  140.8510 C   0  0  0  0  0  2  0  0  0  0  0  0
  187.3620  178.2500  142.2790 C   0  0  0  0  0  2  0  0  0  0  0  0
  188.7400  177.7430  144.1470 O   0  0  0  0  0  0  0  0  0  0  0  0
  187.5740  177.9960  143.7450 C   0  0  0  0  0  0  0  0  0  0  0  0
  184.4990  179.0420  145.7320 C   0  0  0  0  0  3  0  0  0  0  0  0
  185.2370  176.8640  146.4880 C   0  0  0  0  0  3  0  0  0  0  0  0
  186.2870  176.9010  145.5670 C   0  0  0  0  0  3  0  0  0  0  0  0
  184.3400  177.9320  146.5680 C   0  0  0  0  0  3  0  0  0  0  0  0
  186.4530  178.0040  144.7120 C   0  0  0  0  0  0  0  0  0  0  0  0
  185.5520  179.0860  144.8100 C   0  0  0  0  0  0  0  0  0  0  0  0
  185.6900  180.1890  144.0350 F   0  0  0  0  0  0  0  0  0  0  0  0
  1 21  1  0  0  0  0
  1  3  1  0  0  0  0
  2  6  1  0  0  0  0
  4  7  1  0  0  0  0
  5  6  1  0  0  0  0
  5  4  2  0  0  0  0
  6  1  2  0  0  0  0
  7  3  2  0  0  0  0
  9  7  1  6  0  0  0
  9 10  1  0  0  0  0
  9 12  1  0  0  0  0
 10 13  2  0  0  0  0
 11 14  2  0  0  0  0
 12 14  1  0  0  0  0
 13 17  1  0  0  0  0
 13 11  1  0  0  0  0
 14  8  1  0  0  0  0
 16 19  1  0  0  0  0
 16 15  1  0  0  0  0
 17 16  1  0  0  0  0
 19 15  1  0  0  0  0
 19 18  1  1  0  0  0
 20 17  2  0  0  0  0
 21 23  2  0  0  0  0
 22 24  1  0  0  0  0
 22 21  1  0  0  0  0
 24 25  1  6  0  0  0
 24 29  1  0  0  0  0
 25 26  1  0  0  0  0
 26 28  1  0  0  0  0
 28 27  1  0  0  0  0
 29 31  1  0  0  0  0
 31 30  2  0  0  0  0
 31 36  1  0  0  0  0
 32 35  1  0  0  0  0
 33 35  2  0  0  0  0
 34 33  1  0  0  0  0
 36 37  1  0  0  0  0
 36 34  2  0  0  0  0
 37 32  2  0  0  0  0
 38 37  1  0  0  0  0
M  END
>  <MODEL>
6

>  <REMARK>
 VINA RESULT:      -7.3      2.434      3.043
  Name = 
  10 active torsions:
  status: ('A' for Active; 'I' for Inactive)
    1  A    between atoms: C_3  and  C_34
    2  A    between atoms: N_8  and  C_12
    3  A    between atoms: N_8  and  C_17
    4  A    between atoms: C_9  and  C_11
    5  A    between atoms: C_10  and  C_17
    6  A    between atoms: C_10  and  N_22
    7  A    between atoms: C_10  and  C_23
    8  A    between atoms: C_16  and  C_23
    9  A    between atoms: C_16  and  C_30
   10  A    between atoms: C_21  and  C_37
                            x       y       z     vdW  Elec       q    Type
                         _______ _______ _______ _____ _____    ______ ____

>  <TORSDO>
F 10

$$$$
=
 OpenBabel11062419283D

 38 41  0  0  1  0  0  0  0  0999 V2000
  189.6420  174.0990  140.9010 C   0  0  0  0  0  0  0  0  0  0  0  0
  188.0210  173.0890  139.3730 O   0  0  0  0  0  1  0  0  0  0  0  0
  190.9820  174.2230  141.3030 C   0  0  0  0  0  3  0  0  0  0  0  0
  191.6830  172.7220  139.5430 C   0  0  0  0  0  3  0  0  0  0  0  0
  190.3550  172.5860  139.1330 C   0  0  0  0  0  3  0  0  0  0  0  0
  189.3330  173.2610  139.8060 C   0  0  0  0  0  0  0  0  0  0  0  0
  191.9990  173.5380  140.6370 C   0  0  0  0  0  0  0  0  0  0  0  0
  197.0690  174.9780  140.3270 C   0  0  0  0  0  1  0  0  0  0  0  0
  193.4110  173.7310  141.0830 C   0  0  2  0  0  3  0  0  0  0  0  0
  193.4650  174.0500  142.5460 C   0  0  0  0  0  3  0  0  0  0  0  0
  195.7760  174.7120  142.3410 N   0  0  0  0  0  0  0  0  0  0  0  0
  194.2410  175.0380  140.1230 S   0  0  0  0  0  0  0  0  0  0  0  0
  194.5890  174.4900  143.1220 C   0  0  0  0  0  0  0  0  0  0  0  0
  195.7760  174.8700  141.0480 C   0  0  0  0  0  0  0  0  0  0  0  0
  192.7510  176.7230  145.1890 C   0  0  0  0  0  2  0  0  0  0  0  0
  193.7790  175.6410  145.2170 N   0  0  0  0  0  0  0  0  0  0  0  0
  194.6390  174.6930  144.5810 C   0  0  0  0  0  0  0  0  0  0  0  0
  194.2030  177.2880  146.9060 N   0  0  0  0  0  1  0  0  0  0  0  0
  193.2280  176.3280  146.4210 C   0  0  1  0  0  3  0  0  0  0  0  0
  195.4360  174.0150  145.2830 O   0  0  0  0  0  0  0  0  0  0  0  0
  188.6070  174.8220  141.6700 C   0  0  0  0  0  0  0  0  0  0  0  0
  187.9480  175.9480  141.0830 N   0  0  0  0  0  2  0  0  0  0  0  0
  188.3210  174.4800  142.8490 O   0  0  0  0  0  0  0  0  0  0  0  0
  187.1730  176.9010  141.8660 C   0  0  2  0  0  3  0  0  0  0  0  0
  186.0340  177.4980  141.0420 C   0  0  0  0  0  2  0  0  0  0  0  0
  184.7870  177.5010  141.7900 N   0  0  0  0  0  2  0  0  0  0  0  0
  182.5740  178.1760  141.5710 O   0  0  0  0  0  1  0  0  0  0  0  0
  183.8510  178.3110  141.0310 C   0  0  0  0  0  2  0  0  0  0  0  0
  188.0730  177.9610  142.5160 C   0  0  0  0  0  2  0  0  0  0  0  0
  189.1740  177.8400  144.6170 O   0  0  0  0  0  0  0  0  0  0  0  0
  188.0700  177.9130  144.0170 C   0  0  0  0  0  0  0  0  0  0  0  0
  184.6790  178.9040  145.4370 C   0  0  0  0  0  3  0  0  0  0  0  0
  185.3870  176.8180  146.4400 C   0  0  0  0  0  3  0  0  0  0  0  0
  186.5650  176.8580  145.6900 C   0  0  0  0  0  3  0  0  0  0  0  0
  184.4410  177.8380  146.3110 C   0  0  0  0  0  3  0  0  0  0  0  0
  186.8130  177.9160  144.7990 C   0  0  0  0  0  0  0  0  0  0  0  0
  185.8590  178.9510  144.6850 C   0  0  0  0  0  0  0  0  0  0  0  0
  186.0670  180.0130  143.8690 F   0  0  0  0  0  0  0  0  0  0  0  0
  1  3  1  0  0  0  0
  1 21  1  0  0  0  0
  2  6  1  0  0  0  0
  4  7  1  0  0  0  0
  5  4  2  0  0  0  0
  5  6  1  0  0  0  0
  6  1  2  0  0  0  0
  7  3  2  0  0  0  0
  8 14  1  0  0  0  0
  9  7  1  6  0  0  0
  9 10  1  0  0  0  0
 10 13  2  0  0  0  0
 11 13  1  0  0  0  0
 12 14  1  0  0  0  0
 12  9  1  0  0  0  0
 13 17  1  0  0  0  0
 14 11  2  0  0  0  0
 15 16  1  0  0  0  0
 15 19  1  0  0  0  0
 16 19  1  0  0  0  0
 17 16  1  0  0  0  0
 17 20  2  0  0  0  0
 19 18  1  6  0  0  0
 21 23  2  0  0  0  0
 22 21  1  0  0  0  0
 22 24  1  0  0  0  0
 24 25  1  6  0  0  0
 24 29  1  0  0  0  0
 25 26  1  0  0  0  0
 28 27  1  0  0  0  0
 28 26  1  0  0  0  0
 29 31  1  0  0  0  0
 31 30  2  0  0  0  0
 31 36  1  0  0  0  0
 32 35  1  0  0  0  0
 34 33  1  0  0  0  0
 35 33  2  0  0  0  0
 36 34  2  0  0  0  0
 37 36  1  0  0  0  0
 37 32  2  0  0  0  0
 38 37  1  0  0  0  0
M  END
>  <MODEL>
7

>  <REMARK>
 VINA RESULT:      -7.3      1.400      1.555
  Name = 
  10 active torsions:
  status: ('A' for Active; 'I' for Inactive)
    1  A    between atoms: C_3  and  C_34
    2  A    between atoms: N_8  and  C_12
    3  A    between atoms: N_8  and  C_17
    4  A    between atoms: C_9  and  C_11
    5  A    between atoms: C_10  and  C_17
    6  A    between atoms: C_10  and  N_22
    7  A    between atoms: C_10  and  C_23
    8  A    between atoms: C_16  and  C_23
    9  A    between atoms: C_16  and  C_30
   10  A    between atoms: C_21  and  C_37
                            x       y       z     vdW  Elec       q    Type
                         _______ _______ _______ _____ _____    ______ ____

>  <TORSDO>
F 10

$$$$
=
 OpenBabel11062419283D

 38 41  0  0  1  0  0  0  0  0999 V2000
  192.2970  175.8100  144.4810 C   0  0  0  0  0  0  0  0  0  0  0  0
  192.8620  173.8540  145.8360 O   0  0  0  0  0  1  0  0  0  0  0  0
  191.3240  176.5100  143.7510 C   0  0  0  0  0  3  0  0  0  0  0  0
  189.6660  174.8360  144.2900 C   0  0  0  0  0  3  0  0  0  0  0  0
  190.6240  174.1250  145.0180 C   0  0  0  0  0  3  0  0  0  0  0  0
  191.9360  174.5980  145.1130 C   0  0  0  0  0  0  0  0  0  0  0  0
  190.0170  176.0300  143.6480 C   0  0  0  0  0  0  0  0  0  0  0  0
  186.7070  177.2680  139.7260 C   0  0  0  0  0  1  0  0  0  0  0  0
  189.0120  176.8320  142.8890 C   0  0  2  0  0  3  0  0  0  0  0  0
  188.0810  177.5390  143.8260 C   0  0  0  0  0  3  0  0  0  0  0  0
  186.5970  178.0610  141.9970 N   0  0  0  0  0  0  0  0  0  0  0  0
  188.0670  175.7920  141.7290 S   0  0  0  0  0  0  0  0  0  0  0  0
  186.9630  178.1280  143.3860 C   0  0  0  0  0  0  0  0  0  0  0  0
  187.0630  177.1750  141.1640 C   0  0  0  0  0  0  0  0  0  0  0  0
  186.2270  177.5710  146.8190 C   0  0  0  0  0  2  0  0  0  0  0  0
  185.9870  178.5070  145.6820 N   0  0  0  0  0  0  0  0  0  0  0  0
  186.1250  178.9050  144.3160 C   0  0  0  0  0  0  0  0  0  0  0  0
  184.0650  178.3570  147.1070 N   0  0  0  0  0  1  0  0  0  0  0  0
  185.4750  178.6980  147.0700 C   0  0  1  0  0  3  0  0  0  0  0  0
  185.5320  179.9410  143.9110 O   0  0  0  0  0  0  0  0  0  0  0  0
  193.6720  176.3520  144.5220 C   0  0  0  0  0  0  0  0  0  0  0  0
  194.6580  175.8480  143.6170 N   0  0  0  0  0  2  0  0  0  0  0  0
  193.9950  177.2300  145.3680 O   0  0  0  0  0  0  0  0  0  0  0  0
  196.0840  176.0790  143.8020 C   0  0  2  0  0  3  0  0  0  0  0  0
  196.7560  176.4770  142.4890 C   0  0  0  0  0  2  0  0  0  0  0  0
  195.7890  176.5720  141.4080 N   0  0  0  0  0  2  0  0  0  0  0  0
  197.6510  175.6700  140.3490 O   0  0  0  0  0  1  0  0  0  0  0  0
  196.2580  175.6910  140.3530 C   0  0  0  0  0  2  0  0  0  0  0  0
  196.7630  174.8890  144.4950 C   0  0  0  0  0  2  0  0  0  0  0  0
  197.3180  173.4220  142.7100 O   0  0  0  0  0  0  0  0  0  0  0  0
  196.6200  173.5950  143.7440 C   0  0  0  0  0  0  0  0  0  0  0  0
  194.8560  170.8890  145.7590 C   0  0  0  0  0  3  0  0  0  0  0  0
  193.6790  171.2260  143.6710 C   0  0  0  0  0  3  0  0  0  0  0  0
  194.6080  172.2060  143.3070 C   0  0  0  0  0  3  0  0  0  0  0  0
  193.8010  170.5710  144.8980 C   0  0  0  0  0  3  0  0  0  0  0  0
  195.6670  172.5450  144.1650 C   0  0  0  0  0  0  0  0  0  0  0  0
  195.7910  171.8670  145.3980 C   0  0  0  0  0  0  0  0  0  0  0  0
  196.8160  172.1300  146.2450 F   0  0  0  0  0  0  0  0  0  0  0  0
  1 21  1  0  0  0  0
  1  6  1  0  0  0  0
  3  1  2  0  0  0  0
  4  5  1  0  0  0  0
  5  6  2  0  0  0  0
  6  2  1  0  0  0  0
  7  3  1  0  0  0  0
  7  4  2  0  0  0  0
  8 14  1  0  0  0  0
  9  7  1  1  0  0  0
  9 10  1  0  0  0  0
 11 13  1  0  0  0  0
 12  9  1  0  0  0  0
 13 10  2  0  0  0  0
 13 17  1  0  0  0  0
 14 12  1  0  0  0  0
 14 11  2  0  0  0  0
 15 19  1  0  0  0  0
 16 15  1  0  0  0  0
 16 19  1  0  0  0  0
 17 16  1  0  0  0  0
 19 18  1  6  0  0  0
 20 17  2  0  0  0  0
 21 23  2  0  0  0  0
 22 24  1  0  0  0  0
 22 21  1  0  0  0  0
 24 25  1  6  0  0  0
 24 29  1  0  0  0  0
 26 25  1  0  0  0  0
 27 28  1  0  0  0  0
 28 26  1  0  0  0  0
 30 31  2  0  0  0  0
 31 36  1  0  0  0  0
 31 29  1  0  0  0  0
 33 35  1  0  0  0  0
 34 33  2  0  0  0  0
 34 36  1  0  0  0  0
 35 32  2  0  0  0  0
 36 37  2  0  0  0  0
 37 32  1  0  0  0  0
 37 38  1  0  0  0  0
M  END
>  <MODEL>
8

>  <REMARK>
 VINA RESULT:      -7.1      3.880      8.913
  Name = 
  10 active torsions:
  status: ('A' for Active; 'I' for Inactive)
    1  A    between atoms: C_3  and  C_34
    2  A    between atoms: N_8  and  C_12
    3  A    between atoms: N_8  and  C_17
    4  A    between atoms: C_9  and  C_11
    5  A    between atoms: C_10  and  C_17
    6  A    between atoms: C_10  and  N_22
    7  A    between atoms: C_10  and  C_23
    8  A    between atoms: C_16  and  C_23
    9  A    between atoms: C_16  and  C_30
   10  A    between atoms: C_21  and  C_37
                            x       y       z     vdW  Elec       q    Type
                         _______ _______ _______ _____ _____    ______ ____

>  <TORSDO>
F 10

$$$$
=
 OpenBabel11062419283D

 38 41  0  0  1  0  0  0  0  0999 V2000
  192.9300  175.6120  144.9590 C   0  0  0  0  0  0  0  0  0  0  0  0
  194.8170  175.8100  146.5040 O   0  0  0  0  0  1  0  0  0  0  0  0
  191.5460  175.7190  144.7530 C   0  0  0  0  0  3  0  0  0  0  0  0
  191.2240  176.4240  147.0420 C   0  0  0  0  0  3  0  0  0  0  0  0
  192.5990  176.3210  147.2650 C   0  0  0  0  0  3  0  0  0  0  0  0
  193.4550  175.9120  146.2380 C   0  0  0  0  0  0  0  0  0  0  0  0
  190.6930  176.1160  145.7830 C   0  0  0  0  0  0  0  0  0  0  0  0
  185.5600  176.8160  146.8040 C   0  0  0  0  0  1  0  0  0  0  0  0
  189.2320  176.2470  145.5010 C   0  0  2  0  0  3  0  0  0  0  0  0
  189.0060  176.9160  144.1800 C   0  0  0  0  0  3  0  0  0  0  0  0
  186.6730  177.2240  144.7070 N   0  0  0  0  0  0  0  0  0  0  0  0
  188.3750  177.1600  146.8240 S   0  0  0  0  0  0  0  0  0  0  0  0
  187.7940  177.3500  143.8160 C   0  0  0  0  0  0  0  0  0  0  0  0
  186.7820  177.0500  145.9930 C   0  0  0  0  0  0  0  0  0  0  0  0
  184.7880  177.8560  141.9890 C   0  0  0  0  0  2  0  0  0  0  0  0
  186.2670  178.0460  141.9310 N   0  0  0  0  0  0  0  0  0  0  0  0
  187.5840  177.9080  142.4690 C   0  0  0  0  0  0  0  0  0  0  0  0
  185.3710  177.5340  139.7680 N   0  0  0  0  0  1  0  0  0  0  0  0
  185.3090  178.4740  140.8720 C   0  0  1  0  0  3  0  0  0  0  0  0
  188.5730  178.2810  141.7820 O   0  0  0  0  0  0  0  0  0  0  0  0
  193.7770  175.1520  143.8380 C   0  0  0  0  0  0  0  0  0  0  0  0
  193.5430  175.6620  142.5220 N   0  0  0  0  0  2  0  0  0  0  0  0
  194.6800  174.2920  144.0210 O   0  0  0  0  0  0  0  0  0  0  0  0
  194.0940  175.0340  141.3280 C   0  0  2  0  0  3  0  0  0  0  0  0
  194.9680  176.0090  140.5420 C   0  0  0  0  0  2  0  0  0  0  0  0
  195.8420  176.7650  141.4260 N   0  0  0  0  0  2  0  0  0  0  0  0
  197.5010  175.6480  140.2430 O   0  0  0  0  0  1  0  0  0  0  0  0
  197.0840  176.0190  141.5190 C   0  0  0  0  0  2  0  0  0  0  0  0
  192.9960  174.3820  140.4760 C   0  0  0  0  0  2  0  0  0  0  0  0
  193.0520  172.0070  140.4490 O   0  0  0  0  0  0  0  0  0  0  0  0
  192.5620  173.0360  140.9840 C   0  0  0  0  0  0  0  0  0  0  0  0
  189.3480  173.2790  143.0100 C   0  0  0  0  0  3  0  0  0  0  0  0
  190.9870  172.0090  144.2600 C   0  0  0  0  0  3  0  0  0  0  0  0
  191.9080  172.1780  143.2220 C   0  0  0  0  0  3  0  0  0  0  0  0
  189.7060  172.5560  144.1530 C   0  0  0  0  0  3  0  0  0  0  0  0
  191.5590  172.8910  142.0620 C   0  0  0  0  0  0  0  0  0  0  0  0
  190.2680  173.4530  141.9690 C   0  0  0  0  0  0  0  0  0  0  0  0
  189.8940  174.1830  140.8890 F   0  0  0  0  0  0  0  0  0  0  0  0
  1  6  1  0  0  0  0
  3  1  2  0  0  0  0
  3  7  1  0  0  0  0
  4  5  1  0  0  0  0
  6  2  1  0  0  0  0
  6  5  2  0  0  0  0
  7  4  2  0  0  0  0
  9  7  1  1  0  0  0
  9 12  1  0  0  0  0
 10  9  1  0  0  0  0
 11 14  2  0  0  0  0
 13 10  2  0  0  0  0
 13 11  1  0  0  0  0
 14  8  1  0  0  0  0
 14 12  1  0  0  0  0
 16 15  1  0  0  0  0
 16 17  1  0  0  0  0
 17 13  1  0  0  0  0
 19 18  1  6  0  0  0
 19 16  1  0  0  0  0
 19 15  1  0  0  0  0
 20 17  2  0  0  0  0
 21 23  2  0  0  0  0
 21  1  1  0  0  0  0
 22 21  1  0  0  0  0
 24 29  1  6  0  0  0
 24 22  1  0  0  0  0
 25 24  1  0  0  0  0
 25 26  1  0  0  0  0
 26 28  1  0  0  0  0
 27 28  1  0  0  0  0
 29 31  1  0  0  0  0
 30 31  2  0  0  0  0
 31 36  1  0  0  0  0
 32 35  1  0  0  0  0
 34 33  1  0  0  0  0
 35 33  2  0  0  0  0
 36 34  2  0  0  0  0
 37 36  1  0  0  0  0
 37 32  2  0  0  0  0
 38 37  1  0  0  0  0
M  END
>  <MODEL>
9

>  <REMARK>
 VINA RESULT:      -7.1      2.921      8.196
  Name = 
  10 active torsions:
  status: ('A' for Active; 'I' for Inactive)
    1  A    between atoms: C_3  and  C_34
    2  A    between atoms: N_8  and  C_12
    3  A    between atoms: N_8  and  C_17
    4  A    between atoms: C_9  and  C_11
    5  A    between atoms: C_10  and  C_17
    6  A    between atoms: C_10  and  N_22
    7  A    between atoms: C_10  and  C_23
    8  A    between atoms: C_16  and  C_23
    9  A    between atoms: C_16  and  C_30
   10  A    between atoms: C_21  and  C_37
                            x       y       z     vdW  Elec       q    Type
                         _______ _______ _______ _____ _____    ______ ____

>  <TORSDO>
F 10

$$$$
