=
 OpenBabel11062418373D

 55 65  0  0  1  0  0  0  0  0999 V2000
  195.6350  176.3390  142.0440 O   0  0  0  0  0  1  0  0  0  0  0  0
  196.1940  176.5010  143.3190 C   0  0  0  0  0  0  0  0  0  0  0  0
  195.2890  176.3000  144.5200 C   0  0  2  0  0  3  0  0  0  0  0  0
  197.1660  177.4910  143.4620 O   0  0  0  0  0  1  0  0  0  0  0  0
  196.3860  175.2630  144.1800 C   0  0  1  0  0  3  0  0  0  0  0  0
  195.8980  174.0000  143.4680 C   0  0  0  0  0  2  0  0  0  0  0  0
  197.2180  170.4140  143.2960 C   0  0  0  0  0  2  0  0  0  0  0  0
  194.8470  171.9590  145.3860 C   0  0  0  0  0  1  0  0  0  0  0  0
  197.4600  172.6040  144.9270 C   0  0  1  0  0  3  0  0  0  0  0  0
  196.9300  172.9750  146.3100 C   0  0  0  0  0  2  0  0  0  0  0  0
  196.3520  171.7770  145.6090 C   0  0  1  0  0  0  0  0  0  0  0  0
  196.9420  172.8770  143.5060 C   0  0  1  0  0  3  0  0  0  0  0  0
  196.4900  171.6230  142.8360 N   0  0  0  0  0  0  0  0  0  0  0  0
  196.5700  169.7810  144.5570 C   0  0  2  0  0  3  0  0  0  0  0  0
  196.8490  170.4750  145.7690 O   0  0  0  0  0  0  0  0  0  0  0  0
  197.0440  168.3480  144.6850 C   0  0  0  0  0  1  0  0  0  0  0  0
  196.6290  171.7680  141.3730 C   0  0  2  0  0  3  0  0  0  0  0  0
  197.4440  173.0040  141.0190 C   0  0  0  0  0  1  0  0  0  0  0  0
  195.3190  171.6610  140.5630 C   0  0  0  0  0  0  0  0  0  0  0  0
  194.8360  170.2680  140.2190 C   0  0  0  0  0  2  0  0  0  0  0  0
  195.5250  171.1190  139.1650 C   0  0  0  0  0  2  0  0  0  0  0  0
  194.1880  173.7840  139.8990 O   0  0  0  0  0  0  0  0  0  0  0  0
  193.1670  172.7210  141.4930 C   0  0  0  0  0  0  0  0  0  0  0  0
  193.1380  174.4980  140.1930 N   0  0  0  0  0  0  0  0  0  0  0  0
  192.4670  173.8740  141.1860 C   0  0  0  0  0  3  0  0  0  0  0  0
  194.2510  172.7100  140.6490 C   0  0  0  0  0  0  0  0  0  0  0  0
  192.8640  171.7420  142.4500 O   0  0  0  0  0  0  0  0  0  0  0  0
  190.7230  170.8580  142.3930 O   0  0  0  0  0  0  0  0  0  0  0  0
  191.5990  171.5270  143.0040 C   0  0  0  0  0  0  0  0  0  0  0  0
  191.2720  172.1450  144.3270 C   0  0  0  0  0  3  0  0  0  0  0  0
  189.7720  172.0820  144.5540 C   0  0  0  0  0  2  0  0  0  0  0  0
  190.4140  173.3870  144.1410 C   0  0  0  0  0  2  0  0  0  0  0  0
  193.8670  175.8670  144.1430 C   0  0  0  0  0  2  0  0  0  0  0  0
  192.1390  176.5290  145.7910 C   0  0  1  0  0  3  0  0  0  0  0  0
  193.4490  176.3510  146.5330 C   0  0  0  0  0  2  0  0  0  0  0  0
  193.1060  175.4300  145.3820 C   0  0  2  0  0  3  0  0  0  0  0  0
  191.0040  175.9470  146.6180 C   0  0  1  0  0  0  0  0  0  0  0  0
  189.6650  176.5480  146.3260 N   0  0  0  0  0  0  0  0  0  0  0  0
  191.2730  175.8500  148.0970 C   0  0  0  0  0  2  0  0  0  0  0  0
  188.4860  176.6510  145.5360 C   0  0  0  0  0  0  0  0  0  0  0  0
  188.3110  175.8650  144.5710 O   0  0  0  0  0  0  0  0  0  0  0  0
  190.5710  177.0010  147.4250 C   0  0  1  0  0  3  0  0  0  0  0  0
  187.4390  177.6570  145.8680 C   0  0  0  0  0  2  0  0  0  0  0  0
  185.1730  178.2800  147.4350 O   0  0  0  0  0  0  0  0  0  0  0  0
  185.1360  177.0700  146.7080 C   0  0  1  0  0  3  0  0  0  0  0  0
  184.4080  178.8860  145.2590 C   0  0  0  0  0  2  0  0  0  0  0  0
  184.1000  178.1250  146.5400 C   0  0  2  0  0  3  0  0  0  0  0  0
  186.0540  177.1290  145.4850 C   0  0  1  0  0  3  0  0  0  0  0  0
  185.3180  177.9860  144.4620 C   0  0  2  0  0  3  0  0  0  0  0  0
  186.2130  178.7650  143.5010 C   0  0  0  0  0  2  0  0  0  0  0  0
  185.7740  178.5840  142.1870 O   0  0  0  0  0  0  0  0  0  0  0  0
  186.6890  175.9690  141.9260 O   0  0  0  0  0  1  0  0  0  0  0  0
  186.7850  177.6760  139.9520 O   0  0  0  0  0  0  0  0  0  0  0  0
  188.8820  178.1910  141.9970 S   0  0  0  0  0  1  0  0  0  0  0  0
  186.9300  177.5790  141.4530 P   0  0  1  0  0  0  0  0  0  0  0  0
  1  2  1  0  0  0  0
  2  4  1  0  0  0  0
  2  5  1  0  0  0  0
  2  3  1  0  0  0  0
  3 33  1  6  0  0  0
  5  6  1  6  0  0  0
  5  3  1  0  0  0  0
  7 14  1  0  0  0  0
  9 11  1  0  0  0  0
  9 10  1  1  0  0  0
 11  8  1  6  0  0  0
 11 15  1  0  0  0  0
 11 10  1  0  0  0  0
 12  6  1  1  0  0  0
 12  9  1  0  0  0  0
 13  7  1  0  0  0  0
 13 12  1  0  0  0  0
 14 16  1  1  0  0  0
 14 15  1  0  0  0  0
 17 18  1  1  0  0  0
 17 13  1  0  0  0  0
 19 26  1  0  0  0  0
 19 17  1  0  0  0  0
 20 19  1  0  0  0  0
 21 20  1  0  0  0  0
 21 19  1  0  0  0  0
 22 24  1  0  0  0  0
 22 26  1  0  0  0  0
 23 27  1  0  0  0  0
 24 25  2  0  0  0  0
 25 23  1  0  0  0  0
 26 23  2  0  0  0  0
 27 29  1  0  0  0  0
 28 29  2  0  0  0  0
 29 30  1  0  0  0  0
 30 31  1  0  0  0  0
 32 30  1  0  0  0  0
 32 31  1  0  0  0  0
 34 35  1  1  0  0  0
 34 37  1  0  0  0  0
 36 33  1  6  0  0  0
 36 34  1  0  0  0  0
 36 35  1  0  0  0  0
 37 42  1  0  0  0  0
 37 39  1  1  0  0  0
 38 37  1  0  0  0  0
 38 42  1  0  0  0  0
 40 43  1  0  0  0  0
 40 38  1  0  0  0  0
 41 40  2  0  0  0  0
 42 39  1  1  0  0  0
 45 44  1  1  0  0  0
 47 46  1  6  0  0  0
 47 45  1  0  0  0  0
 47 44  1  0  0  0  0
 48 43  1  1  0  0  0
 48 45  1  0  0  0  0
 49 50  1  1  0  0  0
 49 46  1  0  0  0  0
 49 48  1  0  0  0  0
 51 50  1  0  0  0  0
 55 53  2  6  0  0  0
 55 52  1  0  0  0  0
 55 54  1  0  0  0  0
 55 51  1  0  0  0  0
M  END
>  <MODEL>
1

>  <REMARK>
 VINA RESULT:      -7.7      0.000      0.000
  Name = 
  16 active torsions:
  status: ('A' for Active; 'I' for Inactive)
    1  A    between atoms: C_3  and  O_34
    2  A    between atoms: C_3  and  C_54
    3  A    between atoms: C_4  and  C_36
    4  A    between atoms: C_4  and  C_43
    5  A    between atoms: C_5  and  C_27
    6  A    between atoms: C_5  and  C_31
    7  A    between atoms: O_10  and  C_13
    8  A    between atoms: O_10  and  C_55
    9  A    between atoms: C_12  and  C_55
   10  A    between atoms: C_14  and  C_18
   11  A    between atoms: C_24  and  C_37
   12  A    between atoms: C_24  and  C_51
   13  A    between atoms: C_29  and  C_53
   14  A    between atoms: C_31  and  N_38
   15  A    between atoms: O_34  and  P_46
   16  A    between atoms: C_40  and  C_53
                            x       y       z     vdW  Elec       q    Type
                         _______ _______ _______ _____ _____    ______ ____

>  <TORSDO>
F 16

$$$$
=
 OpenBabel11062418373D

 55 65  0  0  1  0  0  0  0  0999 V2000
  195.3110  176.2710  141.6830 O   0  0  0  0  0  1  0  0  0  0  0  0
  196.0720  175.9720  142.8220 C   0  0  0  0  0  0  0  0  0  0  0  0
  195.3810  176.0240  144.1710 C   0  0  2  0  0  3  0  0  0  0  0  0
  197.4050  176.3850  142.8180 O   0  0  0  0  0  1  0  0  0  0  0  0
  195.7920  174.6680  143.5500 C   0  0  1  0  0  3  0  0  0  0  0  0
  194.6620  173.8810  142.8820 C   0  0  0  0  0  2  0  0  0  0  0  0
  194.1350  170.2020  141.9810 C   0  0  0  0  0  2  0  0  0  0  0  0
  192.8440  172.2060  144.5670 C   0  0  0  0  0  1  0  0  0  0  0  0
  195.4360  171.6690  143.8960 C   0  0  1  0  0  3  0  0  0  0  0  0
  195.1910  171.9580  145.3750 C   0  0  0  0  0  2  0  0  0  0  0  0
  194.0940  171.3200  144.5690 C   0  0  1  0  0  0  0  0  0  0  0  0
  195.0560  172.4240  142.6120 C   0  0  1  0  0  3  0  0  0  0  0  0
  194.0440  171.6740  141.8120 N   0  0  0  0  0  0  0  0  0  0  0  0
  193.3100  169.6970  143.1950 C   0  0  2  0  0  3  0  0  0  0  0  0
  193.9260  169.9320  144.4580 O   0  0  0  0  0  0  0  0  0  0  0  0
  193.0600  168.2120  143.0340 C   0  0  0  0  0  1  0  0  0  0  0  0
  194.1830  172.0270  140.3850 C   0  0  2  0  0  3  0  0  0  0  0  0
  195.6180  172.4130  140.0520 C   0  0  0  0  0  1  0  0  0  0  0  0
  193.1490  173.0360  139.8420 C   0  0  0  0  0  0  0  0  0  0  0  0
  193.1250  173.2570  138.3440 C   0  0  0  0  0  2  0  0  0  0  0  0
  193.7810  174.2800  139.2570 C   0  0  0  0  0  2  0  0  0  0  0  0
  191.6480  174.2690  141.4080 O   0  0  0  0  0  0  0  0  0  0  0  0
  190.6810  172.5960  140.4190 C   0  0  0  0  0  0  0  0  0  0  0  0
  190.4200  174.2520  141.8460 N   0  0  0  0  0  0  0  0  0  0  0  0
  189.7750  173.2220  141.2560 C   0  0  0  0  0  3  0  0  0  0  0  0
  191.8540  173.2980  140.5520 C   0  0  0  0  0  0  0  0  0  0  0  0
  190.4810  171.4840  139.5890 O   0  0  0  0  0  0  0  0  0  0  0  0
  190.6500  169.7640  141.1320 O   0  0  0  0  0  0  0  0  0  0  0  0
  190.7590  170.1600  139.9400 C   0  0  0  0  0  0  0  0  0  0  0  0
  191.2410  169.2150  138.8850 C   0  0  0  0  0  3  0  0  0  0  0  0
  191.4880  169.9830  137.5980 C   0  0  0  0  0  2  0  0  0  0  0  0
  190.2420  169.1370  137.7390 C   0  0  0  0  0  2  0  0  0  0  0  0
  193.8830  176.3390  144.0730 C   0  0  0  0  0  2  0  0  0  0  0  0
  192.4670  176.5210  146.0990 C   0  0  1  0  0  3  0  0  0  0  0  0
  193.7350  175.7850  146.4790 C   0  0  0  0  0  2  0  0  0  0  0  0
  193.1120  175.5540  145.1200 C   0  0  2  0  0  3  0  0  0  0  0  0
  191.2750  175.8640  146.7760 C   0  0  1  0  0  0  0  0  0  0  0  0
  189.9520  176.4370  146.3760 N   0  0  0  0  0  0  0  0  0  0  0  0
  191.3950  175.7010  148.2680 C   0  0  0  0  0  2  0  0  0  0  0  0
  188.8560  176.5440  145.4730 C   0  0  0  0  0  0  0  0  0  0  0  0
  188.8080  175.8020  144.4600 O   0  0  0  0  0  0  0  0  0  0  0  0
  190.7250  176.8620  147.5830 C   0  0  1  0  0  3  0  0  0  0  0  0
  187.7460  177.5000  145.7430 C   0  0  0  0  0  2  0  0  0  0  0  0
  185.5710  178.4390  147.2820 O   0  0  0  0  0  0  0  0  0  0  0  0
  185.6050  177.0550  146.9980 C   0  0  1  0  0  3  0  0  0  0  0  0
  184.5550  178.2190  145.1360 C   0  0  0  0  0  2  0  0  0  0  0  0
  184.4480  177.9110  146.6220 C   0  0  2  0  0  3  0  0  0  0  0  0
  186.4000  176.7700  145.7220 C   0  0  1  0  0  3  0  0  0  0  0  0
  185.4860  177.1760  144.5720 C   0  0  2  0  0  3  0  0  0  0  0  0
  186.2000  177.6520  143.3090 C   0  0  0  0  0  2  0  0  0  0  0  0
  185.9030  176.8020  142.2420 O   0  0  0  0  0  0  0  0  0  0  0  0
  187.6600  175.7020  140.3860 O   0  0  0  0  0  1  0  0  0  0  0  0
  186.4160  177.9570  139.9520 O   0  0  0  0  0  0  0  0  0  0  0  0
  188.6610  178.2560  141.8790 S   0  0  0  0  0  1  0  0  0  0  0  0
  187.0630  177.1440  141.0490 P   0  0  1  0  0  0  0  0  0  0  0  0
  1  2  1  0  0  0  0
  2  5  1  0  0  0  0
  2  3  1  0  0  0  0
  3 33  1  6  0  0  0
  4  2  1  0  0  0  0
  5  6  1  6  0  0  0
  5  3  1  0  0  0  0
  7 14  1  0  0  0  0
  9 11  1  0  0  0  0
  9 10  1  1  0  0  0
 11  8  1  6  0  0  0
 11 10  1  0  0  0  0
 12  6  1  1  0  0  0
 12  9  1  0  0  0  0
 13  7  1  0  0  0  0
 13 12  1  0  0  0  0
 14 16  1  6  0  0  0
 14 15  1  0  0  0  0
 15 11  1  0  0  0  0
 17 18  1  1  0  0  0
 17 13  1  0  0  0  0
 19 17  1  0  0  0  0
 19 26  1  0  0  0  0
 20 21  1  0  0  0  0
 20 19  1  0  0  0  0
 21 19  1  0  0  0  0
 22 24  1  0  0  0  0
 23 26  2  0  0  0  0
 23 25  1  0  0  0  0
 25 24  2  0  0  0  0
 26 22  1  0  0  0  0
 27 29  1  0  0  0  0
 27 23  1  0  0  0  0
 29 28  2  0  0  0  0
 30 29  1  0  0  0  0
 31 32  1  0  0  0  0
 31 30  1  0  0  0  0
 32 30  1  0  0  0  0
 34 35  1  1  0  0  0
 34 37  1  0  0  0  0
 36 33  1  6  0  0  0
 36 34  1  0  0  0  0
 36 35  1  0  0  0  0
 37 42  1  0  0  0  0
 37 39  1  1  0  0  0
 38 37  1  0  0  0  0
 38 42  1  0  0  0  0
 40 43  1  0  0  0  0
 40 38  1  0  0  0  0
 41 40  2  0  0  0  0
 42 39  1  1  0  0  0
 45 44  1  1  0  0  0
 47 46  1  6  0  0  0
 47 45  1  0  0  0  0
 47 44  1  0  0  0  0
 48 43  1  1  0  0  0
 48 45  1  0  0  0  0
 49 50  1  6  0  0  0
 49 46  1  0  0  0  0
 49 48  1  0  0  0  0
 51 50  1  0  0  0  0
 52 55  1  0  0  0  0
 55 53  2  6  0  0  0
 55 54  1  0  0  0  0
 55 51  1  0  0  0  0
M  END
>  <MODEL>
2

>  <REMARK>
 VINA RESULT:      -7.1      1.902      2.608
  Name = 
  16 active torsions:
  status: ('A' for Active; 'I' for Inactive)
    1  A    between atoms: C_3  and  O_34
    2  A    between atoms: C_3  and  C_54
    3  A    between atoms: C_4  and  C_36
    4  A    between atoms: C_4  and  C_43
    5  A    between atoms: C_5  and  C_27
    6  A    between atoms: C_5  and  C_31
    7  A    between atoms: O_10  and  C_13
    8  A    between atoms: O_10  and  C_55
    9  A    between atoms: C_12  and  C_55
   10  A    between atoms: C_14  and  C_18
   11  A    between atoms: C_24  and  C_37
   12  A    between atoms: C_24  and  C_51
   13  A    between atoms: C_29  and  C_53
   14  A    between atoms: C_31  and  N_38
   15  A    between atoms: O_34  and  P_46
   16  A    between atoms: C_40  and  C_53
                            x       y       z     vdW  Elec       q    Type
                         _______ _______ _______ _____ _____    ______ ____

>  <TORSDO>
F 16

$$$$
=
 OpenBabel11062418373D

 55 65  0  0  1  0  0  0  0  0999 V2000
  195.5960  176.1090  141.9090 O   0  0  0  0  0  1  0  0  0  0  0  0
  196.1090  176.3100  143.1980 C   0  0  0  0  0  0  0  0  0  0  0  0
  195.1630  176.1400  144.3720 C   0  0  2  0  0  3  0  0  0  0  0  0
  197.0720  177.3090  143.3480 O   0  0  0  0  0  1  0  0  0  0  0  0
  196.2750  175.0990  144.1010 C   0  0  1  0  0  3  0  0  0  0  0  0
  195.8170  173.8130  143.4080 C   0  0  0  0  0  2  0  0  0  0  0  0
  197.1120  170.2190  143.6000 C   0  0  0  0  0  2  0  0  0  0  0  0
  194.8520  172.0240  145.6030 C   0  0  0  0  0  1  0  0  0  0  0  0
  197.4420  172.5840  144.9460 C   0  0  1  0  0  3  0  0  0  0  0  0
  196.9820  173.1210  146.3000 C   0  0  0  0  0  2  0  0  0  0  0  0
  196.3650  171.8540  145.7730 C   0  0  1  0  0  0  0  0  0  0  0  0
  196.8570  172.6920  143.5290 C   0  0  1  0  0  3  0  0  0  0  0  0
  196.3670  171.3730  143.0340 N   0  0  0  0  0  0  0  0  0  0  0  0
  196.5220  169.7460  144.9560 C   0  0  2  0  0  3  0  0  0  0  0  0
  196.8630  170.5750  146.0620 O   0  0  0  0  0  0  0  0  0  0  0  0
  196.9960  168.3330  145.2290 C   0  0  0  0  0  1  0  0  0  0  0  0
  196.4360  171.3430  141.5600 C   0  0  2  0  0  3  0  0  0  0  0  0
  196.6520  172.7380  140.9910 C   0  0  0  0  0  1  0  0  0  0  0  0
  195.2950  170.5780  140.8530 C   0  0  0  0  0  0  0  0  0  0  0  0
  195.6670  169.7700  139.6280 C   0  0  0  0  0  2  0  0  0  0  0  0
  194.9800  171.1170  139.4750 C   0  0  0  0  0  2  0  0  0  0  0  0
  193.8050  168.8410  141.8470 O   0  0  0  0  0  0  0  0  0  0  0  0
  193.1010  170.8700  142.1640 C   0  0  0  0  0  0  0  0  0  0  0  0
  192.7000  168.7360  142.5310 N   0  0  0  0  0  0  0  0  0  0  0  0
  192.2210  169.9790  142.7530 C   0  0  0  0  0  3  0  0  0  0  0  0
  194.0880  170.0970  141.6010 C   0  0  0  0  0  0  0  0  0  0  0  0
  193.0370  172.2700  142.1310 O   0  0  0  0  0  0  0  0  0  0  0  0
  192.8870  174.1970  140.8540 O   0  0  0  0  0  0  0  0  0  0  0  0
  192.4900  173.0240  141.0900 C   0  0  0  0  0  0  0  0  0  0  0  0
  191.3790  172.4380  140.2760 C   0  0  0  0  0  3  0  0  0  0  0  0
  190.4560  173.5510  139.8100 C   0  0  0  0  0  2  0  0  0  0  0  0
  190.0380  172.6610  140.9590 C   0  0  0  0  0  2  0  0  0  0  0  0
  193.7570  175.6890  143.9570 C   0  0  0  0  0  2  0  0  0  0  0  0
  192.2010  176.4030  145.7490 C   0  0  1  0  0  3  0  0  0  0  0  0
  193.4880  175.9440  146.4030 C   0  0  0  0  0  2  0  0  0  0  0  0
  192.9730  175.2280  145.1740 C   0  0  2  0  0  3  0  0  0  0  0  0
  191.0140  175.9050  146.5570 C   0  0  1  0  0  0  0  0  0  0  0  0
  189.7100  176.5360  146.1820 N   0  0  0  0  0  0  0  0  0  0  0  0
  191.2210  175.8740  148.0480 C   0  0  0  0  0  2  0  0  0  0  0  0
  188.5670  176.6390  145.3400 C   0  0  0  0  0  0  0  0  0  0  0  0
  188.4000  175.8110  144.4100 O   0  0  0  0  0  0  0  0  0  0  0  0
  190.5890  177.0130  147.2930 C   0  0  1  0  0  3  0  0  0  0  0  0
  187.5460  177.6970  145.5790 C   0  0  0  0  0  2  0  0  0  0  0  0
  186.0820  178.7560  147.7520 O   0  0  0  0  0  0  0  0  0  0  0  0
  185.9160  177.3800  147.4770 C   0  0  1  0  0  3  0  0  0  0  0  0
  184.3980  178.6570  146.0670 C   0  0  0  0  0  2  0  0  0  0  0  0
  184.7670  178.3250  147.5040 C   0  0  2  0  0  3  0  0  0  0  0  0
  186.2190  177.0660  146.0100 C   0  0  1  0  0  3  0  0  0  0  0  0
  185.0080  177.5620  145.2280 C   0  0  2  0  0  3  0  0  0  0  0  0
  185.2960  178.0140  143.7980 C   0  0  0  0  0  2  0  0  0  0  0  0
  185.4730  176.9020  142.9720 O   0  0  0  0  0  0  0  0  0  0  0  0
  185.3910  177.9070  140.3780 O   0  0  0  0  0  0  0  0  0  0  0  0
  187.2120  178.6500  142.0970 O   0  0  0  0  0  1  0  0  0  0  0  0
  187.7240  175.9290  141.0120 S   0  0  0  0  0  1  0  0  0  0  0  0
  186.4030  177.4510  141.6600 P   0  0  1  0  0  0  0  0  0  0  0  0
  1  2  1  0  0  0  0
  2  4  1  0  0  0  0
  2  5  1  0  0  0  0
  2  3  1  0  0  0  0
  3 33  1  6  0  0  0
  5  6  1  6  0  0  0
  5  3  1  0  0  0  0
  7 14  1  0  0  0  0
  9 11  1  0  0  0  0
  9 10  1  1  0  0  0
 11  8  1  6  0  0  0
 11 15  1  0  0  0  0
 11 10  1  0  0  0  0
 12  6  1  1  0  0  0
 12  9  1  0  0  0  0
 13 12  1  0  0  0  0
 13  7  1  0  0  0  0
 14 16  1  1  0  0  0
 14 15  1  0  0  0  0
 17 18  1  6  0  0  0
 17 13  1  0  0  0  0
 19 17  1  0  0  0  0
 19 26  1  0  0  0  0
 20 19  1  0  0  0  0
 21 20  1  0  0  0  0
 21 19  1  0  0  0  0
 22 24  1  0  0  0  0
 23 25  1  0  0  0  0
 24 25  2  0  0  0  0
 26 22  1  0  0  0  0
 26 23  2  0  0  0  0
 27 23  1  0  0  0  0
 28 29  2  0  0  0  0
 29 27  1  0  0  0  0
 30 32  1  0  0  0  0
 30 29  1  0  0  0  0
 31 30  1  0  0  0  0
 31 32  1  0  0  0  0
 34 35  1  1  0  0  0
 34 37  1  0  0  0  0
 36 33  1  6  0  0  0
 36 34  1  0  0  0  0
 36 35  1  0  0  0  0
 37 42  1  0  0  0  0
 37 39  1  1  0  0  0
 38 37  1  0  0  0  0
 38 42  1  0  0  0  0
 40 43  1  0  0  0  0
 40 38  1  0  0  0  0
 41 40  2  0  0  0  0
 42 39  1  1  0  0  0
 45 47  1  0  0  0  0
 45 44  1  6  0  0  0
 47 46  1  6  0  0  0
 47 44  1  0  0  0  0
 48 43  1  6  0  0  0
 48 45  1  0  0  0  0
 49 50  1  6  0  0  0
 49 48  1  0  0  0  0
 49 46  1  0  0  0  0
 51 50  1  0  0  0  0
 54 55  1  0  0  0  0
 55 52  2  6  0  0  0
 55 53  1  0  0  0  0
 55 51  1  0  0  0  0
M  END
>  <MODEL>
3

>  <REMARK>
 VINA RESULT:      -6.9      1.385      1.964
  Name = 
  16 active torsions:
  status: ('A' for Active; 'I' for Inactive)
    1  A    between atoms: C_3  and  O_34
    2  A    between atoms: C_3  and  C_54
    3  A    between atoms: C_4  and  C_36
    4  A    between atoms: C_4  and  C_43
    5  A    between atoms: C_5  and  C_27
    6  A    between atoms: C_5  and  C_31
    7  A    between atoms: O_10  and  C_13
    8  A    between atoms: O_10  and  C_55
    9  A    between atoms: C_12  and  C_55
   10  A    between atoms: C_14  and  C_18
   11  A    between atoms: C_24  and  C_37
   12  A    between atoms: C_24  and  C_51
   13  A    between atoms: C_29  and  C_53
   14  A    between atoms: C_31  and  N_38
   15  A    between atoms: O_34  and  P_46
   16  A    between atoms: C_40  and  C_53
                            x       y       z     vdW  Elec       q    Type
                         _______ _______ _______ _____ _____    ______ ____

>  <TORSDO>
F 16

$$$$
=
 OpenBabel11062418373D

 55 65  0  0  1  0  0  0  0  0999 V2000
  195.5270  176.2990  141.8740 O   0  0  0  0  0  1  0  0  0  0  0  0
  196.2240  176.1580  143.0820 C   0  0  0  0  0  0  0  0  0  0  0  0
  195.4140  176.0300  144.3570 C   0  0  2  0  0  3  0  0  0  0  0  0
  197.4250  176.8580  143.2050 O   0  0  0  0  0  1  0  0  0  0  0  0
  196.1760  174.8110  143.7850 C   0  0  1  0  0  3  0  0  0  0  0  0
  195.3190  173.8040  143.0140 C   0  0  0  0  0  2  0  0  0  0  0  0
  195.2270  169.9910  142.7240 C   0  0  0  0  0  2  0  0  0  0  0  0
  192.7630  172.3540  143.5720 C   0  0  0  0  0  1  0  0  0  0  0  0
  195.2050  171.8910  144.7010 C   0  0  1  0  0  3  0  0  0  0  0  0
  194.1420  172.4390  145.6490 C   0  0  0  0  0  2  0  0  0  0  0  0
  193.7100  171.5790  144.4940 C   0  0  1  0  0  0  0  0  0  0  0  0
  195.7130  172.3550  143.3260 C   0  0  1  0  0  3  0  0  0  0  0  0
  195.3390  171.3930  142.2480 N   0  0  0  0  0  0  0  0  0  0  0  0
  193.8120  169.6690  143.2770 C   0  0  2  0  0  3  0  0  0  0  0  0
  193.5630  170.1870  144.5800 O   0  0  0  0  0  0  0  0  0  0  0  0
  193.6240  168.1660  143.2950 C   0  0  0  0  0  1  0  0  0  0  0  0
  196.3250  171.4750  141.1510 C   0  0  2  0  0  3  0  0  0  0  0  0
  197.4660  172.4170  141.5070 C   0  0  0  0  0  1  0  0  0  0  0  0
  195.7400  171.7430  139.7470 C   0  0  0  0  0  0  0  0  0  0  0  0
  195.0100  170.5990  139.0770 C   0  0  0  0  0  2  0  0  0  0  0  0
  196.4260  170.9530  138.6550 C   0  0  0  0  0  2  0  0  0  0  0  0
  196.0370  173.9340  138.5900 O   0  0  0  0  0  0  0  0  0  0  0  0
  194.1200  173.7360  139.5910 C   0  0  0  0  0  0  0  0  0  0  0  0
  195.3970  175.0480  138.3660 N   0  0  0  0  0  0  0  0  0  0  0  0
  194.1920  174.9720  138.9730 C   0  0  0  0  0  3  0  0  0  0  0  0
  195.3170  173.1170  139.3190 C   0  0  0  0  0  0  0  0  0  0  0  0
  193.0670  173.1920  140.3380 O   0  0  0  0  0  0  0  0  0  0  0  0
  190.8360  173.7670  140.0840 O   0  0  0  0  0  0  0  0  0  0  0  0
  191.7760  172.9590  139.8540 C   0  0  0  0  0  0  0  0  0  0  0  0
  191.5040  171.7010  139.0900 C   0  0  0  0  0  3  0  0  0  0  0  0
  190.0140  171.4070  139.1210 C   0  0  0  0  0  2  0  0  0  0  0  0
  190.9520  170.6230  140.0120 C   0  0  0  0  0  2  0  0  0  0  0  0
  193.9000  176.0030  144.1140 C   0  0  0  0  0  2  0  0  0  0  0  0
  192.4130  176.6460  145.9900 C   0  0  1  0  0  3  0  0  0  0  0  0
  193.7350  176.1930  146.5760 C   0  0  0  0  0  2  0  0  0  0  0  0
  193.1780  175.4990  145.3520 C   0  0  2  0  0  3  0  0  0  0  0  0
  191.2710  176.1070  146.8370 C   0  0  1  0  0  0  0  0  0  0  0  0
  189.9190  176.5980  146.4230 N   0  0  0  0  0  0  0  0  0  0  0  0
  191.4780  176.1990  148.3250 C   0  0  0  0  0  2  0  0  0  0  0  0
  188.7730  176.5450  145.5810 C   0  0  0  0  0  0  0  0  0  0  0  0
  188.6780  175.6420  144.7120 O   0  0  0  0  0  0  0  0  0  0  0  0
  190.7520  177.2250  147.4940 C   0  0  1  0  0  3  0  0  0  0  0  0
  187.6660  177.5270  145.7490 C   0  0  0  0  0  2  0  0  0  0  0  0
  185.5550  178.4850  147.3640 O   0  0  0  0  0  0  0  0  0  0  0  0
  185.5710  177.1010  147.0860 C   0  0  1  0  0  3  0  0  0  0  0  0
  184.4580  178.2620  145.2590 C   0  0  0  0  0  2  0  0  0  0  0  0
  184.4050  177.9620  146.7490 C   0  0  2  0  0  3  0  0  0  0  0  0
  186.3160  176.8050  145.7820 C   0  0  1  0  0  3  0  0  0  0  0  0
  185.3620  177.2110  144.6650 C   0  0  2  0  0  3  0  0  0  0  0  0
  186.0310  177.6780  143.3750 C   0  0  0  0  0  2  0  0  0  0  0  0
  186.7060  176.6130  142.7750 O   0  0  0  0  0  0  0  0  0  0  0  0
  188.4430  178.2190  141.3090 O   0  0  0  0  0  1  0  0  0  0  0  0
  187.5100  175.9680  140.3700 O   0  0  0  0  0  0  0  0  0  0  0  0
  185.4820  178.1410  140.3220 S   0  0  0  0  0  1  0  0  0  0  0  0
  187.1260  177.1560  141.2200 P   0  0  1  0  0  0  0  0  0  0  0  0
  1  2  1  0  0  0  0
  2  4  1  0  0  0  0
  2  5  1  0  0  0  0
  2  3  1  0  0  0  0
  3 33  1  6  0  0  0
  5  6  1  6  0  0  0
  5  3  1  0  0  0  0
  7 14  1  0  0  0  0
  9 10  1  1  0  0  0
 11  8  1  6  0  0  0
 11 15  1  0  0  0  0
 11  9  1  0  0  0  0
 11 10  1  0  0  0  0
 12  6  1  6  0  0  0
 12  9  1  0  0  0  0
 13  7  1  0  0  0  0
 13 12  1  0  0  0  0
 14 16  1  1  0  0  0
 14 15  1  0  0  0  0
 17 18  1  1  0  0  0
 17 13  1  0  0  0  0
 19 17  1  0  0  0  0
 20 19  1  0  0  0  0
 21 20  1  0  0  0  0
 21 19  1  0  0  0  0
 22 26  1  0  0  0  0
 23 27  1  0  0  0  0
 24 22  1  0  0  0  0
 24 25  2  0  0  0  0
 25 23  1  0  0  0  0
 26 23  2  0  0  0  0
 26 19  1  0  0  0  0
 29 28  2  0  0  0  0
 29 27  1  0  0  0  0
 30 31  1  0  0  0  0
 30 29  1  0  0  0  0
 30 32  1  0  0  0  0
 31 32  1  0  0  0  0
 34 35  1  1  0  0  0
 34 37  1  0  0  0  0
 36 33  1  6  0  0  0
 36 34  1  0  0  0  0
 36 35  1  0  0  0  0
 37 42  1  0  0  0  0
 37 39  1  1  0  0  0
 38 37  1  0  0  0  0
 38 42  1  0  0  0  0
 40 43  1  0  0  0  0
 40 38  1  0  0  0  0
 41 40  2  0  0  0  0
 42 39  1  1  0  0  0
 45 44  1  1  0  0  0
 47 46  1  6  0  0  0
 47 45  1  0  0  0  0
 47 44  1  0  0  0  0
 48 43  1  1  0  0  0
 48 45  1  0  0  0  0
 49 50  1  6  0  0  0
 49 46  1  0  0  0  0
 49 48  1  0  0  0  0
 51 50  1  0  0  0  0
 53 55  2  0  0  0  0
 55 54  1  6  0  0  0
 55 52  1  0  0  0  0
 55 51  1  0  0  0  0
M  END
>  <MODEL>
4

>  <REMARK>
 VINA RESULT:      -6.6      1.681      2.185
  Name = 
  16 active torsions:
  status: ('A' for Active; 'I' for Inactive)
    1  A    between atoms: C_3  and  O_34
    2  A    between atoms: C_3  and  C_54
    3  A    between atoms: C_4  and  C_36
    4  A    between atoms: C_4  and  C_43
    5  A    between atoms: C_5  and  C_27
    6  A    between atoms: C_5  and  C_31
    7  A    between atoms: O_10  and  C_13
    8  A    between atoms: O_10  and  C_55
    9  A    between atoms: C_12  and  C_55
   10  A    between atoms: C_14  and  C_18
   11  A    between atoms: C_24  and  C_37
   12  A    between atoms: C_24  and  C_51
   13  A    between atoms: C_29  and  C_53
   14  A    between atoms: C_31  and  N_38
   15  A    between atoms: O_34  and  P_46
   16  A    between atoms: C_40  and  C_53
                            x       y       z     vdW  Elec       q    Type
                         _______ _______ _______ _____ _____    ______ ____

>  <TORSDO>
F 16

$$$$
=
 OpenBabel11062418373D

 55 65  0  0  1  0  0  0  0  0999 V2000
  196.7060  176.4260  143.7600 O   0  0  0  0  0  1  0  0  0  0  0  0
  196.7080  175.0540  144.0480 C   0  0  0  0  0  0  0  0  0  0  0  0
  195.4200  174.4340  144.5520 C   0  0  2  0  0  3  0  0  0  0  0  0
  197.8790  174.5240  144.5900 O   0  0  0  0  0  1  0  0  0  0  0  0
  195.9340  174.1270  143.1260 C   0  0  1  0  0  3  0  0  0  0  0  0
  195.2450  174.9000  141.9980 C   0  0  0  0  0  2  0  0  0  0  0  0
  194.4560  171.6890  140.0750 C   0  0  0  0  0  2  0  0  0  0  0  0
  197.2340  173.8470  140.0270 C   0  0  0  0  0  1  0  0  0  0  0  0
  194.5930  174.3820  139.5850 C   0  0  1  0  0  3  0  0  0  0  0  0
  195.5750  175.2890  138.8470 C   0  0  0  0  0  2  0  0  0  0  0  0
  195.9800  173.8720  139.1460 C   0  0  1  0  0  0  0  0  0  0  0  0
  194.4620  173.9720  141.0600 C   0  0  1  0  0  3  0  0  0  0  0  0
  194.7730  172.5270  141.2600 N   0  0  0  0  0  0  0  0  0  0  0  0
  195.6310  171.6350  139.0610 C   0  0  2  0  0  3  0  0  0  0  0  0
  195.7670  172.8050  138.2610 O   0  0  0  0  0  0  0  0  0  0  0  0
  195.4420  170.4340  138.1570 C   0  0  0  0  0  1  0  0  0  0  0  0
  194.0450  172.0240  142.4420 C   0  0  2  0  0  3  0  0  0  0  0  0
  194.5350  170.6380  142.8390 C   0  0  0  0  0  1  0  0  0  0  0  0
  192.5060  172.1180  142.3670 C   0  0  0  0  0  0  0  0  0  0  0  0
  191.8780  173.4320  142.7800 C   0  0  0  0  0  2  0  0  0  0  0  0
  191.8510  172.2430  143.7250 C   0  0  0  0  0  2  0  0  0  0  0  0
  191.4590  170.0220  141.5080 O   0  0  0  0  0  0  0  0  0  0  0  0
  191.1080  171.7480  140.2400 C   0  0  0  0  0  0  0  0  0  0  0  0
  190.7320  169.5960  140.5140 N   0  0  0  0  0  0  0  0  0  0  0  0
  190.4860  170.6400  139.6930 C   0  0  0  0  0  3  0  0  0  0  0  0
  191.7120  171.3030  141.3900 C   0  0  0  0  0  0  0  0  0  0  0  0
  191.1320  173.0640  139.7570 O   0  0  0  0  0  0  0  0  0  0  0  0
  189.6580  173.6280  138.0610 O   0  0  0  0  0  0  0  0  0  0  0  0
  190.8450  173.4420  138.4430 C   0  0  0  0  0  0  0  0  0  0  0  0
  191.9710  173.5810  137.4660 C   0  0  0  0  0  3  0  0  0  0  0  0
  191.4780  173.2120  136.0770 C   0  0  0  0  0  2  0  0  0  0  0  0
  192.3240  172.2320  136.8590 C   0  0  0  0  0  2  0  0  0  0  0  0
  194.2500  175.4240  144.6060 C   0  0  0  0  0  2  0  0  0  0  0  0
  192.3780  176.2600  145.9990 C   0  0  1  0  0  3  0  0  0  0  0  0
  193.5980  176.1210  146.8880 C   0  0  0  0  0  2  0  0  0  0  0  0
  193.3510  175.1110  145.7900 C   0  0  2  0  0  3  0  0  0  0  0  0
  191.1470  175.7730  146.7470 C   0  0  1  0  0  0  0  0  0  0  0  0
  189.8680  176.4050  146.2960 N   0  0  0  0  0  0  0  0  0  0  0  0
  191.2730  175.7550  148.2470 C   0  0  0  0  0  2  0  0  0  0  0  0
  188.7730  176.5050  145.3920 C   0  0  0  0  0  0  0  0  0  0  0  0
  188.6530  175.6700  144.4620 O   0  0  0  0  0  0  0  0  0  0  0  0
  190.6880  176.8900  147.4480 C   0  0  1  0  0  3  0  0  0  0  0  0
  187.7450  177.5700  145.5660 C   0  0  0  0  0  2  0  0  0  0  0  0
  185.9740  178.7350  147.4330 O   0  0  0  0  0  0  0  0  0  0  0  0
  185.8600  177.3430  147.2250 C   0  0  1  0  0  3  0  0  0  0  0  0
  184.5530  178.5050  145.5320 C   0  0  0  0  0  2  0  0  0  0  0  0
  184.7120  178.2680  147.0260 C   0  0  2  0  0  3  0  0  0  0  0  0
  186.3750  176.9440  145.8390 C   0  0  1  0  0  3  0  0  0  0  0  0
  185.2870  177.3710  144.8610 C   0  0  2  0  0  3  0  0  0  0  0  0
  185.7750  177.7380  143.4620 C   0  0  0  0  0  2  0  0  0  0  0  0
  185.9390  176.5830  142.6950 O   0  0  0  0  0  0  0  0  0  0  0  0
  186.2750  177.6150  140.1320 O   0  0  0  0  0  0  0  0  0  0  0  0
  188.0100  178.0410  142.0370 O   0  0  0  0  0  1  0  0  0  0  0  0
  188.1910  175.2840  140.9360 S   0  0  0  0  0  1  0  0  0  0  0  0
  187.0690  176.9900  141.4930 P   0  0  1  0  0  0  0  0  0  0  0  0
  1  2  1  0  0  0  0
  2  3  1  0  0  0  0
  2  4  1  0  0  0  0
  3 33  1  6  0  0  0
  5  6  1  6  0  0  0
  5  2  1  0  0  0  0
  5  3  1  0  0  0  0
  7 13  1  0  0  0  0
  9 10  1  1  0  0  0
  9 12  1  0  0  0  0
 10 11  1  0  0  0  0
 11  9  1  0  0  0  0
 11  8  1  1  0  0  0
 12 13  1  0  0  0  0
 12  6  1  1  0  0  0
 13 17  1  0  0  0  0
 14 16  1  6  0  0  0
 14  7  1  0  0  0  0
 15 14  1  0  0  0  0
 15 11  1  0  0  0  0
 17 18  1  6  0  0  0
 19 17  1  0  0  0  0
 19 20  1  0  0  0  0
 19 21  1  0  0  0  0
 20 21  1  0  0  0  0
 23 26  2  0  0  0  0
 24 22  1  0  0  0  0
 25 23  1  0  0  0  0
 25 24  2  0  0  0  0
 26 22  1  0  0  0  0
 26 19  1  0  0  0  0
 27 23  1  0  0  0  0
 28 29  2  0  0  0  0
 29 27  1  0  0  0  0
 30 29  1  0  0  0  0
 31 32  1  0  0  0  0
 31 30  1  0  0  0  0
 32 30  1  0  0  0  0
 34 37  1  0  0  0  0
 34 35  1  1  0  0  0
 36 33  1  6  0  0  0
 36 34  1  0  0  0  0
 36 35  1  0  0  0  0
 37 42  1  0  0  0  0
 37 39  1  1  0  0  0
 38 37  1  0  0  0  0
 38 42  1  0  0  0  0
 40 43  1  0  0  0  0
 40 38  1  0  0  0  0
 41 40  2  0  0  0  0
 42 39  1  1  0  0  0
 45 44  1  1  0  0  0
 47 46  1  6  0  0  0
 47 45  1  0  0  0  0
 47 44  1  0  0  0  0
 48 43  1  6  0  0  0
 48 45  1  0  0  0  0
 49 50  1  6  0  0  0
 49 46  1  0  0  0  0
 49 48  1  0  0  0  0
 51 50  1  0  0  0  0
 54 55  1  0  0  0  0
 55 52  2  6  0  0  0
 55 53  1  0  0  0  0
 55 51  1  0  0  0  0
M  END
>  <MODEL>
5

>  <REMARK>
 VINA RESULT:      -6.5      2.147      3.968
  Name = 
  16 active torsions:
  status: ('A' for Active; 'I' for Inactive)
    1  A    between atoms: C_3  and  O_34
    2  A    between atoms: C_3  and  C_54
    3  A    between atoms: C_4  and  C_36
    4  A    between atoms: C_4  and  C_43
    5  A    between atoms: C_5  and  C_27
    6  A    between atoms: C_5  and  C_31
    7  A    between atoms: O_10  and  C_13
    8  A    between atoms: O_10  and  C_55
    9  A    between atoms: C_12  and  C_55
   10  A    between atoms: C_14  and  C_18
   11  A    between atoms: C_24  and  C_37
   12  A    between atoms: C_24  and  C_51
   13  A    between atoms: C_29  and  C_53
   14  A    between atoms: C_31  and  N_38
   15  A    between atoms: O_34  and  P_46
   16  A    between atoms: C_40  and  C_53
                            x       y       z     vdW  Elec       q    Type
                         _______ _______ _______ _____ _____    ______ ____

>  <TORSDO>
F 16

$$$$
=
 OpenBabel11062418373D

 55 65  0  0  1  0  0  0  0  0999 V2000
  195.5790  176.7600  141.9450 O   0  0  0  0  0  1  0  0  0  0  0  0
  196.2790  176.1510  142.9950 C   0  0  0  0  0  0  0  0  0  0  0  0
  195.5570  175.9680  144.3160 C   0  0  2  0  0  3  0  0  0  0  0  0
  197.6420  176.4310  143.0940 O   0  0  0  0  0  1  0  0  0  0  0  0
  195.8660  174.7490  143.4150 C   0  0  1  0  0  3  0  0  0  0  0  0
  194.6910  174.2350  142.5800 C   0  0  0  0  0  2  0  0  0  0  0  0
  193.6200  170.7650  141.3790 C   0  0  0  0  0  2  0  0  0  0  0  0
  192.6070  172.7330  144.1130 C   0  0  0  0  0  1  0  0  0  0  0  0
  195.0970  171.8560  143.4140 C   0  0  1  0  0  3  0  0  0  0  0  0
  194.8730  172.0610  144.9110 C   0  0  0  0  0  2  0  0  0  0  0  0
  193.7050  171.6660  144.0500 C   0  0  1  0  0  0  0  0  0  0  0  0
  194.8610  172.7600  142.1940 C   0  0  1  0  0  3  0  0  0  0  0  0
  193.7600  172.2430  141.3300 N   0  0  0  0  0  0  0  0  0  0  0  0
  192.7050  170.2990  142.5440 C   0  0  2  0  0  3  0  0  0  0  0  0
  193.3270  170.3350  143.8250 O   0  0  0  0  0  0  0  0  0  0  0  0
  192.2320  168.8880  142.2610 C   0  0  0  0  0  1  0  0  0  0  0  0
  193.9780  172.6820  139.9370 C   0  0  2  0  0  3  0  0  0  0  0  0
  194.1050  174.1960  139.8520 C   0  0  0  0  0  1  0  0  0  0  0  0
  192.9980  172.1030  138.8940 C   0  0  0  0  0  0  0  0  0  0  0  0
  192.9750  170.5970  138.7350 C   0  0  0  0  0  2  0  0  0  0  0  0
  193.6940  171.4620  137.7130 C   0  0  0  0  0  2  0  0  0  0  0  0
  191.4060  173.2110  137.3240 O   0  0  0  0  0  0  0  0  0  0  0  0
  190.6880  173.1310  139.3710 C   0  0  0  0  0  0  0  0  0  0  0  0
  190.2310  173.7770  137.3160 N   0  0  0  0  0  0  0  0  0  0  0  0
  189.7420  173.7510  138.5750 C   0  0  0  0  0  3  0  0  0  0  0  0
  191.7260  172.8090  138.5300 C   0  0  0  0  0  0  0  0  0  0  0  0
  190.6350  172.8640  140.7460 O   0  0  0  0  0  0  0  0  0  0  0  0
  190.8890  174.8880  141.8440 O   0  0  0  0  0  0  0  0  0  0  0  0
  190.2800  173.7900  141.7300 C   0  0  0  0  0  0  0  0  0  0  0  0
  189.1870  173.4450  142.6920 C   0  0  0  0  0  3  0  0  0  0  0  0
  189.0470  171.9340  142.7720 C   0  0  0  0  0  2  0  0  0  0  0  0
  188.0450  172.7400  141.9750 C   0  0  0  0  0  2  0  0  0  0  0  0
  194.0950  176.4320  144.2780 C   0  0  0  0  0  2  0  0  0  0  0  0
  192.5840  176.6590  146.2290 C   0  0  1  0  0  3  0  0  0  0  0  0
  193.8330  175.9350  146.6880 C   0  0  0  0  0  2  0  0  0  0  0  0
  193.2760  175.6710  145.3060 C   0  0  2  0  0  3  0  0  0  0  0  0
  191.3610  176.0160  146.8630 C   0  0  1  0  0  0  0  0  0  0  0  0
  190.0600  176.5990  146.4120 N   0  0  0  0  0  0  0  0  0  0  0  0
  191.4240  175.8580  148.3590 C   0  0  0  0  0  2  0  0  0  0  0  0
  188.9990  176.7110  145.4690 C   0  0  0  0  0  0  0  0  0  0  0  0
  188.9820  175.9660  144.4580 O   0  0  0  0  0  0  0  0  0  0  0  0
  190.7900  177.0220  147.6450 C   0  0  1  0  0  3  0  0  0  0  0  0
  187.8880  177.6780  145.6930 C   0  0  0  0  0  2  0  0  0  0  0  0
  186.0610  179.1700  147.2470 O   0  0  0  0  0  0  0  0  0  0  0  0
  186.2440  177.8140  147.5990 C   0  0  1  0  0  3  0  0  0  0  0  0
  184.5760  177.9550  145.8320 C   0  0  0  0  0  2  0  0  0  0  0  0
  184.9060  178.3680  147.2570 C   0  0  2  0  0  3  0  0  0  0  0  0
  186.7190  176.9890  146.4010 C   0  0  1  0  0  3  0  0  0  0  0  0
  185.4870  176.7920  145.5260 C   0  0  2  0  0  3  0  0  0  0  0  0
  185.7650  176.6460  144.0320 C   0  0  0  0  0  2  0  0  0  0  0  0
  184.9400  177.5070  143.3060 O   0  0  0  0  0  0  0  0  0  0  0  0
  184.8870  178.3670  140.6590 O   0  0  0  0  0  0  0  0  0  0  0  0
  186.6010  179.3090  142.3900 O   0  0  0  0  0  1  0  0  0  0  0  0
  187.3090  176.5710  141.4720 S   0  0  0  0  0  1  0  0  0  0  0  0
  185.8790  178.0420  141.9950 P   0  0  1  0  0  0  0  0  0  0  0  0
  1  2  1  0  0  0  0
  2  4  1  0  0  0  0
  2  5  1  0  0  0  0
  2  3  1  0  0  0  0
  3 33  1  6  0  0  0
  5  6  1  6  0  0  0
  5  3  1  0  0  0  0
  7 14  1  0  0  0  0
  9 11  1  0  0  0  0
  9 10  1  1  0  0  0
 11  8  1  6  0  0  0
 11 10  1  0  0  0  0
 12  6  1  1  0  0  0
 12  9  1  0  0  0  0
 13  7  1  0  0  0  0
 13 12  1  0  0  0  0
 14 16  1  6  0  0  0
 14 15  1  0  0  0  0
 15 11  1  0  0  0  0
 17 18  1  1  0  0  0
 17 13  1  0  0  0  0
 19 17  1  0  0  0  0
 20 19  1  0  0  0  0
 21 20  1  0  0  0  0
 21 19  1  0  0  0  0
 22 26  1  0  0  0  0
 23 27  1  0  0  0  0
 24 22  1  0  0  0  0
 24 25  2  0  0  0  0
 25 23  1  0  0  0  0
 26 19  1  0  0  0  0
 26 23  2  0  0  0  0
 27 29  1  0  0  0  0
 29 28  2  0  0  0  0
 29 30  1  0  0  0  0
 30 31  1  0  0  0  0
 32 30  1  0  0  0  0
 32 31  1  0  0  0  0
 34 35  1  1  0  0  0
 34 37  1  0  0  0  0
 36 33  1  6  0  0  0
 36 34  1  0  0  0  0
 36 35  1  0  0  0  0
 37 42  1  0  0  0  0
 37 39  1  1  0  0  0
 38 37  1  0  0  0  0
 38 42  1  0  0  0  0
 40 43  1  0  0  0  0
 40 38  1  0  0  0  0
 41 40  2  0  0  0  0
 42 39  1  1  0  0  0
 44 47  1  0  0  0  0
 45 44  1  6  0  0  0
 47 46  1  6  0  0  0
 47 45  1  0  0  0  0
 48 43  1  6  0  0  0
 48 45  1  0  0  0  0
 49 50  1  6  0  0  0
 49 46  1  0  0  0  0
 49 48  1  0  0  0  0
 51 50  1  0  0  0  0
 54 55  1  0  0  0  0
 55 52  2  6  0  0  0
 55 53  1  0  0  0  0
 55 51  1  0  0  0  0
M  END
>  <MODEL>
6

>  <REMARK>
 VINA RESULT:      -6.4      1.890      2.529
  Name = 
  16 active torsions:
  status: ('A' for Active; 'I' for Inactive)
    1  A    between atoms: C_3  and  O_34
    2  A    between atoms: C_3  and  C_54
    3  A    between atoms: C_4  and  C_36
    4  A    between atoms: C_4  and  C_43
    5  A    between atoms: C_5  and  C_27
    6  A    between atoms: C_5  and  C_31
    7  A    between atoms: O_10  and  C_13
    8  A    between atoms: O_10  and  C_55
    9  A    between atoms: C_12  and  C_55
   10  A    between atoms: C_14  and  C_18
   11  A    between atoms: C_24  and  C_37
   12  A    between atoms: C_24  and  C_51
   13  A    between atoms: C_29  and  C_53
   14  A    between atoms: C_31  and  N_38
   15  A    between atoms: O_34  and  P_46
   16  A    between atoms: C_40  and  C_53
                            x       y       z     vdW  Elec       q    Type
                         _______ _______ _______ _____ _____    ______ ____

>  <TORSDO>
F 16

$$$$
=
 OpenBabel11062418373D

 55 65  0  0  1  0  0  0  0  0999 V2000
  193.4220  175.9170  146.9100 O   0  0  0  0  0  1  0  0  0  0  0  0
  194.1930  176.4730  145.8800 C   0  0  0  0  0  0  0  0  0  0  0  0
  195.2750  175.6100  145.2600 C   0  0  2  0  0  3  0  0  0  0  0  0
  194.4960  177.8320  145.9780 O   0  0  0  0  0  1  0  0  0  0  0  0
  193.9890  175.9480  144.4680 C   0  0  1  0  0  3  0  0  0  0  0  0
  192.9340  174.8400  144.4260 C   0  0  0  0  0  2  0  0  0  0  0  0
  189.2580  174.6640  143.3840 C   0  0  0  0  0  2  0  0  0  0  0  0
  192.0200  172.6140  142.6490 C   0  0  0  0  0  1  0  0  0  0  0  0
  191.6740  175.2930  142.2520 C   0  0  1  0  0  3  0  0  0  0  0  0
  192.6060  174.6010  141.2590 C   0  0  0  0  0  2  0  0  0  0  0  0
  191.4770  173.8130  141.8660 C   0  0  1  0  0  0  0  0  0  0  0  0
  191.6230  175.3180  143.7880 C   0  0  1  0  0  3  0  0  0  0  0  0
  190.4170  174.6110  144.3100 N   0  0  0  0  0  0  0  0  0  0  0  0
  189.2830  173.5120  142.3430 C   0  0  2  0  0  3  0  0  0  0  0  0
  190.2080  173.7060  141.2780 O   0  0  0  0  0  0  0  0  0  0  0  0
  187.8920  173.3430  141.7670 C   0  0  0  0  0  1  0  0  0  0  0  0
  190.0410  175.1780  145.6200 C   0  0  2  0  0  3  0  0  0  0  0  0
  189.3570  174.1360  146.4940 C   0  0  0  0  0  1  0  0  0  0  0  0
  189.2740  176.5170  145.5720 C   0  0  0  0  0  0  0  0  0  0  0  0
  189.6860  177.5060  144.5020 C   0  0  0  0  0  2  0  0  0  0  0  0
  190.1320  177.7080  145.9400 C   0  0  0  0  0  2  0  0  0  0  0  0
  187.4730  176.6050  147.2970 O   0  0  0  0  0  0  0  0  0  0  0  0
  186.7360  176.7990  145.2650 C   0  0  0  0  0  0  0  0  0  0  0  0
  186.1810  176.7440  147.3950 N   0  0  0  0  0  0  0  0  0  0  0  0
  185.6740  176.8680  146.1490 C   0  0  0  0  0  3  0  0  0  0  0  0
  187.8550  176.6310  146.0430 C   0  0  0  0  0  0  0  0  0  0  0  0
  186.7160  176.8860  143.8650 O   0  0  0  0  0  0  0  0  0  0  0  0
  185.8410  179.0250  143.7000 O   0  0  0  0  0  0  0  0  0  0  0  0
  186.3630  178.0250  143.1370 C   0  0  0  0  0  0  0  0  0  0  0  0
  186.5680  178.0310  141.6540 C   0  0  0  0  0  3  0  0  0  0  0  0
  187.2170  176.7240  141.2320 C   0  0  0  0  0  2  0  0  0  0  0  0
  188.0510  177.9830  141.3180 C   0  0  0  0  0  2  0  0  0  0  0  0
  195.3150  174.1860  145.8280 C   0  0  0  0  0  2  0  0  0  0  0  0
  196.1810  172.3660  144.3850 C   0  0  1  0  0  3  0  0  0  0  0  0
  196.5280  172.0290  145.8210 C   0  0  0  0  0  2  0  0  0  0  0  0
  196.5680  173.4680  145.3560 C   0  0  2  0  0  3  0  0  0  0  0  0
  197.3560  172.0240  143.4840 C   0  0  1  0  0  0  0  0  0  0  0  0
  197.1950  172.4790  142.0690 N   0  0  0  0  0  0  0  0  0  0  0  0
  197.8370  170.5990  143.5710 C   0  0  0  0  0  2  0  0  0  0  0  0
  197.2500  173.4870  141.0650 C   0  0  0  0  0  0  0  0  0  0  0  0
  197.6840  174.6310  141.3530 O   0  0  0  0  0  0  0  0  0  0  0  0
  196.8460  171.1110  142.5590 C   0  0  1  0  0  3  0  0  0  0  0  0
  196.8370  173.1840  139.6660 C   0  0  0  0  0  2  0  0  0  0  0  0
  197.9400  174.8030  137.6310 O   0  0  0  0  0  0  0  0  0  0  0  0
  196.9800  175.4020  138.4770 C   0  0  1  0  0  3  0  0  0  0  0  0
  195.8300  174.2380  136.6760 C   0  0  0  0  0  2  0  0  0  0  0  0
  196.8110  175.3540  136.9990 C   0  0  2  0  0  3  0  0  0  0  0  0
  196.0420  174.3550  139.0820 C   0  0  1  0  0  3  0  0  0  0  0  0
  195.0880  173.9650  137.9600 C   0  0  2  0  0  3  0  0  0  0  0  0
  194.5470  172.5390  138.0310 C   0  0  0  0  0  2  0  0  0  0  0  0
  193.5990  172.4370  139.0510 O   0  0  0  0  0  0  0  0  0  0  0  0
  191.2650  173.5880  138.0650 O   0  0  0  0  0  1  0  0  0  0  0  0
  192.3910  171.5310  136.9140 O   0  0  0  0  0  0  0  0  0  0  0  0
  190.9540  170.7860  139.4080 S   0  0  0  0  0  1  0  0  0  0  0  0
  192.1200  172.1380  138.2710 P   0  0  1  0  0  0  0  0  0  0  0  0
  2  4  1  0  0  0  0
  2  1  1  0  0  0  0
  3 33  1  1  0  0  0
  3  2  1  0  0  0  0
  5  6  1  1  0  0  0
  5  3  1  0  0  0  0
  5  2  1  0  0  0  0
  7 13  1  0  0  0  0
  9 10  1  1  0  0  0
  9 12  1  0  0  0  0
 10 11  1  0  0  0  0
 11  9  1  0  0  0  0
 11  8  1  1  0  0  0
 12 13  1  0  0  0  0
 12  6  1  1  0  0  0
 13 17  1  0  0  0  0
 14 16  1  6  0  0  0
 14  7  1  0  0  0  0
 15 11  1  0  0  0  0
 15 14  1  0  0  0  0
 17 18  1  6  0  0  0
 19 17  1  0  0  0  0
 19 21  1  0  0  0  0
 19 26  1  0  0  0  0
 20 19  1  0  0  0  0
 20 21  1  0  0  0  0
 22 24  1  0  0  0  0
 23 26  2  0  0  0  0
 23 25  1  0  0  0  0
 25 24  2  0  0  0  0
 26 22  1  0  0  0  0
 27 23  1  0  0  0  0
 29 28  2  0  0  0  0
 29 27  1  0  0  0  0
 30 29  1  0  0  0  0
 31 32  1  0  0  0  0
 31 30  1  0  0  0  0
 32 30  1  0  0  0  0
 34 36  1  0  0  0  0
 34 35  1  1  0  0  0
 36 35  1  0  0  0  0
 36 33  1  1  0  0  0
 37 39  1  1  0  0  0
 37 34  1  0  0  0  0
 38 42  1  0  0  0  0
 38 37  1  0  0  0  0
 40 41  2  0  0  0  0
 40 38  1  0  0  0  0
 42 37  1  0  0  0  0
 42 39  1  6  0  0  0
 43 40  1  0  0  0  0
 45 44  1  6  0  0  0
 45 48  1  0  0  0  0
 46 49  1  0  0  0  0
 47 46  1  1  0  0  0
 47 44  1  0  0  0  0
 47 45  1  0  0  0  0
 48 43  1  6  0  0  0
 49 50  1  1  0  0  0
 49 48  1  0  0  0  0
 50 51  1  0  0  0  0
 52 55  1  0  0  0  0
 55 53  2  6  0  0  0
 55 51  1  0  0  0  0
 55 54  1  0  0  0  0
M  END
>  <MODEL>
7

>  <REMARK>
 VINA RESULT:      -6.3      2.838      9.040
  Name = 
  16 active torsions:
  status: ('A' for Active; 'I' for Inactive)
    1  A    between atoms: C_3  and  O_34
    2  A    between atoms: C_3  and  C_54
    3  A    between atoms: C_4  and  C_36
    4  A    between atoms: C_4  and  C_43
    5  A    between atoms: C_5  and  C_27
    6  A    between atoms: C_5  and  C_31
    7  A    between atoms: O_10  and  C_13
    8  A    between atoms: O_10  and  C_55
    9  A    between atoms: C_12  and  C_55
   10  A    between atoms: C_14  and  C_18
   11  A    between atoms: C_24  and  C_37
   12  A    between atoms: C_24  and  C_51
   13  A    between atoms: C_29  and  C_53
   14  A    between atoms: C_31  and  N_38
   15  A    between atoms: O_34  and  P_46
   16  A    between atoms: C_40  and  C_53
                            x       y       z     vdW  Elec       q    Type
                         _______ _______ _______ _____ _____    ______ ____

>  <TORSDO>
F 16

$$$$
=
 OpenBabel11062418373D

 55 65  0  0  1  0  0  0  0  0999 V2000
  195.8470  172.8500  145.7200 O   0  0  0  0  0  1  0  0  0  0  0  0
  194.7180  172.0790  145.4100 C   0  0  0  0  0  0  0  0  0  0  0  0
  193.4070  172.8050  145.1740 C   0  0  2  0  0  3  0  0  0  0  0  0
  194.6090  170.8370  146.0340 O   0  0  0  0  0  1  0  0  0  0  0  0
  194.1670  172.1530  143.9950 C   0  0  1  0  0  3  0  0  0  0  0  0
  194.9780  173.1140  143.1240 C   0  0  0  0  0  2  0  0  0  0  0  0
  194.5880  173.4500  139.3330 C   0  0  0  0  0  2  0  0  0  0  0  0
  196.8100  174.9390  141.6180 C   0  0  0  0  0  1  0  0  0  0  0  0
  194.0790  174.9380  141.5790 C   0  0  1  0  0  3  0  0  0  0  0  0
  194.7220  176.1660  142.2200 C   0  0  0  0  0  2  0  0  0  0  0  0
  195.4570  175.4550  141.1170 C   0  0  1  0  0  0  0  0  0  0  0  0
  194.2690  173.4290  141.8000 C   0  0  1  0  0  3  0  0  0  0  0  0
  194.9040  172.7750  140.6180 N   0  0  0  0  0  0  0  0  0  0  0  0
  195.5740  174.6070  139.0190 C   0  0  2  0  0  3  0  0  0  0  0  0
  195.3350  175.7980  139.7630 O   0  0  0  0  0  0  0  0  0  0  0  0
  195.5020  174.9230  137.5390 C   0  0  0  0  0  1  0  0  0  0  0  0
  194.4910  171.3590  140.5570 C   0  0  2  0  0  3  0  0  0  0  0  0
  195.3300  170.5860  139.5480 C   0  0  0  0  0  1  0  0  0  0  0  0
  192.9760  171.1110  140.3930 C   0  0  0  0  0  0  0  0  0  0  0  0
  192.1970  170.7670  141.6450 C   0  0  0  0  0  2  0  0  0  0  0  0
  192.5750  169.6760  140.6570 C   0  0  0  0  0  2  0  0  0  0  0  0
  192.2070  171.4120  138.0380 O   0  0  0  0  0  0  0  0  0  0  0  0
  191.3000  172.8090  139.4310 C   0  0  0  0  0  0  0  0  0  0  0  0
  191.4010  172.1530  137.3310 N   0  0  0  0  0  0  0  0  0  0  0  0
  190.8110  173.0430  138.1580 C   0  0  0  0  0  3  0  0  0  0  0  0
  192.1840  171.7650  139.3010 C   0  0  0  0  0  0  0  0  0  0  0  0
  190.9820  173.4700  140.6260 O   0  0  0  0  0  0  0  0  0  0  0  0
  188.7050  173.0400  140.6080 O   0  0  0  0  0  0  0  0  0  0  0  0
  189.7100  173.5200  141.2000 C   0  0  0  0  0  0  0  0  0  0  0  0
  189.5370  174.2000  142.5220 C   0  0  0  0  0  3  0  0  0  0  0  0
  190.8440  174.8630  142.9210 C   0  0  0  0  0  2  0  0  0  0  0  0
  190.4330  173.5630  143.5740 C   0  0  0  0  0  2  0  0  0  0  0  0
  193.5380  174.3320  145.2460 C   0  0  0  0  0  2  0  0  0  0  0  0
  192.2090  176.1120  146.3450 C   0  0  1  0  0  3  0  0  0  0  0  0
  193.6250  176.1890  146.8780 C   0  0  0  0  0  2  0  0  0  0  0  0
  193.0090  174.8410  146.5760 C   0  0  2  0  0  3  0  0  0  0  0  0
  191.2250  176.3260  147.4840 C   0  0  1  0  0  0  0  0  0  0  0  0
  189.8570  176.7380  147.0410 N   0  0  0  0  0  0  0  0  0  0  0  0
  191.7330  177.1740  148.6190 C   0  0  0  0  0  2  0  0  0  0  0  0
  188.5640  176.4350  146.5290 C   0  0  0  0  0  0  0  0  0  0  0  0
  188.2310  175.2380  146.3430 O   0  0  0  0  0  0  0  0  0  0  0  0
  190.9320  177.6910  147.4540 C   0  0  1  0  0  3  0  0  0  0  0  0
  187.5870  177.5250  146.2510 C   0  0  0  0  0  2  0  0  0  0  0  0
  185.6070  179.3280  147.1500 O   0  0  0  0  0  0  0  0  0  0  0  0
  185.4570  177.9740  147.5240 C   0  0  1  0  0  3  0  0  0  0  0  0
  184.4890  178.2970  145.3140 C   0  0  0  0  0  2  0  0  0  0  0  0
  184.4020  178.7090  146.7750 C   0  0  2  0  0  3  0  0  0  0  0  0
  186.1610  177.0440  146.5330 C   0  0  1  0  0  3  0  0  0  0  0  0
  185.2610  177.0010  145.3040 C   0  0  2  0  0  3  0  0  0  0  0  0
  185.9790  176.7600  143.9780 C   0  0  0  0  0  2  0  0  0  0  0  0
  186.0500  177.9490  143.2500 O   0  0  0  0  0  0  0  0  0  0  0  0
  186.9750  175.9040  141.6030 O   0  0  0  0  0  1  0  0  0  0  0  0
  186.3210  178.2520  140.6650 O   0  0  0  0  0  0  0  0  0  0  0  0
  188.9400  178.2850  142.0730 S   0  0  0  0  0  1  0  0  0  0  0  0
  186.9560  177.5800  141.8600 P   0  0  1  0  0  0  0  0  0  0  0  0
  2  1  1  0  0  0  0
  2  4  1  0  0  0  0
  3 33  1  6  0  0  0
  3  2  1  0  0  0  0
  5  6  1  6  0  0  0
  5  3  1  0  0  0  0
  5  2  1  0  0  0  0
  7 13  1  0  0  0  0
  9 12  1  0  0  0  0
  9 10  1  1  0  0  0
 11  9  1  0  0  0  0
 11  8  1  1  0  0  0
 11 10  1  0  0  0  0
 12  6  1  1  0  0  0
 13 12  1  0  0  0  0
 14 16  1  6  0  0  0
 14  7  1  0  0  0  0
 14 15  1  0  0  0  0
 15 11  1  0  0  0  0
 17 18  1  6  0  0  0
 17 13  1  0  0  0  0
 19 17  1  0  0  0  0
 19 21  1  0  0  0  0
 19 20  1  0  0  0  0
 21 20  1  0  0  0  0
 22 26  1  0  0  0  0
 23 27  1  0  0  0  0
 24 22  1  0  0  0  0
 24 25  2  0  0  0  0
 25 23  1  0  0  0  0
 26 23  2  0  0  0  0
 26 19  1  0  0  0  0
 27 29  1  0  0  0  0
 28 29  2  0  0  0  0
 29 30  1  0  0  0  0
 30 31  1  0  0  0  0
 30 32  1  0  0  0  0
 31 32  1  0  0  0  0
 34 36  1  0  0  0  0
 34 35  1  1  0  0  0
 34 37  1  0  0  0  0
 36 33  1  6  0  0  0
 36 35  1  0  0  0  0
 37 39  1  1  0  0  0
 38 42  1  0  0  0  0
 38 37  1  0  0  0  0
 40 38  1  0  0  0  0
 41 40  2  0  0  0  0
 42 37  1  0  0  0  0
 42 39  1  1  0  0  0
 43 40  1  0  0  0  0
 45 44  1  6  0  0  0
 47 46  1  6  0  0  0
 47 44  1  0  0  0  0
 47 45  1  0  0  0  0
 48 43  1  6  0  0  0
 48 45  1  0  0  0  0
 49 50  1  6  0  0  0
 49 46  1  0  0  0  0
 49 48  1  0  0  0  0
 51 50  1  0  0  0  0
 52 55  1  0  0  0  0
 55 53  2  6  0  0  0
 55 54  1  0  0  0  0
 55 51  1  0  0  0  0
M  END
>  <MODEL>
8

>  <REMARK>
 VINA RESULT:      -6.3      1.941      3.617
  Name = 
  16 active torsions:
  status: ('A' for Active; 'I' for Inactive)
    1  A    between atoms: C_3  and  O_34
    2  A    between atoms: C_3  and  C_54
    3  A    between atoms: C_4  and  C_36
    4  A    between atoms: C_4  and  C_43
    5  A    between atoms: C_5  and  C_27
    6  A    between atoms: C_5  and  C_31
    7  A    between atoms: O_10  and  C_13
    8  A    between atoms: O_10  and  C_55
    9  A    between atoms: C_12  and  C_55
   10  A    between atoms: C_14  and  C_18
   11  A    between atoms: C_24  and  C_37
   12  A    between atoms: C_24  and  C_51
   13  A    between atoms: C_29  and  C_53
   14  A    between atoms: C_31  and  N_38
   15  A    between atoms: O_34  and  P_46
   16  A    between atoms: C_40  and  C_53
                            x       y       z     vdW  Elec       q    Type
                         _______ _______ _______ _____ _____    ______ ____

>  <TORSDO>
F 16

$$$$
=
 OpenBabel11062418373D

 55 65  0  0  1  0  0  0  0  0999 V2000
  188.7200  176.2550  141.8580 O   0  0  0  0  0  1  0  0  0  0  0  0
  187.9780  175.1060  142.1640 C   0  0  0  0  0  0  0  0  0  0  0  0
  188.1680  173.8850  141.2850 C   0  0  2  0  0  3  0  0  0  0  0  0
  186.6840  175.2990  142.6470 O   0  0  0  0  0  1  0  0  0  0  0  0
  188.7170  173.9050  142.7310 C   0  0  1  0  0  3  0  0  0  0  0  0
  190.2180  174.1770  142.8600 C   0  0  0  0  0  2  0  0  0  0  0  0
  193.0070  172.6890  145.0130 C   0  0  0  0  0  2  0  0  0  0  0  0
  192.9360  173.7890  141.6730 C   0  0  0  0  0  1  0  0  0  0  0  0
  191.4010  171.9150  142.9310 C   0  0  1  0  0  3  0  0  0  0  0  0
  191.6180  171.6840  141.4380 C   0  0  0  0  0  2  0  0  0  0  0  0
  192.6900  172.3820  142.2280 C   0  0  1  0  0  0  0  0  0  0  0  0
  190.9190  173.1320  143.7380 C   0  0  1  0  0  3  0  0  0  0  0  0
  192.0110  173.7020  144.5800 N   0  0  0  0  0  0  0  0  0  0  0  0
  194.1380  172.4920  143.9670 C   0  0  2  0  0  3  0  0  0  0  0  0
  193.7600  171.7110  142.8380 O   0  0  0  0  0  0  0  0  0  0  0  0
  195.3250  171.8390  144.6470 C   0  0  0  0  0  1  0  0  0  0  0  0
  191.4270  174.3700  145.7600 C   0  0  2  0  0  3  0  0  0  0  0  0
  189.9430  174.0580  145.8880 C   0  0  0  0  0  1  0  0  0  0  0  0
  191.7370  175.8760  145.8950 C   0  0  0  0  0  0  0  0  0  0  0  0
  192.9010  176.2600  146.7840 C   0  0  0  0  0  2  0  0  0  0  0  0
  191.4750  176.4160  147.2840 C   0  0  0  0  0  2  0  0  0  0  0  0
  192.1710  177.0940  143.7610 O   0  0  0  0  0  0  0  0  0  0  0  0
  190.2810  177.6220  144.6900 C   0  0  0  0  0  0  0  0  0  0  0  0
  191.6170  177.9740  142.9750 N   0  0  0  0  0  0  0  0  0  0  0  0
  190.4320  178.3350  143.5150 C   0  0  0  0  0  3  0  0  0  0  0  0
  191.4130  176.8500  144.8020 C   0  0  0  0  0  0  0  0  0  0  0  0
  189.2130  177.6470  145.5980 O   0  0  0  0  0  0  0  0  0  0  0  0
  187.3060  178.2020  144.4060 O   0  0  0  0  0  0  0  0  0  0  0  0
  187.8690  177.4670  145.2610 C   0  0  0  0  0  0  0  0  0  0  0  0
  187.0800  176.4090  145.9660 C   0  0  0  0  0  3  0  0  0  0  0  0
  185.6130  176.8040  145.9830 C   0  0  0  0  0  2  0  0  0  0  0  0
  186.4480  176.9670  147.2330 C   0  0  0  0  0  2  0  0  0  0  0  0
  189.2330  174.0790  140.1980 C   0  0  0  0  0  2  0  0  0  0  0  0
  190.0340  173.3000  137.9860 C   0  0  1  0  0  3  0  0  0  0  0  0
  188.5350  173.5060  137.8950 C   0  0  0  0  0  2  0  0  0  0  0  0
  189.1430  172.9650  139.1700 C   0  0  2  0  0  3  0  0  0  0  0  0
  190.4180  172.0300  137.2440 C   0  0  1  0  0  0  0  0  0  0  0  0
  191.8830  171.9010  136.9710 N   0  0  0  0  0  0  0  0  0  0  0  0
  189.5850  171.7220  136.0280 C   0  0  0  0  0  2  0  0  0  0  0  0
  193.2070  171.5720  137.3780 C   0  0  0  0  0  0  0  0  0  0  0  0
  193.4050  171.0780  138.5160 O   0  0  0  0  0  0  0  0  0  0  0  0
  190.8930  172.4680  136.0060 C   0  0  1  0  0  3  0  0  0  0  0  0
  194.3550  171.7710  136.4490 C   0  0  0  0  0  2  0  0  0  0  0  0
  195.6450  170.1690  134.5130 O   0  0  0  0  0  0  0  0  0  0  0  0
  195.6630  169.7020  135.8460 C   0  0  1  0  0  3  0  0  0  0  0  0
  197.5090  171.2570  135.5260 C   0  0  0  0  0  2  0  0  0  0  0  0
  196.9130  169.9330  135.0720 C   0  0  2  0  0  3  0  0  0  0  0  0
  195.5190  170.8570  136.8400 C   0  0  1  0  0  3  0  0  0  0  0  0
  196.8770  171.5490  136.8630 C   0  0  2  0  0  3  0  0  0  0  0  0
  196.8420  173.0420  137.1790 C   0  0  0  0  0  2  0  0  0  0  0  0
  197.7120  173.3270  138.2340 O   0  0  0  0  0  0  0  0  0  0  0  0
  197.3100  175.6680  139.6860 O   0  0  0  0  0  1  0  0  0  0  0  0
  195.3270  174.1410  138.9390 O   0  0  0  0  0  0  0  0  0  0  0  0
  196.8370  172.9950  141.2300 S   0  0  0  0  0  1  0  0  0  0  0  0
  196.7590  174.0870  139.4180 P   0  0  1  0  0  0  0  0  0  0  0  0
  1  2  1  0  0  0  0
  2  4  1  0  0  0  0
  2  5  1  0  0  0  0
  3 33  1  6  0  0  0
  3  2  1  0  0  0  0
  3  5  1  0  0  0  0
  5  6  1  6  0  0  0
  9 10  1  6  0  0  0
  9 12  1  0  0  0  0
 10 11  1  0  0  0  0
 11  8  1  6  0  0  0
 11 15  1  0  0  0  0
 11  9  1  0  0  0  0
 12  6  1  6  0  0  0
 12 13  1  0  0  0  0
 13  7  1  0  0  0  0
 13 17  1  0  0  0  0
 14 16  1  1  0  0  0
 14  7  1  0  0  0  0
 15 14  1  0  0  0  0
 17 18  1  6  0  0  0
 17 19  1  0  0  0  0
 19 20  1  0  0  0  0
 19 21  1  0  0  0  0
 20 21  1  0  0  0  0
 22 26  1  0  0  0  0
 23 26  2  0  0  0  0
 23 27  1  0  0  0  0
 24 25  2  0  0  0  0
 24 22  1  0  0  0  0
 25 23  1  0  0  0  0
 26 19  1  0  0  0  0
 28 29  2  0  0  0  0
 29 27  1  0  0  0  0
 29 30  1  0  0  0  0
 30 31  1  0  0  0  0
 30 32  1  0  0  0  0
 31 32  1  0  0  0  0
 34 35  1  6  0  0  0
 34 36  1  0  0  0  0
 35 36  1  0  0  0  0
 36 33  1  1  0  0  0
 37 39  1  1  0  0  0
 37 34  1  0  0  0  0
 38 37  1  0  0  0  0
 38 40  1  0  0  0  0
 40 41  2  0  0  0  0
 42 39  1  6  0  0  0
 42 38  1  0  0  0  0
 42 37  1  0  0  0  0
 43 40  1  0  0  0  0
 44 47  1  0  0  0  0
 45 44  1  6  0  0  0
 45 48  1  0  0  0  0
 46 49  1  0  0  0  0
 47 46  1  1  0  0  0
 47 45  1  0  0  0  0
 48 43  1  6  0  0  0
 48 49  1  0  0  0  0
 49 50  1  6  0  0  0
 50 51  1  0  0  0  0
 51 55  1  0  0  0  0
 55 53  2  6  0  0  0
 55 52  1  0  0  0  0
 55 54  1  0  0  0  0
M  END
>  <MODEL>
9

>  <REMARK>
 VINA RESULT:      -6.3      3.571      9.767
  Name = 
  16 active torsions:
  status: ('A' for Active; 'I' for Inactive)
    1  A    between atoms: C_3  and  O_34
    2  A    between atoms: C_3  and  C_54
    3  A    between atoms: C_4  and  C_36
    4  A    between atoms: C_4  and  C_43
    5  A    between atoms: C_5  and  C_27
    6  A    between atoms: C_5  and  C_31
    7  A    between atoms: O_10  and  C_13
    8  A    between atoms: O_10  and  C_55
    9  A    between atoms: C_12  and  C_55
   10  A    between atoms: C_14  and  C_18
   11  A    between atoms: C_24  and  C_37
   12  A    between atoms: C_24  and  C_51
   13  A    between atoms: C_29  and  C_53
   14  A    between atoms: C_31  and  N_38
   15  A    between atoms: O_34  and  P_46
   16  A    between atoms: C_40  and  C_53
                            x       y       z     vdW  Elec       q    Type
                         _______ _______ _______ _____ _____    ______ ____

>  <TORSDO>
F 16

$$$$
