=
 OpenBabel11062418563D

 33 37  0  0  1  0  0  0  0  0999 V2000
  191.4190  173.1800  141.0260 C   0  0  0  0  0  0  0  0  0  0  0  0
  190.4590  172.9950  140.0860 N   0  0  0  0  0  0  0  0  0  0  0  0
  188.3080  173.4120  139.1270 N   0  0  0  0  0  1  0  0  0  0  0  0
  190.0270  174.7070  142.1770 C   0  0  0  0  0  0  0  0  0  0  0  0
  192.6550  172.4850  140.9270 N   0  0  0  0  0  1  0  0  0  0  0  0
  191.2000  174.0320  142.0580 N   0  0  0  0  0  0  0  0  0  0  0  0
  189.0180  174.5430  141.2150 C   0  0  0  0  0  0  0  0  0  0  0  0
  189.2700  173.6480  140.1490 C   0  0  0  0  0  0  0  0  0  0  0  0
  191.3090  176.9350  144.9970 C   0  0  1  0  0  3  0  0  0  0  0  0
  191.0140  177.0300  143.2130 S   0  0  0  0  0  0  0  0  0  0  0  0
  189.8300  175.6520  143.3200 C   0  0  2  0  0  3  0  0  0  0  0  0
  190.2850  175.9830  145.5770 C   0  0  0  0  0  2  0  0  0  0  0  0
  189.9960  174.9590  144.5880 N   0  0  0  0  0  2  0  0  0  0  0  0
  192.6960  176.4480  145.2640 C   0  0  0  0  0  0  0  0  0  0  0  0
  193.7550  175.8870  144.0920 S   0  0  0  0  0  0  0  0  0  0  0  0
  194.9560  175.5750  145.2340 C   0  0  0  0  0  3  0  0  0  0  0  0
  194.5070  175.9090  146.4670 N   0  0  0  0  0  0  0  0  0  0  0  0
  193.2640  176.3870  146.4880 N   0  0  0  0  0  0  0  0  0  0  0  0
  187.8290  175.2750  141.3680 O   0  0  0  0  0  0  0  0  0  0  0  0
  187.4740  176.4300  140.6220 C   0  0  0  0  0  2  0  0  0  0  0  0
  185.3890  177.2250  141.9220 C   0  0  0  0  0  2  0  0  0  0  0  0
  186.8380  177.4260  141.5300 C   0  0  0  0  0  0  0  0  0  0  0  0
  183.6320  178.0920  143.3210 F   0  0  0  0  0  0  0  0  0  0  0  0
  184.8470  178.3980  142.7350 C   0  0  1  0  0  3  0  0  0  0  0  0
  187.6220  178.3450  142.1260 C   0  0  0  0  0  3  0  0  0  0  0  0
  187.0690  179.3480  143.1050 C   0  0  0  0  0  2  0  0  0  0  0  0
  185.8540  178.8170  143.7140 N   0  0  0  0  0  0  0  0  0  0  0  0
  186.7270  176.7870  146.7590 C   0  0  0  0  0  3  0  0  0  0  0  0
  185.2110  178.5590  147.4010 C   0  0  0  0  0  3  0  0  0  0  0  0
  186.6810  177.2300  145.4340 C   0  0  0  0  0  3  0  0  0  0  0  0
  185.1660  179.0010  146.0750 C   0  0  0  0  0  3  0  0  0  0  0  0
  185.9910  177.4510  147.7420 C   0  0  0  0  0  3  0  0  0  0  0  0
  185.8980  178.3400  145.0750 C   0  0  0  0  0  0  0  0  0  0  0  0
  1  6  1  0  0  0  0
  2  8  1  0  0  0  0
  2  1  2  0  0  0  0
  3  8  1  0  0  0  0
  5  1  1  0  0  0  0
  6  4  2  0  0  0  0
  7 19  1  0  0  0  0
  7  4  1  0  0  0  0
  8  7  2  0  0  0  0
  9 14  1  6  0  0  0
  9 12  1  0  0  0  0
 10 11  1  0  0  0  0
 10  9  1  0  0  0  0
 11  4  1  6  0  0  0
 11 13  1  0  0  0  0
 13 12  1  0  0  0  0
 14 18  2  0  0  0  0
 15 16  1  0  0  0  0
 15 14  1  0  0  0  0
 16 17  2  0  0  0  0
 17 18  1  0  0  0  0
 20 19  1  0  0  0  0
 20 22  1  0  0  0  0
 21 24  1  0  0  0  0
 22 21  1  0  0  0  0
 22 25  2  0  0  0  0
 24 23  1  1  0  0  0
 24 27  1  0  0  0  0
 25 26  1  0  0  0  0
 26 27  1  0  0  0  0
 27 33  1  0  0  0  0
 28 32  1  0  0  0  0
 29 32  2  0  0  0  0
 30 28  2  0  0  0  0
 31 29  1  0  0  0  0
 33 30  1  0  0  0  0
 33 31  2  0  0  0  0
M  END
>  <MODEL>
1

>  <REMARK>
 VINA RESULT:      -7.2      0.000      0.000
  Name = 
  6 active torsions:
  status: ('A' for Active; 'I' for Inactive)
    1  A    between atoms: C_2  and  C_8
    2  A    between atoms: C_4  and  C_29
    3  A    between atoms: O_16  and  C_29
    4  A    between atoms: O_16  and  C_30
    5  A    between atoms: C_18  and  C_24
    6  A    between atoms: N_23  and  C_32
                            x       y       z     vdW  Elec       q    Type
                         _______ _______ _______ _____ _____    ______ ____

>  <TORSDO>
F 6

$$$$
=
 OpenBabel11062418563D

 33 37  0  0  1  0  0  0  0  0999 V2000
  186.7640  176.6460  146.2140 C   0  0  0  0  0  0  0  0  0  0  0  0
  187.8040  176.1850  146.9520 N   0  0  0  0  0  0  0  0  0  0  0  0
  190.0520  175.4120  147.2160 N   0  0  0  0  0  1  0  0  0  0  0  0
  188.0770  176.5280  144.2500 C   0  0  0  0  0  0  0  0  0  0  0  0
  185.5260  176.9530  146.8420 N   0  0  0  0  0  1  0  0  0  0  0  0
  186.9060  176.8160  144.8760 N   0  0  0  0  0  0  0  0  0  0  0  0
  189.1740  176.0580  144.9890 C   0  0  0  0  0  0  0  0  0  0  0  0
  189.0000  175.8870  146.3830 C   0  0  0  0  0  0  0  0  0  0  0  0
  186.8060  177.8190  140.8930 C   0  0  1  0  0  3  0  0  0  0  0  0
  187.6960  178.4400  142.3420 S   0  0  0  0  0  0  0  0  0  0  0  0
  188.2030  176.7470  142.7760 C   0  0  2  0  0  3  0  0  0  0  0  0
  187.1660  176.3570  140.7300 C   0  0  0  0  0  2  0  0  0  0  0  0
  187.3860  175.7880  142.0480 N   0  0  0  0  0  2  0  0  0  0  0  0
  185.3330  177.9830  141.0830 C   0  0  0  0  0  0  0  0  0  0  0  0
  184.5790  178.2070  142.5640 S   0  0  0  0  0  0  0  0  0  0  0  0
  183.0520  178.2710  141.8490 C   0  0  0  0  0  3  0  0  0  0  0  0
  183.1720  178.1200  140.5090 N   0  0  0  0  0  0  0  0  0  0  0  0
  184.4240  177.9590  140.0840 N   0  0  0  0  0  0  0  0  0  0  0  0
  190.3710  175.7910  144.3040 O   0  0  0  0  0  0  0  0  0  0  0  0
  191.2160  176.7680  143.7150 C   0  0  0  0  0  2  0  0  0  0  0  0
  193.0320  176.4520  145.5240 C   0  0  0  0  0  2  0  0  0  0  0  0
  192.6330  176.4680  144.0620 C   0  0  0  0  0  0  0  0  0  0  0  0
  194.8580  175.9790  147.0200 F   0  0  0  0  0  0  0  0  0  0  0  0
  194.5370  176.2700  145.7060 C   0  0  1  0  0  3  0  0  0  0  0  0
  193.4550  176.0250  143.0900 C   0  0  0  0  0  3  0  0  0  0  0  0
  194.8840  175.6410  143.3700 C   0  0  0  0  0  2  0  0  0  0  0  0
  195.0200  175.2530  144.7700 N   0  0  0  0  0  0  0  0  0  0  0  0
  196.5120  171.9690  145.8440 C   0  0  0  0  0  3  0  0  0  0  0  0
  194.1580  171.6540  145.3830 C   0  0  0  0  0  3  0  0  0  0  0  0
  196.3940  173.3210  145.5080 C   0  0  0  0  0  3  0  0  0  0  0  0
  194.0420  173.0060  145.0470 C   0  0  0  0  0  3  0  0  0  0  0  0
  195.3930  171.1350  145.7800 C   0  0  0  0  0  3  0  0  0  0  0  0
  195.1590  173.8550  145.1030 C   0  0  0  0  0  0  0  0  0  0  0  0
  1  5  1  0  0  0  0
  1  2  2  0  0  0  0
  4  6  2  0  0  0  0
  4  7  1  0  0  0  0
  6  1  1  0  0  0  0
  7  8  2  0  0  0  0
  8  2  1  0  0  0  0
  8  3  1  0  0  0  0
  9 14  1  1  0  0  0
  9 10  1  0  0  0  0
 10 11  1  0  0  0  0
 11  4  1  1  0  0  0
 12  9  1  0  0  0  0
 12 13  1  0  0  0  0
 13 11  1  0  0  0  0
 14 15  1  0  0  0  0
 16 15  1  0  0  0  0
 17 16  2  0  0  0  0
 18 17  1  0  0  0  0
 18 14  2  0  0  0  0
 19  7  1  0  0  0  0
 20 22  1  0  0  0  0
 20 19  1  0  0  0  0
 21 24  1  0  0  0  0
 22 21  1  0  0  0  0
 24 23  1  1  0  0  0
 25 26  1  0  0  0  0
 25 22  2  0  0  0  0
 26 27  1  0  0  0  0
 27 33  1  0  0  0  0
 27 24  1  0  0  0  0
 29 32  2  0  0  0  0
 30 28  2  0  0  0  0
 31 33  2  0  0  0  0
 31 29  1  0  0  0  0
 32 28  1  0  0  0  0
 33 30  1  0  0  0  0
M  END
>  <MODEL>
2

>  <REMARK>
 VINA RESULT:      -7.2      3.555      8.635
  Name = 
  6 active torsions:
  status: ('A' for Active; 'I' for Inactive)
    1  A    between atoms: C_2  and  C_8
    2  A    between atoms: C_4  and  C_29
    3  A    between atoms: O_16  and  C_29
    4  A    between atoms: O_16  and  C_30
    5  A    between atoms: C_18  and  C_24
    6  A    between atoms: N_23  and  C_32
                            x       y       z     vdW  Elec       q    Type
                         _______ _______ _______ _____ _____    ______ ____

>  <TORSDO>
F 6

$$$$
=
 OpenBabel11062418563D

 33 37  0  0  1  0  0  0  0  0999 V2000
  193.4470  173.4320  144.7300 C   0  0  0  0  0  0  0  0  0  0  0  0
  193.7610  174.6340  145.2730 N   0  0  0  0  0  0  0  0  0  0  0  0
  193.7160  177.0240  145.3260 N   0  0  0  0  0  1  0  0  0  0  0  0
  192.2870  174.5050  142.9700 C   0  0  0  0  0  0  0  0  0  0  0  0
  193.8830  172.2320  145.3560 N   0  0  0  0  0  1  0  0  0  0  0  0
  192.7140  173.3740  143.5900 N   0  0  0  0  0  0  0  0  0  0  0  0
  192.5890  175.7640  143.5140 C   0  0  0  0  0  0  0  0  0  0  0  0
  193.3560  175.7970  144.7020 C   0  0  0  0  0  0  0  0  0  0  0  0
  190.2030  172.5610  140.4340 C   0  0  1  0  0  3  0  0  0  0  0  0
  189.9820  173.3910  142.0280 S   0  0  0  0  0  0  0  0  0  0  0  0
  191.4640  174.4020  141.7250 C   0  0  2  0  0  3  0  0  0  0  0  0
  191.2890  173.3020  139.6830 C   0  0  0  0  0  2  0  0  0  0  0  0
  192.2460  173.8170  140.6460 N   0  0  0  0  0  2  0  0  0  0  0  0
  190.5850  171.1320  140.6450 C   0  0  0  0  0  0  0  0  0  0  0  0
  191.1340  170.1010  139.4440 S   0  0  0  0  0  0  0  0  0  0  0  0
  191.2830  168.8150  140.5250 C   0  0  0  0  0  3  0  0  0  0  0  0
  190.9080  169.2180  141.7630 N   0  0  0  0  0  0  0  0  0  0  0  0
  190.5220  170.4910  141.8330 N   0  0  0  0  0  0  0  0  0  0  0  0
  192.1110  176.9060  142.8500 O   0  0  0  0  0  0  0  0  0  0  0  0
  191.1700  177.8290  143.3760 C   0  0  0  0  0  2  0  0  0  0  0  0
  189.7610  176.9020  145.3320 C   0  0  0  0  0  2  0  0  0  0  0  0
  189.9630  177.0910  143.8420 C   0  0  0  0  0  0  0  0  0  0  0  0
  188.2150  176.0660  146.9770 F   0  0  0  0  0  0  0  0  0  0  0  0
  188.5610  176.0100  145.6390 C   0  0  1  0  0  3  0  0  0  0  0  0
  189.0010  176.7990  142.9450 C   0  0  0  0  0  3  0  0  0  0  0  0
  187.7220  176.1100  143.3450 C   0  0  0  0  0  2  0  0  0  0  0  0
  187.4490  176.3680  144.7550 N   0  0  0  0  0  0  0  0  0  0  0  0
  185.3230  179.4700  144.8740 C   0  0  0  0  0  3  0  0  0  0  0  0
  184.3990  177.8230  146.3840 C   0  0  0  0  0  3  0  0  0  0  0  0
  186.3450  178.5800  144.5310 C   0  0  0  0  0  3  0  0  0  0  0  0
  185.4220  176.9330  146.0410 C   0  0  0  0  0  3  0  0  0  0  0  0
  184.3510  179.0910  145.8020 C   0  0  0  0  0  3  0  0  0  0  0  0
  186.4090  177.3020  145.1120 C   0  0  0  0  0  0  0  0  0  0  0  0
  1  2  2  0  0  0  0
  1  5  1  0  0  0  0
  4  7  1  0  0  0  0
  4  6  2  0  0  0  0
  6  1  1  0  0  0  0
  7  8  2  0  0  0  0
  8  2  1  0  0  0  0
  8  3  1  0  0  0  0
  9 14  1  1  0  0  0
  9 10  1  0  0  0  0
 11 10  1  0  0  0  0
 11  4  1  1  0  0  0
 12  9  1  0  0  0  0
 12 13  1  0  0  0  0
 13 11  1  0  0  0  0
 14 18  2  0  0  0  0
 15 16  1  0  0  0  0
 15 14  1  0  0  0  0
 16 17  2  0  0  0  0
 17 18  1  0  0  0  0
 19 20  1  0  0  0  0
 19  7  1  0  0  0  0
 20 22  1  0  0  0  0
 21 24  1  0  0  0  0
 22 21  1  0  0  0  0
 24 23  1  1  0  0  0
 25 26  1  0  0  0  0
 25 22  2  0  0  0  0
 26 27  1  0  0  0  0
 27 33  1  0  0  0  0
 27 24  1  0  0  0  0
 28 32  1  0  0  0  0
 30 28  2  0  0  0  0
 30 33  1  0  0  0  0
 31 29  1  0  0  0  0
 32 29  2  0  0  0  0
 33 31  2  0  0  0  0
M  END
>  <MODEL>
3

>  <REMARK>
 VINA RESULT:      -7.1      2.867      5.278
  Name = 
  6 active torsions:
  status: ('A' for Active; 'I' for Inactive)
    1  A    between atoms: C_2  and  C_8
    2  A    between atoms: C_4  and  C_29
    3  A    between atoms: O_16  and  C_29
    4  A    between atoms: O_16  and  C_30
    5  A    between atoms: C_18  and  C_24
    6  A    between atoms: N_23  and  C_32
                            x       y       z     vdW  Elec       q    Type
                         _______ _______ _______ _____ _____    ______ ____

>  <TORSDO>
F 6

$$$$
=
 OpenBabel11062418563D

 33 37  0  0  1  0  0  0  0  0999 V2000
  186.4020  176.8440  146.3120 C   0  0  0  0  0  0  0  0  0  0  0  0
  187.4290  176.3700  147.0610 N   0  0  0  0  0  0  0  0  0  0  0  0
  189.6720  175.5950  147.3510 N   0  0  0  0  0  1  0  0  0  0  0  0
  187.7500  176.7610  144.3710 C   0  0  0  0  0  0  0  0  0  0  0  0
  185.1530  177.1390  146.9240 N   0  0  0  0  0  1  0  0  0  0  0  0
  186.5670  177.0380  144.9810 N   0  0  0  0  0  0  0  0  0  0  0  0
  188.8340  176.2790  145.1210 C   0  0  0  0  0  0  0  0  0  0  0  0
  188.6350  176.0830  146.5080 C   0  0  0  0  0  0  0  0  0  0  0  0
  186.5050  178.0430  141.0000 C   0  0  1  0  0  3  0  0  0  0  0  0
  187.3310  178.6820  142.4790 S   0  0  0  0  0  0  0  0  0  0  0  0
  187.9010  177.0060  142.9030 C   0  0  2  0  0  3  0  0  0  0  0  0
  186.9330  176.6010  140.8270 C   0  0  0  0  0  2  0  0  0  0  0  0
  187.1450  176.0230  142.1430 N   0  0  0  0  0  2  0  0  0  0  0  0
  185.0220  178.1400  141.1560 C   0  0  0  0  0  0  0  0  0  0  0  0
  184.2230  178.3040  142.6200 S   0  0  0  0  0  0  0  0  0  0  0  0
  182.7130  178.3160  141.8690 C   0  0  0  0  0  3  0  0  0  0  0  0
  182.8720  178.1940  140.5290 N   0  0  0  0  0  0  0  0  0  0  0  0
  184.1400  178.0950  140.1330 N   0  0  0  0  0  0  0  0  0  0  0  0
  190.0430  176.0250  144.4530 O   0  0  0  0  0  0  0  0  0  0  0  0
  191.1550  176.9070  144.4000 C   0  0  0  0  0  2  0  0  0  0  0  0
  192.4030  174.7970  145.2100 C   0  0  0  0  0  2  0  0  0  0  0  0
  192.2960  176.3070  145.1460 C   0  0  0  0  0  0  0  0  0  0  0  0
  193.8100  172.9950  145.9640 F   0  0  0  0  0  0  0  0  0  0  0  0
  193.5400  174.3410  146.1230 C   0  0  1  0  0  3  0  0  0  0  0  0
  193.2930  177.1150  145.5570 C   0  0  0  0  0  3  0  0  0  0  0  0
  194.5120  176.5800  146.2620 C   0  0  0  0  0  2  0  0  0  0  0  0
  194.7160  175.1830  145.8920 N   0  0  0  0  0  0  0  0  0  0  0  0
  197.9400  173.8240  144.5080 C   0  0  0  0  0  3  0  0  0  0  0  0
  196.6800  174.8480  142.7140 C   0  0  0  0  0  3  0  0  0  0  0  0
  196.9250  174.1590  145.4090 C   0  0  0  0  0  3  0  0  0  0  0  0
  195.6660  175.1830  143.6170 C   0  0  0  0  0  3  0  0  0  0  0  0
  197.8170  174.1690  143.1600 C   0  0  0  0  0  3  0  0  0  0  0  0
  195.7780  174.8450  144.9750 C   0  0  0  0  0  0  0  0  0  0  0  0
  1  5  1  0  0  0  0
  1  2  2  0  0  0  0
  4  6  2  0  0  0  0
  4  7  1  0  0  0  0
  6  1  1  0  0  0  0
  7  8  2  0  0  0  0
  8  2  1  0  0  0  0
  8  3  1  0  0  0  0
  9 14  1  1  0  0  0
  9 10  1  0  0  0  0
 10 11  1  0  0  0  0
 11  4  1  1  0  0  0
 12  9  1  0  0  0  0
 12 13  1  0  0  0  0
 13 11  1  0  0  0  0
 14 15  1  0  0  0  0
 16 15  1  0  0  0  0
 17 16  2  0  0  0  0
 18 17  1  0  0  0  0
 18 14  2  0  0  0  0
 19  7  1  0  0  0  0
 20 19  1  0  0  0  0
 20 22  1  0  0  0  0
 21 24  1  0  0  0  0
 22 21  1  0  0  0  0
 22 25  2  0  0  0  0
 24 23  1  6  0  0  0
 25 26  1  0  0  0  0
 27 24  1  0  0  0  0
 27 26  1  0  0  0  0
 28 30  1  0  0  0  0
 29 32  1  0  0  0  0
 29 31  2  0  0  0  0
 31 33  1  0  0  0  0
 32 28  2  0  0  0  0
 33 30  2  0  0  0  0
 33 27  1  0  0  0  0
M  END
>  <MODEL>
4

>  <REMARK>
 VINA RESULT:      -7.0      3.626      8.952
  Name = 
  6 active torsions:
  status: ('A' for Active; 'I' for Inactive)
    1  A    between atoms: C_2  and  C_8
    2  A    between atoms: C_4  and  C_29
    3  A    between atoms: O_16  and  C_29
    4  A    between atoms: O_16  and  C_30
    5  A    between atoms: C_18  and  C_24
    6  A    between atoms: N_23  and  C_32
                            x       y       z     vdW  Elec       q    Type
                         _______ _______ _______ _____ _____    ______ ____

>  <TORSDO>
F 6

$$$$
=
 OpenBabel11062418563D

 33 37  0  0  1  0  0  0  0  0999 V2000
  195.3870  176.1250  143.0990 C   0  0  0  0  0  0  0  0  0  0  0  0
  195.2880  176.3440  144.4330 N   0  0  0  0  0  0  0  0  0  0  0  0
  194.2660  176.0290  146.5730 N   0  0  0  0  0  1  0  0  0  0  0  0
  193.4960  174.7070  143.1670 C   0  0  0  0  0  0  0  0  0  0  0  0
  196.4260  176.7460  142.3520 N   0  0  0  0  0  1  0  0  0  0  0  0
  194.4990  175.3110  142.4770 N   0  0  0  0  0  0  0  0  0  0  0  0
  193.3730  174.9070  144.5510 C   0  0  0  0  0  0  0  0  0  0  0  0
  194.3110  175.7610  145.1750 C   0  0  0  0  0  0  0  0  0  0  0  0
  192.1120  173.0430  140.0250 C   0  0  1  0  0  3  0  0  0  0  0  0
  193.4380  172.7850  141.2320 S   0  0  0  0  0  0  0  0  0  0  0  0
  192.5460  173.8000  142.4510 C   0  0  2  0  0  3  0  0  0  0  0  0
  190.9640  173.7140  140.7480 C   0  0  0  0  0  2  0  0  0  0  0  0
  191.5110  174.5730  141.7830 N   0  0  0  0  0  2  0  0  0  0  0  0
  192.6000  173.8950  138.8990 C   0  0  0  0  0  0  0  0  0  0  0  0
  194.0570  174.7230  138.8880 S   0  0  0  0  0  0  0  0  0  0  0  0
  193.7580  175.3590  137.3540 C   0  0  0  0  0  3  0  0  0  0  0  0
  192.5590  174.9180  136.9060 N   0  0  0  0  0  0  0  0  0  0  0  0
  191.9180  174.1140  137.7540 N   0  0  0  0  0  0  0  0  0  0  0  0
  192.3330  174.2470  145.2270 O   0  0  0  0  0  0  0  0  0  0  0  0
  191.3620  174.8730  146.0530 C   0  0  0  0  0  2  0  0  0  0  0  0
  189.3470  174.9910  144.4430 C   0  0  0  0  0  2  0  0  0  0  0  0
  190.4500  175.6930  145.2070 C   0  0  0  0  0  0  0  0  0  0  0  0
  187.4270  175.3730  143.0410 F   0  0  0  0  0  0  0  0  0  0  0  0
  188.5930  175.9440  143.5190 C   0  0  1  0  0  3  0  0  0  0  0  0
  190.5090  177.0350  145.3110 C   0  0  0  0  0  3  0  0  0  0  0  0
  189.5800  177.9350  144.5380 C   0  0  0  0  0  2  0  0  0  0  0  0
  188.3550  177.2100  144.2150 N   0  0  0  0  0  0  0  0  0  0  0  0
  185.5790  177.0430  146.7500 C   0  0  0  0  0  3  0  0  0  0  0  0
  185.1930  178.9250  145.2800 C   0  0  0  0  0  3  0  0  0  0  0  0
  186.7440  176.7320  146.0420 C   0  0  0  0  0  3  0  0  0  0  0  0
  186.3580  178.6130  144.5730 C   0  0  0  0  0  3  0  0  0  0  0  0
  184.8030  178.1400  146.3670 C   0  0  0  0  0  3  0  0  0  0  0  0
  187.1460  177.5110  144.9440 C   0  0  0  0  0  0  0  0  0  0  0  0
  1  2  2  0  0  0  0
  2  8  1  0  0  0  0
  4  7  1  0  0  0  0
  5  1  1  0  0  0  0
  6  1  1  0  0  0  0
  6  4  2  0  0  0  0
  7  8  2  0  0  0  0
  7 19  1  0  0  0  0
  8  3  1  0  0  0  0
  9 14  1  6  0  0  0
  9 12  1  0  0  0  0
  9 10  1  0  0  0  0
 10 11  1  0  0  0  0
 11  4  1  6  0  0  0
 12 13  1  0  0  0  0
 13 11  1  0  0  0  0
 15 14  1  0  0  0  0
 16 15  1  0  0  0  0
 17 16  2  0  0  0  0
 17 18  1  0  0  0  0
 18 14  2  0  0  0  0
 19 20  1  0  0  0  0
 21 22  1  0  0  0  0
 22 25  2  0  0  0  0
 22 20  1  0  0  0  0
 24 23  1  1  0  0  0
 24 27  1  0  0  0  0
 24 21  1  0  0  0  0
 26 25  1  0  0  0  0
 27 26  1  0  0  0  0
 27 33  1  0  0  0  0
 29 32  2  0  0  0  0
 30 28  2  0  0  0  0
 31 33  2  0  0  0  0
 31 29  1  0  0  0  0
 32 28  1  0  0  0  0
 33 30  1  0  0  0  0
M  END
>  <MODEL>
5

>  <REMARK>
 VINA RESULT:      -6.9      2.735      5.510
  Name = 
  6 active torsions:
  status: ('A' for Active; 'I' for Inactive)
    1  A    between atoms: C_2  and  C_8
    2  A    between atoms: C_4  and  C_29
    3  A    between atoms: O_16  and  C_29
    4  A    between atoms: O_16  and  C_30
    5  A    between atoms: C_18  and  C_24
    6  A    between atoms: N_23  and  C_32
                            x       y       z     vdW  Elec       q    Type
                         _______ _______ _______ _____ _____    ______ ____

>  <TORSDO>
F 6

$$$$
=
 OpenBabel11062418563D

 33 37  0  0  1  0  0  0  0  0999 V2000
  192.0840  170.9230  143.3580 C   0  0  0  0  0  0  0  0  0  0  0  0
  191.2600  170.8810  142.2820 N   0  0  0  0  0  0  0  0  0  0  0  0
  189.8120  171.8890  140.6670 N   0  0  0  0  0  1  0  0  0  0  0  0
  191.7500  173.2570  143.5490 C   0  0  0  0  0  0  0  0  0  0  0  0
  192.6980  169.7310  143.8300 N   0  0  0  0  0  1  0  0  0  0  0  0
  192.3260  172.1030  143.9800 N   0  0  0  0  0  0  0  0  0  0  0  0
  190.9000  173.2460  142.4330 C   0  0  0  0  0  0  0  0  0  0  0  0
  190.6620  172.0020  141.8030 C   0  0  0  0  0  0  0  0  0  0  0  0
  194.1530  175.8740  144.9420 C   0  0  1  0  0  3  0  0  0  0  0  0
  193.3650  175.4490  143.3670 S   0  0  0  0  0  0  0  0  0  0  0  0
  192.0560  174.5430  144.2500 C   0  0  2  0  0  3  0  0  0  0  0  0
  193.2030  175.4680  146.0490 C   0  0  0  0  0  2  0  0  0  0  0  0
  192.4720  174.2890  145.6200 N   0  0  0  0  0  2  0  0  0  0  0  0
  195.4580  175.1580  145.0740 C   0  0  0  0  0  0  0  0  0  0  0  0
  196.6820  175.1810  143.9290 S   0  0  0  0  0  0  0  0  0  0  0  0
  197.6600  174.1710  144.8600 C   0  0  0  0  0  3  0  0  0  0  0  0
  197.0190  173.8520  146.0090 N   0  0  0  0  0  0  0  0  0  0  0  0
  195.8070  174.3910  146.1300 N   0  0  0  0  0  0  0  0  0  0  0  0
  190.3420  174.4640  142.0120 O   0  0  0  0  0  0  0  0  0  0  0  0
  188.9670  174.6870  141.7340 C   0  0  0  0  0  2  0  0  0  0  0  0
  187.3570  176.7010  141.6000 C   0  0  0  0  0  2  0  0  0  0  0  0
  188.5830  176.0470  142.2040 C   0  0  0  0  0  0  0  0  0  0  0  0
  185.9290  178.6340  141.7540 F   0  0  0  0  0  0  0  0  0  0  0  0
  187.1790  178.1400  142.0800 C   0  0  1  0  0  3  0  0  0  0  0  0
  189.2100  176.5560  143.2820 C   0  0  0  0  0  3  0  0  0  0  0  0
  188.8380  177.8980  143.8590 C   0  0  0  0  0  2  0  0  0  0  0  0
  187.4550  178.2100  143.5170 N   0  0  0  0  0  0  0  0  0  0  0  0
  184.5940  179.0710  145.8050 C   0  0  0  0  0  3  0  0  0  0  0  0
  185.2770  176.7890  146.2210 C   0  0  0  0  0  3  0  0  0  0  0  0
  185.5860  179.1880  144.8270 C   0  0  0  0  0  3  0  0  0  0  0  0
  186.2690  176.9060  145.2430 C   0  0  0  0  0  3  0  0  0  0  0  0
  184.4410  177.8710  146.5030 C   0  0  0  0  0  3  0  0  0  0  0  0
  186.4370  178.1080  144.5360 C   0  0  0  0  0  0  0  0  0  0  0  0
  1  5  1  0  0  0  0
  1  6  1  0  0  0  0
  2  1  2  0  0  0  0
  3  8  1  0  0  0  0
  4  6  2  0  0  0  0
  7  4  1  0  0  0  0
  8  2  1  0  0  0  0
  8  7  2  0  0  0  0
  9 14  1  1  0  0  0
  9 12  1  0  0  0  0
 10 11  1  0  0  0  0
 10  9  1  0  0  0  0
 11  4  1  6  0  0  0
 11 13  1  0  0  0  0
 13 12  1  0  0  0  0
 14 18  2  0  0  0  0
 15 16  1  0  0  0  0
 15 14  1  0  0  0  0
 16 17  2  0  0  0  0
 17 18  1  0  0  0  0
 19  7  1  0  0  0  0
 20 19  1  0  0  0  0
 20 22  1  0  0  0  0
 21 24  1  0  0  0  0
 21 22  1  0  0  0  0
 22 25  2  0  0  0  0
 24 23  1  1  0  0  0
 24 27  1  0  0  0  0
 25 26  1  0  0  0  0
 27 26  1  0  0  0  0
 27 33  1  0  0  0  0
 28 32  1  0  0  0  0
 29 32  2  0  0  0  0
 30 28  2  0  0  0  0
 31 29  1  0  0  0  0
 33 30  1  0  0  0  0
 33 31  2  0  0  0  0
M  END
>  <MODEL>
6

>  <REMARK>
 VINA RESULT:      -6.9      2.049      2.745
  Name = 
  6 active torsions:
  status: ('A' for Active; 'I' for Inactive)
    1  A    between atoms: C_2  and  C_8
    2  A    between atoms: C_4  and  C_29
    3  A    between atoms: O_16  and  C_29
    4  A    between atoms: O_16  and  C_30
    5  A    between atoms: C_18  and  C_24
    6  A    between atoms: N_23  and  C_32
                            x       y       z     vdW  Elec       q    Type
                         _______ _______ _______ _____ _____    ______ ____

>  <TORSDO>
F 6

$$$$
=
 OpenBabel11062418563D

 33 37  0  0  1  0  0  0  0  0999 V2000
  192.3140  173.3640  139.1920 C   0  0  0  0  0  0  0  0  0  0  0  0
  191.0830  172.9040  138.8570 N   0  0  0  0  0  0  0  0  0  0  0  0
  188.8050  172.3620  139.3470 N   0  0  0  0  0  1  0  0  0  0  0  0
  191.5910  173.7470  141.4110 C   0  0  0  0  0  0  0  0  0  0  0  0
  193.3460  173.4100  138.2150 N   0  0  0  0  0  1  0  0  0  0  0  0
  192.5590  173.7830  140.4580 N   0  0  0  0  0  0  0  0  0  0  0  0
  190.3040  173.2850  141.0920 C   0  0  0  0  0  0  0  0  0  0  0  0
  190.0750  172.8520  139.7650 C   0  0  0  0  0  0  0  0  0  0  0  0
  193.6110  175.7940  143.9190 C   0  0  1  0  0  3  0  0  0  0  0  0
  192.2290  176.0250  142.7720 S   0  0  0  0  0  0  0  0  0  0  0  0
  191.8930  174.2360  142.7920 C   0  0  2  0  0  3  0  0  0  0  0  0
  193.5590  174.3630  144.4110 C   0  0  0  0  0  2  0  0  0  0  0  0
  193.0380  173.5270  143.3430 N   0  0  0  0  0  2  0  0  0  0  0  0
  194.9060  176.0690  143.2270 C   0  0  0  0  0  0  0  0  0  0  0  0
  195.1210  176.0720  141.5650 S   0  0  0  0  0  0  0  0  0  0  0  0
  196.7610  176.4350  141.7120 C   0  0  0  0  0  3  0  0  0  0  0  0
  197.0870  176.5410  143.0220 N   0  0  0  0  0  0  0  0  0  0  0  0
  196.0700  176.3380  143.8590 N   0  0  0  0  0  0  0  0  0  0  0  0
  189.3300  173.2830  142.1040 O   0  0  0  0  0  0  0  0  0  0  0  0
  188.0460  173.8850  142.0100 C   0  0  0  0  0  2  0  0  0  0  0  0
  187.3010  176.3540  141.8930 C   0  0  0  0  0  2  0  0  0  0  0  0
  188.1070  175.2640  142.5690 C   0  0  0  0  0  0  0  0  0  0  0  0
  186.6510  178.6650  142.0750 F   0  0  0  0  0  0  0  0  0  0  0  0
  187.5780  177.7300  142.4960 C   0  0  1  0  0  3  0  0  0  0  0  0
  188.7050  175.4490  143.7620 C   0  0  0  0  0  3  0  0  0  0  0  0
  188.7550  176.8000  144.4270 C   0  0  0  0  0  2  0  0  0  0  0  0
  187.6420  177.6170  143.9560 N   0  0  0  0  0  0  0  0  0  0  0  0
  184.9290  177.0570  146.5020 C   0  0  0  0  0  3  0  0  0  0  0  0
  184.8280  179.3480  145.7330 C   0  0  0  0  0  3  0  0  0  0  0  0
  186.0120  176.8210  145.6500 C   0  0  0  0  0  3  0  0  0  0  0  0
  185.9110  179.1100  144.8820 C   0  0  0  0  0  3  0  0  0  0  0  0
  184.3370  178.3210  146.5420 C   0  0  0  0  0  3  0  0  0  0  0  0
  186.5140  177.8430  144.8280 C   0  0  0  0  0  0  0  0  0  0  0  0
  1  6  1  0  0  0  0
  2  1  2  0  0  0  0
  2  8  1  0  0  0  0
  3  8  1  0  0  0  0
  5  1  1  0  0  0  0
  6  4  2  0  0  0  0
  7  4  1  0  0  0  0
  7 19  1  0  0  0  0
  8  7  2  0  0  0  0
  9 14  1  6  0  0  0
  9 12  1  0  0  0  0
 10 11  1  0  0  0  0
 10  9  1  0  0  0  0
 11  4  1  6  0  0  0
 11 13  1  0  0  0  0
 13 12  1  0  0  0  0
 14 18  2  0  0  0  0
 15 16  1  0  0  0  0
 15 14  1  0  0  0  0
 16 17  2  0  0  0  0
 17 18  1  0  0  0  0
 20 19  1  0  0  0  0
 20 22  1  0  0  0  0
 21 24  1  0  0  0  0
 21 22  1  0  0  0  0
 22 25  2  0  0  0  0
 24 23  1  1  0  0  0
 24 27  1  0  0  0  0
 25 26  1  0  0  0  0
 27 26  1  0  0  0  0
 27 33  1  0  0  0  0
 28 32  1  0  0  0  0
 29 32  2  0  0  0  0
 30 28  2  0  0  0  0
 31 29  1  0  0  0  0
 33 31  2  0  0  0  0
 33 30  1  0  0  0  0
M  END
>  <MODEL>
7

>  <REMARK>
 VINA RESULT:      -6.9      2.054      2.645
  Name = 
  6 active torsions:
  status: ('A' for Active; 'I' for Inactive)
    1  A    between atoms: C_2  and  C_8
    2  A    between atoms: C_4  and  C_29
    3  A    between atoms: O_16  and  C_29
    4  A    between atoms: O_16  and  C_30
    5  A    between atoms: C_18  and  C_24
    6  A    between atoms: N_23  and  C_32
                            x       y       z     vdW  Elec       q    Type
                         _______ _______ _______ _____ _____    ______ ____

>  <TORSDO>
F 6

$$$$
=
 OpenBabel11062418563D

 33 37  0  0  1  0  0  0  0  0999 V2000
  188.2660  176.6920  141.6210 C   0  0  0  0  0  0  0  0  0  0  0  0
  188.9090  177.7250  142.2200 N   0  0  0  0  0  0  0  0  0  0  0  0
  190.6890  178.6630  143.5130 N   0  0  0  0  0  1  0  0  0  0  0  0
  189.9170  175.1860  142.3940 C   0  0  0  0  0  0  0  0  0  0  0  0
  187.0640  176.9260  140.8990 N   0  0  0  0  0  1  0  0  0  0  0  0
  188.7710  175.4370  141.7080 N   0  0  0  0  0  0  0  0  0  0  0  0
  190.6100  176.2360  143.0170 C   0  0  0  0  0  0  0  0  0  0  0  0
  190.0620  177.5350  142.9120 C   0  0  0  0  0  0  0  0  0  0  0  0
  191.0660  171.9230  140.7840 C   0  0  1  0  0  3  0  0  0  0  0  0
  191.7410  173.5550  141.1870 S   0  0  0  0  0  0  0  0  0  0  0  0
  190.4550  173.7910  142.4530 C   0  0  2  0  0  3  0  0  0  0  0  0
  190.0240  171.5910  141.8310 C   0  0  0  0  0  2  0  0  0  0  0  0
  189.3850  172.8250  142.2530 N   0  0  0  0  0  2  0  0  0  0  0  0
  190.4590  171.9400  139.4190 C   0  0  0  0  0  0  0  0  0  0  0  0
  189.9220  173.3170  138.6280 S   0  0  0  0  0  0  0  0  0  0  0  0
  189.4300  172.4290  137.2810 C   0  0  0  0  0  3  0  0  0  0  0  0
  189.6910  171.1160  137.4830 N   0  0  0  0  0  0  0  0  0  0  0  0
  190.2550  170.8430  138.6580 N   0  0  0  0  0  0  0  0  0  0  0  0
  191.8010  175.9330  143.6990 O   0  0  0  0  0  0  0  0  0  0  0  0
  191.9220  175.0100  144.7710 C   0  0  0  0  0  2  0  0  0  0  0  0
  190.8830  176.7910  146.3250 C   0  0  0  0  0  2  0  0  0  0  0  0
  190.9400  175.3580  145.8350 C   0  0  0  0  0  0  0  0  0  0  0  0
  189.6720  178.2880  147.7700 F   0  0  0  0  0  0  0  0  0  0  0  0
  189.9320  176.9550  147.5080 C   0  0  1  0  0  3  0  0  0  0  0  0
  190.0090  174.4460  146.1750 C   0  0  0  0  0  3  0  0  0  0  0  0
  188.9410  174.7420  147.1980 C   0  0  0  0  0  2  0  0  0  0  0  0
  188.7120  176.1810  147.2620 N   0  0  0  0  0  0  0  0  0  0  0  0
  186.1900  177.3130  144.7100 C   0  0  0  0  0  3  0  0  0  0  0  0
  185.3100  177.7240  146.9250 C   0  0  0  0  0  3  0  0  0  0  0  0
  187.3580  176.7910  145.2730 C   0  0  0  0  0  3  0  0  0  0  0  0
  186.4790  177.2020  147.4870 C   0  0  0  0  0  3  0  0  0  0  0  0
  185.1660  177.7800  145.5370 C   0  0  0  0  0  3  0  0  0  0  0  0
  187.5180  176.7320  146.6670 C   0  0  0  0  0  0  0  0  0  0  0  0
  1  6  1  0  0  0  0
  1  2  2  0  0  0  0
  2  8  1  0  0  0  0
  4  7  1  0  0  0  0
  5  1  1  0  0  0  0
  6  4  2  0  0  0  0
  7 19  1  0  0  0  0
  8  7  2  0  0  0  0
  8  3  1  0  0  0  0
  9 14  1  6  0  0  0
  9 10  1  0  0  0  0
  9 12  1  0  0  0  0
 10 11  1  0  0  0  0
 11  4  1  6  0  0  0
 12 13  1  0  0  0  0
 13 11  1  0  0  0  0
 15 14  1  0  0  0  0
 16 17  2  0  0  0  0
 16 15  1  0  0  0  0
 17 18  1  0  0  0  0
 18 14  2  0  0  0  0
 19 20  1  0  0  0  0
 20 22  1  0  0  0  0
 21 24  1  0  0  0  0
 22 25  2  0  0  0  0
 22 21  1  0  0  0  0
 24 23  1  6  0  0  0
 25 26  1  0  0  0  0
 26 27  1  0  0  0  0
 27 24  1  0  0  0  0
 28 30  2  0  0  0  0
 28 32  1  0  0  0  0
 29 31  1  0  0  0  0
 30 33  1  0  0  0  0
 32 29  2  0  0  0  0
 33 27  1  0  0  0  0
 33 31  2  0  0  0  0
M  END
>  <MODEL>
8

>  <REMARK>
 VINA RESULT:      -6.8      2.924      5.868
  Name = 
  6 active torsions:
  status: ('A' for Active; 'I' for Inactive)
    1  A    between atoms: C_2  and  C_8
    2  A    between atoms: C_4  and  C_29
    3  A    between atoms: O_16  and  C_29
    4  A    between atoms: O_16  and  C_30
    5  A    between atoms: C_18  and  C_24
    6  A    between atoms: N_23  and  C_32
                            x       y       z     vdW  Elec       q    Type
                         _______ _______ _______ _____ _____    ______ ____

>  <TORSDO>
F 6

$$$$
=
 OpenBabel11062418563D

 33 37  0  0  1  0  0  0  0  0999 V2000
  193.3350  174.1380  143.5130 C   0  0  0  0  0  0  0  0  0  0  0  0
  193.8950  174.8520  144.5210 N   0  0  0  0  0  0  0  0  0  0  0  0
  193.8170  176.4490  146.3000 N   0  0  0  0  0  1  0  0  0  0  0  0
  191.2460  175.1750  143.9120 C   0  0  0  0  0  0  0  0  0  0  0  0
  194.1230  173.2180  142.7700 N   0  0  0  0  0  1  0  0  0  0  0  0
  192.0210  174.3000  143.2180 N   0  0  0  0  0  0  0  0  0  0  0  0
  191.7960  175.9210  144.9660 C   0  0  0  0  0  0  0  0  0  0  0  0
  193.1690  175.7350  145.2530 C   0  0  0  0  0  0  0  0  0  0  0  0
  188.2110  174.5420  141.6880 C   0  0  1  0  0  3  0  0  0  0  0  0
  189.1230  173.7140  143.0160 S   0  0  0  0  0  0  0  0  0  0  0  0
  189.7970  175.3120  143.5690 C   0  0  2  0  0  3  0  0  0  0  0  0
  188.3220  176.0330  141.9220 C   0  0  0  0  0  2  0  0  0  0  0  0
  189.6130  176.3100  142.5270 N   0  0  0  0  0  2  0  0  0  0  0  0
  188.7860  174.1690  140.3600 C   0  0  0  0  0  0  0  0  0  0  0  0
  190.2600  173.4030  140.1360 S   0  0  0  0  0  0  0  0  0  0  0  0
  190.0820  173.4090  138.4590 C   0  0  0  0  0  3  0  0  0  0  0  0
  188.9060  173.9950  138.1300 N   0  0  0  0  0  0  0  0  0  0  0  0
  188.1910  174.4160  139.1720 N   0  0  0  0  0  0  0  0  0  0  0  0
  190.9540  176.7990  145.6680 O   0  0  0  0  0  0  0  0  0  0  0  0
  190.6510  176.7160  147.0530 C   0  0  0  0  0  2  0  0  0  0  0  0
  188.7200  178.3270  147.6420 C   0  0  0  0  0  2  0  0  0  0  0  0
  189.1920  176.9400  147.2520 C   0  0  0  0  0  0  0  0  0  0  0  0
  186.7500  179.6560  148.0260 F   0  0  0  0  0  0  0  0  0  0  0  0
  187.2240  178.3590  147.9450 C   0  0  1  0  0  3  0  0  0  0  0  0
  188.3350  175.9680  146.8850 C   0  0  0  0  0  3  0  0  0  0  0  0
  186.8420  176.1390  146.9950 C   0  0  0  0  0  2  0  0  0  0  0  0
  186.5090  177.5590  146.9480 N   0  0  0  0  0  0  0  0  0  0  0  0
  184.0300  179.0390  144.5350 C   0  0  0  0  0  3  0  0  0  0  0  0
  186.1730  178.8240  143.4330 C   0  0  0  0  0  3  0  0  0  0  0  0
  184.5780  178.4950  145.7000 C   0  0  0  0  0  3  0  0  0  0  0  0
  186.7190  178.2800  144.5990 C   0  0  0  0  0  3  0  0  0  0  0  0
  184.8280  179.2020  143.4000 C   0  0  0  0  0  3  0  0  0  0  0  0
  185.9270  178.1060  145.7460 C   0  0  0  0  0  0  0  0  0  0  0  0
  1  2  2  0  0  0  0
  2  8  1  0  0  0  0
  4  7  1  0  0  0  0
  5  1  1  0  0  0  0
  6  1  1  0  0  0  0
  6  4  2  0  0  0  0
  7  8  2  0  0  0  0
  7 19  1  0  0  0  0
  8  3  1  0  0  0  0
  9 14  1  6  0  0  0
  9 12  1  0  0  0  0
  9 10  1  0  0  0  0
 10 11  1  0  0  0  0
 11  4  1  6  0  0  0
 12 13  1  0  0  0  0
 13 11  1  0  0  0  0
 15 14  1  0  0  0  0
 16 15  1  0  0  0  0
 17 16  2  0  0  0  0
 17 18  1  0  0  0  0
 18 14  2  0  0  0  0
 19 20  1  0  0  0  0
 20 22  1  0  0  0  0
 21 24  1  0  0  0  0
 22 21  1  0  0  0  0
 24 23  1  6  0  0  0
 25 26  1  0  0  0  0
 25 22  2  0  0  0  0
 27 26  1  0  0  0  0
 27 24  1  0  0  0  0
 28 30  1  0  0  0  0
 29 31  2  0  0  0  0
 30 33  2  0  0  0  0
 31 33  1  0  0  0  0
 32 29  1  0  0  0  0
 32 28  2  0  0  0  0
 33 27  1  0  0  0  0
M  END
>  <MODEL>
9

>  <REMARK>
 VINA RESULT:      -6.7      2.404      5.484
  Name = 
  6 active torsions:
  status: ('A' for Active; 'I' for Inactive)
    1  A    between atoms: C_2  and  C_8
    2  A    between atoms: C_4  and  C_29
    3  A    between atoms: O_16  and  C_29
    4  A    between atoms: O_16  and  C_30
    5  A    between atoms: C_18  and  C_24
    6  A    between atoms: N_23  and  C_32
                            x       y       z     vdW  Elec       q    Type
                         _______ _______ _______ _____ _____    ______ ____

>  <TORSDO>
F 6

$$$$
