=
 OpenBabel11062418233D

 64 70  0  0  1  0  0  0  0  0999 V2000
  187.9040  176.0990  144.2180 C   0  0  1  0  0  3  0  0  0  0  0  0
  186.5260  177.8930  139.4440 Cl  0  0  0  0  0  0  0  0  0  0  0  0
  188.5430  173.2320  140.4820 N   0  0  0  0  0  0  0  0  0  0  0  0
  188.1030  174.4570  140.7910 C   0  0  0  0  0  0  0  0  0  0  0  0
  187.8010  175.8720  142.7240 C   0  0  0  0  0  0  0  0  0  0  0  0
  188.9100  172.6420  141.6440 C   0  0  0  0  0  3  0  0  0  0  0  0
  187.5890  175.4230  139.9250 C   0  0  0  0  0  3  0  0  0  0  0  0
  188.2100  174.6700  142.1390 C   0  0  0  0  0  0  0  0  0  0  0  0
  187.1760  176.6440  140.4820 C   0  0  0  0  0  0  0  0  0  0  0  0
  187.2780  176.8670  141.8700 C   0  0  0  0  0  3  0  0  0  0  0  0
  188.7270  173.5210  142.7140 C   0  0  0  0  0  3  0  0  0  0  0  0
  188.4970  172.6060  139.1620 C   0  0  0  0  0  2  0  0  0  0  0  0
  189.7480  171.7670  138.8950 C   0  0  2  0  0  3  0  0  0  0  0  0
  191.0330  172.4810  139.2260 C   0  0  0  0  0  0  0  0  0  0  0  0
  193.0220  173.2710  141.8360 C   0  0  0  0  0  1  0  0  0  0  0  0
  193.8940  173.4370  139.4290 C   0  0  1  0  0  3  0  0  0  0  0  0
  191.2250  173.7550  138.9690 N   0  0  0  0  0  0  0  0  0  0  0  0
  193.0980  172.8310  140.3740 C   0  0  1  0  0  0  0  0  0  0  0  0
  192.1090  171.8180  139.9950 N   0  0  0  0  0  2  0  0  0  0  0  0
  192.4630  173.8480  139.5500 N   0  0  0  0  0  0  0  0  0  0  0  0
  195.8400  175.0070  139.3150 C   0  0  0  0  0  3  0  0  0  0  0  0
  194.7820  174.5230  139.9760 C   0  0  0  0  0  3  0  0  0  0  0  0
  197.0900  173.3510  138.0970 N   0  0  0  0  0  1  0  0  0  0  0  0
  196.2360  174.5170  137.9590 C   0  0  0  0  0  2  0  0  0  0  0  0
  189.3660  172.0310  136.5770 O   0  0  0  0  0  0  0  0  0  0  0  0
  189.7310  171.2810  137.4700 C   0  0  0  0  0  0  0  0  0  0  0  0
  190.7970  169.1830  138.2090 N   0  0  0  0  0  2  0  0  0  0  0  0
  190.9500  169.6630  135.8900 C   0  0  1  0  0  3  0  0  0  0  0  0
  191.6160  168.1700  137.5530 C   0  0  0  0  0  2  0  0  0  0  0  0
  191.9610  170.7810  135.6660 C   0  0  0  0  0  1  0  0  0  0  0  0
  191.6660  168.4220  136.1120 N   0  0  0  0  0  2  0  0  0  0  0  0
  190.1000  169.8550  137.1320 C   0  0  2  0  0  3  0  0  0  0  0  0
  191.6450  175.9170  145.3340 C   0  0  1  0  0  3  0  0  0  0  0  0
  192.1200  175.9430  143.8690 C   0  0  1  0  0  3  0  0  0  0  0  0
  189.9030  174.3050  144.9930 O   0  0  0  0  0  1  0  0  0  0  0  0
  191.0780  176.5380  142.9100 C   0  0  0  0  0  2  0  0  0  0  0  0
  189.2870  176.6310  144.6780 C   0  0  1  0  0  3  0  0  0  0  0  0
  190.1400  175.6020  145.4760 C   0  0  2  0  0  0  0  0  0  0  0  0
  190.0860  177.4430  143.6400 C   0  0  0  0  0  2  0  0  0  0  0  0
  189.7660  175.6870  146.9420 C   0  0  0  0  0  0  0  0  0  0  0  0
  188.8970  174.6530  147.5880 C   0  0  0  0  0  1  0  0  0  0  0  0
  190.2140  176.5860  147.6370 O   0  0  0  0  0  0  0  0  0  0  0  0
  193.5700  176.7660  142.4040 C   0  0  0  0  0  1  0  0  0  0  0  0
  193.3060  176.6780  143.7720 O   0  0  0  0  0  0  0  0  0  0  0  0
  192.4310  175.0130  146.1090 O   0  0  0  0  0  0  0  0  0  0  0  0
  193.8170  174.9020  145.9550 C   0  0  0  0  0  0  0  0  0  0  0  0
  194.5560  175.8000  146.4380 O   0  0  0  0  0  0  0  0  0  0  0  0
  195.9510  171.4880  144.3620 C   0  0  0  0  0  3  0  0  0  0  0  0
  197.9080  172.9170  143.7950 C   0  0  0  0  0  1  0  0  0  0  0  0
  195.9300  173.9340  144.9890 C   0  0  1  0  0  3  0  0  0  0  0  0
  194.0850  172.3830  145.7670 C   0  0  0  0  0  2  0  0  0  0  0  0
  196.5970  173.8050  146.2140 O   0  0  0  0  0  1  0  0  0  0  0  0
  194.8580  171.2540  145.1100 C   0  0  0  0  0  0  0  0  0  0  0  0
  196.4040  172.8760  143.9910 C   0  0  2  0  0  3  0  0  0  0  0  0
  194.4210  173.7630  145.1750 C   0  0  1  0  0  3  0  0  0  0  0  0
  194.5110  169.8260  145.4060 C   0  0  0  0  0  2  0  0  0  0  0  0
  194.6650  169.5190  146.7630 O   0  0  0  0  0  0  0  0  0  0  0  0
  196.3310  168.3890  147.7890 C   0  0  0  0  0  1  0  0  0  0  0  0
  195.2940  168.3170  146.7730 N   0  0  0  0  0  2  0  0  0  0  0  0
  186.7600  176.9790  144.7490 C   0  0  1  0  0  3  0  0  0  0  0  0
  186.9230  177.2510  146.2400 C   0  0  0  0  0  1  0  0  0  0  0  0
  186.7360  178.2080  144.0770 O   0  0  0  0  0  0  0  0  0  0  0  0
  185.9590  178.9850  144.8090 O   0  0  0  0  0  0  0  0  0  0  0  0
  184.9020  179.3290  143.9600 C   0  0  0  0  0  1  0  0  0  0  0  0
  1 60  1  6  0  0  0
  2  9  1  0  0  0  0
  3  4  1  0  0  0  0
  3  6  1  0  0  0  0
  4  8  1  0  0  0  0
  5  1  1  0  0  0  0
  6 11  2  0  0  0  0
  7  9  1  0  0  0  0
  7  4  2  0  0  0  0
  8 11  1  0  0  0  0
  8  5  2  0  0  0  0
  9 10  2  0  0  0  0
 10  5  1  0  0  0  0
 12  3  1  0  0  0  0
 13 12  1  6  0  0  0
 13 14  1  0  0  0  0
 14 19  1  0  0  0  0
 16 20  1  0  0  0  0
 16 22  1  1  0  0  0
 16 18  1  0  0  0  0
 17 14  2  0  0  0  0
 17 20  1  0  0  0  0
 18 15  1  1  0  0  0
 19 18  1  0  0  0  0
 20 18  1  0  0  0  0
 21 22  2  0  0  0  0
 24 23  1  0  0  0  0
 24 21  1  0  0  0  0
 25 26  2  0  0  0  0
 26 13  1  0  0  0  0
 28 30  1  1  0  0  0
 28 31  1  0  0  0  0
 28 32  1  0  0  0  0
 29 27  1  0  0  0  0
 31 29  1  0  0  0  0
 32 26  1  1  0  0  0
 32 27  1  0  0  0  0
 33 38  1  0  0  0  0
 33 45  1  1  0  0  0
 34 44  1  1  0  0  0
 34 33  1  0  0  0  0
 36 39  1  0  0  0  0
 36 34  1  0  0  0  0
 37  1  1  6  0  0  0
 37 38  1  0  0  0  0
 38 35  1  6  0  0  0
 38 40  1  0  0  0  0
 39 37  1  0  0  0  0
 40 41  1  0  0  0  0
 40 42  2  0  0  0  0
 43 44  1  0  0  0  0
 46 45  1  0  0  0  0
 46 47  2  0  0  0  0
 48 53  2  0  0  0  0
 50 55  1  0  0  0  0
 50 52  1  1  0  0  0
 53 56  1  0  0  0  0
 53 51  1  0  0  0  0
 54 49  1  1  0  0  0
 54 48  1  0  0  0  0
 54 50  1  0  0  0  0
 55 51  1  0  0  0  0
 55 46  1  1  0  0  0
 56 57  1  0  0  0  0
 57 59  1  0  0  0  0
 59 58  1  0  0  0  0
 60 61  1  1  0  0  0
 62 60  1  0  0  0  0
 62 63  1  0  0  0  0
 64 63  1  0  0  0  0
M  END
>  <MODEL>
1

>  <REMARK>
 VINA RESULT:      -6.6      0.000      0.000
  Name = 
  20 active torsions:
  status: ('A' for Active; 'I' for Inactive)
    1  A    between atoms: C_3  and  C_30
    2  A    between atoms: C_5  and  O_58
    3  A    between atoms: C_6  and  C_33
    4  A    between atoms: C_7  and  C_49
    5  A    between atoms: N_9  and  C_56
    6  A    between atoms: C_12  and  C_43
    7  A    between atoms: C_12  and  O_64
    8  A    between atoms: C_14  and  O_58
    9  A    between atoms: C_14  and  C_63
   10  A    between atoms: O_15  and  O_40
   11  A    between atoms: C_19  and  O_47
   12  A    between atoms: C_20  and  C_48
   13  A    between atoms: C_26  and  C_39
   14  A    between atoms: C_30  and  C_53
   15  A    between atoms: C_30  and  C_56
   16  A    between atoms: C_31  and  C_48
   17  A    between atoms: C_38  and  O_40
   18  A    between atoms: C_38  and  C_48
   19  A    between atoms: N_45  and  O_64
   20  A    between atoms: C_53  and  C_61
                            x       y       z     vdW  Elec       q    Type
                         _______ _______ _______ _____ _____    ______ ____

>  <TORSDO>
F 20

$$$$
=
 OpenBabel11062418233D

 64 70  0  0  1  0  0  0  0  0999 V2000
  195.1260  174.8290  142.6130 C   0  0  1  0  0  3  0  0  0  0  0  0
  197.8630  170.5900  141.0480 Cl  0  0  0  0  0  0  0  0  0  0  0  0
  195.0020  173.6630  138.0070 N   0  0  0  0  0  0  0  0  0  0  0  0
  195.5260  173.2590  139.1700 C   0  0  0  0  0  0  0  0  0  0  0  0
  195.5540  173.8970  141.4990 C   0  0  0  0  0  0  0  0  0  0  0  0
  194.2830  174.7800  138.2680 C   0  0  0  0  0  3  0  0  0  0  0  0
  196.3690  172.1700  139.3930 C   0  0  0  0  0  3  0  0  0  0  0  0
  195.1280  174.0920  140.1810 C   0  0  0  0  0  0  0  0  0  0  0  0
  196.8070  171.9430  140.7080 C   0  0  0  0  0  0  0  0  0  0  0  0
  196.4060  172.8000  141.7530 C   0  0  0  0  0  3  0  0  0  0  0  0
  194.3270  175.0790  139.6320 C   0  0  0  0  0  3  0  0  0  0  0  0
  195.2740  173.0880  136.6910 C   0  0  0  0  0  2  0  0  0  0  0  0
  194.1300  172.1880  136.2240 C   0  0  2  0  0  3  0  0  0  0  0  0
  192.7720  172.8290  136.3440 C   0  0  0  0  0  0  0  0  0  0  0  0
  191.1190  175.6770  135.6030 C   0  0  0  0  0  1  0  0  0  0  0  0
  189.8360  173.5400  136.2100 C   0  0  1  0  0  3  0  0  0  0  0  0
  192.1860  173.0420  137.5010 N   0  0  0  0  0  0  0  0  0  0  0  0
  190.9210  174.1620  135.6350 C   0  0  1  0  0  0  0  0  0  0  0  0
  192.0760  173.3910  135.1660 N   0  0  0  0  0  2  0  0  0  0  0  0
  191.0920  173.7000  137.0040 N   0  0  0  0  0  0  0  0  0  0  0  0
  188.0780  174.2600  137.8380 C   0  0  0  0  0  3  0  0  0  0  0  0
  188.7840  174.4860  136.7250 C   0  0  0  0  0  3  0  0  0  0  0  0
  188.8030  173.4330  139.9780 N   0  0  0  0  0  1  0  0  0  0  0  0
  188.2740  173.0430  138.6840 C   0  0  0  0  0  2  0  0  0  0  0  0
  195.1980  170.1840  136.8810 O   0  0  0  0  0  0  0  0  0  0  0  0
  194.1930  170.8750  136.9580 C   0  0  0  0  0  0  0  0  0  0  0  0
  193.3890  169.5830  138.8990 N   0  0  0  0  0  2  0  0  0  0  0  0
  192.0100  169.5210  136.9690 C   0  0  1  0  0  3  0  0  0  0  0  0
  192.2710  168.6750  139.1260 C   0  0  0  0  0  2  0  0  0  0  0  0
  192.6550  168.6360  135.9090 C   0  0  0  0  0  1  0  0  0  0  0  0
  191.3810  168.6760  137.9650 N   0  0  0  0  0  2  0  0  0  0  0  0
  193.0060  170.3650  137.7410 C   0  0  2  0  0  3  0  0  0  0  0  0
  191.4410  174.5350  143.8820 C   0  0  1  0  0  3  0  0  0  0  0  0
  191.1010  173.5260  142.7670 C   0  0  1  0  0  3  0  0  0  0  0  0
  192.6240  176.0670  142.4660 O   0  0  0  0  0  1  0  0  0  0  0  0
  192.3400  172.8180  142.1990 C   0  0  0  0  0  2  0  0  0  0  0  0
  193.9440  174.2920  143.4630 C   0  0  1  0  0  3  0  0  0  0  0  0
  192.7630  175.2920  143.6280 C   0  0  2  0  0  0  0  0  0  0  0  0
  193.5080  172.8400  143.1850 C   0  0  0  0  0  2  0  0  0  0  0  0
  193.0410  176.1870  144.8190 C   0  0  0  0  0  0  0  0  0  0  0  0
  193.1960  175.6260  146.1990 C   0  0  0  0  0  1  0  0  0  0  0  0
  193.1890  177.3880  144.6610 O   0  0  0  0  0  0  0  0  0  0  0  0
  190.8980  171.9190  144.2820 C   0  0  0  0  0  1  0  0  0  0  0  0
  190.2080  172.5680  143.2570 O   0  0  0  0  0  0  0  0  0  0  0  0
  190.3630  175.4450  144.0920 O   0  0  0  0  0  0  0  0  0  0  0  0
  189.4950  175.3400  145.1830 C   0  0  0  0  0  0  0  0  0  0  0  0
  189.8340  174.6260  146.1640 O   0  0  0  0  0  0  0  0  0  0  0  0
  186.0200  177.9180  145.3630 C   0  0  0  0  0  3  0  0  0  0  0  0
  185.8130  177.5440  147.8150 C   0  0  0  0  0  1  0  0  0  0  0  0
  187.7480  176.5170  146.5600 C   0  0  1  0  0  3  0  0  0  0  0  0
  188.0500  177.1410  144.1240 C   0  0  0  0  0  2  0  0  0  0  0  0
  188.5750  177.5720  146.9650 O   0  0  0  0  0  1  0  0  0  0  0  0
  186.7760  177.9570  144.2510 C   0  0  0  0  0  0  0  0  0  0  0  0
  186.2840  176.9610  146.4960 C   0  0  2  0  0  3  0  0  0  0  0  0
  188.1490  176.0180  145.1710 C   0  0  1  0  0  3  0  0  0  0  0  0
  186.4060  178.9530  143.1940 C   0  0  0  0  0  2  0  0  0  0  0  0
  186.9790  178.6410  141.9560 O   0  0  0  0  0  0  0  0  0  0  0  0
  186.6710  177.2920  140.1700 C   0  0  0  0  0  1  0  0  0  0  0  0
  186.0260  177.9260  141.3070 N   0  0  0  0  0  2  0  0  0  0  0  0
  196.3100  175.2500  143.5010 C   0  0  1  0  0  3  0  0  0  0  0  0
  196.4570  176.7670  143.5380 C   0  0  0  0  0  1  0  0  0  0  0  0
  196.1240  174.7920  144.8110 O   0  0  0  0  0  0  0  0  0  0  0  0
  197.2370  174.1490  145.1110 O   0  0  0  0  0  0  0  0  0  0  0  0
  196.8120  173.0140  145.8100 C   0  0  0  0  0  1  0  0  0  0  0  0
  1 60  1  1  0  0  0
  3  6  1  0  0  0  0
  3  4  1  0  0  0  0
  4  7  2  0  0  0  0
  4  8  1  0  0  0  0
  5 10  1  0  0  0  0
  5  1  1  0  0  0  0
  6 11  2  0  0  0  0
  7  9  1  0  0  0  0
  8  5  2  0  0  0  0
  9  2  1  0  0  0  0
  9 10  2  0  0  0  0
 11  8  1  0  0  0  0
 12  3  1  0  0  0  0
 13 14  1  0  0  0  0
 13 12  1  1  0  0  0
 13 26  1  0  0  0  0
 14 17  2  0  0  0  0
 16 22  1  1  0  0  0
 16 20  1  0  0  0  0
 18 15  1  6  0  0  0
 18 16  1  0  0  0  0
 18 20  1  0  0  0  0
 19 18  1  0  0  0  0
 19 14  1  0  0  0  0
 20 17  1  0  0  0  0
 21 24  1  0  0  0  0
 22 21  2  0  0  0  0
 24 23  1  0  0  0  0
 25 26  2  0  0  0  0
 27 29  1  0  0  0  0
 28 30  1  6  0  0  0
 28 32  1  0  0  0  0
 28 31  1  0  0  0  0
 31 29  1  0  0  0  0
 32 26  1  6  0  0  0
 32 27  1  0  0  0  0
 33 45  1  6  0  0  0
 34 44  1  1  0  0  0
 34 33  1  0  0  0  0
 36 34  1  0  0  0  0
 36 39  1  0  0  0  0
 37  1  1  6  0  0  0
 37 38  1  0  0  0  0
 38 35  1  6  0  0  0
 38 33  1  0  0  0  0
 38 40  1  0  0  0  0
 39 37  1  0  0  0  0
 40 41  1  0  0  0  0
 42 40  2  0  0  0  0
 44 43  1  0  0  0  0
 45 46  1  0  0  0  0
 46 47  2  0  0  0  0
 48 54  1  0  0  0  0
 50 52  1  6  0  0  0
 51 53  1  0  0  0  0
 51 55  1  0  0  0  0
 53 48  2  0  0  0  0
 54 50  1  0  0  0  0
 54 49  1  1  0  0  0
 55 46  1  1  0  0  0
 55 50  1  0  0  0  0
 56 53  1  0  0  0  0
 57 56  1  0  0  0  0
 58 59  1  0  0  0  0
 59 57  1  0  0  0  0
 60 61  1  1  0  0  0
 60 62  1  0  0  0  0
 62 63  1  0  0  0  0
 63 64  1  0  0  0  0
M  END
>  <MODEL>
2

>  <REMARK>
 VINA RESULT:      -6.5      3.001      7.827
  Name = 
  20 active torsions:
  status: ('A' for Active; 'I' for Inactive)
    1  A    between atoms: C_3  and  C_30
    2  A    between atoms: C_5  and  O_58
    3  A    between atoms: C_6  and  C_33
    4  A    between atoms: C_7  and  C_49
    5  A    between atoms: N_9  and  C_56
    6  A    between atoms: C_12  and  C_43
    7  A    between atoms: C_12  and  O_64
    8  A    between atoms: C_14  and  O_58
    9  A    between atoms: C_14  and  C_63
   10  A    between atoms: O_15  and  O_40
   11  A    between atoms: C_19  and  O_47
   12  A    between atoms: C_20  and  C_48
   13  A    between atoms: C_26  and  C_39
   14  A    between atoms: C_30  and  C_53
   15  A    between atoms: C_30  and  C_56
   16  A    between atoms: C_31  and  C_48
   17  A    between atoms: C_38  and  O_40
   18  A    between atoms: C_38  and  C_48
   19  A    between atoms: N_45  and  O_64
   20  A    between atoms: C_53  and  C_61
                            x       y       z     vdW  Elec       q    Type
                         _______ _______ _______ _____ _____    ______ ____

>  <TORSDO>
F 20

$$$$
=
 OpenBabel11062418233D

 64 70  0  0  1  0  0  0  0  0999 V2000
  188.1400  175.9580  143.9010 C   0  0  1  0  0  3  0  0  0  0  0  0
  186.7280  177.2970  138.9900 Cl  0  0  0  0  0  0  0  0  0  0  0  0
  189.0230  172.8680  140.4000 N   0  0  0  0  0  0  0  0  0  0  0  0
  188.5010  174.0810  140.6110 C   0  0  0  0  0  0  0  0  0  0  0  0
  188.0760  175.6140  142.4280 C   0  0  0  0  0  0  0  0  0  0  0  0
  189.4090  172.3910  141.6070 C   0  0  0  0  0  3  0  0  0  0  0  0
  187.9390  174.9440  139.6690 C   0  0  0  0  0  3  0  0  0  0  0  0
  188.5720  174.4000  141.9400 C   0  0  0  0  0  0  0  0  0  0  0  0
  187.4400  176.1740  140.1270 C   0  0  0  0  0  0  0  0  0  0  0  0
  187.5050  176.5070  141.4950 C   0  0  0  0  0  3  0  0  0  0  0  0
  189.1520  173.3340  142.6060 C   0  0  0  0  0  3  0  0  0  0  0  0
  189.0400  172.1430  139.1310 C   0  0  0  0  0  2  0  0  0  0  0  0
  190.4460  171.6570  138.7800 C   0  0  2  0  0  3  0  0  0  0  0  0
  191.3220  172.7290  138.1850 C   0  0  0  0  0  0  0  0  0  0  0  0
  193.7020  174.9680  139.0290 C   0  0  0  0  0  1  0  0  0  0  0  0
  193.3090  174.3400  136.5730 C   0  0  1  0  0  3  0  0  0  0  0  0
  190.8370  173.7920  137.5840 N   0  0  0  0  0  0  0  0  0  0  0  0
  193.3240  174.0020  137.9080 C   0  0  1  0  0  0  0  0  0  0  0  0
  192.7900  172.7180  138.3700 N   0  0  0  0  0  2  0  0  0  0  0  0
  192.0400  174.4080  137.3580 N   0  0  0  0  0  0  0  0  0  0  0  0
  194.8600  175.9890  135.5060 C   0  0  0  0  0  3  0  0  0  0  0  0
  193.8030  175.7330  136.2850 C   0  0  0  0  0  3  0  0  0  0  0  0
  196.6690  174.4220  135.7490 N   0  0  0  0  0  1  0  0  0  0  0  0
  195.6490  174.9090  134.8380 C   0  0  0  0  0  2  0  0  0  0  0  0
  189.3180  169.8020  137.8460 O   0  0  0  0  0  0  0  0  0  0  0  0
  190.3520  170.4530  137.8820 C   0  0  0  0  0  0  0  0  0  0  0  0
  191.1580  169.2260  135.9000 N   0  0  0  0  0  2  0  0  0  0  0  0
  192.5750  169.1680  137.8040 C   0  0  1  0  0  3  0  0  0  0  0  0
  192.3000  168.3570  135.6350 C   0  0  0  0  0  2  0  0  0  0  0  0
  191.9770  168.2430  138.8560 C   0  0  0  0  0  1  0  0  0  0  0  0
  193.2110  168.3630  136.7790 N   0  0  0  0  0  2  0  0  0  0  0  0
  191.5390  169.9960  137.0670 C   0  0  2  0  0  3  0  0  0  0  0  0
  191.8440  175.8940  145.1480 C   0  0  1  0  0  3  0  0  0  0  0  0
  192.3660  175.7820  143.7020 C   0  0  1  0  0  3  0  0  0  0  0  0
  190.1130  174.2520  144.9060 O   0  0  0  0  0  1  0  0  0  0  0  0
  191.3540  176.2800  142.6590 C   0  0  0  0  0  2  0  0  0  0  0  0
  189.5080  176.5350  144.3520 C   0  0  1  0  0  3  0  0  0  0  0  0
  190.3350  175.5890  145.2710 C   0  0  2  0  0  0  0  0  0  0  0  0
  190.3400  177.2480  143.2680 C   0  0  0  0  0  2  0  0  0  0  0  0
  189.9150  175.8120  146.7100 C   0  0  0  0  0  0  0  0  0  0  0  0
  189.1970  174.7520  147.4870 C   0  0  0  0  0  1  0  0  0  0  0  0
  190.2010  176.8550  147.2770 O   0  0  0  0  0  0  0  0  0  0  0  0
  194.1380  176.0460  142.3940 C   0  0  0  0  0  1  0  0  0  0  0  0
  193.5530  176.5080  143.5740 O   0  0  0  0  0  0  0  0  0  0  0  0
  192.6050  175.0700  146.0300 O   0  0  0  0  0  0  0  0  0  0  0  0
  193.9820  175.2360  146.2090 C   0  0  0  0  0  0  0  0  0  0  0  0
  194.4200  176.3700  146.5390 O   0  0  0  0  0  0  0  0  0  0  0  0
  196.4010  171.9360  144.7900 C   0  0  0  0  0  3  0  0  0  0  0  0
  194.6220  170.3080  145.4060 C   0  0  0  0  0  1  0  0  0  0  0  0
  194.2060  172.7790  145.7130 C   0  0  1  0  0  3  0  0  0  0  0  0
  195.9450  174.3960  144.8330 C   0  0  0  0  0  2  0  0  0  0  0  0
  193.5110  172.8170  144.4980 O   0  0  0  0  0  1  0  0  0  0  0  0
  196.7680  173.1830  144.4410 C   0  0  0  0  0  0  0  0  0  0  0  0
  195.2450  171.6560  145.7160 C   0  0  2  0  0  3  0  0  0  0  0  0
  194.9390  174.0990  145.9590 C   0  0  1  0  0  3  0  0  0  0  0  0
  197.9380  173.3280  143.5160 C   0  0  0  0  0  2  0  0  0  0  0  0
  197.8280  172.4970  142.3950 O   0  0  0  0  0  0  0  0  0  0  0  0
  197.9170  174.5190  141.3910 C   0  0  0  0  0  1  0  0  0  0  0  0
  197.1990  173.2580  141.4640 N   0  0  0  0  0  2  0  0  0  0  0  0
  186.9780  176.8680  144.3330 C   0  0  1  0  0  3  0  0  0  0  0  0
  185.6400  176.1470  144.2070 C   0  0  0  0  0  1  0  0  0  0  0  0
  187.1390  177.2690  145.6650 O   0  0  0  0  0  0  0  0  0  0  0  0
  186.4630  178.3980  145.7690 O   0  0  0  0  0  0  0  0  0  0  0  0
  186.0300  178.4300  147.0990 C   0  0  0  0  0  1  0  0  0  0  0  0
  1 60  1  6  0  0  0
  2  9  1  0  0  0  0
  3  4  1  0  0  0  0
  3  6  1  0  0  0  0
  4  8  1  0  0  0  0
  5  1  1  0  0  0  0
  6 11  2  0  0  0  0
  7  9  1  0  0  0  0
  7  4  2  0  0  0  0
  8  5  2  0  0  0  0
  8 11  1  0  0  0  0
  9 10  2  0  0  0  0
 10  5  1  0  0  0  0
 12  3  1  0  0  0  0
 13 12  1  6  0  0  0
 14 19  1  0  0  0  0
 14 13  1  0  0  0  0
 16 22  1  1  0  0  0
 16 20  1  0  0  0  0
 16 18  1  0  0  0  0
 17 14  2  0  0  0  0
 18 19  1  0  0  0  0
 18 15  1  1  0  0  0
 20 17  1  0  0  0  0
 20 18  1  0  0  0  0
 21 22  2  0  0  0  0
 24 21  1  0  0  0  0
 24 23  1  0  0  0  0
 25 26  2  0  0  0  0
 26 13  1  0  0  0  0
 27 32  1  0  0  0  0
 28 30  1  1  0  0  0
 29 27  1  0  0  0  0
 29 31  1  0  0  0  0
 31 28  1  0  0  0  0
 32 28  1  0  0  0  0
 32 26  1  1  0  0  0
 33 38  1  0  0  0  0
 33 45  1  1  0  0  0
 34 44  1  1  0  0  0
 34 33  1  0  0  0  0
 36 39  1  0  0  0  0
 36 34  1  0  0  0  0
 37  1  1  6  0  0  0
 37 38  1  0  0  0  0
 38 35  1  6  0  0  0
 38 40  1  0  0  0  0
 39 37  1  0  0  0  0
 40 42  2  0  0  0  0
 40 41  1  0  0  0  0
 43 44  1  0  0  0  0
 45 46  1  0  0  0  0
 46 47  2  0  0  0  0
 48 54  1  0  0  0  0
 50 52  1  6  0  0  0
 50 54  1  0  0  0  0
 50 55  1  0  0  0  0
 51 55  1  0  0  0  0
 53 48  2  0  0  0  0
 53 51  1  0  0  0  0
 54 49  1  6  0  0  0
 55 46  1  6  0  0  0
 56 53  1  0  0  0  0
 57 56  1  0  0  0  0
 58 59  1  0  0  0  0
 59 57  1  0  0  0  0
 60 61  1  1  0  0  0
 60 62  1  0  0  0  0
 62 63  1  0  0  0  0
 63 64  1  0  0  0  0
M  END
>  <MODEL>
3

>  <REMARK>
 VINA RESULT:      -6.5      1.760      2.599
  Name = 
  20 active torsions:
  status: ('A' for Active; 'I' for Inactive)
    1  A    between atoms: C_3  and  C_30
    2  A    between atoms: C_5  and  O_58
    3  A    between atoms: C_6  and  C_33
    4  A    between atoms: C_7  and  C_49
    5  A    between atoms: N_9  and  C_56
    6  A    between atoms: C_12  and  C_43
    7  A    between atoms: C_12  and  O_64
    8  A    between atoms: C_14  and  O_58
    9  A    between atoms: C_14  and  C_63
   10  A    between atoms: O_15  and  O_40
   11  A    between atoms: C_19  and  O_47
   12  A    between atoms: C_20  and  C_48
   13  A    between atoms: C_26  and  C_39
   14  A    between atoms: C_30  and  C_53
   15  A    between atoms: C_30  and  C_56
   16  A    between atoms: C_31  and  C_48
   17  A    between atoms: C_38  and  O_40
   18  A    between atoms: C_38  and  C_48
   19  A    between atoms: N_45  and  O_64
   20  A    between atoms: C_53  and  C_61
                            x       y       z     vdW  Elec       q    Type
                         _______ _______ _______ _____ _____    ______ ____

>  <TORSDO>
F 20

$$$$
=
 OpenBabel11062418233D

 64 70  0  0  1  0  0  0  0  0999 V2000
  188.3190  176.0740  144.5990 C   0  0  1  0  0  3  0  0  0  0  0  0
  186.7910  177.8730  139.8730 Cl  0  0  0  0  0  0  0  0  0  0  0  0
  188.6140  173.1270  140.8830 N   0  0  0  0  0  0  0  0  0  0  0  0
  188.2560  174.3770  141.1940 C   0  0  0  0  0  0  0  0  0  0  0  0
  188.1270  175.8330  143.1170 C   0  0  0  0  0  0  0  0  0  0  0  0
  189.0100  172.5340  142.0340 C   0  0  0  0  0  3  0  0  0  0  0  0
  187.7480  175.3570  140.3400 C   0  0  0  0  0  3  0  0  0  0  0  0
  188.4430  174.6020  142.5320 C   0  0  0  0  0  0  0  0  0  0  0  0
  187.4290  176.6050  140.8970 C   0  0  0  0  0  0  0  0  0  0  0  0
  187.6140  176.8420  142.2740 C   0  0  0  0  0  3  0  0  0  0  0  0
  188.9280  173.4360  143.0980 C   0  0  0  0  0  3  0  0  0  0  0  0
  188.4680  172.4860  139.5780 C   0  0  0  0  0  2  0  0  0  0  0  0
  189.8270  172.1650  138.9540 C   0  0  2  0  0  3  0  0  0  0  0  0
  190.1920  173.0720  137.8080 C   0  0  0  0  0  0  0  0  0  0  0  0
  189.3670  173.7440  134.6040 C   0  0  0  0  0  1  0  0  0  0  0  0
  190.7550  175.4100  135.9750 C   0  0  1  0  0  3  0  0  0  0  0  0
  191.3950  173.1030  137.2800 N   0  0  0  0  0  0  0  0  0  0  0  0
  189.7750  174.4460  135.8990 C   0  0  1  0  0  0  0  0  0  0  0  0
  189.1700  173.8830  137.1090 N   0  0  0  0  0  2  0  0  0  0  0  0
  191.1040  173.9890  136.2760 N   0  0  0  0  0  0  0  0  0  0  0  0
  192.4480  176.5380  134.5180 C   0  0  0  0  0  3  0  0  0  0  0  0
  191.3360  175.8050  134.6430 C   0  0  0  0  0  3  0  0  0  0  0  0
  194.4820  176.3060  135.7810 N   0  0  0  0  0  1  0  0  0  0  0  0
  193.2270  177.0290  135.6960 C   0  0  0  0  0  2  0  0  0  0  0  0
  189.3050  170.3550  137.5270 O   0  0  0  0  0  0  0  0  0  0  0  0
  189.8650  170.7150  138.5520 C   0  0  0  0  0  0  0  0  0  0  0  0
  191.1990  170.2640  140.5770 N   0  0  0  0  0  2  0  0  0  0  0  0
  191.5590  168.7940  138.7500 C   0  0  1  0  0  3  0  0  0  0  0  0
  192.2700  169.3300  140.9050 C   0  0  0  0  0  2  0  0  0  0  0  0
  192.3640  169.5080  137.6710 C   0  0  0  0  0  1  0  0  0  0  0  0
  192.4590  168.3800  139.8090 N   0  0  0  0  0  2  0  0  0  0  0  0
  190.5350  169.6830  139.4280 C   0  0  2  0  0  3  0  0  0  0  0  0
  192.0900  175.4880  145.4400 C   0  0  1  0  0  3  0  0  0  0  0  0
  192.4710  175.5630  143.9490 C   0  0  1  0  0  3  0  0  0  0  0  0
  190.1870  174.0630  145.1300 O   0  0  0  0  0  1  0  0  0  0  0  0
  191.4290  176.3080  143.1000 C   0  0  0  0  0  2  0  0  0  0  0  0
  189.7730  176.4500  144.9910 C   0  0  1  0  0  3  0  0  0  0  0  0
  190.5750  175.3010  145.6680 C   0  0  2  0  0  0  0  0  0  0  0  0
  190.5760  177.2510  143.9490 C   0  0  0  0  0  2  0  0  0  0  0  0
  190.3060  175.3260  147.1590 C   0  0  0  0  0  0  0  0  0  0  0  0
  189.1780  174.5490  147.7640 C   0  0  0  0  0  1  0  0  0  0  0  0
  191.0440  175.9520  147.9040 O   0  0  0  0  0  0  0  0  0  0  0  0
  194.1960  175.7790  142.5700 C   0  0  0  0  0  1  0  0  0  0  0  0
  193.7110  176.1940  143.8120 O   0  0  0  0  0  0  0  0  0  0  0  0
  192.8370  174.4700  146.1060 O   0  0  0  0  0  0  0  0  0  0  0  0
  193.2640  173.3070  145.4560 C   0  0  0  0  0  0  0  0  0  0  0  0
  192.4090  172.5860  144.8760 O   0  0  0  0  0  0  0  0  0  0  0  0
  197.2060  171.5660  145.0390 C   0  0  0  0  0  3  0  0  0  0  0  0
  196.6400  169.7780  146.6730 C   0  0  0  0  0  1  0  0  0  0  0  0
  194.8740  171.4520  146.0010 C   0  0  1  0  0  3  0  0  0  0  0  0
  195.4300  173.0860  144.1480 C   0  0  0  0  0  2  0  0  0  0  0  0
  194.3510  170.5370  145.0790 O   0  0  0  0  0  1  0  0  0  0  0  0
  196.8180  172.4730  144.1240 C   0  0  0  0  0  0  0  0  0  0  0  0
  196.3660  171.2040  146.2360 C   0  0  2  0  0  3  0  0  0  0  0  0
  194.7100  172.8850  145.4930 C   0  0  1  0  0  3  0  0  0  0  0  0
  197.7480  172.7480  142.9810 C   0  0  0  0  0  2  0  0  0  0  0  0
  197.4560  173.9610  142.3470 O   0  0  0  0  0  0  0  0  0  0  0  0
  197.9160  172.8570  140.4300 C   0  0  0  0  0  1  0  0  0  0  0  0
  196.9040  173.6030  141.1600 N   0  0  0  0  0  2  0  0  0  0  0  0
  187.3080  177.0920  145.1550 C   0  0  1  0  0  3  0  0  0  0  0  0
  185.8750  176.6110  144.9480 C   0  0  0  0  0  1  0  0  0  0  0  0
  187.5130  177.2870  146.5260 O   0  0  0  0  0  0  0  0  0  0  0  0
  186.9610  178.4550  146.7940 O   0  0  0  0  0  0  0  0  0  0  0  0
  186.2430  178.2450  147.9760 C   0  0  0  0  0  1  0  0  0  0  0  0
  1 60  1  6  0  0  0
  2  9  1  0  0  0  0
  3  4  1  0  0  0  0
  3  6  1  0  0  0  0
  4  8  1  0  0  0  0
  5  1  1  0  0  0  0
  6 11  2  0  0  0  0
  7  9  1  0  0  0  0
  7  4  2  0  0  0  0
  8 11  1  0  0  0  0
  8  5  2  0  0  0  0
  9 10  2  0  0  0  0
 10  5  1  0  0  0  0
 12  3  1  0  0  0  0
 13 12  1  6  0  0  0
 14 13  1  0  0  0  0
 16 22  1  6  0  0  0
 16 20  1  0  0  0  0
 17 14  2  0  0  0  0
 18 15  1  6  0  0  0
 18 16  1  0  0  0  0
 18 20  1  0  0  0  0
 18 19  1  0  0  0  0
 19 14  1  0  0  0  0
 20 17  1  0  0  0  0
 21 22  2  0  0  0  0
 21 24  1  0  0  0  0
 24 23  1  0  0  0  0
 25 26  2  0  0  0  0
 26 13  1  0  0  0  0
 27 29  1  0  0  0  0
 28 30  1  6  0  0  0
 28 32  1  0  0  0  0
 28 31  1  0  0  0  0
 31 29  1  0  0  0  0
 32 26  1  6  0  0  0
 32 27  1  0  0  0  0
 33 38  1  0  0  0  0
 33 45  1  6  0  0  0
 34 44  1  1  0  0  0
 34 33  1  0  0  0  0
 36 39  1  0  0  0  0
 36 34  1  0  0  0  0
 37  1  1  6  0  0  0
 37 38  1  0  0  0  0
 38 35  1  6  0  0  0
 38 40  1  0  0  0  0
 39 37  1  0  0  0  0
 40 41  1  0  0  0  0
 40 42  2  0  0  0  0
 43 44  1  0  0  0  0
 46 45  1  0  0  0  0
 47 46  2  0  0  0  0
 48 54  1  0  0  0  0
 50 52  1  6  0  0  0
 50 54  1  0  0  0  0
 51 55  1  0  0  0  0
 53 51  1  0  0  0  0
 53 48  2  0  0  0  0
 54 49  1  6  0  0  0
 55 46  1  6  0  0  0
 55 50  1  0  0  0  0
 56 53  1  0  0  0  0
 57 56  1  0  0  0  0
 58 59  1  0  0  0  0
 59 57  1  0  0  0  0
 60 61  1  1  0  0  0
 60 62  1  0  0  0  0
 62 63  1  0  0  0  0
 63 64  1  0  0  0  0
M  END
>  <MODEL>
4

>  <REMARK>
 VINA RESULT:      -6.3      2.133      3.279
  Name = 
  20 active torsions:
  status: ('A' for Active; 'I' for Inactive)
    1  A    between atoms: C_3  and  C_30
    2  A    between atoms: C_5  and  O_58
    3  A    between atoms: C_6  and  C_33
    4  A    between atoms: C_7  and  C_49
    5  A    between atoms: N_9  and  C_56
    6  A    between atoms: C_12  and  C_43
    7  A    between atoms: C_12  and  O_64
    8  A    between atoms: C_14  and  O_58
    9  A    between atoms: C_14  and  C_63
   10  A    between atoms: O_15  and  O_40
   11  A    between atoms: C_19  and  O_47
   12  A    between atoms: C_20  and  C_48
   13  A    between atoms: C_26  and  C_39
   14  A    between atoms: C_30  and  C_53
   15  A    between atoms: C_30  and  C_56
   16  A    between atoms: C_31  and  C_48
   17  A    between atoms: C_38  and  O_40
   18  A    between atoms: C_38  and  C_48
   19  A    between atoms: N_45  and  O_64
   20  A    between atoms: C_53  and  C_61
                            x       y       z     vdW  Elec       q    Type
                         _______ _______ _______ _____ _____    ______ ____

>  <TORSDO>
F 20

$$$$
=
 OpenBabel11062418233D

 64 70  0  0  1  0  0  0  0  0999 V2000
  194.5370  174.5740  143.4280 C   0  0  1  0  0  3  0  0  0  0  0  0
  196.7340  169.9150  142.2530 Cl  0  0  0  0  0  0  0  0  0  0  0  0
  193.6830  172.7170  139.1380 N   0  0  0  0  0  0  0  0  0  0  0  0
  194.3390  172.4550  140.2740 C   0  0  0  0  0  0  0  0  0  0  0  0
  194.7390  173.4440  142.4400 C   0  0  0  0  0  0  0  0  0  0  0  0
  193.0840  173.9210  139.2980 C   0  0  0  0  0  3  0  0  0  0  0  0
  195.1300  171.3440  140.5650 C   0  0  0  0  0  3  0  0  0  0  0  0
  194.1450  173.4680  141.1740 C   0  0  0  0  0  0  0  0  0  0  0  0
  195.7340  171.2870  141.8320 C   0  0  0  0  0  0  0  0  0  0  0  0
  195.5430  172.3290  142.7610 C   0  0  0  0  0  3  0  0  0  0  0  0
  193.3420  174.4240  140.5760 C   0  0  0  0  0  3  0  0  0  0  0  0
  193.7270  171.9230  137.9120 C   0  0  0  0  0  2  0  0  0  0  0  0
  192.3560  171.8520  137.2390 C   0  0  2  0  0  3  0  0  0  0  0  0
  191.9410  173.1420  136.5810 C   0  0  0  0  0  0  0  0  0  0  0  0
  193.1990  175.7360  134.8250 C   0  0  0  0  0  1  0  0  0  0  0  0
  190.6710  175.3010  134.8860 C   0  0  1  0  0  3  0  0  0  0  0  0
  191.3910  174.1350  137.2440 N   0  0  0  0  0  0  0  0  0  0  0  0
  191.9670  174.8350  134.8950 C   0  0  1  0  0  0  0  0  0  0  0  0
  192.2630  173.4250  135.1650 N   0  0  0  0  0  2  0  0  0  0  0  0
  191.3350  175.0140  136.1940 N   0  0  0  0  0  0  0  0  0  0  0  0
  189.3830  177.4150  134.5210 C   0  0  0  0  0  3  0  0  0  0  0  0
  190.5530  176.7900  134.6930 C   0  0  0  0  0  3  0  0  0  0  0  0
  187.4960  176.7240  135.8430 N   0  0  0  0  0  1  0  0  0  0  0  0
  188.0750  176.6900  134.5130 C   0  0  0  0  0  2  0  0  0  0  0  0
  190.2060  171.8620  138.2240 O   0  0  0  0  0  0  0  0  0  0  0  0
  191.3300  171.3820  138.2370 C   0  0  0  0  0  0  0  0  0  0  0  0
  191.0910  169.0690  139.0600 N   0  0  0  0  0  2  0  0  0  0  0  0
  191.3330  170.7430  140.7250 C   0  0  1  0  0  3  0  0  0  0  0  0
  190.9620  168.4660  140.3820 C   0  0  0  0  0  2  0  0  0  0  0  0
  190.0390  171.5380  140.8420 C   0  0  0  0  0  1  0  0  0  0  0  0
  191.1710  169.4790  141.4170 N   0  0  0  0  0  2  0  0  0  0  0  0
  191.6870  170.3680  139.2980 C   0  0  2  0  0  3  0  0  0  0  0  0
  191.0180  174.5340  145.1280 C   0  0  1  0  0  3  0  0  0  0  0  0
  190.6410  173.2300  144.3980 C   0  0  1  0  0  3  0  0  0  0  0  0
  191.9550  175.6220  143.2070 O   0  0  0  0  0  1  0  0  0  0  0  0
  191.8660  172.4310  143.9270 C   0  0  0  0  0  2  0  0  0  0  0  0
  193.4800  174.2690  144.5230 C   0  0  1  0  0  3  0  0  0  0  0  0
  192.2560  175.2300  144.5220 C   0  0  2  0  0  0  0  0  0  0  0  0
  193.1180  172.7850  144.7280 C   0  0  0  0  0  2  0  0  0  0  0  0
  192.5850  176.4460  145.3640 C   0  0  0  0  0  0  0  0  0  0  0  0
  192.7940  176.3390  146.8430 C   0  0  0  0  0  1  0  0  0  0  0  0
  192.7320  177.5360  144.8340 O   0  0  0  0  0  0  0  0  0  0  0  0
  189.1940  171.5480  144.3890 C   0  0  0  0  0  1  0  0  0  0  0  0
  189.8650  172.4280  145.2400 O   0  0  0  0  0  0  0  0  0  0  0  0
  189.9070  175.4270  145.1840 O   0  0  0  0  0  0  0  0  0  0  0  0
  189.0250  175.4610  146.2690 C   0  0  0  0  0  0  0  0  0  0  0  0
  189.2310  174.6900  147.2440 O   0  0  0  0  0  0  0  0  0  0  0  0
  186.0530  178.6040  146.0750 C   0  0  0  0  0  3  0  0  0  0  0  0
  186.5080  179.2420  148.4370 C   0  0  0  0  0  1  0  0  0  0  0  0
  187.8820  177.4220  147.3550 C   0  0  1  0  0  3  0  0  0  0  0  0
  187.5500  176.9940  144.8820 C   0  0  0  0  0  2  0  0  0  0  0  0
  188.9020  178.3430  147.0900 O   0  0  0  0  0  1  0  0  0  0  0  0
  186.4630  178.0530  144.9190 C   0  0  0  0  0  0  0  0  0  0  0  0
  186.5190  178.1150  147.4230 C   0  0  2  0  0  3  0  0  0  0  0  0
  187.8150  176.3590  146.2580 C   0  0  1  0  0  3  0  0  0  0  0  0
  185.9220  178.6280  143.6450 C   0  0  0  0  0  2  0  0  0  0  0  0
  184.7560  179.3730  143.8590 O   0  0  0  0  0  0  0  0  0  0  0  0
  184.2160  178.1030  142.0710 C   0  0  0  0  0  1  0  0  0  0  0  0
  183.7600  178.6010  143.3570 N   0  0  0  0  0  2  0  0  0  0  0  0
  195.8650  175.0440  144.0460 C   0  0  1  0  0  3  0  0  0  0  0  0
  196.0470  176.5490  143.8740 C   0  0  0  0  0  1  0  0  0  0  0  0
  195.8980  174.7500  145.4150 O   0  0  0  0  0  0  0  0  0  0  0  0
  197.0700  174.1760  145.6150 O   0  0  0  0  0  0  0  0  0  0  0  0
  196.7610  172.8990  146.0960 C   0  0  0  0  0  1  0  0  0  0  0  0
  1 60  1  1  0  0  0
  3  6  1  0  0  0  0
  3  4  1  0  0  0  0
  4  7  2  0  0  0  0
  4  8  1  0  0  0  0
  5 10  1  0  0  0  0
  5  1  1  0  0  0  0
  6 11  2  0  0  0  0
  7  9  1  0  0  0  0
  8  5  2  0  0  0  0
  9  2  1  0  0  0  0
  9 10  2  0  0  0  0
 11  8  1  0  0  0  0
 12  3  1  0  0  0  0
 13 12  1  1  0  0  0
 13 26  1  0  0  0  0
 14 13  1  0  0  0  0
 14 17  2  0  0  0  0
 16 22  1  1  0  0  0
 16 18  1  0  0  0  0
 16 20  1  0  0  0  0
 18 15  1  6  0  0  0
 18 19  1  0  0  0  0
 18 20  1  0  0  0  0
 19 14  1  0  0  0  0
 20 17  1  0  0  0  0
 21 22  2  0  0  0  0
 24 21  1  0  0  0  0
 24 23  1  0  0  0  0
 25 26  2  0  0  0  0
 27 32  1  0  0  0  0
 27 29  1  0  0  0  0
 28 30  1  6  0  0  0
 28 31  1  0  0  0  0
 29 31  1  0  0  0  0
 32 26  1  6  0  0  0
 32 28  1  0  0  0  0
 33 45  1  6  0  0  0
 34 33  1  0  0  0  0
 34 44  1  1  0  0  0
 36 34  1  0  0  0  0
 36 39  1  0  0  0  0
 37  1  1  6  0  0  0
 37 39  1  0  0  0  0
 38 35  1  6  0  0  0
 38 37  1  0  0  0  0
 38 33  1  0  0  0  0
 38 40  1  0  0  0  0
 40 41  1  0  0  0  0
 42 40  2  0  0  0  0
 43 44  1  0  0  0  0
 45 46  1  0  0  0  0
 46 47  2  0  0  0  0
 48 54  1  0  0  0  0
 50 52  1  6  0  0  0
 50 54  1  0  0  0  0
 51 53  1  0  0  0  0
 51 55  1  0  0  0  0
 53 48  2  0  0  0  0
 54 49  1  1  0  0  0
 55 46  1  6  0  0  0
 55 50  1  0  0  0  0
 56 57  1  0  0  0  0
 56 53  1  0  0  0  0
 58 59  1  0  0  0  0
 59 57  1  0  0  0  0
 60 61  1  1  0  0  0
 60 62  1  0  0  0  0
 62 63  1  0  0  0  0
 63 64  1  0  0  0  0
M  END
>  <MODEL>
5

>  <REMARK>
 VINA RESULT:      -6.0      3.172      7.902
  Name = 
  20 active torsions:
  status: ('A' for Active; 'I' for Inactive)
    1  A    between atoms: C_3  and  C_30
    2  A    between atoms: C_5  and  O_58
    3  A    between atoms: C_6  and  C_33
    4  A    between atoms: C_7  and  C_49
    5  A    between atoms: N_9  and  C_56
    6  A    between atoms: C_12  and  C_43
    7  A    between atoms: C_12  and  O_64
    8  A    between atoms: C_14  and  O_58
    9  A    between atoms: C_14  and  C_63
   10  A    between atoms: O_15  and  O_40
   11  A    between atoms: C_19  and  O_47
   12  A    between atoms: C_20  and  C_48
   13  A    between atoms: C_26  and  C_39
   14  A    between atoms: C_30  and  C_53
   15  A    between atoms: C_30  and  C_56
   16  A    between atoms: C_31  and  C_48
   17  A    between atoms: C_38  and  O_40
   18  A    between atoms: C_38  and  C_48
   19  A    between atoms: N_45  and  O_64
   20  A    between atoms: C_53  and  C_61
                            x       y       z     vdW  Elec       q    Type
                         _______ _______ _______ _____ _____    ______ ____

>  <TORSDO>
F 20

$$$$
=
 OpenBabel11062418233D

 64 70  0  0  1  0  0  0  0  0999 V2000
  194.3660  173.0370  143.8110 C   0  0  1  0  0  3  0  0  0  0  0  0
  195.0700  177.8620  145.8430 Cl  0  0  0  0  0  0  0  0  0  0  0  0
  190.7270  176.0880  143.6390 N   0  0  0  0  0  0  0  0  0  0  0  0
  191.9970  176.0050  144.0500 C   0  0  0  0  0  0  0  0  0  0  0  0
  193.8130  174.4140  144.1100 C   0  0  0  0  0  0  0  0  0  0  0  0
  190.4050  174.8840  143.1100 C   0  0  0  0  0  3  0  0  0  0  0  0
  192.7530  176.9870  144.6900 C   0  0  0  0  0  3  0  0  0  0  0  0
  192.5030  174.7650  143.7660 C   0  0  0  0  0  0  0  0  0  0  0  0
  194.0740  176.6670  145.0410 C   0  0  0  0  0  0  0  0  0  0  0  0
  194.6000  175.3910  144.7570 C   0  0  0  0  0  3  0  0  0  0  0  0
  191.5040  174.0230  143.1610 C   0  0  0  0  0  3  0  0  0  0  0  0
  189.8220  177.2160  143.8520 C   0  0  0  0  0  2  0  0  0  0  0  0
  188.3630  176.7620  143.9120 C   0  0  2  0  0  3  0  0  0  0  0  0
  187.6590  176.8240  142.5810 C   0  0  0  0  0  0  0  0  0  0  0  0
  185.1470  178.4230  140.9920 C   0  0  0  0  0  1  0  0  0  0  0  0
  186.9030  177.1040  139.6660 C   0  0  1  0  0  3  0  0  0  0  0  0
  187.0490  175.7880  142.0500 N   0  0  0  0  0  0  0  0  0  0  0  0
  186.5560  177.8840  140.7470 C   0  0  1  0  0  0  0  0  0  0  0  0
  187.4890  178.1020  141.8560 N   0  0  0  0  0  2  0  0  0  0  0  0
  186.5450  176.4450  140.9580 N   0  0  0  0  0  0  0  0  0  0  0  0
  185.9940  176.4130  137.4400 C   0  0  0  0  0  3  0  0  0  0  0  0
  185.7940  176.9030  138.6680 C   0  0  0  0  0  3  0  0  0  0  0  0
  187.3580  176.0440  135.4930 N   0  0  0  0  0  1  0  0  0  0  0  0
  187.3450  176.0070  136.9440 C   0  0  0  0  0  2  0  0  0  0  0  0
  188.2560  178.0400  145.8980 O   0  0  0  0  0  0  0  0  0  0  0  0
  187.6340  177.5540  144.9650 C   0  0  0  0  0  0  0  0  0  0  0  0
  185.7060  179.0890  144.8920 N   0  0  0  0  0  2  0  0  0  0  0  0
  185.3630  177.0470  146.0510 C   0  0  1  0  0  3  0  0  0  0  0  0
  184.3780  179.0860  145.4970 C   0  0  0  0  0  2  0  0  0  0  0  0
  186.0900  177.0910  147.3890 C   0  0  0  0  0  1  0  0  0  0  0  0
  184.1320  177.8070  146.1620 N   0  0  0  0  0  2  0  0  0  0  0  0
  186.1320  177.7050  144.9220 C   0  0  2  0  0  3  0  0  0  0  0  0
  194.8220  172.1310  140.0360 C   0  0  1  0  0  3  0  0  0  0  0  0
  194.1850  173.4660  139.6030 C   0  0  1  0  0  3  0  0  0  0  0  0
  193.1850  171.6170  141.7120 O   0  0  0  0  0  1  0  0  0  0  0  0
  194.2440  174.5420  140.6970 C   0  0  0  0  0  2  0  0  0  0  0  0
  195.0880  172.9340  142.4410 C   0  0  1  0  0  3  0  0  0  0  0  0
  194.5650  171.7930  141.5210 C   0  0  2  0  0  0  0  0  0  0  0  0
  195.3550  174.2630  141.7090 C   0  0  0  0  0  2  0  0  0  0  0  0
  195.3030  170.5130  141.8580 C   0  0  0  0  0  0  0  0  0  0  0  0
  196.7610  170.3500  141.5570 C   0  0  0  0  0  1  0  0  0  0  0  0
  194.7220  169.6030  142.4280 O   0  0  0  0  0  0  0  0  0  0  0  0
  194.5280  175.3040  138.4090 C   0  0  0  0  0  1  0  0  0  0  0  0
  194.8270  173.9420  138.4550 O   0  0  0  0  0  0  0  0  0  0  0  0
  194.3980  171.0650  139.1890 O   0  0  0  0  0  0  0  0  0  0  0  0
  194.7300  171.0080  137.8310 C   0  0  0  0  0  0  0  0  0  0  0  0
  195.9450  171.0360  137.5010 O   0  0  0  0  0  0  0  0  0  0  0  0
  191.1700  170.7770  135.3770 C   0  0  0  0  0  3  0  0  0  0  0  0
  191.3200  168.2940  135.3130 C   0  0  0  0  0  1  0  0  0  0  0  0
  192.9810  169.6040  136.6910 C   0  0  1  0  0  3  0  0  0  0  0  0
  192.6230  172.1000  136.9240 C   0  0  0  0  0  2  0  0  0  0  0  0
  192.2250  169.3570  137.8430 O   0  0  0  0  0  1  0  0  0  0  0  0
  191.4380  171.9440  135.9900 C   0  0  0  0  0  0  0  0  0  0  0  0
  192.0970  169.5900  135.4420 C   0  0  2  0  0  3  0  0  0  0  0  0
  193.6590  170.9730  136.7710 C   0  0  1  0  0  3  0  0  0  0  0  0
  190.4360  173.0500  135.8450 C   0  0  0  0  0  2  0  0  0  0  0  0
  190.0680  173.5900  137.0830 O   0  0  0  0  0  0  0  0  0  0  0  0
  188.2760  172.9930  138.3230 C   0  0  0  0  0  1  0  0  0  0  0  0
  189.5440  172.5450  137.7710 N   0  0  0  0  0  2  0  0  0  0  0  0
  195.2510  172.5090  144.9520 C   0  0  1  0  0  3  0  0  0  0  0  0
  194.6060  171.3080  145.6370 C   0  0  0  0  0  1  0  0  0  0  0  0
  196.5010  172.1160  144.4600 O   0  0  0  0  0  0  0  0  0  0  0  0
  197.2710  172.0010  145.5260 O   0  0  0  0  0  0  0  0  0  0  0  0
  197.2490  173.2680  146.1180 C   0  0  0  0  0  1  0  0  0  0  0  0
  1  5  1  0  0  0  0
  1 60  1  1  0  0  0
  3 12  1  0  0  0  0
  3  4  1  0  0  0  0
  4  7  1  0  0  0  0
  5 10  2  0  0  0  0
  6 11  2  0  0  0  0
  6  3  1  0  0  0  0
  7  9  2  0  0  0  0
  8  4  2  0  0  0  0
  8  5  1  0  0  0  0
  9  2  1  0  0  0  0
 10  9  1  0  0  0  0
 11  8  1  0  0  0  0
 13 12  1  6  0  0  0
 13 26  1  0  0  0  0
 14 13  1  0  0  0  0
 16 22  1  6  0  0  0
 16 18  1  0  0  0  0
 16 20  1  0  0  0  0
 17 14  2  0  0  0  0
 18 20  1  0  0  0  0
 18 15  1  6  0  0  0
 18 19  1  0  0  0  0
 19 14  1  0  0  0  0
 20 17  1  0  0  0  0
 21 22  2  0  0  0  0
 23 24  1  0  0  0  0
 24 21  1  0  0  0  0
 26 25  2  0  0  0  0
 27 32  1  0  0  0  0
 27 29  1  0  0  0  0
 28 31  1  0  0  0  0
 28 30  1  1  0  0  0
 29 31  1  0  0  0  0
 32 26  1  1  0  0  0
 32 28  1  0  0  0  0
 33 45  1  6  0  0  0
 33 38  1  0  0  0  0
 34 44  1  6  0  0  0
 34 33  1  0  0  0  0
 34 36  1  0  0  0  0
 36 39  1  0  0  0  0
 37  1  1  1  0  0  0
 38 35  1  1  0  0  0
 38 40  1  0  0  0  0
 38 37  1  0  0  0  0
 39 37  1  0  0  0  0
 40 42  2  0  0  0  0
 41 40  1  0  0  0  0
 43 44  1  0  0  0  0
 46 45  1  0  0  0  0
 47 46  2  0  0  0  0
 48 54  1  0  0  0  0
 48 53  2  0  0  0  0
 50 55  1  0  0  0  0
 50 52  1  1  0  0  0
 53 51  1  0  0  0  0
 54 49  1  1  0  0  0
 54 50  1  0  0  0  0
 55 51  1  0  0  0  0
 55 46  1  1  0  0  0
 56 53  1  0  0  0  0
 56 57  1  0  0  0  0
 57 59  1  0  0  0  0
 59 58  1  0  0  0  0
 60 61  1  6  0  0  0
 62 60  1  0  0  0  0
 62 63  1  0  0  0  0
 63 64  1  0  0  0  0
M  END
>  <MODEL>
6

>  <REMARK>
 VINA RESULT:      -5.9      3.316      9.439
  Name = 
  20 active torsions:
  status: ('A' for Active; 'I' for Inactive)
    1  A    between atoms: C_3  and  C_30
    2  A    between atoms: C_5  and  O_58
    3  A    between atoms: C_6  and  C_33
    4  A    between atoms: C_7  and  C_49
    5  A    between atoms: N_9  and  C_56
    6  A    between atoms: C_12  and  C_43
    7  A    between atoms: C_12  and  O_64
    8  A    between atoms: C_14  and  O_58
    9  A    between atoms: C_14  and  C_63
   10  A    between atoms: O_15  and  O_40
   11  A    between atoms: C_19  and  O_47
   12  A    between atoms: C_20  and  C_48
   13  A    between atoms: C_26  and  C_39
   14  A    between atoms: C_30  and  C_53
   15  A    between atoms: C_30  and  C_56
   16  A    between atoms: C_31  and  C_48
   17  A    between atoms: C_38  and  O_40
   18  A    between atoms: C_38  and  C_48
   19  A    between atoms: N_45  and  O_64
   20  A    between atoms: C_53  and  C_61
                            x       y       z     vdW  Elec       q    Type
                         _______ _______ _______ _____ _____    ______ ____

>  <TORSDO>
F 20

$$$$
=
 OpenBabel11062418233D

 64 70  0  0  1  0  0  0  0  0999 V2000
  195.2540  173.0030  143.8840 C   0  0  1  0  0  3  0  0  0  0  0  0
  195.8460  178.0650  145.2740 Cl  0  0  0  0  0  0  0  0  0  0  0  0
  191.3390  175.5750  144.6860 N   0  0  0  0  0  0  0  0  0  0  0  0
  192.6720  175.6830  144.6760 C   0  0  0  0  0  0  0  0  0  0  0  0
  194.6280  174.3300  144.2560 C   0  0  0  0  0  0  0  0  0  0  0  0
  191.0470  174.2920  144.3650 C   0  0  0  0  0  3  0  0  0  0  0  0
  193.4380  176.8090  144.9770 C   0  0  0  0  0  3  0  0  0  0  0  0
  193.2390  174.4880  144.3250 C   0  0  0  0  0  0  0  0  0  0  0  0
  194.8350  176.6840  144.9090 C   0  0  0  0  0  0  0  0  0  0  0  0
  195.4270  175.4550  144.5540 C   0  0  0  0  0  3  0  0  0  0  0  0
  192.2200  173.5740  144.1180 C   0  0  0  0  0  3  0  0  0  0  0  0
  190.3910  176.6050  145.1040 C   0  0  0  0  0  2  0  0  0  0  0  0
  188.9570  176.0760  145.1210 C   0  0  2  0  0  3  0  0  0  0  0  0
  188.1300  176.5400  143.9500 C   0  0  0  0  0  0  0  0  0  0  0  0
  187.5890  175.9050  140.6790 C   0  0  0  0  0  1  0  0  0  0  0  0
  185.9210  177.3080  142.0330 C   0  0  1  0  0  3  0  0  0  0  0  0
  188.1840  177.7680  143.4830 N   0  0  0  0  0  0  0  0  0  0  0  0
  186.8400  176.2850  141.9560 C   0  0  1  0  0  0  0  0  0  0  0  0
  187.3090  175.5960  143.1610 N   0  0  0  0  0  2  0  0  0  0  0  0
  187.3400  177.5700  142.4220 N   0  0  0  0  0  0  0  0  0  0  0  0
  184.4140  178.4300  140.3800 C   0  0  0  0  0  3  0  0  0  0  0  0
  185.6250  177.9720  140.7140 C   0  0  0  0  0  3  0  0  0  0  0  0
  182.0150  178.3070  140.5100 N   0  0  0  0  0  1  0  0  0  0  0  0
  183.2350  178.3340  141.2950 C   0  0  0  0  0  2  0  0  0  0  0  0
  188.2580  175.5930  147.3270 O   0  0  0  0  0  0  0  0  0  0  0  0
  188.3080  176.4260  146.4340 C   0  0  0  0  0  0  0  0  0  0  0  0
  187.6430  178.1790  148.0370 N   0  0  0  0  0  2  0  0  0  0  0  0
  186.2350  177.9140  146.1450 C   0  0  1  0  0  3  0  0  0  0  0  0
  186.4920  179.0660  148.1560 C   0  0  0  0  0  2  0  0  0  0  0  0
  185.4080  176.6440  146.2980 C   0  0  0  0  0  1  0  0  0  0  0  0
  185.6490  178.9560  146.9660 N   0  0  0  0  0  2  0  0  0  0  0  0
  187.6590  177.7730  146.6450 C   0  0  2  0  0  3  0  0  0  0  0  0
  195.9750  172.8910  140.0450 C   0  0  1  0  0  3  0  0  0  0  0  0
  195.6790  174.3970  139.9090 C   0  0  1  0  0  3  0  0  0  0  0  0
  194.0750  172.3970  141.4230 O   0  0  0  0  0  1  0  0  0  0  0  0
  195.8210  175.1580  141.2370 C   0  0  0  0  0  2  0  0  0  0  0  0
  196.1020  173.0510  142.5850 C   0  0  1  0  0  3  0  0  0  0  0  0
  195.4750  172.2950  141.3790 C   0  0  2  0  0  0  0  0  0  0  0  0
  196.7210  174.4150  142.2240 C   0  0  0  0  0  2  0  0  0  0  0  0
  195.8910  170.8390  141.4400 C   0  0  0  0  0  0  0  0  0  0  0  0
  197.3240  170.4290  141.2920 C   0  0  0  0  0  1  0  0  0  0  0  0
  195.0590  169.9730  141.6620 O   0  0  0  0  0  0  0  0  0  0  0  0
  197.4150  175.7630  139.6970 C   0  0  0  0  0  1  0  0  0  0  0  0
  196.5390  174.9610  138.9620 O   0  0  0  0  0  0  0  0  0  0  0  0
  195.4490  172.1670  138.9330 O   0  0  0  0  0  0  0  0  0  0  0  0
  194.7150  172.7850  137.9150 C   0  0  0  0  0  0  0  0  0  0  0  0
  195.2880  173.0430  136.8230 O   0  0  0  0  0  0  0  0  0  0  0  0
  190.4230  173.3070  138.1400 C   0  0  0  0  0  3  0  0  0  0  0  0
  190.3880  174.3670  135.8890 C   0  0  0  0  0  1  0  0  0  0  0  0
  192.5630  173.4770  136.8100 C   0  0  1  0  0  3  0  0  0  0  0  0
  192.4920  172.1830  138.9860 C   0  0  0  0  0  2  0  0  0  0  0  0
  192.4000  172.3010  136.0690 O   0  0  0  0  0  1  0  0  0  0  0  0
  191.0050  172.4820  139.0300 C   0  0  0  0  0  0  0  0  0  0  0  0
  191.2100  174.1120  137.1380 C   0  0  2  0  0  3  0  0  0  0  0  0
  193.2800  173.1910  138.1300 C   0  0  1  0  0  3  0  0  0  0  0  0
  190.1100  171.7410  139.9770 C   0  0  0  0  0  2  0  0  0  0  0  0
  188.9980  172.5020  140.3540 O   0  0  0  0  0  0  0  0  0  0  0  0
  189.2260  171.8980  142.5190 C   0  0  0  0  0  1  0  0  0  0  0  0
  189.3210  172.9990  141.5750 N   0  0  0  0  0  2  0  0  0  0  0  0
  196.0490  172.3920  145.0510 C   0  0  1  0  0  3  0  0  0  0  0  0
  196.3100  173.4280  146.1390 C   0  0  0  0  0  1  0  0  0  0  0  0
  195.3420  171.3250  145.6190 O   0  0  0  0  0  0  0  0  0  0  0  0
  196.2650  170.5370  146.1360 O   0  0  0  0  0  0  0  0  0  0  0  0
  196.0650  169.3000  145.5120 C   0  0  0  0  0  1  0  0  0  0  0  0
  1  5  1  0  0  0  0
  1 60  1  1  0  0  0
  3 12  1  0  0  0  0
  4  3  1  0  0  0  0
  4  7  1  0  0  0  0
  5  8  1  0  0  0  0
  5 10  2  0  0  0  0
  6  3  1  0  0  0  0
  8  4  2  0  0  0  0
  9  7  2  0  0  0  0
  9  2  1  0  0  0  0
 10  9  1  0  0  0  0
 11  8  1  0  0  0  0
 11  6  2  0  0  0  0
 13 12  1  1  0  0  0
 13 26  1  0  0  0  0
 14 13  1  0  0  0  0
 16 22  1  6  0  0  0
 16 20  1  0  0  0  0
 17 14  2  0  0  0  0
 18 15  1  6  0  0  0
 18 16  1  0  0  0  0
 18 20  1  0  0  0  0
 18 19  1  0  0  0  0
 19 14  1  0  0  0  0
 20 17  1  0  0  0  0
 21 22  2  0  0  0  0
 21 24  1  0  0  0  0
 23 24  1  0  0  0  0
 26 25  2  0  0  0  0
 27 29  1  0  0  0  0
 28 30  1  1  0  0  0
 28 32  1  0  0  0  0
 28 31  1  0  0  0  0
 31 29  1  0  0  0  0
 32 26  1  1  0  0  0
 32 27  1  0  0  0  0
 33 45  1  6  0  0  0
 33 38  1  0  0  0  0
 34 44  1  6  0  0  0
 34 33  1  0  0  0  0
 34 36  1  0  0  0  0
 36 39  1  0  0  0  0
 37  1  1  1  0  0  0
 38 35  1  1  0  0  0
 38 40  1  0  0  0  0
 38 37  1  0  0  0  0
 39 37  1  0  0  0  0
 40 42  2  0  0  0  0
 41 40  1  0  0  0  0
 44 43  1  0  0  0  0
 46 45  1  0  0  0  0
 47 46  2  0  0  0  0
 48 53  2  0  0  0  0
 50 52  1  1  0  0  0
 50 54  1  0  0  0  0
 50 55  1  0  0  0  0
 51 53  1  0  0  0  0
 53 56  1  0  0  0  0
 54 49  1  6  0  0  0
 54 48  1  0  0  0  0
 55 46  1  6  0  0  0
 55 51  1  0  0  0  0
 56 57  1  0  0  0  0
 57 59  1  0  0  0  0
 59 58  1  0  0  0  0
 60 62  1  0  0  0  0
 60 61  1  1  0  0  0
 62 63  1  0  0  0  0
 64 63  1  0  0  0  0
M  END
>  <MODEL>
7

>  <REMARK>
 VINA RESULT:      -5.7      3.594      9.569
  Name = 
  20 active torsions:
  status: ('A' for Active; 'I' for Inactive)
    1  A    between atoms: C_3  and  C_30
    2  A    between atoms: C_5  and  O_58
    3  A    between atoms: C_6  and  C_33
    4  A    between atoms: C_7  and  C_49
    5  A    between atoms: N_9  and  C_56
    6  A    between atoms: C_12  and  C_43
    7  A    between atoms: C_12  and  O_64
    8  A    between atoms: C_14  and  O_58
    9  A    between atoms: C_14  and  C_63
   10  A    between atoms: O_15  and  O_40
   11  A    between atoms: C_19  and  O_47
   12  A    between atoms: C_20  and  C_48
   13  A    between atoms: C_26  and  C_39
   14  A    between atoms: C_30  and  C_53
   15  A    between atoms: C_30  and  C_56
   16  A    between atoms: C_31  and  C_48
   17  A    between atoms: C_38  and  O_40
   18  A    between atoms: C_38  and  C_48
   19  A    between atoms: N_45  and  O_64
   20  A    between atoms: C_53  and  C_61
                            x       y       z     vdW  Elec       q    Type
                         _______ _______ _______ _____ _____    ______ ____

>  <TORSDO>
F 20

$$$$
=
 OpenBabel11062418233D

 64 70  0  0  1  0  0  0  0  0999 V2000
  195.8770  172.0010  144.2410 C   0  0  1  0  0  3  0  0  0  0  0  0
  196.4360  176.7960  142.0950 Cl  0  0  0  0  0  0  0  0  0  0  0  0
  192.2840  175.0800  144.6810 N   0  0  0  0  0  0  0  0  0  0  0  0
  193.5060  174.9760  144.1490 C   0  0  0  0  0  0  0  0  0  0  0  0
  195.3010  173.3720  143.9540 C   0  0  0  0  0  0  0  0  0  0  0  0
  192.0220  173.9030  145.2970 C   0  0  0  0  0  3  0  0  0  0  0  0
  194.2170  175.9500  143.4460 C   0  0  0  0  0  3  0  0  0  0  0  0
  194.0230  173.7320  144.3940 C   0  0  0  0  0  0  0  0  0  0  0  0
  195.5000  175.6150  142.9850 C   0  0  0  0  0  0  0  0  0  0  0  0
  196.0410  174.3380  143.2390 C   0  0  0  0  0  3  0  0  0  0  0  0
  193.0920  173.0190  145.1290 C   0  0  0  0  0  3  0  0  0  0  0  0
  191.4550  176.2830  144.7130 C   0  0  0  0  0  2  0  0  0  0  0  0
  189.9880  175.9620  144.4290 C   0  0  2  0  0  3  0  0  0  0  0  0
  189.7950  174.9660  143.3150 C   0  0  0  0  0  0  0  0  0  0  0  0
  190.0250  171.6640  142.6530 C   0  0  0  0  0  1  0  0  0  0  0  0
  188.7370  173.2270  141.0790 C   0  0  1  0  0  3  0  0  0  0  0  0
  190.4660  175.0210  142.1860 N   0  0  0  0  0  0  0  0  0  0  0  0
  189.1520  172.8800  142.3450 C   0  0  1  0  0  0  0  0  0  0  0  0
  188.9350  173.7740  143.4850 N   0  0  0  0  0  2  0  0  0  0  0  0
  189.9620  173.8670  141.6470 N   0  0  0  0  0  0  0  0  0  0  0  0
  189.3280  172.5870  138.7330 C   0  0  0  0  0  3  0  0  0  0  0  0
  189.1280  172.2410  140.0090 C   0  0  0  0  0  3  0  0  0  0  0  0
  188.1230  174.0660  137.2680 N   0  0  0  0  0  1  0  0  0  0  0  0
  189.1900  173.9950  138.2480 C   0  0  0  0  0  2  0  0  0  0  0  0
  189.6470  178.2920  144.6360 O   0  0  0  0  0  0  0  0  0  0  0  0
  189.2350  177.2400  144.1690 C   0  0  0  0  0  0  0  0  0  0  0  0
  187.6450  178.5160  142.7820 N   0  0  0  0  0  2  0  0  0  0  0  0
  186.6990  176.8350  144.1640 C   0  0  1  0  0  3  0  0  0  0  0  0
  186.1910  178.5520  142.6710 C   0  0  0  0  0  2  0  0  0  0  0  0
  186.7080  177.3010  145.6140 C   0  0  0  0  0  1  0  0  0  0  0  0
  185.6000  177.4800  143.4710 N   0  0  0  0  0  2  0  0  0  0  0  0
  187.9410  177.2350  143.3910 C   0  0  2  0  0  3  0  0  0  0  0  0
  195.3010  170.2490  140.7960 C   0  0  1  0  0  3  0  0  0  0  0  0
  195.5670  171.5660  140.0410 C   0  0  1  0  0  3  0  0  0  0  0  0
  193.8710  171.2110  142.4620 O   0  0  0  0  0  1  0  0  0  0  0  0
  196.3800  172.5760  140.8660 C   0  0  0  0  0  2  0  0  0  0  0  0
  196.2440  171.1950  142.9670 C   0  0  1  0  0  3  0  0  0  0  0  0
  195.0450  170.4580  142.3040 C   0  0  2  0  0  0  0  0  0  0  0  0
  197.1880  171.8900  141.9670 C   0  0  0  0  0  2  0  0  0  0  0  0
  194.8820  169.0990  142.9560 C   0  0  0  0  0  0  0  0  0  0  0  0
  193.5810  168.6770  143.5660 C   0  0  0  0  0  1  0  0  0  0  0  0
  195.8080  168.3030  142.9520 O   0  0  0  0  0  0  0  0  0  0  0  0
  196.2100  172.4920  138.1300 C   0  0  0  0  0  1  0  0  0  0  0  0
  196.2450  171.2960  138.8490 O   0  0  0  0  0  0  0  0  0  0  0  0
  194.2320  169.5230  140.1910 O   0  0  0  0  0  0  0  0  0  0  0  0
  193.1520  170.1570  139.5700 C   0  0  0  0  0  0  0  0  0  0  0  0
  192.2010  170.5770  140.2820 O   0  0  0  0  0  0  0  0  0  0  0  0
  192.2070  170.6050  135.3680 C   0  0  0  0  0  3  0  0  0  0  0  0
  191.6980  168.1770  135.1760 C   0  0  0  0  0  1  0  0  0  0  0  0
  192.3030  169.1470  137.4270 C   0  0  1  0  0  3  0  0  0  0  0  0
  192.5580  171.6590  137.6090 C   0  0  0  0  0  2  0  0  0  0  0  0
  190.9450  169.2300  137.7610 O   0  0  0  0  0  1  0  0  0  0  0  0
  192.3000  171.7200  136.1150 C   0  0  0  0  0  0  0  0  0  0  0  0
  192.5020  169.2320  135.9130 C   0  0  2  0  0  3  0  0  0  0  0  0
  193.0890  170.2910  138.0700 C   0  0  1  0  0  3  0  0  0  0  0  0
  191.9840  173.0280  135.4530 C   0  0  0  0  0  2  0  0  0  0  0  0
  193.0140  173.9610  135.6180 O   0  0  0  0  0  0  0  0  0  0  0  0
  193.7520  175.5390  137.0560 C   0  0  0  0  0  1  0  0  0  0  0  0
  192.6070  174.7410  136.6510 N   0  0  0  0  0  2  0  0  0  0  0  0
  197.0590  172.0650  145.2240 C   0  0  1  0  0  3  0  0  0  0  0  0
  197.0300  173.3570  146.0340 C   0  0  0  0  0  1  0  0  0  0  0  0
  197.0140  170.9850  146.1140 O   0  0  0  0  0  0  0  0  0  0  0  0
  195.7780  170.5290  146.0390 O   0  0  0  0  0  0  0  0  0  0  0  0
  195.8060  169.3160  146.7350 C   0  0  0  0  0  1  0  0  0  0  0  0
  1 60  1  1  0  0  0
  2  9  1  0  0  0  0
  3 12  1  0  0  0  0
  3  6  1  0  0  0  0
  4  8  1  0  0  0  0
  4  3  1  0  0  0  0
  5  1  1  0  0  0  0
  5  8  2  0  0  0  0
  7  4  2  0  0  0  0
  8 11  1  0  0  0  0
  9 10  2  0  0  0  0
  9  7  1  0  0  0  0
 10  5  1  0  0  0  0
 11  6  2  0  0  0  0
 13 12  1  6  0  0  0
 14 19  1  0  0  0  0
 14 13  1  0  0  0  0
 16 22  1  6  0  0  0
 16 20  1  0  0  0  0
 16 18  1  0  0  0  0
 17 14  2  0  0  0  0
 18 15  1  1  0  0  0
 18 19  1  0  0  0  0
 20 17  1  0  0  0  0
 20 18  1  0  0  0  0
 21 22  2  0  0  0  0
 23 24  1  0  0  0  0
 24 21  1  0  0  0  0
 26 13  1  0  0  0  0
 26 25  2  0  0  0  0
 27 32  1  0  0  0  0
 28 30  1  1  0  0  0
 29 27  1  0  0  0  0
 29 31  1  0  0  0  0
 31 28  1  0  0  0  0
 32 28  1  0  0  0  0
 32 26  1  1  0  0  0
 33 45  1  6  0  0  0
 33 38  1  0  0  0  0
 34 44  1  6  0  0  0
 34 33  1  0  0  0  0
 34 36  1  0  0  0  0
 36 39  1  0  0  0  0
 37  1  1  1  0  0  0
 38 35  1  1  0  0  0
 38 40  1  0  0  0  0
 38 37  1  0  0  0  0
 39 37  1  0  0  0  0
 40 41  1  0  0  0  0
 42 40  2  0  0  0  0
 43 44  1  0  0  0  0
 46 45  1  0  0  0  0
 46 47  2  0  0  0  0
 48 54  1  0  0  0  0
 48 53  2  0  0  0  0
 50 52  1  6  0  0  0
 50 55  1  0  0  0  0
 51 55  1  0  0  0  0
 53 51  1  0  0  0  0
 54 49  1  6  0  0  0
 54 50  1  0  0  0  0
 55 46  1  1  0  0  0
 56 57  1  0  0  0  0
 56 53  1  0  0  0  0
 57 59  1  0  0  0  0
 59 58  1  0  0  0  0
 60 61  1  1  0  0  0
 60 62  1  0  0  0  0
 63 62  1  0  0  0  0
 63 64  1  0  0  0  0
M  END
>  <MODEL>
8

>  <REMARK>
 VINA RESULT:      -5.7      3.069      9.096
  Name = 
  20 active torsions:
  status: ('A' for Active; 'I' for Inactive)
    1  A    between atoms: C_3  and  C_30
    2  A    between atoms: C_5  and  O_58
    3  A    between atoms: C_6  and  C_33
    4  A    between atoms: C_7  and  C_49
    5  A    between atoms: N_9  and  C_56
    6  A    between atoms: C_12  and  C_43
    7  A    between atoms: C_12  and  O_64
    8  A    between atoms: C_14  and  O_58
    9  A    between atoms: C_14  and  C_63
   10  A    between atoms: O_15  and  O_40
   11  A    between atoms: C_19  and  O_47
   12  A    between atoms: C_20  and  C_48
   13  A    between atoms: C_26  and  C_39
   14  A    between atoms: C_30  and  C_53
   15  A    between atoms: C_30  and  C_56
   16  A    between atoms: C_31  and  C_48
   17  A    between atoms: C_38  and  O_40
   18  A    between atoms: C_38  and  C_48
   19  A    between atoms: N_45  and  O_64
   20  A    between atoms: C_53  and  C_61
                            x       y       z     vdW  Elec       q    Type
                         _______ _______ _______ _____ _____    ______ ____

>  <TORSDO>
F 20

$$$$
=
 OpenBabel11062418233D

 64 70  0  0  1  0  0  0  0  0999 V2000
  187.1470  176.6220  144.3060 C   0  0  1  0  0  3  0  0  0  0  0  0
  185.1980  178.6330  139.8270 Cl  0  0  0  0  0  0  0  0  0  0  0  0
  188.2240  174.4430  140.2220 N   0  0  0  0  0  0  0  0  0  0  0  0
  187.5430  175.4940  140.6940 C   0  0  0  0  0  0  0  0  0  0  0  0
  187.0280  176.5610  142.7980 C   0  0  0  0  0  0  0  0  0  0  0  0
  188.7630  173.8120  141.2920 C   0  0  0  0  0  3  0  0  0  0  0  0
  186.7930  176.4190  139.9680 C   0  0  0  0  0  3  0  0  0  0  0  0
  187.6620  175.5590  142.0560 C   0  0  0  0  0  0  0  0  0  0  0  0
  186.1500  177.4420  140.6840 C   0  0  0  0  0  0  0  0  0  0  0  0
  186.2640  177.5120  142.0880 C   0  0  0  0  0  3  0  0  0  0  0  0
  188.4410  174.4920  142.4690 C   0  0  0  0  0  3  0  0  0  0  0  0
  188.2560  173.9870  138.8340 C   0  0  0  0  0  2  0  0  0  0  0  0
  189.1680  172.7720  138.6630 C   0  0  2  0  0  3  0  0  0  0  0  0
  190.4610  172.8780  139.4280 C   0  0  0  0  0  0  0  0  0  0  0  0
  193.7510  173.4900  138.9870 C   0  0  0  0  0  1  0  0  0  0  0  0
  192.7020  173.6010  141.3250 C   0  0  1  0  0  3  0  0  0  0  0  0
  190.9590  171.8810  140.1260 N   0  0  0  0  0  0  0  0  0  0  0  0
  192.6100  173.7740  139.9620 C   0  0  1  0  0  0  0  0  0  0  0  0
  191.3260  174.0730  139.3220 N   0  0  0  0  0  2  0  0  0  0  0  0
  192.1220  172.5080  140.4880 N   0  0  0  0  0  0  0  0  0  0  0  0
  194.2750  172.3740  142.8370 C   0  0  0  0  0  3  0  0  0  0  0  0
  194.0730  173.2010  141.8050 C   0  0  0  0  0  3  0  0  0  0  0  0
  192.7300  172.6730  144.6570 N   0  0  0  0  0  1  0  0  0  0  0  0
  193.1520  171.7600  143.6100 C   0  0  0  0  0  2  0  0  0  0  0  0
  189.3770  173.4620  136.4110 O   0  0  0  0  0  0  0  0  0  0  0  0
  189.4070  172.5260  137.1960 C   0  0  0  0  0  0  0  0  0  0  0  0
  189.6060  170.1230  137.7120 N   0  0  0  0  0  2  0  0  0  0  0  0
  190.8980  170.9010  135.8800 C   0  0  1  0  0  3  0  0  0  0  0  0
  190.4340  169.0360  137.2000 C   0  0  0  0  0  2  0  0  0  0  0  0
  192.0830  171.7060  136.3970 C   0  0  0  0  0  1  0  0  0  0  0  0
  191.1890  169.4890  136.0320 N   0  0  0  0  0  2  0  0  0  0  0  0
  189.6220  171.1280  136.6680 C   0  0  2  0  0  3  0  0  0  0  0  0
  190.9140  176.8350  145.3250 C   0  0  1  0  0  3  0  0  0  0  0  0
  191.3300  177.1100  143.8670 C   0  0  1  0  0  3  0  0  0  0  0  0
  189.4010  175.0470  144.8110 O   0  0  0  0  0  1  0  0  0  0  0  0
  190.1810  177.6660  143.0100 C   0  0  0  0  0  2  0  0  0  0  0  0
  188.4590  177.2830  144.8060 C   0  0  1  0  0  3  0  0  0  0  0  0
  189.4730  176.2950  145.4510 C   0  0  2  0  0  0  0  0  0  0  0  0
  189.1000  178.3230  143.8670 C   0  0  0  0  0  2  0  0  0  0  0  0
  189.1440  176.1430  146.9220 C   0  0  0  0  0  0  0  0  0  0  0  0
  188.9350  174.7960  147.5420 C   0  0  0  0  0  1  0  0  0  0  0  0
  189.0890  177.1280  147.6420 O   0  0  0  0  0  0  0  0  0  0  0  0
  191.8410  179.2450  144.1880 C   0  0  0  0  0  1  0  0  0  0  0  0
  192.3980  178.0120  143.8440 O   0  0  0  0  0  0  0  0  0  0  0  0
  191.8450  175.9630  145.9640 O   0  0  0  0  0  0  0  0  0  0  0  0
  193.1950  176.2940  146.1240 C   0  0  0  0  0  0  0  0  0  0  0  0
  193.5060  177.2010  146.9400 O   0  0  0  0  0  0  0  0  0  0  0  0
  196.7440  174.8410  144.1140 C   0  0  0  0  0  3  0  0  0  0  0  0
  196.6170  176.6910  142.4550 C   0  0  0  0  0  1  0  0  0  0  0  0
  194.9520  176.6040  144.3490 C   0  0  1  0  0  3  0  0  0  0  0  0
  195.2860  174.8520  146.1470 C   0  0  0  0  0  2  0  0  0  0  0  0
  195.7150  177.5320  145.0680 O   0  0  0  0  0  1  0  0  0  0  0  0
  196.4690  174.3530  145.3370 C   0  0  0  0  0  0  0  0  0  0  0  0
  195.8290  175.7960  143.3920 C   0  0  2  0  0  3  0  0  0  0  0  0
  194.2600  175.6220  145.2970 C   0  0  1  0  0  3  0  0  0  0  0  0
  197.4590  173.4070  145.9460 C   0  0  0  0  0  2  0  0  0  0  0  0
  197.4270  172.1480  145.3340 O   0  0  0  0  0  0  0  0  0  0  0  0
  196.3530  170.1660  145.4800 C   0  0  0  0  0  1  0  0  0  0  0  0
  196.2660  171.5890  145.7610 N   0  0  0  0  0  2  0  0  0  0  0  0
  185.9110  177.2650  144.9570 C   0  0  1  0  0  3  0  0  0  0  0  0
  185.3610  176.3870  146.0770 C   0  0  0  0  0  1  0  0  0  0  0  0
  186.2380  178.5150  145.4980 O   0  0  0  0  0  0  0  0  0  0  0  0
  185.1560  178.9020  146.1480 O   0  0  0  0  0  0  0  0  0  0  0  0
  185.6280  179.3480  147.3870 C   0  0  0  0  0  1  0  0  0  0  0  0
  1 60  1  6  0  0  0
  2  9  1  0  0  0  0
  3  4  1  0  0  0  0
  3  6  1  0  0  0  0
  4  8  1  0  0  0  0
  5  1  1  0  0  0  0
  6 11  2  0  0  0  0
  7  9  1  0  0  0  0
  7  4  2  0  0  0  0
  8 11  1  0  0  0  0
  8  5  2  0  0  0  0
  9 10  2  0  0  0  0
 10  5  1  0  0  0  0
 12  3  1  0  0  0  0
 13 12  1  6  0  0  0
 13 14  1  0  0  0  0
 14 17  2  0  0  0  0
 16 22  1  6  0  0  0
 17 20  1  0  0  0  0
 18 15  1  6  0  0  0
 18 20  1  0  0  0  0
 18 16  1  0  0  0  0
 19 14  1  0  0  0  0
 19 18  1  0  0  0  0
 20 16  1  0  0  0  0
 21 24  1  0  0  0  0
 22 21  2  0  0  0  0
 24 23  1  0  0  0  0
 25 26  2  0  0  0  0
 26 13  1  0  0  0  0
 28 31  1  0  0  0  0
 28 30  1  1  0  0  0
 28 32  1  0  0  0  0
 29 27  1  0  0  0  0
 31 29  1  0  0  0  0
 32 26  1  1  0  0  0
 32 27  1  0  0  0  0
 33 38  1  0  0  0  0
 33 45  1  6  0  0  0
 34 44  1  1  0  0  0
 34 33  1  0  0  0  0
 36 34  1  0  0  0  0
 36 39  1  0  0  0  0
 37  1  1  6  0  0  0
 37 38  1  0  0  0  0
 38 35  1  6  0  0  0
 38 40  1  0  0  0  0
 39 37  1  0  0  0  0
 40 41  1  0  0  0  0
 40 42  2  0  0  0  0
 44 43  1  0  0  0  0
 45 46  1  0  0  0  0
 46 47  2  0  0  0  0
 48 53  2  0  0  0  0
 50 52  1  1  0  0  0
 50 55  1  0  0  0  0
 53 56  1  0  0  0  0
 53 51  1  0  0  0  0
 54 49  1  1  0  0  0
 54 48  1  0  0  0  0
 54 50  1  0  0  0  0
 55 46  1  1  0  0  0
 55 51  1  0  0  0  0
 57 59  1  0  0  0  0
 57 56  1  0  0  0  0
 58 59  1  0  0  0  0
 60 62  1  0  0  0  0
 60 61  1  1  0  0  0
 62 63  1  0  0  0  0
 63 64  1  0  0  0  0
M  END
>  <MODEL>
9

>  <REMARK>
 VINA RESULT:      -5.6      1.710      2.514
  Name = 
  20 active torsions:
  status: ('A' for Active; 'I' for Inactive)
    1  A    between atoms: C_3  and  C_30
    2  A    between atoms: C_5  and  O_58
    3  A    between atoms: C_6  and  C_33
    4  A    between atoms: C_7  and  C_49
    5  A    between atoms: N_9  and  C_56
    6  A    between atoms: C_12  and  C_43
    7  A    between atoms: C_12  and  O_64
    8  A    between atoms: C_14  and  O_58
    9  A    between atoms: C_14  and  C_63
   10  A    between atoms: O_15  and  O_40
   11  A    between atoms: C_19  and  O_47
   12  A    between atoms: C_20  and  C_48
   13  A    between atoms: C_26  and  C_39
   14  A    between atoms: C_30  and  C_53
   15  A    between atoms: C_30  and  C_56
   16  A    between atoms: C_31  and  C_48
   17  A    between atoms: C_38  and  O_40
   18  A    between atoms: C_38  and  C_48
   19  A    between atoms: N_45  and  O_64
   20  A    between atoms: C_53  and  C_61
                            x       y       z     vdW  Elec       q    Type
                         _______ _______ _______ _____ _____    ______ ____

>  <TORSDO>
F 20

$$$$
