=
 OpenBabel11072408323D

 26 31  0  0  1  0  0  0  0  0999 V2000
  190.0350  174.3640  144.7600 C   0  0  0  0  0  0  0  0  0  0  0  0
  189.2600  174.6590  143.6090 C   0  0  0  0  0  0  0  0  0  0  0  0
  190.4200  173.0320  144.9960 C   0  0  0  0  0  3  0  0  0  0  0  0
  188.9560  173.6280  142.7040 C   0  0  0  0  0  3  0  0  0  0  0  0
  189.3720  172.3190  142.9430 C   0  0  0  0  0  3  0  0  0  0  0  0
  190.0960  172.0180  144.0950 C   0  0  0  0  0  3  0  0  0  0  0  0
  189.3970  176.9060  142.4380 C   0  0  0  0  0  2  0  0  0  0  0  0
  188.7590  175.9820  143.3460 N   0  0  0  0  0  0  0  0  0  0  0  0
  186.5980  178.5890  143.6610 C   0  0  0  0  0  2  0  0  0  0  0  0
  187.9500  178.1160  143.9390 N   0  0  2  0  0  0  0  0  0  0  0  0
  185.6110  177.5180  144.0830 C   0  0  1  0  0  3  0  0  0  0  0  0
  188.7170  178.2330  142.6990 C   0  0  0  0  0  2  0  0  0  0  0  0
  187.8590  176.6860  144.2440 C   0  0  1  0  0  3  0  0  0  0  0  0
  186.4040  176.2370  144.0930 C   0  0  2  0  0  3  0  0  0  0  0  0
  186.1920  175.5660  142.8850 O   0  0  0  0  0  1  0  0  0  0  0  0
  183.9870  178.8840  145.5560 C   0  0  0  0  0  2  0  0  0  0  0  0
  184.9150  176.7860  146.4000 O   0  0  0  0  0  1  0  0  0  0  0  0
  185.3990  179.1590  146.0680 C   0  0  0  0  0  2  0  0  0  0  0  0
  185.0510  177.8180  145.4690 C   0  0  0  0  0  0  0  0  0  0  0  0
  191.2400  175.3730  147.7380 C   0  0  0  0  0  2  0  0  0  0  0  0
  191.5030  176.4390  145.3320 C   0  0  0  0  0  2  0  0  0  0  0  0
  192.5360  174.2370  145.9150 O   0  0  0  0  0  1  0  0  0  0  0  0
  190.4290  175.4550  145.7460 C   0  0  2  0  0  0  0  0  0  0  0  0
  189.0860  174.3950  147.4590 O   0  0  0  0  0  1  0  0  0  0  0  0
  191.8510  175.3760  146.3480 C   0  0  1  0  0  0  0  0  0  0  0  0
  189.8510  175.5240  147.1550 C   0  0  1  0  0  3  0  0  0  0  0  0
  1  3  1  0  0  0  0
  2  1  2  0  0  0  0
  4  5  2  0  0  0  0
  4  2  1  0  0  0  0
  5  6  1  0  0  0  0
  6  3  2  0  0  0  0
  7 12  1  0  0  0  0
  7  8  1  0  0  0  0
  8  2  1  0  0  0  0
  9 10  1  0  0  0  0
 10 12  1  6  0  0  0
 10 13  1  0  0  0  0
 11  9  1  1  0  0  0
 11 14  1  0  0  0  0
 11 19  1  0  0  0  0
 13  8  1  6  0  0  0
 14 15  1  6  0  0  0
 14 13  1  0  0  0  0
 16 18  1  0  0  0  0
 19 16  1  0  0  0  0
 19 18  1  0  0  0  0
 19 17  1  0  0  0  0
 21 23  1  0  0  0  0
 21 25  1  0  0  0  0
 23  1  1  6  0  0  0
 23 25  1  0  0  0  0
 23 26  1  0  0  0  0
 25 22  1  6  0  0  0
 25 20  1  0  0  0  0
 26 24  1  1  0  0  0
 26 20  1  0  0  0  0
M  END
>  <MODEL>
1

>  <REMARK>
 VINA RESULT:      -7.4      0.000      0.000
  Name = 
  3 active torsions:
  status: ('A' for Active; 'I' for Inactive)
    1  A    between atoms: C_1  and  C_15
    2  A    between atoms: C_4  and  N_8
    3  A    between atoms: C_14  and  C_26
                            x       y       z     vdW  Elec       q    Type
                         _______ _______ _______ _____ _____    ______ ____

>  <TORSDO>
F 3

$$$$
=
 OpenBabel11072408323D

 26 31  0  0  1  0  0  0  0  0999 V2000
  187.6440  176.8620  143.9500 C   0  0  0  0  0  0  0  0  0  0  0  0
  188.5230  176.7710  145.0590 C   0  0  0  0  0  0  0  0  0  0  0  0
  186.2570  176.8790  144.1830 C   0  0  0  0  0  3  0  0  0  0  0  0
  187.9910  176.7670  146.3590 C   0  0  0  0  0  3  0  0  0  0  0  0
  186.6130  176.8130  146.5690 C   0  0  0  0  0  3  0  0  0  0  0  0
  185.7450  176.8590  145.4800 C   0  0  0  0  0  3  0  0  0  0  0  0
  190.8200  177.8070  144.7560 C   0  0  0  0  0  2  0  0  0  0  0  0
  189.9500  176.6630  144.8940 N   0  0  0  0  0  0  0  0  0  0  0  0
  192.9150  175.0230  144.6140 C   0  0  0  0  0  2  0  0  0  0  0  0
  191.9290  175.8400  143.9140 N   0  0  2  0  0  0  0  0  0  0  0  0
  192.1920  173.9110  145.3490 C   0  0  1  0  0  3  0  0  0  0  0  0
  192.1480  177.2290  144.3170 C   0  0  0  0  0  2  0  0  0  0  0  0
  190.6080  175.4590  144.4180 C   0  0  1  0  0  3  0  0  0  0  0  0
  190.7790  174.4060  145.5160 C   0  0  2  0  0  3  0  0  0  0  0  0
  190.6430  174.9620  146.7910 O   0  0  0  0  0  1  0  0  0  0  0  0
  193.4230  171.7280  144.7210 C   0  0  0  0  0  2  0  0  0  0  0  0
  191.0300  171.9410  144.2730 O   0  0  0  0  0  1  0  0  0  0  0  0
  193.2480  172.5330  143.4360 C   0  0  0  0  0  2  0  0  0  0  0  0
  192.2210  172.6210  144.5370 C   0  0  0  0  0  0  0  0  0  0  0  0
  187.2310  176.5710  140.6210 C   0  0  0  0  0  2  0  0  0  0  0  0
  188.7450  178.2250  142.0220 C   0  0  0  0  0  2  0  0  0  0  0  0
  186.2480  178.3480  142.0930 O   0  0  0  0  0  1  0  0  0  0  0  0
  188.1740  176.9150  142.5250 C   0  0  2  0  0  0  0  0  0  0  0  0
  187.2740  174.7070  142.1040 O   0  0  0  0  0  1  0  0  0  0  0  0
  187.3910  177.7860  141.5160 C   0  0  1  0  0  0  0  0  0  0  0  0
  188.0600  175.7310  141.5700 C   0  0  1  0  0  3  0  0  0  0  0  0
  1  3  2  0  0  0  0
  1  2  1  0  0  0  0
  2  4  2  0  0  0  0
  3  6  1  0  0  0  0
  4  5  1  0  0  0  0
  6  5  2  0  0  0  0
  7  8  1  0  0  0  0
  8  2  1  0  0  0  0
  9 11  1  0  0  0  0
 10 12  1  1  0  0  0
 10 13  1  0  0  0  0
 10  9  1  0  0  0  0
 11 19  1  6  0  0  0
 11 14  1  0  0  0  0
 12  7  1  0  0  0  0
 13  8  1  1  0  0  0
 13 14  1  0  0  0  0
 14 15  1  1  0  0  0
 17 19  1  0  0  0  0
 18 19  1  0  0  0  0
 18 16  1  0  0  0  0
 19 16  1  0  0  0  0
 20 25  1  0  0  0  0
 20 26  1  0  0  0  0
 21 23  1  0  0  0  0
 23  1  1  1  0  0  0
 25 21  1  0  0  0  0
 25 22  1  1  0  0  0
 25 23  1  0  0  0  0
 26 24  1  1  0  0  0
 26 23  1  0  0  0  0
M  END
>  <MODEL>
2

>  <REMARK>
 VINA RESULT:      -6.8      2.072      6.455
  Name = 
  3 active torsions:
  status: ('A' for Active; 'I' for Inactive)
    1  A    between atoms: C_1  and  C_15
    2  A    between atoms: C_4  and  N_8
    3  A    between atoms: C_14  and  C_26
                            x       y       z     vdW  Elec       q    Type
                         _______ _______ _______ _____ _____    ______ ____

>  <TORSDO>
F 3

$$$$
=
 OpenBabel11072408323D

 26 31  0  0  1  0  0  0  0  0999 V2000
  187.9780  177.0700  144.1600 C   0  0  0  0  0  0  0  0  0  0  0  0
  188.8470  176.3530  145.0220 C   0  0  0  0  0  0  0  0  0  0  0  0
  186.8920  177.7670  144.7170 C   0  0  0  0  0  3  0  0  0  0  0  0
  188.6390  176.4130  146.4090 C   0  0  0  0  0  3  0  0  0  0  0  0
  187.5710  177.1340  146.9440 C   0  0  0  0  0  3  0  0  0  0  0  0
  186.6910  177.8030  146.0970 C   0  0  0  0  0  3  0  0  0  0  0  0
  189.7300  174.3870  143.6820 C   0  0  0  0  0  2  0  0  0  0  0  0
  189.9290  175.5480  144.5170 N   0  0  0  0  0  0  0  0  0  0  0  0
  193.1840  174.6730  144.0690 C   0  0  0  0  0  2  0  0  0  0  0  0
  191.9180  174.2950  144.6890 N   0  0  2  0  0  0  0  0  0  0  0  0
  193.4560  176.1330  144.3720 C   0  0  1  0  0  3  0  0  0  0  0  0
  191.0810  173.7050  143.6450 C   0  0  0  0  0  2  0  0  0  0  0  0
  191.2530  175.5290  145.1140 C   0  0  1  0  0  3  0  0  0  0  0  0
  192.1080  176.7250  144.6920 C   0  0  2  0  0  3  0  0  0  0  0  0
  191.6040  177.3430  143.5450 O   0  0  0  0  0  1  0  0  0  0  0  0
  193.8570  176.9540  146.7900 C   0  0  0  0  0  2  0  0  0  0  0  0
  195.3330  175.2630  145.8240 O   0  0  0  0  0  1  0  0  0  0  0  0
  194.8740  177.6620  145.8990 C   0  0  0  0  0  2  0  0  0  0  0  0
  194.4020  176.2700  145.5610 C   0  0  0  0  0  0  0  0  0  0  0  0
  186.8070  177.0870  141.0020 C   0  0  0  0  0  2  0  0  0  0  0  0
  188.9550  178.2280  142.0400 C   0  0  0  0  0  2  0  0  0  0  0  0
  186.6460  178.9630  142.6600 O   0  0  0  0  0  1  0  0  0  0  0  0
  188.1890  177.0730  142.6520 C   0  0  2  0  0  0  0  0  0  0  0  0
  186.6870  175.1870  142.4340 O   0  0  0  0  0  1  0  0  0  0  0  0
  187.4580  178.1700  141.8440 C   0  0  1  0  0  0  0  0  0  0  0  0
  187.5760  176.0140  141.7430 C   0  0  1  0  0  3  0  0  0  0  0  0
  1  3  2  0  0  0  0
  1  2  1  0  0  0  0
  2  4  2  0  0  0  0
  3  6  1  0  0  0  0
  4  5  1  0  0  0  0
  6  5  2  0  0  0  0
  7  8  1  0  0  0  0
  8  2  1  0  0  0  0
  9 10  1  0  0  0  0
 10 12  1  6  0  0  0
 10 13  1  0  0  0  0
 11  9  1  1  0  0  0
 11 14  1  0  0  0  0
 11 19  1  0  0  0  0
 12  7  1  0  0  0  0
 13  8  1  6  0  0  0
 14 15  1  6  0  0  0
 14 13  1  0  0  0  0
 18 16  1  0  0  0  0
 19 17  1  0  0  0  0
 19 18  1  0  0  0  0
 19 16  1  0  0  0  0
 20 26  1  0  0  0  0
 20 25  1  0  0  0  0
 21 23  1  0  0  0  0
 23  1  1  1  0  0  0
 25 21  1  0  0  0  0
 25 23  1  0  0  0  0
 25 22  1  1  0  0  0
 26 24  1  1  0  0  0
 26 23  1  0  0  0  0
M  END
>  <MODEL>
3

>  <REMARK>
 VINA RESULT:      -6.7      2.269      6.559
  Name = 
  3 active torsions:
  status: ('A' for Active; 'I' for Inactive)
    1  A    between atoms: C_1  and  C_15
    2  A    between atoms: C_4  and  N_8
    3  A    between atoms: C_14  and  C_26
                            x       y       z     vdW  Elec       q    Type
                         _______ _______ _______ _____ _____    ______ ____

>  <TORSDO>
F 3

$$$$
=
 OpenBabel11072408323D

 26 31  0  0  1  0  0  0  0  0999 V2000
  190.7400  174.4250  142.8020 C   0  0  0  0  0  0  0  0  0  0  0  0
  191.1550  175.2370  143.8890 C   0  0  0  0  0  0  0  0  0  0  0  0
  191.5510  174.3600  141.6550 C   0  0  0  0  0  3  0  0  0  0  0  0
  192.3910  175.8990  143.8180 C   0  0  0  0  0  3  0  0  0  0  0  0
  193.1940  175.7990  142.6820 C   0  0  0  0  0  3  0  0  0  0  0  0
  192.7700  175.0370  141.5960 C   0  0  0  0  0  3  0  0  0  0  0  0
  190.6300  174.8060  146.3340 C   0  0  0  0  0  2  0  0  0  0  0  0
  190.3370  175.4180  145.0600 N   0  0  0  0  0  0  0  0  0  0  0  0
  187.7200  176.6600  146.8420 C   0  0  0  0  0  2  0  0  0  0  0  0
  188.3100  175.4570  146.2630 N   0  0  2  0  0  0  0  0  0  0  0  0
  187.7300  177.7580  145.7960 C   0  0  1  0  0  3  0  0  0  0  0  0
  189.3800  175.0220  147.1610 C   0  0  0  0  0  2  0  0  0  0  0  0
  188.9490  175.8450  145.0040 C   0  0  1  0  0  3  0  0  0  0  0  0
  188.8040  177.3570  144.8170 C   0  0  2  0  0  3  0  0  0  0  0  0
  189.9830  178.0340  145.1400 O   0  0  0  0  0  1  0  0  0  0  0  0
  186.3780  178.3010  143.6620 C   0  0  0  0  0  2  0  0  0  0  0  0
  185.3670  176.9410  145.4230 O   0  0  0  0  0  1  0  0  0  0  0  0
  185.8820  179.2370  144.7610 C   0  0  0  0  0  2  0  0  0  0  0  0
  186.3750  177.8530  145.1030 C   0  0  0  0  0  0  0  0  0  0  0  0
  188.2360  172.7400  141.3080 C   0  0  0  0  0  2  0  0  0  0  0  0
  189.3830  172.3740  143.6620 C   0  0  0  0  0  2  0  0  0  0  0  0
  190.6190  171.9840  141.5230 O   0  0  0  0  0  1  0  0  0  0  0  0
  189.4300  173.6520  142.8500 C   0  0  2  0  0  0  0  0  0  0  0  0
  188.5090  175.1010  141.1430 O   0  0  0  0  0  1  0  0  0  0  0  0
  189.4050  172.2700  142.1560 C   0  0  1  0  0  0  0  0  0  0  0  0
  188.2100  174.0680  142.0350 C   0  0  1  0  0  3  0  0  0  0  0  0
  1  2  1  0  0  0  0
  2  8  1  0  0  0  0
  3  1  2  0  0  0  0
  4  2  2  0  0  0  0
  5  4  1  0  0  0  0
  6  3  1  0  0  0  0
  6  5  2  0  0  0  0
  7 12  1  0  0  0  0
  8  7  1  0  0  0  0
 10  9  1  1  0  0  0
 10 12  1  0  0  0  0
 11 19  1  6  0  0  0
 11  9  1  0  0  0  0
 13  8  1  1  0  0  0
 13 10  1  0  0  0  0
 14 13  1  0  0  0  0
 14 15  1  1  0  0  0
 14 11  1  0  0  0  0
 16 18  1  0  0  0  0
 16 19  1  0  0  0  0
 18 19  1  0  0  0  0
 19 17  1  0  0  0  0
 20 26  1  0  0  0  0
 20 25  1  0  0  0  0
 23  1  1  6  0  0  0
 23 21  1  0  0  0  0
 25 22  1  6  0  0  0
 25 23  1  0  0  0  0
 25 21  1  0  0  0  0
 26 24  1  6  0  0  0
 26 23  1  0  0  0  0
M  END
>  <MODEL>
4

>  <REMARK>
 VINA RESULT:      -6.6      2.319      4.205
  Name = 
  3 active torsions:
  status: ('A' for Active; 'I' for Inactive)
    1  A    between atoms: C_1  and  C_15
    2  A    between atoms: C_4  and  N_8
    3  A    between atoms: C_14  and  C_26
                            x       y       z     vdW  Elec       q    Type
                         _______ _______ _______ _____ _____    ______ ____

>  <TORSDO>
F 3

$$$$
=
 OpenBabel11072408323D

 26 31  0  0  1  0  0  0  0  0999 V2000
  186.5780  177.5010  144.8540 C   0  0  0  0  0  0  0  0  0  0  0  0
  187.7320  177.0420  145.5410 C   0  0  0  0  0  0  0  0  0  0  0  0
  185.3480  177.5290  145.5350 C   0  0  0  0  0  3  0  0  0  0  0  0
  187.6290  176.6940  146.8970 C   0  0  0  0  0  3  0  0  0  0  0  0
  186.4040  176.7570  147.5620 C   0  0  0  0  0  3  0  0  0  0  0  0
  185.2620  177.1650  146.8790 C   0  0  0  0  0  3  0  0  0  0  0  0
  189.9410  177.9950  144.7340 C   0  0  0  0  0  2  0  0  0  0  0  0
  189.0060  176.9050  144.8850 N   0  0  0  0  0  0  0  0  0  0  0  0
  191.4770  175.2400  143.2460 C   0  0  0  0  0  2  0  0  0  0  0  0
  190.4460  176.2670  143.1310 N   0  0  2  0  0  0  0  0  0  0  0  0
  190.8700  174.0130  143.8990 C   0  0  1  0  0  3  0  0  0  0  0  0
  190.9720  177.4830  143.7510 C   0  0  0  0  0  2  0  0  0  0  0  0
  189.3080  175.8380  143.9460 C   0  0  1  0  0  3  0  0  0  0  0  0
  189.6620  174.5230  144.6420 C   0  0  2  0  0  3  0  0  0  0  0  0
  190.0100  174.7230  145.9820 O   0  0  0  0  0  1  0  0  0  0  0  0
  189.3160  172.0720  143.1950 C   0  0  0  0  0  2  0  0  0  0  0  0
  190.5520  173.3150  141.4910 O   0  0  0  0  0  1  0  0  0  0  0  0
  190.7470  171.5410  143.1600 C   0  0  0  0  0  2  0  0  0  0  0  0
  190.4630  172.9880  142.8450 C   0  0  0  0  0  0  0  0  0  0  0  0
  185.3400  177.5810  141.7230 C   0  0  0  0  0  2  0  0  0  0  0  0
  186.6670  179.4160  143.0900 C   0  0  0  0  0  2  0  0  0  0  0  0
  184.3600  178.7030  143.7410 O   0  0  0  0  0  1  0  0  0  0  0  0
  186.6490  177.9330  143.3960 C   0  0  2  0  0  0  0  0  0  0  0  0
  186.3160  175.6380  142.6970 O   0  0  0  0  0  1  0  0  0  0  0  0
  185.4020  178.6370  142.8120 C   0  0  1  0  0  0  0  0  0  0  0  0
  186.6030  176.9300  142.2480 C   0  0  1  0  0  3  0  0  0  0  0  0
  1  3  2  0  0  0  0
  1  2  1  0  0  0  0
  2  4  2  0  0  0  0
  3  6  1  0  0  0  0
  4  5  1  0  0  0  0
  6  5  2  0  0  0  0
  7  8  1  0  0  0  0
  8  2  1  0  0  0  0
  9 11  1  0  0  0  0
 10  9  1  1  0  0  0
 10 12  1  0  0  0  0
 10 13  1  0  0  0  0
 11 19  1  6  0  0  0
 11 14  1  0  0  0  0
 12  7  1  0  0  0  0
 13 14  1  0  0  0  0
 13  8  1  1  0  0  0
 14 15  1  1  0  0  0
 17 19  1  0  0  0  0
 18 16  1  0  0  0  0
 19 18  1  0  0  0  0
 19 16  1  0  0  0  0
 20 26  1  0  0  0  0
 20 25  1  0  0  0  0
 21 23  1  0  0  0  0
 23  1  1  1  0  0  0
 25 21  1  0  0  0  0
 25 23  1  0  0  0  0
 25 22  1  1  0  0  0
 26 24  1  1  0  0  0
 26 23  1  0  0  0  0
M  END
>  <MODEL>
5

>  <REMARK>
 VINA RESULT:      -6.6      1.947      6.284
  Name = 
  3 active torsions:
  status: ('A' for Active; 'I' for Inactive)
    1  A    between atoms: C_1  and  C_15
    2  A    between atoms: C_4  and  N_8
    3  A    between atoms: C_14  and  C_26
                            x       y       z     vdW  Elec       q    Type
                         _______ _______ _______ _____ _____    ______ ____

>  <TORSDO>
F 3

$$$$
=
 OpenBabel11072408323D

 26 31  0  0  1  0  0  0  0  0999 V2000
  188.5040  175.1450  143.3640 C   0  0  0  0  0  0  0  0  0  0  0  0
  189.3990  174.2440  143.9970 C   0  0  0  0  0  0  0  0  0  0  0  0
  187.8720  174.7480  142.1710 C   0  0  0  0  0  3  0  0  0  0  0  0
  189.5780  172.9610  143.4550 C   0  0  0  0  0  3  0  0  0  0  0  0
  188.9200  172.5780  142.2870 C   0  0  0  0  0  3  0  0  0  0  0  0
  188.0740  173.4750  141.6390 C   0  0  0  0  0  3  0  0  0  0  0  0
  189.6010  174.5510  146.5080 C   0  0  0  0  0  2  0  0  0  0  0  0
  190.1450  174.6120  145.1720 N   0  0  0  0  0  0  0  0  0  0  0  0
  192.8750  175.6890  146.8900 C   0  0  0  0  0  2  0  0  0  0  0  0
  191.5130  176.0180  146.4790 N   0  0  2  0  0  0  0  0  0  0  0  0
  193.6400  175.1890  145.6800 C   0  0  1  0  0  3  0  0  0  0  0  0
  190.6040  175.2920  147.3660 C   0  0  0  0  0  2  0  0  0  0  0  0
  191.3180  175.4690  145.1350 C   0  0  1  0  0  3  0  0  0  0  0  0
  192.5830  174.7200  144.7140 C   0  0  2  0  0  3  0  0  0  0  0  0
  192.4350  173.3360  144.8470 O   0  0  0  0  0  1  0  0  0  0  0  0
  194.4900  176.4010  143.5620 C   0  0  0  0  0  2  0  0  0  0  0  0
  194.5650  177.5410  145.7220 O   0  0  0  0  0  1  0  0  0  0  0  0
  195.7180  175.9050  144.3210 C   0  0  0  0  0  2  0  0  0  0  0  0
  194.4720  176.3110  145.0680 C   0  0  0  0  0  0  0  0  0  0  0  0
  187.3320  178.2900  143.0970 C   0  0  0  0  0  2  0  0  0  0  0  0
  187.3580  176.6400  145.1630 C   0  0  0  0  0  2  0  0  0  0  0  0
  185.9610  176.1890  143.1380 O   0  0  0  0  0  1  0  0  0  0  0  0
  188.2410  176.5300  143.9380 C   0  0  2  0  0  0  0  0  0  0  0  0
  189.3140  177.5340  142.0130 O   0  0  0  0  0  1  0  0  0  0  0  0
  186.7970  177.0720  143.8280 C   0  0  1  0  0  0  0  0  0  0  0  0
  188.7540  177.7990  143.2660 C   0  0  1  0  0  3  0  0  0  0  0  0
  1  2  1  0  0  0  0
  2  8  1  0  0  0  0
  3  1  2  0  0  0  0
  4  2  2  0  0  0  0
  5  4  1  0  0  0  0
  6  3  1  0  0  0  0
  6  5  2  0  0  0  0
  7 12  1  0  0  0  0
  8  7  1  0  0  0  0
 10  9  1  1  0  0  0
 10 12  1  0  0  0  0
 11 19  1  6  0  0  0
 11  9  1  0  0  0  0
 13  8  1  1  0  0  0
 13 10  1  0  0  0  0
 14 15  1  1  0  0  0
 14 13  1  0  0  0  0
 14 11  1  0  0  0  0
 16 18  1  0  0  0  0
 16 19  1  0  0  0  0
 18 19  1  0  0  0  0
 19 17  1  0  0  0  0
 20 26  1  0  0  0  0
 20 25  1  0  0  0  0
 23  1  1  6  0  0  0
 23 21  1  0  0  0  0
 25 22  1  6  0  0  0
 25 23  1  0  0  0  0
 25 21  1  0  0  0  0
 26 24  1  6  0  0  0
 26 23  1  0  0  0  0
M  END
>  <MODEL>
6

>  <REMARK>
 VINA RESULT:      -6.5      2.142      6.220
  Name = 
  3 active torsions:
  status: ('A' for Active; 'I' for Inactive)
    1  A    between atoms: C_1  and  C_15
    2  A    between atoms: C_4  and  N_8
    3  A    between atoms: C_14  and  C_26
                            x       y       z     vdW  Elec       q    Type
                         _______ _______ _______ _____ _____    ______ ____

>  <TORSDO>
F 3

$$$$
=
 OpenBabel11072408323D

 26 31  0  0  1  0  0  0  0  0999 V2000
  191.5680  174.8610  143.6240 C   0  0  0  0  0  0  0  0  0  0  0  0
  190.1500  174.8880  143.6750 C   0  0  0  0  0  0  0  0  0  0  0  0
  192.1960  174.2570  142.5200 C   0  0  0  0  0  3  0  0  0  0  0  0
  189.4150  174.3730  142.5950 C   0  0  0  0  0  3  0  0  0  0  0  0
  190.0590  173.8030  141.4960 C   0  0  0  0  0  3  0  0  0  0  0  0
  191.4500  173.7360  141.4630 C   0  0  0  0  0  3  0  0  0  0  0  0
  189.6930  174.9950  146.1680 C   0  0  0  0  0  2  0  0  0  0  0  0
  189.4380  175.4130  144.8100 N   0  0  0  0  0  0  0  0  0  0  0  0
  187.1630  177.3850  146.3920 C   0  0  0  0  0  2  0  0  0  0  0  0
  187.5130  176.0150  146.0310 N   0  0  2  0  0  0  0  0  0  0  0  0
  187.3000  178.2610  145.1620 C   0  0  1  0  0  3  0  0  0  0  0  0
  188.5420  175.5670  146.9690 C   0  0  0  0  0  2  0  0  0  0  0  0
  188.1400  176.0570  144.7080 C   0  0  1  0  0  3  0  0  0  0  0  0
  188.2370  177.5140  144.2500 C   0  0  2  0  0  3  0  0  0  0  0  0
  189.5290  178.0230  144.4160 O   0  0  0  0  0  1  0  0  0  0  0  0
  185.9560  178.9750  143.0730 C   0  0  0  0  0  2  0  0  0  0  0  0
  184.8880  177.6010  144.7900 O   0  0  0  0  0  1  0  0  0  0  0  0
  185.5290  179.8890  144.2190 C   0  0  0  0  0  2  0  0  0  0  0  0
  185.9440  178.4660  144.4940 C   0  0  0  0  0  0  0  0  0  0  0  0
  194.4780  175.1980  145.2840 C   0  0  0  0  0  2  0  0  0  0  0  0
  192.5560  176.9540  144.8190 C   0  0  0  0  0  2  0  0  0  0  0  0
  193.9750  176.0390  142.9740 O   0  0  0  0  0  1  0  0  0  0  0  0
  192.4080  175.4480  144.7480 C   0  0  2  0  0  0  0  0  0  0  0  0
  193.1450  173.2250  145.3630 O   0  0  0  0  0  1  0  0  0  0  0  0
  193.7350  176.1340  144.3480 C   0  0  1  0  0  0  0  0  0  0  0  0
  193.1750  174.5720  145.7330 C   0  0  1  0  0  3  0  0  0  0  0  0
  1  2  1  0  0  0  0
  2  8  1  0  0  0  0
  3  1  2  0  0  0  0
  4  2  2  0  0  0  0
  5  4  1  0  0  0  0
  6  5  2  0  0  0  0
  6  3  1  0  0  0  0
  7 12  1  0  0  0  0
  8  7  1  0  0  0  0
 10  9  1  1  0  0  0
 10 12  1  0  0  0  0
 11 19  1  6  0  0  0
 11  9  1  0  0  0  0
 13  8  1  1  0  0  0
 13 10  1  0  0  0  0
 14 15  1  1  0  0  0
 14 13  1  0  0  0  0
 14 11  1  0  0  0  0
 16 18  1  0  0  0  0
 16 19  1  0  0  0  0
 18 19  1  0  0  0  0
 19 17  1  0  0  0  0
 20 26  1  0  0  0  0
 23  1  1  6  0  0  0
 23 21  1  0  0  0  0
 23 26  1  0  0  0  0
 25 22  1  6  0  0  0
 25 23  1  0  0  0  0
 25 21  1  0  0  0  0
 25 20  1  0  0  0  0
 26 24  1  6  0  0  0
M  END
>  <MODEL>
7

>  <REMARK>
 VINA RESULT:      -6.4      2.096      2.958
  Name = 
  3 active torsions:
  status: ('A' for Active; 'I' for Inactive)
    1  A    between atoms: C_1  and  C_15
    2  A    between atoms: C_4  and  N_8
    3  A    between atoms: C_14  and  C_26
                            x       y       z     vdW  Elec       q    Type
                         _______ _______ _______ _____ _____    ______ ____

>  <TORSDO>
F 3

$$$$
=
 OpenBabel11072408323D

 26 31  0  0  1  0  0  0  0  0999 V2000
  187.9980  177.0500  144.1290 C   0  0  0  0  0  0  0  0  0  0  0  0
  189.0730  176.6870  144.9800 C   0  0  0  0  0  0  0  0  0  0  0  0
  186.7440  177.3320  144.7000 C   0  0  0  0  0  3  0  0  0  0  0  0
  188.8760  176.6840  146.3700 C   0  0  0  0  0  3  0  0  0  0  0  0
  187.6320  176.9950  146.9190 C   0  0  0  0  0  3  0  0  0  0  0  0
  186.5630  177.3090  146.0830 C   0  0  0  0  0  3  0  0  0  0  0  0
  191.5330  177.1400  144.5500 C   0  0  0  0  0  2  0  0  0  0  0  0
  190.3600  176.3030  144.4610 N   0  0  0  0  0  0  0  0  0  0  0  0
  192.5850  174.2400  142.9250 C   0  0  0  0  0  2  0  0  0  0  0  0
  191.8450  175.4930  142.8180 N   0  0  2  0  0  0  0  0  0  0  0  0
  191.6270  173.1450  143.3520 C   0  0  1  0  0  3  0  0  0  0  0  0
  192.5450  176.4830  143.6360 C   0  0  0  0  0  2  0  0  0  0  0  0
  190.5360  175.2830  143.4410 C   0  0  1  0  0  3  0  0  0  0  0  0
  190.4780  173.8640  144.0090 C   0  0  2  0  0  3  0  0  0  0  0  0
  190.6720  173.8520  145.3930 O   0  0  0  0  0  1  0  0  0  0  0  0
  189.6970  171.9280  142.1380 C   0  0  0  0  0  2  0  0  0  0  0  0
  191.6730  172.6220  140.8790 O   0  0  0  0  0  1  0  0  0  0  0  0
  190.7990  170.9000  142.3770 C   0  0  0  0  0  2  0  0  0  0  0  0
  191.1460  172.3490  142.1430 C   0  0  0  0  0  0  0  0  0  0  0  0
  186.7540  177.1670  141.0010 C   0  0  0  0  0  2  0  0  0  0  0  0
  188.9100  178.2990  142.0320 C   0  0  0  0  0  2  0  0  0  0  0  0
  186.6070  178.9780  142.7310 O   0  0  0  0  0  1  0  0  0  0  0  0
  188.1740  177.1120  142.6180 C   0  0  2  0  0  0  0  0  0  0  0  0
  186.6930  175.2130  142.3640 O   0  0  0  0  0  1  0  0  0  0  0  0
  187.4100  178.2270  141.8680 C   0  0  1  0  0  0  0  0  0  0  0  0
  187.5550  176.0770  141.6840 C   0  0  1  0  0  3  0  0  0  0  0  0
  1  3  2  0  0  0  0
  1  2  1  0  0  0  0
  2  4  2  0  0  0  0
  3  6  1  0  0  0  0
  4  5  1  0  0  0  0
  6  5  2  0  0  0  0
  8  7  1  0  0  0  0
  8  2  1  0  0  0  0
  9 11  1  0  0  0  0
 10  9  1  1  0  0  0
 10 13  1  0  0  0  0
 10 12  1  0  0  0  0
 11 19  1  6  0  0  0
 11 14  1  0  0  0  0
 12  7  1  0  0  0  0
 13 14  1  0  0  0  0
 13  8  1  1  0  0  0
 14 15  1  1  0  0  0
 16 19  1  0  0  0  0
 16 18  1  0  0  0  0
 17 19  1  0  0  0  0
 19 18  1  0  0  0  0
 20 26  1  0  0  0  0
 20 25  1  0  0  0  0
 21 23  1  0  0  0  0
 23  1  1  1  0  0  0
 25 21  1  0  0  0  0
 25 23  1  0  0  0  0
 25 22  1  1  0  0  0
 26 24  1  1  0  0  0
 26 23  1  0  0  0  0
M  END
>  <MODEL>
8

>  <REMARK>
 VINA RESULT:      -6.4      2.185      6.359
  Name = 
  3 active torsions:
  status: ('A' for Active; 'I' for Inactive)
    1  A    between atoms: C_1  and  C_15
    2  A    between atoms: C_4  and  N_8
    3  A    between atoms: C_14  and  C_26
                            x       y       z     vdW  Elec       q    Type
                         _______ _______ _______ _____ _____    ______ ____

>  <TORSDO>
F 3

$$$$
=
 OpenBabel11072408323D

 26 31  0  0  1  0  0  0  0  0999 V2000
  191.7020  174.0500  144.8010 C   0  0  0  0  0  0  0  0  0  0  0  0
  191.4590  175.1220  145.6980 C   0  0  0  0  0  0  0  0  0  0  0  0
  193.0300  173.6660  144.5450 C   0  0  0  0  0  3  0  0  0  0  0  0
  192.5430  175.7240  146.3570 C   0  0  0  0  0  3  0  0  0  0  0  0
  193.8520  175.3090  146.1100 C   0  0  0  0  0  3  0  0  0  0  0  0
  194.0960  174.2860  145.1970 C   0  0  0  0  0  3  0  0  0  0  0  0
  189.4450  175.4660  147.2030 C   0  0  0  0  0  2  0  0  0  0  0  0
  190.1320  175.6250  145.9440 N   0  0  0  0  0  0  0  0  0  0  0  0
  187.2410  177.2340  145.1590 C   0  0  0  0  0  2  0  0  0  0  0  0
  187.8460  175.9410  145.4630 N   0  0  2  0  0  0  0  0  0  0  0  0
  188.0970  177.9400  144.1250 C   0  0  1  0  0  3  0  0  0  0  0  0
  188.0150  175.8700  146.9140 C   0  0  0  0  0  2  0  0  0  0  0  0
  189.1910  175.9400  144.8830 C   0  0  1  0  0  3  0  0  0  0  0  0
  189.4580  177.3030  144.2430 C   0  0  2  0  0  3  0  0  0  0  0  0
  190.2630  178.1080  145.0540 O   0  0  0  0  0  1  0  0  0  0  0  0
  186.3620  178.6170  142.3350 C   0  0  0  0  0  2  0  0  0  0  0  0
  188.3770  177.4030  141.6710 O   0  0  0  0  0  1  0  0  0  0  0  0
  186.1470  177.1350  142.6340 C   0  0  0  0  0  2  0  0  0  0  0  0
  187.5260  177.7400  142.7260 C   0  0  0  0  0  0  0  0  0  0  0  0
  190.5020  172.0470  142.3740 C   0  0  0  0  0  2  0  0  0  0  0  0
  189.7450  172.3330  144.8920 C   0  0  0  0  0  2  0  0  0  0  0  0
  191.9660  171.3530  144.2890 O   0  0  0  0  0  1  0  0  0  0  0  0
  190.5560  173.3350  144.0980 C   0  0  2  0  0  0  0  0  0  0  0  0
  191.2690  174.2680  141.9800 O   0  0  0  0  0  1  0  0  0  0  0  0
  190.7190  171.8170  143.8590 C   0  0  1  0  0  0  0  0  0  0  0  0
  190.2690  173.5250  142.6120 C   0  0  1  0  0  3  0  0  0  0  0  0
  1  2  1  0  0  0  0
  2  8  1  0  0  0  0
  2  4  2  0  0  0  0
  3  1  2  0  0  0  0
  3  6  1  0  0  0  0
  5  4  1  0  0  0  0
  6  5  2  0  0  0  0
  8  7  1  0  0  0  0
 10  9  1  1  0  0  0
 10 12  1  0  0  0  0
 11 19  1  6  0  0  0
 11 14  1  0  0  0  0
 11  9  1  0  0  0  0
 12  7  1  0  0  0  0
 13 10  1  0  0  0  0
 13  8  1  1  0  0  0
 14 13  1  0  0  0  0
 14 15  1  1  0  0  0
 16 18  1  0  0  0  0
 16 19  1  0  0  0  0
 17 19  1  0  0  0  0
 18 19  1  0  0  0  0
 20 26  1  0  0  0  0
 20 25  1  0  0  0  0
 23  1  1  1  0  0  0
 23 21  1  0  0  0  0
 25 23  1  0  0  0  0
 25 22  1  1  0  0  0
 25 21  1  0  0  0  0
 26 24  1  6  0  0  0
 26 23  1  0  0  0  0
M  END
>  <MODEL>
9

>  <REMARK>
 VINA RESULT:      -6.3      2.353      4.241
  Name = 
  3 active torsions:
  status: ('A' for Active; 'I' for Inactive)
    1  A    between atoms: C_1  and  C_15
    2  A    between atoms: C_4  and  N_8
    3  A    between atoms: C_14  and  C_26
                            x       y       z     vdW  Elec       q    Type
                         _______ _______ _______ _____ _____    ______ ____

>  <TORSDO>
F 3

$$$$
