=
 OpenBabel11062422553D

 29 32  0  0  1  0  0  0  0  0999 V2000
  189.8250  177.3660  142.7240 O   0  0  0  0  0  0  0  0  0  0  0  0
  187.7660  177.7380  144.7190 C   0  0  1  0  0  3  0  0  0  0  0  0
  189.6210  176.6810  146.2750 C   0  0  1  0  0  3  0  0  0  0  0  0
  187.9790  176.6110  143.8820 O   0  0  0  0  0  0  0  0  0  0  0  0
  190.3390  174.8120  144.7550 C   0  0  2  0  0  0  0  0  0  0  0  0
  184.7800  177.2500  146.6870 O   0  0  0  0  0  1  0  0  0  0  0  0
  185.9880  177.9020  146.4280 C   0  0  2  0  0  0  0  0  0  0  0  0
  190.1370  176.8300  147.5620 O   0  0  0  0  0  1  0  0  0  0  0  0
  189.4690  175.1940  145.9510 C   0  0  0  0  0  2  0  0  0  0  0  0
  185.9420  179.2990  147.0400 C   0  0  0  0  0  1  0  0  0  0  0  0
  190.8720  173.4080  144.8960 C   0  0  0  0  0  2  0  0  0  0  0  0
  191.8250  174.5870  145.0420 C   0  0  1  0  0  3  0  0  0  0  0  0
  186.2690  177.9150  144.9160 C   0  0  1  0  0  3  0  0  0  0  0  0
  187.1560  177.1410  147.0390 C   0  0  2  0  0  3  0  0  0  0  0  0
  188.3240  177.4990  146.1280 C   0  0  2  0  0  3  0  0  0  0  0  0
  186.9090  175.7770  146.9970 F   0  0  0  0  0  0  0  0  0  0  0  0
  189.1990  176.4050  143.2440 C   0  0  0  0  0  0  0  0  0  0  0  0
  189.8240  175.0590  143.3300 C   0  0  0  0  0  2  0  0  0  0  0  0
  192.7110  174.7180  143.8320 C   0  0  0  0  0  0  0  0  0  0  0  0
  192.9910  173.7310  143.1690 O   0  0  0  0  0  0  0  0  0  0  0  0
  193.0740  176.9950  144.5550 N   0  0  0  0  0  1  0  0  0  0  0  0
  193.3290  176.0370  143.4930 C   0  0  0  0  0  2  0  0  0  0  0  0
  185.7450  179.1290  144.1520 C   0  0  0  0  0  2  0  0  0  0  0  0
  186.1740  179.0930  142.6910 C   0  0  0  0  0  2  0  0  0  0  0  0
  185.1550  178.3450  141.8310 C   0  0  1  0  0  0  0  0  0  0  0  0
  187.0620  177.4890  140.4270 C   0  0  0  0  0  1  0  0  0  0  0  0
  183.7520  178.1340  142.3650 C   0  0  0  0  0  1  0  0  0  0  0  0
  185.1140  178.8740  140.5300 O   0  0  0  0  0  0  0  0  0  0  0  0
  185.5580  177.5390  140.6470 C   0  0  2  0  0  3  0  0  0  0  0  0
  1 17  2  0  0  0  0
  2  4  1  6  0  0  0
  2 13  1  0  0  0  0
  2 15  1  0  0  0  0
  3  8  1  1  0  0  0
  5 18  1  6  0  0  0
  5 11  1  0  0  0  0
  5 12  1  0  0  0  0
  5  9  1  0  0  0  0
  7  6  1  0  0  0  0
  7 14  1  0  0  0  0
  7 10  1  1  0  0  0
  9  3  1  0  0  0  0
 11 12  1  0  0  0  0
 12 19  1  6  0  0  0
 13 23  1  1  0  0  0
 13  7  1  0  0  0  0
 14 16  1  6  0  0  0
 15  3  1  0  0  0  0
 15 14  1  0  0  0  0
 17 18  1  0  0  0  0
 17  4  1  0  0  0  0
 20 19  2  0  0  0  0
 22 19  1  0  0  0  0
 22 21  1  0  0  0  0
 24 23  1  0  0  0  0
 25 27  1  0  0  0  0
 25 24  1  0  0  0  0
 26 29  1  0  0  0  0
 28 29  1  0  0  0  0
 28 25  1  0  0  0  0
 29 25  1  0  0  0  0
M  END
>  <MODEL>
1

>  <REMARK>
 VINA RESULT:      -7.4      0.000      0.000
  Name = 
  5 active torsions:
  status: ('A' for Active; 'I' for Inactive)
    1  A    between atoms: C_10  and  C_15
    2  A    between atoms: C_11  and  C_18
    3  A    between atoms: C_11  and  C_19
    4  A    between atoms: C_15  and  C_21
    5  A    between atoms: C_20  and  C_21
                            x       y       z     vdW  Elec       q    Type
                         _______ _______ _______ _____ _____    ______ ____

>  <TORSDO>
F 5

$$$$
=
 OpenBabel11062422553D

 29 32  0  0  1  0  0  0  0  0999 V2000
  190.7750  177.5130  143.4940 O   0  0  0  0  0  0  0  0  0  0  0  0
  188.2610  177.5550  144.9210 C   0  0  1  0  0  3  0  0  0  0  0  0
  189.8840  177.5670  147.0050 C   0  0  1  0  0  3  0  0  0  0  0  0
  189.0010  176.4240  144.4870 O   0  0  0  0  0  0  0  0  0  0  0  0
  191.4810  175.7900  146.2230 C   0  0  2  0  0  0  0  0  0  0  0  0
  185.1520  176.4830  146.4080 O   0  0  0  0  0  1  0  0  0  0  0  0
  186.1390  177.4450  146.1840 C   0  0  2  0  0  0  0  0  0  0  0  0
  189.9880  178.1550  148.2650 O   0  0  0  0  0  1  0  0  0  0  0  0
  190.2630  176.0880  147.0960 C   0  0  0  0  0  2  0  0  0  0  0  0
  185.5310  178.8340  146.3570 C   0  0  0  0  0  1  0  0  0  0  0  0
  192.3480  174.7240  146.8460 C   0  0  0  0  0  2  0  0  0  0  0  0
  192.8430  176.1640  146.8110 C   0  0  1  0  0  3  0  0  0  0  0  0
  186.7800  177.2350  144.8020 C   0  0  1  0  0  3  0  0  0  0  0  0
  187.2840  177.2870  147.1750 C   0  0  2  0  0  3  0  0  0  0  0  0
  188.4860  177.8300  146.4130 C   0  0  2  0  0  3  0  0  0  0  0  0
  187.4670  175.9480  147.4810 F   0  0  0  0  0  0  0  0  0  0  0  0
  190.3480  176.5270  144.1520 C   0  0  0  0  0  0  0  0  0  0  0  0
  191.2970  175.5350  144.7210 C   0  0  0  0  0  2  0  0  0  0  0  0
  193.9290  176.3370  145.7830 C   0  0  0  0  0  0  0  0  0  0  0  0
  193.9820  177.3600  145.1150 O   0  0  0  0  0  0  0  0  0  0  0  0
  194.8680  174.8920  144.0900 N   0  0  0  0  0  1  0  0  0  0  0  0
  194.8850  175.2220  145.5050 C   0  0  0  0  0  2  0  0  0  0  0  0
  186.1340  177.9990  143.6470 C   0  0  0  0  0  2  0  0  0  0  0  0
  185.6130  177.0490  142.5760 C   0  0  0  0  0  2  0  0  0  0  0  0
  186.1340  177.4350  141.1910 C   0  0  1  0  0  0  0  0  0  0  0  0
  187.8770  175.6310  141.4140 C   0  0  0  0  0  1  0  0  0  0  0  0
  185.2610  178.2770  140.2830 C   0  0  0  0  0  1  0  0  0  0  0  0
  187.4270  177.9770  141.2760 O   0  0  0  0  0  0  0  0  0  0  0  0
  187.3060  176.7600  140.5700 C   0  0  2  0  0  3  0  0  0  0  0  0
  1 17  2  0  0  0  0
  2  4  1  1  0  0  0
  2 15  1  0  0  0  0
  3  9  1  0  0  0  0
  3  8  1  1  0  0  0
  5 18  1  6  0  0  0
  5 12  1  0  0  0  0
  5 11  1  0  0  0  0
  5  9  1  0  0  0  0
  7 10  1  1  0  0  0
  7  6  1  0  0  0  0
  7 14  1  0  0  0  0
 12 19  1  6  0  0  0
 12 11  1  0  0  0  0
 13 23  1  6  0  0  0
 13  2  1  0  0  0  0
 13  7  1  0  0  0  0
 14 16  1  6  0  0  0
 15  3  1  0  0  0  0
 15 14  1  0  0  0  0
 17  4  1  0  0  0  0
 17 18  1  0  0  0  0
 20 19  2  0  0  0  0
 21 22  1  0  0  0  0
 22 19  1  0  0  0  0
 24 23  1  0  0  0  0
 25 28  1  0  0  0  0
 25 24  1  0  0  0  0
 27 25  1  0  0  0  0
 29 25  1  0  0  0  0
 29 28  1  0  0  0  0
 29 26  1  0  0  0  0
M  END
>  <MODEL>
2

>  <REMARK>
 VINA RESULT:      -7.3      1.712      1.946
  Name = 
  5 active torsions:
  status: ('A' for Active; 'I' for Inactive)
    1  A    between atoms: C_10  and  C_15
    2  A    between atoms: C_11  and  C_18
    3  A    between atoms: C_11  and  C_19
    4  A    between atoms: C_15  and  C_21
    5  A    between atoms: C_20  and  C_21
                            x       y       z     vdW  Elec       q    Type
                         _______ _______ _______ _____ _____    ______ ____

>  <TORSDO>
F 5

$$$$
=
 OpenBabel11062422553D

 29 32  0  0  1  0  0  0  0  0999 V2000
  192.7810  176.6400  142.5040 O   0  0  0  0  0  0  0  0  0  0  0  0
  190.9220  176.5750  144.7180 C   0  0  1  0  0  3  0  0  0  0  0  0
  193.1690  176.4230  146.0990 C   0  0  1  0  0  3  0  0  0  0  0  0
  191.4330  175.4800  143.9730 O   0  0  0  0  0  0  0  0  0  0  0  0
  194.3430  174.7110  144.6840 C   0  0  2  0  0  0  0  0  0  0  0  0
  188.4960  175.3950  147.1150 O   0  0  0  0  0  1  0  0  0  0  0  0
  189.3700  176.3710  146.6310 C   0  0  2  0  0  0  0  0  0  0  0  0
  193.7210  176.9130  147.2830 O   0  0  0  0  0  1  0  0  0  0  0  0
  193.5130  174.9420  145.9460 C   0  0  0  0  0  2  0  0  0  0  0  0
  188.9000  177.7430  147.1050 C   0  0  0  0  0  1  0  0  0  0  0  0
  195.3430  173.5980  144.8860 C   0  0  0  0  0  2  0  0  0  0  0  0
  195.8350  175.0370  144.7850 C   0  0  1  0  0  3  0  0  0  0  0  0
  189.4840  176.2670  145.1010 C   0  0  1  0  0  3  0  0  0  0  0  0
  190.7830  176.1350  147.1460 C   0  0  2  0  0  3  0  0  0  0  0  0
  191.6600  176.7340  146.0540 C   0  0  2  0  0  3  0  0  0  0  0  0
  191.0230  174.7760  147.2720 F   0  0  0  0  0  0  0  0  0  0  0  0
  192.5810  175.6060  143.1970 C   0  0  0  0  0  0  0  0  0  0  0  0
  193.6410  174.5720  143.3270 C   0  0  0  0  0  2  0  0  0  0  0  0
  196.4990  175.2870  143.4580 C   0  0  0  0  0  0  0  0  0  0  0  0
  197.0070  174.3610  142.8420 O   0  0  0  0  0  0  0  0  0  0  0  0
  196.1340  176.7480  141.5680 N   0  0  0  0  0  1  0  0  0  0  0  0
  196.6270  176.6810  142.9330 C   0  0  0  0  0  2  0  0  0  0  0  0
  188.4990  177.1190  144.3020 C   0  0  0  0  0  2  0  0  0  0  0  0
  187.2240  176.3460  143.9890 C   0  0  0  0  0  2  0  0  0  0  0  0
  185.9890  177.0730  144.5210 C   0  0  1  0  0  0  0  0  0  0  0  0
  185.4000  177.6770  142.1490 C   0  0  0  0  0  1  0  0  0  0  0  0
  185.5180  176.7900  145.9340 C   0  0  0  0  0  1  0  0  0  0  0  0
  186.0910  178.4570  144.3020 O   0  0  0  0  0  0  0  0  0  0  0  0
  185.0460  177.7930  143.6230 C   0  0  2  0  0  3  0  0  0  0  0  0
  1 17  2  0  0  0  0
  2  4  1  1  0  0  0
  2 13  1  0  0  0  0
  2 15  1  0  0  0  0
  3  8  1  1  0  0  0
  5 18  1  6  0  0  0
  5 12  1  0  0  0  0
  5 11  1  0  0  0  0
  5  9  1  0  0  0  0
  7 10  1  1  0  0  0
  7  6  1  0  0  0  0
  7 14  1  0  0  0  0
  9  3  1  0  0  0  0
 12 19  1  6  0  0  0
 12 11  1  0  0  0  0
 13 23  1  6  0  0  0
 13  7  1  0  0  0  0
 14 16  1  6  0  0  0
 15  3  1  0  0  0  0
 15 14  1  0  0  0  0
 17 18  1  0  0  0  0
 17  4  1  0  0  0  0
 20 19  2  0  0  0  0
 21 22  1  0  0  0  0
 22 19  1  0  0  0  0
 24 23  1  0  0  0  0
 24 25  1  0  0  0  0
 25 27  1  0  0  0  0
 26 29  1  0  0  0  0
 28 25  1  0  0  0  0
 29 28  1  0  0  0  0
 29 25  1  0  0  0  0
M  END
>  <MODEL>
3

>  <REMARK>
 VINA RESULT:      -7.0      2.435      3.693
  Name = 
  5 active torsions:
  status: ('A' for Active; 'I' for Inactive)
    1  A    between atoms: C_10  and  C_15
    2  A    between atoms: C_11  and  C_18
    3  A    between atoms: C_11  and  C_19
    4  A    between atoms: C_15  and  C_21
    5  A    between atoms: C_20  and  C_21
                            x       y       z     vdW  Elec       q    Type
                         _______ _______ _______ _____ _____    ______ ____

>  <TORSDO>
F 5

$$$$
=
 OpenBabel11062422553D

 29 32  0  0  1  0  0  0  0  0999 V2000
  189.5320  176.5210  142.4800 O   0  0  0  0  0  0  0  0  0  0  0  0
  191.6230  175.9110  144.3810 C   0  0  1  0  0  3  0  0  0  0  0  0
  189.5510  175.1590  145.8370 C   0  0  1  0  0  3  0  0  0  0  0  0
  190.9240  177.1350  144.2140 O   0  0  0  0  0  0  0  0  0  0  0  0
  188.0570  177.1260  145.3730 C   0  0  2  0  0  0  0  0  0  0  0  0
  194.1880  176.3040  146.8900 O   0  0  0  0  0  1  0  0  0  0  0  0
  193.3620  175.5100  146.0920 C   0  0  2  0  0  0  0  0  0  0  0  0
  189.1920  174.1490  146.7290 O   0  0  0  0  0  1  0  0  0  0  0  0
  189.0470  176.5050  146.3570 C   0  0  0  0  0  2  0  0  0  0  0  0
  194.0170  174.1440  145.8990 C   0  0  0  0  0  1  0  0  0  0  0  0
  186.9840  177.9010  146.0980 C   0  0  0  0  0  2  0  0  0  0  0  0
  186.6260  176.5850  145.4210 C   0  0  1  0  0  3  0  0  0  0  0  0
  193.0600  176.2260  144.7650 C   0  0  1  0  0  3  0  0  0  0  0  0
  192.0030  175.3100  146.7490 C   0  0  2  0  0  3  0  0  0  0  0  0
  191.0670  175.1080  145.5640 C   0  0  2  0  0  3  0  0  0  0  0  0
  191.6480  176.4450  147.4610 F   0  0  0  0  0  0  0  0  0  0  0  0
  189.7100  177.1870  143.5350 C   0  0  0  0  0  0  0  0  0  0  0  0
  188.5770  177.9140  144.1640 C   0  0  0  0  0  2  0  0  0  0  0  0
  185.8380  176.8220  144.1610 C   0  0  0  0  0  0  0  0  0  0  0  0
  186.0010  176.0980  143.1900 O   0  0  0  0  0  0  0  0  0  0  0  0
  184.2770  178.0190  142.7560 N   0  0  0  0  0  1  0  0  0  0  0  0
  184.9250  178.0020  144.0570 C   0  0  0  0  0  2  0  0  0  0  0  0
  194.0220  175.9320  143.6150 C   0  0  0  0  0  2  0  0  0  0  0  0
  195.3860  176.5640  143.8580 C   0  0  0  0  0  2  0  0  0  0  0  0
  196.3560  176.2480  142.7190 C   0  0  1  0  0  0  0  0  0  0  0  0
  197.4910  174.5860  144.2310 C   0  0  0  0  0  1  0  0  0  0  0  0
  196.0010  176.6740  141.3090 C   0  0  0  0  0  1  0  0  0  0  0  0
  197.6600  176.6560  143.0460 O   0  0  0  0  0  0  0  0  0  0  0  0
  197.4650  175.2680  142.8730 C   0  0  2  0  0  3  0  0  0  0  0  0
  1 17  2  0  0  0  0
  2  4  1  1  0  0  0
  2 13  1  0  0  0  0
  2 15  1  0  0  0  0
  3  9  1  0  0  0  0
  3  8  1  1  0  0  0
  5 18  1  6  0  0  0
  5 12  1  0  0  0  0
  5 11  1  0  0  0  0
  5  9  1  0  0  0  0
  7 10  1  6  0  0  0
  7 14  1  0  0  0  0
  7  6  1  0  0  0  0
 12 19  1  6  0  0  0
 12 11  1  0  0  0  0
 13 23  1  6  0  0  0
 13  7  1  0  0  0  0
 14 16  1  6  0  0  0
 15  3  1  0  0  0  0
 15 14  1  0  0  0  0
 17 18  1  0  0  0  0
 17  4  1  0  0  0  0
 20 19  2  0  0  0  0
 21 22  1  0  0  0  0
 22 19  1  0  0  0  0
 23 24  1  0  0  0  0
 25 29  1  0  0  0  0
 25 28  1  0  0  0  0
 25 24  1  0  0  0  0
 27 25  1  0  0  0  0
 29 28  1  0  0  0  0
 29 26  1  0  0  0  0
M  END
>  <MODEL>
4

>  <REMARK>
 VINA RESULT:      -6.9      3.019      7.560
  Name = 
  5 active torsions:
  status: ('A' for Active; 'I' for Inactive)
    1  A    between atoms: C_10  and  C_15
    2  A    between atoms: C_11  and  C_18
    3  A    between atoms: C_11  and  C_19
    4  A    between atoms: C_15  and  C_21
    5  A    between atoms: C_20  and  C_21
                            x       y       z     vdW  Elec       q    Type
                         _______ _______ _______ _____ _____    ______ ____

>  <TORSDO>
F 5

$$$$
=
 OpenBabel11062422553D

 29 32  0  0  1  0  0  0  0  0999 V2000
  190.1790  174.6750  146.5440 O   0  0  0  0  0  0  0  0  0  0  0  0
  188.5590  176.1040  144.6230 C   0  0  1  0  0  3  0  0  0  0  0  0
  190.7310  175.8090  143.1480 C   0  0  1  0  0  3  0  0  0  0  0  0
  189.4300  176.6440  145.6050 O   0  0  0  0  0  0  0  0  0  0  0  0
  192.4320  176.4350  144.8890 C   0  0  2  0  0  0  0  0  0  0  0  0
  186.8520  178.7790  142.9030 O   0  0  0  0  0  1  0  0  0  0  0  0
  187.2660  177.4490  143.0000 C   0  0  2  0  0  0  0  0  0  0  0  0
  191.0870  175.5320  141.8290 O   0  0  0  0  0  1  0  0  0  0  0  0
  191.6160  176.9280  143.6950 C   0  0  0  0  0  2  0  0  0  0  0  0
  186.3160  176.5690  142.1920 C   0  0  0  0  0  1  0  0  0  0  0  0
  193.7890  177.0930  144.9300 C   0  0  0  0  0  2  0  0  0  0  0  0
  193.6840  175.6180  144.5630 C   0  0  1  0  0  3  0  0  0  0  0  0
  187.3640  177.0320  144.4780 C   0  0  1  0  0  3  0  0  0  0  0  0
  188.6750  177.2780  142.4510 C   0  0  2  0  0  3  0  0  0  0  0  0
  189.2190  176.0930  143.2380 C   0  0  2  0  0  3  0  0  0  0  0  0
  189.4260  178.4150  142.7060 F   0  0  0  0  0  0  0  0  0  0  0  0
  190.4160  175.8650  146.2030 C   0  0  0  0  0  0  0  0  0  0  0  0
  191.7960  176.4090  146.2850 C   0  0  0  0  0  2  0  0  0  0  0  0
  194.1590  174.7450  145.6940 C   0  0  0  0  0  0  0  0  0  0  0  0
  194.9540  175.1830  146.5130 O   0  0  0  0  0  0  0  0  0  0  0  0
  194.9020  172.4460  145.7000 N   0  0  0  0  0  1  0  0  0  0  0  0
  193.7370  173.3130  145.7650 C   0  0  0  0  0  2  0  0  0  0  0  0
  186.1020  176.4160  145.0800 C   0  0  0  0  0  2  0  0  0  0  0  0
  185.8620  176.9180  146.4980 C   0  0  0  0  0  2  0  0  0  0  0  0
  185.2510  178.3190  146.4950 C   0  0  1  0  0  0  0  0  0  0  0  0
  187.0060  179.0190  148.1580 C   0  0  0  0  0  1  0  0  0  0  0  0
  184.3080  178.7110  145.3740 C   0  0  0  0  0  1  0  0  0  0  0  0
  184.6840  178.6200  147.7450 O   0  0  0  0  0  0  0  0  0  0  0  0
  185.7820  179.4160  147.3490 C   0  0  2  0  0  3  0  0  0  0  0  0
  2  4  1  1  0  0  0
  3  8  1  6  0  0  0
  3 15  1  0  0  0  0
  3  9  1  0  0  0  0
  4 17  1  0  0  0  0
  5  9  1  6  0  0  0
  5 11  1  0  0  0  0
  5 18  1  0  0  0  0
  6  7  1  0  0  0  0
  7 10  1  6  0  0  0
  7 13  1  0  0  0  0
 12  5  1  0  0  0  0
 12 11  1  0  0  0  0
 12 19  1  1  0  0  0
 13  2  1  0  0  0  0
 13 23  1  6  0  0  0
 14 16  1  1  0  0  0
 14  7  1  0  0  0  0
 14 15  1  0  0  0  0
 15  2  1  0  0  0  0
 17 18  1  0  0  0  0
 17  1  2  0  0  0  0
 19 22  1  0  0  0  0
 19 20  2  0  0  0  0
 21 22  1  0  0  0  0
 23 24  1  0  0  0  0
 25 24  1  0  0  0  0
 25 29  1  0  0  0  0
 25 28  1  0  0  0  0
 27 25  1  0  0  0  0
 29 28  1  0  0  0  0
 29 26  1  0  0  0  0
M  END
>  <MODEL>
5

>  <REMARK>
 VINA RESULT:      -6.8      2.312      4.418
  Name = 
  5 active torsions:
  status: ('A' for Active; 'I' for Inactive)
    1  A    between atoms: C_10  and  C_15
    2  A    between atoms: C_11  and  C_18
    3  A    between atoms: C_11  and  C_19
    4  A    between atoms: C_15  and  C_21
    5  A    between atoms: C_20  and  C_21
                            x       y       z     vdW  Elec       q    Type
                         _______ _______ _______ _____ _____    ______ ____

>  <TORSDO>
F 5

$$$$
=
 OpenBabel11062422553D

 29 32  0  0  1  0  0  0  0  0999 V2000
  189.8680  177.5750  145.9540 O   0  0  0  0  0  0  0  0  0  0  0  0
  187.8020  177.6950  143.9350 C   0  0  1  0  0  3  0  0  0  0  0  0
  188.9320  175.4240  143.1940 C   0  0  1  0  0  3  0  0  0  0  0  0
  189.1120  178.2390  143.8790 O   0  0  0  0  0  0  0  0  0  0  0  0
  191.3320  176.1490  143.3590 C   0  0  2  0  0  0  0  0  0  0  0  0
  185.9700  178.6160  140.9650 O   0  0  0  0  0  1  0  0  0  0  0  0
  186.1470  177.8270  142.1030 C   0  0  2  0  0  0  0  0  0  0  0  0
  188.5680  174.1650  142.7180 O   0  0  0  0  0  1  0  0  0  0  0  0
  190.1470  175.9350  142.4200 C   0  0  0  0  0  2  0  0  0  0  0  0
  184.7930  177.2780  142.5470 C   0  0  0  0  0  1  0  0  0  0  0  0
  192.6370  175.8370  142.6680 C   0  0  0  0  0  2  0  0  0  0  0  0
  192.1210  174.8980  143.7510 C   0  0  1  0  0  3  0  0  0  0  0  0
  186.8590  178.6350  143.2020 C   0  0  1  0  0  3  0  0  0  0  0  0
  187.0760  176.6560  141.8130 C   0  0  2  0  0  3  0  0  0  0  0  0
  187.7160  176.3700  143.1650 C   0  0  2  0  0  3  0  0  0  0  0  0
  188.0390  177.0320  140.8890 F   0  0  0  0  0  0  0  0  0  0  0  0
  190.1140  177.8010  144.7390 C   0  0  0  0  0  0  0  0  0  0  0  0
  191.4390  177.4520  144.1640 C   0  0  0  0  0  2  0  0  0  0  0  0
  192.9180  175.0470  145.0190 C   0  0  0  0  0  0  0  0  0  0  0  0
  192.3690  174.9260  146.1050 O   0  0  0  0  0  0  0  0  0  0  0  0
  194.5680  176.6800  145.6890 N   0  0  0  0  0  1  0  0  0  0  0  0
  194.3580  175.4410  144.9600 C   0  0  0  0  0  2  0  0  0  0  0  0
  185.9480  179.3820  144.1740 C   0  0  0  0  0  2  0  0  0  0  0  0
  186.2430  178.9960  145.6180 C   0  0  0  0  0  2  0  0  0  0  0  0
  185.1110  178.1560  146.2110 C   0  0  1  0  0  0  0  0  0  0  0  0
  186.8370  176.8560  147.5020 C   0  0  0  0  0  1  0  0  0  0  0  0
  183.6870  178.6660  146.1150 C   0  0  0  0  0  1  0  0  0  0  0  0
  185.1910  176.8260  145.7670 O   0  0  0  0  0  0  0  0  0  0  0  0
  185.3680  177.0340  147.1520 C   0  0  2  0  0  3  0  0  0  0  0  0
  2  4  1  6  0  0  0
  3  8  1  6  0  0  0
  4 17  1  0  0  0  0
  5  9  1  6  0  0  0
  5 12  1  0  0  0  0
  5 18  1  0  0  0  0
  6  7  1  0  0  0  0
  7 10  1  1  0  0  0
  7 13  1  0  0  0  0
  9  3  1  0  0  0  0
 11  5  1  0  0  0  0
 11 12  1  0  0  0  0
 12 19  1  1  0  0  0
 13  2  1  0  0  0  0
 13 23  1  1  0  0  0
 14 16  1  6  0  0  0
 14  7  1  0  0  0  0
 14 15  1  0  0  0  0
 15  3  1  0  0  0  0
 15  2  1  0  0  0  0
 17  1  2  0  0  0  0
 18 17  1  0  0  0  0
 19 20  2  0  0  0  0
 22 19  1  0  0  0  0
 22 21  1  0  0  0  0
 23 24  1  0  0  0  0
 24 25  1  0  0  0  0
 25 29  1  0  0  0  0
 27 25  1  0  0  0  0
 28 25  1  0  0  0  0
 28 29  1  0  0  0  0
 29 26  1  0  0  0  0
M  END
>  <MODEL>
6

>  <REMARK>
 VINA RESULT:      -6.8      1.971      3.966
  Name = 
  5 active torsions:
  status: ('A' for Active; 'I' for Inactive)
    1  A    between atoms: C_10  and  C_15
    2  A    between atoms: C_11  and  C_18
    3  A    between atoms: C_11  and  C_19
    4  A    between atoms: C_15  and  C_21
    5  A    between atoms: C_20  and  C_21
                            x       y       z     vdW  Elec       q    Type
                         _______ _______ _______ _____ _____    ______ ____

>  <TORSDO>
F 5

$$$$
=
 OpenBabel11062422553D

 29 32  0  0  1  0  0  0  0  0999 V2000
  188.4250  176.8240  143.3770 O   0  0  0  0  0  0  0  0  0  0  0  0
  190.8780  176.2180  144.7830 C   0  0  1  0  0  3  0  0  0  0  0  0
  189.1690  175.5110  146.6700 C   0  0  1  0  0  3  0  0  0  0  0  0
  190.1680  177.4470  144.7520 O   0  0  0  0  0  0  0  0  0  0  0  0
  187.6250  177.4880  146.5120 C   0  0  2  0  0  0  0  0  0  0  0  0
  193.9340  176.6200  146.6610 O   0  0  0  0  0  1  0  0  0  0  0  0
  192.9460  175.8230  146.0770 C   0  0  2  0  0  0  0  0  0  0  0  0
  189.0080  174.5190  147.6360 O   0  0  0  0  0  1  0  0  0  0  0  0
  188.8030  176.8710  147.2650 C   0  0  0  0  0  2  0  0  0  0  0  0
  193.5320  174.4480  145.7680 C   0  0  0  0  0  1  0  0  0  0  0  0
  186.7440  178.2860  147.4410 C   0  0  0  0  0  2  0  0  0  0  0  0
  186.2360  176.9640  146.8820 C   0  0  1  0  0  3  0  0  0  0  0  0
  192.3660  176.5230  144.8370 C   0  0  1  0  0  3  0  0  0  0  0  0
  191.7630  175.6480  147.0190 C   0  0  2  0  0  3  0  0  0  0  0  0
  190.5880  175.4400  146.0730 C   0  0  2  0  0  3  0  0  0  0  0  0
  191.5820  176.7980  147.7730 F   0  0  0  0  0  0  0  0  0  0  0  0
  188.8350  177.5030  144.3550 C   0  0  0  0  0  0  0  0  0  0  0  0
  187.8740  178.2530  145.2050 C   0  0  0  0  0  2  0  0  0  0  0  0
  185.1920  177.1920  145.8220 C   0  0  0  0  0  0  0  0  0  0  0  0
  185.2050  176.5260  144.7960 O   0  0  0  0  0  0  0  0  0  0  0  0
  184.0790  179.0360  144.7270 N   0  0  0  0  0  1  0  0  0  0  0  0
  184.1970  178.2970  145.9730 C   0  0  0  0  0  2  0  0  0  0  0  0
  193.0500  176.2010  143.5090 C   0  0  0  0  0  2  0  0  0  0  0  0
  192.0530  175.6770  142.4840 C   0  0  0  0  0  2  0  0  0  0  0  0
  192.3300  174.2140  142.1370 C   0  0  1  0  0  0  0  0  0  0  0  0
  189.9080  173.9730  141.4930 C   0  0  0  0  0  1  0  0  0  0  0  0
  193.7640  173.7580  141.9530 C   0  0  0  0  0  1  0  0  0  0  0  0
  191.6470  173.3540  143.0140 O   0  0  0  0  0  0  0  0  0  0  0  0
  191.2600  173.2980  141.6570 C   0  0  2  0  0  3  0  0  0  0  0  0
  1 17  2  0  0  0  0
  2  4  1  1  0  0  0
  2 13  1  0  0  0  0
  2 15  1  0  0  0  0
  3  9  1  0  0  0  0
  3  8  1  1  0  0  0
  5 18  1  6  0  0  0
  5 12  1  0  0  0  0
  5  9  1  0  0  0  0
  5 11  1  0  0  0  0
  7 10  1  6  0  0  0
  7  6  1  0  0  0  0
  7 14  1  0  0  0  0
 12 19  1  6  0  0  0
 12 11  1  0  0  0  0
 13 23  1  6  0  0  0
 13  7  1  0  0  0  0
 14 16  1  6  0  0  0
 15  3  1  0  0  0  0
 15 14  1  0  0  0  0
 17  4  1  0  0  0  0
 17 18  1  0  0  0  0
 19 22  1  0  0  0  0
 20 19  2  0  0  0  0
 21 22  1  0  0  0  0
 24 23  1  0  0  0  0
 25 24  1  0  0  0  0
 25 28  1  0  0  0  0
 26 29  1  0  0  0  0
 27 25  1  0  0  0  0
 29 25  1  0  0  0  0
 29 28  1  0  0  0  0
M  END
>  <MODEL>
7

>  <REMARK>
 VINA RESULT:      -6.8      3.041      6.543
  Name = 
  5 active torsions:
  status: ('A' for Active; 'I' for Inactive)
    1  A    between atoms: C_10  and  C_15
    2  A    between atoms: C_11  and  C_18
    3  A    between atoms: C_11  and  C_19
    4  A    between atoms: C_15  and  C_21
    5  A    between atoms: C_20  and  C_21
                            x       y       z     vdW  Elec       q    Type
                         _______ _______ _______ _____ _____    ______ ____

>  <TORSDO>
F 5

$$$$
=
 OpenBabel11062422553D

 29 32  0  0  1  0  0  0  0  0999 V2000
  187.5820  176.0670  143.4350 O   0  0  0  0  0  0  0  0  0  0  0  0
  190.2770  175.4050  144.2470 C   0  0  1  0  0  3  0  0  0  0  0  0
  189.1030  175.1910  146.6040 C   0  0  1  0  0  3  0  0  0  0  0  0
  189.6740  176.6890  144.1840 O   0  0  0  0  0  0  0  0  0  0  0  0
  187.7160  177.2840  146.5030 C   0  0  2  0  0  0  0  0  0  0  0  0
  193.7500  175.7340  145.1760 O   0  0  0  0  0  1  0  0  0  0  0  0
  192.5880  174.9760  145.0150 C   0  0  2  0  0  0  0  0  0  0  0  0
  189.1420  174.3800  147.7380 O   0  0  0  0  0  1  0  0  0  0  0  0
  189.0080  176.6580  147.0240 C   0  0  0  0  0  2  0  0  0  0  0  0
  192.9700  173.5130  144.8130 C   0  0  0  0  0  1  0  0  0  0  0  0
  187.1790  178.3090  147.4720 C   0  0  0  0  0  2  0  0  0  0  0  0
  186.4460  176.9840  147.3040 C   0  0  1  0  0  3  0  0  0  0  0  0
  191.7410  175.5430  143.8620 C   0  0  1  0  0  3  0  0  0  0  0  0
  191.6970  175.0820  146.2450 C   0  0  2  0  0  3  0  0  0  0  0  0
  190.2970  174.8680  145.6840 C   0  0  2  0  0  3  0  0  0  0  0  0
  191.8080  176.3450  146.8050 F   0  0  0  0  0  0  0  0  0  0  0  0
  188.2900  176.8350  144.1400 C   0  0  0  0  0  0  0  0  0  0  0  0
  187.6510  177.8100  145.0630 C   0  0  0  0  0  2  0  0  0  0  0  0
  185.1720  177.1660  146.5240 C   0  0  0  0  0  0  0  0  0  0  0  0
  184.8380  176.3350  145.6920 O   0  0  0  0  0  0  0  0  0  0  0  0
  184.0110  178.9590  145.3940 N   0  0  0  0  0  1  0  0  0  0  0  0
  184.3600  178.4100  146.6930 C   0  0  0  0  0  2  0  0  0  0  0  0
  192.0140  174.9480  142.4820 C   0  0  0  0  0  2  0  0  0  0  0  0
  190.7340  174.4280  141.8400 C   0  0  0  0  0  2  0  0  0  0  0  0
  190.7920  172.9140  141.6330 C   0  0  1  0  0  0  0  0  0  0  0  0
  188.3020  172.8340  141.9970 C   0  0  0  0  0  1  0  0  0  0  0  0
  192.0200  172.3040  140.9880 C   0  0  0  0  0  1  0  0  0  0  0  0
  190.4670  172.2360  142.8200 O   0  0  0  0  0  0  0  0  0  0  0  0
  189.5810  172.0550  141.7350 C   0  0  2  0  0  3  0  0  0  0  0  0
  1 17  2  0  0  0  0
  2  4  1  1  0  0  0
  2 15  1  0  0  0  0
  3  9  1  0  0  0  0
  3  8  1  1  0  0  0
  5 18  1  6  0  0  0
  5  9  1  0  0  0  0
  5 12  1  0  0  0  0
  5 11  1  0  0  0  0
  7 10  1  6  0  0  0
  7  6  1  0  0  0  0
  7 14  1  0  0  0  0
 12 19  1  6  0  0  0
 12 11  1  0  0  0  0
 13 23  1  6  0  0  0
 13  2  1  0  0  0  0
 13  7  1  0  0  0  0
 14 16  1  6  0  0  0
 15 14  1  0  0  0  0
 15  3  1  0  0  0  0
 17  4  1  0  0  0  0
 17 18  1  0  0  0  0
 19 22  1  0  0  0  0
 20 19  2  0  0  0  0
 21 22  1  0  0  0  0
 24 23  1  0  0  0  0
 25 29  1  0  0  0  0
 25 24  1  0  0  0  0
 25 28  1  0  0  0  0
 27 25  1  0  0  0  0
 29 26  1  0  0  0  0
 29 28  1  0  0  0  0
M  END
>  <MODEL>
8

>  <REMARK>
 VINA RESULT:      -6.8      3.008      6.510
  Name = 
  5 active torsions:
  status: ('A' for Active; 'I' for Inactive)
    1  A    between atoms: C_10  and  C_15
    2  A    between atoms: C_11  and  C_18
    3  A    between atoms: C_11  and  C_19
    4  A    between atoms: C_15  and  C_21
    5  A    between atoms: C_20  and  C_21
                            x       y       z     vdW  Elec       q    Type
                         _______ _______ _______ _____ _____    ______ ____

>  <TORSDO>
F 5

$$$$
=
 OpenBabel11062422553D

 29 32  0  0  1  0  0  0  0  0999 V2000
  193.2080  175.1100  142.5250 O   0  0  0  0  0  0  0  0  0  0  0  0
  191.4200  175.5860  144.7480 C   0  0  1  0  0  3  0  0  0  0  0  0
  193.6900  176.2300  145.9360 C   0  0  1  0  0  3  0  0  0  0  0  0
  192.0740  174.3760  144.3950 O   0  0  0  0  0  0  0  0  0  0  0  0
  195.0790  174.3000  145.1240 C   0  0  2  0  0  0  0  0  0  0  0  0
  189.2410  175.0170  147.5680 O   0  0  0  0  0  1  0  0  0  0  0  0
  189.9520  175.8660  146.7170 C   0  0  2  0  0  0  0  0  0  0  0  0
  194.1850  177.1740  146.8350 O   0  0  0  0  0  1  0  0  0  0  0  0
  194.2480  174.8500  146.2820 C   0  0  0  0  0  2  0  0  0  0  0  0
  189.2920  177.2420  146.7170 C   0  0  0  0  0  1  0  0  0  0  0  0
  196.2370  173.4730  145.6290 C   0  0  0  0  0  2  0  0  0  0  0  0
  196.5080  174.8350  145.0010 C   0  0  1  0  0  3  0  0  0  0  0  0
  190.0510  175.2450  145.3130 C   0  0  1  0  0  3  0  0  0  0  0  0
  191.3940  176.0170  147.1820 C   0  0  2  0  0  3  0  0  0  0  0  0
  192.1520  176.3010  145.8910 C   0  0  2  0  0  3  0  0  0  0  0  0
  191.8360  174.8340  147.7530 F   0  0  0  0  0  0  0  0  0  0  0  0
  193.1760  174.3710  143.5450 C   0  0  0  0  0  0  0  0  0  0  0  0
  194.3800  173.5990  143.9510 C   0  0  0  0  0  2  0  0  0  0  0  0
  197.1030  174.6870  143.6270 C   0  0  0  0  0  0  0  0  0  0  0  0
  197.7930  173.7140  143.3600 O   0  0  0  0  0  0  0  0  0  0  0  0
  196.8980  177.0680  143.2730 N   0  0  0  0  0  1  0  0  0  0  0  0
  196.9340  175.7730  142.6140 C   0  0  0  0  0  2  0  0  0  0  0  0
  188.9360  175.6210  144.3390 C   0  0  0  0  0  2  0  0  0  0  0  0
  189.4850  175.8900  142.9440 C   0  0  0  0  0  2  0  0  0  0  0  0
  188.5070  175.4280  141.8630 C   0  0  1  0  0  0  0  0  0  0  0  0
  187.9310  177.8420  141.4420 C   0  0  0  0  0  1  0  0  0  0  0  0
  188.6190  174.0170  141.3230 C   0  0  0  0  0  1  0  0  0  0  0  0
  187.1820  175.7130  142.2340 O   0  0  0  0  0  0  0  0  0  0  0  0
  187.6700  176.3860  141.0920 C   0  0  2  0  0  3  0  0  0  0  0  0
  1 17  2  0  0  0  0
  2  4  1  1  0  0  0
  2 13  1  0  0  0  0
  2 15  1  0  0  0  0
  3  9  1  0  0  0  0
  3  8  1  1  0  0  0
  5 18  1  6  0  0  0
  5 11  1  0  0  0  0
  5  9  1  0  0  0  0
  7 10  1  6  0  0  0
  7 14  1  0  0  0  0
  7  6  1  0  0  0  0
 12 19  1  6  0  0  0
 12  5  1  0  0  0  0
 12 11  1  0  0  0  0
 13 23  1  6  0  0  0
 13  7  1  0  0  0  0
 14 16  1  6  0  0  0
 15  3  1  0  0  0  0
 15 14  1  0  0  0  0
 17 18  1  0  0  0  0
 17  4  1  0  0  0  0
 20 19  2  0  0  0  0
 22 21  1  0  0  0  0
 22 19  1  0  0  0  0
 24 23  1  0  0  0  0
 25 28  1  0  0  0  0
 25 24  1  0  0  0  0
 27 25  1  0  0  0  0
 29 26  1  0  0  0  0
 29 25  1  0  0  0  0
 29 28  1  0  0  0  0
M  END
>  <MODEL>
9

>  <REMARK>
 VINA RESULT:      -6.5      2.776      4.464
  Name = 
  5 active torsions:
  status: ('A' for Active; 'I' for Inactive)
    1  A    between atoms: C_10  and  C_15
    2  A    between atoms: C_11  and  C_18
    3  A    between atoms: C_11  and  C_19
    4  A    between atoms: C_15  and  C_21
    5  A    between atoms: C_20  and  C_21
                            x       y       z     vdW  Elec       q    Type
                         _______ _______ _______ _____ _____    ______ ____

>  <TORSDO>
F 5

$$$$
