=
 OpenBabel11062419153D

 54 57  0  0  1  0  0  0  0  0999 V2000
  194.2670  171.3090  144.5340 C   0  0  1  0  0  3  0  0  0  0  0  0
  194.2840  170.2990  145.6630 C   0  0  0  0  0  2  0  0  0  0  0  0
  193.8930  169.0440  145.1840 O   0  0  0  0  0  1  0  0  0  0  0  0
  195.3150  172.3760  144.7860 C   0  0  0  0  0  2  0  0  0  0  0  0
  195.0690  173.5260  143.9360 N   0  0  0  0  0  2  0  0  0  0  0  0
  195.8330  174.6430  144.4750 C   0  0  2  0  0  3  0  0  0  0  0  0
  196.0360  174.4540  145.8470 O   0  0  0  0  0  1  0  0  0  0  0  0
  195.1170  175.9690  144.2010 C   0  0  1  0  0  3  0  0  0  0  0  0
  196.0800  177.0770  143.7770 C   0  0  0  0  0  2  0  0  0  0  0  0
  197.3100  176.4830  143.1120 C   0  0  0  0  0  1  0  0  0  0  0  0
  193.9270  175.8330  143.2440 C   0  0  2  0  0  3  0  0  0  0  0  0
  193.7840  175.2620  141.0980 C   0  0  0  0  0  1  0  0  0  0  0  0
  194.2870  176.2470  141.9580 O   0  0  0  0  0  0  0  0  0  0  0  0
  192.7080  176.6150  143.7270 C   0  0  0  0  0  2  0  0  0  0  0  0
  192.5200  176.4740  145.2320 C   0  0  0  0  0  2  0  0  0  0  0  0
  192.8850  174.7040  146.8010 O   0  0  0  0  0  1  0  0  0  0  0  0
  192.2140  175.0280  145.6190 C   0  0  1  0  0  3  0  0  0  0  0  0
  190.7850  174.8590  145.8250 N   0  0  0  0  0  2  0  0  0  0  0  0
  190.6360  176.4010  147.5740 O   0  0  0  0  0  0  0  0  0  0  0  0
  190.0610  175.5600  146.8390 C   0  0  0  0  0  0  0  0  0  0  0  0
  188.5940  175.3490  146.9950 C   0  0  0  0  0  2  0  0  0  0  0  0
  188.1710  176.9050  145.0830 C   0  0  0  0  0  3  0  0  0  0  0  0
  186.6950  176.9720  146.9950 C   0  0  0  0  0  3  0  0  0  0  0  0
  185.5730  179.5850  144.4680 C   0  0  0  0  0  1  0  0  0  0  0  0
  187.7980  176.4230  146.3390 C   0  0  0  0  0  0  0  0  0  0  0  0
  187.4420  177.9320  144.4840 C   0  0  0  0  0  3  0  0  0  0  0  0
  186.3370  178.4940  145.1370 C   0  0  0  0  0  0  0  0  0  0  0  0
  184.8470  178.5610  147.0930 N   0  0  0  0  0  1  0  0  0  0  0  0
  185.9640  178.0140  146.4060 C   0  0  0  0  0  0  0  0  0  0  0  0
  194.5490  170.6130  143.2170 C   0  0  0  0  0  2  0  0  0  0  0  0
  191.6260  172.3190  137.8210 N   0  0  0  0  0  2  0  0  0  0  0  0
  192.6690  169.6270  138.7620 C   0  0  0  0  0  3  0  0  0  0  0  0
  192.0740  169.8380  137.5860 C   0  0  0  0  0  3  0  0  0  0  0  0
  191.0600  173.5850  137.3580 C   0  0  0  0  0  2  0  0  0  0  0  0
  189.9320  175.2550  142.2290 O   0  0  0  0  0  1  0  0  0  0  0  0
  189.5370  173.5650  137.4180 C   0  0  1  0  0  3  0  0  0  0  0  0
  187.5520  172.6150  142.6330 O   0  0  0  0  0  1  0  0  0  0  0  0
  189.3670  172.9250  139.7160 O   0  0  0  0  0  0  0  0  0  0  0  0
  193.5110  170.0280  141.0220 C   0  0  0  0  0  2  0  0  0  0  0  0
  188.6760  172.2690  141.8770 C   0  0  2  0  0  3  0  0  0  0  0  0
  193.4940  171.0030  142.1920 C   0  0  1  0  0  3  0  0  0  0  0  0
  192.9410  170.6850  139.7810 C   0  0  0  0  0  2  0  0  0  0  0  0
  189.8450  171.9810  142.8150 C   0  0  2  0  0  3  0  0  0  0  0  0
  192.1310  170.9940  142.8720 C   0  0  0  0  0  2  0  0  0  0  0  0
  191.5570  171.1130  137.0660 C   0  0  0  0  0  0  0  0  0  0  0  0
  191.0390  171.1250  135.9230 O   0  0  0  0  0  0  0  0  0  0  0  0
  190.8470  173.1030  142.6440 C   0  0  1  0  0  3  0  0  0  0  0  0
  189.0350  173.9300  138.8080 C   0  0  0  0  0  2  0  0  0  0  0  0
  191.1220  171.7440  142.0290 C   0  0  2  0  0  3  0  0  0  0  0  0
  189.0510  173.4320  140.9790 C   0  0  1  0  0  3  0  0  0  0  0  0
  190.2870  174.0620  141.6030 C   0  0  1  0  0  3  0  0  0  0  0  0
  189.5210  174.6040  135.2820 O   0  0  0  0  0  0  0  0  0  0  0  0
  188.9780  174.5050  136.4130 C   0  0  0  0  0  0  0  0  0  0  0  0
  187.8470  175.2580  136.6970 O   0  0  0  0  0  1  0  0  0  0  0  0
  1 30  1  6  0  0  0
  1  4  1  0  0  0  0
  1  2  1  0  0  0  0
  3  2  1  0  0  0  0
  5  6  1  0  0  0  0
  5  4  1  0  0  0  0
  6  7  1  1  0  0  0
  8  9  1  6  0  0  0
  8  6  1  0  0  0  0
 10  9  1  0  0  0  0
 11 14  1  1  0  0  0
 11  8  1  0  0  0  0
 12 13  1  0  0  0  0
 13 11  1  0  0  0  0
 14 15  1  0  0  0  0
 15 17  1  0  0  0  0
 17 18  1  0  0  0  0
 17 16  1  1  0  0  0
 18 20  1  0  0  0  0
 20 21  1  0  0  0  0
 20 19  2  0  0  0  0
 22 25  1  0  0  0  0
 24 27  1  0  0  0  0
 25 23  2  0  0  0  0
 25 21  1  0  0  0  0
 26 22  2  0  0  0  0
 26 27  1  0  0  0  0
 27 29  2  0  0  0  0
 29 23  1  0  0  0  0
 29 28  1  0  0  0  0
 32 42  1  0  0  0  0
 33 32  2  0  0  0  0
 34 36  1  0  0  0  0
 34 31  1  0  0  0  0
 36 53  1  6  0  0  0
 36 48  1  0  0  0  0
 38 50  1  0  0  0  0
 39 41  1  0  0  0  0
 40 37  1  1  0  0  0
 40 43  1  0  0  0  0
 41 44  1  0  0  0  0
 41 30  1  1  0  0  0
 42 39  1  0  0  0  0
 45 33  1  0  0  0  0
 45 31  1  0  0  0  0
 46 45  2  0  0  0  0
 47 43  1  0  0  0  0
 48 38  1  0  0  0  0
 49 47  1  0  0  0  0
 49 43  1  0  0  0  0
 49 44  1  0  0  0  0
 50 51  1  0  0  0  0
 50 40  1  0  0  0  0
 51 35  1  0  0  0  0
 51 47  1  0  0  0  0
 52 53  2  0  0  0  0
 53 54  1  0  0  0  0
M  END
>  <MODEL>
1

>  <REMARK>
 VINA RESULT:      -6.6      0.000      0.000
  Name = 
  17 active torsions:
  status: ('A' for Active; 'I' for Inactive)
    1  A    between atoms: C_3  and  C_5
    2  A    between atoms: C_3  and  C_33
    3  A    between atoms: C_3  and  C_49
    4  A    between atoms: O_10  and  C_49
    5  A    between atoms: C_13  and  C_18
    6  A    between atoms: N_14  and  C_46
    7  A    between atoms: C_15  and  C_21
    8  A    between atoms: C_15  and  C_23
    9  A    between atoms: C_15  and  C_24
   10  A    between atoms: C_21  and  N_51
   11  A    between atoms: C_24  and  C_26
   12  A    between atoms: C_31  and  C_37
   13  A    between atoms: C_31  and  C_46
   14  A    between atoms: C_33  and  N_51
   15  A    between atoms: C_35  and  C_39
   16  A    between atoms: C_36  and  C_39
   17  A    between atoms: C_37  and  C_49
                            x       y       z     vdW  Elec       q    Type
                         _______ _______ _______ _____ _____    ______ ____

>  <TORSDO>
F 17

$$$$
=
 OpenBabel11062419153D

 54 57  0  0  1  0  0  0  0  0999 V2000
  195.6450  174.1640  145.3040 C   0  0  1  0  0  3  0  0  0  0  0  0
  196.8890  173.7760  146.0760 C   0  0  0  0  0  2  0  0  0  0  0  0
  197.1890  172.4290  145.8460 O   0  0  0  0  0  1  0  0  0  0  0  0
  194.7880  175.0900  146.1470 C   0  0  0  0  0  2  0  0  0  0  0  0
  194.0910  176.0360  145.2960 N   0  0  0  0  0  2  0  0  0  0  0  0
  192.7960  176.3050  145.9060 C   0  0  2  0  0  3  0  0  0  0  0  0
  192.9830  176.9200  147.1490 O   0  0  0  0  0  1  0  0  0  0  0  0
  191.9870  175.0120  146.0470 C   0  0  1  0  0  3  0  0  0  0  0  0
  190.8540  175.1400  147.0640 C   0  0  0  0  0  2  0  0  0  0  0  0
  189.5830  174.5050  146.5250 C   0  0  0  0  0  1  0  0  0  0  0  0
  191.5050  174.4450  144.7060 C   0  0  2  0  0  3  0  0  0  0  0  0
  191.4210  172.2370  144.4540 C   0  0  0  0  0  1  0  0  0  0  0  0
  192.2780  173.3380  144.3400 O   0  0  0  0  0  0  0  0  0  0  0  0
  191.5300  175.4950  143.5970 C   0  0  0  0  0  2  0  0  0  0  0  0
  191.2470  174.8710  142.2370 C   0  0  0  0  0  2  0  0  0  0  0  0
  189.0110  174.0370  142.4210 O   0  0  0  0  0  1  0  0  0  0  0  0
  189.7820  175.0470  141.8400 C   0  0  1  0  0  3  0  0  0  0  0  0
  189.2930  176.3370  142.3000 N   0  0  0  0  0  2  0  0  0  0  0  0
  187.2580  176.2140  141.1600 O   0  0  0  0  0  0  0  0  0  0  0  0
  188.0300  176.8730  141.9010 C   0  0  0  0  0  0  0  0  0  0  0  0
  187.5810  178.1980  142.4130 C   0  0  0  0  0  2  0  0  0  0  0  0
  188.0070  177.6310  144.8110 C   0  0  0  0  0  3  0  0  0  0  0  0
  185.8590  178.5470  144.1890 C   0  0  0  0  0  3  0  0  0  0  0  0
  185.8760  177.8500  147.9290 C   0  0  0  0  0  1  0  0  0  0  0  0
  187.1450  178.1340  143.8350 C   0  0  0  0  0  0  0  0  0  0  0  0
  187.5850  177.5420  146.1380 C   0  0  0  0  0  3  0  0  0  0  0  0
  186.2950  177.9490  146.5020 C   0  0  0  0  0  0  0  0  0  0  0  0
  184.1090  178.8730  145.8560 N   0  0  0  0  0  1  0  0  0  0  0  0
  185.4230  178.4500  145.5180 C   0  0  0  0  0  0  0  0  0  0  0  0
  196.0350  174.8580  144.0140 C   0  0  0  0  0  2  0  0  0  0  0  0
  192.2630  173.5360  139.0550 N   0  0  0  0  0  2  0  0  0  0  0  0
  194.7370  175.2820  139.2720 C   0  0  0  0  0  3  0  0  0  0  0  0
  194.0360  175.1010  138.1510 C   0  0  0  0  0  3  0  0  0  0  0  0
  191.1040  172.6590  138.8970 C   0  0  0  0  0  2  0  0  0  0  0  0
  192.7040  169.3040  142.6360 O   0  0  0  0  0  1  0  0  0  0  0  0
  191.4680  171.3920  138.1330 C   0  0  1  0  0  3  0  0  0  0  0  0
  195.5450  168.3900  140.6630 O   0  0  0  0  0  1  0  0  0  0  0  0
  193.2970  170.7500  139.5330 O   0  0  0  0  0  0  0  0  0  0  0  0
  195.4990  175.0200  141.5800 C   0  0  0  0  0  2  0  0  0  0  0  0
  195.1710  169.7320  140.5490 C   0  0  2  0  0  3  0  0  0  0  0  0
  195.3690  174.1650  142.8340 C   0  0  1  0  0  3  0  0  0  0  0  0
  194.3970  174.6800  140.5960 C   0  0  0  0  0  2  0  0  0  0  0  0
  195.6830  170.5030  141.7630 C   0  0  2  0  0  3  0  0  0  0  0  0
  196.0360  172.8110  142.6270 C   0  0  0  0  0  2  0  0  0  0  0  0
  192.8270  174.2800  137.9790 C   0  0  0  0  0  0  0  0  0  0  0  0
  192.2890  174.2410  136.8470 O   0  0  0  0  0  0  0  0  0  0  0  0
  194.4770  170.8830  142.5970 C   0  0  1  0  0  3  0  0  0  0  0  0
  192.0510  170.3360  139.0620 C   0  0  0  0  0  2  0  0  0  0  0  0
  195.1720  171.9330  141.7490 C   0  0  2  0  0  3  0  0  0  0  0  0
  193.6570  169.8270  140.5190 C   0  0  1  0  0  3  0  0  0  0  0  0
  193.2420  170.3490  141.8860 C   0  0  1  0  0  3  0  0  0  0  0  0
  189.9840  171.2510  136.2820 O   0  0  0  0  0  0  0  0  0  0  0  0
  190.2680  170.8540  137.4430 C   0  0  0  0  0  0  0  0  0  0  0  0
  189.4670  169.8980  138.0520 O   0  0  0  0  0  1  0  0  0  0  0  0
  1 30  1  6  0  0  0
  1  2  1  0  0  0  0
  1  4  1  0  0  0  0
  3  2  1  0  0  0  0
  5  6  1  0  0  0  0
  5  4  1  0  0  0  0
  6  8  1  0  0  0  0
  6  7  1  1  0  0  0
  8  9  1  1  0  0  0
 10  9  1  0  0  0  0
 11 14  1  6  0  0  0
 11  8  1  0  0  0  0
 13 12  1  0  0  0  0
 13 11  1  0  0  0  0
 15 14  1  0  0  0  0
 17 15  1  0  0  0  0
 17 18  1  0  0  0  0
 17 16  1  1  0  0  0
 19 20  2  0  0  0  0
 20 18  1  0  0  0  0
 20 21  1  0  0  0  0
 21 25  1  0  0  0  0
 22 26  1  0  0  0  0
 23 29  2  0  0  0  0
 25 23  1  0  0  0  0
 25 22  2  0  0  0  0
 26 27  2  0  0  0  0
 27 24  1  0  0  0  0
 29 28  1  0  0  0  0
 29 27  1  0  0  0  0
 32 42  1  0  0  0  0
 33 32  2  0  0  0  0
 34 31  1  0  0  0  0
 36 53  1  1  0  0  0
 36 34  1  0  0  0  0
 36 48  1  0  0  0  0
 38 50  1  0  0  0  0
 39 41  1  0  0  0  0
 40 37  1  1  0  0  0
 40 43  1  0  0  0  0
 41 30  1  1  0  0  0
 42 39  1  0  0  0  0
 43 47  1  0  0  0  0
 44 41  1  0  0  0  0
 45 33  1  0  0  0  0
 45 31  1  0  0  0  0
 46 45  2  0  0  0  0
 48 38  1  0  0  0  0
 49 43  1  0  0  0  0
 49 47  1  0  0  0  0
 49 44  1  0  0  0  0
 50 40  1  0  0  0  0
 50 51  1  0  0  0  0
 51 47  1  0  0  0  0
 51 35  1  0  0  0  0
 52 53  2  0  0  0  0
 53 54  1  0  0  0  0
M  END
>  <MODEL>
2

>  <REMARK>
 VINA RESULT:      -6.6      2.079      4.625
  Name = 
  17 active torsions:
  status: ('A' for Active; 'I' for Inactive)
    1  A    between atoms: C_3  and  C_5
    2  A    between atoms: C_3  and  C_33
    3  A    between atoms: C_3  and  C_49
    4  A    between atoms: O_10  and  C_49
    5  A    between atoms: C_13  and  C_18
    6  A    between atoms: N_14  and  C_46
    7  A    between atoms: C_15  and  C_21
    8  A    between atoms: C_15  and  C_23
    9  A    between atoms: C_15  and  C_24
   10  A    between atoms: C_21  and  N_51
   11  A    between atoms: C_24  and  C_26
   12  A    between atoms: C_31  and  C_37
   13  A    between atoms: C_31  and  C_46
   14  A    between atoms: C_33  and  N_51
   15  A    between atoms: C_35  and  C_39
   16  A    between atoms: C_36  and  C_39
   17  A    between atoms: C_37  and  C_49
                            x       y       z     vdW  Elec       q    Type
                         _______ _______ _______ _____ _____    ______ ____

>  <TORSDO>
F 17

$$$$
=
 OpenBabel11062419153D

 54 57  0  0  1  0  0  0  0  0999 V2000
  191.3540  171.5070  141.2530 C   0  0  1  0  0  3  0  0  0  0  0  0
  191.9190  170.1560  141.6370 C   0  0  0  0  0  2  0  0  0  0  0  0
  190.8780  169.2810  141.9660 O   0  0  0  0  0  1  0  0  0  0  0  0
  191.4850  171.7110  139.7550 C   0  0  0  0  0  2  0  0  0  0  0  0
  190.1940  171.5430  139.1150 N   0  0  0  0  0  2  0  0  0  0  0  0
  190.0020  172.6690  138.2110 C   0  0  2  0  0  3  0  0  0  0  0  0
  188.6440  172.7920  137.8970 O   0  0  0  0  0  1  0  0  0  0  0  0
  190.8480  172.4950  136.9450 C   0  0  1  0  0  3  0  0  0  0  0  0
  190.0770  171.8140  135.8160 C   0  0  0  0  0  2  0  0  0  0  0  0
  190.6920  170.4630  135.4940 C   0  0  0  0  0  1  0  0  0  0  0  0
  191.5310  173.7890  136.4870 C   0  0  2  0  0  3  0  0  0  0  0  0
  190.6390  175.3950  135.2320 C   0  0  0  0  0  1  0  0  0  0  0  0
  191.1600  174.0960  135.1740 O   0  0  0  0  0  0  0  0  0  0  0  0
  193.0520  173.7070  136.5990 C   0  0  0  0  0  2  0  0  0  0  0  0
  193.5680  174.5420  137.7620 C   0  0  0  0  0  2  0  0  0  0  0  0
  195.8260  175.0720  137.1730 O   0  0  0  0  0  1  0  0  0  0  0  0
  195.0500  174.2780  138.0210 C   0  0  1  0  0  3  0  0  0  0  0  0
  195.3800  174.5970  139.4000 N   0  0  0  0  0  2  0  0  0  0  0  0
  194.8090  172.4980  140.2500 O   0  0  0  0  0  0  0  0  0  0  0  0
  195.2130  173.6670  140.4720 C   0  0  0  0  0  0  0  0  0  0  0  0
  195.5770  174.0520  141.8650 C   0  0  0  0  0  2  0  0  0  0  0  0
  193.3520  175.1930  141.8360 C   0  0  0  0  0  3  0  0  0  0  0  0
  194.8450  175.5880  143.6940 C   0  0  0  0  0  3  0  0  0  0  0  0
  191.6720  177.6260  144.1960 C   0  0  0  0  0  1  0  0  0  0  0  0
  194.5660  174.9540  142.4820 C   0  0  0  0  0  0  0  0  0  0  0  0
  192.4180  176.0630  142.4010 C   0  0  0  0  0  3  0  0  0  0  0  0
  192.6920  176.7080  143.6130 C   0  0  0  0  0  0  0  0  0  0  0  0
  194.2250  177.1120  145.4940 N   0  0  0  0  0  1  0  0  0  0  0  0
  193.9190  176.4740  144.2620 C   0  0  0  0  0  0  0  0  0  0  0  0
  189.8940  171.5880  141.6560 C   0  0  0  0  0  2  0  0  0  0  0  0
  189.0280  175.3790  146.7020 N   0  0  0  0  0  2  0  0  0  0  0  0
  191.5410  174.1050  145.5690 C   0  0  0  0  0  3  0  0  0  0  0  0
  191.5110  174.8830  146.6520 C   0  0  0  0  0  3  0  0  0  0  0  0
  187.8510  176.0550  147.2430 C   0  0  0  0  0  2  0  0  0  0  0  0
  185.5050  176.4660  142.5390 O   0  0  0  0  0  1  0  0  0  0  0  0
  187.8820  177.5480  146.9370 C   0  0  1  0  0  3  0  0  0  0  0  0
  188.0890  178.6580  141.3910 O   0  0  0  0  0  1  0  0  0  0  0  0
  188.1830  177.3330  144.5750 O   0  0  0  0  0  0  0  0  0  0  0  0
  190.8060  172.9350  143.5520 C   0  0  0  0  0  2  0  0  0  0  0  0
  188.5270  177.6540  142.2600 C   0  0  2  0  0  3  0  0  0  0  0  0
  189.6710  172.8040  142.5450 C   0  0  1  0  0  3  0  0  0  0  0  0
  190.3420  173.7160  144.7660 C   0  0  0  0  0  2  0  0  0  0  0  0
  188.6600  176.3430  141.4900 C   0  0  2  0  0  3  0  0  0  0  0  0
  189.5990  174.0430  141.6610 C   0  0  0  0  0  2  0  0  0  0  0  0
  190.3310  175.5210  147.2580 C   0  0  0  0  0  0  0  0  0  0  0  0
  190.4930  176.2120  148.2930 O   0  0  0  0  0  0  0  0  0  0  0  0
  187.5620  175.4210  141.9760 C   0  0  1  0  0  3  0  0  0  0  0  0
  187.3240  177.8400  145.5500 C   0  0  0  0  0  2  0  0  0  0  0  0
  188.9930  175.1970  142.4290 C   0  0  2  0  0  3  0  0  0  0  0  0
  187.5020  177.4660  143.3620 C   0  0  1  0  0  3  0  0  0  0  0  0
  186.7720  176.1710  143.0390 C   0  0  1  0  0  3  0  0  0  0  0  0
  187.5910  179.3290  148.4830 O   0  0  0  0  0  1  0  0  0  0  0  0
  187.1050  178.2910  147.9620 C   0  0  0  0  0  0  0  0  0  0  0  0
  185.8360  177.8690  148.3360 O   0  0  0  0  0  0  0  0  0  0  0  0
  1  4  1  6  0  0  0
  1  2  1  0  0  0  0
  1 30  1  0  0  0  0
  2  3  1  0  0  0  0
  5  4  1  0  0  0  0
  6  7  1  6  0  0  0
  6  5  1  0  0  0  0
  8  9  1  6  0  0  0
  8  6  1  0  0  0  0
 10  9  1  0  0  0  0
 11 14  1  6  0  0  0
 11  8  1  0  0  0  0
 13 12  1  0  0  0  0
 13 11  1  0  0  0  0
 14 15  1  0  0  0  0
 15 17  1  0  0  0  0
 17 16  1  6  0  0  0
 17 18  1  0  0  0  0
 18 20  1  0  0  0  0
 19 20  2  0  0  0  0
 20 21  1  0  0  0  0
 21 25  1  0  0  0  0
 22 26  2  0  0  0  0
 22 25  1  0  0  0  0
 23 29  1  0  0  0  0
 25 23  2  0  0  0  0
 26 27  1  0  0  0  0
 27 24  1  0  0  0  0
 27 29  2  0  0  0  0
 29 28  1  0  0  0  0
 31 34  1  0  0  0  0
 31 45  1  0  0  0  0
 32 33  2  0  0  0  0
 33 45  1  0  0  0  0
 35 51  1  0  0  0  0
 36 34  1  0  0  0  0
 36 53  1  1  0  0  0
 38 48  1  0  0  0  0
 39 42  1  0  0  0  0
 40 37  1  6  0  0  0
 40 50  1  0  0  0  0
 41 30  1  6  0  0  0
 41 39  1  0  0  0  0
 42 32  1  0  0  0  0
 43 47  1  0  0  0  0
 43 40  1  0  0  0  0
 43 49  1  0  0  0  0
 44 49  1  0  0  0  0
 44 41  1  0  0  0  0
 45 46  2  0  0  0  0
 47 49  1  0  0  0  0
 47 51  1  0  0  0  0
 48 36  1  0  0  0  0
 50 38  1  0  0  0  0
 51 50  1  0  0  0  0
 53 54  2  0  0  0  0
 53 52  1  0  0  0  0
M  END
>  <MODEL>
3

>  <REMARK>
 VINA RESULT:      -6.6      2.483      8.189
  Name = 
  17 active torsions:
  status: ('A' for Active; 'I' for Inactive)
    1  A    between atoms: C_3  and  C_5
    2  A    between atoms: C_3  and  C_33
    3  A    between atoms: C_3  and  C_49
    4  A    between atoms: O_10  and  C_49
    5  A    between atoms: C_13  and  C_18
    6  A    between atoms: N_14  and  C_46
    7  A    between atoms: C_15  and  C_21
    8  A    between atoms: C_15  and  C_23
    9  A    between atoms: C_15  and  C_24
   10  A    between atoms: C_21  and  N_51
   11  A    between atoms: C_24  and  C_26
   12  A    between atoms: C_31  and  C_37
   13  A    between atoms: C_31  and  C_46
   14  A    between atoms: C_33  and  N_51
   15  A    between atoms: C_35  and  C_39
   16  A    between atoms: C_36  and  C_39
   17  A    between atoms: C_37  and  C_49
                            x       y       z     vdW  Elec       q    Type
                         _______ _______ _______ _____ _____    ______ ____

>  <TORSDO>
F 17

$$$$
=
 OpenBabel11062419153D

 54 57  0  0  1  0  0  0  0  0999 V2000
  189.3350  173.0550  142.9330 C   0  0  1  0  0  3  0  0  0  0  0  0
  189.6800  173.1490  144.4050 C   0  0  0  0  0  2  0  0  0  0  0  0
  189.4360  171.9210  145.0300 O   0  0  0  0  0  1  0  0  0  0  0  0
  190.0200  174.1760  142.1740 C   0  0  0  0  0  2  0  0  0  0  0  0
  190.2910  175.2880  143.0660 N   0  0  0  0  0  2  0  0  0  0  0  0
  191.6660  175.7110  142.8360 C   0  0  2  0  0  3  0  0  0  0  0  0
  192.1430  175.1310  141.6560 O   0  0  0  0  0  1  0  0  0  0  0  0
  192.5520  175.3400  144.0300 C   0  0  1  0  0  3  0  0  0  0  0  0
  193.5980  174.2850  143.6760 C   0  0  0  0  0  2  0  0  0  0  0  0
  193.4170  173.0480  144.5390 C   0  0  0  0  0  1  0  0  0  0  0  0
  193.1650  176.5560  144.7340 C   0  0  2  0  0  3  0  0  0  0  0  0
  194.9930  177.4240  145.6600 C   0  0  0  0  0  1  0  0  0  0  0  0
  194.5610  176.4640  144.7360 O   0  0  0  0  0  0  0  0  0  0  0  0
  192.6450  176.7170  146.1610 C   0  0  0  0  0  2  0  0  0  0  0  0
  191.3930  175.8820  146.3910 C   0  0  0  0  0  2  0  0  0  0  0  0
  191.4530  177.0550  148.4770 O   0  0  0  0  0  1  0  0  0  0  0  0
  190.5980  176.3950  147.5910 C   0  0  1  0  0  3  0  0  0  0  0  0
  189.5700  177.3230  147.1490 N   0  0  0  0  0  2  0  0  0  0  0  0
  187.9410  175.6860  146.7940 O   0  0  0  0  0  0  0  0  0  0  0  0
  188.2680  176.8980  146.7400 C   0  0  0  0  0  0  0  0  0  0  0  0
  187.2540  177.8990  146.3030 C   0  0  0  0  0  2  0  0  0  0  0  0
  188.0670  177.7530  143.9430 C   0  0  0  0  0  3  0  0  0  0  0  0
  185.6900  177.9020  144.3550 C   0  0  0  0  0  3  0  0  0  0  0  0
  186.2930  177.7600  140.6010 C   0  0  0  0  0  1  0  0  0  0  0  0
  186.9990  177.8390  144.8380 C   0  0  0  0  0  0  0  0  0  0  0  0
  187.8270  177.7290  142.5680 C   0  0  0  0  0  3  0  0  0  0  0  0
  186.5180  177.7970  142.0750 C   0  0  0  0  0  0  0  0  0  0  0  0
  184.1010  177.9590  142.5060 N   0  0  0  0  0  1  0  0  0  0  0  0
  185.4410  177.8910  142.9760 C   0  0  0  0  0  0  0  0  0  0  0  0
  189.7830  171.7150  142.3840 C   0  0  0  0  0  2  0  0  0  0  0  0
  194.7990  173.4750  138.8740 N   0  0  0  0  0  2  0  0  0  0  0  0
  194.4460  171.1980  140.8520 C   0  0  0  0  0  3  0  0  0  0  0  0
  195.5730  171.4520  140.1850 C   0  0  0  0  0  3  0  0  0  0  0  0
  194.9890  174.5230  137.8730 C   0  0  0  0  0  2  0  0  0  0  0  0
  189.9360  174.4780  136.3690 O   0  0  0  0  0  1  0  0  0  0  0  0
  195.0220  173.9430  136.4640 C   0  0  1  0  0  3  0  0  0  0  0  0
  190.2900  171.1430  135.1230 O   0  0  0  0  0  1  0  0  0  0  0  0
  192.9480  172.7630  136.6100 O   0  0  0  0  0  0  0  0  0  0  0  0
  192.1100  171.3300  141.5610 C   0  0  0  0  0  2  0  0  0  0  0  0
  191.0390  171.4120  136.2710 C   0  0  2  0  0  3  0  0  0  0  0  0
  190.7500  171.9290  141.2270 C   0  0  1  0  0  3  0  0  0  0  0  0
  193.1960  172.0110  140.7520 C   0  0  0  0  0  2  0  0  0  0  0  0
  190.1280  171.3520  137.4940 C   0  0  2  0  0  3  0  0  0  0  0  0
  190.1690  171.2700  139.9830 C   0  0  0  0  0  2  0  0  0  0  0  0
  195.8140  172.5400  139.2240 C   0  0  0  0  0  0  0  0  0  0  0  0
  196.9510  172.6330  138.7010 O   0  0  0  0  0  0  0  0  0  0  0  0
  189.9770  172.7670  138.0150 C   0  0  1  0  0  3  0  0  0  0  0  0
  193.6170  173.7650  135.9070 C   0  0  0  0  0  2  0  0  0  0  0  0
  190.8730  171.7830  138.7450 C   0  0  2  0  0  3  0  0  0  0  0  0
  191.6220  172.8090  136.1710 C   0  0  1  0  0  3  0  0  0  0  0  0
  190.8000  173.6760  137.1130 C   0  0  1  0  0  3  0  0  0  0  0  0
  195.2370  175.4550  134.6440 O   0  0  0  0  0  0  0  0  0  0  0  0
  195.8140  174.8280  135.5710 C   0  0  0  0  0  0  0  0  0  0  0  0
  197.1790  174.9930  135.7610 O   0  0  0  0  0  1  0  0  0  0  0  0
  1  4  1  6  0  0  0
  1  2  1  0  0  0  0
  2  3  1  0  0  0  0
  4  5  1  0  0  0  0
  6  7  1  6  0  0  0
  6  5  1  0  0  0  0
  6  8  1  0  0  0  0
  8  9  1  6  0  0  0
  8 11  1  0  0  0  0
  9 10  1  0  0  0  0
 11 13  1  0  0  0  0
 11 14  1  1  0  0  0
 13 12  1  0  0  0  0
 14 15  1  0  0  0  0
 15 17  1  0  0  0  0
 17 16  1  1  0  0  0
 18 17  1  0  0  0  0
 20 19  2  0  0  0  0
 20 18  1  0  0  0  0
 21 20  1  0  0  0  0
 22 25  1  0  0  0  0
 23 25  2  0  0  0  0
 24 27  1  0  0  0  0
 25 21  1  0  0  0  0
 26 22  2  0  0  0  0
 27 26  1  0  0  0  0
 27 29  2  0  0  0  0
 28 29  1  0  0  0  0
 29 23  1  0  0  0  0
 30  1  1  0  0  0  0
 31 45  1  0  0  0  0
 33 32  2  0  0  0  0
 34 31  1  0  0  0  0
 35 51  1  0  0  0  0
 36 53  1  6  0  0  0
 36 34  1  0  0  0  0
 40 37  1  6  0  0  0
 40 43  1  0  0  0  0
 41 39  1  0  0  0  0
 41 30  1  1  0  0  0
 42 32  1  0  0  0  0
 42 39  1  0  0  0  0
 43 47  1  0  0  0  0
 43 49  1  0  0  0  0
 44 41  1  0  0  0  0
 45 33  1  0  0  0  0
 46 45  2  0  0  0  0
 47 49  1  0  0  0  0
 48 36  1  0  0  0  0
 48 38  1  0  0  0  0
 49 44  1  0  0  0  0
 50 40  1  0  0  0  0
 50 38  1  0  0  0  0
 50 51  1  0  0  0  0
 51 47  1  0  0  0  0
 52 53  2  0  0  0  0
 53 54  1  0  0  0  0
M  END
>  <MODEL>
4

>  <REMARK>
 VINA RESULT:      -6.5      2.643      4.564
  Name = 
  17 active torsions:
  status: ('A' for Active; 'I' for Inactive)
    1  A    between atoms: C_3  and  C_5
    2  A    between atoms: C_3  and  C_33
    3  A    between atoms: C_3  and  C_49
    4  A    between atoms: O_10  and  C_49
    5  A    between atoms: C_13  and  C_18
    6  A    between atoms: N_14  and  C_46
    7  A    between atoms: C_15  and  C_21
    8  A    between atoms: C_15  and  C_23
    9  A    between atoms: C_15  and  C_24
   10  A    between atoms: C_21  and  N_51
   11  A    between atoms: C_24  and  C_26
   12  A    between atoms: C_31  and  C_37
   13  A    between atoms: C_31  and  C_46
   14  A    between atoms: C_33  and  N_51
   15  A    between atoms: C_35  and  C_39
   16  A    between atoms: C_36  and  C_39
   17  A    between atoms: C_37  and  C_49
                            x       y       z     vdW  Elec       q    Type
                         _______ _______ _______ _____ _____    ______ ____

>  <TORSDO>
F 17

$$$$
=
 OpenBabel11062419153D

 54 57  0  0  1  0  0  0  0  0999 V2000
  190.7050  171.5680  141.1780 C   0  0  1  0  0  3  0  0  0  0  0  0
  191.4000  170.2860  141.5860 C   0  0  0  0  0  2  0  0  0  0  0  0
  191.0240  169.2480  140.7270 O   0  0  0  0  0  1  0  0  0  0  0  0
  190.6090  171.6400  139.6650 C   0  0  0  0  0  2  0  0  0  0  0  0
  191.9310  171.8040  139.0900 N   0  0  0  0  0  2  0  0  0  0  0  0
  192.3650  173.1660  139.3670 C   0  0  2  0  0  3  0  0  0  0  0  0
  192.1340  173.9690  138.2440 O   0  0  0  0  0  1  0  0  0  0  0  0
  193.8440  173.1910  139.7670 C   0  0  1  0  0  3  0  0  0  0  0  0
  194.6890  174.0490  138.8270 C   0  0  0  0  0  2  0  0  0  0  0  0
  195.4250  173.1730  137.8280 C   0  0  0  0  0  1  0  0  0  0  0  0
  194.0700  173.5460  141.2420 C   0  0  2  0  0  3  0  0  0  0  0  0
  195.0600  171.5640  141.4410 C   0  0  0  0  0  1  0  0  0  0  0  0
  194.0880  172.3860  142.0240 O   0  0  0  0  0  0  0  0  0  0  0  0
  193.0150  174.5180  141.7670 C   0  0  0  0  0  2  0  0  0  0  0  0
  193.5230  175.9530  141.7410 C   0  0  0  0  0  2  0  0  0  0  0  0
  191.7870  176.9160  143.0780 O   0  0  0  0  0  1  0  0  0  0  0  0
  193.1650  176.6920  143.0290 C   0  0  1  0  0  3  0  0  0  0  0  0
  193.5550  175.8980  144.1830 N   0  0  0  0  0  2  0  0  0  0  0  0
  195.2490  177.3480  144.8790 O   0  0  0  0  0  0  0  0  0  0  0  0
  194.6240  176.2730  145.0550 C   0  0  0  0  0  0  0  0  0  0  0  0
  194.9710  175.4200  146.2270 C   0  0  0  0  0  2  0  0  0  0  0  0
  196.8430  173.8960  145.5730 C   0  0  0  0  0  3  0  0  0  0  0  0
  194.5920  173.0200  145.6490 C   0  0  0  0  0  3  0  0  0  0  0  0
  196.9640  170.2570  144.5470 C   0  0  0  0  0  1  0  0  0  0  0  0
  195.4810  174.0820  145.8190 C   0  0  0  0  0  0  0  0  0  0  0  0
  197.3150  172.6500  145.1600 C   0  0  0  0  0  3  0  0  0  0  0  0
  196.4290  171.5790  144.9820 C   0  0  0  0  0  0  0  0  0  0  0  0
  194.1330  170.7000  145.0520 N   0  0  0  0  0  1  0  0  0  0  0  0
  195.0560  171.7670  145.2220 C   0  0  0  0  0  0  0  0  0  0  0  0
  189.3160  171.6150  141.7830 C   0  0  0  0  0  2  0  0  0  0  0  0
  188.6810  175.6330  146.6860 N   0  0  0  0  0  2  0  0  0  0  0  0
  191.1160  174.1840  145.5930 C   0  0  0  0  0  3  0  0  0  0  0  0
  191.1330  175.0030  146.6470 C   0  0  0  0  0  3  0  0  0  0  0  0
  187.5450  176.3920  147.2050 C   0  0  0  0  0  2  0  0  0  0  0  0
  185.2000  176.7530  142.4970 O   0  0  0  0  0  1  0  0  0  0  0  0
  187.6540  177.8680  146.8430 C   0  0  1  0  0  3  0  0  0  0  0  0
  187.8920  178.7570  141.2590 O   0  0  0  0  0  1  0  0  0  0  0  0
  187.9310  177.5500  144.4900 O   0  0  0  0  0  0  0  0  0  0  0  0
  190.3080  172.9810  143.6240 C   0  0  0  0  0  2  0  0  0  0  0  0
  188.2800  177.7650  142.1630 C   0  0  2  0  0  3  0  0  0  0  0  0
  189.1630  172.8740  142.6260 C   0  0  1  0  0  3  0  0  0  0  0  0
  189.8940  173.8300  144.8100 C   0  0  0  0  0  2  0  0  0  0  0  0
  188.3380  176.4210  141.4420 C   0  0  2  0  0  3  0  0  0  0  0  0
  189.1520  174.0810  141.6960 C   0  0  0  0  0  2  0  0  0  0  0  0
  189.9930  175.7260  147.2320 C   0  0  0  0  0  0  0  0  0  0  0  0
  190.1970  176.4450  148.2400 O   0  0  0  0  0  0  0  0  0  0  0  0
  187.1940  175.5780  141.9660 C   0  0  1  0  0  3  0  0  0  0  0  0
  187.1060  178.1380  145.4490 C   0  0  0  0  0  2  0  0  0  0  0  0
  188.6130  175.2940  142.4230 C   0  0  2  0  0  3  0  0  0  0  0  0
  187.2520  177.6730  143.2750 C   0  0  1  0  0  3  0  0  0  0  0  0
  186.4510  176.4080  143.0030 C   0  0  1  0  0  3  0  0  0  0  0  0
  187.5550  179.2300  148.7880 O   0  0  0  0  0  1  0  0  0  0  0  0
  186.9240  178.6890  147.8420 C   0  0  0  0  0  0  0  0  0  0  0  0
  185.5550  178.8910  147.7330 O   0  0  0  0  0  0  0  0  0  0  0  0
  1  4  1  6  0  0  0
  1  2  1  0  0  0  0
  1 30  1  0  0  0  0
  3  2  1  0  0  0  0
  5  6  1  0  0  0  0
  5  4  1  0  0  0  0
  6  7  1  6  0  0  0
  6  8  1  0  0  0  0
  8  9  1  6  0  0  0
  8 11  1  0  0  0  0
 10  9  1  0  0  0  0
 11 14  1  1  0  0  0
 11 13  1  0  0  0  0
 12 13  1  0  0  0  0
 15 14  1  0  0  0  0
 15 17  1  0  0  0  0
 17 16  1  1  0  0  0
 17 18  1  0  0  0  0
 18 20  1  0  0  0  0
 19 20  2  0  0  0  0
 20 21  1  0  0  0  0
 22 25  1  0  0  0  0
 23 25  2  0  0  0  0
 24 27  1  0  0  0  0
 25 21  1  0  0  0  0
 26 22  2  0  0  0  0
 27 26  1  0  0  0  0
 27 29  2  0  0  0  0
 28 29  1  0  0  0  0
 29 23  1  0  0  0  0
 31 34  1  0  0  0  0
 31 45  1  0  0  0  0
 32 33  2  0  0  0  0
 33 45  1  0  0  0  0
 35 51  1  0  0  0  0
 36 34  1  0  0  0  0
 36 53  1  1  0  0  0
 38 48  1  0  0  0  0
 39 42  1  0  0  0  0
 40 37  1  6  0  0  0
 40 50  1  0  0  0  0
 41 30  1  6  0  0  0
 41 39  1  0  0  0  0
 42 32  1  0  0  0  0
 43 47  1  0  0  0  0
 43 40  1  0  0  0  0
 43 49  1  0  0  0  0
 44 49  1  0  0  0  0
 44 41  1  0  0  0  0
 45 46  2  0  0  0  0
 47 49  1  0  0  0  0
 47 51  1  0  0  0  0
 48 36  1  0  0  0  0
 50 38  1  0  0  0  0
 51 50  1  0  0  0  0
 53 52  1  0  0  0  0
 54 53  2  0  0  0  0
M  END
>  <MODEL>
5

>  <REMARK>
 VINA RESULT:      -6.5      2.489      7.880
  Name = 
  17 active torsions:
  status: ('A' for Active; 'I' for Inactive)
    1  A    between atoms: C_3  and  C_5
    2  A    between atoms: C_3  and  C_33
    3  A    between atoms: C_3  and  C_49
    4  A    between atoms: O_10  and  C_49
    5  A    between atoms: C_13  and  C_18
    6  A    between atoms: N_14  and  C_46
    7  A    between atoms: C_15  and  C_21
    8  A    between atoms: C_15  and  C_23
    9  A    between atoms: C_15  and  C_24
   10  A    between atoms: C_21  and  N_51
   11  A    between atoms: C_24  and  C_26
   12  A    between atoms: C_31  and  C_37
   13  A    between atoms: C_31  and  C_46
   14  A    between atoms: C_33  and  N_51
   15  A    between atoms: C_35  and  C_39
   16  A    between atoms: C_36  and  C_39
   17  A    between atoms: C_37  and  C_49
                            x       y       z     vdW  Elec       q    Type
                         _______ _______ _______ _____ _____    ______ ____

>  <TORSDO>
F 17

$$$$
=
 OpenBabel11062419153D

 54 57  0  0  1  0  0  0  0  0999 V2000
  194.7700  176.0200  143.1140 C   0  0  1  0  0  3  0  0  0  0  0  0
  195.5310  176.1800  144.4140 C   0  0  0  0  0  2  0  0  0  0  0  0
  194.6720  176.6550  145.4110 O   0  0  0  0  0  1  0  0  0  0  0  0
  195.7480  175.9310  141.9570 C   0  0  0  0  0  2  0  0  0  0  0  0
  195.0280  175.9310  140.6970 N   0  0  0  0  0  2  0  0  0  0  0  0
  195.6140  174.8960  139.8560 C   0  0  2  0  0  3  0  0  0  0  0  0
  196.6180  175.4540  139.0570 O   0  0  0  0  0  1  0  0  0  0  0  0
  194.5380  174.2220  138.9990 C   0  0  1  0  0  3  0  0  0  0  0  0
  194.6710  174.5660  137.5170 C   0  0  0  0  0  2  0  0  0  0  0  0
  193.6900  175.6620  137.1360 C   0  0  0  0  0  1  0  0  0  0  0  0
  194.4240  172.7120  139.2390 C   0  0  2  0  0  3  0  0  0  0  0  0
  194.3090  170.6910  138.3160 C   0  0  0  0  0  1  0  0  0  0  0  0
  194.7060  172.0100  138.0630 O   0  0  0  0  0  0  0  0  0  0  0  0
  193.0480  172.3170  139.7710 C   0  0  0  0  0  2  0  0  0  0  0  0
  193.1530  171.6390  141.1300 C   0  0  0  0  0  2  0  0  0  0  0  0
  191.2990  171.2310  142.5880 O   0  0  0  0  0  1  0  0  0  0  0  0
  191.9210  170.7830  141.4200 C   0  0  1  0  0  3  0  0  0  0  0  0
  190.9780  170.8780  140.3170 N   0  0  0  0  0  2  0  0  0  0  0  0
  191.4080  168.7390  139.4830 O   0  0  0  0  0  0  0  0  0  0  0  0
  190.7880  169.8260  139.3690 C   0  0  0  0  0  0  0  0  0  0  0  0
  189.8000  169.9800  138.2640 C   0  0  0  0  0  2  0  0  0  0  0  0
  191.0130  171.5160  136.7070 C   0  0  0  0  0  3  0  0  0  0  0  0
  189.0030  172.3010  137.7950 C   0  0  0  0  0  3  0  0  0  0  0  0
  190.4030  175.0860  135.6140 C   0  0  0  0  0  1  0  0  0  0  0  0
  189.9370  171.2880  137.5660 C   0  0  0  0  0  0  0  0  0  0  0  0
  191.1560  172.7540  136.0780 C   0  0  0  0  0  3  0  0  0  0  0  0
  190.2280  173.7780  136.3070 C   0  0  0  0  0  0  0  0  0  0  0  0
  188.1870  174.5700  137.4280 N   0  0  0  0  0  1  0  0  0  0  0  0
  189.1460  173.5510  137.1780 C   0  0  0  0  0  0  0  0  0  0  0  0
  193.9210  174.7650  143.1670 C   0  0  0  0  0  2  0  0  0  0  0  0
  188.1000  177.2550  142.4690 N   0  0  0  0  0  2  0  0  0  0  0  0
  189.4280  174.8770  141.1280 C   0  0  0  0  0  3  0  0  0  0  0  0
  188.1850  175.2910  140.8740 C   0  0  0  0  0  3  0  0  0  0  0  0
  187.4060  178.3570  143.1340 C   0  0  0  0  0  2  0  0  0  0  0  0
  190.0700  177.7610  147.6440 O   0  0  0  0  0  1  0  0  0  0  0  0
  186.3650  177.8410  144.1190 C   0  0  1  0  0  3  0  0  0  0  0  0
  188.5870  174.5450  148.1480 O   0  0  0  0  0  1  0  0  0  0  0  0
  187.8390  176.4150  145.3470 O   0  0  0  0  0  0  0  0  0  0  0  0
  191.6240  174.6970  142.1860 C   0  0  0  0  0  2  0  0  0  0  0  0
  188.8460  174.8570  146.8110 C   0  0  2  0  0  3  0  0  0  0  0  0
  192.4600  175.1400  143.3790 C   0  0  1  0  0  3  0  0  0  0  0  0
  190.3660  175.5360  142.0860 C   0  0  0  0  0  2  0  0  0  0  0  0
  190.3290  174.6390  146.5200 C   0  0  2  0  0  3  0  0  0  0  0  0
  191.9680  174.4650  144.6540 C   0  0  0  0  0  2  0  0  0  0  0  0
  187.4870  176.4370  141.4770 C   0  0  0  0  0  0  0  0  0  0  0  0
  186.3160  176.6870  141.1010 O   0  0  0  0  0  0  0  0  0  0  0  0
  190.9530  176.0030  146.3120 C   0  0  1  0  0  3  0  0  0  0  0  0
  186.9930  177.5170  145.4680 C   0  0  0  0  0  2  0  0  0  0  0  0
  190.6790  175.1070  145.1190 C   0  0  2  0  0  3  0  0  0  0  0  0
  188.5150  176.3170  146.5660 C   0  0  1  0  0  3  0  0  0  0  0  0
  189.8500  177.0400  146.4710 C   0  0  1  0  0  3  0  0  0  0  0  0
  184.1140  178.4720  144.5450 O   0  0  0  0  0  1  0  0  0  0  0  0
  185.2880  178.8500  144.2920 C   0  0  0  0  0  0  0  0  0  0  0  0
  185.5640  180.2070  144.2030 O   0  0  0  0  0  0  0  0  0  0  0  0
  1  4  1  6  0  0  0
  1 30  1  0  0  0  0
  1  2  1  0  0  0  0
  2  3  1  0  0  0  0
  5  4  1  0  0  0  0
  6  7  1  6  0  0  0
  6  5  1  0  0  0  0
  8  9  1  6  0  0  0
  8 11  1  0  0  0  0
  8  6  1  0  0  0  0
 10  9  1  0  0  0  0
 11 14  1  6  0  0  0
 13 12  1  0  0  0  0
 13 11  1  0  0  0  0
 14 15  1  0  0  0  0
 15 17  1  0  0  0  0
 17 16  1  1  0  0  0
 18 17  1  0  0  0  0
 20 19  2  0  0  0  0
 20 18  1  0  0  0  0
 21 20  1  0  0  0  0
 22 25  1  0  0  0  0
 24 27  1  0  0  0  0
 25 23  2  0  0  0  0
 25 21  1  0  0  0  0
 26 27  1  0  0  0  0
 26 22  2  0  0  0  0
 27 29  2  0  0  0  0
 29 28  1  0  0  0  0
 29 23  1  0  0  0  0
 31 34  1  0  0  0  0
 32 42  1  0  0  0  0
 33 32  2  0  0  0  0
 33 45  1  0  0  0  0
 34 36  1  0  0  0  0
 36 53  1  1  0  0  0
 36 48  1  0  0  0  0
 38 48  1  0  0  0  0
 38 50  1  0  0  0  0
 39 41  1  0  0  0  0
 40 37  1  1  0  0  0
 41 30  1  6  0  0  0
 41 44  1  0  0  0  0
 42 39  1  0  0  0  0
 43 40  1  0  0  0  0
 44 49  1  0  0  0  0
 45 31  1  0  0  0  0
 46 45  2  0  0  0  0
 47 51  1  0  0  0  0
 47 43  1  0  0  0  0
 49 47  1  0  0  0  0
 49 43  1  0  0  0  0
 50 40  1  0  0  0  0
 51 50  1  0  0  0  0
 51 35  1  0  0  0  0
 53 52  1  0  0  0  0
 54 53  2  0  0  0  0
M  END
>  <MODEL>
6

>  <REMARK>
 VINA RESULT:      -6.3      2.716      7.552
  Name = 
  17 active torsions:
  status: ('A' for Active; 'I' for Inactive)
    1  A    between atoms: C_3  and  C_5
    2  A    between atoms: C_3  and  C_33
    3  A    between atoms: C_3  and  C_49
    4  A    between atoms: O_10  and  C_49
    5  A    between atoms: C_13  and  C_18
    6  A    between atoms: N_14  and  C_46
    7  A    between atoms: C_15  and  C_21
    8  A    between atoms: C_15  and  C_23
    9  A    between atoms: C_15  and  C_24
   10  A    between atoms: C_21  and  N_51
   11  A    between atoms: C_24  and  C_26
   12  A    between atoms: C_31  and  C_37
   13  A    between atoms: C_31  and  C_46
   14  A    between atoms: C_33  and  N_51
   15  A    between atoms: C_35  and  C_39
   16  A    between atoms: C_36  and  C_39
   17  A    between atoms: C_37  and  C_49
                            x       y       z     vdW  Elec       q    Type
                         _______ _______ _______ _____ _____    ______ ____

>  <TORSDO>
F 17

$$$$
=
 OpenBabel11062419153D

 54 57  0  0  1  0  0  0  0  0999 V2000
  193.6730  176.5770  145.7550 C   0  0  1  0  0  3  0  0  0  0  0  0
  193.0740  175.5620  144.8040 C   0  0  0  0  0  2  0  0  0  0  0  0
  192.9280  176.1290  143.5330 O   0  0  0  0  0  1  0  0  0  0  0  0
  193.0350  176.4340  147.1240 C   0  0  0  0  0  2  0  0  0  0  0  0
  191.6110  176.1930  146.9870 N   0  0  0  0  0  2  0  0  0  0  0  0
  190.9270  177.4600  147.2080 C   0  0  2  0  0  3  0  0  0  0  0  0
  190.6730  177.6230  148.5740 O   0  0  0  0  0  1  0  0  0  0  0  0
  189.6310  177.5240  146.3940 C   0  0  1  0  0  3  0  0  0  0  0  0
  189.8430  177.1530  144.9270 C   0  0  0  0  0  2  0  0  0  0  0  0
  190.5410  178.2830  144.1910 C   0  0  0  0  0  1  0  0  0  0  0  0
  188.4730  176.7460  147.0310 C   0  0  2  0  0  3  0  0  0  0  0  0
  188.8870  174.6000  147.4420 C   0  0  0  0  0  1  0  0  0  0  0  0
  188.3780  175.4690  146.4690 O   0  0  0  0  0  0  0  0  0  0  0  0
  187.1420  177.4820  146.8930 C   0  0  0  0  0  2  0  0  0  0  0  0
  186.2500  176.8240  145.8490 C   0  0  0  0  0  2  0  0  0  0  0  0
  185.8230  179.0930  145.2180 O   0  0  0  0  0  1  0  0  0  0  0  0
  185.9150  177.7930  144.7160 C   0  0  1  0  0  3  0  0  0  0  0  0
  186.9560  177.7520  143.7010 N   0  0  0  0  0  2  0  0  0  0  0  0
  186.2680  175.7230  142.7700 O   0  0  0  0  0  0  0  0  0  0  0  0
  187.0900  176.6730  142.7730 C   0  0  0  0  0  0  0  0  0  0  0  0
  188.1740  176.6930  141.7500 C   0  0  0  0  0  2  0  0  0  0  0  0
  189.6260  174.7250  142.2710 C   0  0  0  0  0  3  0  0  0  0  0  0
  188.2310  174.6610  140.2990 C   0  0  0  0  0  3  0  0  0  0  0  0
  190.2250  171.4280  140.5150 C   0  0  0  0  0  1  0  0  0  0  0  0
  188.6800  175.3280  141.4400 C   0  0  0  0  0  0  0  0  0  0  0  0
  190.1230  173.4580  141.9620 C   0  0  0  0  0  3  0  0  0  0  0  0
  189.6830  172.7840  140.8150 C   0  0  0  0  0  0  0  0  0  0  0  0
  188.2660  172.7340  138.8050 N   0  0  0  0  0  1  0  0  0  0  0  0
  188.7340  173.3930  139.9730 C   0  0  0  0  0  0  0  0  0  0  0  0
  195.1700  176.3620  145.8610 C   0  0  0  0  0  2  0  0  0  0  0  0
  196.1610  172.6670  140.7670 N   0  0  0  0  0  2  0  0  0  0  0  0
  197.6200  175.1400  141.7540 C   0  0  0  0  0  3  0  0  0  0  0  0
  197.9410  174.4620  140.6500 C   0  0  0  0  0  3  0  0  0  0  0  0
  195.5210  171.4410  140.2920 C   0  0  0  0  0  2  0  0  0  0  0  0
  194.1860  169.8540  145.1390 O   0  0  0  0  0  1  0  0  0  0  0  0
  196.4020  170.2230  140.5440 C   0  0  1  0  0  3  0  0  0  0  0  0
  197.6350  169.4910  146.0190 O   0  0  0  0  0  1  0  0  0  0  0  0
  196.7200  170.6000  142.8830 O   0  0  0  0  0  0  0  0  0  0  0  0
  196.5220  175.7270  143.8580 C   0  0  0  0  0  2  0  0  0  0  0  0
  197.3690  170.5570  145.1550 C   0  0  2  0  0  3  0  0  0  0  0  0
  195.5910  175.2160  144.9500 C   0  0  1  0  0  3  0  0  0  0  0  0
  196.4760  174.8050  142.6560 C   0  0  0  0  0  2  0  0  0  0  0  0
  196.8110  171.7290  145.9570 C   0  0  2  0  0  3  0  0  0  0  0  0
  196.2920  174.1590  145.7950 C   0  0  0  0  0  2  0  0  0  0  0  0
  197.2730  173.2670  140.1120 C   0  0  0  0  0  0  0  0  0  0  0  0
  197.7080  172.7710  139.0450 O   0  0  0  0  0  0  0  0  0  0  0  0
  195.3500  171.8760  145.5840 C   0  0  1  0  0  3  0  0  0  0  0  0
  196.2140  169.6890  141.9570 C   0  0  0  0  0  2  0  0  0  0  0  0
  196.3720  172.8530  145.0350 C   0  0  2  0  0  3  0  0  0  0  0  0
  196.3280  170.1270  144.1380 C   0  0  1  0  0  3  0  0  0  0  0  0
  195.0290  170.7990  144.5570 C   0  0  1  0  0  3  0  0  0  0  0  0
  194.9070  169.0060  139.1550 O   0  0  0  0  0  1  0  0  0  0  0  0
  196.0910  169.1600  139.5540 C   0  0  0  0  0  0  0  0  0  0  0  0
  197.0950  168.3490  139.0430 O   0  0  0  0  0  0  0  0  0  0  0  0
  1  2  1  6  0  0  0
  1 30  1  0  0  0  0
  1  4  1  0  0  0  0
  3  2  1  0  0  0  0
  5  4  1  0  0  0  0
  5  6  1  0  0  0  0
  6  7  1  1  0  0  0
  8  9  1  6  0  0  0
  8 11  1  0  0  0  0
  8  6  1  0  0  0  0
 10  9  1  0  0  0  0
 11 14  1  6  0  0  0
 13 11  1  0  0  0  0
 13 12  1  0  0  0  0
 15 14  1  0  0  0  0
 17 16  1  1  0  0  0
 17 15  1  0  0  0  0
 18 17  1  0  0  0  0
 19 20  2  0  0  0  0
 20 18  1  0  0  0  0
 21 20  1  0  0  0  0
 23 25  1  0  0  0  0
 24 27  1  0  0  0  0
 25 21  1  0  0  0  0
 25 22  2  0  0  0  0
 26 22  1  0  0  0  0
 27 26  2  0  0  0  0
 28 29  1  0  0  0  0
 29 23  2  0  0  0  0
 29 27  1  0  0  0  0
 32 42  1  0  0  0  0
 33 32  2  0  0  0  0
 34 36  1  0  0  0  0
 34 31  1  0  0  0  0
 36 53  1  6  0  0  0
 36 48  1  0  0  0  0
 38 50  1  0  0  0  0
 39 41  1  0  0  0  0
 40 43  1  0  0  0  0
 40 37  1  1  0  0  0
 41 44  1  0  0  0  0
 41 30  1  1  0  0  0
 42 39  1  0  0  0  0
 45 33  1  0  0  0  0
 45 31  1  0  0  0  0
 46 45  2  0  0  0  0
 47 43  1  0  0  0  0
 48 38  1  0  0  0  0
 49 47  1  0  0  0  0
 49 44  1  0  0  0  0
 49 43  1  0  0  0  0
 50 51  1  0  0  0  0
 50 40  1  0  0  0  0
 51 35  1  0  0  0  0
 51 47  1  0  0  0  0
 52 53  1  0  0  0  0
 54 53  2  0  0  0  0
M  END
>  <MODEL>
7

>  <REMARK>
 VINA RESULT:      -6.3      2.837      7.293
  Name = 
  17 active torsions:
  status: ('A' for Active; 'I' for Inactive)
    1  A    between atoms: C_3  and  C_5
    2  A    between atoms: C_3  and  C_33
    3  A    between atoms: C_3  and  C_49
    4  A    between atoms: O_10  and  C_49
    5  A    between atoms: C_13  and  C_18
    6  A    between atoms: N_14  and  C_46
    7  A    between atoms: C_15  and  C_21
    8  A    between atoms: C_15  and  C_23
    9  A    between atoms: C_15  and  C_24
   10  A    between atoms: C_21  and  N_51
   11  A    between atoms: C_24  and  C_26
   12  A    between atoms: C_31  and  C_37
   13  A    between atoms: C_31  and  C_46
   14  A    between atoms: C_33  and  N_51
   15  A    between atoms: C_35  and  C_39
   16  A    between atoms: C_36  and  C_39
   17  A    between atoms: C_37  and  C_49
                            x       y       z     vdW  Elec       q    Type
                         _______ _______ _______ _____ _____    ______ ____

>  <TORSDO>
F 17

$$$$
=
 OpenBabel11062419153D

 54 57  0  0  1  0  0  0  0  0999 V2000
  192.9900  172.5780  141.8810 C   0  0  1  0  0  3  0  0  0  0  0  0
  192.5800  172.1860  140.4770 C   0  0  0  0  0  2  0  0  0  0  0  0
  191.5490  171.2410  140.5300 O   0  0  0  0  0  1  0  0  0  0  0  0
  194.3360  171.9600  142.2120 C   0  0  0  0  0  2  0  0  0  0  0  0
  195.3860  172.9540  142.0800 N   0  0  0  0  0  2  0  0  0  0  0  0
  196.5020  172.3250  141.3880 C   0  0  2  0  0  3  0  0  0  0  0  0
  197.6110  172.2710  142.2390 O   0  0  0  0  0  1  0  0  0  0  0  0
  196.8330  173.0830  140.0980 C   0  0  1  0  0  3  0  0  0  0  0  0
  196.9220  172.1590  138.8840 C   0  0  0  0  0  2  0  0  0  0  0  0
  196.1170  170.8930  139.1210 C   0  0  0  0  0  1  0  0  0  0  0  0
  195.9190  174.2890  139.8480 C   0  0  2  0  0  3  0  0  0  0  0  0
  194.2760  175.1110  138.5950 C   0  0  0  0  0  1  0  0  0  0  0  0
  195.3470  174.2090  138.5740 O   0  0  0  0  0  0  0  0  0  0  0  0
  196.6600  175.6140  140.0120 C   0  0  0  0  0  2  0  0  0  0  0  0
  197.3100  175.7200  141.3840 C   0  0  0  0  0  2  0  0  0  0  0  0
  195.1470  176.6260  141.8610 O   0  0  0  0  0  1  0  0  0  0  0  0
  196.4570  176.5540  142.3390 C   0  0  1  0  0  3  0  0  0  0  0  0
  196.4450  175.9430  143.6580 N   0  0  0  0  0  2  0  0  0  0  0  0
  194.2350  176.5260  144.1450 O   0  0  0  0  0  0  0  0  0  0  0  0
  195.3060  175.9860  144.5210 C   0  0  0  0  0  0  0  0  0  0  0  0
  195.3520  175.3340  145.8600 C   0  0  0  0  0  2  0  0  0  0  0  0
  193.9670  173.2540  145.7560 C   0  0  0  0  0  3  0  0  0  0  0  0
  196.3750  173.0580  145.7280 C   0  0  0  0  0  3  0  0  0  0  0  0
  194.8440  169.5770  145.6010 C   0  0  0  0  0  1  0  0  0  0  0  0
  195.2280  173.8530  145.7690 C   0  0  0  0  0  0  0  0  0  0  0  0
  193.8520  171.8650  145.7020 C   0  0  0  0  0  3  0  0  0  0  0  0
  194.9980  171.0590  145.6670 C   0  0  0  0  0  0  0  0  0  0  0  0
  197.4510  170.8710  145.6500 N   0  0  0  0  0  1  0  0  0  0  0  0
  196.2700  171.6610  145.6870 C   0  0  0  0  0  0  0  0  0  0  0  0
  193.0780  174.0880  141.9880 C   0  0  0  0  0  2  0  0  0  0  0  0
  187.6960  177.4180  142.7130 N   0  0  0  0  0  2  0  0  0  0  0  0
  188.3340  175.0060  140.9830 C   0  0  0  0  0  3  0  0  0  0  0  0
  187.1450  175.6100  141.0280 C   0  0  0  0  0  3  0  0  0  0  0  0
  187.3350  178.5430  143.5740 C   0  0  0  0  0  2  0  0  0  0  0  0
  190.7450  177.1820  147.3580 O   0  0  0  0  0  1  0  0  0  0  0  0
  186.4510  178.0920  144.7310 C   0  0  1  0  0  3  0  0  0  0  0  0
  188.9160  174.1730  147.9870 O   0  0  0  0  0  1  0  0  0  0  0  0
  187.9070  176.3700  145.5270 O   0  0  0  0  0  0  0  0  0  0  0  0
  190.6470  174.4280  141.5270 C   0  0  0  0  0  2  0  0  0  0  0  0
  188.9400  174.5630  146.6460 C   0  0  2  0  0  3  0  0  0  0  0  0
  191.7690  174.6420  142.5340 C   0  0  1  0  0  3  0  0  0  0  0  0
  189.5400  175.4400  141.7510 C   0  0  0  0  0  2  0  0  0  0  0  0
  190.2790  174.1680  146.0290 C   0  0  2  0  0  3  0  0  0  0  0  0
  191.4510  173.9330  143.8440 C   0  0  0  0  0  2  0  0  0  0  0  0
  186.7730  176.7840  141.8330 C   0  0  0  0  0  0  0  0  0  0  0  0
  185.6040  177.2280  141.7350 O   0  0  0  0  0  0  0  0  0  0  0  0
  191.0510  175.4440  145.7680 C   0  0  1  0  0  3  0  0  0  0  0  0
  187.2860  177.5640  145.8900 C   0  0  0  0  0  2  0  0  0  0  0  0
  190.4010  174.7050  144.6140 C   0  0  2  0  0  3  0  0  0  0  0  0
  188.7970  176.0710  146.5620 C   0  0  1  0  0  3  0  0  0  0  0  0
  190.1790  176.6070  146.2220 C   0  0  1  0  0  3  0  0  0  0  0  0
  185.6070  179.5520  146.4050 O   0  0  0  0  0  1  0  0  0  0  0  0
  185.6030  179.2210  145.1900 C   0  0  0  0  0  0  0  0  0  0  0  0
  184.8220  179.9350  144.2910 O   0  0  0  0  0  0  0  0  0  0  0  0
  1  2  1  6  0  0  0
  1 30  1  0  0  0  0
  1  4  1  0  0  0  0
  2  3  1  0  0  0  0
  5  4  1  0  0  0  0
  6  5  1  0  0  0  0
  6  7  1  1  0  0  0
  8  9  1  6  0  0  0
  8  6  1  0  0  0  0
  9 10  1  0  0  0  0
 11 14  1  6  0  0  0
 11  8  1  0  0  0  0
 13 12  1  0  0  0  0
 13 11  1  0  0  0  0
 14 15  1  0  0  0  0
 15 17  1  0  0  0  0
 17 16  1  6  0  0  0
 17 18  1  0  0  0  0
 18 20  1  0  0  0  0
 19 20  2  0  0  0  0
 20 21  1  0  0  0  0
 22 25  1  0  0  0  0
 23 25  2  0  0  0  0
 24 27  1  0  0  0  0
 25 21  1  0  0  0  0
 26 22  2  0  0  0  0
 27 29  2  0  0  0  0
 27 26  1  0  0  0  0
 28 29  1  0  0  0  0
 29 23  1  0  0  0  0
 31 34  1  0  0  0  0
 32 33  2  0  0  0  0
 32 42  1  0  0  0  0
 33 45  1  0  0  0  0
 34 36  1  0  0  0  0
 36 53  1  1  0  0  0
 36 48  1  0  0  0  0
 38 48  1  0  0  0  0
 38 50  1  0  0  0  0
 39 42  1  0  0  0  0
 39 41  1  0  0  0  0
 40 37  1  1  0  0  0
 41 30  1  6  0  0  0
 41 44  1  0  0  0  0
 43 40  1  0  0  0  0
 44 49  1  0  0  0  0
 45 31  1  0  0  0  0
 46 45  2  0  0  0  0
 47 43  1  0  0  0  0
 47 51  1  0  0  0  0
 49 47  1  0  0  0  0
 49 43  1  0  0  0  0
 50 40  1  0  0  0  0
 51 50  1  0  0  0  0
 51 35  1  0  0  0  0
 53 52  1  0  0  0  0
 54 53  2  0  0  0  0
M  END
>  <MODEL>
8

>  <REMARK>
 VINA RESULT:      -6.3      2.950      7.285
  Name = 
  17 active torsions:
  status: ('A' for Active; 'I' for Inactive)
    1  A    between atoms: C_3  and  C_5
    2  A    between atoms: C_3  and  C_33
    3  A    between atoms: C_3  and  C_49
    4  A    between atoms: O_10  and  C_49
    5  A    between atoms: C_13  and  C_18
    6  A    between atoms: N_14  and  C_46
    7  A    between atoms: C_15  and  C_21
    8  A    between atoms: C_15  and  C_23
    9  A    between atoms: C_15  and  C_24
   10  A    between atoms: C_21  and  N_51
   11  A    between atoms: C_24  and  C_26
   12  A    between atoms: C_31  and  C_37
   13  A    between atoms: C_31  and  C_46
   14  A    between atoms: C_33  and  N_51
   15  A    between atoms: C_35  and  C_39
   16  A    between atoms: C_36  and  C_39
   17  A    between atoms: C_37  and  C_49
                            x       y       z     vdW  Elec       q    Type
                         _______ _______ _______ _____ _____    ______ ____

>  <TORSDO>
F 17

$$$$
=
 OpenBabel11062419153D

 54 57  0  0  1  0  0  0  0  0999 V2000
  195.3110  174.8080  143.4670 C   0  0  1  0  0  3  0  0  0  0  0  0
  196.1560  174.9150  144.7190 C   0  0  0  0  0  2  0  0  0  0  0  0
  195.3980  174.5480  145.8370 O   0  0  0  0  0  1  0  0  0  0  0  0
  194.4520  176.0500  143.3220 C   0  0  0  0  0  2  0  0  0  0  0  0
  193.0680  175.6740  143.1030 N   0  0  0  0  0  2  0  0  0  0  0  0
  192.3060  176.1040  144.2670 C   0  0  2  0  0  3  0  0  0  0  0  0
  193.0590  177.0200  145.0090 O   0  0  0  0  0  1  0  0  0  0  0  0
  191.9040  174.8990  145.1240 C   0  0  1  0  0  3  0  0  0  0  0  0
  192.0470  175.1720  146.6210 C   0  0  0  0  0  2  0  0  0  0  0  0
  190.8360  175.9290  147.1390 C   0  0  0  0  0  1  0  0  0  0  0  0
  190.5280  174.3270  144.7650 C   0  0  2  0  0  3  0  0  0  0  0  0
  189.6930  172.2870  145.0710 C   0  0  0  0  0  1  0  0  0  0  0  0
  190.6490  173.0010  144.3370 O   0  0  0  0  0  0  0  0  0  0  0  0
  189.8190  175.1610  143.7000 C   0  0  0  0  0  2  0  0  0  0  0  0
  189.5730  174.3520  142.4340 C   0  0  0  0  0  2  0  0  0  0  0  0
  188.9560  174.5050  140.1270 O   0  0  0  0  0  1  0  0  0  0  0  0
  188.9840  175.2220  141.3250 C   0  0  1  0  0  3  0  0  0  0  0  0
  187.6290  175.6190  141.6700 N   0  0  0  0  0  2  0  0  0  0  0  0
  188.0020  177.9100  141.4110 O   0  0  0  0  0  0  0  0  0  0  0  0
  187.2100  176.9850  141.7170 C   0  0  0  0  0  0  0  0  0  0  0  0
  185.8030  177.3270  142.0700 C   0  0  0  0  0  2  0  0  0  0  0  0
  184.5030  178.3300  143.9570 C   0  0  0  0  0  3  0  0  0  0  0  0
  186.6790  177.3810  144.4090 C   0  0  0  0  0  3  0  0  0  0  0  0
  185.2390  178.7810  147.6400 C   0  0  0  0  0  1  0  0  0  0  0  0
  185.6530  177.6770  143.5100 C   0  0  0  0  0  0  0  0  0  0  0  0
  184.3780  178.6850  145.3000 C   0  0  0  0  0  3  0  0  0  0  0  0
  185.4040  178.3970  146.2090 C   0  0  0  0  0  0  0  0  0  0  0  0
  187.6250  177.4370  146.6560 N   0  0  0  0  0  1  0  0  0  0  0  0
  186.5670  177.7450  145.7580 C   0  0  0  0  0  0  0  0  0  0  0  0
  196.2080  174.6600  142.2530 C   0  0  0  0  0  2  0  0  0  0  0  0
  192.7620  174.7080  136.8960 N   0  0  0  0  0  2  0  0  0  0  0  0
  195.7570  174.9220  137.3460 C   0  0  0  0  0  3  0  0  0  0  0  0
  195.1680  174.9530  136.1480 C   0  0  0  0  0  3  0  0  0  0  0  0
  191.3320  174.5500  136.6350 C   0  0  0  0  0  2  0  0  0  0  0  0
  190.5500  171.5100  140.8710 O   0  0  0  0  0  1  0  0  0  0  0  0
  191.0240  173.1740  136.0570 C   0  0  1  0  0  3  0  0  0  0  0  0
  192.6140  168.9460  139.4690 O   0  0  0  0  0  1  0  0  0  0  0  0
  192.0920  171.9110  137.7840 O   0  0  0  0  0  0  0  0  0  0  0  0
  196.0550  174.6790  139.7600 C   0  0  0  0  0  2  0  0  0  0  0  0
  193.0300  170.2480  139.1750 C   0  0  2  0  0  3  0  0  0  0  0  0
  195.3780  174.2340  141.0490 C   0  0  1  0  0  3  0  0  0  0  0  0
  195.0330  174.8090  138.6480 C   0  0  0  0  0  2  0  0  0  0  0  0
  193.7680  170.8250  140.3800 C   0  0  2  0  0  3  0  0  0  0  0  0
  195.2290  172.7180  141.0760 C   0  0  0  0  0  2  0  0  0  0  0  0
  193.7280  174.8650  135.8610 C   0  0  0  0  0  0  0  0  0  0  0  0
  193.3530  174.9280  134.6650 O   0  0  0  0  0  0  0  0  0  0  0  0
  192.8890  171.9060  140.9720 C   0  0  1  0  0  3  0  0  0  0  0  0
  190.8650  172.1350  137.1590 C   0  0  0  0  0  2  0  0  0  0  0  0
  194.1090  172.2870  140.1540 C   0  0  2  0  0  3  0  0  0  0  0  0
  191.8140  171.1100  138.8950 C   0  0  1  0  0  3  0  0  0  0  0  0
  191.6270  171.9850  140.1250 C   0  0  1  0  0  3  0  0  0  0  0  0
  189.1680  174.3250  135.1200 O   0  0  0  0  0  1  0  0  0  0  0  0
  189.7870  173.2350  135.2370 C   0  0  0  0  0  0  0  0  0  0  0  0
  189.3180  172.1090  134.5740 O   0  0  0  0  0  0  0  0  0  0  0  0
  1 30  1  6  0  0  0
  1  2  1  0  0  0  0
  2  3  1  0  0  0  0
  4  1  1  0  0  0  0
  5  4  1  0  0  0  0
  5  6  1  0  0  0  0
  6  7  1  1  0  0  0
  6  8  1  0  0  0  0
  8  9  1  1  0  0  0
  9 10  1  0  0  0  0
 11 14  1  6  0  0  0
 11  8  1  0  0  0  0
 13 11  1  0  0  0  0
 13 12  1  0  0  0  0
 15 14  1  0  0  0  0
 17 16  1  6  0  0  0
 17 18  1  0  0  0  0
 17 15  1  0  0  0  0
 18 20  1  0  0  0  0
 19 20  2  0  0  0  0
 20 21  1  0  0  0  0
 21 25  1  0  0  0  0
 22 26  1  0  0  0  0
 23 29  2  0  0  0  0
 25 22  2  0  0  0  0
 25 23  1  0  0  0  0
 26 27  2  0  0  0  0
 27 24  1  0  0  0  0
 29 27  1  0  0  0  0
 29 28  1  0  0  0  0
 32 42  1  0  0  0  0
 33 32  2  0  0  0  0
 34 31  1  0  0  0  0
 36 53  1  1  0  0  0
 36 34  1  0  0  0  0
 36 48  1  0  0  0  0
 38 50  1  0  0  0  0
 39 41  1  0  0  0  0
 40 37  1  1  0  0  0
 40 43  1  0  0  0  0
 41 44  1  0  0  0  0
 41 30  1  1  0  0  0
 42 39  1  0  0  0  0
 43 47  1  0  0  0  0
 45 33  1  0  0  0  0
 45 31  1  0  0  0  0
 46 45  2  0  0  0  0
 48 38  1  0  0  0  0
 49 43  1  0  0  0  0
 49 47  1  0  0  0  0
 49 44  1  0  0  0  0
 50 40  1  0  0  0  0
 50 51  1  0  0  0  0
 51 35  1  0  0  0  0
 51 47  1  0  0  0  0
 52 53  1  0  0  0  0
 54 53  2  0  0  0  0
M  END
>  <MODEL>
9

>  <REMARK>
 VINA RESULT:      -6.3      2.348      4.508
  Name = 
  17 active torsions:
  status: ('A' for Active; 'I' for Inactive)
    1  A    between atoms: C_3  and  C_5
    2  A    between atoms: C_3  and  C_33
    3  A    between atoms: C_3  and  C_49
    4  A    between atoms: O_10  and  C_49
    5  A    between atoms: C_13  and  C_18
    6  A    between atoms: N_14  and  C_46
    7  A    between atoms: C_15  and  C_21
    8  A    between atoms: C_15  and  C_23
    9  A    between atoms: C_15  and  C_24
   10  A    between atoms: C_21  and  N_51
   11  A    between atoms: C_24  and  C_26
   12  A    between atoms: C_31  and  C_37
   13  A    between atoms: C_31  and  C_46
   14  A    between atoms: C_33  and  N_51
   15  A    between atoms: C_35  and  C_39
   16  A    between atoms: C_36  and  C_39
   17  A    between atoms: C_37  and  C_49
                            x       y       z     vdW  Elec       q    Type
                         _______ _______ _______ _____ _____    ______ ____

>  <TORSDO>
F 17

$$$$
