=
 OpenBabel11062419453D

 30 34  0  0  1  0  0  0  0  0999 V2000
  188.6080  174.5380  147.6390 O   0  0  0  0  0  0  0  0  0  0  0  0
  189.1600  175.4370  146.9480 C   0  0  0  0  0  0  0  0  0  0  0  0
  188.3400  176.5820  146.5010 C   0  0  0  0  0  0  0  0  0  0  0  0
  186.2810  178.6060  145.2490 C   0  0  1  0  0  3  0  0  0  0  0  0
  186.9220  176.5460  146.7080 N   0  0  0  0  0  2  0  0  0  0  0  0
  188.8770  177.5870  145.9650 O   0  0  0  0  0  0  0  0  0  0  0  0
  184.9260  179.2540  145.1640 C   0  0  0  0  0  3  0  0  0  0  0  0
  184.0940  178.5830  145.9480 C   0  0  0  0  0  3  0  0  0  0  0  0
  185.9810  177.5080  146.2180 C   0  0  0  0  0  0  0  0  0  0  0  0
  184.7490  177.5000  146.5960 N   0  0  0  0  0  0  0  0  0  0  0  0
  185.9830  176.7770  142.2170 C   0  0  1  0  0  3  0  0  0  0  0  0
  186.4050  179.0060  142.9060 C   0  0  0  0  0  2  0  0  0  0  0  0
  186.0740  178.1840  141.6910 C   0  0  0  0  0  2  0  0  0  0  0  0
  187.0280  176.0290  141.7060 F   0  0  0  0  0  0  0  0  0  0  0  0
  186.7540  178.0660  143.9620 N   0  0  2  0  0  0  0  0  0  0  0  0
  186.1040  176.8480  143.6660 N   0  0  0  0  0  2  0  0  0  0  0  0
  191.0950  174.4140  145.6610 C   0  0  0  0  0  3  0  0  0  0  0  0
  190.5960  175.2930  146.6210 C   0  0  0  0  0  0  0  0  0  0  0  0
  192.4900  174.4620  145.5330 C   0  0  0  0  0  3  0  0  0  0  0  0
  191.8870  176.1280  147.3120 S   0  0  0  0  0  0  0  0  0  0  0  0
  193.0710  175.3910  146.3850 C   0  0  0  0  0  0  0  0  0  0  0  0
  194.4720  175.6390  146.5380 N   0  0  0  0  0  2  0  0  0  0  0  0
  195.9360  176.6620  143.7480 C   0  0  0  0  0  3  0  0  0  0  0  0
  197.9390  175.2390  143.3020 C   0  0  0  0  0  3  0  0  0  0  0  0
  197.2910  173.8880  145.3430 N   0  0  0  0  0  2  0  0  0  0  0  0
  197.1920  176.5160  142.8630 C   0  0  0  0  0  3  0  0  0  0  0  0
  196.3490  174.1400  146.2130 O   0  0  0  0  0  0  0  0  0  0  0  0
  195.9000  175.3770  144.4720 C   0  0  0  0  0  0  0  0  0  0  0  0
  196.9970  174.6330  144.2610 C   0  0  0  0  0  0  0  0  0  0  0  0
  195.5160  175.0490  145.7540 C   0  0  0  0  0  0  0  0  0  0  0  0
  2  1  2  0  0  0  0
  3  5  1  0  0  0  0
  3  2  1  0  0  0  0
  4  7  1  6  0  0  0
  4  9  1  0  0  0  0
  6  3  2  0  0  0  0
  7  8  2  0  0  0  0
  8 10  1  0  0  0  0
  9 10  2  0  0  0  0
  9  5  1  0  0  0  0
 11 14  1  6  0  0  0
 11 16  1  0  0  0  0
 13 11  1  0  0  0  0
 13 12  1  0  0  0  0
 15 12  1  6  0  0  0
 15  4  1  0  0  0  0
 16 15  1  0  0  0  0
 17 18  2  0  0  0  0
 18  2  1  0  0  0  0
 18 20  1  0  0  0  0
 19 17  1  0  0  0  0
 19 21  2  0  0  0  0
 21 22  1  0  0  0  0
 21 20  1  0  0  0  0
 23 28  1  0  0  0  0
 24 29  2  0  0  0  0
 25 27  1  0  0  0  0
 26 24  1  0  0  0  0
 26 23  2  0  0  0  0
 28 30  2  0  0  0  0
 29 28  1  0  0  0  0
 29 25  1  0  0  0  0
 30 27  1  0  0  0  0
 30 22  1  0  0  0  0
M  END
>  <MODEL>
1

>  <REMARK>
 VINA RESULT:      -8.2      0.000      0.000
  Name = 
  5 active torsions:
  status: ('A' for Active; 'I' for Inactive)
    1  A    between atoms: C_2  and  C_28
    2  A    between atoms: C_3  and  N_25
    3  A    between atoms: C_8  and  C_28
    4  A    between atoms: C_21  and  N_22
    5  A    between atoms: N_22  and  C_30
                            x       y       z     vdW  Elec       q    Type
                         _______ _______ _______ _____ _____    ______ ____

>  <TORSDO>
F 5

$$$$
=
 OpenBabel11062419453D

 30 34  0  0  1  0  0  0  0  0999 V2000
  188.9430  174.5440  147.5340 O   0  0  0  0  0  0  0  0  0  0  0  0
  189.4080  175.5180  146.8820 C   0  0  0  0  0  0  0  0  0  0  0  0
  188.4910  176.6140  146.5080 C   0  0  0  0  0  0  0  0  0  0  0  0
  186.2460  178.5260  145.4090 C   0  0  1  0  0  3  0  0  0  0  0  0
  187.0890  176.4680  146.7650 N   0  0  0  0  0  2  0  0  0  0  0  0
  188.9340  177.6740  145.9910 O   0  0  0  0  0  0  0  0  0  0  0  0
  184.8460  179.0760  145.3980 C   0  0  0  0  0  3  0  0  0  0  0  0
  184.0960  178.3190  146.1860 C   0  0  0  0  0  3  0  0  0  0  0  0
  186.0640  177.3760  146.3470 C   0  0  0  0  0  0  0  0  0  0  0  0
  184.8510  177.2650  146.7680 N   0  0  0  0  0  0  0  0  0  0  0  0
  185.9350  176.8440  142.2940 C   0  0  1  0  0  3  0  0  0  0  0  0
  186.3050  179.0470  143.0870 C   0  0  0  0  0  2  0  0  0  0  0  0
  185.9710  178.2780  141.8390 C   0  0  0  0  0  2  0  0  0  0  0  0
  186.9890  176.1560  141.7230 F   0  0  0  0  0  0  0  0  0  0  0  0
  186.7050  178.0670  144.0860 N   0  0  2  0  0  0  0  0  0  0  0  0
  186.0850  176.8460  143.7420 N   0  0  0  0  0  2  0  0  0  0  0  0
  191.8470  176.0940  147.2910 C   0  0  0  0  0  3  0  0  0  0  0  0
  190.8440  175.5040  146.5240 C   0  0  0  0  0  0  0  0  0  0  0  0
  193.1290  175.9450  146.7430 C   0  0  0  0  0  3  0  0  0  0  0  0
  191.5480  174.7980  145.1640 S   0  0  0  0  0  0  0  0  0  0  0  0
  193.1190  175.2240  145.5560 C   0  0  0  0  0  0  0  0  0  0  0  0
  194.2500  174.9490  144.7240 N   0  0  0  0  0  2  0  0  0  0  0  0
  194.6450  171.7690  145.5660 C   0  0  0  0  0  3  0  0  0  0  0  0
  197.0840  171.2510  145.6930 C   0  0  0  0  0  3  0  0  0  0  0  0
  197.5130  173.6950  145.1900 N   0  0  0  0  0  2  0  0  0  0  0  0
  195.6730  170.6270  145.7080 C   0  0  0  0  0  3  0  0  0  0  0  0
  196.6470  174.6160  144.8600 O   0  0  0  0  0  0  0  0  0  0  0  0
  195.4820  172.9760  145.7070 C   0  0  0  0  0  0  0  0  0  0  0  0
  196.7940  172.6950  145.7350 C   0  0  0  0  0  0  0  0  0  0  0  0
  195.4180  174.2190  145.1150 C   0  0  0  0  0  0  0  0  0  0  0  0
  2  1  2  0  0  0  0
  3  5  1  0  0  0  0
  3  2  1  0  0  0  0
  4  7  1  6  0  0  0
  4  9  1  0  0  0  0
  6  3  2  0  0  0  0
  7  8  2  0  0  0  0
  8 10  1  0  0  0  0
  9  5  1  0  0  0  0
  9 10  2  0  0  0  0
 11 14  1  6  0  0  0
 11 16  1  0  0  0  0
 13 11  1  0  0  0  0
 13 12  1  0  0  0  0
 15 12  1  6  0  0  0
 15  4  1  0  0  0  0
 16 15  1  0  0  0  0
 18  2  1  0  0  0  0
 18 17  2  0  0  0  0
 19 17  1  0  0  0  0
 20 21  1  0  0  0  0
 20 18  1  0  0  0  0
 21 19  2  0  0  0  0
 22 30  1  0  0  0  0
 22 21  1  0  0  0  0
 23 28  1  0  0  0  0
 23 26  2  0  0  0  0
 24 26  1  0  0  0  0
 24 29  2  0  0  0  0
 25 29  1  0  0  0  0
 27 30  1  0  0  0  0
 27 25  1  0  0  0  0
 28 29  1  0  0  0  0
 30 28  2  0  0  0  0
M  END
>  <MODEL>
2

>  <REMARK>
 VINA RESULT:      -8.1      1.563      2.123
  Name = 
  5 active torsions:
  status: ('A' for Active; 'I' for Inactive)
    1  A    between atoms: C_2  and  C_28
    2  A    between atoms: C_3  and  N_25
    3  A    between atoms: C_8  and  C_28
    4  A    between atoms: C_21  and  N_22
    5  A    between atoms: N_22  and  C_30
                            x       y       z     vdW  Elec       q    Type
                         _______ _______ _______ _____ _____    ______ ____

>  <TORSDO>
F 5

$$$$
=
 OpenBabel11062419453D

 30 34  0  0  1  0  0  0  0  0999 V2000
  191.6170  176.7950  147.6800 O   0  0  0  0  0  0  0  0  0  0  0  0
  191.8180  176.5030  146.4700 C   0  0  0  0  0  0  0  0  0  0  0  0
  193.2090  176.2850  146.0220 C   0  0  0  0  0  0  0  0  0  0  0  0
  195.9510  175.3340  144.8060 C   0  0  1  0  0  3  0  0  0  0  0  0
  193.4720  176.1110  144.6240 N   0  0  0  0  0  2  0  0  0  0  0  0
  194.1570  176.2750  146.8520 O   0  0  0  0  0  0  0  0  0  0  0  0
  196.9140  175.1440  143.6670 C   0  0  0  0  0  3  0  0  0  0  0  0
  196.2800  175.4210  142.5360 C   0  0  0  0  0  3  0  0  0  0  0  0
  194.7360  175.7640  144.0490 C   0  0  0  0  0  0  0  0  0  0  0  0
  194.9320  175.8010  142.7750 N   0  0  0  0  0  0  0  0  0  0  0  0
  195.5510  171.8270  145.2200 C   0  0  1  0  0  3  0  0  0  0  0  0
  196.9670  173.5530  146.0160 C   0  0  0  0  0  2  0  0  0  0  0  0
  196.8340  172.0560  145.9730 C   0  0  0  0  0  2  0  0  0  0  0  0
  194.6070  171.2930  146.0770 F   0  0  0  0  0  0  0  0  0  0  0  0
  195.6940  174.0990  145.5680 N   0  0  2  0  0  0  0  0  0  0  0  0
  195.0920  173.1240  144.7430 N   0  0  0  0  0  2  0  0  0  0  0  0
  190.0420  175.1970  145.2080 C   0  0  0  0  0  3  0  0  0  0  0  0
  190.6500  176.3990  145.5670 C   0  0  0  0  0  0  0  0  0  0  0  0
  188.9520  175.3610  144.3420 C   0  0  0  0  0  3  0  0  0  0  0  0
  189.8340  177.6660  144.8090 S   0  0  0  0  0  0  0  0  0  0  0  0
  188.7050  176.6940  144.0430 C   0  0  0  0  0  0  0  0  0  0  0  0
  187.7050  177.1890  143.1480 N   0  0  0  0  0  2  0  0  0  0  0  0
  185.6740  176.8100  145.7380 C   0  0  0  0  0  3  0  0  0  0  0  0
  184.1080  178.7520  145.8440 C   0  0  0  0  0  3  0  0  0  0  0  0
  185.1760  179.5830  143.7040 N   0  0  0  0  0  2  0  0  0  0  0  0
  184.6040  177.5050  146.6060 C   0  0  0  0  0  3  0  0  0  0  0  0
  186.2230  179.1060  143.0860 O   0  0  0  0  0  0  0  0  0  0  0  0
  185.5750  177.5390  144.4580 C   0  0  0  0  0  0  0  0  0  0  0  0
  184.7630  178.6040  144.5320 C   0  0  0  0  0  0  0  0  0  0  0  0
  186.5230  177.9030  143.5270 C   0  0  0  0  0  0  0  0  0  0  0  0
  2  1  2  0  0  0  0
  3  2  1  0  0  0  0
  3  6  2  0  0  0  0
  4  7  1  6  0  0  0
  4 15  1  0  0  0  0
  5  3  1  0  0  0  0
  8 10  1  0  0  0  0
  8  7  2  0  0  0  0
  9  5  1  0  0  0  0
  9  4  1  0  0  0  0
 10  9  2  0  0  0  0
 11 13  1  0  0  0  0
 11 14  1  1  0  0  0
 13 12  1  0  0  0  0
 15 12  1  6  0  0  0
 16 11  1  0  0  0  0
 16 15  1  0  0  0  0
 17 18  2  0  0  0  0
 18  2  1  0  0  0  0
 19 17  1  0  0  0  0
 20 18  1  0  0  0  0
 21 19  2  0  0  0  0
 21 20  1  0  0  0  0
 22 30  1  0  0  0  0
 22 21  1  0  0  0  0
 23 26  2  0  0  0  0
 24 26  1  0  0  0  0
 25 29  1  0  0  0  0
 27 30  1  0  0  0  0
 27 25  1  0  0  0  0
 28 29  1  0  0  0  0
 28 23  1  0  0  0  0
 29 24  2  0  0  0  0
 30 28  2  0  0  0  0
M  END
>  <MODEL>
3

>  <REMARK>
 VINA RESULT:      -8.0      2.843      9.675
  Name = 
  5 active torsions:
  status: ('A' for Active; 'I' for Inactive)
    1  A    between atoms: C_2  and  C_28
    2  A    between atoms: C_3  and  N_25
    3  A    between atoms: C_8  and  C_28
    4  A    between atoms: C_21  and  N_22
    5  A    between atoms: N_22  and  C_30
                            x       y       z     vdW  Elec       q    Type
                         _______ _______ _______ _____ _____    ______ ____

>  <TORSDO>
F 5

$$$$
=
 OpenBabel11062419453D

 30 34  0  0  1  0  0  0  0  0999 V2000
  190.5910  174.6760  142.9960 O   0  0  0  0  0  0  0  0  0  0  0  0
  190.9850  175.3570  143.9820 C   0  0  0  0  0  0  0  0  0  0  0  0
  192.4240  175.6740  144.0860 C   0  0  0  0  0  0  0  0  0  0  0  0
  195.5610  175.8800  143.9470 C   0  0  1  0  0  3  0  0  0  0  0  0
  193.1820  175.8730  142.8860 N   0  0  0  0  0  2  0  0  0  0  0  0
  192.9760  175.7920  145.2120 O   0  0  0  0  0  0  0  0  0  0  0  0
  196.8480  176.2290  143.2520 C   0  0  0  0  0  3  0  0  0  0  0  0
  196.5730  176.5150  141.9870 C   0  0  0  0  0  3  0  0  0  0  0  0
  194.6010  176.0560  142.8140 C   0  0  0  0  0  0  0  0  0  0  0  0
  195.1820  176.4040  141.7190 N   0  0  0  0  0  0  0  0  0  0  0  0
  196.8990  172.6560  144.6110 C   0  0  1  0  0  3  0  0  0  0  0  0
  196.0390  174.5000  145.8270 C   0  0  0  0  0  2  0  0  0  0  0  0
  196.7890  173.2090  146.0060 C   0  0  0  0  0  2  0  0  0  0  0  0
  196.1330  171.5090  144.5120 F   0  0  0  0  0  0  0  0  0  0  0  0
  195.5290  174.5000  144.4630 N   0  0  2  0  0  0  0  0  0  0  0  0
  196.3770  173.6660  143.7020 N   0  0  0  0  0  2  0  0  0  0  0  0
  189.3550  174.9390  145.8830 C   0  0  0  0  0  3  0  0  0  0  0  0
  189.9840  175.7940  144.9800 C   0  0  0  0  0  0  0  0  0  0  0  0
  188.4470  175.5920  146.7290 C   0  0  0  0  0  3  0  0  0  0  0  0
  189.4130  177.3610  145.2300 S   0  0  0  0  0  0  0  0  0  0  0  0
  188.3850  176.9580  146.4900 C   0  0  0  0  0  0  0  0  0  0  0  0
  187.5190  177.8930  147.1400 N   0  0  0  0  0  2  0  0  0  0  0  0
  186.4210  178.8930  144.1790 C   0  0  0  0  0  3  0  0  0  0  0  0
  183.9240  178.9200  144.1950 C   0  0  0  0  0  3  0  0  0  0  0  0
  184.0470  178.2550  146.6350 N   0  0  0  0  0  2  0  0  0  0  0  0
  185.1680  179.0450  143.2900 C   0  0  0  0  0  3  0  0  0  0  0  0
  185.1020  177.9200  147.3280 O   0  0  0  0  0  0  0  0  0  0  0  0
  185.8560  178.9200  145.5410 C   0  0  0  0  0  0  0  0  0  0  0  0
  184.5140  178.8940  145.5450 C   0  0  0  0  0  0  0  0  0  0  0  0
  186.2070  178.2630  146.7000 C   0  0  0  0  0  0  0  0  0  0  0  0
  1  2  2  0  0  0  0
  2  3  1  0  0  0  0
  2 18  1  0  0  0  0
  3  6  2  0  0  0  0
  4  7  1  6  0  0  0
  4 15  1  0  0  0  0
  5  3  1  0  0  0  0
  8  7  2  0  0  0  0
  9  5  1  0  0  0  0
  9  4  1  0  0  0  0
 10  8  1  0  0  0  0
 10  9  2  0  0  0  0
 11 14  1  1  0  0  0
 11 13  1  0  0  0  0
 12 13  1  0  0  0  0
 15 12  1  1  0  0  0
 16 15  1  0  0  0  0
 16 11  1  0  0  0  0
 17 19  1  0  0  0  0
 18 20  1  0  0  0  0
 18 17  2  0  0  0  0
 20 21  1  0  0  0  0
 21 19  2  0  0  0  0
 21 22  1  0  0  0  0
 23 28  1  0  0  0  0
 24 29  2  0  0  0  0
 25 27  1  0  0  0  0
 26 23  2  0  0  0  0
 26 24  1  0  0  0  0
 28 29  1  0  0  0  0
 28 30  2  0  0  0  0
 29 25  1  0  0  0  0
 30 22  1  0  0  0  0
 30 27  1  0  0  0  0
M  END
>  <MODEL>
4

>  <REMARK>
 VINA RESULT:      -7.8      2.939      9.699
  Name = 
  5 active torsions:
  status: ('A' for Active; 'I' for Inactive)
    1  A    between atoms: C_2  and  C_28
    2  A    between atoms: C_3  and  N_25
    3  A    between atoms: C_8  and  C_28
    4  A    between atoms: C_21  and  N_22
    5  A    between atoms: N_22  and  C_30
                            x       y       z     vdW  Elec       q    Type
                         _______ _______ _______ _____ _____    ______ ____

>  <TORSDO>
F 5

$$$$
=
 OpenBabel11062419453D

 30 34  0  0  1  0  0  0  0  0999 V2000
  190.5420  174.1670  141.0180 O   0  0  0  0  0  0  0  0  0  0  0  0
  190.4840  174.8220  142.0950 C   0  0  0  0  0  0  0  0  0  0  0  0
  191.6120  174.7160  143.0430 C   0  0  0  0  0  0  0  0  0  0  0  0
  194.1220  175.0550  144.9100 C   0  0  1  0  0  3  0  0  0  0  0  0
  191.7250  175.6740  144.1020 N   0  0  0  0  0  2  0  0  0  0  0  0
  192.4520  173.7830  142.9390 O   0  0  0  0  0  0  0  0  0  0  0  0
  194.8110  175.5720  146.1420 C   0  0  0  0  0  3  0  0  0  0  0  0
  193.9960  176.4240  146.7480 C   0  0  0  0  0  3  0  0  0  0  0  0
  192.8220  175.7850  145.0150 C   0  0  0  0  0  0  0  0  0  0  0  0
  192.7670  176.5560  146.0460 N   0  0  0  0  0  0  0  0  0  0  0  0
  196.7150  176.5100  142.9630 C   0  0  1  0  0  3  0  0  0  0  0  0
  195.8070  174.3600  143.3780 C   0  0  0  0  0  2  0  0  0  0  0  0
  196.9880  175.0460  142.7480 C   0  0  0  0  0  2  0  0  0  0  0  0
  196.4660  177.1130  141.7430 F   0  0  0  0  0  0  0  0  0  0  0  0
  194.8240  175.3970  143.6590 N   0  0  2  0  0  0  0  0  0  0  0  0
  195.5300  176.6110  143.8020 N   0  0  0  0  0  2  0  0  0  0  0  0
  189.3250  177.0290  142.5750 C   0  0  0  0  0  3  0  0  0  0  0  0
  189.2870  175.6550  142.3480 C   0  0  0  0  0  0  0  0  0  0  0  0
  188.0590  177.5940  142.7890 C   0  0  0  0  0  3  0  0  0  0  0  0
  187.6830  175.1390  142.4120 S   0  0  0  0  0  0  0  0  0  0  0  0
  187.0380  176.6560  142.7100 C   0  0  0  0  0  0  0  0  0  0  0  0
  185.6460  176.8990  142.9350 N   0  0  0  0  0  2  0  0  0  0  0  0
  186.4260  176.7360  146.1510 C   0  0  0  0  0  3  0  0  0  0  0  0
  185.2260  178.5480  147.3800 C   0  0  0  0  0  3  0  0  0  0  0  0
  184.1190  179.1470  145.1830 N   0  0  0  0  0  2  0  0  0  0  0  0
  186.3150  177.4620  147.5080 C   0  0  0  0  0  3  0  0  0  0  0  0
  184.3730  178.6690  143.9940 O   0  0  0  0  0  0  0  0  0  0  0  0
  185.2690  177.2670  145.4050 C   0  0  0  0  0  0  0  0  0  0  0  0
  184.6510  178.2670  146.0520 C   0  0  0  0  0  0  0  0  0  0  0  0
  185.0880  177.5670  144.0730 C   0  0  0  0  0  0  0  0  0  0  0  0
  1  2  2  0  0  0  0
  2 18  1  0  0  0  0
  2  3  1  0  0  0  0
  3  5  1  0  0  0  0
  4  9  1  0  0  0  0
  4  7  1  1  0  0  0
  5  9  1  0  0  0  0
  6  3  2  0  0  0  0
  7  8  2  0  0  0  0
  9 10  2  0  0  0  0
 10  8  1  0  0  0  0
 11 14  1  6  0  0  0
 11 16  1  0  0  0  0
 13 11  1  0  0  0  0
 13 12  1  0  0  0  0
 15 12  1  1  0  0  0
 15 16  1  0  0  0  0
 15  4  1  0  0  0  0
 17 19  1  0  0  0  0
 18 20  1  0  0  0  0
 18 17  2  0  0  0  0
 20 21  1  0  0  0  0
 21 19  2  0  0  0  0
 21 22  1  0  0  0  0
 22 30  1  0  0  0  0
 23 26  2  0  0  0  0
 24 26  1  0  0  0  0
 25 29  1  0  0  0  0
 27 30  1  0  0  0  0
 27 25  1  0  0  0  0
 28 29  1  0  0  0  0
 28 23  1  0  0  0  0
 29 24  2  0  0  0  0
 30 28  2  0  0  0  0
M  END
>  <MODEL>
5

>  <REMARK>
 VINA RESULT:      -7.8      3.352      9.388
  Name = 
  5 active torsions:
  status: ('A' for Active; 'I' for Inactive)
    1  A    between atoms: C_2  and  C_28
    2  A    between atoms: C_3  and  N_25
    3  A    between atoms: C_8  and  C_28
    4  A    between atoms: C_21  and  N_22
    5  A    between atoms: N_22  and  C_30
                            x       y       z     vdW  Elec       q    Type
                         _______ _______ _______ _____ _____    ______ ____

>  <TORSDO>
F 5

$$$$
=
 OpenBabel11062419453D

 30 34  0  0  1  0  0  0  0  0999 V2000
  190.9230  177.1370  147.8110 O   0  0  0  0  0  0  0  0  0  0  0  0
  190.9690  176.5760  146.6830 C   0  0  0  0  0  0  0  0  0  0  0  0
  189.7150  176.4490  145.9110 C   0  0  0  0  0  0  0  0  0  0  0  0
  187.0100  176.7690  144.3350 C   0  0  1  0  0  3  0  0  0  0  0  0
  189.5430  177.2370  144.7270 N   0  0  0  0  0  2  0  0  0  0  0  0
  188.8170  175.6430  146.2740 O   0  0  0  0  0  0  0  0  0  0  0  0
  186.2060  177.1610  143.1260 C   0  0  0  0  0  3  0  0  0  0  0  0
  187.0030  177.8110  142.2890 C   0  0  0  0  0  3  0  0  0  0  0  0
  188.3440  177.3240  143.9490 C   0  0  0  0  0  0  0  0  0  0  0  0
  188.3240  177.9140  142.8030 N   0  0  0  0  0  0  0  0  0  0  0  0
  185.2030  179.1330  146.2780 C   0  0  1  0  0  3  0  0  0  0  0  0
  185.2320  176.7910  145.9180 C   0  0  0  0  0  2  0  0  0  0  0  0
  184.4110  177.8820  146.5460 C   0  0  0  0  0  2  0  0  0  0  0  0
  185.6930  179.6290  147.4720 F   0  0  0  0  0  0  0  0  0  0  0  0
  186.5220  177.3780  145.5850 N   0  0  2  0  0  0  0  0  0  0  0  0
  186.3160  178.7640  145.4150 N   0  0  0  0  0  2  0  0  0  0  0  0
  193.5000  176.3940  146.7790 C   0  0  0  0  0  3  0  0  0  0  0  0
  192.2730  176.0730  146.1990 C   0  0  0  0  0  0  0  0  0  0  0  0
  194.5930  175.7910  146.1400 C   0  0  0  0  0  3  0  0  0  0  0  0
  192.5460  175.0410  144.8940 S   0  0  0  0  0  0  0  0  0  0  0  0
  194.2100  174.9890  145.0740 C   0  0  0  0  0  0  0  0  0  0  0  0
  195.0860  174.2850  144.1880 N   0  0  0  0  0  2  0  0  0  0  0  0
  194.8280  171.3820  145.7630 C   0  0  0  0  0  3  0  0  0  0  0  0
  197.0220  170.1940  145.6590 C   0  0  0  0  0  3  0  0  0  0  0  0
  197.9410  172.2350  144.4760 N   0  0  0  0  0  2  0  0  0  0  0  0
  195.5360  170.0400  146.0460 C   0  0  0  0  0  3  0  0  0  0  0  0
  197.2890  173.2830  144.0490 O   0  0  0  0  0  0  0  0  0  0  0  0
  195.9560  172.2840  145.4580 C   0  0  0  0  0  0  0  0  0  0  0  0
  197.1260  171.6340  145.3640 C   0  0  0  0  0  0  0  0  0  0  0  0
  196.0850  173.3360  144.5790 C   0  0  0  0  0  0  0  0  0  0  0  0
  2  1  2  0  0  0  0
  3  6  2  0  0  0  0
  3  2  1  0  0  0  0
  4  7  1  6  0  0  0
  4 15  1  0  0  0  0
  5  3  1  0  0  0  0
  8 10  1  0  0  0  0
  8  7  2  0  0  0  0
  9  4  1  0  0  0  0
  9  5  1  0  0  0  0
 10  9  2  0  0  0  0
 11 13  1  0  0  0  0
 11 14  1  1  0  0  0
 12 13  1  0  0  0  0
 15 12  1  6  0  0  0
 16 15  1  0  0  0  0
 16 11  1  0  0  0  0
 18  2  1  0  0  0  0
 18 17  2  0  0  0  0
 19 17  1  0  0  0  0
 20 21  1  0  0  0  0
 20 18  1  0  0  0  0
 21 19  2  0  0  0  0
 22 30  1  0  0  0  0
 22 21  1  0  0  0  0
 23 26  2  0  0  0  0
 24 26  1  0  0  0  0
 25 29  1  0  0  0  0
 27 25  1  0  0  0  0
 27 30  1  0  0  0  0
 28 23  1  0  0  0  0
 29 28  1  0  0  0  0
 29 24  2  0  0  0  0
 30 28  2  0  0  0  0
M  END
>  <MODEL>
6

>  <REMARK>
 VINA RESULT:      -7.7      2.647      3.772
  Name = 
  5 active torsions:
  status: ('A' for Active; 'I' for Inactive)
    1  A    between atoms: C_2  and  C_28
    2  A    between atoms: C_3  and  N_25
    3  A    between atoms: C_8  and  C_28
    4  A    between atoms: C_21  and  N_22
    5  A    between atoms: N_22  and  C_30
                            x       y       z     vdW  Elec       q    Type
                         _______ _______ _______ _____ _____    ______ ____

>  <TORSDO>
F 5

$$$$
=
 OpenBabel11062419453D

 30 34  0  0  1  0  0  0  0  0999 V2000
  192.1440  177.4370  148.6680 O   0  0  0  0  0  0  0  0  0  0  0  0
  191.8890  176.8130  147.6030 C   0  0  0  0  0  0  0  0  0  0  0  0
  192.9920  176.5760  146.6480 C   0  0  0  0  0  0  0  0  0  0  0  0
  195.0420  175.5730  144.4810 C   0  0  1  0  0  3  0  0  0  0  0  0
  192.6810  176.3430  145.2690 N   0  0  0  0  0  2  0  0  0  0  0  0
  194.1910  176.6000  147.0330 O   0  0  0  0  0  0  0  0  0  0  0  0
  195.4760  175.3350  143.0610 C   0  0  0  0  0  3  0  0  0  0  0  0
  194.4410  175.5640  142.2650 C   0  0  0  0  0  3  0  0  0  0  0  0
  193.6190  175.9720  144.2520 C   0  0  0  0  0  0  0  0  0  0  0  0
  193.2920  175.9540  143.0060 N   0  0  0  0  0  0  0  0  0  0  0  0
  195.4980  172.1070  145.1240 C   0  0  1  0  0  3  0  0  0  0  0  0
  196.5180  174.1660  145.7090 C   0  0  0  0  0  2  0  0  0  0  0  0
  196.7360  172.6790  145.7610 C   0  0  0  0  0  2  0  0  0  0  0  0
  194.7590  171.4360  146.0800 F   0  0  0  0  0  0  0  0  0  0  0  0
  195.1270  174.3710  145.3290 N   0  0  2  0  0  0  0  0  0  0  0  0
  194.7200  173.2260  144.6100 N   0  0  0  0  0  2  0  0  0  0  0  0
  190.0750  175.0390  147.5130 C   0  0  0  0  0  3  0  0  0  0  0  0
  190.5010  176.3580  147.3670 C   0  0  0  0  0  0  0  0  0  0  0  0
  188.7130  174.8590  147.2340 C   0  0  0  0  0  3  0  0  0  0  0  0
  189.1870  177.3020  146.8920 S   0  0  0  0  0  0  0  0  0  0  0  0
  188.0790  176.0450  146.8880 C   0  0  0  0  0  0  0  0  0  0  0  0
  186.7120  176.1900  146.4920 N   0  0  0  0  0  2  0  0  0  0  0  0
  186.7590  178.0170  143.7290 C   0  0  0  0  0  3  0  0  0  0  0  0
  185.0090  179.7910  143.8870 C   0  0  0  0  0  3  0  0  0  0  0  0
  184.5290  178.9480  146.2260 N   0  0  0  0  0  2  0  0  0  0  0  0
  186.0150  179.1110  142.9350 C   0  0  0  0  0  3  0  0  0  0  0  0
  185.0120  177.8870  146.8170 O   0  0  0  0  0  0  0  0  0  0  0  0
  186.3230  178.2700  145.1150 C   0  0  0  0  0  0  0  0  0  0  0  0
  185.3540  179.1960  145.1910 C   0  0  0  0  0  0  0  0  0  0  0  0
  186.0610  177.4250  146.1710 C   0  0  0  0  0  0  0  0  0  0  0  0
  2  1  2  0  0  0  0
  3  6  2  0  0  0  0
  3  2  1  0  0  0  0
  4  7  1  6  0  0  0
  4 15  1  0  0  0  0
  5  3  1  0  0  0  0
  8 10  1  0  0  0  0
  8  7  2  0  0  0  0
  9  4  1  0  0  0  0
  9  5  1  0  0  0  0
 10  9  2  0  0  0  0
 11 13  1  0  0  0  0
 11 14  1  1  0  0  0
 12 13  1  0  0  0  0
 15 12  1  6  0  0  0
 16 11  1  0  0  0  0
 16 15  1  0  0  0  0
 18 17  2  0  0  0  0
 18  2  1  0  0  0  0
 19 17  1  0  0  0  0
 20 18  1  0  0  0  0
 21 20  1  0  0  0  0
 21 19  2  0  0  0  0
 22 21  1  0  0  0  0
 23 28  1  0  0  0  0
 24 29  2  0  0  0  0
 25 27  1  0  0  0  0
 26 23  2  0  0  0  0
 26 24  1  0  0  0  0
 28 29  1  0  0  0  0
 28 30  2  0  0  0  0
 29 25  1  0  0  0  0
 30 22  1  0  0  0  0
 30 27  1  0  0  0  0
M  END
>  <MODEL>
7

>  <REMARK>
 VINA RESULT:      -7.7      2.782      9.161
  Name = 
  5 active torsions:
  status: ('A' for Active; 'I' for Inactive)
    1  A    between atoms: C_2  and  C_28
    2  A    between atoms: C_3  and  N_25
    3  A    between atoms: C_8  and  C_28
    4  A    between atoms: C_21  and  N_22
    5  A    between atoms: N_22  and  C_30
                            x       y       z     vdW  Elec       q    Type
                         _______ _______ _______ _____ _____    ______ ____

>  <TORSDO>
F 5

$$$$
=
 OpenBabel11062419453D

 30 34  0  0  1  0  0  0  0  0999 V2000
  190.7770  173.7060  142.3980 O   0  0  0  0  0  0  0  0  0  0  0  0
  190.8680  174.9060  142.7760 C   0  0  0  0  0  0  0  0  0  0  0  0
  192.2050  175.4340  143.1150 C   0  0  0  0  0  0  0  0  0  0  0  0
  195.2550  176.0830  143.5420 C   0  0  1  0  0  3  0  0  0  0  0  0
  193.1520  175.6620  142.0640 N   0  0  0  0  0  2  0  0  0  0  0  0
  192.5050  175.7040  144.3090 O   0  0  0  0  0  0  0  0  0  0  0  0
  196.5970  176.5680  143.0690 C   0  0  0  0  0  3  0  0  0  0  0  0
  196.5420  176.7290  141.7540 C   0  0  0  0  0  3  0  0  0  0  0  0
  194.5210  176.0430  142.2400 C   0  0  0  0  0  0  0  0  0  0  0  0
  195.2570  176.4000  141.2440 N   0  0  0  0  0  0  0  0  0  0  0  0
  196.8050  173.0480  144.5520 C   0  0  1  0  0  3  0  0  0  0  0  0
  195.7160  174.8990  145.5560 C   0  0  0  0  0  2  0  0  0  0  0  0
  196.5550  173.6960  145.8870 C   0  0  0  0  0  2  0  0  0  0  0  0
  196.1440  171.8350  144.5010 F   0  0  0  0  0  0  0  0  0  0  0  0
  195.3010  174.7490  144.1680 N   0  0  2  0  0  0  0  0  0  0  0  0
  196.2650  173.9360  143.5320 N   0  0  0  0  0  2  0  0  0  0  0  0
  189.6100  177.0970  143.0300 C   0  0  0  0  0  3  0  0  0  0  0  0
  189.6310  175.7130  142.8620 C   0  0  0  0  0  0  0  0  0  0  0  0
  188.3150  177.6320  143.0810 C   0  0  0  0  0  3  0  0  0  0  0  0
  188.0420  175.1540  142.7780 S   0  0  0  0  0  0  0  0  0  0  0  0
  187.3320  176.6630  142.9370 C   0  0  0  0  0  0  0  0  0  0  0  0
  185.9190  176.8750  143.0020 N   0  0  0  0  0  2  0  0  0  0  0  0
  186.3560  176.7330  146.2830 C   0  0  0  0  0  3  0  0  0  0  0  0
  184.9670  178.4990  147.3730 C   0  0  0  0  0  3  0  0  0  0  0  0
  184.0810  179.0620  145.0690 N   0  0  0  0  0  2  0  0  0  0  0  0
  186.0750  177.4530  147.6190 C   0  0  0  0  0  3  0  0  0  0  0  0
  184.4770  178.5960  143.9150 O   0  0  0  0  0  0  0  0  0  0  0  0
  185.2670  177.2240  145.4170 C   0  0  0  0  0  0  0  0  0  0  0  0
  184.5480  178.2000  145.9920 C   0  0  0  0  0  0  0  0  0  0  0  0
  185.2190  177.5200  144.0720 C   0  0  0  0  0  0  0  0  0  0  0  0
  1  2  2  0  0  0  0
  2 18  1  0  0  0  0
  2  3  1  0  0  0  0
  3  6  2  0  0  0  0
  4  7  1  6  0  0  0
  4 15  1  0  0  0  0
  5  9  1  0  0  0  0
  5  3  1  0  0  0  0
  8  7  2  0  0  0  0
  9  4  1  0  0  0  0
 10  8  1  0  0  0  0
 10  9  2  0  0  0  0
 11 14  1  1  0  0  0
 11 13  1  0  0  0  0
 12 13  1  0  0  0  0
 15 12  1  1  0  0  0
 16 15  1  0  0  0  0
 16 11  1  0  0  0  0
 17 19  1  0  0  0  0
 18 17  2  0  0  0  0
 20 18  1  0  0  0  0
 20 21  1  0  0  0  0
 21 22  1  0  0  0  0
 21 19  2  0  0  0  0
 22 30  1  0  0  0  0
 23 26  2  0  0  0  0
 24 26  1  0  0  0  0
 25 29  1  0  0  0  0
 27 30  1  0  0  0  0
 27 25  1  0  0  0  0
 28 29  1  0  0  0  0
 28 23  1  0  0  0  0
 29 24  2  0  0  0  0
 30 28  2  0  0  0  0
M  END
>  <MODEL>
8

>  <REMARK>
 VINA RESULT:      -7.6      3.456      9.919
  Name = 
  5 active torsions:
  status: ('A' for Active; 'I' for Inactive)
    1  A    between atoms: C_2  and  C_28
    2  A    between atoms: C_3  and  N_25
    3  A    between atoms: C_8  and  C_28
    4  A    between atoms: C_21  and  N_22
    5  A    between atoms: N_22  and  C_30
                            x       y       z     vdW  Elec       q    Type
                         _______ _______ _______ _____ _____    ______ ____

>  <TORSDO>
F 5

$$$$
=
 OpenBabel11062419453D

 30 34  0  0  1  0  0  0  0  0999 V2000
  189.8310  172.7890  141.2550 O   0  0  0  0  0  0  0  0  0  0  0  0
  190.1910  173.8510  141.8330 C   0  0  0  0  0  0  0  0  0  0  0  0
  191.5340  173.8940  142.4470 C   0  0  0  0  0  0  0  0  0  0  0  0
  194.0970  173.9710  144.2720 C   0  0  1  0  0  3  0  0  0  0  0  0
  191.9030  172.8790  143.3890 N   0  0  0  0  0  2  0  0  0  0  0  0
  192.3550  174.7970  142.1330 O   0  0  0  0  0  0  0  0  0  0  0  0
  195.1100  173.3320  145.1820 C   0  0  0  0  0  3  0  0  0  0  0  0
  194.6870  172.1120  145.4830 C   0  0  0  0  0  3  0  0  0  0  0  0
  193.1080  172.8550  144.1630 C   0  0  0  0  0  0  0  0  0  0  0  0
  193.4460  171.8210  144.8540 N   0  0  0  0  0  0  0  0  0  0  0  0
  192.8180  176.0070  146.8880 C   0  0  1  0  0  3  0  0  0  0  0  0
  194.5300  176.0970  145.2520 C   0  0  0  0  0  2  0  0  0  0  0  0
  194.0410  176.7900  146.4930 C   0  0  0  0  0  2  0  0  0  0  0  0
  191.6950  176.7970  146.7200 F   0  0  0  0  0  0  0  0  0  0  0  0
  193.4760  175.1790  144.8430 N   0  0  2  0  0  0  0  0  0  0  0  0
  192.7350  174.8560  146.0010 N   0  0  0  0  0  2  0  0  0  0  0  0
  188.2080  175.1720  140.9560 C   0  0  0  0  0  3  0  0  0  0  0  0
  189.2470  174.9890  141.8670 C   0  0  0  0  0  0  0  0  0  0  0  0
  187.4500  176.3260  141.1990 C   0  0  0  0  0  3  0  0  0  0  0  0
  189.2240  176.2600  142.9750 S   0  0  0  0  0  0  0  0  0  0  0  0
  187.8930  177.0290  142.3110 C   0  0  0  0  0  0  0  0  0  0  0  0
  187.3710  178.2730  142.7880 N   0  0  0  0  0  2  0  0  0  0  0  0
  186.4590  176.8640  145.6450 C   0  0  0  0  0  3  0  0  0  0  0  0
  184.4390  178.0360  146.5300 C   0  0  0  0  0  3  0  0  0  0  0  0
  184.4730  179.4410  144.4240 N   0  0  0  0  0  2  0  0  0  0  0  0
  185.5290  176.9970  146.8690 C   0  0  0  0  0  3  0  0  0  0  0  0
  185.3840  179.4720  143.4880 O   0  0  0  0  0  0  0  0  0  0  0  0
  185.7430  177.6350  144.6100 C   0  0  0  0  0  0  0  0  0  0  0  0
  184.6810  178.2950  145.0990 C   0  0  0  0  0  0  0  0  0  0  0  0
  186.1880  178.4340  143.5800 C   0  0  0  0  0  0  0  0  0  0  0  0
  1  2  2  0  0  0  0
  2 18  1  0  0  0  0
  2  3  1  0  0  0  0
  3  5  1  0  0  0  0
  4 15  1  0  0  0  0
  4  7  1  1  0  0  0
  5  9  1  0  0  0  0
  6  3  2  0  0  0  0
  7  8  2  0  0  0  0
  9  4  1  0  0  0  0
  9 10  2  0  0  0  0
 10  8  1  0  0  0  0
 11 14  1  6  0  0  0
 12 13  1  0  0  0  0
 13 11  1  0  0  0  0
 15 12  1  1  0  0  0
 15 16  1  0  0  0  0
 16 11  1  0  0  0  0
 17 19  1  0  0  0  0
 17 18  2  0  0  0  0
 18 20  1  0  0  0  0
 19 21  2  0  0  0  0
 21 22  1  0  0  0  0
 21 20  1  0  0  0  0
 22 30  1  0  0  0  0
 23 26  2  0  0  0  0
 24 26  1  0  0  0  0
 25 29  1  0  0  0  0
 27 30  1  0  0  0  0
 27 25  1  0  0  0  0
 28 29  1  0  0  0  0
 28 23  1  0  0  0  0
 29 24  2  0  0  0  0
 30 28  2  0  0  0  0
M  END
>  <MODEL>
9

>  <REMARK>
 VINA RESULT:      -7.6      3.287      9.259
  Name = 
  5 active torsions:
  status: ('A' for Active; 'I' for Inactive)
    1  A    between atoms: C_2  and  C_28
    2  A    between atoms: C_3  and  N_25
    3  A    between atoms: C_8  and  C_28
    4  A    between atoms: C_21  and  N_22
    5  A    between atoms: N_22  and  C_30
                            x       y       z     vdW  Elec       q    Type
                         _______ _______ _______ _____ _____    ______ ____

>  <TORSDO>
F 5

$$$$
