=
 OpenBabel11062422293D

 43 48  0  0  1  0  0  0  0  0999 V2000
  196.4290  175.2610  143.4260 N   0  0  0  0  0  0  0  0  0  0  0  0
  195.6420  176.9640  144.5410 C   0  0  0  0  0  3  0  0  0  0  0  0
  195.6800  174.7680  144.4280 C   0  0  2  0  0  3  0  0  0  0  0  0
  195.1590  175.8240  145.1530 C   0  0  0  0  0  0  0  0  0  0  0  0
  196.3940  176.5830  143.4880 N   0  0  0  0  0  0  0  0  0  0  0  0
  194.4870  171.1610  144.5580 C   0  0  0  0  0  3  0  0  0  0  0  0
  196.5620  172.7460  145.5330 C   0  0  0  0  0  3  0  0  0  0  0  0
  195.4620  170.6000  145.3860 C   0  0  0  0  0  0  0  0  0  0  0  0
  194.5240  172.5240  144.2240 C   0  0  0  0  0  0  0  0  0  0  0  0
  195.5710  173.3270  144.7290 C   0  0  0  0  0  0  0  0  0  0  0  0
  196.5080  171.3900  145.8620 C   0  0  0  0  0  3  0  0  0  0  0  0
  193.5790  173.0760  143.2920 N   0  0  0  0  0  2  0  0  0  0  0  0
  192.1480  172.9890  143.3390 C   0  0  0  0  0  0  0  0  0  0  0  0
  191.3810  172.7180  142.1970 C   0  0  0  0  0  3  0  0  0  0  0  0
  189.3930  172.7710  143.5180 N   0  0  0  0  0  0  0  0  0  0  0  0
  189.9930  172.6150  142.3080 C   0  0  0  0  0  3  0  0  0  0  0  0
  190.1150  173.0240  144.6430 C   0  0  0  0  0  3  0  0  0  0  0  0
  191.5050  173.1340  144.5710 C   0  0  0  0  0  3  0  0  0  0  0  0
  195.4100  169.1500  145.7220 C   0  0  0  0  0  2  0  0  0  0  0  0
  196.3540  168.8460  146.8730 C   0  0  0  0  0  2  0  0  0  0  0  0
  194.2280  168.1680  147.7220 O   0  0  0  0  0  1  0  0  0  0  0  0
  195.5860  168.2460  148.0370 C   0  0  0  0  0  2  0  0  0  0  0  0
  194.4430  175.7580  146.4670 C   0  0  0  0  0  2  0  0  0  0  0  0
  192.9810  176.0070  146.3060 C   0  0  0  0  0  0  0  0  0  0  0  0
  189.8680  176.1380  146.5880 C   0  0  0  0  0  3  0  0  0  0  0  0
  192.1280  175.4790  147.2820 O   0  0  0  0  0  0  0  0  0  0  0  0
  190.1020  176.8860  145.3520 C   0  0  0  0  0  0  0  0  0  0  0  0
  192.6150  176.7160  145.2410 C   0  0  0  0  0  3  0  0  0  0  0  0
  190.7370  175.5450  147.3980 C   0  0  0  0  0  3  0  0  0  0  0  0
  191.2840  177.1270  144.7960 C   0  0  0  0  0  3  0  0  0  0  0  0
  188.9010  177.4490  144.6720 C   0  0  0  0  0  2  0  0  0  0  0  0
  186.5270  177.3080  146.3750 C   0  0  0  0  0  2  0  0  0  0  0  0
  186.0720  177.5720  142.5220 C   0  0  0  0  0  2  0  0  0  0  0  0
  184.3190  178.4980  144.3630 S   0  0  0  0  0  0  0  0  0  0  0  0
  186.0420  178.0400  143.9730 C   0  0  1  0  0  3  0  0  0  0  0  0
  187.8770  176.4110  144.5100 N   0  0  0  0  0  0  0  0  0  0  0  0
  187.4540  177.0550  142.1470 C   0  0  1  0  0  3  0  0  0  0  0  0
  185.1350  177.7010  146.8400 C   0  0  0  0  0  2  0  0  0  0  0  0
  184.6730  178.9350  146.0910 C   0  0  0  0  0  2  0  0  0  0  0  0
  186.5400  176.9060  144.8960 C   0  0  1  0  0  3  0  0  0  0  0  0
  187.8660  175.9470  143.1170 C   0  0  0  0  0  2  0  0  0  0  0  0
  187.4390  176.5060  140.7330 C   0  0  0  0  0  2  0  0  0  0  0  0
  186.8520  177.4290  139.8670 O   0  0  0  0  0  1  0  0  0  0  0  0
  1  5  2  0  0  0  0
  1  3  1  0  0  0  0
  2  4  2  0  0  0  0
  3 10  1  1  0  0  0
  3  4  1  0  0  0  0
  4 23  1  0  0  0  0
  5  2  1  0  0  0  0
  6  8  1  0  0  0  0
  7 11  1  0  0  0  0
  8 19  1  0  0  0  0
  8 11  2  0  0  0  0
  9  6  2  0  0  0  0
  9 10  1  0  0  0  0
 10  7  2  0  0  0  0
 12 13  1  0  0  0  0
 12  9  1  0  0  0  0
 13 18  1  0  0  0  0
 14 16  1  0  0  0  0
 14 13  2  0  0  0  0
 15 17  1  0  0  0  0
 16 15  2  0  0  0  0
 18 17  2  0  0  0  0
 19 20  1  0  0  0  0
 20 22  1  0  0  0  0
 21 22  1  0  0  0  0
 24 23  1  0  0  0  0
 24 26  1  0  0  0  0
 25 29  2  0  0  0  0
 26 29  1  0  0  0  0
 27 25  1  0  0  0  0
 28 24  2  0  0  0  0
 30 28  1  0  0  0  0
 30 27  2  0  0  0  0
 31 27  1  0  0  0  0
 32 38  1  0  0  0  0
 34 39  1  0  0  0  0
 35 33  1  6  0  0  0
 35 34  1  0  0  0  0
 35 40  1  0  0  0  0
 36 31  1  0  0  0  0
 36 40  1  0  0  0  0
 37 42  1  6  0  0  0
 37 33  1  0  0  0  0
 37 41  1  0  0  0  0
 39 38  1  0  0  0  0
 40 32  1  1  0  0  0
 41 36  1  0  0  0  0
 43 42  1  0  0  0  0
M  END
>  <MODEL>
1

>  <REMARK>
 VINA RESULT:      -8.0      0.000      0.000
  Name = 
  11 active torsions:
  status: ('A' for Active; 'I' for Inactive)
    1  A    between atoms: C_1  and  C_30
    2  A    between atoms: N_2  and  C_14
    3  A    between atoms: N_2  and  C_38
    4  A    between atoms: C_3  and  C_16
    5  A    between atoms: C_3  and  C_27
    6  A    between atoms: C_8  and  C_19
    7  A    between atoms: C_8  and  C_24
    8  A    between atoms: C_21  and  C_24
    9  A    between atoms: N_23  and  C_33
   10  A    between atoms: C_25  and  C_39
   11  A    between atoms: C_28  and  C_33
                            x       y       z     vdW  Elec       q    Type
                         _______ _______ _______ _____ _____    ______ ____

>  <TORSDO>
F 11

$$$$
=
 OpenBabel11062422293D

 43 48  0  0  1  0  0  0  0  0999 V2000
  197.2900  175.0230  143.4920 N   0  0  0  0  0  0  0  0  0  0  0  0
  196.0320  176.6960  144.1110 C   0  0  0  0  0  3  0  0  0  0  0  0
  196.2600  174.5100  144.1870 C   0  0  2  0  0  3  0  0  0  0  0  0
  195.4370  175.5450  144.5900 C   0  0  0  0  0  0  0  0  0  0  0  0
  197.1440  176.3380  143.4360 N   0  0  0  0  0  0  0  0  0  0  0  0
  195.1390  170.8800  144.3330 C   0  0  0  0  0  3  0  0  0  0  0  0
  197.0460  172.5600  145.4790 C   0  0  0  0  0  3  0  0  0  0  0  0
  196.0190  170.3810  145.2970 C   0  0  0  0  0  0  0  0  0  0  0  0
  195.1870  172.2290  143.9460 C   0  0  0  0  0  0  0  0  0  0  0  0
  196.1470  173.0800  144.5370 C   0  0  0  0  0  0  0  0  0  0  0  0
  196.9820  171.2180  145.8590 C   0  0  0  0  0  3  0  0  0  0  0  0
  194.3500  172.7160  142.8830 N   0  0  0  0  0  2  0  0  0  0  0  0
  192.9360  172.9580  142.9220 C   0  0  0  0  0  0  0  0  0  0  0  0
  192.1890  172.8150  144.0990 C   0  0  0  0  0  3  0  0  0  0  0  0
  190.2210  173.5060  142.9370 N   0  0  0  0  0  0  0  0  0  0  0  0
  190.8210  173.0930  144.0850 C   0  0  0  0  0  3  0  0  0  0  0  0
  190.9260  173.6620  141.7830 C   0  0  0  0  0  3  0  0  0  0  0  0
  192.2950  173.3930  141.7590 C   0  0  0  0  0  3  0  0  0  0  0  0
  195.9590  168.9450  145.6880 C   0  0  0  0  0  2  0  0  0  0  0  0
  196.1120  168.8060  147.1930 C   0  0  0  0  0  2  0  0  0  0  0  0
  193.8340  168.1690  146.8680 O   0  0  0  0  0  1  0  0  0  0  0  0
  194.7600  168.5580  147.8370 C   0  0  0  0  0  2  0  0  0  0  0  0
  194.2930  175.4740  145.5540 C   0  0  0  0  0  2  0  0  0  0  0  0
  193.0580  176.0850  144.9830 C   0  0  0  0  0  0  0  0  0  0  0  0
  190.8530  177.3520  143.1600 C   0  0  0  0  0  3  0  0  0  0  0  0
  193.0580  176.3720  143.6130 O   0  0  0  0  0  0  0  0  0  0  0  0
  190.2060  177.3410  144.4730 C   0  0  0  0  0  0  0  0  0  0  0  0
  192.0590  176.3050  145.8330 C   0  0  0  0  0  3  0  0  0  0  0  0
  192.0660  176.9380  142.8080 C   0  0  0  0  0  3  0  0  0  0  0  0
  190.7360  176.8840  145.6020 C   0  0  0  0  0  3  0  0  0  0  0  0
  188.8140  177.8700  144.5380 C   0  0  0  0  0  2  0  0  0  0  0  0
  187.1620  177.1520  146.8430 C   0  0  0  0  0  2  0  0  0  0  0  0
  185.4240  178.0420  143.4800 C   0  0  0  0  0  2  0  0  0  0  0  0
  184.3480  178.4160  145.9340 S   0  0  0  0  0  0  0  0  0  0  0  0
  185.8610  178.2380  144.9280 C   0  0  1  0  0  3  0  0  0  0  0  0
  187.8490  176.7650  144.5010 N   0  0  0  0  0  0  0  0  0  0  0  0
  186.6230  177.7650  142.5840 C   0  0  1  0  0  3  0  0  0  0  0  0
  185.9900  177.2910  147.7990 C   0  0  0  0  0  2  0  0  0  0  0  0
  185.2400  178.5770  147.5090 C   0  0  0  0  0  2  0  0  0  0  0  0
  186.6970  177.0240  145.3880 C   0  0  1  0  0  3  0  0  0  0  0  0
  187.3940  176.5570  143.1210 C   0  0  0  0  0  2  0  0  0  0  0  0
  186.1610  177.4770  141.1680 C   0  0  0  0  0  2  0  0  0  0  0  0
  185.1920  178.4050  140.7840 O   0  0  0  0  0  1  0  0  0  0  0  0
  1  3  1  0  0  0  0
  2  4  2  0  0  0  0
  3 10  1  1  0  0  0
  3  4  1  0  0  0  0
  4 23  1  0  0  0  0
  5  1  2  0  0  0  0
  5  2  1  0  0  0  0
  6  8  1  0  0  0  0
  7 11  1  0  0  0  0
  8 19  1  0  0  0  0
  8 11  2  0  0  0  0
  9  6  2  0  0  0  0
  9 10  1  0  0  0  0
 10  7  2  0  0  0  0
 12 13  1  0  0  0  0
 12  9  1  0  0  0  0
 13 14  1  0  0  0  0
 15 16  1  0  0  0  0
 16 14  2  0  0  0  0
 17 15  2  0  0  0  0
 18 17  1  0  0  0  0
 18 13  2  0  0  0  0
 19 20  1  0  0  0  0
 20 22  1  0  0  0  0
 21 22  1  0  0  0  0
 24 23  1  0  0  0  0
 24 28  2  0  0  0  0
 25 27  1  0  0  0  0
 26 24  1  0  0  0  0
 27 31  1  0  0  0  0
 27 30  2  0  0  0  0
 29 25  2  0  0  0  0
 29 26  1  0  0  0  0
 30 28  1  0  0  0  0
 32 38  1  0  0  0  0
 34 39  1  0  0  0  0
 35 33  1  6  0  0  0
 35 40  1  0  0  0  0
 35 34  1  0  0  0  0
 36 31  1  0  0  0  0
 36 40  1  0  0  0  0
 37 42  1  6  0  0  0
 37 41  1  0  0  0  0
 37 33  1  0  0  0  0
 39 38  1  0  0  0  0
 40 32  1  1  0  0  0
 41 36  1  0  0  0  0
 43 42  1  0  0  0  0
M  END
>  <MODEL>
2

>  <REMARK>
 VINA RESULT:      -7.8      1.176      1.645
  Name = 
  11 active torsions:
  status: ('A' for Active; 'I' for Inactive)
    1  A    between atoms: C_1  and  C_30
    2  A    between atoms: N_2  and  C_14
    3  A    between atoms: N_2  and  C_38
    4  A    between atoms: C_3  and  C_16
    5  A    between atoms: C_3  and  C_27
    6  A    between atoms: C_8  and  C_19
    7  A    between atoms: C_8  and  C_24
    8  A    between atoms: C_21  and  C_24
    9  A    between atoms: N_23  and  C_33
   10  A    between atoms: C_25  and  C_39
   11  A    between atoms: C_28  and  C_33
                            x       y       z     vdW  Elec       q    Type
                         _______ _______ _______ _____ _____    ______ ____

>  <TORSDO>
F 11

$$$$
=
 OpenBabel11062422293D

 43 48  0  0  1  0  0  0  0  0999 V2000
  196.1230  175.3310  142.6930 N   0  0  0  0  0  0  0  0  0  0  0  0
  194.5990  176.1690  141.3750 C   0  0  0  0  0  3  0  0  0  0  0  0
  195.0550  174.5170  142.7530 C   0  0  2  0  0  3  0  0  0  0  0  0
  194.0690  175.0160  141.9220 C   0  0  0  0  0  0  0  0  0  0  0  0
  195.8520  176.3180  141.8530 N   0  0  0  0  0  0  0  0  0  0  0  0
  194.2950  172.3060  145.7510 C   0  0  0  0  0  3  0  0  0  0  0  0
  195.5020  172.1400  143.2440 C   0  0  0  0  0  3  0  0  0  0  0  0
  194.8640  171.1020  145.3300 C   0  0  0  0  0  0  0  0  0  0  0  0
  194.3410  173.4470  144.9350 C   0  0  0  0  0  0  0  0  0  0  0  0
  194.9620  173.3630  143.6690 C   0  0  0  0  0  0  0  0  0  0  0  0
  195.4550  171.0160  144.0690 C   0  0  0  0  0  3  0  0  0  0  0  0
  193.6670  174.6550  145.3270 N   0  0  0  0  0  2  0  0  0  0  0  0
  192.3990  174.7770  145.9870 C   0  0  0  0  0  0  0  0  0  0  0  0
  192.2420  175.5200  147.1650 C   0  0  0  0  0  3  0  0  0  0  0  0
  189.9070  175.0240  147.1710 N   0  0  0  0  0  0  0  0  0  0  0  0
  190.9790  175.6290  147.7480 C   0  0  0  0  0  3  0  0  0  0  0  0
  190.0300  174.3060  146.0210 C   0  0  0  0  0  3  0  0  0  0  0  0
  191.2780  174.1750  145.4100 C   0  0  0  0  0  3  0  0  0  0  0  0
  194.7990  169.8990  146.2060 C   0  0  0  0  0  2  0  0  0  0  0  0
  196.1940  169.5070  146.6610 C   0  0  0  0  0  2  0  0  0  0  0  0
  197.2250  168.3370  148.4690 O   0  0  0  0  0  1  0  0  0  0  0  0
  196.1220  168.3270  147.6130 C   0  0  0  0  0  2  0  0  0  0  0  0
  192.6460  174.5630  141.8260 C   0  0  0  0  0  2  0  0  0  0  0  0
  191.7080  175.5850  142.3770 C   0  0  0  0  0  0  0  0  0  0  0  0
  190.3610  178.0390  143.7740 C   0  0  0  0  0  3  0  0  0  0  0  0
  192.2690  176.6620  143.0720 O   0  0  0  0  0  0  0  0  0  0  0  0
  189.2090  177.3050  143.2510 C   0  0  0  0  0  0  0  0  0  0  0  0
  190.4130  175.3790  142.1560 C   0  0  0  0  0  3  0  0  0  0  0  0
  191.6570  177.7550  143.6920 C   0  0  0  0  0  3  0  0  0  0  0  0
  189.2520  176.1740  142.5570 C   0  0  0  0  0  3  0  0  0  0  0  0
  187.8660  177.9010  143.5010 C   0  0  0  0  0  2  0  0  0  0  0  0
  187.1310  176.8070  146.1120 C   0  0  0  0  0  2  0  0  0  0  0  0
  184.3550  178.3370  143.8600 C   0  0  0  0  0  2  0  0  0  0  0  0
  184.3060  178.2740  146.5640 S   0  0  0  0  0  0  0  0  0  0  0  0
  185.3140  178.2540  145.0420 C   0  0  1  0  0  3  0  0  0  0  0  0
  186.8620  176.8430  143.6560 N   0  0  0  0  0  0  0  0  0  0  0  0
  185.1060  178.2040  142.5410 C   0  0  1  0  0  3  0  0  0  0  0  0
  186.4150  176.7920  147.4510 C   0  0  0  0  0  2  0  0  0  0  0  0
  185.7290  178.1240  147.6830 C   0  0  0  0  0  2  0  0  0  0  0  0
  186.1500  176.9590  144.9440 C   0  0  1  0  0  3  0  0  0  0  0  0
  185.9100  176.9030  142.5400 C   0  0  0  0  0  2  0  0  0  0  0  0
  184.1270  178.1920  141.3830 C   0  0  0  0  0  2  0  0  0  0  0  0
  184.8030  178.4240  140.1840 O   0  0  0  0  0  1  0  0  0  0  0  0
  1  3  1  0  0  0  0
  2  5  1  0  0  0  0
  2  4  2  0  0  0  0
  3 10  1  1  0  0  0
  4  3  1  0  0  0  0
  5  1  2  0  0  0  0
  7 10  2  0  0  0  0
  7 11  1  0  0  0  0
  8  6  1  0  0  0  0
  8 19  1  0  0  0  0
  9 12  1  0  0  0  0
  9  6  2  0  0  0  0
 10  9  1  0  0  0  0
 11  8  2  0  0  0  0
 12 13  1  0  0  0  0
 13 14  1  0  0  0  0
 14 16  2  0  0  0  0
 15 16  1  0  0  0  0
 17 15  2  0  0  0  0
 18 13  2  0  0  0  0
 18 17  1  0  0  0  0
 19 20  1  0  0  0  0
 20 22  1  0  0  0  0
 22 21  1  0  0  0  0
 23  4  1  0  0  0  0
 23 24  1  0  0  0  0
 24 26  1  0  0  0  0
 26 29  1  0  0  0  0
 27 31  1  0  0  0  0
 27 25  1  0  0  0  0
 28 24  2  0  0  0  0
 28 30  1  0  0  0  0
 29 25  2  0  0  0  0
 30 27  2  0  0  0  0
 31 36  1  0  0  0  0
 32 38  1  0  0  0  0
 34 39  1  0  0  0  0
 35 33  1  6  0  0  0
 35 34  1  0  0  0  0
 36 40  1  0  0  0  0
 37 42  1  6  0  0  0
 37 33  1  0  0  0  0
 38 39  1  0  0  0  0
 40 35  1  0  0  0  0
 40 32  1  1  0  0  0
 41 37  1  0  0  0  0
 41 36  1  0  0  0  0
 43 42  1  0  0  0  0
M  END
>  <MODEL>
3

>  <REMARK>
 VINA RESULT:      -7.8      1.957      2.876
  Name = 
  11 active torsions:
  status: ('A' for Active; 'I' for Inactive)
    1  A    between atoms: C_1  and  C_30
    2  A    between atoms: N_2  and  C_14
    3  A    between atoms: N_2  and  C_38
    4  A    between atoms: C_3  and  C_16
    5  A    between atoms: C_3  and  C_27
    6  A    between atoms: C_8  and  C_19
    7  A    between atoms: C_8  and  C_24
    8  A    between atoms: C_21  and  C_24
    9  A    between atoms: N_23  and  C_33
   10  A    between atoms: C_25  and  C_39
   11  A    between atoms: C_28  and  C_33
                            x       y       z     vdW  Elec       q    Type
                         _______ _______ _______ _____ _____    ______ ____

>  <TORSDO>
F 11

$$$$
=
 OpenBabel11062422293D

 43 48  0  0  1  0  0  0  0  0999 V2000
  188.1270  178.0670  141.6620 N   0  0  0  0  0  0  0  0  0  0  0  0
  187.1860  176.4770  140.5000 C   0  0  0  0  0  3  0  0  0  0  0  0
  188.5130  176.8980  142.2020 C   0  0  2  0  0  3  0  0  0  0  0  0
  187.9380  175.8660  141.4840 C   0  0  0  0  0  0  0  0  0  0  0  0
  187.3390  177.8110  140.6290 N   0  0  0  0  0  0  0  0  0  0  0  0
  189.5700  176.5160  145.8340 C   0  0  0  0  0  3  0  0  0  0  0  0
  190.7130  176.8950  143.3210 C   0  0  0  0  0  3  0  0  0  0  0  0
  190.9550  176.6450  145.7120 C   0  0  0  0  0  0  0  0  0  0  0  0
  188.7370  176.5960  144.7070 C   0  0  0  0  0  0  0  0  0  0  0  0
  189.3190  176.7990  143.4360 C   0  0  0  0  0  0  0  0  0  0  0  0
  191.5280  176.8200  144.4520 C   0  0  0  0  0  3  0  0  0  0  0  0
  187.3230  176.3630  144.8230 N   0  0  0  0  0  2  0  0  0  0  0  0
  186.3190  177.2760  145.2880 C   0  0  0  0  0  0  0  0  0  0  0  0
  186.2730  178.6110  144.8610 C   0  0  0  0  0  3  0  0  0  0  0  0
  184.3120  178.9650  146.1760 N   0  0  0  0  0  0  0  0  0  0  0  0
  185.2550  179.4470  145.3230 C   0  0  0  0  0  3  0  0  0  0  0  0
  184.3280  177.6710  146.5970 C   0  0  0  0  0  3  0  0  0  0  0  0
  185.3310  176.8060  146.1560 C   0  0  0  0  0  3  0  0  0  0  0  0
  191.8240  176.5490  146.9180 C   0  0  0  0  0  2  0  0  0  0  0  0
  193.1950  176.0190  146.5350 C   0  0  0  0  0  2  0  0  0  0  0  0
  194.8120  177.4880  145.5720 O   0  0  0  0  0  1  0  0  0  0  0  0
  194.2540  177.0770  146.7840 C   0  0  0  0  0  2  0  0  0  0  0  0
  187.9180  174.4120  141.8420 C   0  0  0  0  0  2  0  0  0  0  0  0
  189.2310  173.9640  142.3900 C   0  0  0  0  0  0  0  0  0  0  0  0
  191.5970  172.9290  144.1560 C   0  0  0  0  0  3  0  0  0  0  0  0
  189.2610  173.5510  143.7270 O   0  0  0  0  0  0  0  0  0  0  0  0
  192.2530  173.1860  142.8740 C   0  0  0  0  0  0  0  0  0  0  0  0
  190.2650  173.9990  141.5540 C   0  0  0  0  0  3  0  0  0  0  0  0
  190.3250  173.0880  144.5070 C   0  0  0  0  0  3  0  0  0  0  0  0
  191.6650  173.6370  141.7720 C   0  0  0  0  0  3  0  0  0  0  0  0
  193.7110  172.8880  142.7960 C   0  0  0  0  0  2  0  0  0  0  0  0
  194.8280  171.5220  145.1290 C   0  0  0  0  0  2  0  0  0  0  0  0
  197.1870  173.6320  142.8720 C   0  0  0  0  0  2  0  0  0  0  0  0
  197.9390  171.4740  144.3190 S   0  0  0  0  0  0  0  0  0  0  0  0
  196.5880  172.3690  143.4790 C   0  0  1  0  0  3  0  0  0  0  0  0
  194.4320  173.6010  143.8550 N   0  0  0  0  0  0  0  0  0  0  0  0
  196.1030  174.5030  142.2510 C   0  0  1  0  0  3  0  0  0  0  0  0
  195.8490  170.6890  145.8840 C   0  0  0  0  0  2  0  0  0  0  0  0
  196.8730  170.1300  144.9170 C   0  0  0  0  0  2  0  0  0  0  0  0
  195.4680  172.7490  144.4720 C   0  0  1  0  0  3  0  0  0  0  0  0
  195.0370  174.8190  143.3020 C   0  0  0  0  0  2  0  0  0  0  0  0
  196.7040  175.7980  141.7380 C   0  0  0  0  0  2  0  0  0  0  0  0
  196.8180  176.7180  142.7810 O   0  0  0  0  0  1  0  0  0  0  0  0
  1  3  1  0  0  0  0
  2  5  1  0  0  0  0
  2  4  2  0  0  0  0
  3 10  1  1  0  0  0
  4 23  1  0  0  0  0
  4  3  1  0  0  0  0
  5  1  2  0  0  0  0
  7 10  2  0  0  0  0
  7 11  1  0  0  0  0
  8  6  1  0  0  0  0
  8 19  1  0  0  0  0
  9 12  1  0  0  0  0
  9  6  2  0  0  0  0
 10  9  1  0  0  0  0
 11  8  2  0  0  0  0
 12 13  1  0  0  0  0
 13 18  1  0  0  0  0
 14 13  2  0  0  0  0
 14 16  1  0  0  0  0
 15 17  1  0  0  0  0
 16 15  2  0  0  0  0
 18 17  2  0  0  0  0
 20 22  1  0  0  0  0
 20 19  1  0  0  0  0
 21 22  1  0  0  0  0
 23 24  1  0  0  0  0
 24 26  1  0  0  0  0
 25 29  2  0  0  0  0
 26 29  1  0  0  0  0
 27 25  1  0  0  0  0
 28 30  1  0  0  0  0
 28 24  2  0  0  0  0
 30 27  2  0  0  0  0
 31 27  1  0  0  0  0
 31 36  1  0  0  0  0
 32 38  1  0  0  0  0
 34 39  1  0  0  0  0
 35 33  1  1  0  0  0
 35 34  1  0  0  0  0
 35 40  1  0  0  0  0
 36 40  1  0  0  0  0
 37 42  1  1  0  0  0
 37 33  1  0  0  0  0
 37 41  1  0  0  0  0
 39 38  1  0  0  0  0
 40 32  1  6  0  0  0
 41 36  1  0  0  0  0
 42 43  1  0  0  0  0
M  END
>  <MODEL>
4

>  <REMARK>
 VINA RESULT:      -7.7      3.264      8.661
  Name = 
  11 active torsions:
  status: ('A' for Active; 'I' for Inactive)
    1  A    between atoms: C_1  and  C_30
    2  A    between atoms: N_2  and  C_14
    3  A    between atoms: N_2  and  C_38
    4  A    between atoms: C_3  and  C_16
    5  A    between atoms: C_3  and  C_27
    6  A    between atoms: C_8  and  C_19
    7  A    between atoms: C_8  and  C_24
    8  A    between atoms: C_21  and  C_24
    9  A    between atoms: N_23  and  C_33
   10  A    between atoms: C_25  and  C_39
   11  A    between atoms: C_28  and  C_33
                            x       y       z     vdW  Elec       q    Type
                         _______ _______ _______ _____ _____    ______ ____

>  <TORSDO>
F 11

$$$$
=
 OpenBabel11062422293D

 43 48  0  0  1  0  0  0  0  0999 V2000
  191.9110  171.2660  143.5000 N   0  0  0  0  0  0  0  0  0  0  0  0
  192.4700  171.8290  141.4660 C   0  0  0  0  0  3  0  0  0  0  0  0
  191.9310  172.6090  143.4500 C   0  0  2  0  0  3  0  0  0  0  0  0
  192.2760  173.0020  142.1700 C   0  0  0  0  0  0  0  0  0  0  0  0
  192.2230  170.7980  142.3010 N   0  0  0  0  0  0  0  0  0  0  0  0
  192.5370  174.8310  146.4750 C   0  0  0  0  0  3  0  0  0  0  0  0
  190.4150  173.7490  145.0280 C   0  0  0  0  0  3  0  0  0  0  0  0
  191.2220  175.0770  146.8780 C   0  0  0  0  0  0  0  0  0  0  0  0
  192.8090  174.0250  145.3590 C   0  0  0  0  0  0  0  0  0  0  0  0
  191.7310  173.4700  144.6330 C   0  0  0  0  0  0  0  0  0  0  0  0
  190.1600  174.5470  146.1450 C   0  0  0  0  0  3  0  0  0  0  0  0
  194.1560  173.8560  144.8870 N   0  0  0  0  0  2  0  0  0  0  0  0
  195.0450  172.7600  145.1460 C   0  0  0  0  0  0  0  0  0  0  0  0
  196.4100  172.8200  144.8340 C   0  0  0  0  0  3  0  0  0  0  0  0
  196.7150  170.6300  145.7350 N   0  0  0  0  0  0  0  0  0  0  0  0
  197.2350  171.7350  145.1360 C   0  0  0  0  0  3  0  0  0  0  0  0
  195.3950  170.5520  146.0580 C   0  0  0  0  0  3  0  0  0  0  0  0
  194.5410  171.6170  145.7710 C   0  0  0  0  0  3  0  0  0  0  0  0
  190.9540  175.9410  148.0610 C   0  0  0  0  0  2  0  0  0  0  0  0
  190.8230  177.3910  147.6300 C   0  0  0  0  0  2  0  0  0  0  0  0
  191.5710  178.2920  149.7100 O   0  0  0  0  0  1  0  0  0  0  0  0
  190.4920  178.2660  148.8250 C   0  0  0  0  0  2  0  0  0  0  0  0
  192.6210  174.3820  141.7040 C   0  0  0  0  0  2  0  0  0  0  0  0
  191.7100  175.4040  142.3000 C   0  0  0  0  0  0  0  0  0  0  0  0
  190.4250  177.8130  143.8260 C   0  0  0  0  0  3  0  0  0  0  0  0
  192.2950  176.4070  143.0810 O   0  0  0  0  0  0  0  0  0  0  0  0
  189.2590  177.1660  143.2250 C   0  0  0  0  0  0  0  0  0  0  0  0
  190.4150  175.2680  142.0320 C   0  0  0  0  0  3  0  0  0  0  0  0
  191.7100  177.4810  143.7580 C   0  0  0  0  0  3  0  0  0  0  0  0
  189.2760  176.0830  142.4570 C   0  0  0  0  0  3  0  0  0  0  0  0
  187.9350  177.8000  143.4810 C   0  0  0  0  0  2  0  0  0  0  0  0
  187.2390  176.9300  146.1850 C   0  0  0  0  0  2  0  0  0  0  0  0
  184.4380  178.3110  143.8700 C   0  0  0  0  0  2  0  0  0  0  0  0
  184.4420  178.4680  146.5700 S   0  0  0  0  0  0  0  0  0  0  0  0
  185.4190  178.3110  145.0360 C   0  0  1  0  0  3  0  0  0  0  0  0
  186.9220  176.7720  143.7400 N   0  0  0  0  0  0  0  0  0  0  0  0
  185.1610  178.0630  142.5530 C   0  0  1  0  0  3  0  0  0  0  0  0
  186.5510  177.0330  147.5350 C   0  0  0  0  0  2  0  0  0  0  0  0
  185.8860  178.3890  147.6710 C   0  0  0  0  0  2  0  0  0  0  0  0
  186.2370  177.0000  145.0280 C   0  0  1  0  0  3  0  0  0  0  0  0
  185.9480  176.7540  142.6410 C   0  0  0  0  0  2  0  0  0  0  0  0
  184.1590  177.9710  141.4170 C   0  0  0  0  0  2  0  0  0  0  0  0
  184.6060  178.7120  140.3230 O   0  0  0  0  0  1  0  0  0  0  0  0
  2  4  2  0  0  0  0
  2  5  1  0  0  0  0
  3  1  1  0  0  0  0
  3 10  1  1  0  0  0
  4  3  1  0  0  0  0
  5  1  2  0  0  0  0
  6  8  1  0  0  0  0
  7 11  1  0  0  0  0
  8 19  1  0  0  0  0
  9  6  2  0  0  0  0
 10  7  2  0  0  0  0
 10  9  1  0  0  0  0
 11  8  2  0  0  0  0
 12 13  1  0  0  0  0
 12  9  1  0  0  0  0
 13 18  1  0  0  0  0
 14 16  1  0  0  0  0
 14 13  2  0  0  0  0
 15 17  1  0  0  0  0
 16 15  2  0  0  0  0
 18 17  2  0  0  0  0
 20 19  1  0  0  0  0
 20 22  1  0  0  0  0
 22 21  1  0  0  0  0
 23  4  1  0  0  0  0
 23 24  1  0  0  0  0
 24 26  1  0  0  0  0
 26 29  1  0  0  0  0
 27 31  1  0  0  0  0
 27 25  1  0  0  0  0
 28 24  2  0  0  0  0
 28 30  1  0  0  0  0
 29 25  2  0  0  0  0
 30 27  2  0  0  0  0
 31 36  1  0  0  0  0
 32 38  1  0  0  0  0
 34 39  1  0  0  0  0
 35 33  1  6  0  0  0
 35 34  1  0  0  0  0
 36 40  1  0  0  0  0
 37 42  1  6  0  0  0
 37 41  1  0  0  0  0
 37 33  1  0  0  0  0
 38 39  1  0  0  0  0
 40 35  1  0  0  0  0
 40 32  1  1  0  0  0
 41 36  1  0  0  0  0
 43 42  1  0  0  0  0
M  END
>  <MODEL>
5

>  <REMARK>
 VINA RESULT:      -7.6      2.424      5.215
  Name = 
  11 active torsions:
  status: ('A' for Active; 'I' for Inactive)
    1  A    between atoms: C_1  and  C_30
    2  A    between atoms: N_2  and  C_14
    3  A    between atoms: N_2  and  C_38
    4  A    between atoms: C_3  and  C_16
    5  A    between atoms: C_3  and  C_27
    6  A    between atoms: C_8  and  C_19
    7  A    between atoms: C_8  and  C_24
    8  A    between atoms: C_21  and  C_24
    9  A    between atoms: N_23  and  C_33
   10  A    between atoms: C_25  and  C_39
   11  A    between atoms: C_28  and  C_33
                            x       y       z     vdW  Elec       q    Type
                         _______ _______ _______ _____ _____    ______ ____

>  <TORSDO>
F 11

$$$$
=
 OpenBabel11062422293D

 43 48  0  0  1  0  0  0  0  0999 V2000
  196.5050  174.0000  143.6700 N   0  0  0  0  0  0  0  0  0  0  0  0
  196.5340  174.9920  141.7250 C   0  0  0  0  0  3  0  0  0  0  0  0
  195.3640  174.7040  143.5640 C   0  0  2  0  0  3  0  0  0  0  0  0
  195.3470  175.3410  142.3380 C   0  0  0  0  0  0  0  0  0  0  0  0
  197.2020  174.1640  142.5560 N   0  0  0  0  0  0  0  0  0  0  0  0
  192.4950  174.0600  145.9750 C   0  0  0  0  0  3  0  0  0  0  0  0
  194.4710  175.9650  145.4880 C   0  0  0  0  0  3  0  0  0  0  0  0
  192.5690  175.2050  146.7710 C   0  0  0  0  0  0  0  0  0  0  0  0
  193.3920  173.8620  144.9130 C   0  0  0  0  0  0  0  0  0  0  0  0
  194.3860  174.8350  144.6630 C   0  0  0  0  0  0  0  0  0  0  0  0
  193.5670  176.1510  146.5360 C   0  0  0  0  0  3  0  0  0  0  0  0
  193.3780  172.6370  144.1610 N   0  0  0  0  0  2  0  0  0  0  0  0
  193.6330  171.3100  144.6420 C   0  0  0  0  0  0  0  0  0  0  0  0
  192.9490  170.1930  144.1410 C   0  0  0  0  0  3  0  0  0  0  0  0
  194.2240  168.7680  145.5710 N   0  0  0  0  0  0  0  0  0  0  0  0
  193.2590  168.9210  144.6250 C   0  0  0  0  0  3  0  0  0  0  0  0
  194.9090  169.8350  146.0660 C   0  0  0  0  0  3  0  0  0  0  0  0
  194.6260  171.1220  145.6060 C   0  0  0  0  0  3  0  0  0  0  0  0
  191.6140  175.3940  147.8980 C   0  0  0  0  0  2  0  0  0  0  0  0
  190.2980  175.9470  147.3820 C   0  0  0  0  0  2  0  0  0  0  0  0
  189.3070  173.9510  146.5240 O   0  0  0  0  0  1  0  0  0  0  0  0
  189.1990  174.9120  147.5320 C   0  0  0  0  0  2  0  0  0  0  0  0
  194.3830  176.3880  141.8720 C   0  0  0  0  0  2  0  0  0  0  0  0
  192.9720  176.0030  142.1680 C   0  0  0  0  0  0  0  0  0  0  0  0
  190.1750  174.6160  142.3700 C   0  0  0  0  0  3  0  0  0  0  0  0
  192.5050  174.8040  141.6180 O   0  0  0  0  0  0  0  0  0  0  0  0
  189.9820  175.8270  143.1680 C   0  0  0  0  0  0  0  0  0  0  0  0
  192.2790  176.8400  142.9350 C   0  0  0  0  0  3  0  0  0  0  0  0
  191.2520  174.1920  141.7160 C   0  0  0  0  0  3  0  0  0  0  0  0
  190.8950  176.7630  143.4020 C   0  0  0  0  0  3  0  0  0  0  0  0
  188.6430  176.0100  143.7940 C   0  0  0  0  0  2  0  0  0  0  0  0
  187.7050  177.7150  141.6100 C   0  0  0  0  0  2  0  0  0  0  0  0
  185.5650  177.4480  144.8450 C   0  0  0  0  0  2  0  0  0  0  0  0
  184.5900  177.9450  142.3700 S   0  0  0  0  0  0  0  0  0  0  0  0
  185.9280  177.2230  143.3810 C   0  0  1  0  0  3  0  0  0  0  0  0
  188.3580  177.4380  143.9760 N   0  0  0  0  0  0  0  0  0  0  0  0
  186.6890  176.9820  145.7600 C   0  0  1  0  0  3  0  0  0  0  0  0
  186.6780  178.2930  140.6520 C   0  0  0  0  0  2  0  0  0  0  0  0
  185.3710  177.5360  140.7820 C   0  0  0  0  0  2  0  0  0  0  0  0
  187.2840  177.8950  143.0720 C   0  0  1  0  0  3  0  0  0  0  0  0
  187.9890  177.6890  145.3750 C   0  0  0  0  0  2  0  0  0  0  0  0
  186.3510  177.3010  147.2040 C   0  0  0  0  0  2  0  0  0  0  0  0
  185.1130  177.9400  147.2760 O   0  0  0  0  0  1  0  0  0  0  0  0
  2  4  2  0  0  0  0
  2  5  1  0  0  0  0
  3  1  1  0  0  0  0
  3 10  1  1  0  0  0
  4  3  1  0  0  0  0
  5  1  2  0  0  0  0
  6  8  1  0  0  0  0
  7 11  1  0  0  0  0
  8 19  1  0  0  0  0
  9  6  2  0  0  0  0
 10  9  1  0  0  0  0
 10  7  2  0  0  0  0
 11  8  2  0  0  0  0
 12 13  1  0  0  0  0
 12  9  1  0  0  0  0
 13 18  1  0  0  0  0
 14 16  1  0  0  0  0
 14 13  2  0  0  0  0
 15 17  1  0  0  0  0
 16 15  2  0  0  0  0
 18 17  2  0  0  0  0
 20 22  1  0  0  0  0
 20 19  1  0  0  0  0
 21 22  1  0  0  0  0
 23 24  1  0  0  0  0
 23  4  1  0  0  0  0
 24 28  2  0  0  0  0
 25 27  1  0  0  0  0
 26 29  1  0  0  0  0
 26 24  1  0  0  0  0
 27 30  2  0  0  0  0
 27 31  1  0  0  0  0
 28 30  1  0  0  0  0
 29 25  2  0  0  0  0
 31 36  1  0  0  0  0
 33 37  1  0  0  0  0
 34 35  1  0  0  0  0
 35 33  1  1  0  0  0
 36 41  1  0  0  0  0
 37 42  1  1  0  0  0
 38 39  1  0  0  0  0
 38 32  1  0  0  0  0
 39 34  1  0  0  0  0
 40 32  1  6  0  0  0
 40 35  1  0  0  0  0
 40 36  1  0  0  0  0
 41 37  1  0  0  0  0
 42 43  1  0  0  0  0
M  END
>  <MODEL>
6

>  <REMARK>
 VINA RESULT:      -7.5      2.300      4.684
  Name = 
  11 active torsions:
  status: ('A' for Active; 'I' for Inactive)
    1  A    between atoms: C_1  and  C_30
    2  A    between atoms: N_2  and  C_14
    3  A    between atoms: N_2  and  C_38
    4  A    between atoms: C_3  and  C_16
    5  A    between atoms: C_3  and  C_27
    6  A    between atoms: C_8  and  C_19
    7  A    between atoms: C_8  and  C_24
    8  A    between atoms: C_21  and  C_24
    9  A    between atoms: N_23  and  C_33
   10  A    between atoms: C_25  and  C_39
   11  A    between atoms: C_28  and  C_33
                            x       y       z     vdW  Elec       q    Type
                         _______ _______ _______ _____ _____    ______ ____

>  <TORSDO>
F 11

$$$$
=
 OpenBabel11062422293D

 43 48  0  0  1  0  0  0  0  0999 V2000
  195.3890  172.7090  143.0610 N   0  0  0  0  0  0  0  0  0  0  0  0
  195.3920  173.2860  145.1660 C   0  0  0  0  0  3  0  0  0  0  0  0
  194.1170  172.9840  143.4010 C   0  0  0  0  0  0  0  0  0  0  0  0
  194.0840  173.3610  144.7300 C   0  0  0  0  0  0  0  0  0  0  0  0
  196.1570  172.9040  144.1230 N   0  0  0  0  0  2  0  0  0  0  0  0
  191.3270  173.5530  140.8810 C   0  0  0  0  0  3  0  0  0  0  0  0
  192.4330  171.4880  142.3920 C   0  0  0  0  0  3  0  0  0  0  0  0
  190.7790  172.2700  140.8140 C   0  0  0  0  0  0  0  0  0  0  0  0
  192.4200  173.8260  141.7190 C   0  0  0  0  0  0  0  0  0  0  0  0
  192.9710  172.7790  142.4920 C   0  0  0  0  0  0  0  0  0  0  0  0
  191.3420  171.2340  141.5590 C   0  0  0  0  0  3  0  0  0  0  0  0
  193.0450  175.1200  141.7100 N   0  0  0  0  0  2  0  0  0  0  0  0
  194.3620  175.4550  141.2470 C   0  0  0  0  0  0  0  0  0  0  0  0
  195.2450  176.2280  142.0130 C   0  0  0  0  0  3  0  0  0  0  0  0
  196.9120  176.0050  140.3180 N   0  0  0  0  0  0  0  0  0  0  0  0
  196.5250  176.4970  141.5260 C   0  0  0  0  0  3  0  0  0  0  0  0
  196.0770  175.2440  139.5600 C   0  0  0  0  0  3  0  0  0  0  0  0
  194.7900  174.9540  140.0150 C   0  0  0  0  0  3  0  0  0  0  0  0
  189.6260  171.9980  139.9120 C   0  0  0  0  0  2  0  0  0  0  0  0
  188.7990  173.2580  139.7260 C   0  0  0  0  0  2  0  0  0  0  0  0
  187.8240  174.6250  138.0290 O   0  0  0  0  0  1  0  0  0  0  0  0
  188.2670  173.3310  138.3060 C   0  0  0  0  0  2  0  0  0  0  0  0
  192.8720  173.5570  145.5880 C   0  0  0  0  0  2  0  0  0  0  0  0
  192.0960  174.7610  145.1720 C   0  0  0  0  0  0  0  0  0  0  0  0
  191.1320  177.6000  144.2790 C   0  0  0  0  0  3  0  0  0  0  0  0
  192.8180  175.9310  144.9090 O   0  0  0  0  0  0  0  0  0  0  0  0
  189.8740  176.8580  144.3740 C   0  0  0  0  0  0  0  0  0  0  0  0
  190.7770  174.6140  145.0860 C   0  0  0  0  0  3  0  0  0  0  0  0
  192.3760  177.1950  144.5100 C   0  0  0  0  0  3  0  0  0  0  0  0
  189.7440  175.5810  144.7150 C   0  0  0  0  0  3  0  0  0  0  0  0
  188.6300  177.6030  144.0320 C   0  0  0  0  0  2  0  0  0  0  0  0
  186.7660  177.0000  146.2050 C   0  0  0  0  0  2  0  0  0  0  0  0
  185.3680  178.3830  142.8510 C   0  0  0  0  0  2  0  0  0  0  0  0
  184.2350  178.7530  145.2790 S   0  0  0  0  0  0  0  0  0  0  0  0
  185.7520  178.4080  144.3260 C   0  0  1  0  0  3  0  0  0  0  0  0
  187.5080  176.6700  143.8710 N   0  0  0  0  0  0  0  0  0  0  0  0
  186.5550  177.9810  141.9870 C   0  0  1  0  0  3  0  0  0  0  0  0
  185.5810  177.2580  147.1190 C   0  0  0  0  0  2  0  0  0  0  0  0
  185.0560  178.6630  146.8970 C   0  0  0  0  0  2  0  0  0  0  0  0
  186.3650  177.0480  144.7270 C   0  0  1  0  0  3  0  0  0  0  0  0
  187.1000  176.6320  142.4620 C   0  0  0  0  0  2  0  0  0  0  0  0
  186.1300  177.8680  140.5350 C   0  0  0  0  0  2  0  0  0  0  0  0
  184.8260  178.3420  140.3800 O   0  0  0  0  0  1  0  0  0  0  0  0
  1  3  2  0  0  0  0
  1  5  1  0  0  0  0
  3  4  1  0  0  0  0
  4  2  2  0  0  0  0
  4 23  1  0  0  0  0
  5  2  1  0  0  0  0
  6  9  1  0  0  0  0
  7 10  1  0  0  0  0
  8  6  2  0  0  0  0
  8 11  1  0  0  0  0
  9 10  2  0  0  0  0
 10  3  1  0  0  0  0
 11  7  2  0  0  0  0
 12  9  1  0  0  0  0
 13 12  1  0  0  0  0
 13 14  1  0  0  0  0
 15 16  1  0  0  0  0
 16 14  2  0  0  0  0
 17 18  1  0  0  0  0
 17 15  2  0  0  0  0
 18 13  2  0  0  0  0
 19  8  1  0  0  0  0
 20 19  1  0  0  0  0
 21 22  1  0  0  0  0
 22 20  1  0  0  0  0
 24 23  1  0  0  0  0
 25 27  1  0  0  0  0
 25 29  2  0  0  0  0
 26 24  1  0  0  0  0
 27 30  2  0  0  0  0
 28 24  2  0  0  0  0
 29 26  1  0  0  0  0
 30 28  1  0  0  0  0
 31 27  1  0  0  0  0
 32 38  1  0  0  0  0
 34 39  1  0  0  0  0
 35 33  1  6  0  0  0
 35 40  1  0  0  0  0
 35 34  1  0  0  0  0
 36 31  1  0  0  0  0
 36 40  1  0  0  0  0
 37 42  1  6  0  0  0
 37 41  1  0  0  0  0
 37 33  1  0  0  0  0
 39 38  1  0  0  0  0
 40 32  1  1  0  0  0
 41 36  1  0  0  0  0
 43 42  1  0  0  0  0
M  END
>  <MODEL>
7

>  <REMARK>
 VINA RESULT:      -7.3      2.548      5.137
  Name = 
  11 active torsions:
  status: ('A' for Active; 'I' for Inactive)
    1  A    between atoms: C_1  and  C_30
    2  A    between atoms: N_2  and  C_14
    3  A    between atoms: N_2  and  C_38
    4  A    between atoms: C_3  and  C_16
    5  A    between atoms: C_3  and  C_27
    6  A    between atoms: C_8  and  C_19
    7  A    between atoms: C_8  and  C_24
    8  A    between atoms: C_21  and  C_24
    9  A    between atoms: N_23  and  C_33
   10  A    between atoms: C_25  and  C_39
   11  A    between atoms: C_28  and  C_33
                            x       y       z     vdW  Elec       q    Type
                         _______ _______ _______ _____ _____    ______ ____

>  <TORSDO>
F 11

$$$$
=
 OpenBabel11062422293D

 43 48  0  0  1  0  0  0  0  0999 V2000
  188.1410  178.1960  141.9440 N   0  0  0  0  0  0  0  0  0  0  0  0
  187.0390  176.6700  140.8380 C   0  0  0  0  0  3  0  0  0  0  0  0
  188.5960  177.0000  142.3550 C   0  0  2  0  0  3  0  0  0  0  0  0
  187.9220  176.0080  141.6680 C   0  0  0  0  0  0  0  0  0  0  0  0
  187.2130  177.9960  141.0200 N   0  0  0  0  0  0  0  0  0  0  0  0
  190.1570  176.4400  145.7760 C   0  0  0  0  0  3  0  0  0  0  0  0
  190.9330  176.9180  143.1430 C   0  0  0  0  0  3  0  0  0  0  0  0
  191.5130  176.5570  145.4600 C   0  0  0  0  0  0  0  0  0  0  0  0
  189.1720  176.5820  144.7860 C   0  0  0  0  0  0  0  0  0  0  0  0
  189.5690  176.8350  143.4540 C   0  0  0  0  0  0  0  0  0  0  0  0
  191.9010  176.7810  144.1400 C   0  0  0  0  0  3  0  0  0  0  0  0
  187.7850  176.3610  145.0940 N   0  0  0  0  0  2  0  0  0  0  0  0
  186.8870  177.2490  145.7760 C   0  0  0  0  0  0  0  0  0  0  0  0
  186.7390  177.2300  147.1700 C   0  0  0  0  0  3  0  0  0  0  0  0
  185.1840  179.0360  147.0310 N   0  0  0  0  0  0  0  0  0  0  0  0
  185.8730  178.1370  147.7830 C   0  0  0  0  0  3  0  0  0  0  0  0
  185.3180  179.0820  145.6770 C   0  0  0  0  0  3  0  0  0  0  0  0
  186.1740  178.1900  145.0300 C   0  0  0  0  0  3  0  0  0  0  0  0
  192.5430  176.3940  146.5230 C   0  0  0  0  0  2  0  0  0  0  0  0
  193.5170  175.2920  146.1440 C   0  0  0  0  0  2  0  0  0  0  0  0
  194.9310  177.2000  145.8950 O   0  0  0  0  0  1  0  0  0  0  0  0
  194.9370  175.8260  146.1410 C   0  0  0  0  0  2  0  0  0  0  0  0
  187.9480  174.5360  141.9410 C   0  0  0  0  0  2  0  0  0  0  0  0
  189.3400  174.0430  142.1530 C   0  0  0  0  0  0  0  0  0  0  0  0
  192.0090  172.8530  143.2720 C   0  0  0  0  0  3  0  0  0  0  0  0
  189.6460  173.5060  143.4100 O   0  0  0  0  0  0  0  0  0  0  0  0
  192.3820  173.2320  141.9090 C   0  0  0  0  0  0  0  0  0  0  0  0
  190.1730  174.1590  141.1230 C   0  0  0  0  0  3  0  0  0  0  0  0
  190.8430  172.9760  143.8980 C   0  0  0  0  0  3  0  0  0  0  0  0
  191.5820  173.7830  141.0040 C   0  0  0  0  0  3  0  0  0  0  0  0
  193.7850  172.9470  141.4950 C   0  0  0  0  0  2  0  0  0  0  0  0
  194.7540  175.6500  142.0540 C   0  0  0  0  0  2  0  0  0  0  0  0
  197.0220  173.2120  140.0480 C   0  0  0  0  0  2  0  0  0  0  0  0
  197.9110  175.2160  141.6320 S   0  0  0  0  0  0  0  0  0  0  0  0
  196.5690  174.0420  141.2440 C   0  0  1  0  0  3  0  0  0  0  0  0
  194.1980  173.8700  140.4330 N   0  0  0  0  0  0  0  0  0  0  0  0
  195.9100  172.2830  139.5790 C   0  0  1  0  0  3  0  0  0  0  0  0
  195.7770  176.6920  142.4710 C   0  0  0  0  0  2  0  0  0  0  0  0
  197.0200  176.0070  143.0040 C   0  0  0  0  0  2  0  0  0  0  0  0
  195.2610  174.7850  140.8950 C   0  0  1  0  0  3  0  0  0  0  0  0
  194.6560  173.1030  139.2680 C   0  0  0  0  0  2  0  0  0  0  0  0
  196.3450  171.5370  138.3320 C   0  0  0  0  0  2  0  0  0  0  0  0
  195.6500  172.0170  137.2200 O   0  0  0  0  0  1  0  0  0  0  0  0
  1  3  1  0  0  0  0
  2  5  1  0  0  0  0
  2  4  2  0  0  0  0
  3 10  1  1  0  0  0
  4 23  1  0  0  0  0
  4  3  1  0  0  0  0
  5  1  2  0  0  0  0
  7 10  2  0  0  0  0
  7 11  1  0  0  0  0
  8  6  1  0  0  0  0
  8 19  1  0  0  0  0
  9 12  1  0  0  0  0
  9  6  2  0  0  0  0
 10  9  1  0  0  0  0
 11  8  2  0  0  0  0
 12 13  1  0  0  0  0
 13 14  1  0  0  0  0
 14 16  2  0  0  0  0
 15 16  1  0  0  0  0
 17 15  2  0  0  0  0
 18 17  1  0  0  0  0
 18 13  2  0  0  0  0
 20 19  1  0  0  0  0
 21 22  1  0  0  0  0
 22 20  1  0  0  0  0
 23 24  1  0  0  0  0
 24 26  1  0  0  0  0
 25 29  2  0  0  0  0
 26 29  1  0  0  0  0
 27 25  1  0  0  0  0
 28 24  2  0  0  0  0
 30 28  1  0  0  0  0
 30 27  2  0  0  0  0
 31 27  1  0  0  0  0
 32 38  1  0  0  0  0
 34 39  1  0  0  0  0
 35 33  1  6  0  0  0
 35 34  1  0  0  0  0
 36 40  1  0  0  0  0
 36 31  1  0  0  0  0
 37 42  1  6  0  0  0
 37 33  1  0  0  0  0
 38 39  1  0  0  0  0
 40 35  1  0  0  0  0
 40 32  1  1  0  0  0
 41 37  1  0  0  0  0
 41 36  1  0  0  0  0
 43 42  1  0  0  0  0
M  END
>  <MODEL>
8

>  <REMARK>
 VINA RESULT:      -7.1      3.861      8.503
  Name = 
  11 active torsions:
  status: ('A' for Active; 'I' for Inactive)
    1  A    between atoms: C_1  and  C_30
    2  A    between atoms: N_2  and  C_14
    3  A    between atoms: N_2  and  C_38
    4  A    between atoms: C_3  and  C_16
    5  A    between atoms: C_3  and  C_27
    6  A    between atoms: C_8  and  C_19
    7  A    between atoms: C_8  and  C_24
    8  A    between atoms: C_21  and  C_24
    9  A    between atoms: N_23  and  C_33
   10  A    between atoms: C_25  and  C_39
   11  A    between atoms: C_28  and  C_33
                            x       y       z     vdW  Elec       q    Type
                         _______ _______ _______ _____ _____    ______ ____

>  <TORSDO>
F 11

$$$$
=
 OpenBabel11062422293D

 43 48  0  0  1  0  0  0  0  0999 V2000
  194.1610  174.9700  146.2270 N   0  0  0  0  0  0  0  0  0  0  0  0
  194.2600  176.9100  145.2310 C   0  0  0  0  0  3  0  0  0  0  0  0
  193.8700  174.7670  144.9300 C   0  0  0  0  0  0  0  0  0  0  0  0
  193.9300  175.9790  144.2660 C   0  0  0  0  0  0  0  0  0  0  0  0
  194.4080  176.2600  146.4030 N   0  0  0  0  0  2  0  0  0  0  0  0
  193.8450  171.3770  143.2100 C   0  0  0  0  0  3  0  0  0  0  0  0
  192.1120  173.0710  144.5860 C   0  0  0  0  0  3  0  0  0  0  0  0
  192.5080  171.0120  143.3860 C   0  0  0  0  0  0  0  0  0  0  0  0
  194.3270  172.6010  143.6990 C   0  0  0  0  0  0  0  0  0  0  0  0
  193.4430  173.4620  144.3880 C   0  0  0  0  0  0  0  0  0  0  0  0
  191.6450  171.8530  144.0870 C   0  0  0  0  0  3  0  0  0  0  0  0
  195.7240  172.9290  143.6060 N   0  0  0  0  0  2  0  0  0  0  0  0
  196.3520  173.8330  142.6850 C   0  0  0  0  0  0  0  0  0  0  0  0
  196.0360  173.8430  141.3200 C   0  0  0  0  0  3  0  0  0  0  0  0
  197.5570  175.6520  140.9790 N   0  0  0  0  0  0  0  0  0  0  0  0
  196.6570  174.7660  140.4750 C   0  0  0  0  0  3  0  0  0  0  0  0
  197.8740  175.6690  142.3020 C   0  0  0  0  0  3  0  0  0  0  0  0
  197.2730  174.7620  143.1760 C   0  0  0  0  0  3  0  0  0  0  0  0
  192.0170  169.7050  142.8670 C   0  0  0  0  0  2  0  0  0  0  0  0
  190.8230  169.9200  141.9530 C   0  0  0  0  0  2  0  0  0  0  0  0
  192.2850  169.9420  140.0670 O   0  0  0  0  0  1  0  0  0  0  0  0
  191.2520  170.6430  140.6900 C   0  0  0  0  0  2  0  0  0  0  0  0
  193.4840  176.2710  142.8670 C   0  0  0  0  0  2  0  0  0  0  0  0
  191.9980  176.3710  142.7760 C   0  0  0  0  0  0  0  0  0  0  0  0
  188.9400  175.9060  142.3050 C   0  0  0  0  0  3  0  0  0  0  0  0
  191.3110  175.2680  142.2570 O   0  0  0  0  0  0  0  0  0  0  0  0
  188.9690  177.2590  142.8620 C   0  0  0  0  0  0  0  0  0  0  0  0
  191.4550  177.5090  143.2000 C   0  0  0  0  0  3  0  0  0  0  0  0
  189.9430  175.0710  142.0520 C   0  0  0  0  0  3  0  0  0  0  0  0
  190.0530  177.9240  143.2440 C   0  0  0  0  0  3  0  0  0  0  0  0
  187.6550  177.9380  143.0390 C   0  0  0  0  0  2  0  0  0  0  0  0
  186.9110  177.0240  145.7160 C   0  0  0  0  0  2  0  0  0  0  0  0
  184.1810  178.5870  143.4320 C   0  0  0  0  0  2  0  0  0  0  0  0
  184.1800  178.6680  146.1360 S   0  0  0  0  0  0  0  0  0  0  0  0
  185.1560  178.5120  144.6010 C   0  0  1  0  0  3  0  0  0  0  0  0
  186.5970  176.9470  143.2660 N   0  0  0  0  0  0  0  0  0  0  0  0
  184.8980  178.3440  142.1100 C   0  0  1  0  0  3  0  0  0  0  0  0
  186.2220  177.1180  147.0660 C   0  0  0  0  0  2  0  0  0  0  0  0
  185.6150  178.4970  147.2370 C   0  0  0  0  0  2  0  0  0  0  0  0
  185.9180  177.1690  144.5580 C   0  0  1  0  0  3  0  0  0  0  0  0
  185.6290  177.0020  142.1640 C   0  0  0  0  0  2  0  0  0  0  0  0
  183.8980  178.3270  140.9700 C   0  0  0  0  0  2  0  0  0  0  0  0
  182.6480  177.9160  141.4360 O   0  0  0  0  0  1  0  0  0  0  0  0
  1  5  1  0  0  0  0
  2  5  1  0  0  0  0
  3  1  2  0  0  0  0
  4  3  1  0  0  0  0
  4  2  2  0  0  0  0
  6  8  2  0  0  0  0
  6  9  1  0  0  0  0
  8 11  1  0  0  0  0
  9 10  2  0  0  0  0
 10  7  1  0  0  0  0
 10  3  1  0  0  0  0
 11  7  2  0  0  0  0
 12  9  1  0  0  0  0
 13 18  1  0  0  0  0
 13 12  1  0  0  0  0
 14 13  2  0  0  0  0
 15 17  1  0  0  0  0
 16 15  2  0  0  0  0
 16 14  1  0  0  0  0
 17 18  2  0  0  0  0
 19  8  1  0  0  0  0
 20 19  1  0  0  0  0
 21 22  1  0  0  0  0
 22 20  1  0  0  0  0
 23  4  1  0  0  0  0
 24 23  1  0  0  0  0
 24 28  2  0  0  0  0
 25 27  1  0  0  0  0
 26 24  1  0  0  0  0
 27 31  1  0  0  0  0
 27 30  2  0  0  0  0
 28 30  1  0  0  0  0
 29 26  1  0  0  0  0
 29 25  2  0  0  0  0
 31 36  1  0  0  0  0
 32 38  1  0  0  0  0
 34 39  1  0  0  0  0
 35 33  1  6  0  0  0
 35 34  1  0  0  0  0
 36 40  1  0  0  0  0
 37 42  1  6  0  0  0
 37 41  1  0  0  0  0
 37 33  1  0  0  0  0
 38 39  1  0  0  0  0
 40 35  1  0  0  0  0
 40 32  1  1  0  0  0
 41 36  1  0  0  0  0
 42 43  1  0  0  0  0
M  END
>  <MODEL>
9

>  <REMARK>
 VINA RESULT:      -7.1      2.886      4.337
  Name = 
  11 active torsions:
  status: ('A' for Active; 'I' for Inactive)
    1  A    between atoms: C_1  and  C_30
    2  A    between atoms: N_2  and  C_14
    3  A    between atoms: N_2  and  C_38
    4  A    between atoms: C_3  and  C_16
    5  A    between atoms: C_3  and  C_27
    6  A    between atoms: C_8  and  C_19
    7  A    between atoms: C_8  and  C_24
    8  A    between atoms: C_21  and  C_24
    9  A    between atoms: N_23  and  C_33
   10  A    between atoms: C_25  and  C_39
   11  A    between atoms: C_28  and  C_33
                            x       y       z     vdW  Elec       q    Type
                         _______ _______ _______ _____ _____    ______ ____

>  <TORSDO>
F 11

$$$$
