=
 OpenBabel11072408533D

 60 63  0  0  1  0  0  0  0  0999 V2000
  187.6610  175.6470  141.7420 C   0  0  0  0  0  2  0  0  0  0  0  0
  186.8940  178.1350  142.9540 C   0  0  0  0  0  1  0  0  0  0  0  0
  189.2470  173.7570  137.2170 O   0  0  0  0  0  0  0  0  0  0  0  0
  192.4900  174.1530  143.2710 C   0  0  0  0  0  3  0  0  0  0  0  0
  188.1590  177.3300  143.2210 C   0  0  1  0  0  3  0  0  0  0  0  0
  193.6020  173.7590  142.7010 C   0  0  0  0  0  0  0  0  0  0  0  0
  192.5880  173.6510  136.7300 C   0  0  2  0  0  3  0  0  0  0  0  0
  187.9600  175.9350  143.0870 O   0  0  0  0  0  0  0  0  0  0  0  0
  194.7110  173.3690  142.1280 C   0  0  0  0  0  0  0  0  0  0  0  0
  194.7550  174.5560  137.8400 C   0  0  1  0  0  3  0  0  0  0  0  0
  189.4620  173.3450  139.4780 O   0  0  0  0  0  0  0  0  0  0  0  0
  195.7780  173.6010  138.4330 C   0  0  0  0  0  2  0  0  0  0  0  0
  188.3090  174.3400  141.3370 C   0  0  1  0  0  3  0  0  0  0  0  0
  195.3720  175.7320  137.4520 F   0  0  0  0  0  0  0  0  0  0  0  0
  192.2690  172.7280  137.9080 C   0  0  0  0  0  2  0  0  0  0  0  0
  194.0590  173.9230  136.6730 C   0  0  0  0  0  0  0  0  0  0  0  0
  187.4370  173.2930  141.6280 O   0  0  0  0  0  1  0  0  0  0  0  0
  190.6550  177.5230  143.1000 C   0  0  0  0  0  2  0  0  0  0  0  0
  189.8060  173.1120  138.1490 C   0  0  0  0  0  0  0  0  0  0  0  0
  192.2010  175.5770  143.6660 C   0  0  2  0  0  0  0  0  0  0  0  0
  194.6820  173.6440  135.6600 O   0  0  0  0  0  0  0  0  0  0  0  0
  191.9000  174.8580  136.8580 O   0  0  0  0  0  1  0  0  0  0  0  0
  191.0930  176.1030  142.7510 C   0  0  0  0  0  2  0  0  0  0  0  0
  194.7070  173.1140  140.6520 C   0  0  1  0  0  3  0  0  0  0  0  0
  188.5540  174.3720  139.8430 C   0  0  0  0  0  2  0  0  0  0  0  0
  193.4340  176.4760  143.5620 C   0  0  0  0  0  1  0  0  0  0  0  0
  195.8740  173.7980  139.9390 C   0  0  0  0  0  2  0  0  0  0  0  0
  189.3440  177.8620  142.4160 C   0  0  0  0  0  2  0  0  0  0  0  0
  190.8710  172.1110  137.8400 C   0  0  1  0  0  3  0  0  0  0  0  0
  191.7160  175.5740  145.0790 C   0  0  0  0  0  0  0  0  0  0  0  0
  191.9990  175.6410  146.4200 O   0  0  0  0  0  0  0  0  0  0  0  0
  190.7040  175.5220  145.9800 C   0  0  0  0  0  0  0  0  0  0  0  0
  189.1410  177.6430  146.9690 O   0  0  0  0  0  0  0  0  0  0  0  0
  189.3130  175.4220  146.2710 N   0  0  0  0  0  2  0  0  0  0  0  0
  188.5660  176.5450  146.7440 C   0  0  0  0  0  0  0  0  0  0  0  0
  187.1630  176.4090  146.9710 N   0  0  0  0  0  2  0  0  0  0  0  0
  184.9690  177.4280  146.8900 C   0  0  0  0  0  2  0  0  0  0  0  0
  185.9710  178.4170  146.3370 C   0  0  0  0  0  2  0  0  0  0  0  0
  186.3630  177.5090  147.4820 C   0  0  0  0  0  3  0  0  0  0  0  0
  194.6140  171.7370  140.3550 O   0  0  0  0  0  0  0  0  0  0  0  0
  193.3840  171.3580  140.6520 O   0  0  0  0  0  1  0  0  0  0  0  0
  190.6490  171.4870  136.6040 O   0  0  0  0  0  0  0  0  0  0  0  0
  192.0010  170.2740  135.2420 F   0  0  0  0  0  0  0  0  0  0  0  0
  191.5830  170.4440  136.5530 C   0  0  2  0  0  3  0  0  0  0  0  0
  191.1250  168.1660  136.1070 F   0  0  0  0  0  0  0  0  0  0  0  0
  190.9800  169.1410  137.0790 C   0  0  0  0  0  0  0  0  0  0  0  0
  189.6280  169.3170  137.3340 F   0  0  0  0  0  0  0  0  0  0  0  0
  192.9770  169.1820  138.4090 F   0  0  0  0  0  0  0  0  0  0  0  0
  191.6950  168.6710  138.3450 C   0  0  0  0  0  3  0  0  0  0  0  0
  190.9920  169.0820  139.4610 F   0  0  0  0  0  0  0  0  0  0  0  0
  195.8920  173.1700  142.8590 O   0  0  0  0  0  0  0  0  0  0  0  0
  195.8560  171.2620  146.1100 C   0  0  0  0  0  2  0  0  0  0  0  0
  196.1150  172.0720  143.7430 C   0  0  1  0  0  3  0  0  0  0  0  0
  195.6240  172.4300  145.1500 C   0  0  2  0  0  3  0  0  0  0  0  0
  195.1490  170.0060  145.6010 C   0  0  0  0  0  2  0  0  0  0  0  0
  195.6340  169.6560  144.1980 C   0  0  0  0  0  2  0  0  0  0  0  0
  195.3800  170.8250  143.2500 C   0  0  0  0  0  2  0  0  0  0  0  0
  195.5330  174.8280  145.8150 O   0  0  0  0  0  0  0  0  0  0  0  0
  196.2840  173.6690  145.6670 C   0  0  0  0  0  0  0  0  0  0  0  0
  197.5120  173.6770  145.9520 O   0  0  0  0  0  1  0  0  0  0  0  0
  1  8  1  0  0  0  0
  3 19  2  0  0  0  0
  4 20  1  0  0  0  0
  5  2  1  6  0  0  0
  6  4  2  0  0  0  0
  7 22  1  1  0  0  0
  7 15  1  0  0  0  0
  8  5  1  0  0  0  0
  9  6  2  0  0  0  0
  9 51  1  0  0  0  0
 10 14  1  6  0  0  0
 10 12  1  0  0  0  0
 11 25  1  0  0  0  0
 12 27  1  0  0  0  0
 13 17  1  6  0  0  0
 13  1  1  0  0  0  0
 16  7  1  0  0  0  0
 16 10  1  0  0  0  0
 19 11  1  0  0  0  0
 20 26  1  6  0  0  0
 20 30  1  0  0  0  0
 21 16  2  0  0  0  0
 23 18  1  0  0  0  0
 23 20  1  0  0  0  0
 24 40  1  1  0  0  0
 24  9  1  0  0  0  0
 25 13  1  0  0  0  0
 27 24  1  0  0  0  0
 28 18  1  0  0  0  0
 28  5  1  0  0  0  0
 29 42  1  6  0  0  0
 29 15  1  0  0  0  0
 29 19  1  0  0  0  0
 30 32  2  0  0  0  0
 30 31  1  0  0  0  0
 32 34  1  0  0  0  0
 32 31  1  0  0  0  0
 34 35  1  0  0  0  0
 35 33  2  0  0  0  0
 35 36  1  0  0  0  0
 36 39  1  0  0  0  0
 37 39  1  0  0  0  0
 38 37  1  0  0  0  0
 38 39  1  0  0  0  0
 40 41  1  0  0  0  0
 44 43  1  6  0  0  0
 44 42  1  0  0  0  0
 44 46  1  0  0  0  0
 45 46  1  0  0  0  0
 46 47  1  0  0  0  0
 46 49  1  0  0  0  0
 49 48  1  0  0  0  0
 49 50  1  0  0  0  0
 53 51  1  6  0  0  0
 53 54  1  0  0  0  0
 54 59  1  1  0  0  0
 54 52  1  0  0  0  0
 55 52  1  0  0  0  0
 56 55  1  0  0  0  0
 57 53  1  0  0  0  0
 57 56  1  0  0  0  0
 59 58  2  0  0  0  0
 59 60  1  0  0  0  0
M  END
>  <MODEL>
1

>  <REMARK>
 VINA RESULT:      -7.7      0.000      0.000
  Name = 
  11 active torsions:
  status: ('A' for Active; 'I' for Inactive)
    1  A    between atoms: C_6  and  O_39
    2  A    between atoms: C_13  and  O_39
    3  A    between atoms: O_17  and  C_48
    4  A    between atoms: C_20  and  C_44
    5  A    between atoms: C_21  and  C_34
    6  A    between atoms: O_25  and  C_28
    7  A    between atoms: O_25  and  C_60
    8  A    between atoms: C_28  and  C_34
    9  A    between atoms: C_33  and  C_38
   10  A    between atoms: N_40  and  C_57
   11  A    between atoms: C_53  and  N_55
                            x       y       z     vdW  Elec       q    Type
                         _______ _______ _______ _____ _____    ______ ____

>  <TORSDO>
F 11

$$$$
=
 OpenBabel11072408533D

 60 63  0  0  1  0  0  0  0  0999 V2000
  196.6950  174.2150  143.6430 C   0  0  0  0  0  2  0  0  0  0  0  0
  197.0490  173.7480  146.4540 C   0  0  0  0  0  1  0  0  0  0  0  0
  196.6490  171.6590  139.1680 O   0  0  0  0  0  0  0  0  0  0  0  0
  191.6180  175.0260  142.4360 C   0  0  0  0  0  3  0  0  0  0  0  0
  195.7590  174.1220  145.7360 C   0  0  1  0  0  3  0  0  0  0  0  0
  190.7480  174.5660  141.5710 C   0  0  0  0  0  0  0  0  0  0  0  0
  193.6460  170.5030  138.1380 C   0  0  2  0  0  3  0  0  0  0  0  0
  195.9780  174.9470  144.6080 O   0  0  0  0  0  0  0  0  0  0  0  0
  189.8820  174.1010  140.7080 C   0  0  0  0  0  0  0  0  0  0  0  0
  191.2440  170.1920  139.0770 C   0  0  1  0  0  3  0  0  0  0  0  0
  195.7070  173.5250  140.1480 O   0  0  0  0  0  0  0  0  0  0  0  0
  190.0760  170.9620  138.4840 C   0  0  0  0  0  2  0  0  0  0  0  0
  196.2030  174.5680  142.2550 C   0  0  1  0  0  3  0  0  0  0  0  0
  190.7970  169.0110  139.6420 F   0  0  0  0  0  0  0  0  0  0  0  0
  193.5570  172.0290  138.1810 C   0  0  0  0  0  2  0  0  0  0  0  0
  192.2770  169.9100  138.0270 C   0  0  0  0  0  0  0  0  0  0  0  0
  196.9230  175.6630  141.7830 O   0  0  0  0  0  1  0  0  0  0  0  0
  193.4390  173.2660  145.3230 C   0  0  0  0  0  2  0  0  0  0  0  0
  195.8120  172.6040  139.1090 C   0  0  0  0  0  0  0  0  0  0  0  0
  191.7760  174.5000  143.8380 C   0  0  2  0  0  0  0  0  0  0  0  0
  192.0140  169.1780  137.0850 O   0  0  0  0  0  0  0  0  0  0  0  0
  194.2660  170.0200  139.2910 O   0  0  0  0  0  1  0  0  0  0  0  0
  193.1260  173.7850  143.9220 C   0  0  0  0  0  2  0  0  0  0  0  0
  190.3640  173.1760  139.6330 C   0  0  1  0  0  3  0  0  0  0  0  0
  196.4570  173.3850  141.3450 C   0  0  0  0  0  2  0  0  0  0  0  0
  190.6520  173.5420  144.2340 C   0  0  0  0  0  1  0  0  0  0  0  0
  189.4980  171.9220  139.5130 C   0  0  0  0  0  2  0  0  0  0  0  0
  194.9050  172.8890  145.4390 C   0  0  0  0  0  2  0  0  0  0  0  0
  194.8960  172.7270  137.9350 C   0  0  1  0  0  3  0  0  0  0  0  0
  191.7760  175.6670  144.7700 C   0  0  0  0  0  0  0  0  0  0  0  0
  192.4710  176.5060  145.6050 O   0  0  0  0  0  0  0  0  0  0  0  0
  191.1240  176.6770  145.3980 C   0  0  0  0  0  0  0  0  0  0  0  0
  188.8600  175.5780  146.6550 O   0  0  0  0  0  0  0  0  0  0  0  0
  189.9250  177.4000  145.6580 N   0  0  0  0  0  2  0  0  0  0  0  0
  188.8180  176.7950  146.3290 C   0  0  0  0  0  0  0  0  0  0  0  0
  187.6580  177.5750  146.6160 N   0  0  0  0  0  2  0  0  0  0  0  0
  185.3240  177.0170  146.3000 C   0  0  0  0  0  2  0  0  0  0  0  0
  185.4180  178.0570  147.3940 C   0  0  0  0  0  2  0  0  0  0  0  0
  186.4920  177.0000  147.2660 C   0  0  0  0  0  3  0  0  0  0  0  0
  190.5360  173.8440  138.4010 O   0  0  0  0  0  0  0  0  0  0  0  0
  191.8200  174.1300  138.2910 O   0  0  0  0  0  1  0  0  0  0  0  0
  195.5020  172.2660  136.7580 O   0  0  0  0  0  0  0  0  0  0  0  0
  195.1570  173.2120  134.7220 F   0  0  0  0  0  0  0  0  0  0  0  0
  195.7020  173.4150  135.9800 C   0  0  2  0  0  3  0  0  0  0  0  0
  197.5320  173.7240  134.5130 F   0  0  0  0  0  0  0  0  0  0  0  0
  197.1920  173.7390  135.8550 C   0  0  0  0  0  0  0  0  0  0  0  0
  197.9410  172.7760  136.5140 F   0  0  0  0  0  0  0  0  0  0  0  0
  196.9830  176.1180  135.6150 F   0  0  0  0  0  0  0  0  0  0  0  0
  197.5060  175.1240  136.4190 C   0  0  0  0  0  3  0  0  0  0  0  0
  196.9730  175.2470  137.6880 F   0  0  0  0  0  0  0  0  0  0  0  0
  188.5260  174.4580  140.7550 O   0  0  0  0  0  0  0  0  0  0  0  0
  186.2970  177.4980  140.7670 C   0  0  0  0  0  2  0  0  0  0  0  0
  188.0450  175.7360  141.1710 C   0  0  1  0  0  3  0  0  0  0  0  0
  186.8250  176.1300  140.3320 C   0  0  2  0  0  3  0  0  0  0  0  0
  185.9410  177.4840  142.2530 C   0  0  0  0  0  2  0  0  0  0  0  0
  187.1550  177.0840  143.0850 C   0  0  0  0  0  2  0  0  0  0  0  0
  187.6570  175.7110  142.6510 C   0  0  0  0  0  2  0  0  0  0  0  0
  187.5090  174.9450  138.2520 O   0  0  0  0  0  1  0  0  0  0  0  0
  187.1380  176.1330  138.8690 C   0  0  0  0  0  0  0  0  0  0  0  0
  187.0870  177.1990  138.1980 O   0  0  0  0  0  0  0  0  0  0  0  0
  1  8  1  0  0  0  0
  4 20  1  0  0  0  0
  5  2  1  6  0  0  0
  6  4  2  0  0  0  0
  7 15  1  0  0  0  0
  7 22  1  1  0  0  0
  8  5  1  0  0  0  0
  9 51  1  0  0  0  0
  9  6  2  0  0  0  0
 10 14  1  6  0  0  0
 11 25  1  0  0  0  0
 12 10  1  0  0  0  0
 12 27  1  0  0  0  0
 13 17  1  6  0  0  0
 13  1  1  0  0  0  0
 16  7  1  0  0  0  0
 16 10  1  0  0  0  0
 18 28  1  0  0  0  0
 19  3  2  0  0  0  0
 19 11  1  0  0  0  0
 20 23  1  0  0  0  0
 20 26  1  1  0  0  0
 20 30  1  0  0  0  0
 21 16  2  0  0  0  0
 23 18  1  0  0  0  0
 24 40  1  6  0  0  0
 24  9  1  0  0  0  0
 25 13  1  0  0  0  0
 27 24  1  0  0  0  0
 28  5  1  0  0  0  0
 29 42  1  6  0  0  0
 29 15  1  0  0  0  0
 29 19  1  0  0  0  0
 30 32  2  0  0  0  0
 30 31  1  0  0  0  0
 32 31  1  0  0  0  0
 32 34  1  0  0  0  0
 34 35  1  0  0  0  0
 35 36  1  0  0  0  0
 35 33  2  0  0  0  0
 36 39  1  0  0  0  0
 37 39  1  0  0  0  0
 37 38  1  0  0  0  0
 39 38  1  0  0  0  0
 41 40  1  0  0  0  0
 44 43  1  6  0  0  0
 44 42  1  0  0  0  0
 45 46  1  0  0  0  0
 46 44  1  0  0  0  0
 46 49  1  0  0  0  0
 46 47  1  0  0  0  0
 48 49  1  0  0  0  0
 49 50  1  0  0  0  0
 52 55  1  0  0  0  0
 53 51  1  6  0  0  0
 53 57  1  0  0  0  0
 54 59  1  6  0  0  0
 54 52  1  0  0  0  0
 54 53  1  0  0  0  0
 55 56  1  0  0  0  0
 57 56  1  0  0  0  0
 58 59  1  0  0  0  0
 60 59  2  0  0  0  0
M  END
>  <MODEL>
2

>  <REMARK>
 VINA RESULT:      -6.9      1.995      7.082
  Name = 
  11 active torsions:
  status: ('A' for Active; 'I' for Inactive)
    1  A    between atoms: C_6  and  O_39
    2  A    between atoms: C_13  and  O_39
    3  A    between atoms: O_17  and  C_48
    4  A    between atoms: C_20  and  C_44
    5  A    between atoms: C_21  and  C_34
    6  A    between atoms: O_25  and  C_28
    7  A    between atoms: O_25  and  C_60
    8  A    between atoms: C_28  and  C_34
    9  A    between atoms: C_33  and  C_38
   10  A    between atoms: N_40  and  C_57
   11  A    between atoms: C_53  and  N_55
                            x       y       z     vdW  Elec       q    Type
                         _______ _______ _______ _____ _____    ______ ____

>  <TORSDO>
F 11

$$$$
=
 OpenBabel11072408533D

 60 63  0  0  1  0  0  0  0  0999 V2000
  191.4470  176.7660  145.6200 C   0  0  0  0  0  2  0  0  0  0  0  0
  189.2040  177.5020  147.2560 C   0  0  0  0  0  1  0  0  0  0  0  0
  195.2530  173.2960  145.4270 O   0  0  0  0  0  0  0  0  0  0  0  0
  189.9070  174.2950  141.2140 C   0  0  0  0  0  3  0  0  0  0  0  0
  189.1680  176.8710  145.8690 C   0  0  1  0  0  3  0  0  0  0  0  0
  190.2040  173.1910  140.5750 C   0  0  0  0  0  0  0  0  0  0  0  0
  194.6000  170.4560  143.7190 C   0  0  2  0  0  3  0  0  0  0  0  0
  190.2570  177.2670  145.0580 O   0  0  0  0  0  0  0  0  0  0  0  0
  190.5030  172.0860  139.9420 C   0  0  0  0  0  0  0  0  0  0  0  0
  192.5670  169.2340  142.6620 C   0  0  1  0  0  3  0  0  0  0  0  0
  193.9460  174.5680  144.0110 O   0  0  0  0  0  0  0  0  0  0  0  0
  192.4890  169.0180  141.1600 C   0  0  0  0  0  2  0  0  0  0  0  0
  192.3940  176.3290  144.5220 C   0  0  1  0  0  3  0  0  0  0  0  0
  191.8430  168.2550  143.3210 F   0  0  0  0  0  0  0  0  0  0  0  0
  194.5310  171.6140  142.7220 C   0  0  0  0  0  2  0  0  0  0  0  0
  193.9930  169.2250  143.1230 C   0  0  0  0  0  0  0  0  0  0  0  0
  193.1760  177.4160  144.1380 O   0  0  0  0  0  1  0  0  0  0  0  0
  188.3350  174.8300  144.6770 C   0  0  0  0  0  2  0  0  0  0  0  0
  194.8860  173.5670  144.2490 C   0  0  0  0  0  0  0  0  0  0  0  0
  188.7760  174.4230  142.2000 C   0  0  2  0  0  0  0  0  0  0  0  0
  194.6640  168.2080  143.0320 O   0  0  0  0  0  0  0  0  0  0  0  0
  193.9200  170.7830  144.8920 O   0  0  0  0  0  1  0  0  0  0  0  0
  189.3850  174.6130  143.5910 C   0  0  0  0  0  2  0  0  0  0  0  0
  191.6650  171.2730  140.4220 C   0  0  1  0  0  3  0  0  0  0  0  0
  193.2970  175.2460  145.0740 C   0  0  0  0  0  2  0  0  0  0  0  0
  187.8550  173.2030  142.1970 C   0  0  0  0  0  1  0  0  0  0  0  0
  191.3170  169.7910  140.5750 C   0  0  0  0  0  2  0  0  0  0  0  0
  188.9780  175.3560  145.9470 C   0  0  0  0  0  2  0  0  0  0  0  0
  195.4300  172.7940  143.0920 C   0  0  1  0  0  3  0  0  0  0  0  0
  187.9840  175.6360  141.8370 C   0  0  0  0  0  0  0  0  0  0  0  0
  187.2340  176.3170  140.9110 O   0  0  0  0  0  0  0  0  0  0  0  0
  187.4610  176.8450  142.1590 C   0  0  0  0  0  0  0  0  0  0  0  0
  185.5330  176.8120  144.2070 O   0  0  0  0  0  0  0  0  0  0  0  0
  187.2740  177.9000  143.0970 N   0  0  0  0  0  2  0  0  0  0  0  0
  186.2960  177.8120  144.1350 C   0  0  0  0  0  0  0  0  0  0  0  0
  186.1820  178.8710  145.0850 N   0  0  0  0  0  2  0  0  0  0  0  0
  185.8330  179.2530  147.4490 C   0  0  0  0  0  2  0  0  0  0  0  0
  185.5590  177.7940  147.1600 C   0  0  0  0  0  2  0  0  0  0  0  0
  185.1840  178.8470  146.1410 C   0  0  0  0  0  3  0  0  0  0  0  0
  192.8180  171.4870  139.6370 O   0  0  0  0  0  0  0  0  0  0  0  0
  193.1790  172.7450  139.8110 O   0  0  0  0  0  1  0  0  0  0  0  0
  196.7480  172.3770  143.3270 O   0  0  0  0  0  0  0  0  0  0  0  0
  197.3960  174.5530  143.3810 F   0  0  0  0  0  0  0  0  0  0  0  0
  197.5500  173.3490  142.7130 C   0  0  2  0  0  3  0  0  0  0  0  0
  195.8170  173.7960  141.1640 F   0  0  0  0  0  0  0  0  0  0  0  0
  197.1720  173.5200  141.2400 C   0  0  0  0  0  0  0  0  0  0  0  0
  197.4270  172.3460  140.5490 F   0  0  0  0  0  0  0  0  0  0  0  0
  197.4820  174.9330  139.3250 F   0  0  0  0  0  0  0  0  0  0  0  0
  197.9380  174.6800  140.6040 C   0  0  0  0  0  3  0  0  0  0  0  0
  197.7840  175.8200  141.3690 F   0  0  0  0  0  0  0  0  0  0  0  0
  189.7740  171.6550  138.8230 O   0  0  0  0  0  0  0  0  0  0  0  0
  190.2300  171.1050  135.1210 C   0  0  0  0  0  2  0  0  0  0  0  0
  190.1030  171.9850  137.4740 C   0  0  1  0  0  3  0  0  0  0  0  0
  189.8810  170.7660  136.5710 C   0  0  2  0  0  3  0  0  0  0  0  0
  189.3930  172.2880  134.6340 C   0  0  0  0  0  2  0  0  0  0  0  0
  189.6100  173.4970  135.5390 C   0  0  0  0  0  2  0  0  0  0  0  0
  189.2420  173.1480  136.9770 C   0  0  0  0  0  2  0  0  0  0  0  0
  190.0150  168.5230  137.6440 O   0  0  0  0  0  1  0  0  0  0  0  0
  190.6730  169.5840  137.0350 C   0  0  0  0  0  0  0  0  0  0  0  0
  191.9250  169.5490  136.8960 O   0  0  0  0  0  0  0  0  0  0  0  0
  4 20  1  0  0  0  0
  5 28  1  0  0  0  0
  5  2  1  1  0  0  0
  6  4  2  0  0  0  0
  7 22  1  1  0  0  0
  8  1  1  0  0  0  0
  8  5  1  0  0  0  0
  9 24  1  0  0  0  0
  9  6  2  0  0  0  0
 10 16  1  0  0  0  0
 10 14  1  1  0  0  0
 11 19  1  0  0  0  0
 11 25  1  0  0  0  0
 12 10  1  0  0  0  0
 13 17  1  1  0  0  0
 13 25  1  0  0  0  0
 13  1  1  0  0  0  0
 15 29  1  0  0  0  0
 15  7  1  0  0  0  0
 16  7  1  0  0  0  0
 18 28  1  0  0  0  0
 19  3  2  0  0  0  0
 20 26  1  6  0  0  0
 20 23  1  0  0  0  0
 21 16  2  0  0  0  0
 23 18  1  0  0  0  0
 24 40  1  6  0  0  0
 24 27  1  0  0  0  0
 27 12  1  0  0  0  0
 29 42  1  1  0  0  0
 29 19  1  0  0  0  0
 30 32  2  0  0  0  0
 30 20  1  0  0  0  0
 31 30  1  0  0  0  0
 31 32  1  0  0  0  0
 32 34  1  0  0  0  0
 34 35  1  0  0  0  0
 35 33  2  0  0  0  0
 35 36  1  0  0  0  0
 36 39  1  0  0  0  0
 38 37  1  0  0  0  0
 39 38  1  0  0  0  0
 39 37  1  0  0  0  0
 40 41  1  0  0  0  0
 44 42  1  0  0  0  0
 44 43  1  1  0  0  0
 45 46  1  0  0  0  0
 46 44  1  0  0  0  0
 47 46  1  0  0  0  0
 48 49  1  0  0  0  0
 49 46  1  0  0  0  0
 49 50  1  0  0  0  0
 51  9  1  0  0  0  0
 52 54  1  0  0  0  0
 53 51  1  1  0  0  0
 54 59  1  1  0  0  0
 54 53  1  0  0  0  0
 55 52  1  0  0  0  0
 55 56  1  0  0  0  0
 56 57  1  0  0  0  0
 57 53  1  0  0  0  0
 59 58  1  0  0  0  0
 60 59  2  0  0  0  0
M  END
>  <MODEL>
3

>  <REMARK>
 VINA RESULT:      -6.3      2.832      7.387
  Name = 
  11 active torsions:
  status: ('A' for Active; 'I' for Inactive)
    1  A    between atoms: C_6  and  O_39
    2  A    between atoms: C_13  and  O_39
    3  A    between atoms: O_17  and  C_48
    4  A    between atoms: C_20  and  C_44
    5  A    between atoms: C_21  and  C_34
    6  A    between atoms: O_25  and  C_28
    7  A    between atoms: O_25  and  C_60
    8  A    between atoms: C_28  and  C_34
    9  A    between atoms: C_33  and  C_38
   10  A    between atoms: N_40  and  C_57
   11  A    between atoms: C_53  and  N_55
                            x       y       z     vdW  Elec       q    Type
                         _______ _______ _______ _____ _____    ______ ____

>  <TORSDO>
F 11

$$$$
=
 OpenBabel11072408533D

 60 63  0  0  1  0  0  0  0  0999 V2000
  189.3410  171.7800  138.6250 C   0  0  0  0  0  2  0  0  0  0  0  0
  190.0980  169.1410  137.7820 C   0  0  0  0  0  1  0  0  0  0  0  0
  186.8620  174.1630  142.4640 O   0  0  0  0  0  0  0  0  0  0  0  0
  193.4640  174.4580  140.5530 C   0  0  0  0  0  3  0  0  0  0  0  0
  191.0150  170.2460  138.2920 C   0  0  1  0  0  3  0  0  0  0  0  0
  193.7440  175.1520  141.6290 C   0  0  0  0  0  0  0  0  0  0  0  0
  188.7590  175.1710  145.0700 C   0  0  2  0  0  3  0  0  0  0  0  0
  190.5550  171.5400  137.9540 O   0  0  0  0  0  0  0  0  0  0  0  0
  194.0210  175.8410  142.7060 C   0  0  0  0  0  0  0  0  0  0  0  0
  191.1720  174.8420  145.9740 C   0  0  1  0  0  3  0  0  0  0  0  0
  188.5600  174.5480  140.9480 O   0  0  0  0  0  0  0  0  0  0  0  0
  192.1330  176.0160  146.0590 C   0  0  0  0  0  2  0  0  0  0  0  0
  189.2750  173.2240  139.0740 C   0  0  1  0  0  3  0  0  0  0  0  0
  191.5050  173.8850  146.9170 F   0  0  0  0  0  0  0  0  0  0  0  0
  189.2350  175.9380  143.8360 C   0  0  0  0  0  2  0  0  0  0  0  0
  189.7600  175.3020  146.1760 C   0  0  0  0  0  0  0  0  0  0  0  0
  188.7200  173.9920  138.0520 O   0  0  0  0  0  1  0  0  0  0  0  0
  192.6510  170.7280  140.1280 C   0  0  0  0  0  2  0  0  0  0  0  0
  187.8020  174.9050  142.0610 C   0  0  0  0  0  0  0  0  0  0  0  0
  193.7850  172.9970  140.3810 C   0  0  2  0  0  0  0  0  0  0  0  0
  189.4100  175.7680  147.2490 O   0  0  0  0  0  0  0  0  0  0  0  0
  188.5830  173.8210  144.7650 O   0  0  0  0  0  1  0  0  0  0  0  0
  192.4650  172.2240  140.3710 C   0  0  0  0  0  2  0  0  0  0  0  0
  192.9180  176.1310  143.6770 C   0  0  1  0  0  3  0  0  0  0  0  0
  188.3750  173.3050  140.2890 C   0  0  0  0  0  2  0  0  0  0  0  0
  194.6930  172.4630  141.4900 C   0  0  0  0  0  1  0  0  0  0  0  0
  193.3100  175.8050  145.1180 C   0  0  0  0  0  2  0  0  0  0  0  0
  191.3280  170.0730  139.7780 C   0  0  0  0  0  2  0  0  0  0  0  0
  188.1380  176.1620  142.7940 C   0  0  1  0  0  3  0  0  0  0  0  0
  194.4680  172.8270  139.0640 C   0  0  0  0  0  0  0  0  0  0  0  0
  194.8540  172.0030  138.0360 O   0  0  0  0  0  0  0  0  0  0  0  0
  195.1370  173.3470  138.0050 C   0  0  0  0  0  0  0  0  0  0  0  0
  193.9530  174.6600  135.8170 O   0  0  0  0  0  0  0  0  0  0  0  0
  195.7140  174.4640  137.3360 N   0  0  0  0  0  2  0  0  0  0  0  0
  195.0490  175.1080  136.2470 C   0  0  0  0  0  0  0  0  0  0  0  0
  195.6410  176.2570  135.6430 N   0  0  0  0  0  2  0  0  0  0  0  0
  195.4030  178.3980  134.5390 C   0  0  0  0  0  2  0  0  0  0  0  0
  194.0390  177.9600  135.0210 C   0  0  0  0  0  2  0  0  0  0  0  0
  195.0240  176.9310  134.5130 C   0  0  0  0  0  3  0  0  0  0  0  0
  192.4160  177.4420  143.5280 O   0  0  0  0  0  0  0  0  0  0  0  0
  191.4120  177.3780  142.6730 O   0  0  0  0  0  1  0  0  0  0  0  0
  186.9990  176.7420  143.3700 O   0  0  0  0  0  0  0  0  0  0  0  0
  187.9920  178.7850  143.3830 F   0  0  0  0  0  0  0  0  0  0  0  0
  186.9520  178.0420  142.8470 C   0  0  2  0  0  3  0  0  0  0  0  0
  185.8490  180.0480  143.4440 F   0  0  0  0  0  0  0  0  0  0  0  0
  185.6150  178.7120  143.1670 C   0  0  0  0  0  0  0  0  0  0  0  0
  185.0450  178.1200  144.2830 F   0  0  0  0  0  0  0  0  0  0  0  0
  185.3050  178.1790  140.8470 F   0  0  0  0  0  0  0  0  0  0  0  0
  184.6550  178.6260  141.9810 C   0  0  0  0  0  3  0  0  0  0  0  0
  183.6200  177.7590  142.2760 F   0  0  0  0  0  0  0  0  0  0  0  0
  195.3120  176.3240  142.9640 O   0  0  0  0  0  0  0  0  0  0  0  0
  197.9410  173.7090  142.2830 C   0  0  0  0  0  2  0  0  0  0  0  0
  196.5040  175.7690  142.4070 C   0  0  1  0  0  3  0  0  0  0  0  0
  196.6670  174.3170  142.8720 C   0  0  2  0  0  3  0  0  0  0  0  0
  197.9090  173.7800  140.7560 C   0  0  0  0  0  2  0  0  0  0  0  0
  197.7390  175.2250  140.2970 C   0  0  0  0  0  2  0  0  0  0  0  0
  196.4560  175.8110  140.8790 C   0  0  0  0  0  2  0  0  0  0  0  0
  197.7630  174.7250  145.0700 O   0  0  0  0  0  1  0  0  0  0  0  0
  196.6820  174.2140  144.3640 C   0  0  0  0  0  0  0  0  0  0  0  0
  195.7360  173.6560  144.9830 O   0  0  0  0  0  0  0  0  0  0  0  0
  1 13  1  0  0  0  0
  4  6  2  0  0  0  0
  5  2  1  1  0  0  0
  5 28  1  0  0  0  0
  6  9  2  0  0  0  0
  7 22  1  6  0  0  0
  7 16  1  0  0  0  0
  8  5  1  0  0  0  0
  8  1  1  0  0  0  0
  9 51  1  0  0  0  0
  9 24  1  0  0  0  0
 10 12  1  0  0  0  0
 10 16  1  0  0  0  0
 10 14  1  1  0  0  0
 11 19  1  0  0  0  0
 13 17  1  6  0  0  0
 13 25  1  0  0  0  0
 15  7  1  0  0  0  0
 16 21  2  0  0  0  0
 18 23  1  0  0  0  0
 19  3  2  0  0  0  0
 19 29  1  0  0  0  0
 20  4  1  0  0  0  0
 20 26  1  1  0  0  0
 23 20  1  0  0  0  0
 24 40  1  1  0  0  0
 24 27  1  0  0  0  0
 25 11  1  0  0  0  0
 27 12  1  0  0  0  0
 28 18  1  0  0  0  0
 29 42  1  1  0  0  0
 29 15  1  0  0  0  0
 30 20  1  0  0  0  0
 31 30  1  0  0  0  0
 32 31  1  0  0  0  0
 32 30  2  0  0  0  0
 33 35  2  0  0  0  0
 34 32  1  0  0  0  0
 35 34  1  0  0  0  0
 36 35  1  0  0  0  0
 37 38  1  0  0  0  0
 39 37  1  0  0  0  0
 39 38  1  0  0  0  0
 39 36  1  0  0  0  0
 41 40  1  0  0  0  0
 44 46  1  0  0  0  0
 44 42  1  0  0  0  0
 44 43  1  1  0  0  0
 46 45  1  0  0  0  0
 46 47  1  0  0  0  0
 48 49  1  0  0  0  0
 49 50  1  0  0  0  0
 49 46  1  0  0  0  0
 52 54  1  0  0  0  0
 53 54  1  0  0  0  0
 53 51  1  1  0  0  0
 54 59  1  1  0  0  0
 55 52  1  0  0  0  0
 56 55  1  0  0  0  0
 56 57  1  0  0  0  0
 57 53  1  0  0  0  0
 59 60  2  0  0  0  0
 59 58  1  0  0  0  0
M  END
>  <MODEL>
4

>  <REMARK>
 VINA RESULT:      -6.0      4.502      8.784
  Name = 
  11 active torsions:
  status: ('A' for Active; 'I' for Inactive)
    1  A    between atoms: C_6  and  O_39
    2  A    between atoms: C_13  and  O_39
    3  A    between atoms: O_17  and  C_48
    4  A    between atoms: C_20  and  C_44
    5  A    between atoms: C_21  and  C_34
    6  A    between atoms: O_25  and  C_28
    7  A    between atoms: O_25  and  C_60
    8  A    between atoms: C_28  and  C_34
    9  A    between atoms: C_33  and  C_38
   10  A    between atoms: N_40  and  C_57
   11  A    between atoms: C_53  and  N_55
                            x       y       z     vdW  Elec       q    Type
                         _______ _______ _______ _____ _____    ______ ____

>  <TORSDO>
F 11

$$$$
=
 OpenBabel11072408533D

 60 63  0  0  1  0  0  0  0  0999 V2000
  192.2100  176.3800  146.0050 C   0  0  0  0  0  2  0  0  0  0  0  0
  190.2790  177.1350  147.9920 C   0  0  0  0  0  1  0  0  0  0  0  0
  195.2030  172.3970  144.6870 O   0  0  0  0  0  0  0  0  0  0  0  0
  189.9060  175.2840  141.3810 C   0  0  0  0  0  3  0  0  0  0  0  0
  190.0220  176.8470  146.5180 C   0  0  1  0  0  3  0  0  0  0  0  0
  189.9280  174.3150  140.4990 C   0  0  0  0  0  0  0  0  0  0  0  0
  193.8710  170.1810  142.5140 C   0  0  2  0  0  3  0  0  0  0  0  0
  191.1130  177.2050  145.6920 O   0  0  0  0  0  0  0  0  0  0  0  0
  189.9510  173.3440  139.6240 C   0  0  0  0  0  0  0  0  0  0  0  0
  191.5640  169.6240  141.4570 C   0  0  1  0  0  3  0  0  0  0  0  0
  194.0930  174.1720  143.7150 O   0  0  0  0  0  0  0  0  0  0  0  0
  191.3440  169.7680  139.9600 C   0  0  0  0  0  2  0  0  0  0  0  0
  192.9710  176.0310  144.7430 C   0  0  1  0  0  3  0  0  0  0  0  0
  190.7010  168.6750  141.9760 F   0  0  0  0  0  0  0  0  0  0  0  0
  193.9740  171.5250  141.7900 C   0  0  0  0  0  2  0  0  0  0  0  0
  192.9860  169.2490  141.7470 C   0  0  0  0  0  0  0  0  0  0  0  0
  193.9320  177.0120  144.5080 O   0  0  0  0  0  1  0  0  0  0  0  0
  188.7110  175.3140  145.0310 C   0  0  0  0  0  2  0  0  0  0  0  0
  194.8220  172.9880  143.6370 C   0  0  0  0  0  0  0  0  0  0  0  0
  188.8940  175.3960  142.4900 C   0  0  2  0  0  0  0  0  0  0  0  0
  193.4270  168.1720  141.3760 O   0  0  0  0  0  0  0  0  0  0  0  0
  193.3520  170.3590  143.7960 O   0  0  0  0  0  1  0  0  0  0  0  0
  189.6200  175.1550  143.8150 C   0  0  0  0  0  2  0  0  0  0  0  0
  190.9520  172.2430  139.7970 C   0  0  1  0  0  3  0  0  0  0  0  0
  193.6680  174.7050  144.9590 C   0  0  0  0  0  2  0  0  0  0  0  0
  187.7450  174.4000  142.3360 C   0  0  0  0  0  1  0  0  0  0  0  0
  190.3180  170.8560  139.6790 C   0  0  0  0  0  2  0  0  0  0  0  0
  189.5320  175.4150  146.3030 C   0  0  0  0  0  2  0  0  0  0  0  0
  195.1180  172.4050  142.2940 C   0  0  1  0  0  3  0  0  0  0  0  0
  188.3440  176.7850  142.4730 C   0  0  0  0  0  0  0  0  0  0  0  0
  188.5570  178.1330  142.3250 O   0  0  0  0  0  0  0  0  0  0  0  0
  187.2980  177.6420  142.5680 C   0  0  0  0  0  0  0  0  0  0  0  0
  185.5110  178.3890  140.5280 O   0  0  0  0  0  0  0  0  0  0  0  0
  185.9080  177.8770  142.7700 N   0  0  0  0  0  2  0  0  0  0  0  0
  185.0430  178.2260  141.6870 C   0  0  0  0  0  0  0  0  0  0  0  0
  183.6480  178.3980  141.9290 N   0  0  0  0  0  2  0  0  0  0  0  0
  181.3540  178.2290  141.1760 C   0  0  0  0  0  2  0  0  0  0  0  0
  182.2380  177.5440  140.1580 C   0  0  0  0  0  2  0  0  0  0  0  0
  182.7310  178.7840  140.8690 C   0  0  0  0  0  3  0  0  0  0  0  0
  192.0690  172.4090  138.9500 O   0  0  0  0  0  0  0  0  0  0  0  0
  192.5250  173.6330  139.1460 O   0  0  0  0  0  1  0  0  0  0  0  0
  196.3350  171.7090  142.2920 O   0  0  0  0  0  0  0  0  0  0  0  0
  196.8040  173.6870  141.2780 F   0  0  0  0  0  0  0  0  0  0  0  0
  197.1080  172.3350  141.3030 C   0  0  2  0  0  3  0  0  0  0  0  0
  195.6360  172.2000  139.4560 F   0  0  0  0  0  0  0  0  0  0  0  0
  196.8440  171.7170  139.9290 C   0  0  0  0  0  0  0  0  0  0  0  0
  196.7580  170.3380  140.0410 F   0  0  0  0  0  0  0  0  0  0  0  0
  197.9230  171.2580  137.8350 F   0  0  0  0  0  0  0  0  0  0  0  0
  197.9400  172.0950  138.9330 C   0  0  0  0  0  3  0  0  0  0  0  0
  197.7590  173.3970  138.5080 F   0  0  0  0  0  0  0  0  0  0  0  0
  189.0770  173.3160  138.5270 O   0  0  0  0  0  0  0  0  0  0  0  0
  188.6520  175.2780  135.3360 C   0  0  0  0  0  2  0  0  0  0  0  0
  188.7810  174.4450  137.7060 C   0  0  1  0  0  3  0  0  0  0  0  0
  188.9650  174.0760  136.2290 C   0  0  2  0  0  3  0  0  0  0  0  0
  187.2270  175.7730  135.5890 C   0  0  0  0  0  2  0  0  0  0  0  0
  187.0450  176.1320  137.0610 C   0  0  0  0  0  2  0  0  0  0  0  0
  187.3450  174.9190  137.9360 C   0  0  0  0  0  2  0  0  0  0  0  0
  191.4270  174.4280  136.1000 O   0  0  0  0  0  1  0  0  0  0  0  0
  190.3450  173.5690  135.9550 C   0  0  0  0  0  0  0  0  0  0  0  0
  190.5340  172.3800  135.5790 O   0  0  0  0  0  0  0  0  0  0  0  0
  4 20  1  0  0  0  0
  5  2  1  1  0  0  0
  6  4  2  0  0  0  0
  7 22  1  1  0  0  0
  8  1  1  0  0  0  0
  8  5  1  0  0  0  0
  9 24  1  0  0  0  0
  9  6  2  0  0  0  0
 10 16  1  0  0  0  0
 10 14  1  6  0  0  0
 11 25  1  0  0  0  0
 12 10  1  0  0  0  0
 13 17  1  1  0  0  0
 13 25  1  0  0  0  0
 13  1  1  0  0  0  0
 15 29  1  0  0  0  0
 15  7  1  0  0  0  0
 16  7  1  0  0  0  0
 18 28  1  0  0  0  0
 19 11  1  0  0  0  0
 19  3  2  0  0  0  0
 20 26  1  6  0  0  0
 20 23  1  0  0  0  0
 21 16  2  0  0  0  0
 23 18  1  0  0  0  0
 24 40  1  6  0  0  0
 27 24  1  0  0  0  0
 27 12  1  0  0  0  0
 28  5  1  0  0  0  0
 29 42  1  1  0  0  0
 29 19  1  0  0  0  0
 30 20  1  0  0  0  0
 30 32  2  0  0  0  0
 31 30  1  0  0  0  0
 31 32  1  0  0  0  0
 32 34  1  0  0  0  0
 33 35  2  0  0  0  0
 35 36  1  0  0  0  0
 35 34  1  0  0  0  0
 38 39  1  0  0  0  0
 38 37  1  0  0  0  0
 39 37  1  0  0  0  0
 39 36  1  0  0  0  0
 40 41  1  0  0  0  0
 44 43  1  6  0  0  0
 44 42  1  0  0  0  0
 45 46  1  0  0  0  0
 46 47  1  0  0  0  0
 46 44  1  0  0  0  0
 48 49  1  0  0  0  0
 49 46  1  0  0  0  0
 50 49  1  0  0  0  0
 51  9  1  0  0  0  0
 52 55  1  0  0  0  0
 52 54  1  0  0  0  0
 53 57  1  0  0  0  0
 53 51  1  1  0  0  0
 54 59  1  1  0  0  0
 54 53  1  0  0  0  0
 55 56  1  0  0  0  0
 56 57  1  0  0  0  0
 59 58  1  0  0  0  0
 60 59  2  0  0  0  0
M  END
>  <MODEL>
5

>  <REMARK>
 VINA RESULT:      -5.8      2.916      7.506
  Name = 
  11 active torsions:
  status: ('A' for Active; 'I' for Inactive)
    1  A    between atoms: C_6  and  O_39
    2  A    between atoms: C_13  and  O_39
    3  A    between atoms: O_17  and  C_48
    4  A    between atoms: C_20  and  C_44
    5  A    between atoms: C_21  and  C_34
    6  A    between atoms: O_25  and  C_28
    7  A    between atoms: O_25  and  C_60
    8  A    between atoms: C_28  and  C_34
    9  A    between atoms: C_33  and  C_38
   10  A    between atoms: N_40  and  C_57
   11  A    between atoms: C_53  and  N_55
                            x       y       z     vdW  Elec       q    Type
                         _______ _______ _______ _____ _____    ______ ____

>  <TORSDO>
F 11

$$$$
=
 OpenBabel11072408533D

 60 63  0  0  1  0  0  0  0  0999 V2000
  191.5360  177.0820  145.6180 C   0  0  0  0  0  2  0  0  0  0  0  0
  189.7300  177.6700  147.7720 C   0  0  0  0  0  1  0  0  0  0  0  0
  194.7760  173.3940  144.0480 O   0  0  0  0  0  0  0  0  0  0  0  0
  188.9380  175.7010  141.2320 C   0  0  0  0  0  3  0  0  0  0  0  0
  189.3690  177.3380  146.3300 C   0  0  1  0  0  3  0  0  0  0  0  0
  188.9750  174.7260  140.3570 C   0  0  0  0  0  0  0  0  0  0  0  0
  193.4760  171.0280  142.0170 C   0  0  2  0  0  3  0  0  0  0  0  0
  190.3390  177.7910  145.4040 O   0  0  0  0  0  0  0  0  0  0  0  0
  189.0140  173.7500  139.4880 C   0  0  0  0  0  0  0  0  0  0  0  0
  191.1490  170.2330  141.1810 C   0  0  1  0  0  3  0  0  0  0  0  0
  193.4110  175.0380  143.1740 O   0  0  0  0  0  0  0  0  0  0  0  0
  190.7790  170.3340  139.7110 C   0  0  0  0  0  2  0  0  0  0  0  0
  192.2090  176.7920  144.2930 C   0  0  1  0  0  3  0  0  0  0  0  0
  190.4350  169.2110  141.7820 F   0  0  0  0  0  0  0  0  0  0  0  0
  193.3790  172.3660  141.2810 C   0  0  0  0  0  2  0  0  0  0  0  0
  192.6220  170.0030  141.3400 C   0  0  0  0  0  0  0  0  0  0  0  0
  193.0430  177.8590  143.9650 O   0  0  0  0  0  1  0  0  0  0  0  0
  188.0860  175.6640  144.9770 C   0  0  0  0  0  2  0  0  0  0  0  0
  194.2430  173.9300  143.0350 C   0  0  0  0  0  0  0  0  0  0  0  0
  188.0260  175.7280  142.4300 C   0  0  2  0  0  0  0  0  0  0  0  0
  193.1320  168.9700  140.9350 O   0  0  0  0  0  0  0  0  0  0  0  0
  193.0620  171.1720  143.3420 O   0  0  0  0  0  1  0  0  0  0  0  0
  188.8910  175.5780  143.6830 C   0  0  0  0  0  2  0  0  0  0  0  0
  190.1300  172.7560  139.5720 C   0  0  1  0  0  3  0  0  0  0  0  0
  193.0510  175.5440  144.4500 C   0  0  0  0  0  2  0  0  0  0  0  0
  186.9720  174.6220  142.3880 C   0  0  0  0  0  1  0  0  0  0  0  0
  189.6300  171.3120  139.5200 C   0  0  0  0  0  2  0  0  0  0  0  0
  189.0060  175.8630  146.1680 C   0  0  0  0  0  2  0  0  0  0  0  0
  194.4710  173.3610  141.6720 C   0  0  1  0  0  3  0  0  0  0  0  0
  187.3420  177.0560  142.4580 C   0  0  0  0  0  0  0  0  0  0  0  0
  187.4220  178.4220  142.3590 O   0  0  0  0  0  0  0  0  0  0  0  0
  186.2160  177.8020  142.5750 C   0  0  0  0  0  0  0  0  0  0  0  0
  184.3870  178.5860  140.5850 O   0  0  0  0  0  0  0  0  0  0  0  0
  184.8080  177.8910  142.7730 N   0  0  0  0  0  2  0  0  0  0  0  0
  183.9260  178.2670  141.7140 C   0  0  0  0  0  0  0  0  0  0  0  0
  182.5180  178.2910  141.9470 N   0  0  0  0  0  2  0  0  0  0  0  0
  180.4130  179.4200  141.5570 C   0  0  0  0  0  2  0  0  0  0  0  0
  180.2650  177.9790  141.1230 C   0  0  0  0  0  2  0  0  0  0  0  0
  181.5800  178.6970  140.9140 C   0  0  0  0  0  3  0  0  0  0  0  0
  191.1440  173.0190  138.6260 O   0  0  0  0  0  0  0  0  0  0  0  0
  191.9140  173.9620  139.1350 O   0  0  0  0  0  1  0  0  0  0  0  0
  195.7460  172.7880  141.5610 O   0  0  0  0  0  0  0  0  0  0  0  0
  196.4330  171.5260  139.8020 F   0  0  0  0  0  0  0  0  0  0  0  0
  196.0270  172.7940  140.1880 C   0  0  2  0  0  3  0  0  0  0  0  0
  197.9210  173.2860  138.8580 F   0  0  0  0  0  0  0  0  0  0  0  0
  197.1180  173.8130  139.8560 C   0  0  0  0  0  0  0  0  0  0  0  0
  197.8990  174.0490  140.9760 F   0  0  0  0  0  0  0  0  0  0  0  0
  197.2890  175.6700  138.3450 F   0  0  0  0  0  0  0  0  0  0  0  0
  196.5160  175.1240  139.3500 C   0  0  0  0  0  3  0  0  0  0  0  0
  195.2420  174.8990  138.8640 F   0  0  0  0  0  0  0  0  0  0  0  0
  188.0500  173.6210  138.4770 O   0  0  0  0  0  0  0  0  0  0  0  0
  188.2410  176.0860  135.6310 C   0  0  0  0  0  2  0  0  0  0  0  0
  188.2290  174.0690  137.1340 C   0  0  1  0  0  3  0  0  0  0  0  0
  188.0510  175.5910  137.0650 C   0  0  2  0  0  3  0  0  0  0  0  0
  189.6200  175.6860  135.1070 C   0  0  0  0  0  2  0  0  0  0  0  0
  189.7980  174.1730  135.1830 C   0  0  0  0  0  2  0  0  0  0  0  0
  189.6220  173.6980  136.6220 C   0  0  0  0  0  2  0  0  0  0  0  0
  186.6470  176.6860  138.8050 O   0  0  0  0  0  1  0  0  0  0  0  0
  186.7170  176.0140  137.5910 C   0  0  0  0  0  0  0  0  0  0  0  0
  185.6590  175.7550  136.9570 O   0  0  0  0  0  0  0  0  0  0  0  0
  4 20  1  0  0  0  0
  5  2  1  1  0  0  0
  6  4  2  0  0  0  0
  7 22  1  1  0  0  0
  8  1  1  0  0  0  0
  8  5  1  0  0  0  0
  9 24  1  0  0  0  0
  9  6  2  0  0  0  0
 10 16  1  0  0  0  0
 10 14  1  6  0  0  0
 11 25  1  0  0  0  0
 12 10  1  0  0  0  0
 13 17  1  1  0  0  0
 13 25  1  0  0  0  0
 13  1  1  0  0  0  0
 15 29  1  0  0  0  0
 15  7  1  0  0  0  0
 16  7  1  0  0  0  0
 18 28  1  0  0  0  0
 19 11  1  0  0  0  0
 19  3  2  0  0  0  0
 20 26  1  6  0  0  0
 20 30  1  0  0  0  0
 20 23  1  0  0  0  0
 21 16  2  0  0  0  0
 23 18  1  0  0  0  0
 24 40  1  6  0  0  0
 27 24  1  0  0  0  0
 27 12  1  0  0  0  0
 28  5  1  0  0  0  0
 29 42  1  1  0  0  0
 29 19  1  0  0  0  0
 30 32  2  0  0  0  0
 31 30  1  0  0  0  0
 31 32  1  0  0  0  0
 32 34  1  0  0  0  0
 33 35  2  0  0  0  0
 35 36  1  0  0  0  0
 35 34  1  0  0  0  0
 38 37  1  0  0  0  0
 39 38  1  0  0  0  0
 39 37  1  0  0  0  0
 39 36  1  0  0  0  0
 40 41  1  0  0  0  0
 44 43  1  1  0  0  0
 44 42  1  0  0  0  0
 45 46  1  0  0  0  0
 46 44  1  0  0  0  0
 46 47  1  0  0  0  0
 48 49  1  0  0  0  0
 49 46  1  0  0  0  0
 50 49  1  0  0  0  0
 51  9  1  0  0  0  0
 52 54  1  0  0  0  0
 53 51  1  1  0  0  0
 54 53  1  0  0  0  0
 54 59  1  6  0  0  0
 55 56  1  0  0  0  0
 55 52  1  0  0  0  0
 56 57  1  0  0  0  0
 57 53  1  0  0  0  0
 59 58  1  0  0  0  0
 60 59  2  0  0  0  0
M  END
>  <MODEL>
6

>  <REMARK>
 VINA RESULT:      -5.7      3.032      7.676
  Name = 
  11 active torsions:
  status: ('A' for Active; 'I' for Inactive)
    1  A    between atoms: C_6  and  O_39
    2  A    between atoms: C_13  and  O_39
    3  A    between atoms: O_17  and  C_48
    4  A    between atoms: C_20  and  C_44
    5  A    between atoms: C_21  and  C_34
    6  A    between atoms: O_25  and  C_28
    7  A    between atoms: O_25  and  C_60
    8  A    between atoms: C_28  and  C_34
    9  A    between atoms: C_33  and  C_38
   10  A    between atoms: N_40  and  C_57
   11  A    between atoms: C_53  and  N_55
                            x       y       z     vdW  Elec       q    Type
                         _______ _______ _______ _____ _____    ______ ____

>  <TORSDO>
F 11

$$$$
=
 OpenBabel11072408533D

 60 63  0  0  1  0  0  0  0  0999 V2000
  190.0750  177.8800  145.4710 C   0  0  0  0  0  2  0  0  0  0  0  0
  187.6420  178.2730  146.9460 C   0  0  0  0  0  1  0  0  0  0  0  0
  194.4470  175.1590  145.6750 O   0  0  0  0  0  0  0  0  0  0  0  0
  189.2710  174.9560  141.1480 C   0  0  0  0  0  3  0  0  0  0  0  0
  187.8030  177.5790  145.5990 C   0  0  1  0  0  3  0  0  0  0  0  0
  189.8000  173.8950  140.5900 C   0  0  0  0  0  0  0  0  0  0  0  0
  194.4190  172.1670  144.1080 C   0  0  2  0  0  3  0  0  0  0  0  0
  188.8500  178.1270  144.8220 O   0  0  0  0  0  0  0  0  0  0  0  0
  190.3290  172.8330  140.0400 C   0  0  0  0  0  0  0  0  0  0  0  0
  192.7050  170.5430  143.0250 C   0  0  1  0  0  3  0  0  0  0  0  0
  193.0200  176.0990  144.1230 O   0  0  0  0  0  0  0  0  0  0  0  0
  192.7580  170.2440  141.5360 C   0  0  0  0  0  2  0  0  0  0  0  0
  191.1490  177.5700  144.4500 C   0  0  1  0  0  3  0  0  0  0  0  0
  192.1310  169.4830  143.7030 F   0  0  0  0  0  0  0  0  0  0  0  0
  194.2030  173.2420  143.0420 C   0  0  0  0  0  2  0  0  0  0  0  0
  194.0800  170.8180  143.5550 C   0  0  0  0  0  0  0  0  0  0  0  0
  191.7440  178.7610  144.0420 O   0  0  0  0  0  1  0  0  0  0  0  0
  187.4240  175.3640  144.4900 C   0  0  0  0  0  2  0  0  0  0  0  0
  194.1080  175.3000  144.4660 C   0  0  0  0  0  0  0  0  0  0  0  0
  188.0790  174.9240  142.0670 C   0  0  2  0  0  0  0  0  0  0  0  0
  194.9270  169.9380  143.5590 O   0  0  0  0  0  0  0  0  0  0  0  0
  193.6220  172.4210  145.2240 O   0  0  0  0  0  1  0  0  0  0  0  0
  188.5590  175.2900  143.4730 C   0  0  0  0  0  2  0  0  0  0  0  0
  191.5880  172.2710  140.6250 C   0  0  1  0  0  3  0  0  0  0  0  0
  192.1970  176.6990  145.1100 C   0  0  0  0  0  2  0  0  0  0  0  0
  187.3940  173.5570  142.0890 C   0  0  0  0  0  1  0  0  0  0  0  0
  191.5030  170.7600  140.8470 C   0  0  0  0  0  2  0  0  0  0  0  0
  187.8840  176.0610  145.7570 C   0  0  0  0  0  2  0  0  0  0  0  0
  194.8510  174.5840  143.3860 C   0  0  1  0  0  3  0  0  0  0  0  0
  187.1050  175.9520  141.5930 C   0  0  0  0  0  0  0  0  0  0  0  0
  186.0350  176.7700  141.8600 O   0  0  0  0  0  0  0  0  0  0  0  0
  186.6310  176.7710  140.6220 C   0  0  0  0  0  0  0  0  0  0  0  0
  187.1980  175.1940  138.3620 O   0  0  0  0  0  0  0  0  0  0  0  0
  186.6940  177.2750  139.2910 N   0  0  0  0  0  2  0  0  0  0  0  0
  186.9570  176.4180  138.1790 C   0  0  0  0  0  0  0  0  0  0  0  0
  186.9570  176.9600  136.8590 N   0  0  0  0  0  2  0  0  0  0  0  0
  187.6420  177.0370  134.5380 C   0  0  0  0  0  2  0  0  0  0  0  0
  186.2520  176.4450  134.6020 C   0  0  0  0  0  2  0  0  0  0  0  0
  187.2510  176.1390  135.6960 C   0  0  0  0  0  3  0  0  0  0  0  0
  192.7290  172.6530  139.8870 O   0  0  0  0  0  0  0  0  0  0  0  0
  193.0620  173.8660  140.2880 O   0  0  0  0  0  1  0  0  0  0  0  0
  196.2060  174.4260  143.7110 O   0  0  0  0  0  0  0  0  0  0  0  0
  197.9410  173.2290  142.8660 F   0  0  0  0  0  0  0  0  0  0  0  0
  196.8070  173.9550  142.5360 C   0  0  2  0  0  3  0  0  0  0  0  0
  197.9400  174.6110  140.5650 F   0  0  0  0  0  0  0  0  0  0  0  0
  197.1820  175.1130  141.6090 C   0  0  0  0  0  0  0  0  0  0  0  0
  197.9410  176.0440  142.3020 F   0  0  0  0  0  0  0  0  0  0  0  0
  195.8520  177.1020  141.4170 F   0  0  0  0  0  0  0  0  0  0  0  0
  195.9370  175.7800  141.0260 C   0  0  0  0  0  3  0  0  0  0  0  0
  195.9770  175.7220  139.6460 F   0  0  0  0  0  0  0  0  0  0  0  0
  189.7590  172.2220  138.9130 O   0  0  0  0  0  0  0  0  0  0  0  0
  190.4340  171.3550  135.3070 C   0  0  0  0  0  2  0  0  0  0  0  0
  190.2140  172.4200  137.5750 C   0  0  1  0  0  3  0  0  0  0  0  0
  189.9520  171.1570  136.7450 C   0  0  2  0  0  3  0  0  0  0  0  0
  189.7430  172.5620  134.6740 C   0  0  0  0  0  2  0  0  0  0  0  0
  189.9990  173.8150  135.5060 C   0  0  0  0  0  2  0  0  0  0  0  0
  189.4970  173.6080  136.9310 C   0  0  0  0  0  2  0  0  0  0  0  0
  191.9610  169.9830  137.6320 O   0  0  0  0  0  1  0  0  0  0  0  0
  190.6000  169.9540  137.3520 C   0  0  0  0  0  0  0  0  0  0  0  0
  189.9330  168.9130  137.5960 O   0  0  0  0  0  0  0  0  0  0  0  0
  4 20  1  0  0  0  0
  5 28  1  0  0  0  0
  5  2  1  1  0  0  0
  6  4  2  0  0  0  0
  7 22  1  1  0  0  0
  8  1  1  0  0  0  0
  8  5  1  0  0  0  0
  9  6  2  0  0  0  0
  9 24  1  0  0  0  0
 10 16  1  0  0  0  0
 10 14  1  1  0  0  0
 11 19  1  0  0  0  0
 11 25  1  0  0  0  0
 12 10  1  0  0  0  0
 13 17  1  1  0  0  0
 13 25  1  0  0  0  0
 13  1  1  0  0  0  0
 15 29  1  0  0  0  0
 15  7  1  0  0  0  0
 16 21  2  0  0  0  0
 16  7  1  0  0  0  0
 18 28  1  0  0  0  0
 19  3  2  0  0  0  0
 20 26  1  6  0  0  0
 20 23  1  0  0  0  0
 23 18  1  0  0  0  0
 24 40  1  6  0  0  0
 24 27  1  0  0  0  0
 27 12  1  0  0  0  0
 29 42  1  1  0  0  0
 29 19  1  0  0  0  0
 30 31  1  0  0  0  0
 30 20  1  0  0  0  0
 32 30  2  0  0  0  0
 32 31  1  0  0  0  0
 34 32  1  0  0  0  0
 35 33  2  0  0  0  0
 35 34  1  0  0  0  0
 36 35  1  0  0  0  0
 37 38  1  0  0  0  0
 37 39  1  0  0  0  0
 38 39  1  0  0  0  0
 39 36  1  0  0  0  0
 40 41  1  0  0  0  0
 44 43  1  1  0  0  0
 44 42  1  0  0  0  0
 45 46  1  0  0  0  0
 46 47  1  0  0  0  0
 46 44  1  0  0  0  0
 49 48  1  0  0  0  0
 49 46  1  0  0  0  0
 50 49  1  0  0  0  0
 51  9  1  0  0  0  0
 52 54  1  0  0  0  0
 53 51  1  1  0  0  0
 54 59  1  1  0  0  0
 54 53  1  0  0  0  0
 55 52  1  0  0  0  0
 55 56  1  0  0  0  0
 56 57  1  0  0  0  0
 57 53  1  0  0  0  0
 59 60  2  0  0  0  0
 59 58  1  0  0  0  0
M  END
>  <MODEL>
7

>  <REMARK>
 VINA RESULT:      -5.7      3.193      8.137
  Name = 
  11 active torsions:
  status: ('A' for Active; 'I' for Inactive)
    1  A    between atoms: C_6  and  O_39
    2  A    between atoms: C_13  and  O_39
    3  A    between atoms: O_17  and  C_48
    4  A    between atoms: C_20  and  C_44
    5  A    between atoms: C_21  and  C_34
    6  A    between atoms: O_25  and  C_28
    7  A    between atoms: O_25  and  C_60
    8  A    between atoms: C_28  and  C_34
    9  A    between atoms: C_33  and  C_38
   10  A    between atoms: N_40  and  C_57
   11  A    between atoms: C_53  and  N_55
                            x       y       z     vdW  Elec       q    Type
                         _______ _______ _______ _____ _____    ______ ____

>  <TORSDO>
F 11

$$$$
=
 OpenBabel11072408533D

 60 63  0  0  1  0  0  0  0  0999 V2000
  196.6220  174.6820  143.7610 C   0  0  0  0  0  2  0  0  0  0  0  0
  197.1470  173.7760  146.4350 C   0  0  0  0  0  1  0  0  0  0  0  0
  197.1350  173.1340  138.8720 O   0  0  0  0  0  0  0  0  0  0  0  0
  191.4820  174.3870  142.5870 C   0  0  0  0  0  3  0  0  0  0  0  0
  195.7880  173.9410  145.7660 C   0  0  1  0  0  3  0  0  0  0  0  0
  190.7400  173.8990  141.6230 C   0  0  0  0  0  0  0  0  0  0  0  0
  194.5080  171.4750  137.5470 C   0  0  2  0  0  3  0  0  0  0  0  0
  195.7630  175.0000  144.8300 O   0  0  0  0  0  0  0  0  0  0  0  0
  190.0040  173.4080  140.6600 C   0  0  0  0  0  0  0  0  0  0  0  0
  192.2880  170.3800  138.3350 C   0  0  1  0  0  3  0  0  0  0  0  0
  195.7680  174.4660  140.1710 O   0  0  0  0  0  0  0  0  0  0  0  0
  190.9490  170.9260  137.8700 C   0  0  0  0  0  2  0  0  0  0  0  0
  196.0250  175.1630  142.4560 C   0  0  1  0  0  3  0  0  0  0  0  0
  192.1730  169.0360  138.6430 F   0  0  0  0  0  0  0  0  0  0  0  0
  194.0310  172.8880  137.8860 C   0  0  0  0  0  2  0  0  0  0  0  0
  193.3350  170.5850  137.2810 C   0  0  0  0  0  0  0  0  0  0  0  0
  196.4290  176.4770  142.2300 O   0  0  0  0  0  1  0  0  0  0  0  0
  193.7580  172.6180  145.1250 C   0  0  0  0  0  2  0  0  0  0  0  0
  196.0820  173.8260  138.9750 C   0  0  0  0  0  0  0  0  0  0  0  0
  191.8010  173.6530  143.8630 C   0  0  2  0  0  0  0  0  0  0  0  0
  193.2480  170.0110  136.2060 O   0  0  0  0  0  0  0  0  0  0  0  0
  195.2570  170.9490  138.6000 O   0  0  0  0  0  1  0  0  0  0  0  0
  193.2910  173.3050  143.8450 C   0  0  0  0  0  2  0  0  0  0  0  0
  190.6830  172.8680  139.4390 C   0  0  1  0  0  3  0  0  0  0  0  0
  196.5540  174.2890  141.3390 C   0  0  0  0  0  2  0  0  0  0  0  0
  190.9700  172.3800  144.0290 C   0  0  0  0  0  1  0  0  0  0  0  0
  190.1660  171.4830  139.0500 C   0  0  0  0  0  2  0  0  0  0  0  0
  195.2730  172.6140  145.2080 C   0  0  0  0  0  2  0  0  0  0  0  0
  195.1390  173.9400  137.8210 C   0  0  1  0  0  3  0  0  0  0  0  0
  191.5220  174.5730  145.0050 C   0  0  0  0  0  0  0  0  0  0  0  0
  191.9730  175.5200  145.8910 O   0  0  0  0  0  0  0  0  0  0  0  0
  190.6640  175.1060  145.9110 C   0  0  0  0  0  0  0  0  0  0  0  0
  189.0800  177.4310  145.8980 O   0  0  0  0  0  0  0  0  0  0  0  0
  189.3590  175.1880  146.4770 N   0  0  0  0  0  2  0  0  0  0  0  0
  188.5910  176.3900  146.4130 C   0  0  0  0  0  0  0  0  0  0  0  0
  187.2670  176.4080  146.9470 N   0  0  0  0  0  2  0  0  0  0  0  0
  185.0350  177.2530  146.5480 C   0  0  0  0  0  2  0  0  0  0  0  0
  185.9650  177.8740  145.5290 C   0  0  0  0  0  2  0  0  0  0  0  0
  186.4550  177.6130  146.9360 C   0  0  0  0  0  3  0  0  0  0  0  0
  190.6500  173.7870  138.3680 O   0  0  0  0  0  0  0  0  0  0  0  0
  191.8050  174.4270  138.3700 O   0  0  0  0  0  1  0  0  0  0  0  0
  195.8170  173.8910  136.5950 O   0  0  0  0  0  0  0  0  0  0  0  0
  196.3150  175.9670  137.3710 F   0  0  0  0  0  0  0  0  0  0  0  0
  196.0110  175.2320  136.2360 C   0  0  2  0  0  3  0  0  0  0  0  0
  193.8580  176.1600  136.5510 F   0  0  0  0  0  0  0  0  0  0  0  0
  194.7620  175.8050  135.5640 C   0  0  0  0  0  0  0  0  0  0  0  0
  194.1800  174.8440  134.7530 F   0  0  0  0  0  0  0  0  0  0  0  0
  194.4080  178.1530  135.2120 F   0  0  0  0  0  0  0  0  0  0  0  0
  195.0970  177.0510  134.7450 C   0  0  0  0  0  3  0  0  0  0  0  0
  196.4530  177.3070  134.8130 F   0  0  0  0  0  0  0  0  0  0  0  0
  188.6030  173.3890  140.7360 O   0  0  0  0  0  0  0  0  0  0  0  0
  187.0750  176.7780  140.1110 C   0  0  0  0  0  2  0  0  0  0  0  0
  187.7520  174.3550  140.1220 C   0  0  1  0  0  3  0  0  0  0  0  0
  187.9820  175.7310  140.7600 C   0  0  2  0  0  3  0  0  0  0  0  0
  187.3250  176.8400  138.6040 C   0  0  0  0  0  2  0  0  0  0  0  0
  187.1030  175.4680  137.9730 C   0  0  0  0  0  2  0  0  0  0  0  0
  188.0260  174.4400  138.6190 C   0  0  0  0  0  2  0  0  0  0  0  0
  188.7450  176.2010  143.0820 O   0  0  0  0  0  1  0  0  0  0  0  0
  187.7630  175.6960  142.2390 C   0  0  0  0  0  0  0  0  0  0  0  0
  186.7120  175.2020  142.7270 O   0  0  0  0  0  0  0  0  0  0  0  0
  1  8  1  0  0  0  0
  3 19  2  0  0  0  0
  4 20  1  0  0  0  0
  5  2  1  6  0  0  0
  6  4  2  0  0  0  0
  7 15  1  0  0  0  0
  7 22  1  1  0  0  0
  8  5  1  0  0  0  0
  9 51  1  0  0  0  0
  9  6  2  0  0  0  0
 10 14  1  6  0  0  0
 11 25  1  0  0  0  0
 12 10  1  0  0  0  0
 12 27  1  0  0  0  0
 13 17  1  6  0  0  0
 13  1  1  0  0  0  0
 16  7  1  0  0  0  0
 16 10  1  0  0  0  0
 18 28  1  0  0  0  0
 19 11  1  0  0  0  0
 20 26  1  1  0  0  0
 20 30  1  0  0  0  0
 21 16  2  0  0  0  0
 23 20  1  0  0  0  0
 23 18  1  0  0  0  0
 24 40  1  6  0  0  0
 24  9  1  0  0  0  0
 25 13  1  0  0  0  0
 27 24  1  0  0  0  0
 28  5  1  0  0  0  0
 29 42  1  6  0  0  0
 29 15  1  0  0  0  0
 29 19  1  0  0  0  0
 30 31  1  0  0  0  0
 30 32  2  0  0  0  0
 31 32  1  0  0  0  0
 32 34  1  0  0  0  0
 33 35  2  0  0  0  0
 35 34  1  0  0  0  0
 35 36  1  0  0  0  0
 37 39  1  0  0  0  0
 38 37  1  0  0  0  0
 38 39  1  0  0  0  0
 39 36  1  0  0  0  0
 40 41  1  0  0  0  0
 44 42  1  0  0  0  0
 44 43  1  1  0  0  0
 46 44  1  0  0  0  0
 46 45  1  0  0  0  0
 47 46  1  0  0  0  0
 49 50  1  0  0  0  0
 49 48  1  0  0  0  0
 49 46  1  0  0  0  0
 52 54  1  0  0  0  0
 53 51  1  1  0  0  0
 53 54  1  0  0  0  0
 54 59  1  1  0  0  0
 55 52  1  0  0  0  0
 56 55  1  0  0  0  0
 56 57  1  0  0  0  0
 57 53  1  0  0  0  0
 59 60  2  0  0  0  0
 59 58  1  0  0  0  0
M  END
>  <MODEL>
8

>  <REMARK>
 VINA RESULT:      -5.5      1.865      6.937
  Name = 
  11 active torsions:
  status: ('A' for Active; 'I' for Inactive)
    1  A    between atoms: C_6  and  O_39
    2  A    between atoms: C_13  and  O_39
    3  A    between atoms: O_17  and  C_48
    4  A    between atoms: C_20  and  C_44
    5  A    between atoms: C_21  and  C_34
    6  A    between atoms: O_25  and  C_28
    7  A    between atoms: O_25  and  C_60
    8  A    between atoms: C_28  and  C_34
    9  A    between atoms: C_33  and  C_38
   10  A    between atoms: N_40  and  C_57
   11  A    between atoms: C_53  and  N_55
                            x       y       z     vdW  Elec       q    Type
                         _______ _______ _______ _____ _____    ______ ____

>  <TORSDO>
F 11

$$$$
=
 OpenBabel11072408533D

 60 63  0  0  1  0  0  0  0  0999 V2000
  187.5350  176.3300  141.8400 C   0  0  0  0  0  2  0  0  0  0  0  0
  186.8930  179.0120  142.6400 C   0  0  0  0  0  1  0  0  0  0  0  0
  189.8960  173.7770  138.0360 O   0  0  0  0  0  0  0  0  0  0  0  0
  191.5110  174.3520  144.6990 C   0  0  0  0  0  3  0  0  0  0  0  0
  187.9030  178.0720  143.2870 C   0  0  1  0  0  3  0  0  0  0  0  0
  192.6530  173.7510  144.4740 C   0  0  0  0  0  0  0  0  0  0  0  0
  193.1890  173.1610  138.4690 C   0  0  2  0  0  3  0  0  0  0  0  0
  187.5240  176.7130  143.1940 O   0  0  0  0  0  0  0  0  0  0  0  0
  193.7940  173.1540  144.2440 C   0  0  0  0  0  0  0  0  0  0  0  0
  195.1180  173.8700  140.0570 C   0  0  1  0  0  3  0  0  0  0  0  0
  189.4590  173.5770  140.2940 O   0  0  0  0  0  0  0  0  0  0  0  0
  195.7890  172.8500  140.9630 C   0  0  0  0  0  2  0  0  0  0  0  0
  188.0460  174.9100  141.7080 C   0  0  1  0  0  3  0  0  0  0  0  0
  195.9950  174.9030  139.7740 F   0  0  0  0  0  0  0  0  0  0  0  0
  192.4370  172.4190  139.5750 C   0  0  0  0  0  2  0  0  0  0  0  0
  194.6500  173.2210  138.7900 C   0  0  0  0  0  0  0  0  0  0  0  0
  186.9730  174.0300  141.8220 O   0  0  0  0  0  1  0  0  0  0  0  0
  190.3450  177.9060  143.8260 C   0  0  0  0  0  2  0  0  0  0  0  0
  190.0880  173.1620  139.1230 C   0  0  0  0  0  0  0  0  0  0  0  0
  191.3630  175.8360  144.9090 C   0  0  2  0  0  0  0  0  0  0  0  0
  195.4570  172.7540  138.0010 O   0  0  0  0  0  0  0  0  0  0  0  0
  192.6940  174.4580  138.3300 O   0  0  0  0  0  1  0  0  0  0  0  0
  190.6230  176.4110  143.6990 C   0  0  0  0  0  2  0  0  0  0  0  0
  194.1250  172.7490  142.8410 C   0  0  1  0  0  3  0  0  0  0  0  0
  188.6650  174.7530  140.3350 C   0  0  0  0  0  2  0  0  0  0  0  0
  192.7090  176.5400  145.0810 C   0  0  0  0  0  1  0  0  0  0  0  0
  195.5290  173.1880  142.4230 C   0  0  0  0  0  2  0  0  0  0  0  0
  189.3230  178.3490  142.7950 C   0  0  0  0  0  2  0  0  0  0  0  0
  191.0220  171.9970  139.1760 C   0  0  1  0  0  3  0  0  0  0  0  0
  190.5400  176.0460  146.1380 C   0  0  0  0  0  0  0  0  0  0  0  0
  190.3100  175.7670  147.4620 O   0  0  0  0  0  0  0  0  0  0  0  0
  189.5070  176.6460  146.7780 C   0  0  0  0  0  0  0  0  0  0  0  0
  186.8990  175.9100  146.0200 O   0  0  0  0  0  0  0  0  0  0  0  0
  188.3960  177.5380  146.7660 N   0  0  0  0  0  2  0  0  0  0  0  0
  187.0870  177.0970  146.4000 C   0  0  0  0  0  0  0  0  0  0  0  0
  185.9950  178.0150  146.4550 N   0  0  0  0  0  2  0  0  0  0  0  0
  183.8370  178.8730  145.7750 C   0  0  0  0  0  2  0  0  0  0  0  0
  183.6630  178.1400  147.0860 C   0  0  0  0  0  2  0  0  0  0  0  0
  184.6510  177.6270  146.0620 C   0  0  0  0  0  3  0  0  0  0  0  0
  193.8910  171.3750  142.6190 O   0  0  0  0  0  0  0  0  0  0  0  0
  192.5910  171.1790  142.7390 O   0  0  0  0  0  1  0  0  0  0  0  0
  191.0250  171.2840  137.9690 O   0  0  0  0  0  0  0  0  0  0  0  0
  190.1610  169.9230  139.5690 F   0  0  0  0  0  0  0  0  0  0  0  0
  190.2090  170.1690  138.2050 C   0  0  2  0  0  3  0  0  0  0  0  0
  189.6620  168.1800  137.0470 F   0  0  0  0  0  0  0  0  0  0  0  0
  190.7400  168.9360  137.4730 C   0  0  0  0  0  0  0  0  0  0  0  0
  191.5080  168.1690  138.3360 F   0  0  0  0  0  0  0  0  0  0  0  0
  192.6700  168.5160  136.1090 F   0  0  0  0  0  0  0  0  0  0  0  0
  191.5660  169.3330  136.2490 C   0  0  0  0  0  3  0  0  0  0  0  0
  190.7900  169.2370  135.1090 F   0  0  0  0  0  0  0  0  0  0  0  0
  194.7020  172.8720  145.2760 O   0  0  0  0  0  0  0  0  0  0  0  0
  197.5010  170.6000  146.3780 C   0  0  0  0  0  2  0  0  0  0  0  0
  195.4520  171.6620  145.3780 C   0  0  1  0  0  3  0  0  0  0  0  0
  196.6860  171.8880  146.2600 C   0  0  2  0  0  3  0  0  0  0  0  0
  196.6370  169.4730  146.9470 C   0  0  0  0  0  2  0  0  0  0  0  0
  195.4070  169.2560  146.0720 C   0  0  0  0  0  2  0  0  0  0  0  0
  194.5970  170.5450  145.9780 C   0  0  0  0  0  2  0  0  0  0  0  0
  197.9100  174.0310  146.5920 O   0  0  0  0  0  1  0  0  0  0  0  0
  197.5410  173.0000  145.7380 C   0  0  0  0  0  0  0  0  0  0  0  0
  197.9140  173.0190  144.5340 O   0  0  0  0  0  0  0  0  0  0  0  0
  1  8  1  0  0  0  0
  3 19  2  0  0  0  0
  4 20  1  0  0  0  0
  5  2  1  6  0  0  0
  6  4  2  0  0  0  0
  7 22  1  1  0  0  0
  7 16  1  0  0  0  0
  7 15  1  0  0  0  0
  8  5  1  0  0  0  0
  9  6  2  0  0  0  0
  9 51  1  0  0  0  0
 10 14  1  6  0  0  0
 10 12  1  0  0  0  0
 11 25  1  0  0  0  0
 12 27  1  0  0  0  0
 13 17  1  6  0  0  0
 13  1  1  0  0  0  0
 16 10  1  0  0  0  0
 19 29  1  0  0  0  0
 19 11  1  0  0  0  0
 20 26  1  1  0  0  0
 20 30  1  0  0  0  0
 21 16  2  0  0  0  0
 23 18  1  0  0  0  0
 23 20  1  0  0  0  0
 24 40  1  1  0  0  0
 24  9  1  0  0  0  0
 25 13  1  0  0  0  0
 27 24  1  0  0  0  0
 28  5  1  0  0  0  0
 28 18  1  0  0  0  0
 29 42  1  6  0  0  0
 29 15  1  0  0  0  0
 30 32  2  0  0  0  0
 30 31  1  0  0  0  0
 32 31  1  0  0  0  0
 33 35  2  0  0  0  0
 34 32  1  0  0  0  0
 35 36  1  0  0  0  0
 35 34  1  0  0  0  0
 37 39  1  0  0  0  0
 37 38  1  0  0  0  0
 39 36  1  0  0  0  0
 39 38  1  0  0  0  0
 40 41  1  0  0  0  0
 42 44  1  0  0  0  0
 44 43  1  1  0  0  0
 45 46  1  0  0  0  0
 46 44  1  0  0  0  0
 46 47  1  0  0  0  0
 48 49  1  0  0  0  0
 49 46  1  0  0  0  0
 50 49  1  0  0  0  0
 52 55  1  0  0  0  0
 53 51  1  1  0  0  0
 53 57  1  0  0  0  0
 53 54  1  0  0  0  0
 54 59  1  6  0  0  0
 54 52  1  0  0  0  0
 56 55  1  0  0  0  0
 57 56  1  0  0  0  0
 59 58  1  0  0  0  0
 60 59  2  0  0  0  0
M  END
>  <MODEL>
9

>  <REMARK>
 VINA RESULT:      -5.4      1.479      2.047
  Name = 
  11 active torsions:
  status: ('A' for Active; 'I' for Inactive)
    1  A    between atoms: C_6  and  O_39
    2  A    between atoms: C_13  and  O_39
    3  A    between atoms: O_17  and  C_48
    4  A    between atoms: C_20  and  C_44
    5  A    between atoms: C_21  and  C_34
    6  A    between atoms: O_25  and  C_28
    7  A    between atoms: O_25  and  C_60
    8  A    between atoms: C_28  and  C_34
    9  A    between atoms: C_33  and  C_38
   10  A    between atoms: N_40  and  C_57
   11  A    between atoms: C_53  and  N_55
                            x       y       z     vdW  Elec       q    Type
                         _______ _______ _______ _____ _____    ______ ____

>  <TORSDO>
F 11

$$$$
