=
 OpenBabel11062418313D

 54 59  0  0  1  0  0  0  0  0999 V2000
  188.1910  174.2720  139.2600 C   0  0  0  0  0  2  0  0  0  0  0  0
  192.1340  172.9040  142.4310 O   0  0  0  0  0  0  0  0  0  0  0  0
  188.7340  173.8980  141.4570 C   0  0  1  0  0  3  0  0  0  0  0  0
  190.3900  173.2970  138.7440 C   0  0  0  0  0  0  0  0  0  0  0  0
  192.3610  177.1630  144.6940 C   0  0  0  0  0  2  0  0  0  0  0  0
  190.9930  174.6600  143.5350 C   0  0  0  0  0  0  0  0  0  0  0  0
  186.6910  175.0030  142.0250 O   0  0  0  0  0  1  0  0  0  0  0  0
  190.9990  177.7470  144.2940 C   0  0  1  0  0  3  0  0  0  0  0  0
  190.2590  174.0120  141.1990 C   0  0  2  0  0  3  0  0  0  0  0  0
  191.1890  179.1950  143.8870 C   0  0  0  0  0  1  0  0  0  0  0  0
  191.3720  173.2840  136.4030 C   0  0  0  0  0  0  0  0  0  0  0  0
  190.6900  172.9500  140.1740 C   0  0  0  0  0  2  0  0  0  0  0  0
  188.0760  175.1670  142.0370 C   0  0  0  0  0  0  0  0  0  0  0  0
  189.2510  173.8060  138.3670 N   0  0  0  0  0  0  0  0  0  0  0  0
  191.3110  172.8240  137.7590 N   0  0  0  0  0  2  0  0  0  0  0  0
  192.9200  172.5590  143.5800 C   0  0  1  0  0  3  0  0  0  0  0  0
  191.1040  173.8590  142.4520 C   0  0  0  0  0  0  0  0  0  0  0  0
  190.3900  177.0120  143.1790 N   0  0  0  0  0  2  0  0  0  0  0  0
  190.8600  174.3880  136.0810 O   0  0  0  0  0  0  0  0  0  0  0  0
  193.0200  173.7080  144.5460 C   0  0  0  0  0  0  0  0  0  0  0  0
  188.3980  176.2930  141.2770 O   0  0  0  0  0  1  0  0  0  0  0  0
  192.2100  175.8530  145.4730 C   0  0  0  0  0  2  0  0  0  0  0  0
  189.9540  175.7240  143.7020 C   0  0  1  0  0  3  0  0  0  0  0  0
  188.4880  175.3790  143.4810 C   0  0  0  0  0  2  0  0  0  0  0  0
  188.0190  173.3840  140.3420 O   0  0  0  0  0  0  0  0  0  0  0  0
  192.0890  174.6760  144.5380 C   0  0  0  0  0  0  0  0  0  0  0  0
  191.9440  169.5970  142.3400 C   0  0  0  0  0  2  0  0  0  0  0  0
  193.3910  170.4450  144.5010 O   0  0  0  0  0  0  0  0  0  0  0  0
  192.3690  171.3190  144.2640 C   0  0  2  0  0  3  0  0  0  0  0  0
  192.4060  170.2600  143.3870 C   0  0  0  0  0  0  0  0  0  0  0  0
  191.9750  172.4970  135.4200 O   0  0  0  0  0  0  0  0  0  0  0  0
  192.4230  171.1780  135.6770 C   0  0  1  0  0  3  0  0  0  0  0  0
  191.5690  170.0120  134.5520 S   0  0  0  0  0  1  0  0  0  0  0  0
  194.5950  171.2550  136.9360 C   0  0  0  0  0  1  0  0  0  0  0  0
  194.3860  169.7640  134.9710 C   0  0  0  0  0  1  0  0  0  0  0  0
  194.4290  172.1650  134.7100 N   0  0  0  0  0  1  0  0  0  0  0  0
  193.9520  171.0920  135.5660 C   0  0  0  0  0  0  0  0  0  0  0  0
  194.1390  173.7120  145.5460 C   0  0  0  0  0  2  0  0  0  0  0  0
  196.0970  176.0830  143.2570 C   0  0  0  0  0  2  0  0  0  0  0  0
  197.2050  171.5000  140.1030 O   0  0  0  0  0  0  0  0  0  0  0  0
  196.5820  173.4680  144.8630 C   0  0  2  0  0  3  0  0  0  0  0  0
  197.1950  173.1150  146.2140 C   0  0  0  0  0  1  0  0  0  0  0  0
  196.4210  175.3110  141.0620 C   0  0  0  0  0  2  0  0  0  0  0  0
  195.0340  175.1000  143.7210 C   0  0  0  0  0  2  0  0  0  0  0  0
  197.3640  171.7340  143.6110 C   0  0  0  0  0  2  0  0  0  0  0  0
  197.0820  174.2050  140.2500 C   0  0  1  0  0  3  0  0  0  0  0  0
  195.3890  174.4210  145.0380 C   0  0  1  0  0  3  0  0  0  0  0  0
  196.8500  172.6120  141.0440 S   0  0  0  0  0  0  0  0  0  0  0  0
  195.4160  172.4640  141.4620 O   0  0  0  0  0  0  0  0  0  0  0  0
  197.9390  172.5450  142.4540 C   0  0  0  0  0  2  0  0  0  0  0  0
  196.2030  172.3170  144.1480 O   0  0  0  0  0  0  0  0  0  0  0  0
  197.0470  175.4330  142.3680 N   0  0  0  0  0  2  0  0  0  0  0  0
  195.1380  174.9140  138.8540 C   0  0  0  0  0  1  0  0  0  0  0  0
  196.4760  174.2090  138.8570 C   0  0  0  0  0  2  0  0  0  0  0  0
  1 25  1  0  0  0  0
  2 17  1  0  0  0  0
  3 25  1  6  0  0  0
  3 13  1  0  0  0  0
  4 12  1  0  0  0  0
  5 22  1  0  0  0  0
  6 23  1  0  0  0  0
  6 26  1  0  0  0  0
  7 13  1  0  0  0  0
  8 10  1  6  0  0  0
  8  5  1  0  0  0  0
  9 12  1  6  0  0  0
  9  3  1  0  0  0  0
  9 17  1  0  0  0  0
 11 15  1  0  0  0  0
 13 24  1  0  0  0  0
 14  4  2  0  0  0  0
 14  1  1  0  0  0  0
 15  4  1  0  0  0  0
 16  2  1  6  0  0  0
 16 29  1  0  0  0  0
 16 20  1  0  0  0  0
 17  6  2  0  0  0  0
 18 23  1  0  0  0  0
 18  8  1  0  0  0  0
 19 11  2  0  0  0  0
 20 38  1  0  0  0  0
 21 13  1  0  0  0  0
 23 24  1  6  0  0  0
 26 20  2  0  0  0  0
 26 22  1  0  0  0  0
 27 30  2  0  0  0  0
 29 30  1  6  0  0  0
 29 28  1  0  0  0  0
 30 28  1  0  0  0  0
 31 32  1  0  0  0  0
 31 11  1  0  0  0  0
 32 33  1  6  0  0  0
 35 37  1  0  0  0  0
 36 37  1  0  0  0  0
 37 32  1  0  0  0  0
 37 34  1  0  0  0  0
 39 44  1  0  0  0  0
 40 48  2  0  0  0  0
 41 47  1  0  0  0  0
 41 42  1  1  0  0  0
 43 52  1  0  0  0  0
 44 47  1  0  0  0  0
 45 51  1  0  0  0  0
 46 54  1  6  0  0  0
 46 48  1  0  0  0  0
 46 43  1  0  0  0  0
 47 38  1  6  0  0  0
 48 49  2  0  0  0  0
 48 50  1  0  0  0  0
 50 45  1  0  0  0  0
 51 41  1  0  0  0  0
 52 39  1  0  0  0  0
 53 54  1  0  0  0  0
M  END
>  <MODEL>
1

>  <REMARK>
 VINA RESULT:      -6.5      0.000      0.000
  Name = 
  7 active torsions:
  status: ('A' for Active; 'I' for Inactive)
    1  A    between atoms: C_15  and  O_24
    2  A    between atoms: C_15  and  C_53
    3  A    between atoms: C_20  and  O_24
    4  A    between atoms: C_22  and  C_38
    5  A    between atoms: C_29  and  C_31
    6  A    between atoms: C_34  and  C_46
    7  A    between atoms: C_42  and  C_46
                            x       y       z     vdW  Elec       q    Type
                         _______ _______ _______ _____ _____    ______ ____

>  <TORSDO>
F 7

$$$$
=
 OpenBabel11062418313D

 54 59  0  0  1  0  0  0  0  0999 V2000
  190.9960  177.1750  145.3880 C   0  0  0  0  0  2  0  0  0  0  0  0
  192.1980  172.7810  142.7950 O   0  0  0  0  0  0  0  0  0  0  0  0
  192.2690  175.2700  145.4970 C   0  0  1  0  0  3  0  0  0  0  0  0
  189.9070  176.1140  143.4540 C   0  0  0  0  0  0  0  0  0  0  0  0
  196.8110  173.9840  142.0300 C   0  0  0  0  0  2  0  0  0  0  0  0
  194.2390  173.5930  143.6770 C   0  0  0  0  0  0  0  0  0  0  0  0
  193.4860  176.3270  147.2630 O   0  0  0  0  0  1  0  0  0  0  0  0
  196.9640  175.1090  143.0610 C   0  0  1  0  0  3  0  0  0  0  0  0
  192.1460  174.9860  143.9770 C   0  0  2  0  0  3  0  0  0  0  0  0
  197.7020  176.2670  142.4160 C   0  0  0  0  0  1  0  0  0  0  0  0
  188.2330  177.3290  141.9820 C   0  0  0  0  0  0  0  0  0  0  0  0
  190.6630  174.8240  143.6010 C   0  0  0  0  0  2  0  0  0  0  0  0
  193.5890  175.9450  145.9260 C   0  0  0  0  0  0  0  0  0  0  0  0
  190.0200  177.0970  144.3020 N   0  0  0  0  0  0  0  0  0  0  0  0
  188.8630  176.1410  142.4790 N   0  0  0  0  0  2  0  0  0  0  0  0
  192.7510  171.5120  142.4190 C   0  0  1  0  0  3  0  0  0  0  0  0
  192.9060  173.7530  143.5220 C   0  0  0  0  0  0  0  0  0  0  0  0
  195.6670  175.5860  143.5560 N   0  0  0  0  0  2  0  0  0  0  0  0
  188.7980  178.4480  142.1030 O   0  0  0  0  0  0  0  0  0  0  0  0
  194.2440  171.5850  142.2610 C   0  0  0  0  0  0  0  0  0  0  0  0
  193.8480  177.0800  145.1560 O   0  0  0  0  0  1  0  0  0  0  0  0
  196.4320  172.6550  142.6910 C   0  0  0  0  0  2  0  0  0  0  0  0
  195.1280  174.5420  144.4180 C   0  0  1  0  0  3  0  0  0  0  0  0
  194.7500  174.9740  145.8280 C   0  0  0  0  0  2  0  0  0  0  0  0
  191.1310  175.9270  146.0340 O   0  0  0  0  0  0  0  0  0  0  0  0
  194.9400  172.5500  142.8840 C   0  0  0  0  0  0  0  0  0  0  0  0
  191.1210  168.6060  142.0110 C   0  0  0  0  0  2  0  0  0  0  0  0
  193.3130  169.4530  143.4110 O   0  0  0  0  0  0  0  0  0  0  0  0
  192.3600  170.4330  143.4150 C   0  0  2  0  0  3  0  0  0  0  0  0
  191.9840  169.2980  142.7350 C   0  0  0  0  0  0  0  0  0  0  0  0
  186.9730  177.2600  141.3860 O   0  0  0  0  0  0  0  0  0  0  0  0
  186.0000  178.2750  141.5540 C   0  0  1  0  0  3  0  0  0  0  0  0
  184.8360  178.2470  140.1400 S   0  0  0  0  0  1  0  0  0  0  0  0
  185.8040  179.1640  143.8950 C   0  0  0  0  0  1  0  0  0  0  0  0
  183.7860  178.2910  142.7580 C   0  0  0  0  0  1  0  0  0  0  0  0
  185.5630  176.8080  143.4480 N   0  0  0  0  0  1  0  0  0  0  0  0
  185.2880  178.1280  142.9060 C   0  0  0  0  0  0  0  0  0  0  0  0
  194.9350  170.5290  141.4480 C   0  0  0  0  0  2  0  0  0  0  0  0
  194.4030  172.7500  138.3690 C   0  0  0  0  0  2  0  0  0  0  0  0
  189.6570  169.7610  137.5130 O   0  0  0  0  0  0  0  0  0  0  0  0
  194.6130  169.7260  139.0510 C   0  0  2  0  0  3  0  0  0  0  0  0
  195.7060  168.6650  138.9830 C   0  0  0  0  0  1  0  0  0  0  0  0
  192.1880  172.8670  137.5930 C   0  0  0  0  0  2  0  0  0  0  0  0
  194.1650  172.1140  139.7290 C   0  0  0  0  0  2  0  0  0  0  0  0
  192.8240  168.4890  138.3750 C   0  0  0  0  0  2  0  0  0  0  0  0
  191.0610  172.0260  137.0090 C   0  0  1  0  0  3  0  0  0  0  0  0
  195.0320  170.8850  139.9680 C   0  0  1  0  0  3  0  0  0  0  0  0
  190.9470  170.4460  137.8530 S   0  0  0  0  0  0  0  0  0  0  0  0
  191.0110  170.6650  139.3370 O   0  0  0  0  0  0  0  0  0  0  0  0
  192.3040  169.4330  137.2950 C   0  0  0  0  0  2  0  0  0  0  0  0
  193.3840  169.1790  139.4640 O   0  0  0  0  0  0  0  0  0  0  0  0
  193.4730  172.2210  137.3830 N   0  0  0  0  0  2  0  0  0  0  0  0
  189.8250  173.7520  138.3200 C   0  0  0  0  0  1  0  0  0  0  0  0
  189.7650  172.8070  137.1420 C   0  0  0  0  0  2  0  0  0  0  0  0
  1 25  1  0  0  0  0
  2 17  1  0  0  0  0
  3 13  1  0  0  0  0
  3 25  1  6  0  0  0
  4 12  1  0  0  0  0
  4 14  2  0  0  0  0
  5 22  1  0  0  0  0
  5  8  1  0  0  0  0
  6 23  1  0  0  0  0
  8 10  1  6  0  0  0
  8 18  1  0  0  0  0
  9 12  1  1  0  0  0
  9  3  1  0  0  0  0
 11 19  2  0  0  0  0
 11 15  1  0  0  0  0
 13  7  1  0  0  0  0
 14  1  1  0  0  0  0
 15  4  1  0  0  0  0
 16 20  1  1  0  0  0
 16  2  1  0  0  0  0
 16 29  1  0  0  0  0
 17  6  2  0  0  0  0
 17  9  1  0  0  0  0
 18 23  1  0  0  0  0
 20 26  2  0  0  0  0
 21 13  1  0  0  0  0
 22 26  1  0  0  0  0
 23 24  1  1  0  0  0
 24 13  1  0  0  0  0
 26  6  1  0  0  0  0
 27 30  2  0  0  0  0
 28 29  1  0  0  0  0
 29 30  1  6  0  0  0
 30 28  1  0  0  0  0
 31 32  1  0  0  0  0
 31 11  1  0  0  0  0
 32 33  1  6  0  0  0
 32 37  1  0  0  0  0
 35 37  1  0  0  0  0
 37 36  1  0  0  0  0
 37 34  1  0  0  0  0
 38 20  1  0  0  0  0
 39 44  1  0  0  0  0
 40 48  2  0  0  0  0
 41 42  1  1  0  0  0
 41 51  1  0  0  0  0
 41 47  1  0  0  0  0
 44 47  1  0  0  0  0
 45 51  1  0  0  0  0
 46 54  1  1  0  0  0
 46 43  1  0  0  0  0
 46 48  1  0  0  0  0
 47 38  1  1  0  0  0
 48 49  2  0  0  0  0
 50 48  1  0  0  0  0
 50 45  1  0  0  0  0
 52 43  1  0  0  0  0
 52 39  1  0  0  0  0
 54 53  1  0  0  0  0
M  END
>  <MODEL>
2

>  <REMARK>
 VINA RESULT:      -6.5      3.157      7.210
  Name = 
  7 active torsions:
  status: ('A' for Active; 'I' for Inactive)
    1  A    between atoms: C_15  and  O_24
    2  A    between atoms: C_15  and  C_53
    3  A    between atoms: C_20  and  O_24
    4  A    between atoms: C_22  and  C_38
    5  A    between atoms: C_29  and  C_31
    6  A    between atoms: C_34  and  C_46
    7  A    between atoms: C_42  and  C_46
                            x       y       z     vdW  Elec       q    Type
                         _______ _______ _______ _____ _____    ______ ____

>  <TORSDO>
F 7

$$$$
=
 OpenBabel11062418313D

 54 59  0  0  1  0  0  0  0  0999 V2000
  186.9090  176.4610  134.5200 C   0  0  0  0  0  2  0  0  0  0  0  0
  187.4700  174.7670  139.4490 O   0  0  0  0  0  0  0  0  0  0  0  0
  188.4460  176.1760  136.1990 C   0  0  1  0  0  3  0  0  0  0  0  0
  185.2200  175.9380  136.2310 C   0  0  0  0  0  0  0  0  0  0  0  0
  190.3120  171.0370  138.2990 C   0  0  0  0  0  2  0  0  0  0  0  0
  189.3580  173.9640  138.2690 C   0  0  0  0  0  0  0  0  0  0  0  0
  190.1390  176.4940  134.5410 O   0  0  0  0  0  1  0  0  0  0  0  0
  190.7390  171.4560  136.8860 C   0  0  1  0  0  3  0  0  0  0  0  0
  187.5480  175.1830  136.9830 C   0  0  2  0  0  3  0  0  0  0  0  0
  190.6480  170.2510  135.9700 C   0  0  0  0  0  1  0  0  0  0  0  0
  182.7630  175.6120  135.6810 C   0  0  0  0  0  0  0  0  0  0  0  0
  186.2200  175.8660  137.3490 C   0  0  0  0  0  2  0  0  0  0  0  0
  189.5480  175.5180  135.3420 C   0  0  0  0  0  0  0  0  0  0  0  0
  185.5450  176.2780  135.0160 N   0  0  0  0  0  0  0  0  0  0  0  0
  183.8400  175.8570  136.5940 N   0  0  0  0  0  2  0  0  0  0  0  0
  188.0060  174.4270  140.7350 C   0  0  1  0  0  3  0  0  0  0  0  0
  188.1920  174.6460  138.2500 C   0  0  0  0  0  0  0  0  0  0  0  0
  189.8930  172.5300  136.3500 N   0  0  0  0  0  2  0  0  0  0  0  0
  182.9880  175.0960  134.5550 O   0  0  0  0  0  0  0  0  0  0  0  0
  189.0590  173.3580  140.6300 C   0  0  0  0  0  0  0  0  0  0  0  0
  189.0180  174.5240  134.5170 O   0  0  0  0  0  1  0  0  0  0  0  0
  190.7350  172.0680  139.3490 C   0  0  0  0  0  2  0  0  0  0  0  0
  190.2340  173.7470  137.0740 C   0  0  1  0  0  3  0  0  0  0  0  0
  190.6410  174.9380  136.2180 C   0  0  0  0  0  2  0  0  0  0  0  0
  187.7020  177.1400  135.4690 O   0  0  0  0  0  0  0  0  0  0  0  0
  189.7120  173.1690  139.4730 C   0  0  0  0  0  0  0  0  0  0  0  0
  186.9270  177.6050  140.7860 C   0  0  0  0  0  2  0  0  0  0  0  0
  187.8910  175.8250  142.6250 O   0  0  0  0  0  0  0  0  0  0  0  0
  188.5490  175.6590  141.4390 C   0  0  2  0  0  3  0  0  0  0  0  0
  187.6020  176.6560  141.4120 C   0  0  0  0  0  0  0  0  0  0  0  0
  181.4580  175.9710  136.0210 O   0  0  0  0  0  0  0  0  0  0  0  0
  180.3740  175.0640  135.9200 C   0  0  1  0  0  3  0  0  0  0  0  0
  180.7150  173.5870  136.9470 S   0  0  0  0  0  1  0  0  0  0  0  0
  178.6960  176.8160  135.2690 C   0  0  0  0  0  1  0  0  0  0  0  0
  177.9170  174.7490  136.3860 C   0  0  0  0  0  1  0  0  0  0  0  0
  179.2060  176.4010  137.5890 N   0  0  0  0  0  1  0  0  0  0  0  0
  179.0530  175.7520  136.2970 C   0  0  0  0  0  0  0  0  0  0  0  0
  189.3960  172.5580  141.8550 C   0  0  0  0  0  2  0  0  0  0  0  0
  191.9450  175.1760  143.0160 C   0  0  0  0  0  2  0  0  0  0  0  0
  195.6610  170.8950  143.2390 O   0  0  0  0  0  0  0  0  0  0  0  0
  190.7750  172.4700  143.9960 C   0  0  2  0  0  3  0  0  0  0  0  0
  189.6950  172.0410  144.9830 C   0  0  0  0  0  1  0  0  0  0  0  0
  194.1970  174.5860  142.6990 C   0  0  0  0  0  2  0  0  0  0  0  0
  191.2780  174.1170  142.1530 C   0  0  0  0  0  2  0  0  0  0  0  0
  192.3410  170.8700  144.4100 C   0  0  0  0  0  2  0  0  0  0  0  0
  195.2560  173.5730  143.1150 C   0  0  1  0  0  3  0  0  0  0  0  0
  190.1830  173.3560  142.8890 C   0  0  1  0  0  3  0  0  0  0  0  0
  194.5670  171.9170  143.1540 S   0  0  0  0  0  0  0  0  0  0  0  0
  193.7650  171.6770  141.9070 O   0  0  0  0  0  0  0  0  0  0  0  0
  193.5420  171.7890  144.6080 C   0  0  0  0  0  2  0  0  0  0  0  0
  191.4450  171.3610  143.4460 O   0  0  0  0  0  0  0  0  0  0  0  0
  193.1220  174.6360  143.6770 N   0  0  0  0  0  2  0  0  0  0  0  0
  197.3500  174.7820  142.4960 C   0  0  0  0  0  1  0  0  0  0  0  0
  196.4090  173.6580  142.1290 C   0  0  0  0  0  2  0  0  0  0  0  0
  1 14  1  0  0  0  0
  1 25  1  0  0  0  0
  3 25  1  6  0  0  0
  3  9  1  0  0  0  0
  4 15  1  0  0  0  0
  4 12  1  0  0  0  0
  5 22  1  0  0  0  0
  6 26  1  0  0  0  0
  7 13  1  0  0  0  0
  8 10  1  6  0  0  0
  8  5  1  0  0  0  0
  9 12  1  1  0  0  0
  9 17  1  0  0  0  0
 11 31  1  0  0  0  0
 11 15  1  0  0  0  0
 13  3  1  0  0  0  0
 13 24  1  0  0  0  0
 14  4  2  0  0  0  0
 16  2  1  6  0  0  0
 16 29  1  0  0  0  0
 17  6  2  0  0  0  0
 17  2  1  0  0  0  0
 18  8  1  0  0  0  0
 18 23  1  0  0  0  0
 19 11  2  0  0  0  0
 20 16  1  0  0  0  0
 20 38  1  0  0  0  0
 21 13  1  0  0  0  0
 22 26  1  0  0  0  0
 23 24  1  6  0  0  0
 23  6  1  0  0  0  0
 26 20  2  0  0  0  0
 27 30  2  0  0  0  0
 29 30  1  6  0  0  0
 29 28  1  0  0  0  0
 30 28  1  0  0  0  0
 32 31  1  0  0  0  0
 32 37  1  0  0  0  0
 32 33  1  1  0  0  0
 34 37  1  0  0  0  0
 37 35  1  0  0  0  0
 37 36  1  0  0  0  0
 39 52  1  0  0  0  0
 41 42  1  1  0  0  0
 43 46  1  0  0  0  0
 43 52  1  0  0  0  0
 44 47  1  0  0  0  0
 44 39  1  0  0  0  0
 45 50  1  0  0  0  0
 46 54  1  6  0  0  0
 46 48  1  0  0  0  0
 47 38  1  6  0  0  0
 47 41  1  0  0  0  0
 48 40  2  0  0  0  0
 48 50  1  0  0  0  0
 49 48  2  0  0  0  0
 51 41  1  0  0  0  0
 51 45  1  0  0  0  0
 54 53  1  0  0  0  0
M  END
>  <MODEL>
3

>  <REMARK>
 VINA RESULT:      -6.1      4.533      8.039
  Name = 
  7 active torsions:
  status: ('A' for Active; 'I' for Inactive)
    1  A    between atoms: C_15  and  O_24
    2  A    between atoms: C_15  and  C_53
    3  A    between atoms: C_20  and  O_24
    4  A    between atoms: C_22  and  C_38
    5  A    between atoms: C_29  and  C_31
    6  A    between atoms: C_34  and  C_46
    7  A    between atoms: C_42  and  C_46
                            x       y       z     vdW  Elec       q    Type
                         _______ _______ _______ _____ _____    ______ ____

>  <TORSDO>
F 7

$$$$
=
 OpenBabel11062418313D

 54 59  0  0  1  0  0  0  0  0999 V2000
  193.1720  175.8640  146.1370 C   0  0  0  0  0  2  0  0  0  0  0  0
  192.5060  172.5940  142.0960 O   0  0  0  0  0  0  0  0  0  0  0  0
  194.0610  174.0190  145.1040 C   0  0  1  0  0  3  0  0  0  0  0  0
  191.2400  175.5360  144.6510 C   0  0  0  0  0  0  0  0  0  0  0  0
  196.5390  173.9230  139.7990 C   0  0  0  0  0  2  0  0  0  0  0  0
  194.8290  173.0320  142.1990 C   0  0  0  0  0  0  0  0  0  0  0  0
  196.0390  174.3990  146.3910 O   0  0  0  0  0  1  0  0  0  0  0  0
  197.2740  174.6310  140.9450 C   0  0  1  0  0  3  0  0  0  0  0  0
  193.2880  174.2680  143.7830 C   0  0  2  0  0  3  0  0  0  0  0  0
  197.8600  175.9280  140.4230 C   0  0  0  0  0  1  0  0  0  0  0  0
  189.3280  177.2000  144.4940 C   0  0  0  0  0  0  0  0  0  0  0  0
  191.7750  174.2630  144.0600 C   0  0  0  0  0  2  0  0  0  0  0  0
  195.5300  174.4910  145.0960 C   0  0  0  0  0  0  0  0  0  0  0  0
  191.8410  176.1720  145.6160 N   0  0  0  0  0  0  0  0  0  0  0  0
  189.9090  175.9060  144.2860 N   0  0  0  0  0  2  0  0  0  0  0  0
  192.6490  171.5200  141.1560 C   0  0  1  0  0  3  0  0  0  0  0  0
  193.5920  173.2520  142.6950 C   0  0  0  0  0  0  0  0  0  0  0  0
  196.3830  174.9280  142.0720 N   0  0  0  0  0  2  0  0  0  0  0  0
  190.0640  178.2040  144.6870 O   0  0  0  0  0  0  0  0  0  0  0  0
  193.9420  171.6220  140.3930 C   0  0  0  0  0  0  0  0  0  0  0  0
  195.6310  175.8160  144.6700 O   0  0  0  0  0  1  0  0  0  0  0  0
  196.2550  172.4550  140.1270 C   0  0  0  0  0  2  0  0  0  0  0  0
  196.0810  173.6620  142.7270 C   0  0  1  0  0  3  0  0  0  0  0  0
  196.3810  173.5960  144.2170 C   0  0  0  0  0  2  0  0  0  0  0  0
  193.3580  174.4710  146.2530 O   0  0  0  0  0  0  0  0  0  0  0  0
  194.9740  172.3100  140.9080 C   0  0  0  0  0  0  0  0  0  0  0  0
  193.9710  170.3800  144.0230 C   0  0  0  0  0  2  0  0  0  0  0  0
  191.5370  170.2340  142.7830 O   0  0  0  0  0  0  0  0  0  0  0  0
  192.5310  170.1720  141.8480 C   0  0  2  0  0  3  0  0  0  0  0  0
  192.9920  170.2810  143.1400 C   0  0  0  0  0  0  0  0  0  0  0  0
  187.9410  177.3530  144.5160 O   0  0  0  0  0  0  0  0  0  0  0  0
  187.2580  178.1770  143.5880 C   0  0  1  0  0  3  0  0  0  0  0  0
  187.5430  177.5530  141.8900 S   0  0  0  0  0  1  0  0  0  0  0  0
  185.4690  177.4840  145.2090 C   0  0  0  0  0  1  0  0  0  0  0  0
  185.3340  179.7100  144.1370 C   0  0  0  0  0  1  0  0  0  0  0  0
  184.9850  177.6920  142.8570 N   0  0  0  0  0  1  0  0  0  0  0  0
  185.7650  178.2680  143.9390 C   0  0  0  0  0  0  0  0  0  0  0  0
  194.0660  170.8950  139.0860 C   0  0  0  0  0  2  0  0  0  0  0  0
  193.5340  174.1580  137.1450 C   0  0  0  0  0  2  0  0  0  0  0  0
  189.1080  171.5500  134.7370 O   0  0  0  0  0  0  0  0  0  0  0  0
  193.9510  171.1370  136.5520 C   0  0  2  0  0  3  0  0  0  0  0  0
  195.1300  170.2550  136.1530 C   0  0  0  0  0  1  0  0  0  0  0  0
  191.3660  174.4710  136.2940 C   0  0  0  0  0  2  0  0  0  0  0  0
  193.2700  173.0070  138.1020 C   0  0  0  0  0  2  0  0  0  0  0  0
  192.3130  170.1990  135.2790 C   0  0  0  0  0  2  0  0  0  0  0  0
  190.3480  173.8900  135.3220 C   0  0  1  0  0  3  0  0  0  0  0  0
  194.2200  171.8340  137.8940 C   0  0  1  0  0  3  0  0  0  0  0  0
  190.3150  172.0990  135.4370 S   0  0  0  0  0  0  0  0  0  0  0  0
  190.2750  171.6900  136.8820 O   0  0  0  0  0  0  0  0  0  0  0  0
  191.7810  171.4760  134.6360 C   0  0  0  0  0  2  0  0  0  0  0  0
  192.7490  170.4060  136.5980 O   0  0  0  0  0  0  0  0  0  0  0  0
  192.7100  174.0350  135.9520 N   0  0  0  0  0  2  0  0  0  0  0  0
  188.7370  174.4630  137.1400 C   0  0  0  0  0  1  0  0  0  0  0  0
  188.9870  174.4790  135.6490 C   0  0  0  0  0  2  0  0  0  0  0  0
  1 25  1  0  0  0  0
  2 17  1  0  0  0  0
  3 25  1  1  0  0  0
  4 14  2  0  0  0  0
  5 22  1  0  0  0  0
  5  8  1  0  0  0  0
  6 17  2  0  0  0  0
  6 23  1  0  0  0  0
  8 10  1  6  0  0  0
  8 18  1  0  0  0  0
  9 12  1  1  0  0  0
  9  3  1  0  0  0  0
 11 31  1  0  0  0  0
 11 19  2  0  0  0  0
 12  4  1  0  0  0  0
 13  3  1  0  0  0  0
 13  7  1  0  0  0  0
 14  1  1  0  0  0  0
 15 11  1  0  0  0  0
 15  4  1  0  0  0  0
 16 20  1  1  0  0  0
 16 29  1  0  0  0  0
 16  2  1  0  0  0  0
 17  9  1  0  0  0  0
 18 23  1  0  0  0  0
 20 26  2  0  0  0  0
 21 13  1  0  0  0  0
 22 26  1  0  0  0  0
 23 24  1  1  0  0  0
 24 13  1  0  0  0  0
 26  6  1  0  0  0  0
 28 30  1  0  0  0  0
 29 28  1  1  0  0  0
 29 30  1  0  0  0  0
 30 27  2  0  0  0  0
 32 33  1  6  0  0  0
 32 37  1  0  0  0  0
 32 31  1  0  0  0  0
 36 37  1  0  0  0  0
 37 35  1  0  0  0  0
 37 34  1  0  0  0  0
 38 20  1  0  0  0  0
 39 44  1  0  0  0  0
 40 48  2  0  0  0  0
 41 42  1  1  0  0  0
 41 51  1  0  0  0  0
 41 47  1  0  0  0  0
 45 51  1  0  0  0  0
 46 48  1  0  0  0  0
 46 54  1  1  0  0  0
 46 43  1  0  0  0  0
 47 44  1  0  0  0  0
 47 38  1  1  0  0  0
 48 49  2  0  0  0  0
 50 45  1  0  0  0  0
 50 48  1  0  0  0  0
 52 43  1  0  0  0  0
 52 39  1  0  0  0  0
 54 53  1  0  0  0  0
M  END
>  <MODEL>
4

>  <REMARK>
 VINA RESULT:      -5.7      2.835      8.235
  Name = 
  7 active torsions:
  status: ('A' for Active; 'I' for Inactive)
    1  A    between atoms: C_15  and  O_24
    2  A    between atoms: C_15  and  C_53
    3  A    between atoms: C_20  and  O_24
    4  A    between atoms: C_22  and  C_38
    5  A    between atoms: C_29  and  C_31
    6  A    between atoms: C_34  and  C_46
    7  A    between atoms: C_42  and  C_46
                            x       y       z     vdW  Elec       q    Type
                         _______ _______ _______ _____ _____    ______ ____

>  <TORSDO>
F 7

$$$$
=
 OpenBabel11062418313D

 54 59  0  0  1  0  0  0  0  0999 V2000
  194.5300  176.3570  144.0980 C   0  0  0  0  0  2  0  0  0  0  0  0
  193.5070  172.2390  141.0200 O   0  0  0  0  0  0  0  0  0  0  0  0
  195.4410  174.4320  143.2450 C   0  0  1  0  0  3  0  0  0  0  0  0
  192.3950  175.5200  143.2080 C   0  0  0  0  0  0  0  0  0  0  0  0
  196.7110  173.4430  137.6140 C   0  0  0  0  0  2  0  0  0  0  0  0
  195.7070  172.9220  140.4780 C   0  0  0  0  0  0  0  0  0  0  0  0
  197.5700  175.2800  143.9240 O   0  0  0  0  0  1  0  0  0  0  0  0
  197.5610  174.4530  138.3970 C   0  0  1  0  0  3  0  0  0  0  0  0
  194.3750  174.3090  142.1260 C   0  0  2  0  0  3  0  0  0  0  0  0
  197.8220  175.6590  137.5160 C   0  0  0  0  0  1  0  0  0  0  0  0
  190.2680  176.9070  143.2060 C   0  0  0  0  0  0  0  0  0  0  0  0
  192.9750  174.2110  142.7540 C   0  0  0  0  0  2  0  0  0  0  0  0
  196.7880  175.0370  142.7960 C   0  0  0  0  0  0  0  0  0  0  0  0
  193.0870  176.4070  143.8640 N   0  0  0  0  0  0  0  0  0  0  0  0
  190.9760  175.6650  143.1100 N   0  0  0  0  0  2  0  0  0  0  0  0
  193.6040  171.0080  140.2910 C   0  0  1  0  0  3  0  0  0  0  0  0
  194.5870  173.1180  141.2070 C   0  0  0  0  0  0  0  0  0  0  0  0
  196.8970  174.8950  139.6290 N   0  0  0  0  0  2  0  0  0  0  0  0
  190.8700  177.9990  143.0250 O   0  0  0  0  0  0  0  0  0  0  0  0
  194.6730  171.0730  139.2350 C   0  0  0  0  0  0  0  0  0  0  0  0
  196.5960  176.2420  142.1180 O   0  0  0  0  0  1  0  0  0  0  0  0
  196.7250  172.0590  138.2690 C   0  0  0  0  0  2  0  0  0  0  0  0
  196.9350  173.7760  140.5620 C   0  0  1  0  0  3  0  0  0  0  0  0
  197.5540  174.0650  141.9220 C   0  0  0  0  0  2  0  0  0  0  0  0
  194.9410  175.0470  144.4240 O   0  0  0  0  0  0  0  0  0  0  0  0
  195.6770  171.9580  139.3490 C   0  0  0  0  0  0  0  0  0  0  0  0
  191.4560  169.0730  141.9980 C   0  0  0  0  0  2  0  0  0  0  0  0
  193.7290  168.6700  140.5290 O   0  0  0  0  0  0  0  0  0  0  0  0
  193.8390  169.8370  141.2310 C   0  0  2  0  0  3  0  0  0  0  0  0
  192.6510  169.1750  141.4410 C   0  0  0  0  0  0  0  0  0  0  0  0
  188.9110  176.9200  143.5310 O   0  0  0  0  0  0  0  0  0  0  0  0
  187.9960  177.8130  142.9210 C   0  0  1  0  0  3  0  0  0  0  0  0
  187.6380  177.2520  141.2150 S   0  0  0  0  0  1  0  0  0  0  0  0
  185.7520  176.8270  143.4700 C   0  0  0  0  0  1  0  0  0  0  0  0
  187.0540  177.9410  145.2560 C   0  0  0  0  0  1  0  0  0  0  0  0
  186.0760  179.2150  143.4520 N   0  0  0  0  0  1  0  0  0  0  0  0
  186.7260  177.9560  143.7730 C   0  0  0  0  0  0  0  0  0  0  0  0
  194.6210  170.0970  138.0960 C   0  0  0  0  0  2  0  0  0  0  0  0
  192.8510  172.7510  135.9700 C   0  0  0  0  0  2  0  0  0  0  0  0
  188.2160  171.5350  139.0080 O   0  0  0  0  0  0  0  0  0  0  0  0
  192.5120  169.7520  136.7090 C   0  0  2  0  0  3  0  0  0  0  0  0
  192.8500  168.4200  136.0480 C   0  0  0  0  0  1  0  0  0  0  0  0
  190.9010  173.6550  136.9220 C   0  0  0  0  0  2  0  0  0  0  0  0
  193.4310  172.0510  137.1890 C   0  0  0  0  0  2  0  0  0  0  0  0
  190.4880  169.2360  137.6160 C   0  0  0  0  0  2  0  0  0  0  0  0
  189.4980  173.2920  137.3880 C   0  0  1  0  0  3  0  0  0  0  0  0
  193.7800  170.5920  136.9250 C   0  0  1  0  0  3  0  0  0  0  0  0
  189.5100  171.7320  138.2760 S   0  0  0  0  0  0  0  0  0  0  0  0
  190.6410  171.7270  139.2640 O   0  0  0  0  0  0  0  0  0  0  0  0
  189.7000  170.4260  137.0770 C   0  0  0  0  0  2  0  0  0  0  0  0
  191.8190  169.5680  137.9200 O   0  0  0  0  0  0  0  0  0  0  0  0
  191.3980  172.6710  135.9730 N   0  0  0  0  0  2  0  0  0  0  0  0
  187.6790  174.9650  137.7400 C   0  0  0  0  0  1  0  0  0  0  0  0
  188.9840  174.4150  138.2710 C   0  0  0  0  0  2  0  0  0  0  0  0
  1 25  1  0  0  0  0
  2 17  1  0  0  0  0
  3 25  1  1  0  0  0
  4 14  2  0  0  0  0
  5 22  1  0  0  0  0
  5  8  1  0  0  0  0
  6 23  1  0  0  0  0
  6 17  2  0  0  0  0
  8 10  1  6  0  0  0
  8 18  1  0  0  0  0
  9 12  1  1  0  0  0
  9  3  1  0  0  0  0
 11 31  1  0  0  0  0
 12  4  1  0  0  0  0
 13  3  1  0  0  0  0
 13  7  1  0  0  0  0
 14  1  1  0  0  0  0
 15 11  1  0  0  0  0
 15  4  1  0  0  0  0
 16 20  1  6  0  0  0
 16  2  1  0  0  0  0
 16 29  1  0  0  0  0
 17  9  1  0  0  0  0
 18 23  1  0  0  0  0
 19 11  2  0  0  0  0
 20 26  2  0  0  0  0
 21 13  1  0  0  0  0
 22 26  1  0  0  0  0
 23 24  1  1  0  0  0
 24 13  1  0  0  0  0
 26  6  1  0  0  0  0
 28 30  1  0  0  0  0
 29 28  1  6  0  0  0
 29 30  1  0  0  0  0
 30 27  2  0  0  0  0
 32 33  1  6  0  0  0
 32 31  1  0  0  0  0
 32 37  1  0  0  0  0
 34 37  1  0  0  0  0
 36 37  1  0  0  0  0
 37 35  1  0  0  0  0
 38 20  1  0  0  0  0
 39 52  1  0  0  0  0
 39 44  1  0  0  0  0
 41 42  1  1  0  0  0
 41 47  1  0  0  0  0
 41 51  1  0  0  0  0
 43 46  1  0  0  0  0
 45 51  1  0  0  0  0
 46 54  1  1  0  0  0
 46 48  1  0  0  0  0
 47 44  1  0  0  0  0
 47 38  1  1  0  0  0
 48 40  2  0  0  0  0
 48 49  2  0  0  0  0
 50 45  1  0  0  0  0
 50 48  1  0  0  0  0
 52 43  1  0  0  0  0
 53 54  1  0  0  0  0
M  END
>  <MODEL>
5

>  <REMARK>
 VINA RESULT:      -5.5      2.838      8.389
  Name = 
  7 active torsions:
  status: ('A' for Active; 'I' for Inactive)
    1  A    between atoms: C_15  and  O_24
    2  A    between atoms: C_15  and  C_53
    3  A    between atoms: C_20  and  O_24
    4  A    between atoms: C_22  and  C_38
    5  A    between atoms: C_29  and  C_31
    6  A    between atoms: C_34  and  C_46
    7  A    between atoms: C_42  and  C_46
                            x       y       z     vdW  Elec       q    Type
                         _______ _______ _______ _____ _____    ______ ____

>  <TORSDO>
F 7

$$$$
=
 OpenBabel11062418313D

 54 59  0  0  1  0  0  0  0  0999 V2000
  190.1580  173.9480  137.4830 C   0  0  0  0  0  2  0  0  0  0  0  0
  193.2180  171.9500  141.2400 O   0  0  0  0  0  0  0  0  0  0  0  0
  190.1670  172.5130  139.2730 C   0  0  1  0  0  3  0  0  0  0  0  0
  192.6040  173.9830  137.7360 C   0  0  0  0  0  0  0  0  0  0  0  0
  190.8420  174.0410  144.8860 C   0  0  0  0  0  2  0  0  0  0  0  0
  191.1470  172.4320  142.2790 C   0  0  0  0  0  0  0  0  0  0  0  0
  187.7790  172.5870  139.1910 O   0  0  0  0  0  1  0  0  0  0  0  0
  189.5390  174.4190  144.1690 C   0  0  1  0  0  3  0  0  0  0  0  0
  191.4770  173.1000  139.8590 C   0  0  2  0  0  3  0  0  0  0  0  0
  189.1580  175.8340  144.5600 C   0  0  0  0  0  1  0  0  0  0  0  0
  194.1020  175.5450  136.4070 C   0  0  0  0  0  0  0  0  0  0  0  0
  192.6130  172.9560  138.8320 C   0  0  0  0  0  2  0  0  0  0  0  0
  188.8710  173.0260  139.9370 C   0  0  0  0  0  0  0  0  0  0  0  0
  191.5180  174.3390  137.1120 N   0  0  0  0  0  0  0  0  0  0  0  0
  193.8750  174.3890  137.2240 N   0  0  0  0  0  2  0  0  0  0  0  0
  193.7150  171.1980  142.3560 C   0  0  1  0  0  3  0  0  0  0  0  0
  191.9080  172.4510  141.1630 C   0  0  0  0  0  0  0  0  0  0  0  0
  189.6700  174.3450  142.7090 N   0  0  0  0  0  2  0  0  0  0  0  0
  193.2590  176.4800  136.3800 O   0  0  0  0  0  0  0  0  0  0  0  0
  193.0060  171.5650  143.6300 C   0  0  0  0  0  0  0  0  0  0  0  0
  188.8480  174.4210  139.9850 O   0  0  0  0  0  1  0  0  0  0  0  0
  191.0890  172.5310  144.8570 C   0  0  0  0  0  2  0  0  0  0  0  0
  189.7380  172.9330  142.3550 C   0  0  1  0  0  3  0  0  0  0  0  0
  188.7170  172.4550  141.3330 C   0  0  0  0  0  2  0  0  0  0  0  0
  190.1090  172.5880  137.8560 O   0  0  0  0  0  0  0  0  0  0  0  0
  191.7830  172.1170  143.5840 C   0  0  0  0  0  0  0  0  0  0  0  0
  193.8140  169.4460  139.4940 C   0  0  0  0  0  2  0  0  0  0  0  0
  194.8770  169.1820  142.0010 O   0  0  0  0  0  0  0  0  0  0  0  0
  193.6180  169.7040  142.0900 C   0  0  2  0  0  3  0  0  0  0  0  0
  194.0180  169.4430  140.8000 C   0  0  0  0  0  0  0  0  0  0  0  0
  195.2450  175.6310  135.6110 O   0  0  0  0  0  0  0  0  0  0  0  0
  196.4820  175.0610  136.0010 C   0  0  1  0  0  3  0  0  0  0  0  0
  196.6330  175.1150  137.8250 S   0  0  0  0  0  1  0  0  0  0  0  0
  197.9380  173.4940  134.6840 C   0  0  0  0  0  1  0  0  0  0  0  0
  196.5780  172.6020  136.5490 C   0  0  0  0  0  1  0  0  0  0  0  0
  195.5360  173.3790  134.5130 N   0  0  0  0  0  1  0  0  0  0  0  0
  196.6250  173.6380  135.4400 C   0  0  0  0  0  0  0  0  0  0  0  0
  193.6690  171.2490  144.9390 C   0  0  0  0  0  2  0  0  0  0  0  0
  194.6700  174.9180  145.4220 C   0  0  0  0  0  2  0  0  0  0  0  0
  197.9400  174.2250  140.8380 O   0  0  0  0  0  0  0  0  0  0  0  0
  196.0430  172.1400  145.1940 C   0  0  2  0  0  3  0  0  0  0  0  0
  196.6020  171.1140  146.1740 C   0  0  0  0  0  1  0  0  0  0  0  0
  195.5210  175.9810  143.5070 C   0  0  0  0  0  2  0  0  0  0  0  0
  194.0810  173.6710  144.7830 C   0  0  0  0  0  2  0  0  0  0  0  0
  197.6120  172.0050  143.5490 C   0  0  0  0  0  2  0  0  0  0  0  0
  196.6690  175.9430  142.5070 C   0  0  1  0  0  3  0  0  0  0  0  0
  194.5480  172.3840  145.4520 C   0  0  1  0  0  3  0  0  0  0  0  0
  197.0510  174.2520  142.0450 S   0  0  0  0  0  0  0  0  0  0  0  0
  195.7780  173.5180  141.7350 O   0  0  0  0  0  0  0  0  0  0  0  0
  197.9100  173.4950  143.4120 C   0  0  0  0  0  2  0  0  0  0  0  0
  196.2650  171.7550  143.8580 O   0  0  0  0  0  0  0  0  0  0  0  0
  195.8950  175.3140  144.7440 N   0  0  0  0  0  2  0  0  0  0  0  0
  194.8350  176.4830  140.9030 C   0  0  0  0  0  1  0  0  0  0  0  0
  196.2690  176.7610  141.2910 C   0  0  0  0  0  2  0  0  0  0  0  0
  1 25  1  0  0  0  0
  3 25  1  6  0  0  0
  3  9  1  0  0  0  0
  3 13  1  0  0  0  0
  4 12  1  0  0  0  0
  6 23  1  0  0  0  0
  6 26  1  0  0  0  0
  7 13  1  0  0  0  0
  8 10  1  6  0  0  0
  8  5  1  0  0  0  0
  9 12  1  6  0  0  0
  9 17  1  0  0  0  0
 11 15  1  0  0  0  0
 13 21  1  0  0  0  0
 13 24  1  0  0  0  0
 14  1  1  0  0  0  0
 14  4  2  0  0  0  0
 15  4  1  0  0  0  0
 16  2  1  6  0  0  0
 16 20  1  0  0  0  0
 17  2  1  0  0  0  0
 17  6  2  0  0  0  0
 18  8  1  0  0  0  0
 19 11  2  0  0  0  0
 20 38  1  0  0  0  0
 22  5  1  0  0  0  0
 23 24  1  6  0  0  0
 23 18  1  0  0  0  0
 26 20  2  0  0  0  0
 26 22  1  0  0  0  0
 27 30  2  0  0  0  0
 28 29  1  0  0  0  0
 29 30  1  6  0  0  0
 29 16  1  0  0  0  0
 30 28  1  0  0  0  0
 31 32  1  0  0  0  0
 31 11  1  0  0  0  0
 32 33  1  1  0  0  0
 34 37  1  0  0  0  0
 36 37  1  0  0  0  0
 37 32  1  0  0  0  0
 37 35  1  0  0  0  0
 40 48  2  0  0  0  0
 41 47  1  0  0  0  0
 41 42  1  1  0  0  0
 43 52  1  0  0  0  0
 44 39  1  0  0  0  0
 44 47  1  0  0  0  0
 45 51  1  0  0  0  0
 46 54  1  6  0  0  0
 46 43  1  0  0  0  0
 47 38  1  6  0  0  0
 48 46  1  0  0  0  0
 48 50  1  0  0  0  0
 49 48  2  0  0  0  0
 50 45  1  0  0  0  0
 51 41  1  0  0  0  0
 52 39  1  0  0  0  0
 53 54  1  0  0  0  0
M  END
>  <MODEL>
6

>  <REMARK>
 VINA RESULT:      -5.5      2.378      3.116
  Name = 
  7 active torsions:
  status: ('A' for Active; 'I' for Inactive)
    1  A    between atoms: C_15  and  O_24
    2  A    between atoms: C_15  and  C_53
    3  A    between atoms: C_20  and  O_24
    4  A    between atoms: C_22  and  C_38
    5  A    between atoms: C_29  and  C_31
    6  A    between atoms: C_34  and  C_46
    7  A    between atoms: C_42  and  C_46
                            x       y       z     vdW  Elec       q    Type
                         _______ _______ _______ _____ _____    ______ ____

>  <TORSDO>
F 7

$$$$
=
 OpenBabel11062418313D

 54 59  0  0  1  0  0  0  0  0999 V2000
  194.9120  172.1160  137.6310 C   0  0  0  0  0  2  0  0  0  0  0  0
  193.7510  174.7480  142.0130 O   0  0  0  0  0  0  0  0  0  0  0  0
  195.7450  172.7300  139.6780 C   0  0  1  0  0  3  0  0  0  0  0  0
  193.0820  173.6890  138.1120 C   0  0  0  0  0  0  0  0  0  0  0  0
  193.7920  170.8590  144.8730 C   0  0  0  0  0  2  0  0  0  0  0  0
  194.8590  172.7780  142.7150 C   0  0  0  0  0  0  0  0  0  0  0  0
  197.4450  171.0820  139.3470 O   0  0  0  0  0  1  0  0  0  0  0  0
  194.5410  169.8730  143.9670 C   0  0  1  0  0  3  0  0  0  0  0  0
  194.3450  173.0730  140.2520 C   0  0  2  0  0  3  0  0  0  0  0  0
  193.8290  168.5350  144.0060 C   0  0  0  0  0  1  0  0  0  0  0  0
  191.0280  173.9010  136.6340 C   0  0  0  0  0  0  0  0  0  0  0  0
  193.6920  174.1710  139.3970 C   0  0  0  0  0  2  0  0  0  0  0  0
  196.2930  171.3460  140.0870 C   0  0  0  0  0  0  0  0  0  0  0  0
  193.6810  172.8430  137.3220 N   0  0  0  0  0  0  0  0  0  0  0  0
  191.9170  174.3770  137.6530 N   0  0  0  0  0  2  0  0  0  0  0  0
  193.8150  175.3640  143.3070 C   0  0  1  0  0  3  0  0  0  0  0  0
  194.3730  173.5280  141.7010 C   0  0  0  0  0  0  0  0  0  0  0  0
  194.6050  170.3400  142.5770 N   0  0  0  0  0  2  0  0  0  0  0  0
  191.0110  172.6810  136.3240 O   0  0  0  0  0  0  0  0  0  0  0  0
  193.9880  174.3420  144.3970 C   0  0  0  0  0  0  0  0  0  0  0  0
  195.3590  170.3400  139.8320 O   0  0  0  0  0  1  0  0  0  0  0  0
  194.6400  172.0930  145.1930 C   0  0  0  0  0  2  0  0  0  0  0  0
  195.5410  171.4570  142.5420 C   0  0  1  0  0  3  0  0  0  0  0  0
  196.6890  171.3310  141.5500 C   0  0  0  0  0  2  0  0  0  0  0  0
  195.8420  172.9550  138.2790 O   0  0  0  0  0  0  0  0  0  0  0  0
  194.5100  173.1370  144.1130 C   0  0  0  0  0  0  0  0  0  0  0  0
  197.1540  175.0460  143.4480 C   0  0  0  0  0  2  0  0  0  0  0  0
  195.3830  176.6320  142.0940 O   0  0  0  0  0  0  0  0  0  0  0  0
  194.9200  176.4060  143.3590 C   0  0  2  0  0  3  0  0  0  0  0  0
  196.1290  175.8030  143.0960 C   0  0  0  0  0  0  0  0  0  0  0  0
  190.1950  174.7920  135.9550 O   0  0  0  0  0  0  0  0  0  0  0  0
  188.7830  174.6890  136.0000 C   0  0  1  0  0  3  0  0  0  0  0  0
  188.2560  174.2390  137.6950 S   0  0  0  0  0  1  0  0  0  0  0  0
  187.4500  176.7140  136.6570 C   0  0  0  0  0  1  0  0  0  0  0  0
  189.1510  176.9120  134.8700 C   0  0  0  0  0  1  0  0  0  0  0  0
  187.1150  175.6620  134.5140 N   0  0  0  0  0  1  0  0  0  0  0  0
  188.1280  175.9870  135.5050 C   0  0  0  0  0  0  0  0  0  0  0  0
  193.6200  174.7190  145.8020 C   0  0  0  0  0  2  0  0  0  0  0  0
  190.0750  173.4090  145.1600 C   0  0  0  0  0  2  0  0  0  0  0  0
  189.2180  178.2480  142.3250 O   0  0  0  0  0  0  0  0  0  0  0  0
  191.4460  175.9120  146.3880 C   0  0  2  0  0  3  0  0  0  0  0  0
  191.7830  176.3920  147.7950 C   0  0  0  0  0  1  0  0  0  0  0  0
  188.9710  174.3750  143.3240 C   0  0  0  0  0  2  0  0  0  0  0  0
  191.4930  173.8860  144.8860 C   0  0  0  0  0  2  0  0  0  0  0  0
  190.8070  177.8840  145.4450 C   0  0  0  0  0  2  0  0  0  0  0  0
  188.4300  175.6950  142.7910 C   0  0  1  0  0  3  0  0  0  0  0  0
  192.1300  174.5690  146.0890 C   0  0  1  0  0  3  0  0  0  0  0  0
  189.5830  177.0310  143.1210 S   0  0  0  0  0  0  0  0  0  0  0  0
  190.9720  176.5980  142.7490 O   0  0  0  0  0  0  0  0  0  0  0  0
  189.4770  177.4220  144.8580 C   0  0  0  0  0  2  0  0  0  0  0  0
  191.7840  176.8740  145.4170 O   0  0  0  0  0  0  0  0  0  0  0  0
  189.1070  174.4230  144.7710 N   0  0  0  0  0  2  0  0  0  0  0  0
  187.2810  176.6390  140.7860 C   0  0  0  0  0  1  0  0  0  0  0  0
  188.1890  175.5430  141.2990 C   0  0  0  0  0  2  0  0  0  0  0  0
  1 25  1  0  0  0  0
  3 25  1  6  0  0  0
  3 13  1  0  0  0  0
  3  9  1  0  0  0  0
  4 12  1  0  0  0  0
  5 22  1  0  0  0  0
  6 26  1  0  0  0  0
  7 13  1  0  0  0  0
  8 10  1  6  0  0  0
  8  5  1  0  0  0  0
  9 12  1  6  0  0  0
  9 17  1  0  0  0  0
 11 15  1  0  0  0  0
 13 24  1  0  0  0  0
 14  1  1  0  0  0  0
 14  4  2  0  0  0  0
 15  4  1  0  0  0  0
 16  2  1  6  0  0  0
 16 29  1  0  0  0  0
 16 20  1  0  0  0  0
 17  2  1  0  0  0  0
 17  6  2  0  0  0  0
 18  8  1  0  0  0  0
 19 11  2  0  0  0  0
 20 38  1  0  0  0  0
 21 13  1  0  0  0  0
 23 24  1  6  0  0  0
 23 18  1  0  0  0  0
 23  6  1  0  0  0  0
 26 20  2  0  0  0  0
 26 22  1  0  0  0  0
 28 30  1  0  0  0  0
 29 28  1  6  0  0  0
 30 29  1  0  0  0  0
 30 27  2  0  0  0  0
 31 32  1  0  0  0  0
 31 11  1  0  0  0  0
 32 33  1  1  0  0  0
 35 37  1  0  0  0  0
 36 37  1  0  0  0  0
 37 32  1  0  0  0  0
 37 34  1  0  0  0  0
 40 48  2  0  0  0  0
 41 42  1  1  0  0  0
 43 52  1  0  0  0  0
 44 39  1  0  0  0  0
 44 47  1  0  0  0  0
 46 54  1  6  0  0  0
 46 48  1  0  0  0  0
 46 43  1  0  0  0  0
 47 38  1  6  0  0  0
 47 41  1  0  0  0  0
 48 50  1  0  0  0  0
 49 48  2  0  0  0  0
 50 45  1  0  0  0  0
 51 45  1  0  0  0  0
 51 41  1  0  0  0  0
 52 39  1  0  0  0  0
 53 54  1  0  0  0  0
M  END
>  <MODEL>
7

>  <REMARK>
 VINA RESULT:      -5.5      2.822      6.898
  Name = 
  7 active torsions:
  status: ('A' for Active; 'I' for Inactive)
    1  A    between atoms: C_15  and  O_24
    2  A    between atoms: C_15  and  C_53
    3  A    between atoms: C_20  and  O_24
    4  A    between atoms: C_22  and  C_38
    5  A    between atoms: C_29  and  C_31
    6  A    between atoms: C_34  and  C_46
    7  A    between atoms: C_42  and  C_46
                            x       y       z     vdW  Elec       q    Type
                         _______ _______ _______ _____ _____    ______ ____

>  <TORSDO>
F 7

$$$$
=
 OpenBabel11062418313D

 54 59  0  0  1  0  0  0  0  0999 V2000
  189.3000  176.8680  145.7460 C   0  0  0  0  0  2  0  0  0  0  0  0
  191.1310  173.5420  142.1320 O   0  0  0  0  0  0  0  0  0  0  0  0
  190.6580  175.0430  145.4520 C   0  0  1  0  0  3  0  0  0  0  0  0
  188.5700  176.4650  143.4320 C   0  0  0  0  0  0  0  0  0  0  0  0
  195.7240  174.9790  142.5140 C   0  0  0  0  0  2  0  0  0  0  0  0
  192.9690  174.0550  143.5310 C   0  0  0  0  0  0  0  0  0  0  0  0
  191.5390  175.4970  147.6270 O   0  0  0  0  0  1  0  0  0  0  0  0
  195.6580  175.7200  143.8560 C   0  0  1  0  0  3  0  0  0  0  0  0
  190.7740  175.2560  143.9200 C   0  0  2  0  0  3  0  0  0  0  0  0
  196.4100  177.0310  143.7290 C   0  0  0  0  0  1  0  0  0  0  0  0
  187.0560  178.0660  142.1700 C   0  0  0  0  0  0  0  0  0  0  0  0
  189.3740  175.2050  143.2850 C   0  0  0  0  0  2  0  0  0  0  0  0
  191.8590  175.5610  146.2720 C   0  0  0  0  0  0  0  0  0  0  0  0
  188.4990  177.1280  144.5510 N   0  0  0  0  0  0  0  0  0  0  0  0
  187.6790  176.7890  142.3630 N   0  0  0  0  0  2  0  0  0  0  0  0
  191.8080  172.4650  141.4690 C   0  0  1  0  0  3  0  0  0  0  0  0
  191.6660  174.2400  143.2270 C   0  0  0  0  0  0  0  0  0  0  0  0
  194.2760  175.9990  144.2660 N   0  0  0  0  0  2  0  0  0  0  0  0
  187.5290  179.0940  142.7220 O   0  0  0  0  0  0  0  0  0  0  0  0
  193.3020  172.6020  141.5790 C   0  0  0  0  0  0  0  0  0  0  0  0
  192.1570  176.8850  145.9460 O   0  0  0  0  0  1  0  0  0  0  0  0
  195.3350  173.5050  142.6590 C   0  0  0  0  0  2  0  0  0  0  0  0
  193.6820  174.7290  144.6620 C   0  0  1  0  0  3  0  0  0  0  0  0
  193.0780  174.6860  146.0590 C   0  0  0  0  0  2  0  0  0  0  0  0
  189.4160  175.4820  145.9820 O   0  0  0  0  0  0  0  0  0  0  0  0
  193.8400  173.3270  142.5730 C   0  0  0  0  0  0  0  0  0  0  0  0
  189.0750  171.6010  143.2160 C   0  0  0  0  0  2  0  0  0  0  0  0
  190.4770  170.5580  141.1110 O   0  0  0  0  0  0  0  0  0  0  0  0
  191.3440  171.1210  142.0040 C   0  0  2  0  0  3  0  0  0  0  0  0
  190.0240  171.2110  142.3820 C   0  0  0  0  0  0  0  0  0  0  0  0
  185.9030  178.1750  141.3920 O   0  0  0  0  0  0  0  0  0  0  0  0
  184.6420  177.7100  141.8400 C   0  0  1  0  0  3  0  0  0  0  0  0
  184.3870  178.2160  143.5810 S   0  0  0  0  0  1  0  0  0  0  0  0
  183.2300  177.1690  139.8340 C   0  0  0  0  0  1  0  0  0  0  0  0
  182.2460  178.4780  141.6900 C   0  0  0  0  0  1  0  0  0  0  0  0
  183.9450  179.4310  140.2620 N   0  0  0  0  0  1  0  0  0  0  0  0
  183.5210  178.2030  140.9130 C   0  0  0  0  0  0  0  0  0  0  0  0
  194.1660  171.8670  140.5950 C   0  0  0  0  0  2  0  0  0  0  0  0
  193.5280  174.6650  138.0520 C   0  0  0  0  0  2  0  0  0  0  0  0
  190.4640  170.8400  135.1940 O   0  0  0  0  0  0  0  0  0  0  0  0
  194.6630  171.7730  138.0980 C   0  0  2  0  0  3  0  0  0  0  0  0
  196.0520  171.1460  138.1320 C   0  0  0  0  0  1  0  0  0  0  0  0
  191.6340  174.3670  136.6940 C   0  0  0  0  0  2  0  0  0  0  0  0
  193.2550  173.6060  139.1090 C   0  0  0  0  0  2  0  0  0  0  0  0
  193.6210  170.3380  136.6680 C   0  0  0  0  0  2  0  0  0  0  0  0
  191.0330  173.4550  135.6330 C   0  0  1  0  0  3  0  0  0  0  0  0
  194.4360  172.6680  139.3250 C   0  0  1  0  0  3  0  0  0  0  0  0
  191.3200  171.7310  136.0430 S   0  0  0  0  0  0  0  0  0  0  0  0
  190.9900  171.4980  137.4900 O   0  0  0  0  0  0  0  0  0  0  0  0
  193.0350  171.3730  135.7120 C   0  0  0  0  0  2  0  0  0  0  0  0
  193.6550  170.7950  137.9960 O   0  0  0  0  0  0  0  0  0  0  0  0
  193.0790  174.2150  136.7440 N   0  0  0  0  0  2  0  0  0  0  0  0
  189.0150  174.2680  136.8550 C   0  0  0  0  0  1  0  0  0  0  0  0
  189.5460  173.7490  135.5380 C   0  0  0  0  0  2  0  0  0  0  0  0
  1 25  1  0  0  0  0
  2 17  1  0  0  0  0
  3 25  1  1  0  0  0
  3 13  1  0  0  0  0
  4 14  2  0  0  0  0
  5 22  1  0  0  0  0
  5  8  1  0  0  0  0
  6 23  1  0  0  0  0
  8 10  1  6  0  0  0
  8 18  1  0  0  0  0
  9 12  1  6  0  0  0
  9  3  1  0  0  0  0
 11 15  1  0  0  0  0
 11 19  2  0  0  0  0
 12  4  1  0  0  0  0
 13  7  1  0  0  0  0
 14  1  1  0  0  0  0
 15  4  1  0  0  0  0
 16 20  1  1  0  0  0
 16 29  1  0  0  0  0
 16  2  1  0  0  0  0
 17  6  2  0  0  0  0
 17  9  1  0  0  0  0
 18 23  1  0  0  0  0
 20 26  2  0  0  0  0
 21 13  1  0  0  0  0
 23 24  1  1  0  0  0
 24 13  1  0  0  0  0
 26 22  1  0  0  0  0
 26  6  1  0  0  0  0
 28 30  1  0  0  0  0
 29 28  1  6  0  0  0
 29 30  1  0  0  0  0
 30 27  2  0  0  0  0
 31 32  1  0  0  0  0
 31 11  1  0  0  0  0
 32 33  1  1  0  0  0
 34 37  1  0  0  0  0
 36 37  1  0  0  0  0
 37 35  1  0  0  0  0
 37 32  1  0  0  0  0
 38 20  1  0  0  0  0
 39 44  1  0  0  0  0
 40 48  2  0  0  0  0
 41 42  1  1  0  0  0
 41 47  1  0  0  0  0
 43 52  1  0  0  0  0
 44 47  1  0  0  0  0
 45 51  1  0  0  0  0
 46 54  1  1  0  0  0
 46 48  1  0  0  0  0
 46 43  1  0  0  0  0
 47 38  1  1  0  0  0
 48 49  2  0  0  0  0
 50 48  1  0  0  0  0
 50 45  1  0  0  0  0
 51 41  1  0  0  0  0
 52 39  1  0  0  0  0
 54 53  1  0  0  0  0
M  END
>  <MODEL>
8

>  <REMARK>
 VINA RESULT:      -5.5      3.500      7.331
  Name = 
  7 active torsions:
  status: ('A' for Active; 'I' for Inactive)
    1  A    between atoms: C_15  and  O_24
    2  A    between atoms: C_15  and  C_53
    3  A    between atoms: C_20  and  O_24
    4  A    between atoms: C_22  and  C_38
    5  A    between atoms: C_29  and  C_31
    6  A    between atoms: C_34  and  C_46
    7  A    between atoms: C_42  and  C_46
                            x       y       z     vdW  Elec       q    Type
                         _______ _______ _______ _____ _____    ______ ____

>  <TORSDO>
F 7

$$$$
=
 OpenBabel11062418313D

 54 59  0  0  1  0  0  0  0  0999 V2000
  188.7290  174.4130  140.5790 C   0  0  0  0  0  2  0  0  0  0  0  0
  192.3970  171.3110  142.6750 O   0  0  0  0  0  0  0  0  0  0  0  0
  189.4190  173.4580  142.5470 C   0  0  1  0  0  3  0  0  0  0  0  0
  190.3850  172.9450  139.5030 C   0  0  0  0  0  0  0  0  0  0  0  0
  194.3410  174.7550  145.4440 C   0  0  0  0  0  2  0  0  0  0  0  0
  192.0710  173.0680  144.2260 C   0  0  0  0  0  0  0  0  0  0  0  0
  187.9610  174.9900  143.6620 O   0  0  0  0  0  1  0  0  0  0  0  0
  193.2090  175.7910  145.4100 C   0  0  1  0  0  3  0  0  0  0  0  0
  190.8440  173.1570  142.0130 C   0  0  2  0  0  3  0  0  0  0  0  0
  193.8100  177.1650  145.1880 C   0  0  0  0  0  1  0  0  0  0  0  0
  190.9680  173.1080  137.0370 C   0  0  0  0  0  0  0  0  0  0  0  0
  190.7500  172.2430  140.7790 C   0  0  0  0  0  2  0  0  0  0  0  0
  189.3090  174.7230  143.4240 C   0  0  0  0  0  0  0  0  0  0  0  0
  189.4390  173.8390  139.4360 N   0  0  0  0  0  0  0  0  0  0  0  0
  190.9480  172.4250  138.2970 N   0  0  0  0  0  2  0  0  0  0  0  0
  193.1780  170.5210  143.5840 C   0  0  1  0  0  3  0  0  0  0  0  0
  191.7560  172.5070  143.0380 C   0  0  0  0  0  0  0  0  0  0  0  0
  192.2400  175.5150  144.3430 N   0  0  0  0  0  2  0  0  0  0  0  0
  190.8120  174.3560  136.9870 O   0  0  0  0  0  0  0  0  0  0  0  0
  193.7870  171.3670  144.6680 C   0  0  0  0  0  0  0  0  0  0  0  0
  189.8770  175.8280  142.7880 O   0  0  0  0  0  1  0  0  0  0  0  0
  193.8740  173.4230  146.0380 C   0  0  0  0  0  2  0  0  0  0  0  0
  191.4780  174.3400  144.7480 C   0  0  1  0  0  3  0  0  0  0  0  0
  189.9650  174.5050  144.7730 C   0  0  0  0  0  2  0  0  0  0  0  0
  188.4260  173.4190  141.5330 O   0  0  0  0  0  0  0  0  0  0  0  0
  193.2390  172.5510  144.9850 C   0  0  0  0  0  0  0  0  0  0  0  0
  191.2820  168.1660  142.1240 C   0  0  0  0  0  2  0  0  0  0  0  0
  193.0870  168.2460  144.1780 O   0  0  0  0  0  0  0  0  0  0  0  0
  192.3470  169.3940  144.1750 C   0  0  2  0  0  3  0  0  0  0  0  0
  192.0020  168.5100  143.1780 C   0  0  0  0  0  0  0  0  0  0  0  0
  191.1310  172.3900  135.8510 O   0  0  0  0  0  0  0  0  0  0  0  0
  192.3730  171.8220  135.4750 C   0  0  1  0  0  3  0  0  0  0  0  0
  193.7270  172.6630  136.3760 S   0  0  0  0  0  1  0  0  0  0  0  0
  193.0790  169.9590  137.0050 C   0  0  0  0  0  1  0  0  0  0  0  0
  190.9500  169.7600  135.7570 C   0  0  0  0  0  1  0  0  0  0  0  0
  193.0750  169.6550  134.6130 N   0  0  0  0  0  1  0  0  0  0  0  0
  192.3670  170.3030  135.7040 C   0  0  0  0  0  0  0  0  0  0  0  0
  194.9730  170.8320  145.4170 C   0  0  0  0  0  2  0  0  0  0  0  0
  197.2370  172.7100  142.9580 C   0  0  0  0  0  2  0  0  0  0  0  0
  196.5660  168.2400  139.5290 O   0  0  0  0  0  0  0  0  0  0  0  0
  197.1350  169.9560  144.3920 C   0  0  2  0  0  3  0  0  0  0  0  0
  197.7820  169.3460  145.6320 C   0  0  0  0  0  1  0  0  0  0  0  0
  197.0480  172.0370  140.7140 C   0  0  0  0  0  2  0  0  0  0  0  0
  196.0000  172.0370  143.5320 C   0  0  0  0  0  2  0  0  0  0  0  0
  197.2190  168.1660  142.9870 C   0  0  0  0  0  2  0  0  0  0  0  0
  197.2530  170.8510  139.7820 C   0  0  1  0  0  3  0  0  0  0  0  0
  196.3020  171.1920  144.7630 C   0  0  1  0  0  3  0  0  0  0  0  0
  196.6690  169.3360  140.5470 S   0  0  0  0  0  0  0  0  0  0  0  0
  195.3170  169.5710  141.1550 O   0  0  0  0  0  0  0  0  0  0  0  0
  197.8580  168.8620  141.7890 C   0  0  0  0  0  2  0  0  0  0  0  0
  196.3530  169.0130  143.6990 O   0  0  0  0  0  0  0  0  0  0  0  0
  197.8390  171.8830  141.9240 N   0  0  0  0  0  2  0  0  0  0  0  0
  197.1850  172.2260  137.7000 C   0  0  0  0  0  1  0  0  0  0  0  0
  196.5070  171.1280  138.4870 C   0  0  0  0  0  2  0  0  0  0  0  0
  1 25  1  0  0  0  0
  2 17  1  0  0  0  0
  3 25  1  6  0  0  0
  3 13  1  0  0  0  0
  4 12  1  0  0  0  0
  5 22  1  0  0  0  0
  6 23  1  0  0  0  0
  6 26  1  0  0  0  0
  8 10  1  6  0  0  0
  8  5  1  0  0  0  0
  9 12  1  6  0  0  0
  9  3  1  0  0  0  0
  9 17  1  0  0  0  0
 11 15  1  0  0  0  0
 13  7  1  0  0  0  0
 13 24  1  0  0  0  0
 14  4  2  0  0  0  0
 14  1  1  0  0  0  0
 15  4  1  0  0  0  0
 16  2  1  6  0  0  0
 16 29  1  0  0  0  0
 16 20  1  0  0  0  0
 17  6  2  0  0  0  0
 18 23  1  0  0  0  0
 18  8  1  0  0  0  0
 19 11  2  0  0  0  0
 20 26  2  0  0  0  0
 20 38  1  0  0  0  0
 21 13  1  0  0  0  0
 23 24  1  6  0  0  0
 26 22  1  0  0  0  0
 27 30  2  0  0  0  0
 29 30  1  6  0  0  0
 29 28  1  0  0  0  0
 30 28  1  0  0  0  0
 31 11  1  0  0  0  0
 32 37  1  0  0  0  0
 32 31  1  0  0  0  0
 32 33  1  1  0  0  0
 36 37  1  0  0  0  0
 37 35  1  0  0  0  0
 37 34  1  0  0  0  0
 39 44  1  0  0  0  0
 40 48  2  0  0  0  0
 41 47  1  0  0  0  0
 41 42  1  1  0  0  0
 43 52  1  0  0  0  0
 44 47  1  0  0  0  0
 45 51  1  0  0  0  0
 46 54  1  6  0  0  0
 46 48  1  0  0  0  0
 46 43  1  0  0  0  0
 47 38  1  6  0  0  0
 48 49  2  0  0  0  0
 48 50  1  0  0  0  0
 50 45  1  0  0  0  0
 51 41  1  0  0  0  0
 52 39  1  0  0  0  0
 53 54  1  0  0  0  0
M  END
>  <MODEL>
9

>  <REMARK>
 VINA RESULT:      -5.4      2.049      2.606
  Name = 
  7 active torsions:
  status: ('A' for Active; 'I' for Inactive)
    1  A    between atoms: C_15  and  O_24
    2  A    between atoms: C_15  and  C_53
    3  A    between atoms: C_20  and  O_24
    4  A    between atoms: C_22  and  C_38
    5  A    between atoms: C_29  and  C_31
    6  A    between atoms: C_34  and  C_46
    7  A    between atoms: C_42  and  C_46
                            x       y       z     vdW  Elec       q    Type
                         _______ _______ _______ _____ _____    ______ ____

>  <TORSDO>
F 7

$$$$
