=
 OpenBabel11062418263D

 48 54  0  0  1  0  0  0  0  0999 V2000
  190.0450  172.2860  144.0370 C   0  0  0  0  0  0  0  0  0  0  0  0
  189.3340  172.0040  145.0360 O   0  0  0  0  0  0  0  0  0  0  0  0
  189.8270  171.5950  142.8040 N   0  0  0  0  0  2  0  0  0  0  0  0
  190.5900  171.8660  141.5960 C   0  0  0  0  0  2  0  0  0  0  0  0
  192.9370  174.2110  141.3410 N   0  0  0  0  0  2  0  0  0  0  0  0
  191.0550  173.5320  139.8810 N   0  0  0  0  0  0  0  0  0  0  0  0
  190.1330  173.1690  140.9550 C   0  0  1  0  0  3  0  0  0  0  0  0
  190.4250  173.5620  138.6470 N   0  0  0  0  0  0  0  0  0  0  0  0
  188.2230  173.2010  137.8900 O   0  0  0  0  0  0  0  0  0  0  0  0
  193.0690  174.3660  138.9670 N   0  0  0  0  0  0  0  0  0  0  0  0
  190.5160  174.1400  136.3830 O   0  0  0  0  0  0  0  0  0  0  0  0
  192.3890  174.0290  140.0290 C   0  0  0  0  0  0  0  0  0  0  0  0
  192.6100  174.1890  137.5700 C   0  0  2  0  0  3  0  0  0  0  0  0
  188.7620  172.9750  140.2600 C   0  0  0  0  0  2  0  0  0  0  0  0
  189.0650  173.2470  138.8260 C   0  0  0  0  0  0  0  0  0  0  0  0
  191.1220  173.9810  137.4760 C   0  0  0  0  0  0  0  0  0  0  0  0
  195.5950  173.2860  141.4150 S   0  0  0  0  0  0  0  0  0  0  0  0
  194.3040  174.5010  141.6640 C   0  0  0  0  0  0  0  0  0  0  0  0
  196.7650  176.8890  142.5850 O   0  0  0  0  0  1  0  0  0  0  0  0
  196.8480  174.5400  141.8690 C   0  0  0  0  0  2  0  0  0  0  0  0
  194.7290  175.6810  142.0720 C   0  0  0  0  0  3  0  0  0  0  0  0
  196.1300  175.7440  142.2460 N   0  0  0  0  0  0  0  0  0  0  0  0
  193.3460  173.0620  136.8160 C   0  0  0  0  0  3  0  0  0  0  0  0
  194.6650  173.5200  136.2160 C   0  0  0  0  0  2  0  0  0  0  0  0
  193.4510  173.3330  135.3240 C   0  0  0  0  0  2  0  0  0  0  0  0
  191.0790  173.3620  144.1410 C   0  0  0  0  0  2  0  0  0  0  0  0
  191.0720  173.9670  145.5370 C   0  0  0  0  0  2  0  0  0  0  0  0
  189.4300  175.8320  145.6350 C   0  0  0  0  0  2  0  0  0  0  0  0
  191.4020  177.5590  144.1490 C   0  0  0  0  0  2  0  0  0  0  0  0
  191.4660  176.0300  144.1620 C   0  0  0  0  0  2  0  0  0  0  0  0
  190.2200  178.1240  144.9560 C   0  0  0  0  0  2  0  0  0  0  0  0
  190.9150  175.4760  145.4720 C   0  0  2  0  0  3  0  0  0  0  0  0
  188.9950  177.1740  145.0070 C   0  0  1  0  0  0  0  0  0  0  0  0
  186.4290  176.8990  142.5850 C   0  0  1  0  0  3  0  0  0  0  0  0
  186.9930  175.5130  142.3590 C   0  0  0  0  0  2  0  0  0  0  0  0
  187.3910  177.7120  143.2160 O   0  0  0  0  0  0  0  0  0  0  0  0
  188.0660  175.4230  143.3880 C   0  0  0  0  0  2  0  0  0  0  0  0
  188.4640  176.8720  143.5790 C   0  0  2  0  0  3  0  0  0  0  0  0
  186.7310  177.4610  140.2150 C   0  0  0  0  0  2  0  0  0  0  0  0
  185.9580  177.5110  141.2990 C   0  0  0  0  0  0  0  0  0  0  0  0
  184.5800  178.0240  141.2060 C   0  0  0  0  0  0  0  0  0  0  0  0
  183.9010  178.4150  142.3540 O   0  0  0  0  0  1  0  0  0  0  0  0
  183.9990  178.1070  140.0900 O   0  0  0  0  0  0  0  0  0  0  0  0
  187.9730  177.6940  145.8480 O   0  0  0  0  0  0  0  0  0  0  0  0
  185.8260  176.7220  146.2460 C   0  0  0  0  0  2  0  0  0  0  0  0
  186.2720  178.7010  147.6690 C   0  0  0  0  0  1  0  0  0  0  0  0
  186.3380  177.1810  147.5950 C   0  0  2  0  0  3  0  0  0  0  0  0
  187.3110  176.6550  146.5370 C   0  0  2  0  0  3  0  0  0  0  0  0
  1 26  1  0  0  0  0
  1  2  2  0  0  0  0
  3  1  1  0  0  0  0
  4  3  1  0  0  0  0
  5 18  1  0  0  0  0
  6 12  1  0  0  0  0
  6  7  1  0  0  0  0
  7  4  1  6  0  0  0
  8 15  1  0  0  0  0
  8  6  1  0  0  0  0
  9 15  2  0  0  0  0
 10 12  2  0  0  0  0
 11 16  2  0  0  0  0
 12  5  1  0  0  0  0
 13 23  1  1  0  0  0
 13 10  1  0  0  0  0
 14  7  1  0  0  0  0
 15 14  1  0  0  0  0
 16 13  1  0  0  0  0
 16  8  1  0  0  0  0
 17 18  1  0  0  0  0
 17 20  1  0  0  0  0
 18 21  2  0  0  0  0
 20 22  1  0  0  0  0
 21 22  1  0  0  0  0
 22 19  1  0  0  0  0
 24 23  1  0  0  0  0
 25 24  1  0  0  0  0
 25 23  1  0  0  0  0
 26 27  1  0  0  0  0
 29 30  1  0  0  0  0
 29 31  1  0  0  0  0
 30 32  1  0  0  0  0
 31 33  1  0  0  0  0
 32 27  1  6  0  0  0
 32 28  1  0  0  0  0
 33 28  1  0  0  0  0
 33 44  1  1  0  0  0
 34 40  1  6  0  0  0
 34 36  1  0  0  0  0
 35 34  1  0  0  0  0
 35 37  1  0  0  0  0
 36 38  1  0  0  0  0
 38 37  1  1  0  0  0
 38 33  1  0  0  0  0
 39 40  2  0  0  0  0
 41 40  1  0  0  0  0
 41 42  1  0  0  0  0
 43 41  2  0  0  0  0
 45 48  1  0  0  0  0
 45 47  1  0  0  0  0
 47 46  1  6  0  0  0
 48 44  1  6  0  0  0
 48 47  1  0  0  0  0
M  END
>  <MODEL>
1

>  <REMARK>
 VINA RESULT:      -7.4      0.000      0.000
  Name = 
  12 active torsions:
  status: ('A' for Active; 'I' for Inactive)
    1  A    between atoms: N_1  and  C_23
    2  A    between atoms: C_2  and  C_24
    3  A    between atoms: C_3  and  C_35
    4  A    between atoms: C_3  and  C_46
    5  A    between atoms: C_6  and  C_14
    6  A    between atoms: C_7  and  C_24
    7  A    between atoms: C_14  and  N_47
    8  A    between atoms: C_19  and  C_28
    9  A    between atoms: C_35  and  C_38
   10  A    between atoms: C_37  and  C_48
   11  A    between atoms: C_42  and  O_45
   12  A    between atoms: O_45  and  C_48
                            x       y       z     vdW  Elec       q    Type
                         _______ _______ _______ _____ _____    ______ ____

>  <TORSDO>
F 12

$$$$
=
 OpenBabel11062418263D

 48 54  0  0  1  0  0  0  0  0999 V2000
  194.7640  177.2250  145.1690 C   0  0  0  0  0  0  0  0  0  0  0  0
  195.2430  178.0930  145.9460 O   0  0  0  0  0  0  0  0  0  0  0  0
  195.6040  176.6340  144.1740 N   0  0  0  0  0  2  0  0  0  0  0  0
  195.1400  175.6160  143.2460 C   0  0  0  0  0  2  0  0  0  0  0  0
  196.4090  172.6350  144.0070 N   0  0  0  0  0  2  0  0  0  0  0  0
  195.9960  173.8020  141.8620 N   0  0  0  0  0  0  0  0  0  0  0  0
  196.2790  175.1510  142.3490 C   0  0  1  0  0  3  0  0  0  0  0  0
  195.8750  173.7660  140.4830 N   0  0  0  0  0  0  0  0  0  0  0  0
  196.0550  175.3530  138.7500 O   0  0  0  0  0  0  0  0  0  0  0  0
  195.8240  171.4510  142.0240 N   0  0  0  0  0  0  0  0  0  0  0  0
  195.7160  172.4810  138.5350 O   0  0  0  0  0  0  0  0  0  0  0  0
  196.0480  172.5900  142.6200 C   0  0  0  0  0  0  0  0  0  0  0  0
  195.4150  171.2960  140.6090 C   0  0  2  0  0  3  0  0  0  0  0  0
  196.3550  176.0310  141.0760 C   0  0  0  0  0  2  0  0  0  0  0  0
  196.0890  175.0610  139.9750 C   0  0  0  0  0  0  0  0  0  0  0  0
  195.6870  172.5320  139.7930 C   0  0  0  0  0  0  0  0  0  0  0  0
  194.7410  171.0730  145.6520 S   0  0  0  0  0  0  0  0  0  0  0  0
  196.3140  171.5590  144.9510 C   0  0  0  0  0  0  0  0  0  0  0  0
  197.8620  168.8180  146.5940 O   0  0  0  0  0  1  0  0  0  0  0  0
  195.5550  169.6530  146.4690 C   0  0  0  0  0  2  0  0  0  0  0  0
  197.3330  170.7970  145.3020 C   0  0  0  0  0  3  0  0  0  0  0  0
  196.9740  169.7510  146.1820 N   0  0  0  0  0  0  0  0  0  0  0  0
  193.9420  170.8690  140.4350 C   0  0  0  0  0  3  0  0  0  0  0  0
  193.7350  169.3770  140.6420 C   0  0  0  0  0  2  0  0  0  0  0  0
  193.7410  169.9540  139.2380 C   0  0  0  0  0  2  0  0  0  0  0  0
  193.3390  176.7970  145.3240 C   0  0  0  0  0  2  0  0  0  0  0  0
  193.1610  176.0110  146.6130 C   0  0  0  0  0  2  0  0  0  0  0  0
  191.3290  175.1990  145.1410 C   0  0  0  0  0  2  0  0  0  0  0  0
  189.6180  174.8150  147.5910 C   0  0  0  0  0  2  0  0  0  0  0  0
  190.8560  175.7140  147.5630 C   0  0  0  0  0  2  0  0  0  0  0  0
  189.3260  174.1410  146.2400 C   0  0  0  0  0  2  0  0  0  0  0  0
  191.8870  175.1850  146.5710 C   0  0  2  0  0  3  0  0  0  0  0  0
  189.8070  174.9680  145.0190 C   0  0  1  0  0  0  0  0  0  0  0  0
  187.1070  177.1440  144.3120 C   0  0  1  0  0  3  0  0  0  0  0  0
  188.1460  177.9540  143.5670 C   0  0  0  0  0  2  0  0  0  0  0  0
  187.7370  176.2860  145.2350 O   0  0  0  0  0  0  0  0  0  0  0  0
  189.3700  177.1130  143.6940 C   0  0  0  0  0  2  0  0  0  0  0  0
  189.1230  176.3620  144.9870 C   0  0  2  0  0  3  0  0  0  0  0  0
  186.1200  178.1600  146.3170 C   0  0  0  0  0  2  0  0  0  0  0  0
  186.1080  178.0340  144.9910 C   0  0  0  0  0  0  0  0  0  0  0  0
  185.2240  178.8830  144.1720 C   0  0  0  0  0  0  0  0  0  0  0  0
  185.4940  180.2390  144.0300 O   0  0  0  0  0  1  0  0  0  0  0  0
  184.2120  178.3940  143.6010 O   0  0  0  0  0  0  0  0  0  0  0  0
  189.6090  174.2570  143.8030 O   0  0  0  0  0  0  0  0  0  0  0  0
  190.7900  172.6700  142.4620 C   0  0  0  0  0  2  0  0  0  0  0  0
  188.3290  172.4820  142.2440 C   0  0  0  0  0  1  0  0  0  0  0  0
  189.5570  171.9560  142.9740 C   0  0  2  0  0  3  0  0  0  0  0  0
  190.2580  173.0050  143.8400 C   0  0  2  0  0  3  0  0  0  0  0  0
  1 26  1  0  0  0  0
  1  2  2  0  0  0  0
  3  1  1  0  0  0  0
  4  3  1  0  0  0  0
  5 18  1  0  0  0  0
  6  7  1  0  0  0  0
  6 12  1  0  0  0  0
  7  4  1  1  0  0  0
  8  6  1  0  0  0  0
  9 15  2  0  0  0  0
 10 12  2  0  0  0  0
 11 16  2  0  0  0  0
 12  5  1  0  0  0  0
 13 23  1  1  0  0  0
 13 10  1  0  0  0  0
 14  7  1  0  0  0  0
 15  8  1  0  0  0  0
 15 14  1  0  0  0  0
 16  8  1  0  0  0  0
 16 13  1  0  0  0  0
 17 20  1  0  0  0  0
 18 21  2  0  0  0  0
 18 17  1  0  0  0  0
 21 22  1  0  0  0  0
 22 20  1  0  0  0  0
 22 19  1  0  0  0  0
 23 24  1  0  0  0  0
 25 23  1  0  0  0  0
 25 24  1  0  0  0  0
 26 27  1  0  0  0  0
 28 32  1  0  0  0  0
 30 29  1  0  0  0  0
 31 29  1  0  0  0  0
 32 27  1  6  0  0  0
 32 30  1  0  0  0  0
 33 44  1  6  0  0  0
 33 28  1  0  0  0  0
 33 31  1  0  0  0  0
 34 40  1  1  0  0  0
 34 36  1  0  0  0  0
 35 37  1  0  0  0  0
 35 34  1  0  0  0  0
 38 37  1  6  0  0  0
 38 33  1  0  0  0  0
 38 36  1  0  0  0  0
 40 39  2  0  0  0  0
 41 40  1  0  0  0  0
 42 41  1  0  0  0  0
 43 41  2  0  0  0  0
 45 47  1  0  0  0  0
 45 48  1  0  0  0  0
 47 46  1  6  0  0  0
 47 48  1  0  0  0  0
 48 44  1  6  0  0  0
M  END
>  <MODEL>
2

>  <REMARK>
 VINA RESULT:      -7.1      3.300      5.512
  Name = 
  12 active torsions:
  status: ('A' for Active; 'I' for Inactive)
    1  A    between atoms: N_1  and  C_23
    2  A    between atoms: C_2  and  C_24
    3  A    between atoms: C_3  and  C_35
    4  A    between atoms: C_3  and  C_46
    5  A    between atoms: C_6  and  C_14
    6  A    between atoms: C_7  and  C_24
    7  A    between atoms: C_14  and  N_47
    8  A    between atoms: C_19  and  C_28
    9  A    between atoms: C_35  and  C_38
   10  A    between atoms: C_37  and  C_48
   11  A    between atoms: C_42  and  O_45
   12  A    between atoms: O_45  and  C_48
                            x       y       z     vdW  Elec       q    Type
                         _______ _______ _______ _____ _____    ______ ____

>  <TORSDO>
F 12

$$$$
=
 OpenBabel11062418263D

 48 54  0  0  1  0  0  0  0  0999 V2000
  189.9460  172.5480  143.6740 C   0  0  0  0  0  0  0  0  0  0  0  0
  189.3370  171.7630  144.4480 O   0  0  0  0  0  0  0  0  0  0  0  0
  189.5710  172.6030  142.2950 N   0  0  0  0  0  2  0  0  0  0  0  0
  190.2090  173.4890  141.3340 C   0  0  0  0  0  2  0  0  0  0  0  0
  193.4610  174.1430  141.0760 N   0  0  0  0  0  2  0  0  0  0  0  0
  192.1290  172.0650  140.8680 N   0  0  0  0  0  0  0  0  0  0  0  0
  190.9460  172.6850  140.2730 C   0  0  1  0  0  3  0  0  0  0  0  0
  192.0670  170.6820  140.8210 N   0  0  0  0  0  0  0  0  0  0  0  0
  190.5270  169.1090  139.9800 O   0  0  0  0  0  0  0  0  0  0  0  0
  194.3310  172.0210  141.7240 N   0  0  0  0  0  0  0  0  0  0  0  0
  193.1610  168.6330  141.0980 O   0  0  0  0  0  0  0  0  0  0  0  0
  193.3360  172.7260  141.2590 C   0  0  0  0  0  0  0  0  0  0  0  0
  194.2960  170.5630  141.9810 C   0  0  2  0  0  3  0  0  0  0  0  0
  190.0720  171.5000  139.7910 C   0  0  0  0  0  2  0  0  0  0  0  0
  190.8700  170.3040  140.1840 C   0  0  0  0  0  0  0  0  0  0  0  0
  193.1600  169.8810  141.2670 C   0  0  0  0  0  0  0  0  0  0  0  0
  195.7910  175.6250  140.5270 S   0  0  0  0  0  0  0  0  0  0  0  0
  194.5030  174.9840  141.5920 C   0  0  0  0  0  0  0  0  0  0  0  0
  195.7980  176.9140  144.2760 O   0  0  0  0  0  1  0  0  0  0  0  0
  196.4260  176.6290  141.9180 C   0  0  0  0  0  2  0  0  0  0  0  0
  194.5480  175.4190  142.8360 C   0  0  0  0  0  3  0  0  0  0  0  0
  195.6260  176.3010  143.0830 N   0  0  0  0  0  0  0  0  0  0  0  0
  194.2650  170.2010  143.4810 C   0  0  0  0  0  3  0  0  0  0  0  0
  192.8980  170.4200  144.1100 C   0  0  0  0  0  2  0  0  0  0  0  0
  194.0180  171.4120  144.3650 C   0  0  0  0  0  2  0  0  0  0  0  0
  191.0200  173.4370  144.2140 C   0  0  0  0  0  2  0  0  0  0  0  0
  190.6080  174.0040  145.5640 C   0  0  0  0  0  2  0  0  0  0  0  0
  189.0660  175.9520  145.6660 C   0  0  0  0  0  2  0  0  0  0  0  0
  191.1410  177.5880  144.2160 C   0  0  0  0  0  2  0  0  0  0  0  0
  191.1240  176.0570  144.2140 C   0  0  0  0  0  2  0  0  0  0  0  0
  189.9830  178.2060  145.0180 C   0  0  0  0  0  2  0  0  0  0  0  0
  190.5310  175.5200  145.5130 C   0  0  2  0  0  3  0  0  0  0  0  0
  188.7090  177.3220  145.0480 C   0  0  1  0  0  0  0  0  0  0  0  0
  186.1320  177.0530  142.6360 C   0  0  1  0  0  3  0  0  0  0  0  0
  186.7480  175.7020  142.3450 C   0  0  0  0  0  2  0  0  0  0  0  0
  187.0680  177.8750  143.2960 O   0  0  0  0  0  0  0  0  0  0  0  0
  187.8330  175.6090  143.3610 C   0  0  0  0  0  2  0  0  0  0  0  0
  188.1770  177.0630  143.6120 C   0  0  2  0  0  3  0  0  0  0  0  0
  186.3870  177.7250  140.2890 C   0  0  0  0  0  2  0  0  0  0  0  0
  185.6260  177.7030  141.3820 C   0  0  0  0  0  0  0  0  0  0  0  0
  184.2300  178.1720  141.3250 C   0  0  0  0  0  0  0  0  0  0  0  0
  183.4920  178.3100  142.4950 O   0  0  0  0  0  1  0  0  0  0  0  0
  183.6880  178.4440  140.2200 O   0  0  0  0  0  0  0  0  0  0  0  0
  187.7080  177.8870  145.8850 O   0  0  0  0  0  0  0  0  0  0  0  0
  185.6060  176.8480  146.3470 C   0  0  0  0  0  2  0  0  0  0  0  0
  185.9170  178.9850  147.5620 C   0  0  0  0  0  1  0  0  0  0  0  0
  186.0630  177.4720  147.6490 C   0  0  2  0  0  3  0  0  0  0  0  0
  187.0850  176.8910  146.6680 C   0  0  2  0  0  3  0  0  0  0  0  0
  1 26  1  0  0  0  0
  1  2  2  0  0  0  0
  3  1  1  0  0  0  0
  4  3  1  0  0  0  0
  5 12  1  0  0  0  0
  5 18  1  0  0  0  0
  6 12  1  0  0  0  0
  7  6  1  0  0  0  0
  7  4  1  1  0  0  0
  8  6  1  0  0  0  0
  8 16  1  0  0  0  0
  9 15  2  0  0  0  0
 10 13  1  0  0  0  0
 11 16  2  0  0  0  0
 12 10  2  0  0  0  0
 13 23  1  1  0  0  0
 14 15  1  0  0  0  0
 14  7  1  0  0  0  0
 15  8  1  0  0  0  0
 16 13  1  0  0  0  0
 17 18  1  0  0  0  0
 17 20  1  0  0  0  0
 18 21  2  0  0  0  0
 20 22  1  0  0  0  0
 21 22  1  0  0  0  0
 22 19  1  0  0  0  0
 23 24  1  0  0  0  0
 23 25  1  0  0  0  0
 24 25  1  0  0  0  0
 26 27  1  0  0  0  0
 29 31  1  0  0  0  0
 30 29  1  0  0  0  0
 30 32  1  0  0  0  0
 31 33  1  0  0  0  0
 32 27  1  6  0  0  0
 32 28  1  0  0  0  0
 33 28  1  0  0  0  0
 33 44  1  1  0  0  0
 34 40  1  6  0  0  0
 34 36  1  0  0  0  0
 35 34  1  0  0  0  0
 35 37  1  0  0  0  0
 36 38  1  0  0  0  0
 38 37  1  1  0  0  0
 38 33  1  0  0  0  0
 39 40  2  0  0  0  0
 41 40  1  0  0  0  0
 41 42  1  0  0  0  0
 43 41  2  0  0  0  0
 45 48  1  0  0  0  0
 45 47  1  0  0  0  0
 47 46  1  6  0  0  0
 48 44  1  6  0  0  0
 48 47  1  0  0  0  0
M  END
>  <MODEL>
3

>  <REMARK>
 VINA RESULT:      -7.0      2.140      3.076
  Name = 
  12 active torsions:
  status: ('A' for Active; 'I' for Inactive)
    1  A    between atoms: N_1  and  C_23
    2  A    between atoms: C_2  and  C_24
    3  A    between atoms: C_3  and  C_35
    4  A    between atoms: C_3  and  C_46
    5  A    between atoms: C_6  and  C_14
    6  A    between atoms: C_7  and  C_24
    7  A    between atoms: C_14  and  N_47
    8  A    between atoms: C_19  and  C_28
    9  A    between atoms: C_35  and  C_38
   10  A    between atoms: C_37  and  C_48
   11  A    between atoms: C_42  and  O_45
   12  A    between atoms: O_45  and  C_48
                            x       y       z     vdW  Elec       q    Type
                         _______ _______ _______ _____ _____    ______ ____

>  <TORSDO>
F 12

$$$$
=
 OpenBabel11062418263D

 48 54  0  0  1  0  0  0  0  0999 V2000
  190.3120  172.1800  143.7090 C   0  0  0  0  0  0  0  0  0  0  0  0
  189.5000  171.9860  144.6520 O   0  0  0  0  0  0  0  0  0  0  0  0
  190.5150  171.1520  142.7370 N   0  0  0  0  0  2  0  0  0  0  0  0
  191.4220  171.2940  141.6080 C   0  0  0  0  0  2  0  0  0  0  0  0
  193.9560  172.5610  139.8640 N   0  0  0  0  0  2  0  0  0  0  0  0
  193.7250  171.8070  142.2120 N   0  0  0  0  0  0  0  0  0  0  0  0
  192.7890  170.7170  141.9450 C   0  0  1  0  0  3  0  0  0  0  0  0
  194.2060  171.7700  143.5100 N   0  0  0  0  0  0  0  0  0  0  0  0
  193.8960  170.3470  145.3630 O   0  0  0  0  0  0  0  0  0  0  0  0
  195.1680  173.5890  141.6390 N   0  0  0  0  0  0  0  0  0  0  0  0
  195.7360  172.5720  145.0870 O   0  0  0  0  0  0  0  0  0  0  0  0
  194.2970  172.6990  141.2500 C   0  0  0  0  0  0  0  0  0  0  0  0
  195.5640  173.8350  143.0450 C   0  0  2  0  0  3  0  0  0  0  0  0
  192.7230  169.9120  143.2670 C   0  0  0  0  0  2  0  0  0  0  0  0
  193.6460  170.6590  144.1680 C   0  0  0  0  0  0  0  0  0  0  0  0
  195.2000  172.6910  143.9530 C   0  0  0  0  0  0  0  0  0  0  0  0
  192.9990  174.4570  138.0150 S   0  0  0  0  0  0  0  0  0  0  0  0
  194.2720  173.4820  138.8100 C   0  0  0  0  0  0  0  0  0  0  0  0
  196.7360  175.2200  136.9360 O   0  0  0  0  0  1  0  0  0  0  0  0
  194.2880  175.3560  137.0780 C   0  0  0  0  0  2  0  0  0  0  0  0
  195.5010  173.7500  138.4120 C   0  0  0  0  0  3  0  0  0  0  0  0
  195.5630  174.7520  137.4160 N   0  0  0  0  0  0  0  0  0  0  0  0
  195.0140  175.1560  143.6200 C   0  0  0  0  0  3  0  0  0  0  0  0
  196.0180  176.2950  143.5440 C   0  0  0  0  0  2  0  0  0  0  0  0
  195.7570  175.6010  144.8690 C   0  0  0  0  0  2  0  0  0  0  0  0
  191.0200  173.4930  143.5990 C   0  0  0  0  0  2  0  0  0  0  0  0
  191.2960  174.0620  144.9820 C   0  0  0  0  0  2  0  0  0  0  0  0
  189.6010  175.8560  145.2770 C   0  0  0  0  0  2  0  0  0  0  0  0
  191.4070  177.7240  143.7510 C   0  0  0  0  0  2  0  0  0  0  0  0
  191.5250  176.2000  143.6860 C   0  0  0  0  0  2  0  0  0  0  0  0
  190.2630  178.2060  144.6600 C   0  0  0  0  0  2  0  0  0  0  0  0
  191.0820  175.5650  145.0000 C   0  0  2  0  0  3  0  0  0  0  0  0
  189.0780  177.2080  144.7440 C   0  0  1  0  0  0  0  0  0  0  0  0
  186.3710  176.9910  142.4750 C   0  0  1  0  0  3  0  0  0  0  0  0
  186.9340  175.6210  142.1630 C   0  0  0  0  0  2  0  0  0  0  0  0
  187.3620  177.7920  143.0760 O   0  0  0  0  0  0  0  0  0  0  0  0
  188.0690  175.5070  143.1210 C   0  0  0  0  0  2  0  0  0  0  0  0
  188.4640  176.9530  143.3410 C   0  0  2  0  0  3  0  0  0  0  0  0
  186.4850  177.5750  140.0930 C   0  0  0  0  0  2  0  0  0  0  0  0
  185.8160  177.6440  141.2430 C   0  0  0  0  0  0  0  0  0  0  0  0
  184.4610  178.2220  141.2810 C   0  0  0  0  0  0  0  0  0  0  0  0
  183.7980  178.3670  142.4940 O   0  0  0  0  0  1  0  0  0  0  0  0
  183.8860  178.5830  140.2180 O   0  0  0  0  0  0  0  0  0  0  0  0
  188.0970  177.6500  145.6740 O   0  0  0  0  0  0  0  0  0  0  0  0
  185.9640  176.6680  146.1220 C   0  0  0  0  0  2  0  0  0  0  0  0
  186.5470  178.4810  147.7070 C   0  0  0  0  0  1  0  0  0  0  0  0
  186.5780  176.9770  147.4710 C   0  0  2  0  0  3  0  0  0  0  0  0
  187.4640  176.5530  146.2970 C   0  0  2  0  0  3  0  0  0  0  0  0
  1  2  2  0  0  0  0
  3  1  1  0  0  0  0
  4  3  1  0  0  0  0
  5 12  1  0  0  0  0
  6  8  1  0  0  0  0
  7  4  1  1  0  0  0
  7  6  1  0  0  0  0
  7 14  1  0  0  0  0
  8 16  1  0  0  0  0
  8 15  1  0  0  0  0
 10 13  1  0  0  0  0
 12 10  2  0  0  0  0
 12  6  1  0  0  0  0
 13 23  1  1  0  0  0
 13 16  1  0  0  0  0
 14 15  1  0  0  0  0
 15  9  2  0  0  0  0
 16 11  2  0  0  0  0
 17 18  1  0  0  0  0
 18  5  1  0  0  0  0
 19 22  1  0  0  0  0
 20 22  1  0  0  0  0
 20 17  1  0  0  0  0
 21 18  2  0  0  0  0
 22 21  1  0  0  0  0
 23 25  1  0  0  0  0
 24 23  1  0  0  0  0
 24 25  1  0  0  0  0
 26  1  1  0  0  0  0
 26 27  1  0  0  0  0
 29 31  1  0  0  0  0
 30 29  1  0  0  0  0
 30 32  1  0  0  0  0
 31 33  1  0  0  0  0
 32 27  1  6  0  0  0
 32 28  1  0  0  0  0
 33 28  1  0  0  0  0
 33 44  1  1  0  0  0
 34 40  1  6  0  0  0
 34 36  1  0  0  0  0
 35 34  1  0  0  0  0
 35 37  1  0  0  0  0
 36 38  1  0  0  0  0
 38 37  1  1  0  0  0
 38 33  1  0  0  0  0
 39 40  2  0  0  0  0
 40 41  1  0  0  0  0
 41 42  1  0  0  0  0
 43 41  2  0  0  0  0
 45 48  1  0  0  0  0
 45 47  1  0  0  0  0
 47 46  1  6  0  0  0
 48 44  1  6  0  0  0
 48 47  1  0  0  0  0
M  END
>  <MODEL>
4

>  <REMARK>
 VINA RESULT:      -7.0      2.340      4.198
  Name = 
  12 active torsions:
  status: ('A' for Active; 'I' for Inactive)
    1  A    between atoms: N_1  and  C_23
    2  A    between atoms: C_2  and  C_24
    3  A    between atoms: C_3  and  C_35
    4  A    between atoms: C_3  and  C_46
    5  A    between atoms: C_6  and  C_14
    6  A    between atoms: C_7  and  C_24
    7  A    between atoms: C_14  and  N_47
    8  A    between atoms: C_19  and  C_28
    9  A    between atoms: C_35  and  C_38
   10  A    between atoms: C_37  and  C_48
   11  A    between atoms: C_42  and  O_45
   12  A    between atoms: O_45  and  C_48
                            x       y       z     vdW  Elec       q    Type
                         _______ _______ _______ _____ _____    ______ ____

>  <TORSDO>
F 12

$$$$
=
 OpenBabel11062418263D

 48 54  0  0  1  0  0  0  0  0999 V2000
  189.9020  172.0480  140.8410 C   0  0  0  0  0  0  0  0  0  0  0  0
  189.4670  171.7250  139.7050 O   0  0  0  0  0  0  0  0  0  0  0  0
  191.2780  171.8190  141.1570 N   0  0  0  0  0  2  0  0  0  0  0  0
  191.8690  172.1740  142.4380 C   0  0  0  0  0  2  0  0  0  0  0  0
  194.1630  172.8470  140.1230 N   0  0  0  0  0  2  0  0  0  0  0  0
  194.2870  172.4430  142.5640 N   0  0  0  0  0  0  0  0  0  0  0  0
  193.2020  171.4650  142.6260 C   0  0  1  0  0  3  0  0  0  0  0  0
  194.9910  172.5100  143.7550 N   0  0  0  0  0  0  0  0  0  0  0  0
  194.8720  171.3960  145.8280 O   0  0  0  0  0  0  0  0  0  0  0  0
  195.7870  173.9230  141.4950 N   0  0  0  0  0  0  0  0  0  0  0  0
  196.8650  173.2950  144.9130 O   0  0  0  0  0  0  0  0  0  0  0  0
  194.7660  173.1160  141.3960 C   0  0  0  0  0  0  0  0  0  0  0  0
  196.4610  174.2930  142.7610 C   0  0  2  0  0  3  0  0  0  0  0  0
  193.2920  170.8560  144.0480 C   0  0  0  0  0  2  0  0  0  0  0  0
  194.4420  171.5810  144.6580 C   0  0  0  0  0  0  0  0  0  0  0  0
  196.1460  173.3380  143.8800 C   0  0  0  0  0  0  0  0  0  0  0  0
  195.5880  173.0260  137.7020 S   0  0  0  0  0  0  0  0  0  0  0  0
  194.3790  173.5710  138.9040 C   0  0  0  0  0  0  0  0  0  0  0  0
  193.3400  176.1210  136.6620 O   0  0  0  0  0  1  0  0  0  0  0  0
  195.0200  174.3310  136.5540 C   0  0  0  0  0  2  0  0  0  0  0  0
  193.6630  174.6150  138.5310 C   0  0  0  0  0  3  0  0  0  0  0  0
  194.0110  175.1060  137.2520 N   0  0  0  0  0  0  0  0  0  0  0  0
  196.1750  175.7410  143.2120 C   0  0  0  0  0  3  0  0  0  0  0  0
  196.3130  176.7470  142.0810 C   0  0  0  0  0  2  0  0  0  0  0  0
  197.4060  176.6290  143.1280 C   0  0  0  0  0  2  0  0  0  0  0  0
  188.9870  172.7030  141.8270 C   0  0  0  0  0  2  0  0  0  0  0  0
  188.2910  173.8960  141.1900 C   0  0  0  0  0  2  0  0  0  0  0  0
  189.3620  175.0080  143.1390 C   0  0  0  0  0  2  0  0  0  0  0  0
  188.5140  177.6680  142.0040 C   0  0  0  0  0  2  0  0  0  0  0  0
  187.8750  176.3380  141.5970 C   0  0  0  0  0  2  0  0  0  0  0  0
  189.6210  177.5110  143.0620 C   0  0  0  0  0  2  0  0  0  0  0  0
  188.8860  175.2000  141.6920 C   0  0  2  0  0  3  0  0  0  0  0  0
  189.4140  176.2910  143.9970 C   0  0  1  0  0  0  0  0  0  0  0  0
  187.0850  177.9640  146.0710 C   0  0  1  0  0  3  0  0  0  0  0  0
  187.1230  176.6920  146.8890 C   0  0  0  0  0  2  0  0  0  0  0  0
  187.5540  177.7110  144.7660 O   0  0  0  0  0  0  0  0  0  0  0  0
  188.1510  175.8780  146.1840 C   0  0  0  0  0  2  0  0  0  0  0  0
  188.0680  176.3970  144.7630 C   0  0  2  0  0  3  0  0  0  0  0  0
  185.0430  178.7450  147.1870 C   0  0  0  0  0  2  0  0  0  0  0  0
  185.7070  178.5560  146.0480 C   0  0  0  0  0  0  0  0  0  0  0  0
  185.1630  179.0690  144.7780 C   0  0  0  0  0  0  0  0  0  0  0  0
  184.2590  178.3070  144.0480 O   0  0  0  0  0  0  0  0  0  0  0  0
  185.5150  180.1960  144.3360 O   0  0  0  0  0  1  0  0  0  0  0  0
  190.5130  176.1300  144.8860 O   0  0  0  0  0  0  0  0  0  0  0  0
  192.2220  174.6360  145.6300 C   0  0  0  0  0  2  0  0  0  0  0  0
  193.0990  176.8560  144.9680 C   0  0  0  0  0  1  0  0  0  0  0  0
  192.8260  175.4350  144.4940 C   0  0  2  0  0  3  0  0  0  0  0  0
  191.3410  175.0640  144.4760 C   0  0  2  0  0  3  0  0  0  0  0  0
  1  3  1  0  0  0  0
  1 26  1  0  0  0  0
  2  1  2  0  0  0  0
  3  4  1  0  0  0  0
  5 12  1  0  0  0  0
  6  7  1  0  0  0  0
  6  8  1  0  0  0  0
  7  4  1  1  0  0  0
  7 14  1  0  0  0  0
  8 16  1  0  0  0  0
  8 15  1  0  0  0  0
 10 13  1  0  0  0  0
 12 10  2  0  0  0  0
 12  6  1  0  0  0  0
 13 23  1  1  0  0  0
 13 16  1  0  0  0  0
 14 15  1  0  0  0  0
 15  9  2  0  0  0  0
 16 11  2  0  0  0  0
 17 18  1  0  0  0  0
 18  5  1  0  0  0  0
 19 22  1  0  0  0  0
 20 22  1  0  0  0  0
 20 17  1  0  0  0  0
 21 18  2  0  0  0  0
 22 21  1  0  0  0  0
 24 25  1  0  0  0  0
 24 23  1  0  0  0  0
 25 23  1  0  0  0  0
 27 26  1  0  0  0  0
 28 33  1  0  0  0  0
 29 31  1  0  0  0  0
 30 32  1  0  0  0  0
 30 29  1  0  0  0  0
 31 33  1  0  0  0  0
 32 27  1  1  0  0  0
 32 28  1  0  0  0  0
 33 38  1  0  0  0  0
 33 44  1  1  0  0  0
 34 40  1  6  0  0  0
 34 35  1  0  0  0  0
 36 34  1  0  0  0  0
 37 35  1  0  0  0  0
 38 36  1  0  0  0  0
 38 37  1  1  0  0  0
 40 39  2  0  0  0  0
 41 40  1  0  0  0  0
 42 41  2  0  0  0  0
 43 41  1  0  0  0  0
 47 46  1  1  0  0  0
 47 45  1  0  0  0  0
 48 47  1  0  0  0  0
 48 44  1  1  0  0  0
 48 45  1  0  0  0  0
M  END
>  <MODEL>
5

>  <REMARK>
 VINA RESULT:      -6.9      2.317      5.378
  Name = 
  12 active torsions:
  status: ('A' for Active; 'I' for Inactive)
    1  A    between atoms: N_1  and  C_23
    2  A    between atoms: C_2  and  C_24
    3  A    between atoms: C_3  and  C_35
    4  A    between atoms: C_3  and  C_46
    5  A    between atoms: C_6  and  C_14
    6  A    between atoms: C_7  and  C_24
    7  A    between atoms: C_14  and  N_47
    8  A    between atoms: C_19  and  C_28
    9  A    between atoms: C_35  and  C_38
   10  A    between atoms: C_37  and  C_48
   11  A    between atoms: C_42  and  O_45
   12  A    between atoms: O_45  and  C_48
                            x       y       z     vdW  Elec       q    Type
                         _______ _______ _______ _____ _____    ______ ____

>  <TORSDO>
F 12

$$$$
=
 OpenBabel11062418263D

 48 54  0  0  1  0  0  0  0  0999 V2000
  189.1950  172.8770  139.7830 C   0  0  0  0  0  0  0  0  0  0  0  0
  188.1870  172.8190  139.0310 O   0  0  0  0  0  0  0  0  0  0  0  0
  190.4690  173.2050  139.2240 N   0  0  0  0  0  2  0  0  0  0  0  0
  191.6830  173.3090  140.0180 C   0  0  0  0  0  2  0  0  0  0  0  0
  194.7550  173.6900  141.2380 N   0  0  0  0  0  2  0  0  0  0  0  0
  193.3300  171.7060  140.8280 N   0  0  0  0  0  0  0  0  0  0  0  0
  192.6720  172.2200  139.6280 C   0  0  1  0  0  3  0  0  0  0  0  0
  193.0590  170.3630  141.0320 N   0  0  0  0  0  0  0  0  0  0  0  0
  191.8250  168.7180  139.8820 O   0  0  0  0  0  0  0  0  0  0  0  0
  194.8580  171.7580  142.6300 N   0  0  0  0  0  0  0  0  0  0  0  0
  193.5380  168.3950  142.2000 O   0  0  0  0  0  0  0  0  0  0  0  0
  194.3200  172.3760  141.6140 C   0  0  0  0  0  0  0  0  0  0  0  0
  194.4600  170.4190  143.1200 C   0  0  2  0  0  3  0  0  0  0  0  0
  191.9230  171.0020  139.0290 C   0  0  0  0  0  2  0  0  0  0  0  0
  192.2380  169.9040  139.9850 C   0  0  0  0  0  0  0  0  0  0  0  0
  193.6750  169.6420  142.0970 C   0  0  0  0  0  0  0  0  0  0  0  0
  197.3340  174.7170  141.7090 S   0  0  0  0  0  0  0  0  0  0  0  0
  195.5760  174.5740  142.0140 C   0  0  0  0  0  0  0  0  0  0  0  0
  195.8040  177.1940  144.3990 O   0  0  0  0  0  1  0  0  0  0  0  0
  197.4230  176.0820  142.9240 C   0  0  0  0  0  2  0  0  0  0  0  0
  195.1070  175.4000  142.9290 C   0  0  0  0  0  3  0  0  0  0  0  0
  196.1000  176.2290  143.5000 N   0  0  0  0  0  0  0  0  0  0  0  0
  193.6890  170.4540  144.4560 C   0  0  0  0  0  3  0  0  0  0  0  0
  194.5710  170.8400  145.6330 C   0  0  0  0  0  2  0  0  0  0  0  0
  194.1670  169.3900  145.4310 C   0  0  0  0  0  2  0  0  0  0  0  0
  189.0390  172.6410  141.2520 C   0  0  0  0  0  2  0  0  0  0  0  0
  187.9720  173.5610  141.8240 C   0  0  0  0  0  2  0  0  0  0  0  0
  188.9720  174.8260  143.7160 C   0  0  0  0  0  2  0  0  0  0  0  0
  188.2410  177.3870  142.3060 C   0  0  0  0  0  2  0  0  0  0  0  0
  187.5920  176.0370  141.9890 C   0  0  0  0  0  2  0  0  0  0  0  0
  189.2910  177.3070  143.4280 C   0  0  0  0  0  2  0  0  0  0  0  0
  188.5710  174.8940  142.2360 C   0  0  2  0  0  3  0  0  0  0  0  0
  189.0120  176.1800  144.4570 C   0  0  1  0  0  0  0  0  0  0  0  0
  186.5350  178.1380  146.0570 C   0  0  1  0  0  3  0  0  0  0  0  0
  186.5920  177.0700  147.1270 C   0  0  0  0  0  2  0  0  0  0  0  0
  187.0660  177.6390  144.8510 O   0  0  0  0  0  0  0  0  0  0  0  0
  187.6800  176.1760  146.6420 C   0  0  0  0  0  2  0  0  0  0  0  0
  187.6320  176.3800  145.1420 C   0  0  2  0  0  3  0  0  0  0  0  0
  184.2510  178.5450  146.8580 C   0  0  0  0  0  2  0  0  0  0  0  0
  185.1360  178.6450  145.8670 C   0  0  0  0  0  0  0  0  0  0  0  0
  184.7990  179.3910  144.6420 C   0  0  0  0  0  0  0  0  0  0  0  0
  185.5610  180.4890  144.2610 O   0  0  0  0  0  1  0  0  0  0  0  0
  183.8140  179.0490  143.9320 O   0  0  0  0  0  0  0  0  0  0  0  0
  190.0620  176.0810  145.4110 O   0  0  0  0  0  0  0  0  0  0  0  0
  192.2100  175.0560  145.1990 C   0  0  0  0  0  2  0  0  0  0  0  0
  191.9930  176.4320  147.2480 C   0  0  0  0  0  1  0  0  0  0  0  0
  192.4540  176.4260  145.7970 C   0  0  2  0  0  3  0  0  0  0  0  0
  191.3220  176.2120  144.7890 C   0  0  2  0  0  3  0  0  0  0  0  0
  1 26  1  0  0  0  0
  2  1  2  0  0  0  0
  3  1  1  0  0  0  0
  3  4  1  0  0  0  0
  5 12  1  0  0  0  0
  5 18  1  0  0  0  0
  6  8  1  0  0  0  0
  6 12  1  0  0  0  0
  7  4  1  1  0  0  0
  7  6  1  0  0  0  0
  8 16  1  0  0  0  0
  9 15  2  0  0  0  0
 10 13  1  0  0  0  0
 12 10  2  0  0  0  0
 13 23  1  1  0  0  0
 14  7  1  0  0  0  0
 14 15  1  0  0  0  0
 15  8  1  0  0  0  0
 16 11  2  0  0  0  0
 16 13  1  0  0  0  0
 17 18  1  0  0  0  0
 17 20  1  0  0  0  0
 18 21  2  0  0  0  0
 20 22  1  0  0  0  0
 21 22  1  0  0  0  0
 22 19  1  0  0  0  0
 23 25  1  0  0  0  0
 23 24  1  0  0  0  0
 25 24  1  0  0  0  0
 26 27  1  0  0  0  0
 28 33  1  0  0  0  0
 29 31  1  0  0  0  0
 30 32  1  0  0  0  0
 30 29  1  0  0  0  0
 31 33  1  0  0  0  0
 32 27  1  1  0  0  0
 32 28  1  0  0  0  0
 33 38  1  0  0  0  0
 33 44  1  1  0  0  0
 34 40  1  6  0  0  0
 34 35  1  0  0  0  0
 36 38  1  0  0  0  0
 36 34  1  0  0  0  0
 37 35  1  0  0  0  0
 38 37  1  1  0  0  0
 40 39  2  0  0  0  0
 41 40  1  0  0  0  0
 42 41  1  0  0  0  0
 43 41  2  0  0  0  0
 45 47  1  0  0  0  0
 47 46  1  1  0  0  0
 48 45  1  0  0  0  0
 48 44  1  1  0  0  0
 48 47  1  0  0  0  0
M  END
>  <MODEL>
6

>  <REMARK>
 VINA RESULT:      -6.7      2.613      4.823
  Name = 
  12 active torsions:
  status: ('A' for Active; 'I' for Inactive)
    1  A    between atoms: N_1  and  C_23
    2  A    between atoms: C_2  and  C_24
    3  A    between atoms: C_3  and  C_35
    4  A    between atoms: C_3  and  C_46
    5  A    between atoms: C_6  and  C_14
    6  A    between atoms: C_7  and  C_24
    7  A    between atoms: C_14  and  N_47
    8  A    between atoms: C_19  and  C_28
    9  A    between atoms: C_35  and  C_38
   10  A    between atoms: C_37  and  C_48
   11  A    between atoms: C_42  and  O_45
   12  A    between atoms: O_45  and  C_48
                            x       y       z     vdW  Elec       q    Type
                         _______ _______ _______ _____ _____    ______ ____

>  <TORSDO>
F 12

$$$$
=
 OpenBabel11062418263D

 48 54  0  0  1  0  0  0  0  0999 V2000
  189.0850  173.7680  138.6100 C   0  0  0  0  0  0  0  0  0  0  0  0
  187.8320  173.6430  138.6010 O   0  0  0  0  0  0  0  0  0  0  0  0
  189.7760  173.9960  137.3800 N   0  0  0  0  0  2  0  0  0  0  0  0
  191.2180  174.1660  137.2980 C   0  0  0  0  0  2  0  0  0  0  0  0
  194.2780  173.6010  138.4770 N   0  0  0  0  0  2  0  0  0  0  0  0
  192.3730  172.1160  137.9300 N   0  0  0  0  0  0  0  0  0  0  0  0
  191.8790  172.8910  136.7930 C   0  0  1  0  0  3  0  0  0  0  0  0
  191.7510  170.8810  138.0220 N   0  0  0  0  0  0  0  0  0  0  0  0
  190.1220  169.7350  136.7620 O   0  0  0  0  0  0  0  0  0  0  0  0
  193.8560  171.5960  139.6940 N   0  0  0  0  0  0  0  0  0  0  0  0
  191.6820  168.7600  139.0050 O   0  0  0  0  0  0  0  0  0  0  0  0
  193.5050  172.4230  138.7480 C   0  0  0  0  0  0  0  0  0  0  0  0
  193.1120  170.3730  140.0760 C   0  0  2  0  0  3  0  0  0  0  0  0
  190.8320  171.9770  136.1080 C   0  0  0  0  0  2  0  0  0  0  0  0
  190.8380  170.7540  136.9590 C   0  0  0  0  0  0  0  0  0  0  0  0
  192.1490  169.9300  139.0080 C   0  0  0  0  0  0  0  0  0  0  0  0
  196.9260  173.4080  139.4140 S   0  0  0  0  0  0  0  0  0  0  0  0
  195.3050  174.1600  139.3090 C   0  0  0  0  0  0  0  0  0  0  0  0
  196.4480  176.8470  141.3280 O   0  0  0  0  0  1  0  0  0  0  0  0
  197.5000  174.8150  140.4330 C   0  0  0  0  0  2  0  0  0  0  0  0
  195.1770  175.2920  139.9730 C   0  0  0  0  0  3  0  0  0  0  0  0
  196.3550  175.6790  140.6540 N   0  0  0  0  0  0  0  0  0  0  0  0
  192.3770  170.4940  141.4270 C   0  0  0  0  0  3  0  0  0  0  0  0
  193.2090  169.9920  142.5960 C   0  0  0  0  0  2  0  0  0  0  0  0
  192.0780  169.1400  142.0480 C   0  0  0  0  0  2  0  0  0  0  0  0
  189.8250  173.7150  139.9090 C   0  0  0  0  0  2  0  0  0  0  0  0
  189.2110  172.6690  140.8250 C   0  0  0  0  0  2  0  0  0  0  0  0
  190.4110  174.1650  142.4070 C   0  0  0  0  0  2  0  0  0  0  0  0
  189.6310  172.3120  144.6510 C   0  0  0  0  0  2  0  0  0  0  0  0
  189.6260  171.8970  143.1780 C   0  0  0  0  0  2  0  0  0  0  0  0
  190.0900  173.7630  144.8710 C   0  0  0  0  0  2  0  0  0  0  0  0
  189.3210  173.0910  142.2800 C   0  0  2  0  0  3  0  0  0  0  0  0
  191.0840  174.2690  143.7930 C   0  0  1  0  0  0  0  0  0  0  0  0
  194.3960  173.4760  144.7560 C   0  0  1  0  0  3  0  0  0  0  0  0
  194.6570  173.4100  143.2670 C   0  0  0  0  0  2  0  0  0  0  0  0
  193.0160  173.3430  145.0090 O   0  0  0  0  0  0  0  0  0  0  0  0
  193.3460  173.8120  142.6860 C   0  0  0  0  0  2  0  0  0  0  0  0
  192.3640  173.3890  143.7600 C   0  0  2  0  0  3  0  0  0  0  0  0
  194.6390  171.2550  145.7720 C   0  0  0  0  0  2  0  0  0  0  0  0
  195.1870  172.4360  145.4940 C   0  0  0  0  0  0  0  0  0  0  0  0
  196.6160  172.6740  145.7650 C   0  0  0  0  0  0  0  0  0  0  0  0
  197.0120  173.7910  146.4910 O   0  0  0  0  0  1  0  0  0  0  0  0
  197.4930  171.8760  145.3360 O   0  0  0  0  0  0  0  0  0  0  0  0
  191.3960  175.6430  143.9820 O   0  0  0  0  0  0  0  0  0  0  0  0
  191.1510  177.8770  143.1680 C   0  0  0  0  0  2  0  0  0  0  0  0
  190.0960  177.5320  145.3840 C   0  0  0  0  0  1  0  0  0  0  0  0
  189.8560  177.5420  143.8800 C   0  0  2  0  0  3  0  0  0  0  0  0
  190.6260  176.4570  143.1240 C   0  0  2  0  0  3  0  0  0  0  0  0
  1 26  1  0  0  0  0
  2  1  2  0  0  0  0
  3  1  1  0  0  0  0
  4  3  1  0  0  0  0
  5 12  1  0  0  0  0
  5 18  1  0  0  0  0
  6  8  1  0  0  0  0
  6 12  1  0  0  0  0
  7  4  1  1  0  0  0
  7  6  1  0  0  0  0
  8 16  1  0  0  0  0
  9 15  2  0  0  0  0
 10 13  1  0  0  0  0
 11 16  2  0  0  0  0
 12 10  2  0  0  0  0
 13 23  1  1  0  0  0
 14  7  1  0  0  0  0
 14 15  1  0  0  0  0
 15  8  1  0  0  0  0
 16 13  1  0  0  0  0
 17 20  1  0  0  0  0
 18 17  1  0  0  0  0
 18 21  2  0  0  0  0
 20 22  1  0  0  0  0
 21 22  1  0  0  0  0
 22 19  1  0  0  0  0
 23 25  1  0  0  0  0
 23 24  1  0  0  0  0
 25 24  1  0  0  0  0
 26 27  1  0  0  0  0
 28 33  1  0  0  0  0
 29 31  1  0  0  0  0
 30 29  1  0  0  0  0
 32 27  1  6  0  0  0
 32 28  1  0  0  0  0
 32 30  1  0  0  0  0
 33 44  1  1  0  0  0
 33 31  1  0  0  0  0
 34 36  1  0  0  0  0
 34 40  1  1  0  0  0
 35 34  1  0  0  0  0
 37 35  1  0  0  0  0
 38 37  1  6  0  0  0
 38 33  1  0  0  0  0
 38 36  1  0  0  0  0
 40 41  1  0  0  0  0
 40 39  2  0  0  0  0
 41 42  1  0  0  0  0
 43 41  2  0  0  0  0
 45 47  1  0  0  0  0
 47 46  1  1  0  0  0
 48 45  1  0  0  0  0
 48 47  1  0  0  0  0
 48 44  1  1  0  0  0
M  END
>  <MODEL>
7

>  <REMARK>
 VINA RESULT:      -6.6      3.075      6.402
  Name = 
  12 active torsions:
  status: ('A' for Active; 'I' for Inactive)
    1  A    between atoms: N_1  and  C_23
    2  A    between atoms: C_2  and  C_24
    3  A    between atoms: C_3  and  C_35
    4  A    between atoms: C_3  and  C_46
    5  A    between atoms: C_6  and  C_14
    6  A    between atoms: C_7  and  C_24
    7  A    between atoms: C_14  and  N_47
    8  A    between atoms: C_19  and  C_28
    9  A    between atoms: C_35  and  C_38
   10  A    between atoms: C_37  and  C_48
   11  A    between atoms: C_42  and  O_45
   12  A    between atoms: O_45  and  C_48
                            x       y       z     vdW  Elec       q    Type
                         _______ _______ _______ _____ _____    ______ ____

>  <TORSDO>
F 12

$$$$
=
 OpenBabel11062418263D

 48 54  0  0  1  0  0  0  0  0999 V2000
  195.2530  176.3760  143.3970 C   0  0  0  0  0  0  0  0  0  0  0  0
  195.9650  176.7210  144.3760 O   0  0  0  0  0  0  0  0  0  0  0  0
  195.8370  176.3110  142.0930 N   0  0  0  0  0  2  0  0  0  0  0  0
  195.0940  175.9090  140.9090 C   0  0  0  0  0  2  0  0  0  0  0  0
  195.5950  173.0160  142.4750 N   0  0  0  0  0  2  0  0  0  0  0  0
  195.1430  173.6070  140.1120 N   0  0  0  0  0  0  0  0  0  0  0  0
  195.8760  174.8720  140.1150 C   0  0  1  0  0  3  0  0  0  0  0  0
  194.7690  173.2290  138.8340 N   0  0  0  0  0  0  0  0  0  0  0  0
  195.0680  174.1250  136.6750 O   0  0  0  0  0  0  0  0  0  0  0  0
  194.3530  171.5800  141.0350 N   0  0  0  0  0  0  0  0  0  0  0  0
  193.9060  171.5750  137.4230 O   0  0  0  0  0  0  0  0  0  0  0  0
  194.9910  172.7050  141.2120 C   0  0  0  0  0  0  0  0  0  0  0  0
  193.6670  171.1780  139.7850 C   0  0  2  0  0  3  0  0  0  0  0  0
  195.9620  175.2890  138.6250 C   0  0  0  0  0  2  0  0  0  0  0  0
  195.2410  174.1910  137.9210 C   0  0  0  0  0  0  0  0  0  0  0  0
  194.1210  171.9800  138.5960 C   0  0  0  0  0  0  0  0  0  0  0  0
  193.7620  172.3090  144.4920 S   0  0  0  0  0  0  0  0  0  0  0  0
  195.3760  172.3350  143.7190 C   0  0  0  0  0  0  0  0  0  0  0  0
  196.5830  170.1280  146.2240 O   0  0  0  0  0  1  0  0  0  0  0  0
  194.3990  171.1530  145.7580 C   0  0  0  0  0  2  0  0  0  0  0  0
  196.2940  171.6140  144.3330 C   0  0  0  0  0  3  0  0  0  0  0  0
  195.8160  170.9720  145.4990 N   0  0  0  0  0  0  0  0  0  0  0  0
  192.1280  171.2160  139.8860 C   0  0  0  0  0  3  0  0  0  0  0  0
  191.5590  170.0330  140.6530 C   0  0  0  0  0  2  0  0  0  0  0  0
  191.4680  170.0690  139.1380 C   0  0  0  0  0  2  0  0  0  0  0  0
  193.8210  176.0020  143.6160 C   0  0  0  0  0  2  0  0  0  0  0  0
  193.3440  176.5110  144.9670 C   0  0  0  0  0  2  0  0  0  0  0  0
  191.1510  175.5600  144.2830 C   0  0  0  0  0  2  0  0  0  0  0  0
  190.3220  175.5540  147.1800 C   0  0  0  0  0  2  0  0  0  0  0  0
  191.4700  176.4070  146.6350 C   0  0  0  0  0  2  0  0  0  0  0  0
  189.6240  174.7130  146.0970 C   0  0  0  0  0  2  0  0  0  0  0  0
  192.1380  175.7220  145.4470 C   0  0  2  0  0  3  0  0  0  0  0  0
  189.6740  175.3560  144.6860 C   0  0  1  0  0  0  0  0  0  0  0  0
  186.8990  177.5130  144.2750 C   0  0  1  0  0  3  0  0  0  0  0  0
  187.8180  178.2790  143.3480 C   0  0  0  0  0  2  0  0  0  0  0  0
  187.6570  176.6970  145.1370 O   0  0  0  0  0  0  0  0  0  0  0  0
  189.0470  177.4370  143.3360 C   0  0  0  0  0  2  0  0  0  0  0  0
  188.9920  176.7510  144.6860 C   0  0  2  0  0  3  0  0  0  0  0  0
  185.5610  179.5610  144.4820 C   0  0  0  0  0  2  0  0  0  0  0  0
  186.0090  178.4420  145.0480 C   0  0  0  0  0  0  0  0  0  0  0  0
  185.5130  178.0300  146.3730 C   0  0  0  0  0  0  0  0  0  0  0  0
  184.7990  176.8460  146.5130 O   0  0  0  0  0  0  0  0  0  0  0  0
  185.7210  178.7470  147.3890 O   0  0  0  0  0  1  0  0  0  0  0  0
  189.1090  174.4950  143.7060 O   0  0  0  0  0  0  0  0  0  0  0  0
  190.0960  173.8900  141.6150 C   0  0  0  0  0  2  0  0  0  0  0  0
  187.9940  172.6650  142.0830 C   0  0  0  0  0  1  0  0  0  0  0  0
  189.5120  172.6160  142.1900 C   0  0  2  0  0  3  0  0  0  0  0  0
  190.1020  173.6840  143.1150 C   0  0  2  0  0  3  0  0  0  0  0  0
  1 26  1  0  0  0  0
  1  2  2  0  0  0  0
  3  1  1  0  0  0  0
  4  3  1  0  0  0  0
  5 18  1  0  0  0  0
  6  7  1  0  0  0  0
  6 12  1  0  0  0  0
  7  4  1  1  0  0  0
  8  6  1  0  0  0  0
  9 15  2  0  0  0  0
 10 12  2  0  0  0  0
 11 16  2  0  0  0  0
 12  5  1  0  0  0  0
 13 23  1  1  0  0  0
 13 10  1  0  0  0  0
 14  7  1  0  0  0  0
 15 14  1  0  0  0  0
 15  8  1  0  0  0  0
 16  8  1  0  0  0  0
 16 13  1  0  0  0  0
 17 20  1  0  0  0  0
 18 21  2  0  0  0  0
 18 17  1  0  0  0  0
 21 22  1  0  0  0  0
 22 20  1  0  0  0  0
 22 19  1  0  0  0  0
 23 24  1  0  0  0  0
 25 23  1  0  0  0  0
 25 24  1  0  0  0  0
 26 27  1  0  0  0  0
 28 33  1  0  0  0  0
 28 32  1  0  0  0  0
 30 29  1  0  0  0  0
 31 29  1  0  0  0  0
 32 27  1  6  0  0  0
 32 30  1  0  0  0  0
 33 44  1  6  0  0  0
 33 38  1  0  0  0  0
 33 31  1  0  0  0  0
 34 40  1  1  0  0  0
 34 36  1  0  0  0  0
 35 34  1  0  0  0  0
 37 35  1  0  0  0  0
 38 37  1  6  0  0  0
 38 36  1  0  0  0  0
 39 40  2  0  0  0  0
 40 41  1  0  0  0  0
 41 42  2  0  0  0  0
 41 43  1  0  0  0  0
 45 47  1  0  0  0  0
 45 48  1  0  0  0  0
 47 46  1  1  0  0  0
 47 48  1  0  0  0  0
 48 44  1  1  0  0  0
M  END
>  <MODEL>
8

>  <REMARK>
 VINA RESULT:      -6.5      2.783      5.061
  Name = 
  12 active torsions:
  status: ('A' for Active; 'I' for Inactive)
    1  A    between atoms: N_1  and  C_23
    2  A    between atoms: C_2  and  C_24
    3  A    between atoms: C_3  and  C_35
    4  A    between atoms: C_3  and  C_46
    5  A    between atoms: C_6  and  C_14
    6  A    between atoms: C_7  and  C_24
    7  A    between atoms: C_14  and  N_47
    8  A    between atoms: C_19  and  C_28
    9  A    between atoms: C_35  and  C_38
   10  A    between atoms: C_37  and  C_48
   11  A    between atoms: C_42  and  O_45
   12  A    between atoms: O_45  and  C_48
                            x       y       z     vdW  Elec       q    Type
                         _______ _______ _______ _____ _____    ______ ____

>  <TORSDO>
F 12

$$$$
=
 OpenBabel11062418263D

 48 54  0  0  1  0  0  0  0  0999 V2000
  189.0660  173.4490  138.9920 C   0  0  0  0  0  0  0  0  0  0  0  0
  187.8160  173.3090  139.0440 O   0  0  0  0  0  0  0  0  0  0  0  0
  189.7020  173.6060  137.7210 N   0  0  0  0  0  2  0  0  0  0  0  0
  191.1370  173.7880  137.5670 C   0  0  0  0  0  2  0  0  0  0  0  0
  194.3000  173.4650  138.5470 N   0  0  0  0  0  2  0  0  0  0  0  0
  192.4150  171.8690  138.3520 N   0  0  0  0  0  0  0  0  0  0  0  0
  191.8030  172.4780  137.1730 C   0  0  1  0  0  3  0  0  0  0  0  0
  191.8510  170.6400  138.6510 N   0  0  0  0  0  0  0  0  0  0  0  0
  190.1720  169.2970  137.6870 O   0  0  0  0  0  0  0  0  0  0  0  0
  194.0540  171.6220  140.0370 N   0  0  0  0  0  0  0  0  0  0  0  0
  191.9410  168.6620  139.8960 O   0  0  0  0  0  0  0  0  0  0  0  0
  193.5970  172.3110  139.0270 C   0  0  0  0  0  0  0  0  0  0  0  0
  193.3900  170.4380  140.6310 C   0  0  2  0  0  3  0  0  0  0  0  0
  190.7400  171.4550  136.6990 C   0  0  0  0  0  2  0  0  0  0  0  0
  190.8620  170.3520  137.6930 C   0  0  0  0  0  0  0  0  0  0  0  0
  192.3620  169.8350  139.7120 C   0  0  0  0  0  0  0  0  0  0  0  0
  197.0810  173.7660  138.8670 S   0  0  0  0  0  0  0  0  0  0  0  0
  195.3680  174.1540  139.2120 C   0  0  0  0  0  0  0  0  0  0  0  0
  196.4210  176.8270  141.2970 O   0  0  0  0  0  1  0  0  0  0  0  0
  197.6000  175.1640  139.9270 C   0  0  0  0  0  2  0  0  0  0  0  0
  195.1880  175.1660  140.0390 C   0  0  0  0  0  3  0  0  0  0  0  0
  196.3960  175.7340  140.5030 N   0  0  0  0  0  0  0  0  0  0  0  0
  192.7610  170.7110  142.0130 C   0  0  0  0  0  3  0  0  0  0  0  0
  193.7980  170.8190  143.1200 C   0  0  0  0  0  2  0  0  0  0  0  0
  192.9630  169.5580  142.9810 C   0  0  0  0  0  2  0  0  0  0  0  0
  189.8610  173.4910  140.2590 C   0  0  0  0  0  2  0  0  0  0  0  0
  189.4260  172.3720  141.1920 C   0  0  0  0  0  2  0  0  0  0  0  0
  189.5240  174.3990  142.6280 C   0  0  0  0  0  2  0  0  0  0  0  0
  189.8720  172.6060  145.0250 C   0  0  0  0  0  2  0  0  0  0  0  0
  190.1430  172.1520  143.5880 C   0  0  0  0  0  2  0  0  0  0  0  0
  189.4210  174.0730  145.1230 C   0  0  0  0  0  2  0  0  0  0  0  0
  189.2380  172.8910  142.6070 C   0  0  2  0  0  3  0  0  0  0  0  0
  189.9820  174.9700  143.9880 C   0  0  1  0  0  0  0  0  0  0  0  0
  193.1340  176.4650  144.5850 C   0  0  1  0  0  3  0  0  0  0  0  0
  193.4260  176.0750  143.1530 C   0  0  0  0  0  2  0  0  0  0  0  0
  192.0650  175.6950  145.0850 O   0  0  0  0  0  0  0  0  0  0  0  0
  192.1330  175.4870  142.7030 C   0  0  0  0  0  2  0  0  0  0  0  0
  191.5350  174.9730  143.9960 C   0  0  2  0  0  3  0  0  0  0  0  0
  194.5610  177.1750  146.4520 C   0  0  0  0  0  2  0  0  0  0  0  0
  194.3540  176.3270  145.4460 C   0  0  0  0  0  0  0  0  0  0  0  0
  195.2340  175.1570  145.2690 C   0  0  0  0  0  0  0  0  0  0  0  0
  196.4650  175.3000  144.6400 O   0  0  0  0  0  0  0  0  0  0  0  0
  194.8790  174.0180  145.6750 O   0  0  0  0  0  1  0  0  0  0  0  0
  189.4540  176.2890  144.0640 O   0  0  0  0  0  0  0  0  0  0  0  0
  188.0840  177.9070  142.9630 C   0  0  0  0  0  2  0  0  0  0  0  0
  187.4500  177.5540  145.3320 C   0  0  0  0  0  1  0  0  0  0  0  0
  187.1670  177.1420  143.8940 C   0  0  2  0  0  3  0  0  0  0  0  0
  188.3410  176.4360  143.2100 C   0  0  2  0  0  3  0  0  0  0  0  0
  1  2  2  0  0  0  0
  1 26  1  0  0  0  0
  3  1  1  0  0  0  0
  4  3  1  0  0  0  0
  5 12  1  0  0  0  0
  5 18  1  0  0  0  0
  6  8  1  0  0  0  0
  6 12  1  0  0  0  0
  7  4  1  1  0  0  0
  7  6  1  0  0  0  0
  8 16  1  0  0  0  0
  9 15  2  0  0  0  0
 10 13  1  0  0  0  0
 12 10  2  0  0  0  0
 13 23  1  1  0  0  0
 14  7  1  0  0  0  0
 14 15  1  0  0  0  0
 15  8  1  0  0  0  0
 16 11  2  0  0  0  0
 16 13  1  0  0  0  0
 17 18  1  0  0  0  0
 17 20  1  0  0  0  0
 18 21  2  0  0  0  0
 20 22  1  0  0  0  0
 21 22  1  0  0  0  0
 22 19  1  0  0  0  0
 23 25  1  0  0  0  0
 23 24  1  0  0  0  0
 25 24  1  0  0  0  0
 26 27  1  0  0  0  0
 28 33  1  0  0  0  0
 29 31  1  0  0  0  0
 30 29  1  0  0  0  0
 32 27  1  6  0  0  0
 32 28  1  0  0  0  0
 32 30  1  0  0  0  0
 33 38  1  0  0  0  0
 33 44  1  1  0  0  0
 33 31  1  0  0  0  0
 34 36  1  0  0  0  0
 34 40  1  1  0  0  0
 35 34  1  0  0  0  0
 37 35  1  0  0  0  0
 38 37  1  6  0  0  0
 38 36  1  0  0  0  0
 40 39  2  0  0  0  0
 41 40  1  0  0  0  0
 41 43  1  0  0  0  0
 42 41  2  0  0  0  0
 45 48  1  0  0  0  0
 45 47  1  0  0  0  0
 47 46  1  1  0  0  0
 48 47  1  0  0  0  0
 48 44  1  1  0  0  0
M  END
>  <MODEL>
9

>  <REMARK>
 VINA RESULT:      -6.5      2.612      5.643
  Name = 
  12 active torsions:
  status: ('A' for Active; 'I' for Inactive)
    1  A    between atoms: N_1  and  C_23
    2  A    between atoms: C_2  and  C_24
    3  A    between atoms: C_3  and  C_35
    4  A    between atoms: C_3  and  C_46
    5  A    between atoms: C_6  and  C_14
    6  A    between atoms: C_7  and  C_24
    7  A    between atoms: C_14  and  N_47
    8  A    between atoms: C_19  and  C_28
    9  A    between atoms: C_35  and  C_38
   10  A    between atoms: C_37  and  C_48
   11  A    between atoms: C_42  and  O_45
   12  A    between atoms: O_45  and  C_48
                            x       y       z     vdW  Elec       q    Type
                         _______ _______ _______ _____ _____    ______ ____

>  <TORSDO>
F 12

$$$$
