=
 OpenBabel11072408343D

 26 30  0  0  1  0  0  0  0  0999 V2000
  191.5640  176.1940  146.3100 C   0  0  0  0  0  2  0  0  0  0  0  0
  190.9380  172.3510  144.0690 S   0  0  0  0  0  0  0  0  0  0  0  0
  188.6490  175.1200  142.0910 C   0  0  0  0  0  0  0  0  0  0  0  0
  189.8640  174.3930  145.5570 C   0  0  1  0  0  3  0  0  0  0  0  0
  189.7570  172.8890  145.3430 C   0  0  0  0  0  2  0  0  0  0  0  0
  191.0890  174.7340  146.4220 C   0  0  0  0  0  2  0  0  0  0  0  0
  190.2170  176.4230  144.2830 N   0  0  0  0  0  0  0  0  0  0  0  0
  189.8580  175.1750  144.2620 C   0  0  0  0  0  0  0  0  0  0  0  0
  189.4740  174.2890  140.0140 O   0  0  0  0  0  0  0  0  0  0  0  0
  190.0020  173.1150  142.6940 C   0  0  1  0  0  3  0  0  0  0  0  0
  189.9600  173.0170  140.3370 C   0  0  0  0  0  2  0  0  0  0  0  0
  189.4860  174.5210  142.9790 C   0  0  0  0  0  0  0  0  0  0  0  0
  188.3170  174.4520  140.7840 C   0  0  0  0  0  2  0  0  0  0  0  0
  190.5860  177.0770  145.5350 C   0  0  0  0  0  2  0  0  0  0  0  0
  190.8370  173.1040  141.4980 N   0  0  0  0  0  2  0  0  0  0  0  0
  186.9010  176.6330  141.5070 O   0  0  0  0  0  0  0  0  0  0  0  0
  188.0290  176.4680  142.3360 C   0  0  1  0  0  3  0  0  0  0  0  0
  186.6410  176.3280  142.8540 C   0  0  1  0  0  3  0  0  0  0  0  0
  185.7780  176.7120  145.9540 C   0  0  0  0  0  1  0  0  0  0  0  0
  186.3900  177.7790  145.0540 C   0  0  1  0  0  3  0  0  0  0  0  0
  186.0570  177.5690  143.5590 C   0  0  2  0  0  3  0  0  0  0  0  0
  184.1130  179.1390  143.7430 C   0  0  0  0  0  2  0  0  0  0  0  0
  185.9110  179.1630  145.4970 C   0  0  0  0  0  2  0  0  0  0  0  0
  184.5580  177.7540  143.2790 C   0  0  1  0  0  3  0  0  0  0  0  0
  184.4160  179.3420  145.2250 C   0  0  0  0  0  2  0  0  0  0  0  0
  184.3000  177.6300  141.9130 O   0  0  0  0  0  1  0  0  0  0  0  0
  1  6  1  0  0  0  0
  2  5  1  0  0  0  0
  3 12  2  0  0  0  0
  4  5  1  6  0  0  0
  4  6  1  0  0  0  0
  7 14  1  0  0  0  0
  8  7  2  0  0  0  0
  8  4  1  0  0  0  0
  9 11  1  0  0  0  0
  9 13  1  0  0  0  0
 10 15  1  6  0  0  0
 10 12  1  0  0  0  0
 10  2  1  0  0  0  0
 11 15  1  0  0  0  0
 12  8  1  0  0  0  0
 13  3  1  0  0  0  0
 14  1  1  0  0  0  0
 16 17  1  0  0  0  0
 17  3  1  6  0  0  0
 17 18  1  0  0  0  0
 18 16  1  6  0  0  0
 20 23  1  0  0  0  0
 20 19  1  1  0  0  0
 21 18  1  1  0  0  0
 21 20  1  0  0  0  0
 22 25  1  0  0  0  0
 24 26  1  6  0  0  0
 24 21  1  0  0  0  0
 24 22  1  0  0  0  0
 25 23  1  0  0  0  0
M  END
>  <MODEL>
1

>  <REMARK>
 VINA RESULT:      -7.3      0.000      0.000
  Name = 
  2 active torsions:
  status: ('A' for Active; 'I' for Inactive)
    1  A    between atoms: C_5  and  C_18
    2  A    between atoms: C_6  and  C_23
                            x       y       z     vdW  Elec       q    Type
                         _______ _______ _______ _____ _____    ______ ____

>  <TORSDO>
F 2

$$$$
=
 OpenBabel11072408343D

 26 30  0  0  1  0  0  0  0  0999 V2000
  184.5940  177.4320  147.0580 C   0  0  0  0  0  2  0  0  0  0  0  0
  184.8110  178.9220  142.8260 S   0  0  0  0  0  0  0  0  0  0  0  0
  188.4140  177.0810  143.4910 C   0  0  0  0  0  0  0  0  0  0  0  0
  185.8080  178.9880  145.3830 C   0  0  1  0  0  3  0  0  0  0  0  0
  185.5190  179.8920  144.1920 C   0  0  0  0  0  2  0  0  0  0  0  0
  184.5150  178.6770  146.1560 C   0  0  0  0  0  2  0  0  0  0  0  0
  186.6130  176.7540  145.8590 N   0  0  0  0  0  0  0  0  0  0  0  0
  186.5480  177.7270  145.0000 C   0  0  0  0  0  0  0  0  0  0  0  0
  188.2330  176.0050  141.3710 O   0  0  0  0  0  0  0  0  0  0  0  0
  186.3870  178.0770  142.4370 C   0  0  1  0  0  3  0  0  0  0  0  0
  187.2940  176.7830  140.6840 C   0  0  0  0  0  2  0  0  0  0  0  0
  187.1610  177.5820  143.6530 C   0  0  0  0  0  0  0  0  0  0  0  0
  188.9970  176.9120  142.1140 C   0  0  0  0  0  2  0  0  0  0  0  0
  186.0140  176.8820  147.1850 C   0  0  0  0  0  2  0  0  0  0  0  0
  186.1130  176.9790  141.5160 N   0  0  0  0  0  2  0  0  0  0  0  0
  189.0850  175.2770  144.8980 O   0  0  0  0  0  0  0  0  0  0  0  0
  189.2760  176.6510  144.6460 C   0  0  1  0  0  3  0  0  0  0  0  0
  190.2650  175.6250  144.2170 C   0  0  1  0  0  3  0  0  0  0  0  0
  193.1030  177.1870  144.2590 C   0  0  0  0  0  1  0  0  0  0  0  0
  192.3530  176.6570  145.4760 C   0  0  1  0  0  3  0  0  0  0  0  0
  191.4760  175.4250  145.1510 C   0  0  2  0  0  3  0  0  0  0  0  0
  193.3160  173.8880  145.8790 C   0  0  0  0  0  2  0  0  0  0  0  0
  193.3490  176.3000  146.5800 C   0  0  0  0  0  2  0  0  0  0  0  0
  192.3270  174.2090  144.7600 C   0  0  1  0  0  3  0  0  0  0  0  0
  194.2020  175.0920  146.1850 C   0  0  0  0  0  2  0  0  0  0  0  0
  191.5130  173.0950  144.5440 O   0  0  0  0  0  1  0  0  0  0  0  0
  1 14  1  0  0  0  0
  2  5  1  0  0  0  0
  3 12  2  0  0  0  0
  4  5  1  6  0  0  0
  4  6  1  0  0  0  0
  6  1  1  0  0  0  0
  7 14  1  0  0  0  0
  8  4  1  0  0  0  0
  8  7  2  0  0  0  0
  9 13  1  0  0  0  0
 10 15  1  6  0  0  0
 10  2  1  0  0  0  0
 10 12  1  0  0  0  0
 11  9  1  0  0  0  0
 11 15  1  0  0  0  0
 12  8  1  0  0  0  0
 13  3  1  0  0  0  0
 17  3  1  6  0  0  0
 17 16  1  0  0  0  0
 18 17  1  0  0  0  0
 18 16  1  1  0  0  0
 20 19  1  6  0  0  0
 20 23  1  0  0  0  0
 21 18  1  6  0  0  0
 21 20  1  0  0  0  0
 22 25  1  0  0  0  0
 24 26  1  1  0  0  0
 24 21  1  0  0  0  0
 24 22  1  0  0  0  0
 25 23  1  0  0  0  0
M  END
>  <MODEL>
2

>  <REMARK>
 VINA RESULT:      -7.2      3.019      6.530
  Name = 
  2 active torsions:
  status: ('A' for Active; 'I' for Inactive)
    1  A    between atoms: C_5  and  C_18
    2  A    between atoms: C_6  and  C_23
                            x       y       z     vdW  Elec       q    Type
                         _______ _______ _______ _____ _____    ______ ____

>  <TORSDO>
F 2

$$$$
=
 OpenBabel11072408343D

 26 30  0  0  1  0  0  0  0  0999 V2000
  190.1440  173.3040  141.5810 C   0  0  0  0  0  2  0  0  0  0  0  0
  193.2850  175.4600  143.9620 S   0  0  0  0  0  0  0  0  0  0  0  0
  189.7650  176.1950  145.9340 C   0  0  0  0  0  0  0  0  0  0  0  0
  190.9960  175.5880  142.4510 C   0  0  1  0  0  3  0  0  0  0  0  0
  192.2950  176.3390  142.7160 C   0  0  0  0  0  2  0  0  0  0  0  0
  191.2440  174.3800  141.5320 C   0  0  0  0  0  2  0  0  0  0  0  0
  189.3170  174.3160  143.6470 N   0  0  0  0  0  0  0  0  0  0  0  0
  190.2770  175.1880  143.7200 C   0  0  0  0  0  0  0  0  0  0  0  0
  190.8490  175.7270  148.0050 O   0  0  0  0  0  0  0  0  0  0  0  0
  192.1680  175.8970  145.3460 C   0  0  1  0  0  3  0  0  0  0  0  0
  192.2090  175.8680  147.7050 C   0  0  0  0  0  2  0  0  0  0  0  0
  190.6830  175.7500  145.0360 C   0  0  0  0  0  0  0  0  0  0  0  0
  190.2010  176.7270  147.2720 C   0  0  0  0  0  2  0  0  0  0  0  0
  188.9090  173.7540  142.3620 C   0  0  0  0  0  2  0  0  0  0  0  0
  192.5340  175.0980  146.5110 N   0  0  0  0  0  2  0  0  0  0  0  0
  187.5890  176.6630  146.7900 O   0  0  0  0  0  0  0  0  0  0  0  0
  188.2850  176.1660  145.6690 C   0  0  1  0  0  3  0  0  0  0  0  0
  187.7130  177.5400  145.6990 C   0  0  1  0  0  3  0  0  0  0  0  0
  187.0140  178.6590  142.7390 C   0  0  0  0  0  1  0  0  0  0  0  0
  186.2650  177.5580  143.4830 C   0  0  1  0  0  3  0  0  0  0  0  0
  186.3390  177.7130  145.0190 C   0  0  2  0  0  3  0  0  0  0  0  0
  184.1450  178.9230  145.0310 C   0  0  0  0  0  2  0  0  0  0  0  0
  184.8020  177.5410  143.0390 C   0  0  0  0  0  2  0  0  0  0  0  0
  185.5980  178.9680  145.5010 C   0  0  1  0  0  3  0  0  0  0  0  0
  184.0660  178.7970  143.5130 C   0  0  0  0  0  2  0  0  0  0  0  0
  185.6200  179.0410  146.8940 O   0  0  0  0  0  1  0  0  0  0  0  0
  1 14  1  0  0  0  0
  3 13  1  0  0  0  0
  4  6  1  1  0  0  0
  4  5  1  0  0  0  0
  4  8  1  0  0  0  0
  5  2  1  0  0  0  0
  6  1  1  0  0  0  0
  7  8  2  0  0  0  0
  8 12  1  0  0  0  0
 10  2  1  6  0  0  0
 10 15  1  0  0  0  0
 11  9  1  0  0  0  0
 12 10  1  0  0  0  0
 12  3  2  0  0  0  0
 13  9  1  0  0  0  0
 14  7  1  0  0  0  0
 15 11  1  0  0  0  0
 17 18  1  0  0  0  0
 17  3  1  1  0  0  0
 17 16  1  0  0  0  0
 18 16  1  1  0  0  0
 20 19  1  6  0  0  0
 20 21  1  0  0  0  0
 21 24  1  0  0  0  0
 21 18  1  6  0  0  0
 22 24  1  0  0  0  0
 23 20  1  0  0  0  0
 23 25  1  0  0  0  0
 24 26  1  1  0  0  0
 25 22  1  0  0  0  0
M  END
>  <MODEL>
3

>  <REMARK>
 VINA RESULT:      -7.1      2.709      4.486
  Name = 
  2 active torsions:
  status: ('A' for Active; 'I' for Inactive)
    1  A    between atoms: C_5  and  C_18
    2  A    between atoms: C_6  and  C_23
                            x       y       z     vdW  Elec       q    Type
                         _______ _______ _______ _____ _____    ______ ____

>  <TORSDO>
F 2

$$$$
=
 OpenBabel11072408343D

 26 30  0  0  1  0  0  0  0  0999 V2000
  184.8490  177.1740  147.2420 C   0  0  0  0  0  2  0  0  0  0  0  0
  184.3780  179.6340  143.5130 S   0  0  0  0  0  0  0  0  0  0  0  0
  187.5820  177.1840  142.7730 C   0  0  0  0  0  0  0  0  0  0  0  0
  185.9330  178.9100  145.6560 C   0  0  1  0  0  3  0  0  0  0  0  0
  185.5660  180.1160  144.8020 C   0  0  0  0  0  2  0  0  0  0  0  0
  184.8190  178.6040  146.6720 C   0  0  0  0  0  2  0  0  0  0  0  0
  186.3520  176.5350  145.4230 N   0  0  0  0  0  0  0  0  0  0  0  0
  186.2900  177.6920  144.8340 C   0  0  0  0  0  0  0  0  0  0  0  0
  186.6970  176.7140  140.6090 O   0  0  0  0  0  0  0  0  0  0  0  0
  185.6140  178.6960  142.5420 C   0  0  1  0  0  3  0  0  0  0  0  0
  185.8040  177.7670  140.3810 C   0  0  0  0  0  2  0  0  0  0  0  0
  186.5300  177.8030  143.3710 C   0  0  0  0  0  0  0  0  0  0  0  0
  187.7820  177.2850  141.2850 C   0  0  0  0  0  2  0  0  0  0  0  0
  186.1160  176.4100  146.8590 C   0  0  0  0  0  2  0  0  0  0  0  0
  184.9140  177.9160  141.5260 N   0  0  0  0  0  2  0  0  0  0  0  0
  189.8460  176.4520  142.9170 O   0  0  0  0  0  0  0  0  0  0  0  0
  188.5810  176.3570  143.5330 C   0  0  1  0  0  3  0  0  0  0  0  0
  189.6670  177.2120  144.0860 C   0  0  1  0  0  3  0  0  0  0  0  0
  189.5860  177.8700  147.2580 C   0  0  0  0  0  1  0  0  0  0  0  0
  189.8380  176.5030  146.6310 C   0  0  1  0  0  3  0  0  0  0  0  0
  190.4920  176.5940  145.2330 C   0  0  2  0  0  3  0  0  0  0  0  0
  192.7650  176.3140  146.2490 C   0  0  0  0  0  2  0  0  0  0  0  0
  190.7210  175.6670  147.5580 C   0  0  0  0  0  2  0  0  0  0  0  0
  191.9150  177.1660  145.3080 C   0  0  1  0  0  3  0  0  0  0  0  0
  192.1370  176.2420  147.6370 C   0  0  0  0  0  2  0  0  0  0  0  0
  192.5060  177.1670  144.0430 O   0  0  0  0  0  1  0  0  0  0  0  0
  2  5  1  0  0  0  0
  3 12  2  0  0  0  0
  4  5  1  6  0  0  0
  4  6  1  0  0  0  0
  6  1  1  0  0  0  0
  7 14  1  0  0  0  0
  8  7  2  0  0  0  0
  8  4  1  0  0  0  0
  9 13  1  0  0  0  0
 10 15  1  6  0  0  0
 10 12  1  0  0  0  0
 10  2  1  0  0  0  0
 11  9  1  0  0  0  0
 11 15  1  0  0  0  0
 12  8  1  0  0  0  0
 13  3  1  0  0  0  0
 14  1  1  0  0  0  0
 16 17  1  0  0  0  0
 17  3  1  6  0  0  0
 17 18  1  0  0  0  0
 18 16  1  6  0  0  0
 20 19  1  1  0  0  0
 20 23  1  0  0  0  0
 21 18  1  6  0  0  0
 21 24  1  0  0  0  0
 21 20  1  0  0  0  0
 22 25  1  0  0  0  0
 23 25  1  0  0  0  0
 24 26  1  6  0  0  0
 24 22  1  0  0  0  0
M  END
>  <MODEL>
4

>  <REMARK>
 VINA RESULT:      -7.0      3.249      6.118
  Name = 
  2 active torsions:
  status: ('A' for Active; 'I' for Inactive)
    1  A    between atoms: C_5  and  C_18
    2  A    between atoms: C_6  and  C_23
                            x       y       z     vdW  Elec       q    Type
                         _______ _______ _______ _____ _____    ______ ____

>  <TORSDO>
F 2

$$$$
=
 OpenBabel11072408343D

 26 30  0  0  1  0  0  0  0  0999 V2000
  185.9300  179.1990  143.1170 C   0  0  0  0  0  2  0  0  0  0  0  0
  186.9130  177.7860  147.2670 S   0  0  0  0  0  0  0  0  0  0  0  0
  189.8090  176.1450  144.8710 C   0  0  0  0  0  0  0  0  0  0  0  0
  186.2100  177.1600  144.6880 C   0  0  1  0  0  3  0  0  0  0  0  0
  185.9560  176.7390  146.1290 C   0  0  0  0  0  2  0  0  0  0  0  0
  185.4070  178.4250  144.3410 C   0  0  0  0  0  2  0  0  0  0  0  0
  188.0200  177.9400  143.2790 N   0  0  0  0  0  0  0  0  0  0  0  0
  187.6790  177.3270  144.3720 C   0  0  0  0  0  0  0  0  0  0  0  0
  191.4630  176.7860  146.4630 O   0  0  0  0  0  0  0  0  0  0  0  0
  188.5200  177.0400  146.8080 C   0  0  1  0  0  3  0  0  0  0  0  0
  190.7290  176.9910  147.6380 C   0  0  0  0  0  2  0  0  0  0  0  0
  188.7210  176.8320  145.3110 C   0  0  0  0  0  0  0  0  0  0  0  0
  190.8650  175.6860  145.8390 C   0  0  0  0  0  2  0  0  0  0  0  0
  187.0070  178.4340  142.3490 C   0  0  0  0  0  2  0  0  0  0  0  0
  189.5910  177.8600  147.3630 N   0  0  0  0  0  2  0  0  0  0  0  0
  191.2830  175.1820  143.2630 O   0  0  0  0  0  0  0  0  0  0  0  0
  190.0360  175.8220  143.4200 C   0  0  1  0  0  3  0  0  0  0  0  0
  190.1500  174.3530  143.2140 C   0  0  1  0  0  3  0  0  0  0  0  0
  187.5140  173.0410  141.8600 C   0  0  0  0  0  1  0  0  0  0  0  0
  188.5160  173.9580  141.1680 C   0  0  1  0  0  3  0  0  0  0  0  0
  189.9370  173.8570  141.7680 C   0  0  2  0  0  3  0  0  0  0  0  0
  190.5860  172.1800  140.0240 C   0  0  0  0  0  2  0  0  0  0  0  0
  188.5660  173.6320  139.6740 C   0  0  0  0  0  2  0  0  0  0  0  0
  190.5620  172.4760  141.5220 C   0  0  1  0  0  3  0  0  0  0  0  0
  189.1820  172.2520  139.4310 C   0  0  0  0  0  2  0  0  0  0  0  0
  191.8700  172.4400  142.0100 O   0  0  0  0  0  1  0  0  0  0  0  0
  1  6  1  0  0  0  0
  3 12  2  0  0  0  0
  3 13  1  0  0  0  0
  4  6  1  1  0  0  0
  4  5  1  0  0  0  0
  5  2  1  0  0  0  0
  7  8  2  0  0  0  0
  8  4  1  0  0  0  0
  8 12  1  0  0  0  0
  9 11  1  0  0  0  0
 10 12  1  6  0  0  0
 10  2  1  0  0  0  0
 10 15  1  0  0  0  0
 13  9  1  0  0  0  0
 14  1  1  0  0  0  0
 14  7  1  0  0  0  0
 15 11  1  0  0  0  0
 16 17  1  0  0  0  0
 17  3  1  1  0  0  0
 18 16  1  6  0  0  0
 18 17  1  0  0  0  0
 20 21  1  0  0  0  0
 20 19  1  1  0  0  0
 21 18  1  1  0  0  0
 22 24  1  0  0  0  0
 23 20  1  0  0  0  0
 24 21  1  0  0  0  0
 24 26  1  6  0  0  0
 25 23  1  0  0  0  0
 25 22  1  0  0  0  0
M  END
>  <MODEL>
5

>  <REMARK>
 VINA RESULT:      -6.8      3.001      6.505
  Name = 
  2 active torsions:
  status: ('A' for Active; 'I' for Inactive)
    1  A    between atoms: C_5  and  C_18
    2  A    between atoms: C_6  and  C_23
                            x       y       z     vdW  Elec       q    Type
                         _______ _______ _______ _____ _____    ______ ____

>  <TORSDO>
F 2

$$$$
=
 OpenBabel11072408343D

 26 30  0  0  1  0  0  0  0  0999 V2000
  193.2690  175.7740  145.3270 C   0  0  0  0  0  2  0  0  0  0  0  0
  191.4660  172.4610  142.8870 S   0  0  0  0  0  0  0  0  0  0  0  0
  188.6950  175.4820  142.7890 C   0  0  0  0  0  0  0  0  0  0  0  0
  191.3090  174.1000  145.0840 C   0  0  1  0  0  3  0  0  0  0  0  0
  191.0280  172.6710  144.6400 C   0  0  0  0  0  2  0  0  0  0  0  0
  192.8110  174.3040  145.3430 C   0  0  0  0  0  2  0  0  0  0  0  0
  191.1620  176.3640  144.2370 N   0  0  0  0  0  0  0  0  0  0  0  0
  190.7610  175.1330  144.1270 C   0  0  0  0  0  0  0  0  0  0  0  0
  188.4330  175.1390  140.4440 O   0  0  0  0  0  0  0  0  0  0  0  0
  190.0530  173.4550  142.2820 C   0  0  1  0  0  3  0  0  0  0  0  0
  188.9370  173.8500  140.2410 C   0  0  0  0  0  2  0  0  0  0  0  0
  189.8080  174.7470  143.0520 C   0  0  0  0  0  0  0  0  0  0  0  0
  187.7650  175.0880  141.6730 C   0  0  0  0  0  2  0  0  0  0  0  0
  192.0990  176.7570  145.2850 C   0  0  0  0  0  2  0  0  0  0  0  0
  190.2500  173.7300  140.8620 N   0  0  0  0  0  2  0  0  0  0  0  0
  187.3870  177.4750  142.8390 O   0  0  0  0  0  0  0  0  0  0  0  0
  188.3350  176.7210  143.5610 C   0  0  1  0  0  3  0  0  0  0  0  0
  186.8900  176.7240  143.9180 C   0  0  1  0  0  3  0  0  0  0  0  0
  186.8690  176.1980  147.1160 C   0  0  0  0  0  1  0  0  0  0  0  0
  187.1930  177.5190  146.4250 C   0  0  1  0  0  3  0  0  0  0  0  0
  186.4810  177.6740  145.0620 C   0  0  2  0  0  3  0  0  0  0  0  0
  184.6140  178.9430  146.1510 C   0  0  0  0  0  2  0  0  0  0  0  0
  186.8120  178.6850  147.3390 C   0  0  0  0  0  2  0  0  0  0  0  0
  184.9570  177.7770  145.2250 C   0  0  1  0  0  3  0  0  0  0  0  0
  185.2940  178.7810  147.5070 C   0  0  0  0  0  2  0  0  0  0  0  0
  184.3490  177.9900  143.9870 O   0  0  0  0  0  1  0  0  0  0  0  0
  1  6  1  0  0  0  0
  2  5  1  0  0  0  0
  3 12  2  0  0  0  0
  4  5  1  6  0  0  0
  4  6  1  0  0  0  0
  7 14  1  0  0  0  0
  8  7  2  0  0  0  0
  8  4  1  0  0  0  0
  9 13  1  0  0  0  0
 10 15  1  6  0  0  0
 10  2  1  0  0  0  0
 10 12  1  0  0  0  0
 11  9  1  0  0  0  0
 11 15  1  0  0  0  0
 12  8  1  0  0  0  0
 13  3  1  0  0  0  0
 14  1  1  0  0  0  0
 16 17  1  0  0  0  0
 17  3  1  6  0  0  0
 17 18  1  0  0  0  0
 18 16  1  6  0  0  0
 20 19  1  1  0  0  0
 20 23  1  0  0  0  0
 21 18  1  6  0  0  0
 21 24  1  0  0  0  0
 21 20  1  0  0  0  0
 22 25  1  0  0  0  0
 23 25  1  0  0  0  0
 24 26  1  6  0  0  0
 24 22  1  0  0  0  0
M  END
>  <MODEL>
6

>  <REMARK>
 VINA RESULT:      -6.8      1.411      1.581
  Name = 
  2 active torsions:
  status: ('A' for Active; 'I' for Inactive)
    1  A    between atoms: C_5  and  C_18
    2  A    between atoms: C_6  and  C_23
                            x       y       z     vdW  Elec       q    Type
                         _______ _______ _______ _____ _____    ______ ____

>  <TORSDO>
F 2

$$$$
=
 OpenBabel11072408343D

 26 30  0  0  1  0  0  0  0  0999 V2000
  187.8750  177.5870  144.9090 C   0  0  0  0  0  2  0  0  0  0  0  0
  190.9010  175.8260  147.7240 S   0  0  0  0  0  0  0  0  0  0  0  0
  192.3790  175.0790  143.9730 C   0  0  0  0  0  0  0  0  0  0  0  0
  189.0800  175.4390  145.7060 C   0  0  1  0  0  3  0  0  0  0  0  0
  189.6100  174.7870  146.9770 C   0  0  0  0  0  2  0  0  0  0  0  0
  188.0970  176.5720  146.0450 C   0  0  0  0  0  2  0  0  0  0  0  0
  189.8800  176.7190  143.8110 N   0  0  0  0  0  0  0  0  0  0  0  0
  190.1810  175.9110  144.7830 C   0  0  0  0  0  0  0  0  0  0  0  0
  194.5350  175.7880  144.7020 O   0  0  0  0  0  0  0  0  0  0  0  0
  192.1350  175.4540  146.4250 C   0  0  1  0  0  3  0  0  0  0  0  0
  194.4590  175.6950  146.0960 C   0  0  0  0  0  2  0  0  0  0  0  0
  191.5910  175.4910  145.0010 C   0  0  0  0  0  0  0  0  0  0  0  0
  193.8120  174.6920  144.2160 C   0  0  0  0  0  2  0  0  0  0  0  0
  188.5000  177.1410  143.5870 C   0  0  0  0  0  2  0  0  0  0  0  0
  193.2600  176.3720  146.5720 N   0  0  0  0  0  2  0  0  0  0  0  0
  192.6560  174.0600  141.8350 O   0  0  0  0  0  0  0  0  0  0  0  0
  191.8910  175.0030  142.5520 C   0  0  1  0  0  3  0  0  0  0  0  0
  191.3760  173.6420  142.2400 C   0  0  1  0  0  3  0  0  0  0  0  0
  188.1420  173.7670  142.0770 C   0  0  0  0  0  1  0  0  0  0  0  0
  189.1150  174.3070  141.0340 C   0  0  1  0  0  3  0  0  0  0  0  0
  190.4550  173.5370  141.0060 C   0  0  2  0  0  3  0  0  0  0  0  0
  189.6100  172.0770  139.1550 C   0  0  0  0  0  2  0  0  0  0  0  0
  188.4660  174.2580  139.6500 C   0  0  0  0  0  2  0  0  0  0  0  0
  190.2690  172.0890  140.5320 C   0  0  1  0  0  3  0  0  0  0  0  0
  188.2740  172.8130  139.1820 C   0  0  0  0  0  2  0  0  0  0  0  0
  191.5030  171.4420  140.4480 O   0  0  0  0  0  1  0  0  0  0  0  0
  1  6  1  0  0  0  0
  3 13  1  0  0  0  0
  3 12  2  0  0  0  0
  4  6  1  1  0  0  0
  4  5  1  0  0  0  0
  5  2  1  0  0  0  0
  7  8  2  0  0  0  0
  8 12  1  0  0  0  0
  8  4  1  0  0  0  0
  9 11  1  0  0  0  0
 10 12  1  6  0  0  0
 10 15  1  0  0  0  0
 10  2  1  0  0  0  0
 11 15  1  0  0  0  0
 13  9  1  0  0  0  0
 14  7  1  0  0  0  0
 14  1  1  0  0  0  0
 16 17  1  0  0  0  0
 17  3  1  1  0  0  0
 18 16  1  6  0  0  0
 18 17  1  0  0  0  0
 20 19  1  1  0  0  0
 21 20  1  0  0  0  0
 21 18  1  1  0  0  0
 22 25  1  0  0  0  0
 22 24  1  0  0  0  0
 23 20  1  0  0  0  0
 24 26  1  6  0  0  0
 24 21  1  0  0  0  0
 25 23  1  0  0  0  0
M  END
>  <MODEL>
7

>  <REMARK>
 VINA RESULT:      -6.8      3.258      6.003
  Name = 
  2 active torsions:
  status: ('A' for Active; 'I' for Inactive)
    1  A    between atoms: C_5  and  C_18
    2  A    between atoms: C_6  and  C_23
                            x       y       z     vdW  Elec       q    Type
                         _______ _______ _______ _____ _____    ______ ____

>  <TORSDO>
F 2

$$$$
=
 OpenBabel11072408343D

 26 30  0  0  1  0  0  0  0  0999 V2000
  192.0470  176.1750  146.0640 C   0  0  0  0  0  2  0  0  0  0  0  0
  191.2260  172.8290  143.1810 S   0  0  0  0  0  0  0  0  0  0  0  0
  188.0750  175.4150  142.7340 C   0  0  0  0  0  0  0  0  0  0  0  0
  190.4440  174.2570  145.3910 C   0  0  1  0  0  3  0  0  0  0  0  0
  190.4700  172.8400  144.8340 C   0  0  0  0  0  2  0  0  0  0  0  0
  191.8290  174.6570  145.9250 C   0  0  0  0  0  2  0  0  0  0  0  0
  190.0900  176.5340  144.6430 N   0  0  0  0  0  0  0  0  0  0  0  0
  189.9120  175.2690  144.4020 C   0  0  0  0  0  0  0  0  0  0  0  0
  188.2730  175.2160  140.3660 O   0  0  0  0  0  0  0  0  0  0  0  0
  189.8000  173.6510  142.3800 C   0  0  1  0  0  3  0  0  0  0  0  0
  189.0000  174.0330  140.1930 C   0  0  0  0  0  2  0  0  0  0  0  0
  189.2280  174.8310  143.1560 C   0  0  0  0  0  0  0  0  0  0  0  0
  187.4220  174.9750  141.4510 C   0  0  0  0  0  2  0  0  0  0  0  0
  190.7620  176.9780  145.8610 C   0  0  0  0  0  2  0  0  0  0  0  0
  190.1900  174.0580  141.0350 N   0  0  0  0  0  2  0  0  0  0  0  0
  186.0690  176.6660  143.0430 O   0  0  0  0  0  0  0  0  0  0  0  0
  187.3990  176.5260  143.4880 C   0  0  1  0  0  3  0  0  0  0  0  0
  186.2460  176.0100  144.2740 C   0  0  1  0  0  3  0  0  0  0  0  0
  185.8090  179.2210  144.3000 C   0  0  0  0  0  1  0  0  0  0  0  0
  184.9590  178.1940  145.0400 C   0  0  1  0  0  3  0  0  0  0  0  0
  185.7490  176.9200  145.4170 C   0  0  2  0  0  3  0  0  0  0  0  0
  186.2240  177.8540  147.6930 C   0  0  0  0  0  2  0  0  0  0  0  0
  184.3710  178.8260  146.3020 C   0  0  0  0  0  2  0  0  0  0  0  0
  186.8440  177.2150  146.4520 C   0  0  1  0  0  3  0  0  0  0  0  0
  185.4640  179.1270  147.3300 C   0  0  0  0  0  2  0  0  0  0  0  0
  187.4900  176.0360  146.8260 O   0  0  0  0  0  1  0  0  0  0  0  0
  2  5  1  0  0  0  0
  3 12  2  0  0  0  0
  4  5  1  6  0  0  0
  4  6  1  0  0  0  0
  6  1  1  0  0  0  0
  7 14  1  0  0  0  0
  8  7  2  0  0  0  0
  8  4  1  0  0  0  0
  9 13  1  0  0  0  0
 10 15  1  6  0  0  0
 10 12  1  0  0  0  0
 10  2  1  0  0  0  0
 11  9  1  0  0  0  0
 11 15  1  0  0  0  0
 12  8  1  0  0  0  0
 13  3  1  0  0  0  0
 14  1  1  0  0  0  0
 16 17  1  0  0  0  0
 17  3  1  6  0  0  0
 17 18  1  0  0  0  0
 18 16  1  6  0  0  0
 20 19  1  1  0  0  0
 20 21  1  0  0  0  0
 20 23  1  0  0  0  0
 21 18  1  6  0  0  0
 21 24  1  0  0  0  0
 23 25  1  0  0  0  0
 24 26  1  1  0  0  0
 24 22  1  0  0  0  0
 25 22  1  0  0  0  0
M  END
>  <MODEL>
8

>  <REMARK>
 VINA RESULT:      -6.6      1.539      2.128
  Name = 
  2 active torsions:
  status: ('A' for Active; 'I' for Inactive)
    1  A    between atoms: C_5  and  C_18
    2  A    between atoms: C_6  and  C_23
                            x       y       z     vdW  Elec       q    Type
                         _______ _______ _______ _____ _____    ______ ____

>  <TORSDO>
F 2

$$$$
=
 OpenBabel11072408343D

 26 30  0  0  1  0  0  0  0  0999 V2000
  190.4190  172.1010  141.1320 C   0  0  0  0  0  2  0  0  0  0  0  0
  193.7550  174.3680  143.1100 S   0  0  0  0  0  0  0  0  0  0  0  0
  190.3550  175.5470  145.0780 C   0  0  0  0  0  0  0  0  0  0  0  0
  191.4190  174.4280  141.6680 C   0  0  1  0  0  3  0  0  0  0  0  0
  192.7630  175.1330  141.7910 C   0  0  0  0  0  2  0  0  0  0  0  0
  191.5690  173.0990  140.9080 C   0  0  0  0  0  2  0  0  0  0  0  0
  189.7240  173.4160  143.0720 N   0  0  0  0  0  0  0  0  0  0  0  0
  190.7300  174.2350  143.0000 C   0  0  0  0  0  0  0  0  0  0  0  0
  191.4930  175.2910  147.1580 O   0  0  0  0  0  0  0  0  0  0  0  0
  192.7160  175.0420  144.4590 C   0  0  1  0  0  3  0  0  0  0  0  0
  192.8460  175.3160  146.7990 C   0  0  0  0  0  2  0  0  0  0  0  0
  191.2140  174.9400  144.2180 C   0  0  0  0  0  0  0  0  0  0  0  0
  190.8690  176.2220  146.3210 C   0  0  0  0  0  2  0  0  0  0  0  0
  189.2400  172.7160  141.8860 C   0  0  0  0  0  2  0  0  0  0  0  0
  193.0850  174.3810  145.7060 N   0  0  0  0  0  2  0  0  0  0  0  0
  188.2150  175.8820  146.0760 O   0  0  0  0  0  0  0  0  0  0  0  0
  188.8660  175.5670  144.8660 C   0  0  1  0  0  3  0  0  0  0  0  0
  188.3100  176.9200  145.1340 C   0  0  1  0  0  3  0  0  0  0  0  0
  187.5210  178.4180  142.3710 C   0  0  0  0  0  1  0  0  0  0  0  0
  186.7760  177.2470  143.0010 C   0  0  1  0  0  3  0  0  0  0  0  0
  186.9140  177.2040  144.5400 C   0  0  2  0  0  3  0  0  0  0  0  0
  184.7530  178.4450  144.7980 C   0  0  0  0  0  2  0  0  0  0  0  0
  185.2950  177.3140  142.6210 C   0  0  0  0  0  2  0  0  0  0  0  0
  186.2240  178.4030  145.2070 C   0  0  1  0  0  3  0  0  0  0  0  0
  184.6100  178.5130  143.2800 C   0  0  0  0  0  2  0  0  0  0  0  0
  186.3030  178.2980  146.5970 O   0  0  0  0  0  1  0  0  0  0  0  0
  1 14  1  0  0  0  0
  3 13  1  0  0  0  0
  4  6  1  1  0  0  0
  4  5  1  0  0  0  0
  4  8  1  0  0  0  0
  5  2  1  0  0  0  0
  6  1  1  0  0  0  0
  8  7  2  0  0  0  0
  8 12  1  0  0  0  0
 10  2  1  6  0  0  0
 10 15  1  0  0  0  0
 11  9  1  0  0  0  0
 12 10  1  0  0  0  0
 12  3  2  0  0  0  0
 13  9  1  0  0  0  0
 14  7  1  0  0  0  0
 15 11  1  0  0  0  0
 17  3  1  1  0  0  0
 17 18  1  0  0  0  0
 17 16  1  0  0  0  0
 18 16  1  1  0  0  0
 20 19  1  1  0  0  0
 20 21  1  0  0  0  0
 21 18  1  6  0  0  0
 21 24  1  0  0  0  0
 22 24  1  0  0  0  0
 23 20  1  0  0  0  0
 23 25  1  0  0  0  0
 24 26  1  1  0  0  0
 25 22  1  0  0  0  0
M  END
>  <MODEL>
9

>  <REMARK>
 VINA RESULT:      -6.4      2.687      4.416
  Name = 
  2 active torsions:
  status: ('A' for Active; 'I' for Inactive)
    1  A    between atoms: C_5  and  C_18
    2  A    between atoms: C_6  and  C_23
                            x       y       z     vdW  Elec       q    Type
                         _______ _______ _______ _____ _____    ______ ____

>  <TORSDO>
F 2

$$$$
