=
 OpenBabel11062418513D

 37 39  0  0  1  0  0  0  0  0999 V2000
  191.6510  176.3190  146.9590 C   0  0  0  0  0  0  0  0  0  0  0  0
  191.4640  175.8590  145.5420 C   0  0  2  0  0  3  0  0  0  0  0  0
  190.6960  176.3430  147.7830 O   0  0  0  0  0  0  0  0  0  0  0  0
  194.0920  176.4610  146.4920 C   0  0  0  0  0  2  0  0  0  0  0  0
  192.3080  176.7410  144.6210 C   0  0  0  0  0  2  0  0  0  0  0  0
  193.7940  176.8130  145.0210 C   0  0  2  0  0  3  0  0  0  0  0  0
  192.9550  176.7350  147.3640 N   0  0  0  0  0  2  0  0  0  0  0  0
  190.0100  175.7990  145.0710 C   0  0  0  0  0  2  0  0  0  0  0  0
  189.6430  176.9490  144.1300 C   0  0  0  0  0  2  0  0  0  0  0  0
  188.4140  177.7140  144.6220 C   0  0  2  0  0  3  0  0  0  0  0  0
  186.2350  177.1990  147.4740 O   0  0  0  0  0  1  0  0  0  0  0  0
  186.7150  177.8250  146.3210 C   0  0  1  0  0  3  0  0  0  0  0  0
  187.9540  177.1680  145.9040 N   0  0  0  0  0  2  0  0  0  0  0  0
  186.1870  178.4230  144.0610 O   0  0  0  0  0  0  0  0  0  0  0  0
  187.2780  177.6770  143.5860 C   0  0  1  0  0  3  0  0  0  0  0  0
  185.6770  177.7530  145.1870 C   0  0  2  0  0  3  0  0  0  0  0  0
  184.3780  178.4340  145.5990 C   0  0  0  0  0  2  0  0  0  0  0  0
  183.7530  178.9930  144.4800 O   0  0  0  0  0  1  0  0  0  0  0  0
  187.7180  178.2340  142.3860 O   0  0  0  0  0  0  0  0  0  0  0  0
  186.6680  178.0360  141.4880 C   0  0  0  0  0  1  0  0  0  0  0  0
  194.6000  175.9220  144.0850 C   0  0  0  0  0  2  0  0  0  0  0  0
  192.8870  172.6620  142.8770 C   0  0  0  0  0  2  0  0  0  0  0  0
  193.7410  175.0010  143.3430 N   0  0  0  0  0  0  0  0  0  0  0  0
  193.9430  173.2770  144.9240 O   0  0  0  0  0  0  0  0  0  0  0  0
  193.5280  173.6550  143.7930 C   0  0  0  0  0  0  0  0  0  0  0  0
  193.2160  175.4310  142.0830 C   0  0  0  0  0  3  0  0  0  0  0  0
  191.8960  173.3320  141.9050 C   0  0  2  0  0  3  0  0  0  0  0  0
  192.3780  174.6610  141.3880 C   0  0  0  0  0  3  0  0  0  0  0  0
  190.4490  173.4210  142.4320 C   0  0  2  0  0  3  0  0  0  0  0  0
  189.8940  171.0800  142.3520 O   0  0  0  0  0  0  0  0  0  0  0  0
  189.9270  172.1440  143.0270 C   0  0  0  0  0  0  0  0  0  0  0  0
  189.5510  172.1210  144.3630 O   0  0  0  0  0  1  0  0  0  0  0  0
  188.0770  174.2950  142.1080 C   0  0  0  0  0  1  0  0  0  0  0  0
  189.4530  174.1220  141.4880 C   0  0  2  0  0  3  0  0  0  0  0  0
  189.3130  173.3740  140.1710 C   0  0  0  0  0  2  0  0  0  0  0  0
  188.3060  173.9470  139.3870 O   0  0  0  0  0  0  0  0  0  0  0  0
  188.7670  173.8070  138.0760 C   0  0  0  0  0  1  0  0  0  0  0  0
  1  7  1  0  0  0  0
  1  3  2  0  0  0  0
  2  8  1  6  0  0  0
  2  1  1  0  0  0  0
  4  7  1  0  0  0  0
  5  6  1  0  0  0  0
  5  2  1  0  0  0  0
  6 21  1  6  0  0  0
  6  4  1  0  0  0  0
  9  8  1  0  0  0  0
 10  9  1  6  0  0  0
 10 13  1  0  0  0  0
 12 11  1  1  0  0  0
 13 12  1  0  0  0  0
 14 16  1  0  0  0  0
 15 19  1  6  0  0  0
 15 14  1  0  0  0  0
 15 10  1  0  0  0  0
 16 17  1  1  0  0  0
 16 12  1  0  0  0  0
 18 17  1  0  0  0  0
 20 19  1  0  0  0  0
 22 25  1  0  0  0  0
 23 25  1  0  0  0  0
 23 21  1  0  0  0  0
 25 24  2  0  0  0  0
 26 23  1  0  0  0  0
 27 29  1  1  0  0  0
 27 22  1  0  0  0  0
 28 27  1  0  0  0  0
 28 26  2  0  0  0  0
 29 31  1  6  0  0  0
 30 31  2  0  0  0  0
 31 32  1  0  0  0  0
 34 33  1  1  0  0  0
 34 29  1  0  0  0  0
 35 34  1  0  0  0  0
 36 35  1  0  0  0  0
 37 36  1  0  0  0  0
M  END
>  <MODEL>
1

>  <REMARK>
 VINA RESULT:      -6.2      0.000      0.000
  Name = 
  12 active torsions:
  status: ('A' for Active; 'I' for Inactive)
    1  A    between atoms: C_2  and  C_11
    2  A    between atoms: O_4  and  C_5
    3  A    between atoms: C_5  and  C_16
    4  A    between atoms: C_6  and  C_36
    5  A    between atoms: O_10  and  C_33
    6  A    between atoms: C_11  and  C_21
    7  A    between atoms: C_12  and  C_21
    8  A    between atoms: N_15  and  C_18
    9  A    between atoms: C_16  and  C_20
   10  A    between atoms: C_18  and  C_28
   11  A    between atoms: C_20  and  C_32
   12  A    between atoms: C_20  and  C_35
                            x       y       z     vdW  Elec       q    Type
                         _______ _______ _______ _____ _____    ______ ____

>  <TORSDO>
F 12

$$$$
=
 OpenBabel11062418513D

 37 39  0  0  1  0  0  0  0  0999 V2000
  193.5170  174.6920  143.9430 C   0  0  0  0  0  0  0  0  0  0  0  0
  192.3490  174.1990  144.7480 C   0  0  2  0  0  3  0  0  0  0  0  0
  193.9360  174.0710  142.9280 O   0  0  0  0  0  0  0  0  0  0  0  0
  193.5110  176.7380  145.3610 C   0  0  0  0  0  2  0  0  0  0  0  0
  192.6300  174.4510  146.2300 C   0  0  0  0  0  2  0  0  0  0  0  0
  192.9870  175.9140  146.5540 C   0  0  2  0  0  3  0  0  0  0  0  0
  194.1560  175.9010  144.3550 N   0  0  0  0  0  2  0  0  0  0  0  0
  191.9650  172.7400  144.4980 C   0  0  0  0  0  2  0  0  0  0  0  0
  190.5060  172.5760  144.0660 C   0  0  0  0  0  2  0  0  0  0  0  0
  190.3110  172.9070  142.5860 C   0  0  2  0  0  3  0  0  0  0  0  0
  188.2260  175.3610  140.9200 O   0  0  0  0  0  1  0  0  0  0  0  0
  189.1590  174.3270  141.0230 C   0  0  1  0  0  3  0  0  0  0  0  0
  189.4350  174.0760  142.4380 N   0  0  0  0  0  2  0  0  0  0  0  0
  189.6120  172.0430  140.4550 O   0  0  0  0  0  0  0  0  0  0  0  0
  189.7380  171.7080  141.8130 C   0  0  1  0  0  3  0  0  0  0  0  0
  188.6290  173.0440  140.3580 C   0  0  2  0  0  3  0  0  0  0  0  0
  188.3370  173.2830  138.8820 C   0  0  0  0  0  2  0  0  0  0  0  0
  189.5230  173.5710  138.1980 O   0  0  0  0  0  1  0  0  0  0  0  0
  190.5990  170.6170  141.9320 O   0  0  0  0  0  0  0  0  0  0  0  0
  191.5200  170.7690  140.8950 C   0  0  0  0  0  1  0  0  0  0  0  0
  191.7730  176.5920  147.1790 C   0  0  0  0  0  2  0  0  0  0  0  0
  188.5130  175.6060  145.3300 C   0  0  0  0  0  2  0  0  0  0  0  0
  190.6400  176.6240  146.2560 N   0  0  0  0  0  0  0  0  0  0  0  0
  189.3900  175.0560  147.4770 O   0  0  0  0  0  0  0  0  0  0  0  0
  189.5120  175.7550  146.4330 C   0  0  0  0  0  0  0  0  0  0  0  0
  190.7360  177.4520  145.0930 C   0  0  0  0  0  3  0  0  0  0  0  0
  188.3920  176.8900  144.4870 C   0  0  2  0  0  3  0  0  0  0  0  0
  189.7130  177.5700  144.2460 C   0  0  0  0  0  3  0  0  0  0  0  0
  187.3280  177.8870  144.9920 C   0  0  2  0  0  3  0  0  0  0  0  0
  187.1660  177.9980  147.3920 O   0  0  0  0  0  1  0  0  0  0  0  0
  186.7160  177.5200  146.3160 C   0  0  0  0  0  0  0  0  0  0  0  0
  185.5920  176.7060  146.3420 O   0  0  0  0  0  0  0  0  0  0  0  0
  186.8960  178.4260  142.5400 C   0  0  0  0  0  1  0  0  0  0  0  0
  186.3030  178.3390  143.9360 C   0  0  2  0  0  3  0  0  0  0  0  0
  185.6860  179.6820  144.2970 C   0  0  0  0  0  2  0  0  0  0  0  0
  184.4010  179.5060  144.8200 O   0  0  0  0  0  0  0  0  0  0  0  0
  183.7050  178.8390  143.8080 C   0  0  0  0  0  1  0  0  0  0  0  0
  1  7  1  0  0  0  0
  1  2  1  0  0  0  0
  2  8  1  1  0  0  0
  2  5  1  0  0  0  0
  3  1  2  0  0  0  0
  4  6  1  0  0  0  0
  5  6  1  0  0  0  0
  6 21  1  6  0  0  0
  7  4  1  0  0  0  0
  9  8  1  0  0  0  0
 10  9  1  1  0  0  0
 12 11  1  1  0  0  0
 12 13  1  0  0  0  0
 13 10  1  0  0  0  0
 14 15  1  0  0  0  0
 15 19  1  6  0  0  0
 15 10  1  0  0  0  0
 16 17  1  6  0  0  0
 16 14  1  0  0  0  0
 16 12  1  0  0  0  0
 18 17  1  0  0  0  0
 20 19  1  0  0  0  0
 22 25  1  0  0  0  0
 23 25  1  0  0  0  0
 23 21  1  0  0  0  0
 25 24  2  0  0  0  0
 26 23  1  0  0  0  0
 27 29  1  1  0  0  0
 27 22  1  0  0  0  0
 28 27  1  0  0  0  0
 28 26  2  0  0  0  0
 29 31  1  1  0  0  0
 31 32  2  0  0  0  0
 31 30  1  0  0  0  0
 34 33  1  6  0  0  0
 34 35  1  0  0  0  0
 34 29  1  0  0  0  0
 35 36  1  0  0  0  0
 37 36  1  0  0  0  0
M  END
>  <MODEL>
2

>  <REMARK>
 VINA RESULT:      -6.2      1.667      6.281
  Name = 
  12 active torsions:
  status: ('A' for Active; 'I' for Inactive)
    1  A    between atoms: C_2  and  C_11
    2  A    between atoms: O_4  and  C_5
    3  A    between atoms: C_5  and  C_16
    4  A    between atoms: C_6  and  C_36
    5  A    between atoms: O_10  and  C_33
    6  A    between atoms: C_11  and  C_21
    7  A    between atoms: C_12  and  C_21
    8  A    between atoms: N_15  and  C_18
    9  A    between atoms: C_16  and  C_20
   10  A    between atoms: C_18  and  C_28
   11  A    between atoms: C_20  and  C_32
   12  A    between atoms: C_20  and  C_35
                            x       y       z     vdW  Elec       q    Type
                         _______ _______ _______ _____ _____    ______ ____

>  <TORSDO>
F 12

$$$$
=
 OpenBabel11062418513D

 37 39  0  0  1  0  0  0  0  0999 V2000
  189.8280  175.3130  146.8020 C   0  0  0  0  0  0  0  0  0  0  0  0
  190.1410  175.3380  145.3340 C   0  0  2  0  0  3  0  0  0  0  0  0
  188.6650  175.0750  147.2310 O   0  0  0  0  0  0  0  0  0  0  0  0
  192.2650  175.5820  147.2320 C   0  0  0  0  0  2  0  0  0  0  0  0
  191.1380  176.4650  145.0620 C   0  0  0  0  0  2  0  0  0  0  0  0
  192.4080  176.3940  145.9290 C   0  0  2  0  0  3  0  0  0  0  0  0
  190.8900  175.5660  147.7210 N   0  0  0  0  0  2  0  0  0  0  0  0
  188.9210  175.4440  144.4170 C   0  0  0  0  0  2  0  0  0  0  0  0
  189.1130  176.4590  143.2880 C   0  0  0  0  0  2  0  0  0  0  0  0
  187.9180  177.4050  143.1660 C   0  0  2  0  0  3  0  0  0  0  0  0
  185.6700  178.7820  145.6540 O   0  0  0  0  0  1  0  0  0  0  0  0
  186.2000  178.5710  144.3800 C   0  0  1  0  0  3  0  0  0  0  0  0
  187.4100  177.7560  144.4970 N   0  0  0  0  0  2  0  0  0  0  0  0
  185.7390  177.7010  142.1940 O   0  0  0  0  0  0  0  0  0  0  0  0
  186.7980  176.7860  142.3120 C   0  0  1  0  0  3  0  0  0  0  0  0
  185.1770  177.8620  143.4730 C   0  0  2  0  0  3  0  0  0  0  0  0
  183.9090  178.6940  143.3350 C   0  0  0  0  0  2  0  0  0  0  0  0
  183.1890  178.2870  142.2070 O   0  0  0  0  0  1  0  0  0  0  0  0
  187.2860  176.4920  141.0390 O   0  0  0  0  0  0  0  0  0  0  0  0
  186.6130  177.3640  140.1830 C   0  0  0  0  0  1  0  0  0  0  0  0
  193.5530  175.8480  145.0840 C   0  0  0  0  0  2  0  0  0  0  0  0
  192.7880  172.6570  143.0220 C   0  0  0  0  0  2  0  0  0  0  0  0
  193.0680  174.9670  144.0240 N   0  0  0  0  0  0  0  0  0  0  0  0
  193.2230  173.0270  145.3360 O   0  0  0  0  0  0  0  0  0  0  0  0
  193.0120  173.5440  144.2050 C   0  0  0  0  0  0  0  0  0  0  0  0
  192.7700  175.5430  142.7480 C   0  0  0  0  0  3  0  0  0  0  0  0
  191.9350  173.3460  141.9390 C   0  0  2  0  0  3  0  0  0  0  0  0
  192.2680  174.8030  141.7590 C   0  0  0  0  0  3  0  0  0  0  0  0
  190.4160  173.1270  142.0890 C   0  0  2  0  0  3  0  0  0  0  0  0
  189.4540  171.8770  143.9080 O   0  0  0  0  0  1  0  0  0  0  0  0
  190.0410  171.8530  142.7930 C   0  0  0  0  0  0  0  0  0  0  0  0
  190.2760  170.6370  142.1670 O   0  0  0  0  0  0  0  0  0  0  0  0
  188.1120  173.0950  141.0010 C   0  0  0  0  0  1  0  0  0  0  0  0
  189.5880  173.4050  140.8200 C   0  0  2  0  0  3  0  0  0  0  0  0
  190.1160  172.6230  139.6270 C   0  0  0  0  0  2  0  0  0  0  0  0
  189.1010  171.8420  139.0660 O   0  0  0  0  0  0  0  0  0  0  0  0
  189.7810  170.8210  138.3970 C   0  0  0  0  0  1  0  0  0  0  0  0
  1  3  2  0  0  0  0
  1  7  1  0  0  0  0
  2  8  1  6  0  0  0
  2  1  1  0  0  0  0
  4  7  1  0  0  0  0
  5  2  1  0  0  0  0
  5  6  1  0  0  0  0
  6 21  1  6  0  0  0
  6  4  1  0  0  0  0
  9  8  1  0  0  0  0
 10  9  1  1  0  0  0
 10 13  1  0  0  0  0
 12 13  1  0  0  0  0
 12 11  1  1  0  0  0
 14 15  1  0  0  0  0
 14 16  1  0  0  0  0
 15 19  1  6  0  0  0
 15 10  1  0  0  0  0
 16 17  1  6  0  0  0
 16 12  1  0  0  0  0
 18 17  1  0  0  0  0
 20 19  1  0  0  0  0
 22 25  1  0  0  0  0
 23 25  1  0  0  0  0
 23 21  1  0  0  0  0
 25 24  2  0  0  0  0
 26 23  1  0  0  0  0
 27 29  1  1  0  0  0
 27 22  1  0  0  0  0
 28 27  1  0  0  0  0
 28 26  2  0  0  0  0
 29 31  1  6  0  0  0
 31 30  1  0  0  0  0
 32 31  2  0  0  0  0
 34 33  1  1  0  0  0
 34 29  1  0  0  0  0
 35 34  1  0  0  0  0
 36 35  1  0  0  0  0
 37 36  1  0  0  0  0
M  END
>  <MODEL>
3

>  <REMARK>
 VINA RESULT:      -6.2      1.486      1.736
  Name = 
  12 active torsions:
  status: ('A' for Active; 'I' for Inactive)
    1  A    between atoms: C_2  and  C_11
    2  A    between atoms: O_4  and  C_5
    3  A    between atoms: C_5  and  C_16
    4  A    between atoms: C_6  and  C_36
    5  A    between atoms: O_10  and  C_33
    6  A    between atoms: C_11  and  C_21
    7  A    between atoms: C_12  and  C_21
    8  A    between atoms: N_15  and  C_18
    9  A    between atoms: C_16  and  C_20
   10  A    between atoms: C_18  and  C_28
   11  A    between atoms: C_20  and  C_32
   12  A    between atoms: C_20  and  C_35
                            x       y       z     vdW  Elec       q    Type
                         _______ _______ _______ _____ _____    ______ ____

>  <TORSDO>
F 12

$$$$
=
 OpenBabel11062418513D

 37 39  0  0  1  0  0  0  0  0999 V2000
  185.7590  177.6580  144.1840 C   0  0  0  0  0  0  0  0  0  0  0  0
  186.6000  176.4310  143.9750 C   0  0  2  0  0  3  0  0  0  0  0  0
  184.9030  178.0300  143.3360 O   0  0  0  0  0  0  0  0  0  0  0  0
  186.7470  177.8320  146.4620 C   0  0  0  0  0  2  0  0  0  0  0  0
  188.0130  176.7080  144.4890 C   0  0  0  0  0  2  0  0  0  0  0  0
  188.0580  177.2050  145.9460 C   0  0  2  0  0  3  0  0  0  0  0  0
  185.9500  178.4070  145.3830 N   0  0  0  0  0  2  0  0  0  0  0  0
  186.6260  175.9060  142.5380 C   0  0  0  0  0  2  0  0  0  0  0  0
  188.0470  175.7390  141.9930 C   0  0  0  0  0  2  0  0  0  0  0  0
  188.3190  174.3010  141.5510 C   0  0  2  0  0  3  0  0  0  0  0  0
  190.5040  171.7390  142.8940 O   0  0  0  0  0  1  0  0  0  0  0  0
  189.5590  172.2970  142.0290 C   0  0  1  0  0  3  0  0  0  0  0  0
  189.2090  173.6340  142.5080 N   0  0  0  0  0  2  0  0  0  0  0  0
  189.1200  172.9160  139.7560 O   0  0  0  0  0  0  0  0  0  0  0  0
  188.9230  174.2530  140.1370 C   0  0  1  0  0  3  0  0  0  0  0  0
  190.1130  172.3820  140.5960 C   0  0  2  0  0  3  0  0  0  0  0  0
  190.4820  170.9980  140.0760 C   0  0  0  0  0  2  0  0  0  0  0  0
  189.7960  170.7340  138.8860 O   0  0  0  0  0  1  0  0  0  0  0  0
  188.0490  174.8570  139.2330 O   0  0  0  0  0  0  0  0  0  0  0  0
  188.1900  174.1290  138.0510 C   0  0  0  0  0  1  0  0  0  0  0  0
  188.4900  176.0550  146.8470 C   0  0  0  0  0  2  0  0  0  0  0  0
  191.9360  174.3300  146.4390 C   0  0  0  0  0  2  0  0  0  0  0  0
  189.9350  175.8430  146.7940 N   0  0  0  0  0  0  0  0  0  0  0  0
  189.7610  173.8260  145.6050 O   0  0  0  0  0  0  0  0  0  0  0  0
  190.4910  174.6490  146.2230 C   0  0  0  0  0  0  0  0  0  0  0  0
  190.7830  176.7940  147.4430 C   0  0  0  0  0  3  0  0  0  0  0  0
  192.7910  175.6050  146.5840 C   0  0  2  0  0  3  0  0  0  0  0  0
  192.1110  176.6880  147.3790 C   0  0  0  0  0  3  0  0  0  0  0  0
  193.3560  176.1490  145.2560 C   0  0  2  0  0  3  0  0  0  0  0  0
  192.2870  175.2320  143.3030 O   0  0  0  0  0  0  0  0  0  0  0  0
  192.3620  176.1810  144.1280 C   0  0  0  0  0  0  0  0  0  0  0  0
  191.4650  177.2370  144.0450 O   0  0  0  0  0  1  0  0  0  0  0  0
  195.4620  174.9320  146.0160 C   0  0  0  0  0  1  0  0  0  0  0  0
  194.7350  175.5910  144.8560 C   0  0  2  0  0  3  0  0  0  0  0  0
  195.6240  176.6750  144.2650 C   0  0  0  0  0  2  0  0  0  0  0  0
  195.8880  176.4100  142.9170 O   0  0  0  0  0  0  0  0  0  0  0  0
  197.2340  176.0380  142.8960 C   0  0  0  0  0  1  0  0  0  0  0  0
  1  7  1  0  0  0  0
  2  8  1  6  0  0  0
  2  1  1  0  0  0  0
  2  5  1  0  0  0  0
  3  1  2  0  0  0  0
  5  6  1  0  0  0  0
  6  4  1  0  0  0  0
  6 21  1  1  0  0  0
  7  4  1  0  0  0  0
  9  8  1  0  0  0  0
 10  9  1  1  0  0  0
 10 13  1  0  0  0  0
 12 13  1  0  0  0  0
 12 11  1  1  0  0  0
 14 15  1  0  0  0  0
 14 16  1  0  0  0  0
 15 19  1  6  0  0  0
 15 10  1  0  0  0  0
 16 17  1  6  0  0  0
 16 12  1  0  0  0  0
 18 17  1  0  0  0  0
 20 19  1  0  0  0  0
 22 27  1  0  0  0  0
 23 21  1  0  0  0  0
 23 26  1  0  0  0  0
 24 25  2  0  0  0  0
 25 22  1  0  0  0  0
 25 23  1  0  0  0  0
 27 29  1  6  0  0  0
 27 28  1  0  0  0  0
 28 26  2  0  0  0  0
 29 31  1  6  0  0  0
 30 31  2  0  0  0  0
 32 31  1  0  0  0  0
 34 29  1  0  0  0  0
 34 33  1  1  0  0  0
 35 34  1  0  0  0  0
 36 35  1  0  0  0  0
 37 36  1  0  0  0  0
M  END
>  <MODEL>
4

>  <REMARK>
 VINA RESULT:      -6.2      2.165      6.651
  Name = 
  12 active torsions:
  status: ('A' for Active; 'I' for Inactive)
    1  A    between atoms: C_2  and  C_11
    2  A    between atoms: O_4  and  C_5
    3  A    between atoms: C_5  and  C_16
    4  A    between atoms: C_6  and  C_36
    5  A    between atoms: O_10  and  C_33
    6  A    between atoms: C_11  and  C_21
    7  A    between atoms: C_12  and  C_21
    8  A    between atoms: N_15  and  C_18
    9  A    between atoms: C_16  and  C_20
   10  A    between atoms: C_18  and  C_28
   11  A    between atoms: C_20  and  C_32
   12  A    between atoms: C_20  and  C_35
                            x       y       z     vdW  Elec       q    Type
                         _______ _______ _______ _____ _____    ______ ____

>  <TORSDO>
F 12

$$$$
=
 OpenBabel11062418513D

 37 39  0  0  1  0  0  0  0  0999 V2000
  191.4180  176.2930  146.8130 C   0  0  0  0  0  0  0  0  0  0  0  0
  191.2980  175.8930  145.3710 C   0  0  2  0  0  3  0  0  0  0  0  0
  190.4270  176.2740  147.5930 O   0  0  0  0  0  0  0  0  0  0  0  0
  193.8770  176.4700  146.4630 C   0  0  0  0  0  2  0  0  0  0  0  0
  192.1750  176.8210  144.5280 C   0  0  0  0  0  2  0  0  0  0  0  0
  193.6410  176.8850  144.9960 C   0  0  2  0  0  3  0  0  0  0  0  0
  192.6990  176.6990  147.2940 N   0  0  0  0  0  2  0  0  0  0  0  0
  189.8670  175.8450  144.8330 C   0  0  0  0  0  2  0  0  0  0  0  0
  189.3810  177.2010  144.3160 C   0  0  0  0  0  2  0  0  0  0  0  0
  188.0290  177.0880  143.6120 C   0  0  2  0  0  3  0  0  0  0  0  0
  187.0590  177.6170  140.1590 O   0  0  0  0  0  1  0  0  0  0  0  0
  186.8840  177.2940  141.5070 C   0  0  1  0  0  3  0  0  0  0  0  0
  188.1900  177.2920  142.1670 N   0  0  0  0  0  2  0  0  0  0  0  0
  185.7770  177.9250  143.5360 O   0  0  0  0  0  0  0  0  0  0  0  0
  187.0120  178.0910  144.1840 C   0  0  1  0  0  3  0  0  0  0  0  0
  185.9510  178.3070  142.1940 C   0  0  2  0  0  3  0  0  0  0  0  0
  184.5840  178.3240  141.5220 C   0  0  0  0  0  2  0  0  0  0  0  0
  183.5760  178.1930  142.4830 O   0  0  0  0  0  1  0  0  0  0  0  0
  186.8420  177.8590  145.5480 O   0  0  0  0  0  0  0  0  0  0  0  0
  185.8790  176.8530  145.6280 C   0  0  0  0  0  1  0  0  0  0  0  0
  194.4960  176.0400  144.0600 C   0  0  0  0  0  2  0  0  0  0  0  0
  192.9630  172.6830  142.8760 C   0  0  0  0  0  2  0  0  0  0  0  0
  193.6900  175.0690  143.3230 N   0  0  0  0  0  0  0  0  0  0  0  0
  193.9740  173.3730  144.9220 O   0  0  0  0  0  0  0  0  0  0  0  0
  193.5460  173.7180  143.7860 C   0  0  0  0  0  0  0  0  0  0  0  0
  193.1510  175.4580  142.0570 C   0  0  0  0  0  3  0  0  0  0  0  0
  191.9440  173.2910  141.8930 C   0  0  2  0  0  3  0  0  0  0  0  0
  192.3590  174.6380  141.3650 C   0  0  0  0  0  3  0  0  0  0  0  0
  190.4910  173.3090  142.4110 C   0  0  2  0  0  3  0  0  0  0  0  0
  190.0680  170.9400  142.5000 O   0  0  0  0  0  0  0  0  0  0  0  0
  190.0660  172.0460  143.1060 C   0  0  0  0  0  0  0  0  0  0  0  0
  189.7420  172.0900  144.4550 O   0  0  0  0  0  1  0  0  0  0  0  0
  188.0260  173.7470  141.9350 C   0  0  0  0  0  1  0  0  0  0  0  0
  189.4500  173.8540  141.4150 C   0  0  2  0  0  3  0  0  0  0  0  0
  189.5410  173.1470  140.0710 C   0  0  0  0  0  2  0  0  0  0  0  0
  188.2640  172.8350  139.5940 O   0  0  0  0  0  0  0  0  0  0  0  0
  188.2860  173.2410  138.2580 C   0  0  0  0  0  1  0  0  0  0  0  0
  1  7  1  0  0  0  0
  1  3  2  0  0  0  0
  2  8  1  6  0  0  0
  2  1  1  0  0  0  0
  4  7  1  0  0  0  0
  5  6  1  0  0  0  0
  5  2  1  0  0  0  0
  6 21  1  6  0  0  0
  6  4  1  0  0  0  0
  9  8  1  0  0  0  0
 10 15  1  0  0  0  0
 10  9  1  1  0  0  0
 12 11  1  6  0  0  0
 12 13  1  0  0  0  0
 12 16  1  0  0  0  0
 13 10  1  0  0  0  0
 14 15  1  0  0  0  0
 15 19  1  1  0  0  0
 16 17  1  6  0  0  0
 16 14  1  0  0  0  0
 17 18  1  0  0  0  0
 19 20  1  0  0  0  0
 22 25  1  0  0  0  0
 23 25  1  0  0  0  0
 23 21  1  0  0  0  0
 25 24  2  0  0  0  0
 26 23  1  0  0  0  0
 27 29  1  1  0  0  0
 27 22  1  0  0  0  0
 28 27  1  0  0  0  0
 28 26  2  0  0  0  0
 29 31  1  6  0  0  0
 30 31  2  0  0  0  0
 31 32  1  0  0  0  0
 34 33  1  1  0  0  0
 34 29  1  0  0  0  0
 35 34  1  0  0  0  0
 36 35  1  0  0  0  0
 37 36  1  0  0  0  0
M  END
>  <MODEL>
5

>  <REMARK>
 VINA RESULT:      -6.1      1.075      2.072
  Name = 
  12 active torsions:
  status: ('A' for Active; 'I' for Inactive)
    1  A    between atoms: C_2  and  C_11
    2  A    between atoms: O_4  and  C_5
    3  A    between atoms: C_5  and  C_16
    4  A    between atoms: C_6  and  C_36
    5  A    between atoms: O_10  and  C_33
    6  A    between atoms: C_11  and  C_21
    7  A    between atoms: C_12  and  C_21
    8  A    between atoms: N_15  and  C_18
    9  A    between atoms: C_16  and  C_20
   10  A    between atoms: C_18  and  C_28
   11  A    between atoms: C_20  and  C_32
   12  A    between atoms: C_20  and  C_35
                            x       y       z     vdW  Elec       q    Type
                         _______ _______ _______ _____ _____    ______ ____

>  <TORSDO>
F 12

$$$$
=
 OpenBabel11062418513D

 37 39  0  0  1  0  0  0  0  0999 V2000
  193.2070  174.7700  143.8860 C   0  0  0  0  0  0  0  0  0  0  0  0
  192.1000  174.2670  144.7680 C   0  0  2  0  0  3  0  0  0  0  0  0
  193.5700  174.1450  142.8520 O   0  0  0  0  0  0  0  0  0  0  0  0
  193.2590  176.8290  145.2830 C   0  0  0  0  0  2  0  0  0  0  0  0
  192.4710  174.5380  146.2270 C   0  0  0  0  0  2  0  0  0  0  0  0
  192.8250  176.0090  146.5150 C   0  0  2  0  0  3  0  0  0  0  0  0
  193.8520  175.9920  144.2460 N   0  0  0  0  0  2  0  0  0  0  0  0
  191.7240  172.8000  144.5560 C   0  0  0  0  0  2  0  0  0  0  0  0
  190.2160  172.5910  144.3990 C   0  0  0  0  0  2  0  0  0  0  0  0
  189.8480  172.1590  142.9790 C   0  0  2  0  0  3  0  0  0  0  0  0
  191.3900  169.7940  140.7030 O   0  0  0  0  0  1  0  0  0  0  0  0
  190.4530  170.7360  141.1370 C   0  0  1  0  0  3  0  0  0  0  0  0
  190.7310  171.0740  142.5330 N   0  0  0  0  0  2  0  0  0  0  0  0
  189.5330  172.9080  140.7170 O   0  0  0  0  0  0  0  0  0  0  0  0
  189.9150  173.3410  141.9970 C   0  0  1  0  0  3  0  0  0  0  0  0
  190.5130  172.0050  140.2680 C   0  0  2  0  0  3  0  0  0  0  0  0
  190.2240  171.6760  138.8090 C   0  0  0  0  0  2  0  0  0  0  0  0
  189.6670  172.7870  138.1680 O   0  0  0  0  0  1  0  0  0  0  0  0
  189.0430  174.3470  142.4140 O   0  0  0  0  0  0  0  0  0  0  0  0
  187.7950  173.9740  141.9140 C   0  0  0  0  0  1  0  0  0  0  0  0
  191.6430  176.6750  147.2090 C   0  0  0  0  0  2  0  0  0  0  0  0
  188.2950  175.6510  145.5490 C   0  0  0  0  0  2  0  0  0  0  0  0
  190.4580  176.6950  146.3550 N   0  0  0  0  0  0  0  0  0  0  0  0
  189.3030  175.1040  147.6380 O   0  0  0  0  0  0  0  0  0  0  0  0
  189.3540  175.8090  146.5930 C   0  0  0  0  0  0  0  0  0  0  0  0
  190.4740  177.5290  145.1920 C   0  0  0  0  0  3  0  0  0  0  0  0
  188.1060  176.9370  144.7210 C   0  0  2  0  0  3  0  0  0  0  0  0
  189.4020  177.6360  144.4070 C   0  0  0  0  0  3  0  0  0  0  0  0
  187.0600  177.9160  145.2930 C   0  0  2  0  0  3  0  0  0  0  0  0
  186.4150  177.7450  147.6060 O   0  0  0  0  0  1  0  0  0  0  0  0
  186.2400  177.3550  146.4210 C   0  0  0  0  0  0  0  0  0  0  0  0
  185.2230  176.4540  146.1370 O   0  0  0  0  0  0  0  0  0  0  0  0
  185.1830  179.5840  144.8580 C   0  0  0  0  0  1  0  0  0  0  0  0
  186.2340  178.6780  144.2390 C   0  0  2  0  0  3  0  0  0  0  0  0
  185.5560  177.7240  143.2670 C   0  0  0  0  0  2  0  0  0  0  0  0
  185.4730  178.2990  141.9950 O   0  0  0  0  0  0  0  0  0  0  0  0
  186.6470  177.8930  141.3550 C   0  0  0  0  0  1  0  0  0  0  0  0
  1  7  1  0  0  0  0
  1  2  1  0  0  0  0
  2  8  1  1  0  0  0
  2  5  1  0  0  0  0
  3  1  2  0  0  0  0
  4  6  1  0  0  0  0
  5  6  1  0  0  0  0
  6 21  1  6  0  0  0
  7  4  1  0  0  0  0
  9  8  1  0  0  0  0
 10  9  1  1  0  0  0
 12 11  1  6  0  0  0
 12 13  1  0  0  0  0
 13 10  1  0  0  0  0
 14 15  1  0  0  0  0
 15 19  1  1  0  0  0
 15 10  1  0  0  0  0
 16 17  1  6  0  0  0
 16 14  1  0  0  0  0
 16 12  1  0  0  0  0
 18 17  1  0  0  0  0
 20 19  1  0  0  0  0
 22 25  1  0  0  0  0
 23 25  1  0  0  0  0
 23 21  1  0  0  0  0
 25 24  2  0  0  0  0
 26 23  1  0  0  0  0
 27 29  1  1  0  0  0
 27 22  1  0  0  0  0
 28 27  1  0  0  0  0
 28 26  2  0  0  0  0
 29 31  1  1  0  0  0
 31 30  1  0  0  0  0
 32 31  2  0  0  0  0
 34 33  1  1  0  0  0
 34 29  1  0  0  0  0
 35 34  1  0  0  0  0
 36 35  1  0  0  0  0
 37 36  1  0  0  0  0
M  END
>  <MODEL>
6

>  <REMARK>
 VINA RESULT:      -6.0      1.847      6.346
  Name = 
  12 active torsions:
  status: ('A' for Active; 'I' for Inactive)
    1  A    between atoms: C_2  and  C_11
    2  A    between atoms: O_4  and  C_5
    3  A    between atoms: C_5  and  C_16
    4  A    between atoms: C_6  and  C_36
    5  A    between atoms: O_10  and  C_33
    6  A    between atoms: C_11  and  C_21
    7  A    between atoms: C_12  and  C_21
    8  A    between atoms: N_15  and  C_18
    9  A    between atoms: C_16  and  C_20
   10  A    between atoms: C_18  and  C_28
   11  A    between atoms: C_20  and  C_32
   12  A    between atoms: C_20  and  C_35
                            x       y       z     vdW  Elec       q    Type
                         _______ _______ _______ _____ _____    ______ ____

>  <TORSDO>
F 12

$$$$
=
 OpenBabel11062418513D

 37 39  0  0  1  0  0  0  0  0999 V2000
  195.0080  174.9960  144.9150 C   0  0  0  0  0  0  0  0  0  0  0  0
  193.9680  175.1180  143.8380 C   0  0  2  0  0  3  0  0  0  0  0  0
  196.0500  174.3020  144.7590 O   0  0  0  0  0  0  0  0  0  0  0  0
  193.7270  176.6910  146.2130 C   0  0  0  0  0  2  0  0  0  0  0  0
  192.5840  175.1170  144.4880 C   0  0  0  0  0  2  0  0  0  0  0  0
  192.4130  176.1820  145.5870 C   0  0  2  0  0  3  0  0  0  0  0  0
  194.7920  175.6950  146.1410 N   0  0  0  0  0  2  0  0  0  0  0  0
  194.0610  174.0660  142.7320 C   0  0  0  0  0  2  0  0  0  0  0  0
  193.3710  172.7510  143.1040 C   0  0  0  0  0  2  0  0  0  0  0  0
  192.3600  172.3210  142.0410 C   0  0  2  0  0  3  0  0  0  0  0  0
  191.6550  173.6040  138.7240 O   0  0  0  0  0  1  0  0  0  0  0  0
  191.5190  172.7630  139.8320 C   0  0  1  0  0  3  0  0  0  0  0  0
  192.5550  173.0950  140.8100 N   0  0  0  0  0  2  0  0  0  0  0  0
  190.0230  172.0330  141.5550 O   0  0  0  0  0  0  0  0  0  0  0  0
  190.9150  172.4750  142.5460 C   0  0  1  0  0  3  0  0  0  0  0  0
  190.1270  172.9200  140.4690 C   0  0  2  0  0  3  0  0  0  0  0  0
  189.0320  172.5770  139.4680 C   0  0  0  0  0  2  0  0  0  0  0  0
  188.2290  173.6980  139.2320 O   0  0  0  0  0  1  0  0  0  0  0  0
  190.7340  171.7040  143.6940 O   0  0  0  0  0  0  0  0  0  0  0  0
  189.6750  172.3080  144.3730 C   0  0  0  0  0  1  0  0  0  0  0  0
  191.6040  177.3450  145.0270 C   0  0  0  0  0  2  0  0  0  0  0  0
  188.1420  176.4300  146.5090 C   0  0  0  0  0  2  0  0  0  0  0  0
  190.1660  177.1080  145.1460 N   0  0  0  0  0  0  0  0  0  0  0  0
  190.1820  177.1730  147.4930 O   0  0  0  0  0  0  0  0  0  0  0  0
  189.5410  176.9500  146.4280 C   0  0  0  0  0  0  0  0  0  0  0  0
  189.4120  176.9070  143.9470 C   0  0  0  0  0  3  0  0  0  0  0  0
  187.3100  176.8200  145.2720 C   0  0  2  0  0  3  0  0  0  0  0  0
  188.0890  176.7460  143.9860 C   0  0  0  0  0  3  0  0  0  0  0  0
  186.5630  178.1640  145.4040 C   0  0  2  0  0  3  0  0  0  0  0  0
  184.6750  177.3610  146.6640 O   0  0  0  0  0  0  0  0  0  0  0  0
  185.5900  178.2200  146.5480 C   0  0  0  0  0  0  0  0  0  0  0  0
  185.7520  179.1880  147.5300 O   0  0  0  0  0  1  0  0  0  0  0  0
  185.4930  180.1560  144.2310 C   0  0  0  0  0  1  0  0  0  0  0  0
  186.0100  178.7360  144.0850 C   0  0  2  0  0  3  0  0  0  0  0  0
  184.9020  177.8600  143.5200 C   0  0  0  0  0  2  0  0  0  0  0  0
  184.5950  178.2440  142.2110 O   0  0  0  0  0  0  0  0  0  0  0  0
  185.6590  177.7550  141.4490 C   0  0  0  0  0  1  0  0  0  0  0  0
  1  7  1  0  0  0  0
  2  8  1  6  0  0  0
  2  5  1  0  0  0  0
  2  1  1  0  0  0  0
  3  1  2  0  0  0  0
  5  6  1  0  0  0  0
  6 21  1  6  0  0  0
  6  4  1  0  0  0  0
  7  4  1  0  0  0  0
  8  9  1  0  0  0  0
 10 15  1  0  0  0  0
 10  9  1  1  0  0  0
 12 11  1  6  0  0  0
 12 16  1  0  0  0  0
 12 13  1  0  0  0  0
 13 10  1  0  0  0  0
 14 15  1  0  0  0  0
 15 19  1  1  0  0  0
 16 17  1  6  0  0  0
 16 14  1  0  0  0  0
 18 17  1  0  0  0  0
 19 20  1  0  0  0  0
 21 23  1  0  0  0  0
 23 25  1  0  0  0  0
 25 22  1  0  0  0  0
 25 24  2  0  0  0  0
 26 28  2  0  0  0  0
 26 23  1  0  0  0  0
 27 29  1  1  0  0  0
 27 22  1  0  0  0  0
 28 27  1  0  0  0  0
 29 31  1  1  0  0  0
 31 30  2  0  0  0  0
 31 32  1  0  0  0  0
 34 33  1  1  0  0  0
 34 29  1  0  0  0  0
 35 34  1  0  0  0  0
 36 35  1  0  0  0  0
 37 36  1  0  0  0  0
M  END
>  <MODEL>
7

>  <REMARK>
 VINA RESULT:      -6.0      1.690      6.652
  Name = 
  12 active torsions:
  status: ('A' for Active; 'I' for Inactive)
    1  A    between atoms: C_2  and  C_11
    2  A    between atoms: O_4  and  C_5
    3  A    between atoms: C_5  and  C_16
    4  A    between atoms: C_6  and  C_36
    5  A    between atoms: O_10  and  C_33
    6  A    between atoms: C_11  and  C_21
    7  A    between atoms: C_12  and  C_21
    8  A    between atoms: N_15  and  C_18
    9  A    between atoms: C_16  and  C_20
   10  A    between atoms: C_18  and  C_28
   11  A    between atoms: C_20  and  C_32
   12  A    between atoms: C_20  and  C_35
                            x       y       z     vdW  Elec       q    Type
                         _______ _______ _______ _____ _____    ______ ____

>  <TORSDO>
F 12

$$$$
=
 OpenBabel11062418513D

 37 39  0  0  1  0  0  0  0  0999 V2000
  193.9040  176.0630  146.3120 C   0  0  0  0  0  0  0  0  0  0  0  0
  192.5370  175.4870  146.0810 C   0  0  2  0  0  3  0  0  0  0  0  0
  194.0700  177.1660  146.9030 O   0  0  0  0  0  0  0  0  0  0  0  0
  194.8490  173.9480  145.4010 C   0  0  0  0  0  2  0  0  0  0  0  0
  192.5060  174.8310  144.7000 C   0  0  0  0  0  2  0  0  0  0  0  0
  193.6220  173.7940  144.4790 C   0  0  2  0  0  3  0  0  0  0  0  0
  195.0330  175.3260  145.8440 N   0  0  0  0  0  2  0  0  0  0  0  0
  191.3830  176.4770  146.2500 C   0  0  0  0  0  2  0  0  0  0  0  0
  190.8130  176.9570  144.9140 C   0  0  0  0  0  2  0  0  0  0  0  0
  189.4120  177.5490  145.0750 C   0  0  2  0  0  3  0  0  0  0  0  0
  186.7240  176.7850  147.3860 O   0  0  0  0  0  1  0  0  0  0  0  0
  187.3680  177.4500  146.3390 C   0  0  1  0  0  3  0  0  0  0  0  0
  188.7470  176.9680  146.2470 N   0  0  0  0  0  2  0  0  0  0  0  0
  187.2990  177.9190  143.9900 O   0  0  0  0  0  0  0  0  0  0  0  0
  188.5610  177.3280  143.8130 C   0  0  1  0  0  3  0  0  0  0  0  0
  186.6390  177.2060  145.0060 C   0  0  2  0  0  3  0  0  0  0  0  0
  185.2000  177.7020  145.0780 C   0  0  0  0  0  2  0  0  0  0  0  0
  185.1580  179.0830  144.8590 O   0  0  0  0  0  1  0  0  0  0  0  0
  189.1870  177.9170  142.7150 O   0  0  0  0  0  0  0  0  0  0  0  0
  188.2290  177.9020  141.7010 C   0  0  0  0  0  1  0  0  0  0  0  0
  193.0310  172.3960  144.6090 C   0  0  0  0  0  2  0  0  0  0  0  0
  190.0670  171.1770  142.4290 C   0  0  0  0  0  2  0  0  0  0  0  0
  192.2200  172.0430  143.4450 N   0  0  0  0  0  0  0  0  0  0  0  0
  190.2000  172.0590  144.6400 O   0  0  0  0  0  0  0  0  0  0  0  0
  190.8090  171.8090  143.5630 C   0  0  0  0  0  0  0  0  0  0  0  0
  192.8880  171.8080  142.2010 C   0  0  0  0  0  3  0  0  0  0  0  0
  190.6940  171.5270  141.0650 C   0  0  2  0  0  3  0  0  0  0  0  0
  192.1990  171.5420  141.0900 C   0  0  0  0  0  3  0  0  0  0  0  0
  190.1270  172.8030  140.4110 C   0  0  2  0  0  3  0  0  0  0  0  0
  190.3190  174.7090  141.8700 O   0  0  0  0  0  1  0  0  0  0  0  0
  189.5820  173.8080  141.3870 C   0  0  0  0  0  0  0  0  0  0  0  0
  188.2290  173.7890  141.6970 O   0  0  0  0  0  0  0  0  0  0  0  0
  189.5660  171.2890  138.4400 C   0  0  0  0  0  1  0  0  0  0  0  0
  189.2180  172.5630  139.1910 C   0  0  2  0  0  3  0  0  0  0  0  0
  189.2640  173.7360  138.2230 C   0  0  0  0  0  2  0  0  0  0  0  0
  188.1230  174.5320  138.3660 O   0  0  0  0  0  0  0  0  0  0  0  0
  187.8090  174.9230  137.0620 C   0  0  0  0  0  1  0  0  0  0  0  0
  1  3  2  0  0  0  0
  2  8  1  6  0  0  0
  2  1  1  0  0  0  0
  4  7  1  0  0  0  0
  5  2  1  0  0  0  0
  6 21  1  1  0  0  0
  6  5  1  0  0  0  0
  6  4  1  0  0  0  0
  7  1  1  0  0  0  0
  9  8  1  0  0  0  0
 10  9  1  6  0  0  0
 10 13  1  0  0  0  0
 12 11  1  1  0  0  0
 13 12  1  0  0  0  0
 14 16  1  0  0  0  0
 15 19  1  6  0  0  0
 15 14  1  0  0  0  0
 15 10  1  0  0  0  0
 16 17  1  1  0  0  0
 16 12  1  0  0  0  0
 18 17  1  0  0  0  0
 20 19  1  0  0  0  0
 22 25  1  0  0  0  0
 23 25  1  0  0  0  0
 23 21  1  0  0  0  0
 25 24  2  0  0  0  0
 26 23  1  0  0  0  0
 27 29  1  1  0  0  0
 27 28  1  0  0  0  0
 27 22  1  0  0  0  0
 28 26  2  0  0  0  0
 29 31  1  1  0  0  0
 31 32  2  0  0  0  0
 31 30  1  0  0  0  0
 34 33  1  6  0  0  0
 34 29  1  0  0  0  0
 35 36  1  0  0  0  0
 35 34  1  0  0  0  0
 37 36  1  0  0  0  0
M  END
>  <MODEL>
8

>  <REMARK>
 VINA RESULT:      -5.9      1.740      2.544
  Name = 
  12 active torsions:
  status: ('A' for Active; 'I' for Inactive)
    1  A    between atoms: C_2  and  C_11
    2  A    between atoms: O_4  and  C_5
    3  A    between atoms: C_5  and  C_16
    4  A    between atoms: C_6  and  C_36
    5  A    between atoms: O_10  and  C_33
    6  A    between atoms: C_11  and  C_21
    7  A    between atoms: C_12  and  C_21
    8  A    between atoms: N_15  and  C_18
    9  A    between atoms: C_16  and  C_20
   10  A    between atoms: C_18  and  C_28
   11  A    between atoms: C_20  and  C_32
   12  A    between atoms: C_20  and  C_35
                            x       y       z     vdW  Elec       q    Type
                         _______ _______ _______ _____ _____    ______ ____

>  <TORSDO>
F 12

$$$$
=
 OpenBabel11062418513D

 37 39  0  0  1  0  0  0  0  0999 V2000
  193.7550  176.1130  146.4760 C   0  0  0  0  0  0  0  0  0  0  0  0
  192.4130  175.5190  146.1620 C   0  0  2  0  0  3  0  0  0  0  0  0
  193.8710  177.2100  147.0870 O   0  0  0  0  0  0  0  0  0  0  0  0
  194.7820  174.0240  145.5950 C   0  0  0  0  0  2  0  0  0  0  0  0
  192.4680  174.8800  144.7740 C   0  0  0  0  0  2  0  0  0  0  0  0
  193.6120  173.8620  144.6040 C   0  0  2  0  0  3  0  0  0  0  0  0
  194.9200  175.3990  146.0630 N   0  0  0  0  0  2  0  0  0  0  0  0
  191.2360  176.4890  146.2780 C   0  0  0  0  0  2  0  0  0  0  0  0
  189.9130  175.7840  146.5860 C   0  0  0  0  0  2  0  0  0  0  0  0
  188.8400  176.1100  145.5470 C   0  0  2  0  0  3  0  0  0  0  0  0
  189.0060  177.8770  142.3860 O   0  0  0  0  0  1  0  0  0  0  0  0
  188.4110  177.1610  143.4270 C   0  0  1  0  0  3  0  0  0  0  0  0
  189.4470  176.7490  144.3740 N   0  0  0  0  0  2  0  0  0  0  0  0
  186.7600  177.2510  145.1620 O   0  0  0  0  0  0  0  0  0  0  0  0
  187.7410  177.0090  146.1370 C   0  0  1  0  0  3  0  0  0  0  0  0
  187.3560  178.0200  144.1470 C   0  0  2  0  0  3  0  0  0  0  0  0
  186.2640  178.4590  143.1790 C   0  0  0  0  0  2  0  0  0  0  0  0
  185.8960  179.7830  143.4390 O   0  0  0  0  0  1  0  0  0  0  0  0
  187.1490  176.3730  147.2270 O   0  0  0  0  0  0  0  0  0  0  0  0
  185.9770  177.0900  147.4720 C   0  0  0  0  0  1  0  0  0  0  0  0
  193.0360  172.4540  144.6850 C   0  0  0  0  0  2  0  0  0  0  0  0
  190.2070  171.1790  142.3620 C   0  0  0  0  0  2  0  0  0  0  0  0
  192.2800  172.1110  143.4810 N   0  0  0  0  0  0  0  0  0  0  0  0
  190.2270  171.9710  144.6110 O   0  0  0  0  0  0  0  0  0  0  0  0
  190.8810  171.7990  143.5450 C   0  0  0  0  0  0  0  0  0  0  0  0
  192.9960  171.9640  142.2510 C   0  0  0  0  0  3  0  0  0  0  0  0
  190.8550  171.6200  141.0350 C   0  0  2  0  0  3  0  0  0  0  0  0
  192.3560  171.7110  141.1090 C   0  0  0  0  0  3  0  0  0  0  0  0
  190.2410  172.8920  140.4170 C   0  0  2  0  0  3  0  0  0  0  0  0
  190.6590  174.7880  141.8400 O   0  0  0  0  0  1  0  0  0  0  0  0
  189.8330  173.9330  141.4210 C   0  0  0  0  0  0  0  0  0  0  0  0
  188.5080  173.9990  141.8310 O   0  0  0  0  0  0  0  0  0  0  0  0
  189.4610  171.3740  138.5250 C   0  0  0  0  0  1  0  0  0  0  0  0
  189.1930  172.6430  139.3160 C   0  0  2  0  0  3  0  0  0  0  0  0
  189.1050  173.8180  138.3540 C   0  0  0  0  0  2  0  0  0  0  0  0
  187.8730  174.4680  138.4870 O   0  0  0  0  0  0  0  0  0  0  0  0
  187.6580  175.0580  137.2390 C   0  0  0  0  0  1  0  0  0  0  0  0
  1  3  2  0  0  0  0
  2  8  1  6  0  0  0
  2  1  1  0  0  0  0
  4  7  1  0  0  0  0
  5  2  1  0  0  0  0
  6 21  1  1  0  0  0
  6  5  1  0  0  0  0
  6  4  1  0  0  0  0
  7  1  1  0  0  0  0
  8  9  1  0  0  0  0
 10 15  1  0  0  0  0
 10  9  1  1  0  0  0
 12 11  1  6  0  0  0
 12 16  1  0  0  0  0
 12 13  1  0  0  0  0
 13 10  1  0  0  0  0
 14 15  1  0  0  0  0
 15 19  1  1  0  0  0
 16 17  1  6  0  0  0
 16 14  1  0  0  0  0
 17 18  1  0  0  0  0
 19 20  1  0  0  0  0
 22 25  1  0  0  0  0
 23 25  1  0  0  0  0
 23 21  1  0  0  0  0
 25 24  2  0  0  0  0
 26 23  1  0  0  0  0
 27 29  1  1  0  0  0
 27 28  1  0  0  0  0
 27 22  1  0  0  0  0
 28 26  2  0  0  0  0
 29 31  1  1  0  0  0
 31 32  2  0  0  0  0
 31 30  1  0  0  0  0
 34 33  1  6  0  0  0
 34 29  1  0  0  0  0
 35 36  1  0  0  0  0
 35 34  1  0  0  0  0
 37 36  1  0  0  0  0
M  END
>  <MODEL>
9

>  <REMARK>
 VINA RESULT:      -5.9      1.887      3.140
  Name = 
  12 active torsions:
  status: ('A' for Active; 'I' for Inactive)
    1  A    between atoms: C_2  and  C_11
    2  A    between atoms: O_4  and  C_5
    3  A    between atoms: C_5  and  C_16
    4  A    between atoms: C_6  and  C_36
    5  A    between atoms: O_10  and  C_33
    6  A    between atoms: C_11  and  C_21
    7  A    between atoms: C_12  and  C_21
    8  A    between atoms: N_15  and  C_18
    9  A    between atoms: C_16  and  C_20
   10  A    between atoms: C_18  and  C_28
   11  A    between atoms: C_20  and  C_32
   12  A    between atoms: C_20  and  C_35
                            x       y       z     vdW  Elec       q    Type
                         _______ _______ _______ _____ _____    ______ ____

>  <TORSDO>
F 12

$$$$
