=
 OpenBabel11062421403D

 41 47  0  0  1  0  0  0  0  0999 V2000
  193.6780  174.3110  145.2050 C   0  0  2  0  0  3  0  0  0  0  0  0
  195.6000  175.9000  143.8780 C   0  0  0  0  0  2  0  0  0  0  0  0
  194.8300  174.8660  143.0910 C   0  0  0  0  0  0  0  0  0  0  0  0
  193.3370  174.9180  141.1040 C   0  0  0  0  0  2  0  0  0  0  0  0
  194.7320  176.4800  144.9020 N   0  0  0  0  0  0  0  0  0  0  0  0
  193.8160  175.7860  145.5150 C   0  0  0  0  0  0  0  0  0  0  0  0
  192.4790  173.7830  141.7310 C   0  0  2  0  0  3  0  0  0  0  0  0
  192.8340  176.4750  146.3040 N   0  0  0  0  0  2  0  0  0  0  0  0
  194.5610  173.5950  145.9850 F   0  0  0  0  0  0  0  0  0  0  0  0
  193.1350  173.1000  142.9550 C   0  0  0  0  0  2  0  0  0  0  0  0
  193.9520  174.0800  143.7420 C   0  0  0  0  0  0  0  0  0  0  0  0
  194.8000  174.9090  141.5820 C   0  0  0  0  0  2  0  0  0  0  0  0
  190.4310  171.0050  141.5870 C   0  0  0  0  0  2  0  0  0  0  0  0
  192.0940  172.7690  140.6400 C   0  0  1  0  0  3  0  0  0  0  0  0
  189.7130  173.4390  140.0120 C   0  0  0  0  0  0  0  0  0  0  0  0
  191.8540  171.3310  141.1500 C   0  0  0  0  0  2  0  0  0  0  0  0
  189.7610  172.2070  142.2180 C   0  0  0  0  0  2  0  0  0  0  0  0
  189.1190  172.9920  141.2100 O   0  0  0  0  0  0  0  0  0  0  0  0
  191.0220  173.3020  139.7270 C   0  0  0  0  0  3  0  0  0  0  0  0
  188.9130  174.0840  139.0580 O   0  0  0  0  0  0  0  0  0  0  0  0
  189.0600  174.0440  136.7280 N   0  0  0  0  0  1  0  0  0  0  0  0
  188.4200  173.4360  137.8820 C   0  0  0  0  0  2  0  0  0  0  0  0
  191.4190  176.1900  146.2430 C   0  0  0  0  0  0  0  0  0  0  0  0
  188.6470  175.7450  146.2150 C   0  0  0  0  0  3  0  0  0  0  0  0
  190.8030  175.4880  147.2920 C   0  0  0  0  0  0  0  0  0  0  0  0
  190.6300  176.6580  145.1790 C   0  0  0  0  0  3  0  0  0  0  0  0
  189.2500  176.4390  145.1620 C   0  0  0  0  0  0  0  0  0  0  0  0
  191.5580  175.0430  148.3750 O   0  0  0  0  0  1  0  0  0  0  0  0
  189.4210  175.2700  147.2760 C   0  0  0  0  0  3  0  0  0  0  0  0
  189.2130  177.6320  142.7830 O   0  0  0  0  0  0  0  0  0  0  0  0
  188.3000  176.9680  143.7720 S   0  0  0  0  0  0  0  0  0  0  0  0
  187.6920  175.7640  143.1110 O   0  0  0  0  0  0  0  0  0  0  0  0
  185.2160  176.8120  145.7670 C   0  0  0  0  0  2  0  0  0  0  0  0
  184.8080  178.1780  145.2720 C   0  0  1  0  0  0  0  0  0  0  0  0
  185.0410  177.7230  143.2900 C   0  0  2  0  0  3  0  0  0  0  0  0
  185.8150  177.2750  144.4660 C   0  0  2  0  0  0  0  0  0  0  0  0
  187.0150  178.0610  144.2240 N   0  0  0  0  0  0  0  0  0  0  0  0
  186.3300  178.5300  143.0030 C   0  0  0  0  0  2  0  0  0  0  0  0
  184.1190  178.4450  144.0680 O   0  0  0  0  0  0  0  0  0  0  0  0
  185.6300  179.2200  147.3020 O   0  0  0  0  0  1  0  0  0  0  0  0
  185.4140  179.4240  145.9410 C   0  0  0  0  0  2  0  0  0  0  0  0
  1  6  1  0  0  0  0
  1  9  1  1  0  0  0
  2  5  1  0  0  0  0
  3 11  2  0  0  0  0
  3  2  1  0  0  0  0
  4 12  1  0  0  0  0
  5  6  2  0  0  0  0
  6  8  1  0  0  0  0
  7  4  1  6  0  0  0
  7 10  1  0  0  0  0
 10 11  1  0  0  0  0
 11  1  1  0  0  0  0
 12  3  1  0  0  0  0
 13 17  1  0  0  0  0
 14 19  1  1  0  0  0
 14 16  1  0  0  0  0
 14  7  1  0  0  0  0
 15 18  1  0  0  0  0
 16 13  1  0  0  0  0
 18 17  1  0  0  0  0
 19 15  2  0  0  0  0
 20 15  1  0  0  0  0
 21 22  1  0  0  0  0
 22 20  1  0  0  0  0
 23  8  1  0  0  0  0
 23 25  1  0  0  0  0
 24 29  1  0  0  0  0
 25 28  1  0  0  0  0
 26 23  2  0  0  0  0
 27 26  1  0  0  0  0
 27 24  2  0  0  0  0
 29 25  2  0  0  0  0
 30 31  2  0  0  0  0
 31 37  1  0  0  0  0
 31 27  1  0  0  0  0
 32 31  2  0  0  0  0
 34 33  1  0  0  0  0
 34 41  1  1  0  0  0
 35 38  1  6  0  0  0
 35 39  1  0  0  0  0
 35 36  1  0  0  0  0
 36 34  1  0  0  0  0
 36 33  1  1  0  0  0
 37 36  1  0  0  0  0
 38 37  1  0  0  0  0
 39 34  1  0  0  0  0
 41 40  1  0  0  0  0
M  END
>  <MODEL>
1

>  <REMARK>
 VINA RESULT:      -8.3      0.000      0.000
  Name = 
  7 active torsions:
  status: ('A' for Active; 'I' for Inactive)
    1  A    between atoms: C_2  and  C_11
    2  A    between atoms: C_4  and  C_35
    3  A    between atoms: O_14  and  C_17
    4  A    between atoms: O_14  and  C_41
    5  A    between atoms: S_16  and  N_19
    6  A    between atoms: S_16  and  C_33
    7  A    between atoms: C_20  and  N_22
                            x       y       z     vdW  Elec       q    Type
                         _______ _______ _______ _____ _____    ______ ____

>  <TORSDO>
F 7

$$$$
=
 OpenBabel11062421403D

 41 47  0  0  1  0  0  0  0  0999 V2000
  192.6440  176.3060  145.5900 C   0  0  2  0  0  3  0  0  0  0  0  0
  191.1290  176.3370  147.9740 C   0  0  0  0  0  2  0  0  0  0  0  0
  190.5550  176.9730  146.7290 C   0  0  0  0  0  0  0  0  0  0  0  0
  188.5040  176.6340  145.3660 C   0  0  0  0  0  2  0  0  0  0  0  0
  191.9140  175.1600  147.6050 N   0  0  0  0  0  0  0  0  0  0  0  0
  192.6020  175.0980  146.5000 C   0  0  0  0  0  0  0  0  0  0  0  0
  189.3160  176.9600  144.0810 C   0  0  2  0  0  3  0  0  0  0  0  0
  193.1240  173.8290  146.0770 N   0  0  0  0  0  2  0  0  0  0  0  0
  193.6400  177.1620  146.0120 F   0  0  0  0  0  0  0  0  0  0  0  0
  190.7150  177.5610  144.3550 C   0  0  0  0  0  2  0  0  0  0  0  0
  191.3050  176.9960  145.6110 C   0  0  0  0  0  0  0  0  0  0  0  0
  189.0820  177.2900  146.6330 C   0  0  0  0  0  2  0  0  0  0  0  0
  187.5650  176.4740  141.1440 C   0  0  0  0  0  2  0  0  0  0  0  0
  188.4730  177.8540  143.1550 C   0  0  1  0  0  3  0  0  0  0  0  0
  186.0750  177.1340  143.6460 C   0  0  0  0  0  0  0  0  0  0  0  0
  188.5690  177.5000  141.6540 C   0  0  0  0  0  2  0  0  0  0  0  0
  187.2580  175.4330  142.2000 C   0  0  0  0  0  2  0  0  0  0  0  0
  186.1720  175.8750  143.0180 O   0  0  0  0  0  0  0  0  0  0  0  0
  187.0710  178.0390  143.6710 C   0  0  0  0  0  3  0  0  0  0  0  0
  184.8850  177.4720  144.3060 O   0  0  0  0  0  0  0  0  0  0  0  0
  185.1060  176.6930  146.4950 N   0  0  0  0  0  1  0  0  0  0  0  0
  184.8340  177.8650  145.6800 C   0  0  0  0  0  2  0  0  0  0  0  0
  193.0230  173.3370  144.7230 C   0  0  0  0  0  0  0  0  0  0  0  0
  192.8840  172.2580  142.1340 C   0  0  0  0  0  3  0  0  0  0  0  0
  194.1640  173.3060  143.9050 C   0  0  0  0  0  0  0  0  0  0  0  0
  191.8120  172.8290  144.2240 C   0  0  0  0  0  3  0  0  0  0  0  0
  191.7390  172.2900  142.9370 C   0  0  0  0  0  0  0  0  0  0  0  0
  195.3850  173.7740  144.3880 O   0  0  0  0  0  1  0  0  0  0  0  0
  194.0920  172.7650  142.6160 C   0  0  0  0  0  3  0  0  0  0  0  0
  190.3080  170.2930  141.9130 O   0  0  0  0  0  0  0  0  0  0  0  0
  190.1850  171.7340  142.3110 S   0  0  0  0  0  0  0  0  0  0  0  0
  189.1570  171.8330  143.4020 O   0  0  0  0  0  0  0  0  0  0  0  0
  189.7950  171.2600  138.6860 C   0  0  0  0  0  2  0  0  0  0  0  0
  189.5150  172.7330  138.5080 C   0  0  1  0  0  0  0  0  0  0  0  0
  191.1860  173.3510  139.5160 C   0  0  2  0  0  3  0  0  0  0  0  0
  190.3060  172.1880  139.7550 C   0  0  2  0  0  0  0  0  0  0  0  0
  189.6410  172.6850  140.9490 N   0  0  0  0  0  0  0  0  0  0  0  0
  190.5130  173.8690  140.8110 C   0  0  0  0  0  2  0  0  0  0  0  0
  190.4910  173.7430  138.3580 O   0  0  0  0  0  0  0  0  0  0  0  0
  187.8780  174.4910  138.1740 O   0  0  0  0  0  1  0  0  0  0  0  0
  188.0980  173.2620  138.7920 C   0  0  0  0  0  2  0  0  0  0  0  0
  1 11  1  0  0  0  0
  1  9  1  1  0  0  0
  1  6  1  0  0  0  0
  3  2  1  0  0  0  0
  4 12  1  0  0  0  0
  5  2  1  0  0  0  0
  6  5  2  0  0  0  0
  7 10  1  1  0  0  0
  7  4  1  0  0  0  0
  8  6  1  0  0  0  0
 10 11  1  0  0  0  0
 11  3  2  0  0  0  0
 12  3  1  0  0  0  0
 13 16  1  0  0  0  0
 13 17  1  0  0  0  0
 14 16  1  6  0  0  0
 14 19  1  0  0  0  0
 14  7  1  0  0  0  0
 15 19  2  0  0  0  0
 15 20  1  0  0  0  0
 17 18  1  0  0  0  0
 18 15  1  0  0  0  0
 20 22  1  0  0  0  0
 22 21  1  0  0  0  0
 23  8  1  0  0  0  0
 24 29  2  0  0  0  0
 24 27  1  0  0  0  0
 25 28  1  0  0  0  0
 25 23  2  0  0  0  0
 26 23  1  0  0  0  0
 27 26  2  0  0  0  0
 29 25  1  0  0  0  0
 30 31  2  0  0  0  0
 31 27  1  0  0  0  0
 31 32  2  0  0  0  0
 34 33  1  0  0  0  0
 34 41  1  1  0  0  0
 34 36  1  0  0  0  0
 35 36  1  0  0  0  0
 35 38  1  1  0  0  0
 36 33  1  6  0  0  0
 36 37  1  0  0  0  0
 37 31  1  0  0  0  0
 38 37  1  0  0  0  0
 39 34  1  0  0  0  0
 39 35  1  0  0  0  0
 40 41  1  0  0  0  0
M  END
>  <MODEL>
2

>  <REMARK>
 VINA RESULT:      -7.8      2.370      6.776
  Name = 
  7 active torsions:
  status: ('A' for Active; 'I' for Inactive)
    1  A    between atoms: C_2  and  C_11
    2  A    between atoms: C_4  and  C_35
    3  A    between atoms: O_14  and  C_17
    4  A    between atoms: O_14  and  C_41
    5  A    between atoms: S_16  and  N_19
    6  A    between atoms: S_16  and  C_33
    7  A    between atoms: C_20  and  N_22
                            x       y       z     vdW  Elec       q    Type
                         _______ _______ _______ _____ _____    ______ ____

>  <TORSDO>
F 7

$$$$
=
 OpenBabel11062421403D

 41 47  0  0  1  0  0  0  0  0999 V2000
  192.2970  176.2490  145.2510 C   0  0  2  0  0  3  0  0  0  0  0  0
  191.1810  176.3260  147.8450 C   0  0  0  0  0  2  0  0  0  0  0  0
  190.4940  177.0720  146.7260 C   0  0  0  0  0  0  0  0  0  0  0  0
  188.2320  177.0070  145.6960 C   0  0  0  0  0  2  0  0  0  0  0  0
  191.7670  175.0920  147.3210 N   0  0  0  0  0  0  0  0  0  0  0  0
  192.2660  175.0110  146.1200 C   0  0  0  0  0  0  0  0  0  0  0  0
  188.8650  177.3070  144.3080 C   0  0  2  0  0  3  0  0  0  0  0  0
  192.5760  173.7160  145.5830 N   0  0  0  0  0  2  0  0  0  0  0  0
  193.4320  176.9790  145.5340 F   0  0  0  0  0  0  0  0  0  0  0  0
  190.3470  177.7490  144.3740 C   0  0  0  0  0  2  0  0  0  0  0  0
  191.0600  177.0700  145.5040 C   0  0  0  0  0  0  0  0  0  0  0  0
  189.0660  177.5420  146.8730 C   0  0  0  0  0  2  0  0  0  0  0  0
  186.9290  177.2200  141.4490 C   0  0  0  0  0  2  0  0  0  0  0  0
  187.9910  178.3230  143.5540 C   0  0  1  0  0  3  0  0  0  0  0  0
  185.6090  177.5890  144.1030 C   0  0  0  0  0  0  0  0  0  0  0  0
  187.9870  178.1580  142.0180 C   0  0  0  0  0  2  0  0  0  0  0  0
  186.6600  176.0610  142.3860 C   0  0  0  0  0  2  0  0  0  0  0  0
  185.6370  176.4170  143.3190 O   0  0  0  0  0  0  0  0  0  0  0  0
  186.6270  178.4670  144.1760 C   0  0  0  0  0  3  0  0  0  0  0  0
  184.4690  177.8630  144.8720 O   0  0  0  0  0  0  0  0  0  0  0  0
  184.8360  178.1770  147.1560 N   0  0  0  0  0  1  0  0  0  0  0  0
  184.4470  178.8350  145.9210 C   0  0  0  0  0  2  0  0  0  0  0  0
  192.2140  173.3000  144.2480 C   0  0  0  0  0  0  0  0  0  0  0  0
  191.4360  172.6120  141.6390 C   0  0  0  0  0  3  0  0  0  0  0  0
  190.9350  172.7700  144.0050 C   0  0  0  0  0  0  0  0  0  0  0  0
  193.0970  173.4710  143.1700 C   0  0  0  0  0  3  0  0  0  0  0  0
  192.7130  173.1310  141.8700 C   0  0  0  0  0  0  0  0  0  0  0  0
  190.0280  172.6220  145.0530 O   0  0  0  0  0  1  0  0  0  0  0  0
  190.5500  172.4310  142.7030 C   0  0  0  0  0  3  0  0  0  0  0  0
  194.1640  171.9180  139.9970 O   0  0  0  0  0  0  0  0  0  0  0  0
  193.8760  173.2820  140.5500 S   0  0  0  0  0  0  0  0  0  0  0  0
  193.2660  174.1120  139.4560 O   0  0  0  0  0  0  0  0  0  0  0  0
  195.0390  176.6970  141.2630 C   0  0  0  0  0  2  0  0  0  0  0  0
  196.4640  176.2080  141.3560 C   0  0  1  0  0  0  0  0  0  0  0  0
  196.4380  175.2470  139.5490 C   0  0  2  0  0  3  0  0  0  0  0  0
  195.3690  175.4100  140.5560 C   0  0  2  0  0  0  0  0  0  0  0  0
  195.3630  174.0450  141.0600 N   0  0  0  0  0  0  0  0  0  0  0  0
  196.4090  173.7820  140.0520 C   0  0  0  0  0  2  0  0  0  0  0  0
  197.3500  176.0400  140.2680 O   0  0  0  0  0  0  0  0  0  0  0  0
  196.4370  176.2200  143.7820 O   0  0  0  0  0  1  0  0  0  0  0  0
  196.9440  175.5580  142.6660 C   0  0  0  0  0  2  0  0  0  0  0  0
  1 11  1  0  0  0  0
  1  9  1  1  0  0  0
  1  6  1  0  0  0  0
  3 12  1  0  0  0  0
  3  2  1  0  0  0  0
  4 12  1  0  0  0  0
  5  2  1  0  0  0  0
  6  5  2  0  0  0  0
  7 10  1  1  0  0  0
  7  4  1  0  0  0  0
  8  6  1  0  0  0  0
 10 11  1  0  0  0  0
 11  3  2  0  0  0  0
 13 16  1  0  0  0  0
 13 17  1  0  0  0  0
 14 16  1  6  0  0  0
 14 19  1  0  0  0  0
 14  7  1  0  0  0  0
 15 19  2  0  0  0  0
 15 20  1  0  0  0  0
 17 18  1  0  0  0  0
 18 15  1  0  0  0  0
 20 22  1  0  0  0  0
 22 21  1  0  0  0  0
 23  8  1  0  0  0  0
 24 27  2  0  0  0  0
 24 29  1  0  0  0  0
 25 23  1  0  0  0  0
 25 28  1  0  0  0  0
 26 23  2  0  0  0  0
 27 26  1  0  0  0  0
 29 25  2  0  0  0  0
 30 31  2  0  0  0  0
 31 37  1  0  0  0  0
 31 27  1  0  0  0  0
 32 31  2  0  0  0  0
 33 34  1  0  0  0  0
 34 41  1  1  0  0  0
 35 38  1  1  0  0  0
 35 39  1  0  0  0  0
 35 36  1  0  0  0  0
 36 37  1  0  0  0  0
 36 33  1  6  0  0  0
 36 34  1  0  0  0  0
 38 37  1  0  0  0  0
 39 34  1  0  0  0  0
 41 40  1  0  0  0  0
M  END
>  <MODEL>
3

>  <REMARK>
 VINA RESULT:      -7.7      3.037      7.925
  Name = 
  7 active torsions:
  status: ('A' for Active; 'I' for Inactive)
    1  A    between atoms: C_2  and  C_11
    2  A    between atoms: C_4  and  C_35
    3  A    between atoms: O_14  and  C_17
    4  A    between atoms: O_14  and  C_41
    5  A    between atoms: S_16  and  N_19
    6  A    between atoms: S_16  and  C_33
    7  A    between atoms: C_20  and  N_22
                            x       y       z     vdW  Elec       q    Type
                         _______ _______ _______ _____ _____    ______ ____

>  <TORSDO>
F 7

$$$$
=
 OpenBabel11062421403D

 41 47  0  0  1  0  0  0  0  0999 V2000
  192.9470  174.4490  145.0610 C   0  0  2  0  0  3  0  0  0  0  0  0
  195.6180  174.9910  144.3150 C   0  0  0  0  0  2  0  0  0  0  0  0
  194.7860  174.0690  143.4550 C   0  0  0  0  0  0  0  0  0  0  0  0
  194.0680  174.0550  141.0750 C   0  0  0  0  0  2  0  0  0  0  0  0
  194.7680  176.0480  144.8630 N   0  0  0  0  0  0  0  0  0  0  0  0
  193.5240  175.8430  145.1920 C   0  0  0  0  0  0  0  0  0  0  0  0
  192.7090  173.4300  141.4980 C   0  0  2  0  0  3  0  0  0  0  0  0
  192.6820  176.9730  145.4660 N   0  0  0  0  0  2  0  0  0  0  0  0
  193.2330  173.7270  146.2000 F   0  0  0  0  0  0  0  0  0  0  0  0
  192.6780  172.9210  142.9600 C   0  0  0  0  0  2  0  0  0  0  0  0
  193.5310  173.7790  143.8450 C   0  0  0  0  0  0  0  0  0  0  0  0
  195.2160  173.7300  142.0480 C   0  0  0  0  0  2  0  0  0  0  0  0
  189.8050  171.7030  140.7830 C   0  0  0  0  0  2  0  0  0  0  0  0
  192.3130  172.3340  140.4950 C   0  0  1  0  0  3  0  0  0  0  0  0
  190.9280  173.5850  138.7550 C   0  0  0  0  0  0  0  0  0  0  0  0
  191.2640  171.3290  141.0170 C   0  0  0  0  0  2  0  0  0  0  0  0
  189.6010  173.2010  140.8710 C   0  0  0  0  0  2  0  0  0  0  0  0
  189.8100  173.7960  139.5880 O   0  0  0  0  0  0  0  0  0  0  0  0
  192.0230  172.8970  139.1290 C   0  0  0  0  0  3  0  0  0  0  0  0
  190.9260  174.1340  137.4650 O   0  0  0  0  0  0  0  0  0  0  0  0
  189.1580  174.4780  135.9780 N   0  0  0  0  0  1  0  0  0  0  0  0
  190.2110  173.5560  136.3690 C   0  0  0  0  0  2  0  0  0  0  0  0
  191.3470  177.1200  144.9350 C   0  0  0  0  0  0  0  0  0  0  0  0
  188.7550  177.2680  143.8640 C   0  0  0  0  0  3  0  0  0  0  0  0
  191.1580  177.2580  143.5490 C   0  0  0  0  0  0  0  0  0  0  0  0
  190.2220  177.0660  145.7740 C   0  0  0  0  0  3  0  0  0  0  0  0
  188.9310  177.1380  145.2450 C   0  0  0  0  0  0  0  0  0  0  0  0
  192.2570  177.2810  142.6920 O   0  0  0  0  0  1  0  0  0  0  0  0
  189.8650  177.3290  143.0190 C   0  0  0  0  0  3  0  0  0  0  0  0
  187.5280  175.8710  147.1190 O   0  0  0  0  0  0  0  0  0  0  0  0
  187.5420  177.1490  146.3340 S   0  0  0  0  0  0  0  0  0  0  0  0
  187.6890  178.2900  147.3000 O   0  0  0  0  0  0  0  0  0  0  0  0
  185.8510  179.7930  144.4180 C   0  0  0  0  0  2  0  0  0  0  0  0
  184.5820  178.9760  144.3810 C   0  0  1  0  0  0  0  0  0  0  0  0
  184.5190  178.6600  146.4030 C   0  0  2  0  0  3  0  0  0  0  0  0
  185.6770  178.7510  145.4890 C   0  0  2  0  0  0  0  0  0  0  0  0
  186.0300  177.3390  145.4780 N   0  0  0  0  0  0  0  0  0  0  0  0
  184.9140  177.1630  146.4290 C   0  0  0  0  0  2  0  0  0  0  0  0
  183.5900  178.9500  145.3870 O   0  0  0  0  0  0  0  0  0  0  0  0
  183.8760  178.3260  142.1540 O   0  0  0  0  0  1  0  0  0  0  0  0
  184.4480  177.8560  143.3340 C   0  0  0  0  0  2  0  0  0  0  0  0
  1  6  1  0  0  0  0
  1  9  1  1  0  0  0
  2  5  1  0  0  0  0
  3 11  2  0  0  0  0
  3  2  1  0  0  0  0
  4 12  1  0  0  0  0
  5  6  2  0  0  0  0
  6  8  1  0  0  0  0
  7  4  1  6  0  0  0
  7 10  1  0  0  0  0
 10 11  1  0  0  0  0
 11  1  1  0  0  0  0
 12  3  1  0  0  0  0
 13 17  1  0  0  0  0
 13 16  1  0  0  0  0
 14 19  1  6  0  0  0
 14 16  1  0  0  0  0
 14  7  1  0  0  0  0
 15 19  2  0  0  0  0
 15 18  1  0  0  0  0
 18 17  1  0  0  0  0
 20 15  1  0  0  0  0
 21 22  1  0  0  0  0
 22 20  1  0  0  0  0
 23  8  1  0  0  0  0
 23 26  1  0  0  0  0
 24 27  1  0  0  0  0
 25 23  2  0  0  0  0
 27 26  2  0  0  0  0
 27 31  1  0  0  0  0
 28 25  1  0  0  0  0
 29 25  1  0  0  0  0
 29 24  2  0  0  0  0
 31 30  2  0  0  0  0
 31 32  2  0  0  0  0
 34 41  1  6  0  0  0
 34 33  1  0  0  0  0
 34 39  1  0  0  0  0
 34 36  1  0  0  0  0
 35 38  1  6  0  0  0
 36 33  1  1  0  0  0
 36 35  1  0  0  0  0
 37 36  1  0  0  0  0
 37 31  1  0  0  0  0
 37 38  1  0  0  0  0
 39 35  1  0  0  0  0
 40 41  1  0  0  0  0
M  END
>  <MODEL>
4

>  <REMARK>
 VINA RESULT:      -7.5      1.680      2.561
  Name = 
  7 active torsions:
  status: ('A' for Active; 'I' for Inactive)
    1  A    between atoms: C_2  and  C_11
    2  A    between atoms: C_4  and  C_35
    3  A    between atoms: O_14  and  C_17
    4  A    between atoms: O_14  and  C_41
    5  A    between atoms: S_16  and  N_19
    6  A    between atoms: S_16  and  C_33
    7  A    between atoms: C_20  and  N_22
                            x       y       z     vdW  Elec       q    Type
                         _______ _______ _______ _____ _____    ______ ____

>  <TORSDO>
F 7

$$$$
=
 OpenBabel11062421403D

 41 47  0  0  1  0  0  0  0  0999 V2000
  190.9380  173.6910  140.6630 C   0  0  2  0  0  3  0  0  0  0  0  0
  191.7360  170.9820  140.7150 C   0  0  0  0  0  2  0  0  0  0  0  0
  192.7390  172.0510  141.0760 C   0  0  0  0  0  0  0  0  0  0  0  0
  194.1320  172.5550  143.0730 C   0  0  0  0  0  2  0  0  0  0  0  0
  190.4080  171.3770  141.1860 N   0  0  0  0  0  0  0  0  0  0  0  0
  190.0160  172.6200  141.2030 C   0  0  0  0  0  0  0  0  0  0  0  0
  193.9430  174.0760  142.8090 C   0  0  2  0  0  3  0  0  0  0  0  0
  188.8190  172.9600  141.9200 N   0  0  0  0  0  2  0  0  0  0  0  0
  190.7720  173.7920  139.2970 F   0  0  0  0  0  0  0  0  0  0  0  0
  193.3320  174.4040  141.4260 C   0  0  0  0  0  2  0  0  0  0  0  0
  192.3630  173.3420  141.0010 C   0  0  0  0  0  0  0  0  0  0  0  0
  194.0170  171.6980  141.8000 C   0  0  0  0  0  2  0  0  0  0  0  0
  194.9590  176.7590  144.7320 C   0  0  0  0  0  2  0  0  0  0  0  0
  195.2770  174.8060  143.0420 C   0  0  1  0  0  3  0  0  0  0  0  0
  195.9900  174.0290  145.3650 C   0  0  0  0  0  0  0  0  0  0  0  0
  195.1470  176.3260  143.2830 C   0  0  0  0  0  2  0  0  0  0  0  0
  194.1420  175.7470  145.5060 C   0  0  0  0  0  2  0  0  0  0  0  0
  195.0030  174.7530  146.0660 O   0  0  0  0  0  0  0  0  0  0  0  0
  196.1520  174.0830  144.0300 C   0  0  0  0  0  3  0  0  0  0  0  0
  196.8480  173.1840  146.0820 O   0  0  0  0  0  0  0  0  0  0  0  0
  195.7780  171.1120  145.9670 N   0  0  0  0  0  1  0  0  0  0  0  0
  197.0390  171.8030  145.7600 C   0  0  0  0  0  2  0  0  0  0  0  0
  188.7200  174.0890  142.8160 C   0  0  0  0  0  0  0  0  0  0  0  0
  188.6540  176.3290  144.5070 C   0  0  0  0  0  3  0  0  0  0  0  0
  189.4640  174.1000  144.0070 C   0  0  0  0  0  0  0  0  0  0  0  0
  187.9380  175.2080  142.4890 C   0  0  0  0  0  3  0  0  0  0  0  0
  187.9030  176.3250  143.3270 C   0  0  0  0  0  0  0  0  0  0  0  0
  190.2740  173.0150  144.3380 O   0  0  0  0  0  1  0  0  0  0  0  0
  189.4310  175.2200  144.8460 C   0  0  0  0  0  3  0  0  0  0  0  0
  187.5910  178.6330  142.0390 O   0  0  0  0  0  0  0  0  0  0  0  0
  186.8470  177.6820  142.9280 S   0  0  0  0  0  0  0  0  0  0  0  0
  185.6570  177.1670  142.1700 O   0  0  0  0  0  0  0  0  0  0  0  0
  185.1920  176.7910  146.0890 C   0  0  0  0  0  2  0  0  0  0  0  0
  184.9690  178.2510  146.4010 C   0  0  1  0  0  0  0  0  0  0  0  0
  184.0870  178.6810  144.6050 C   0  0  2  0  0  3  0  0  0  0  0  0
  185.1850  177.7460  144.9260 C   0  0  2  0  0  0  0  0  0  0  0  0
  186.2760  178.5190  144.3530 N   0  0  0  0  0  0  0  0  0  0  0  0
  185.2370  179.4900  143.9560 C   0  0  0  0  0  2  0  0  0  0  0  0
  183.8820  179.0320  145.9520 O   0  0  0  0  0  0  0  0  0  0  0  0
  186.9160  178.2890  147.8480 O   0  0  0  0  0  1  0  0  0  0  0  0
  186.1250  179.0670  147.0060 C   0  0  0  0  0  2  0  0  0  0  0  0
  1  9  1  6  0  0  0
  1 11  1  0  0  0  0
  1  6  1  0  0  0  0
  2  3  1  0  0  0  0
  2  5  1  0  0  0  0
  3 12  1  0  0  0  0
  5  6  2  0  0  0  0
  6  8  1  0  0  0  0
  7 10  1  6  0  0  0
  7 14  1  0  0  0  0
  7  4  1  0  0  0  0
  8 23  1  0  0  0  0
 11  3  2  0  0  0  0
 11 10  1  0  0  0  0
 12  4  1  0  0  0  0
 13 17  1  0  0  0  0
 14 16  1  1  0  0  0
 14 19  1  0  0  0  0
 15 18  1  0  0  0  0
 15 20  1  0  0  0  0
 16 13  1  0  0  0  0
 17 18  1  0  0  0  0
 19 15  2  0  0  0  0
 22 21  1  0  0  0  0
 22 20  1  0  0  0  0
 23 25  1  0  0  0  0
 24 29  1  0  0  0  0
 25 28  1  0  0  0  0
 25 29  2  0  0  0  0
 26 23  2  0  0  0  0
 26 27  1  0  0  0  0
 27 24  2  0  0  0  0
 30 31  2  0  0  0  0
 31 27  1  0  0  0  0
 31 37  1  0  0  0  0
 32 31  2  0  0  0  0
 33 34  1  0  0  0  0
 34 41  1  1  0  0  0
 35 38  1  6  0  0  0
 35 36  1  0  0  0  0
 35 39  1  0  0  0  0
 36 33  1  6  0  0  0
 36 34  1  0  0  0  0
 37 36  1  0  0  0  0
 38 37  1  0  0  0  0
 39 34  1  0  0  0  0
 41 40  1  0  0  0  0
M  END
>  <MODEL>
5

>  <REMARK>
 VINA RESULT:      -7.5      2.760      5.405
  Name = 
  7 active torsions:
  status: ('A' for Active; 'I' for Inactive)
    1  A    between atoms: C_2  and  C_11
    2  A    between atoms: C_4  and  C_35
    3  A    between atoms: O_14  and  C_17
    4  A    between atoms: O_14  and  C_41
    5  A    between atoms: S_16  and  N_19
    6  A    between atoms: S_16  and  C_33
    7  A    between atoms: C_20  and  N_22
                            x       y       z     vdW  Elec       q    Type
                         _______ _______ _______ _____ _____    ______ ____

>  <TORSDO>
F 7

$$$$
=
 OpenBabel11062421403D

 41 47  0  0  1  0  0  0  0  0999 V2000
  192.4650  175.4420  144.2650 C   0  0  2  0  0  3  0  0  0  0  0  0
  192.3240  176.0250  147.0250 C   0  0  0  0  0  2  0  0  0  0  0  0
  191.4280  176.7750  146.0680 C   0  0  0  0  0  0  0  0  0  0  0  0
  188.9720  177.0750  145.8250 C   0  0  0  0  0  2  0  0  0  0  0  0
  192.4900  174.6480  146.5620 N   0  0  0  0  0  0  0  0  0  0  0  0
  192.5310  174.3370  145.2970 C   0  0  0  0  0  0  0  0  0  0  0  0
  189.1360  177.0870  144.2780 C   0  0  2  0  0  3  0  0  0  0  0  0
  192.4260  172.9560  144.9180 N   0  0  0  0  0  2  0  0  0  0  0  0
  193.7310  175.9440  144.0500 F   0  0  0  0  0  0  0  0  0  0  0  0
  190.6030  177.2140  143.8020 C   0  0  0  0  0  2  0  0  0  0  0  0
  191.5370  176.5250  144.7500 C   0  0  0  0  0  0  0  0  0  0  0  0
  190.2320  177.5460  146.5730 C   0  0  0  0  0  2  0  0  0  0  0  0
  187.0340  177.2840  141.5450 C   0  0  0  0  0  2  0  0  0  0  0  0
  188.2340  178.1770  143.6750 C   0  0  1  0  0  3  0  0  0  0  0  0
  185.8780  177.4170  144.2960 C   0  0  0  0  0  0  0  0  0  0  0  0
  188.1380  178.1550  142.1340 C   0  0  0  0  0  2  0  0  0  0  0  0
  186.8040  176.0460  142.3860 C   0  0  0  0  0  2  0  0  0  0  0  0
  185.8430  176.3230  143.4070 O   0  0  0  0  0  0  0  0  0  0  0  0
  186.9120  178.2750  144.3890 C   0  0  0  0  0  3  0  0  0  0  0  0
  184.7900  177.6300  145.1540 O   0  0  0  0  0  0  0  0  0  0  0  0
  184.8140  178.5600  147.2950 N   0  0  0  0  0  1  0  0  0  0  0  0
  184.8190  177.3140  146.5490 C   0  0  0  0  0  2  0  0  0  0  0  0
  191.5700  172.4850  143.8540 C   0  0  0  0  0  0  0  0  0  0  0  0
  189.8570  171.7020  141.7720 C   0  0  0  0  0  3  0  0  0  0  0  0
  190.2050  172.2670  144.1030 C   0  0  0  0  0  0  0  0  0  0  0  0
  192.0650  172.2980  142.5530 C   0  0  0  0  0  3  0  0  0  0  0  0
  191.2150  171.9100  141.5140 C   0  0  0  0  0  0  0  0  0  0  0  0
  189.6830  172.4780  145.3780 O   0  0  0  0  0  1  0  0  0  0  0  0
  189.3530  171.8800  143.0620 C   0  0  0  0  0  3  0  0  0  0  0  0
  193.3450  171.9430  139.9180 O   0  0  0  0  0  0  0  0  0  0  0  0
  191.8840  171.6040  139.9090 S   0  0  0  0  0  0  0  0  0  0  0  0
  191.7450  170.1420  139.5930 O   0  0  0  0  0  0  0  0  0  0  0  0
  189.9800  170.8780  136.8480 C   0  0  0  0  0  2  0  0  0  0  0  0
  189.9880  172.3420  136.4780 C   0  0  1  0  0  0  0  0  0  0  0  0
  192.0150  172.5590  136.6690 C   0  0  2  0  0  3  0  0  0  0  0  0
  191.0690  171.7290  137.4440 C   0  0  2  0  0  0  0  0  0  0  0  0
  191.0670  172.5200  138.6650 N   0  0  0  0  0  0  0  0  0  0  0  0
  192.0500  173.3830  137.9800 C   0  0  0  0  0  2  0  0  0  0  0  0
  191.0210  173.0080  135.7820 O   0  0  0  0  0  0  0  0  0  0  0  0
  189.0030  174.5560  136.5710 O   0  0  0  0  0  1  0  0  0  0  0  0
  188.9600  173.2820  137.1330 C   0  0  0  0  0  2  0  0  0  0  0  0
  1  9  1  1  0  0  0
  1 11  1  0  0  0  0
  1  6  1  0  0  0  0
  3 12  1  0  0  0  0
  3  2  1  0  0  0  0
  4 12  1  0  0  0  0
  5  2  1  0  0  0  0
  6  5  2  0  0  0  0
  7 10  1  1  0  0  0
  7  4  1  0  0  0  0
  8  6  1  0  0  0  0
 10 11  1  0  0  0  0
 11  3  2  0  0  0  0
 13 16  1  0  0  0  0
 13 17  1  0  0  0  0
 14 16  1  6  0  0  0
 14  7  1  0  0  0  0
 14 19  1  0  0  0  0
 15 19  2  0  0  0  0
 15 20  1  0  0  0  0
 17 18  1  0  0  0  0
 18 15  1  0  0  0  0
 20 22  1  0  0  0  0
 22 21  1  0  0  0  0
 23 25  1  0  0  0  0
 23  8  1  0  0  0  0
 24 29  1  0  0  0  0
 25 28  1  0  0  0  0
 26 23  2  0  0  0  0
 27 24  2  0  0  0  0
 27 26  1  0  0  0  0
 29 25  2  0  0  0  0
 31 30  2  0  0  0  0
 31 27  1  0  0  0  0
 32 31  2  0  0  0  0
 34 33  1  0  0  0  0
 34 41  1  1  0  0  0
 34 36  1  0  0  0  0
 35 36  1  0  0  0  0
 35 38  1  1  0  0  0
 36 33  1  1  0  0  0
 36 37  1  0  0  0  0
 37 31  1  0  0  0  0
 38 37  1  0  0  0  0
 39 34  1  0  0  0  0
 39 35  1  0  0  0  0
 40 41  1  0  0  0  0
M  END
>  <MODEL>
6

>  <REMARK>
 VINA RESULT:      -7.3      2.625      7.576
  Name = 
  7 active torsions:
  status: ('A' for Active; 'I' for Inactive)
    1  A    between atoms: C_2  and  C_11
    2  A    between atoms: C_4  and  C_35
    3  A    between atoms: O_14  and  C_17
    4  A    between atoms: O_14  and  C_41
    5  A    between atoms: S_16  and  N_19
    6  A    between atoms: S_16  and  C_33
    7  A    between atoms: C_20  and  N_22
                            x       y       z     vdW  Elec       q    Type
                         _______ _______ _______ _____ _____    ______ ____

>  <TORSDO>
F 7

$$$$
=
 OpenBabel11062421403D

 41 47  0  0  1  0  0  0  0  0999 V2000
  193.3900  170.7750  141.9290 C   0  0  2  0  0  3  0  0  0  0  0  0
  193.5500  168.9330  144.0650 C   0  0  0  0  0  2  0  0  0  0  0  0
  194.2970  170.2420  144.1640 C   0  0  0  0  0  0  0  0  0  0  0  0
  194.2860  172.1590  145.7470 C   0  0  0  0  0  2  0  0  0  0  0  0
  192.2890  169.1430  143.3540 N   0  0  0  0  0  0  0  0  0  0  0  0
  192.1690  170.0040  142.3830 C   0  0  0  0  0  0  0  0  0  0  0  0
  194.5400  173.1300  144.5590 C   0  0  2  0  0  3  0  0  0  0  0  0
  190.8560  170.3470  141.9170 N   0  0  0  0  0  2  0  0  0  0  0  0
  194.0880  170.0240  141.0060 F   0  0  0  0  0  0  0  0  0  0  0  0
  194.9350  172.4220  143.2410 C   0  0  0  0  0  2  0  0  0  0  0  0
  194.2540  171.0920  143.1200 C   0  0  0  0  0  0  0  0  0  0  0  0
  194.8160  170.7370  145.4930 C   0  0  0  0  0  2  0  0  0  0  0  0
  195.6620  176.1060  143.2140 C   0  0  0  0  0  2  0  0  0  0  0  0
  195.5690  174.1940  144.9760 C   0  0  1  0  0  3  0  0  0  0  0  0
  194.1280  176.1420  145.7760 C   0  0  0  0  0  0  0  0  0  0  0  0
  196.3180  174.8630  143.8030 C   0  0  0  0  0  2  0  0  0  0  0  0
  194.1520  176.0020  143.2530 C   0  0  0  0  0  2  0  0  0  0  0  0
  193.6610  176.5080  144.4960 O   0  0  0  0  0  0  0  0  0  0  0  0
  195.0110  175.1500  145.9960 C   0  0  0  0  0  3  0  0  0  0  0  0
  193.6400  176.8270  146.8970 O   0  0  0  0  0  0  0  0  0  0  0  0
  191.8950  175.2980  147.1610 N   0  0  0  0  0  1  0  0  0  0  0  0
  192.3060  176.6720  147.3910 C   0  0  0  0  0  2  0  0  0  0  0  0
  190.4260  171.7050  141.6730 C   0  0  0  0  0  0  0  0  0  0  0  0
  189.4590  174.2940  141.1760 C   0  0  0  0  0  3  0  0  0  0  0  0
  190.2210  172.1450  140.3540 C   0  0  0  0  0  0  0  0  0  0  0  0
  190.1490  172.5800  142.7350 C   0  0  0  0  0  3  0  0  0  0  0  0
  189.6660  173.8690  142.4920 C   0  0  0  0  0  0  0  0  0  0  0  0
  190.4570  171.2830  139.2840 O   0  0  0  0  0  1  0  0  0  0  0  0
  189.7360  173.4340  140.1110 C   0  0  0  0  0  3  0  0  0  0  0  0
  189.3140  174.1750  145.1130 O   0  0  0  0  0  0  0  0  0  0  0  0
  189.4060  174.9720  143.8450 S   0  0  0  0  0  0  0  0  0  0  0  0
  190.5870  175.8940  143.9570 O   0  0  0  0  0  0  0  0  0  0  0  0
  188.4530  178.0320  142.0430 C   0  0  0  0  0  2  0  0  0  0  0  0
  187.1270  178.0610  142.7630 C   0  0  1  0  0  0  0  0  0  0  0  0
  187.9420  177.9150  144.6350 C   0  0  2  0  0  3  0  0  0  0  0  0
  188.3730  177.3070  143.3590 C   0  0  2  0  0  0  0  0  0  0  0  0
  187.9650  175.9400  143.6440 N   0  0  0  0  0  0  0  0  0  0  0  0
  187.5430  176.4550  144.9620 C   0  0  0  0  0  2  0  0  0  0  0  0
  186.8940  178.6330  144.0340 O   0  0  0  0  0  0  0  0  0  0  0  0
  184.7570  177.5450  142.8000 O   0  0  0  0  0  1  0  0  0  0  0  0
  185.9820  177.1670  142.2550 C   0  0  0  0  0  2  0  0  0  0  0  0
  1  9  1  6  0  0  0
  1  6  1  0  0  0  0
  1 11  1  0  0  0  0
  2  3  1  0  0  0  0
  3 12  1  0  0  0  0
  5  2  1  0  0  0  0
  6  5  2  0  0  0  0
  7 10  1  6  0  0  0
  7 14  1  0  0  0  0
  7  4  1  0  0  0  0
  8  6  1  0  0  0  0
 11 10  1  0  0  0  0
 11  3  2  0  0  0  0
 12  4  1  0  0  0  0
 13 17  1  0  0  0  0
 13 16  1  0  0  0  0
 14 16  1  6  0  0  0
 14 19  1  0  0  0  0
 15 19  2  0  0  0  0
 15 20  1  0  0  0  0
 17 18  1  0  0  0  0
 18 15  1  0  0  0  0
 20 22  1  0  0  0  0
 21 22  1  0  0  0  0
 23  8  1  0  0  0  0
 23 26  1  0  0  0  0
 24 27  1  0  0  0  0
 25 23  2  0  0  0  0
 27 26  2  0  0  0  0
 27 31  1  0  0  0  0
 28 25  1  0  0  0  0
 29 25  1  0  0  0  0
 29 24  2  0  0  0  0
 31 32  2  0  0  0  0
 31 30  2  0  0  0  0
 33 34  1  0  0  0  0
 34 41  1  6  0  0  0
 34 36  1  0  0  0  0
 34 39  1  0  0  0  0
 35 38  1  1  0  0  0
 36 33  1  6  0  0  0
 36 37  1  0  0  0  0
 36 35  1  0  0  0  0
 37 31  1  0  0  0  0
 37 38  1  0  0  0  0
 39 35  1  0  0  0  0
 41 40  1  0  0  0  0
M  END
>  <MODEL>
7

>  <REMARK>
 VINA RESULT:      -7.3      2.836      6.085
  Name = 
  7 active torsions:
  status: ('A' for Active; 'I' for Inactive)
    1  A    between atoms: C_2  and  C_11
    2  A    between atoms: C_4  and  C_35
    3  A    between atoms: O_14  and  C_17
    4  A    between atoms: O_14  and  C_41
    5  A    between atoms: S_16  and  N_19
    6  A    between atoms: S_16  and  C_33
    7  A    between atoms: C_20  and  N_22
                            x       y       z     vdW  Elec       q    Type
                         _______ _______ _______ _____ _____    ______ ____

>  <TORSDO>
F 7

$$$$
=
 OpenBabel11062421403D

 41 47  0  0  1  0  0  0  0  0999 V2000
  195.1590  174.3820  143.4370 C   0  0  2  0  0  3  0  0  0  0  0  0
  196.3230  175.5770  141.1570 C   0  0  0  0  0  2  0  0  0  0  0  0
  195.3880  174.4050  140.9770 C   0  0  0  0  0  0  0  0  0  0  0  0
  193.2560  174.0240  139.7570 C   0  0  0  0  0  2  0  0  0  0  0  0
  195.8670  176.3990  142.2780 N   0  0  0  0  0  0  0  0  0  0  0  0
  195.3000  175.8860  143.3340 C   0  0  0  0  0  0  0  0  0  0  0  0
  192.7790  173.0850  140.9000 C   0  0  2  0  0  3  0  0  0  0  0  0
  194.6420  176.7610  144.2630 N   0  0  0  0  0  2  0  0  0  0  0  0
  196.3200  173.8490  143.9590 F   0  0  0  0  0  0  0  0  0  0  0  0
  193.8950  172.6930  141.8990 C   0  0  0  0  0  2  0  0  0  0  0  0
  194.8770  173.8110  142.0730 C   0  0  0  0  0  0  0  0  0  0  0  0
  194.7880  174.0950  139.6260 C   0  0  0  0  0  2  0  0  0  0  0  0
  190.8250  170.5240  142.1460 C   0  0  0  0  0  2  0  0  0  0  0  0
  192.0840  171.8530  140.2960 C   0  0  1  0  0  3  0  0  0  0  0  0
  189.6180  172.5090  140.2700 C   0  0  0  0  0  0  0  0  0  0  0  0
  192.0350  170.6190  141.2230 C   0  0  0  0  0  2  0  0  0  0  0  0
  190.3720  171.8940  142.6020 C   0  0  0  0  0  2  0  0  0  0  0  0
  189.4360  172.4340  141.6660 O   0  0  0  0  0  0  0  0  0  0  0  0
  190.7730  172.2070  139.6470 C   0  0  0  0  0  3  0  0  0  0  0  0
  188.5510  172.9410  139.4690 O   0  0  0  0  0  0  0  0  0  0  0  0
  187.8650  174.5380  137.9100 N   0  0  0  0  0  1  0  0  0  0  0  0
  188.7120  173.3750  138.1160 C   0  0  0  0  0  2  0  0  0  0  0  0
  193.3330  176.4990  144.8130 C   0  0  0  0  0  0  0  0  0  0  0  0
  190.7740  176.1320  145.9090 C   0  0  0  0  0  3  0  0  0  0  0  0
  193.1560  176.4640  146.2070 C   0  0  0  0  0  0  0  0  0  0  0  0
  192.2140  176.3400  143.9800 C   0  0  0  0  0  3  0  0  0  0  0  0
  190.9390  176.1590  144.5210 C   0  0  0  0  0  0  0  0  0  0  0  0
  194.2450  176.6520  147.0560 O   0  0  0  0  0  1  0  0  0  0  0  0
  191.8790  176.2830  146.7490 C   0  0  0  0  0  3  0  0  0  0  0  0
  190.0800  175.5720  142.0710 O   0  0  0  0  0  0  0  0  0  0  0  0
  189.5660  175.8800  143.4460 S   0  0  0  0  0  0  0  0  0  0  0  0
  188.7980  174.6860  143.9360 O   0  0  0  0  0  0  0  0  0  0  0  0
  185.9390  176.4310  143.2080 C   0  0  0  0  0  2  0  0  0  0  0  0
  186.1620  177.9080  142.9870 C   0  0  1  0  0  0  0  0  0  0  0  0
  187.4930  177.6550  141.4520 C   0  0  2  0  0  3  0  0  0  0  0  0
  187.2820  176.8470  142.6710 C   0  0  2  0  0  0  0  0  0  0  0  0
  188.4830  177.2500  143.3850 N   0  0  0  0  0  0  0  0  0  0  0  0
  188.7940  178.0560  142.1880 C   0  0  0  0  0  2  0  0  0  0  0  0
  186.4250  178.5220  141.7420 O   0  0  0  0  0  0  0  0  0  0  0  0
  185.4850  178.5930  145.2130 O   0  0  0  0  0  1  0  0  0  0  0  0
  186.4200  178.8130  144.2040 C   0  0  0  0  0  2  0  0  0  0  0  0
  1  9  1  6  0  0  0
  2  5  1  0  0  0  0
  3  2  1  0  0  0  0
  3 11  2  0  0  0  0
  5  6  2  0  0  0  0
  6  1  1  0  0  0  0
  6  8  1  0  0  0  0
  7  4  1  6  0  0  0
  7 10  1  0  0  0  0
  8 23  1  0  0  0  0
 10 11  1  0  0  0  0
 11  1  1  0  0  0  0
 12  4  1  0  0  0  0
 12  3  1  0  0  0  0
 13 17  1  0  0  0  0
 14 19  1  1  0  0  0
 14  7  1  0  0  0  0
 14 16  1  0  0  0  0
 15 18  1  0  0  0  0
 16 13  1  0  0  0  0
 18 17  1  0  0  0  0
 19 15  2  0  0  0  0
 20 15  1  0  0  0  0
 21 22  1  0  0  0  0
 22 20  1  0  0  0  0
 23 25  1  0  0  0  0
 24 29  1  0  0  0  0
 25 29  2  0  0  0  0
 25 28  1  0  0  0  0
 26 27  1  0  0  0  0
 26 23  2  0  0  0  0
 27 24  2  0  0  0  0
 30 31  2  0  0  0  0
 31 32  2  0  0  0  0
 31 27  1  0  0  0  0
 34 33  1  0  0  0  0
 34 41  1  1  0  0  0
 35 39  1  0  0  0  0
 35 38  1  1  0  0  0
 35 36  1  0  0  0  0
 36 34  1  0  0  0  0
 36 33  1  6  0  0  0
 36 37  1  0  0  0  0
 37 31  1  0  0  0  0
 38 37  1  0  0  0  0
 39 34  1  0  0  0  0
 41 40  1  0  0  0  0
M  END
>  <MODEL>
8

>  <REMARK>
 VINA RESULT:      -7.3      1.644      2.143
  Name = 
  7 active torsions:
  status: ('A' for Active; 'I' for Inactive)
    1  A    between atoms: C_2  and  C_11
    2  A    between atoms: C_4  and  C_35
    3  A    between atoms: O_14  and  C_17
    4  A    between atoms: O_14  and  C_41
    5  A    between atoms: S_16  and  N_19
    6  A    between atoms: S_16  and  C_33
    7  A    between atoms: C_20  and  N_22
                            x       y       z     vdW  Elec       q    Type
                         _______ _______ _______ _____ _____    ______ ____

>  <TORSDO>
F 7

$$$$
=
 OpenBabel11062421403D

 41 47  0  0  1  0  0  0  0  0999 V2000
  194.3300  174.6160  145.2640 C   0  0  2  0  0  3  0  0  0  0  0  0
  195.9140  176.4760  143.8440 C   0  0  0  0  0  2  0  0  0  0  0  0
  195.4440  175.2220  143.1440 C   0  0  0  0  0  0  0  0  0  0  0  0
  194.0920  174.7430  141.1130 C   0  0  0  0  0  2  0  0  0  0  0  0
  194.8810  176.9330  144.7730 N   0  0  0  0  0  0  0  0  0  0  0  0
  194.1120  176.1060  145.4240 C   0  0  0  0  0  0  0  0  0  0  0  0
  193.4790  173.5040  141.8250 C   0  0  2  0  0  3  0  0  0  0  0  0
  192.9570  176.6200  146.1040 N   0  0  0  0  0  2  0  0  0  0  0  0
  195.3060  174.1990  146.1430 F   0  0  0  0  0  0  0  0  0  0  0  0
  194.2030  173.1090  143.1350 C   0  0  0  0  0  2  0  0  0  0  0  0
  194.7310  174.3200  143.8430 C   0  0  0  0  0  0  0  0  0  0  0  0
  195.4900  175.1160  141.6380 C   0  0  0  0  0  2  0  0  0  0  0  0
  192.1950  170.3000  141.9280 C   0  0  0  0  0  2  0  0  0  0  0  0
  193.3960  172.3320  140.8330 C   0  0  1  0  0  3  0  0  0  0  0  0
  190.9460  172.3220  140.1190 C   0  0  0  0  0  0  0  0  0  0  0  0
  193.5060  170.9320  141.4760 C   0  0  0  0  0  2  0  0  0  0  0  0
  191.2250  171.3470  142.4340 C   0  0  0  0  0  2  0  0  0  0  0  0
  190.4420  171.8500  141.3490 O   0  0  0  0  0  0  0  0  0  0  0  0
  192.2570  172.4930  139.8630 C   0  0  0  0  0  3  0  0  0  0  0  0
  190.0440  172.6560  139.1000 O   0  0  0  0  0  0  0  0  0  0  0  0
  188.2950  173.9130  138.1980 N   0  0  0  0  0  1  0  0  0  0  0  0
  188.7210  173.1390  139.3520 C   0  0  0  0  0  2  0  0  0  0  0  0
  191.6490  176.0120  146.0250 C   0  0  0  0  0  0  0  0  0  0  0  0
  189.0500  174.9570  145.9030 C   0  0  0  0  0  3  0  0  0  0  0  0
  190.9650  175.6740  147.2040 C   0  0  0  0  0  0  0  0  0  0  0  0
  191.0180  175.8060  144.7870 C   0  0  0  0  0  3  0  0  0  0  0  0
  189.7240  175.2830  144.7230 C   0  0  0  0  0  0  0  0  0  0  0  0
  191.5560  175.8990  148.4460 O   0  0  0  0  0  1  0  0  0  0  0  0
  189.6680  175.1510  147.1400 C   0  0  0  0  0  3  0  0  0  0  0  0
  190.0450  175.0800  142.0880 O   0  0  0  0  0  0  0  0  0  0  0  0
  188.9910  174.9610  143.1490 S   0  0  0  0  0  0  0  0  0  0  0  0
  188.4690  173.5530  143.1340 O   0  0  0  0  0  0  0  0  0  0  0  0
  188.5680  178.2880  141.6410 C   0  0  0  0  0  2  0  0  0  0  0  0
  187.1240  178.3180  142.0770 C   0  0  1  0  0  0  0  0  0  0  0  0
  187.5220  177.8740  144.0350 C   0  0  2  0  0  3  0  0  0  0  0  0
  188.1840  177.4070  142.7990 C   0  0  2  0  0  0  0  0  0  0  0  0
  187.6670  176.0470  142.8000 N   0  0  0  0  0  0  0  0  0  0  0  0
  187.0020  176.4160  144.0660 C   0  0  0  0  0  2  0  0  0  0  0  0
  186.6550  178.7370  143.3420 O   0  0  0  0  0  0  0  0  0  0  0  0
  184.8260  178.1970  141.3080 O   0  0  0  0  0  1  0  0  0  0  0  0
  186.0730  177.5810  141.2280 C   0  0  0  0  0  2  0  0  0  0  0  0
  1  6  1  0  0  0  0
  1  9  1  1  0  0  0
  2  5  1  0  0  0  0
  3 11  2  0  0  0  0
  3  2  1  0  0  0  0
  4 12  1  0  0  0  0
  5  6  2  0  0  0  0
  6  8  1  0  0  0  0
  7  4  1  6  0  0  0
  7 10  1  0  0  0  0
 10 11  1  0  0  0  0
 11  1  1  0  0  0  0
 12  3  1  0  0  0  0
 13 17  1  0  0  0  0
 14 19  1  1  0  0  0
 14 16  1  0  0  0  0
 14  7  1  0  0  0  0
 15 18  1  0  0  0  0
 16 13  1  0  0  0  0
 18 17  1  0  0  0  0
 19 15  2  0  0  0  0
 20 22  1  0  0  0  0
 20 15  1  0  0  0  0
 21 22  1  0  0  0  0
 23  8  1  0  0  0  0
 23 25  1  0  0  0  0
 24 29  1  0  0  0  0
 25 28  1  0  0  0  0
 26 23  2  0  0  0  0
 27 26  1  0  0  0  0
 27 24  2  0  0  0  0
 29 25  2  0  0  0  0
 30 31  2  0  0  0  0
 31 27  1  0  0  0  0
 32 31  2  0  0  0  0
 33 34  1  0  0  0  0
 34 41  1  6  0  0  0
 34 36  1  0  0  0  0
 34 39  1  0  0  0  0
 35 38  1  6  0  0  0
 36 33  1  6  0  0  0
 36 37  1  0  0  0  0
 36 35  1  0  0  0  0
 37 31  1  0  0  0  0
 37 38  1  0  0  0  0
 39 35  1  0  0  0  0
 41 40  1  0  0  0  0
M  END
>  <MODEL>
9

>  <REMARK>
 VINA RESULT:      -7.2      1.683      2.221
  Name = 
  7 active torsions:
  status: ('A' for Active; 'I' for Inactive)
    1  A    between atoms: C_2  and  C_11
    2  A    between atoms: C_4  and  C_35
    3  A    between atoms: O_14  and  C_17
    4  A    between atoms: O_14  and  C_41
    5  A    between atoms: S_16  and  N_19
    6  A    between atoms: S_16  and  C_33
    7  A    between atoms: C_20  and  N_22
                            x       y       z     vdW  Elec       q    Type
                         _______ _______ _______ _____ _____    ______ ____

>  <TORSDO>
F 7

$$$$
