=
 OpenBabel11062420553D

 31 36  0  0  1  0  0  0  0  0999 V2000
  193.6510  173.1430  144.4980 N   0  0  0  0  0  1  0  0  0  0  0  0
  191.0280  174.9300  147.3710 O   0  0  0  0  0  0  0  0  0  0  0  0
  190.0010  176.8430  146.4740 C   0  0  1  0  0  3  0  0  0  0  0  0
  191.4690  173.7550  145.3970 C   0  0  0  0  0  2  0  0  0  0  0  0
  189.7780  175.4250  147.0210 C   0  0  1  0  0  3  0  0  0  0  0  0
  193.1980  175.5500  144.7410 C   0  0  2  0  0  3  0  0  0  0  0  0
  190.9090  176.2760  145.3730 C   0  0  1  0  0  3  0  0  0  0  0  0
  192.3880  176.6150  145.4990 C   0  0  0  0  0  2  0  0  0  0  0  0
  190.7080  174.9260  145.9880 C   0  0  1  0  0  0  0  0  0  0  0  0
  192.9620  174.1300  145.3110 C   0  0  2  0  0  3  0  0  0  0  0  0
  184.9030  178.7750  144.4060 C   0  0  0  0  0  0  0  0  0  0  0  0
  184.1470  178.2180  143.3720 O   0  0  0  0  0  1  0  0  0  0  0  0
  186.1430  177.9350  144.7370 C   0  0  1  0  0  0  0  0  0  0  0  0
  184.0910  178.8030  145.7080 C   0  0  0  0  0  2  0  0  0  0  0  0
  188.7090  177.4150  145.9470 C   0  0  0  0  0  0  0  0  0  0  0  0
  187.4100  178.2750  143.9490 C   0  0  0  0  0  2  0  0  0  0  0  0
  187.4700  177.4740  146.8340 C   0  0  0  0  0  2  0  0  0  0  0  0
  186.3900  178.3260  146.1770 C   0  0  2  0  0  3  0  0  0  0  0  0
  188.6480  177.7150  144.6280 C   0  0  0  0  0  3  0  0  0  0  0  0
  185.2600  180.0830  144.0650 O   0  0  0  0  0  1  0  0  0  0  0  0
  185.8390  176.4330  144.5970 C   0  0  0  0  0  1  0  0  0  0  0  0
  185.0310  178.3640  146.8340 C   0  0  0  0  0  2  0  0  0  0  0  0
  194.9690  175.9810  144.8200 S   0  0  0  0  0  0  0  0  0  0  0  0
  195.1190  176.4490  143.0580 C   0  0  1  0  0  3  0  0  0  0  0  0
  196.7230  175.4130  141.2590 C   0  0  2  0  0  3  0  0  0  0  0  0
  194.2510  175.4010  140.9670 C   0  0  0  0  0  3  0  0  0  0  0  0
  197.4790  176.6640  143.1220 O   0  0  0  0  0  0  0  0  0  0  0  0
  195.5670  175.6590  140.2920 C   0  0  0  0  0  2  0  0  0  0  0  0
  196.5160  176.2120  142.5210 C   0  0  0  0  0  0  0  0  0  0  0  0
  197.9100  175.7700  140.6470 F   0  0  0  0  0  0  0  0  0  0  0  0
  194.0460  175.7720  142.2380 C   0  0  0  0  0  3  0  0  0  0  0  0
  3 15  1  6  0  0  0
  3  5  1  0  0  0  0
  5  2  1  1  0  0  0
  6 23  1  1  0  0  0
  6 10  1  0  0  0  0
  6  8  1  0  0  0  0
  7  8  1  1  0  0  0
  7  9  1  0  0  0  0
  7  3  1  0  0  0  0
  9  4  1  6  0  0  0
  9  5  1  0  0  0  0
  9  2  1  0  0  0  0
 10  1  1  6  0  0  0
 10  4  1  0  0  0  0
 11 13  1  0  0  0  0
 11 14  1  0  0  0  0
 12 11  1  0  0  0  0
 13 21  1  6  0  0  0
 13 18  1  0  0  0  0
 14 22  1  0  0  0  0
 15 17  1  0  0  0  0
 16 19  1  0  0  0  0
 16 13  1  0  0  0  0
 18 17  1  1  0  0  0
 18 22  1  0  0  0  0
 19 15  2  0  0  0  0
 20 11  1  0  0  0  0
 24 23  1  1  0  0  0
 25 30  1  6  0  0  0
 25 29  1  0  0  0  0
 26 31  2  0  0  0  0
 28 26  1  0  0  0  0
 28 25  1  0  0  0  0
 29 24  1  0  0  0  0
 29 27  2  0  0  0  0
 31 24  1  0  0  0  0
M  END
>  <MODEL>
1

>  <REMARK>
 VINA RESULT:      -8.8      0.000      0.000
  Name = 
  3 active torsions:
  status: ('A' for Active; 'I' for Inactive)
    1  A    between atoms: S_2  and  C_6
    2  A    between atoms: S_2  and  C_17
    3  A    between atoms: C_9  and  C_15
                            x       y       z     vdW  Elec       q    Type
                         _______ _______ _______ _____ _____    ______ ____

>  <TORSDO>
F 3

$$$$
=
 OpenBabel11062420553D

 31 36  0  0  1  0  0  0  0  0999 V2000
  191.6880  171.1590  143.6310 N   0  0  0  0  0  1  0  0  0  0  0  0
  190.6770  174.2160  146.4520 O   0  0  0  0  0  0  0  0  0  0  0  0
  189.8330  176.1110  145.3510 C   0  0  1  0  0  3  0  0  0  0  0  0
  190.1410  172.5710  144.8780 C   0  0  0  0  0  2  0  0  0  0  0  0
  189.5190  174.9740  146.3350 C   0  0  1  0  0  3  0  0  0  0  0  0
  191.8710  173.5860  143.2610 C   0  0  2  0  0  3  0  0  0  0  0  0
  190.1560  175.0790  144.2610 C   0  0  1  0  0  3  0  0  0  0  0  0
  191.6230  174.9800  143.8610 C   0  0  0  0  0  2  0  0  0  0  0  0
  189.9010  174.0130  145.2810 C   0  0  1  0  0  0  0  0  0  0  0  0
  191.5520  172.4560  144.2700 C   0  0  2  0  0  3  0  0  0  0  0  0
  184.8980  178.9720  144.1400 C   0  0  0  0  0  0  0  0  0  0  0  0
  184.0470  178.7620  143.0520 O   0  0  0  0  0  1  0  0  0  0  0  0
  186.0520  177.9610  144.1790 C   0  0  1  0  0  0  0  0  0  0  0  0
  184.1450  178.7560  145.4590 C   0  0  0  0  0  2  0  0  0  0  0  0
  188.5910  176.9160  145.0610 C   0  0  0  0  0  0  0  0  0  0  0  0
  187.3170  178.3620  143.4160 C   0  0  0  0  0  2  0  0  0  0  0  0
  187.4010  176.8730  146.0130 C   0  0  0  0  0  2  0  0  0  0  0  0
  186.3950  177.9600  145.6510 C   0  0  2  0  0  3  0  0  0  0  0  0
  188.5120  177.5360  143.8590 C   0  0  0  0  0  3  0  0  0  0  0  0
  185.3810  180.2830  144.1020 O   0  0  0  0  0  1  0  0  0  0  0  0
  185.5810  176.5760  143.7010 C   0  0  0  0  0  1  0  0  0  0  0  0
  185.0750  177.9650  146.3840 C   0  0  0  0  0  2  0  0  0  0  0  0
  193.6060  173.4760  142.7090 S   0  0  0  0  0  0  0  0  0  0  0  0
  194.3250  173.4080  144.3900 C   0  0  1  0  0  3  0  0  0  0  0  0
  196.6850  172.4970  145.0840 C   0  0  2  0  0  3  0  0  0  0  0  0
  196.0000  174.8430  145.5560 C   0  0  0  0  0  3  0  0  0  0  0  0
  194.9530  171.1270  144.2320 O   0  0  0  0  0  0  0  0  0  0  0  0
  196.6550  173.6160  146.1230 C   0  0  0  0  0  2  0  0  0  0  0  0
  195.2960  172.2560  144.5490 C   0  0  0  0  0  0  0  0  0  0  0  0
  197.1870  171.3490  145.6700 F   0  0  0  0  0  0  0  0  0  0  0  0
  194.9230  174.7430  144.7650 C   0  0  0  0  0  3  0  0  0  0  0  0
  3 15  1  6  0  0  0
  3  5  1  0  0  0  0
  5  2  1  1  0  0  0
  6 23  1  1  0  0  0
  6  8  1  0  0  0  0
  6 10  1  0  0  0  0
  7  8  1  1  0  0  0
  7  9  1  0  0  0  0
  7  3  1  0  0  0  0
  9  4  1  6  0  0  0
  9  5  1  0  0  0  0
  9  2  1  0  0  0  0
 10  1  1  6  0  0  0
 10  4  1  0  0  0  0
 11 13  1  0  0  0  0
 11 14  1  0  0  0  0
 12 11  1  0  0  0  0
 13 21  1  6  0  0  0
 13 18  1  0  0  0  0
 14 22  1  0  0  0  0
 15 17  1  0  0  0  0
 16 19  1  0  0  0  0
 16 13  1  0  0  0  0
 18 17  1  1  0  0  0
 18 22  1  0  0  0  0
 19 15  2  0  0  0  0
 20 11  1  0  0  0  0
 24 23  1  6  0  0  0
 24 29  1  0  0  0  0
 24 31  1  0  0  0  0
 25 30  1  1  0  0  0
 25 28  1  0  0  0  0
 26 28  1  0  0  0  0
 27 29  2  0  0  0  0
 29 25  1  0  0  0  0
 31 26  2  0  0  0  0
M  END
>  <MODEL>
2

>  <REMARK>
 VINA RESULT:      -8.4      2.588      2.955
  Name = 
  3 active torsions:
  status: ('A' for Active; 'I' for Inactive)
    1  A    between atoms: S_2  and  C_6
    2  A    between atoms: S_2  and  C_17
    3  A    between atoms: C_9  and  C_15
                            x       y       z     vdW  Elec       q    Type
                         _______ _______ _______ _____ _____    ______ ____

>  <TORSDO>
F 3

$$$$
=
 OpenBabel11062420553D

 31 36  0  0  1  0  0  0  0  0999 V2000
  188.6940  178.2970  141.6460 N   0  0  0  0  0  1  0  0  0  0  0  0
  190.6140  177.4080  145.3680 O   0  0  0  0  0  0  0  0  0  0  0  0
  191.3250  175.1700  145.4170 C   0  0  1  0  0  3  0  0  0  0  0  0
  190.6120  177.7730  143.0570 C   0  0  0  0  0  2  0  0  0  0  0  0
  191.7700  176.6410  145.4370 C   0  0  1  0  0  3  0  0  0  0  0  0
  188.6350  176.1360  142.8240 C   0  0  2  0  0  3  0  0  0  0  0  0
  190.6610  175.3890  144.0490 C   0  0  1  0  0  3  0  0  0  0  0  0
  189.1390  175.3440  144.0420 C   0  0  0  0  0  2  0  0  0  0  0  0
  191.0640  176.8270  144.1530 C   0  0  1  0  0  0  0  0  0  0  0  0
  189.0900  177.6150  142.8660 C   0  0  2  0  0  3  0  0  0  0  0  0
  196.0280  171.7580  144.9270 C   0  0  0  0  0  0  0  0  0  0  0  0
  196.4950  171.1260  143.7720 O   0  0  0  0  0  1  0  0  0  0  0  0
  194.8140  172.6540  144.6500 C   0  0  1  0  0  0  0  0  0  0  0  0
  197.0950  172.7090  145.4860 C   0  0  0  0  0  2  0  0  0  0  0  0
  192.5240  174.2570  145.3590 C   0  0  0  0  0  0  0  0  0  0  0  0
  193.4460  171.9760  144.7550 C   0  0  0  0  0  2  0  0  0  0  0  0
  193.9220  174.7960  145.6410 C   0  0  0  0  0  2  0  0  0  0  0  0
  194.9130  173.6470  145.7850 C   0  0  2  0  0  3  0  0  0  0  0  0
  192.3330  173.0000  144.8930 C   0  0  0  0  0  3  0  0  0  0  0  0
  195.7290  170.7930  145.8930 O   0  0  0  0  0  1  0  0  0  0  0  0
  194.9430  173.3400  143.2780 C   0  0  0  0  0  1  0  0  0  0  0  0
  196.3780  173.9950  145.9040 C   0  0  0  0  0  2  0  0  0  0  0  0
  186.8150  176.0320  142.7580 S   0  0  0  0  0  0  0  0  0  0  0  0
  186.5190  177.2110  144.1260 C   0  0  1  0  0  3  0  0  0  0  0  0
  184.3490  178.6110  144.5890 C   0  0  2  0  0  3  0  0  0  0  0  0
  185.2520  177.0090  146.2660 C   0  0  0  0  0  3  0  0  0  0  0  0
  185.7490  178.9500  142.7110 O   0  0  0  0  0  0  0  0  0  0  0  0
  184.6870  178.3850  146.0610 C   0  0  0  0  0  2  0  0  0  0  0  0
  185.5540  178.3110  143.7330 C   0  0  0  0  0  0  0  0  0  0  0  0
  183.9420  179.9210  144.4140 F   0  0  0  0  0  0  0  0  0  0  0  0
  186.1010  176.4750  145.3770 C   0  0  0  0  0  3  0  0  0  0  0  0
  3 15  1  6  0  0  0
  3  5  1  0  0  0  0
  5  2  1  1  0  0  0
  6 23  1  1  0  0  0
  6 10  1  0  0  0  0
  6  8  1  0  0  0  0
  7  8  1  1  0  0  0
  7  9  1  0  0  0  0
  7  3  1  0  0  0  0
  9  4  1  6  0  0  0
  9  2  1  0  0  0  0
  9  5  1  0  0  0  0
 10  1  1  6  0  0  0
 10  4  1  0  0  0  0
 11 14  1  0  0  0  0
 11 20  1  0  0  0  0
 12 11  1  0  0  0  0
 13 21  1  6  0  0  0
 13 16  1  0  0  0  0
 13 11  1  0  0  0  0
 13 18  1  0  0  0  0
 14 22  1  0  0  0  0
 15 17  1  0  0  0  0
 16 19  1  0  0  0  0
 18 17  1  6  0  0  0
 18 22  1  0  0  0  0
 19 15  2  0  0  0  0
 24 23  1  6  0  0  0
 24 31  1  0  0  0  0
 25 30  1  1  0  0  0
 25 28  1  0  0  0  0
 27 29  2  0  0  0  0
 28 26  1  0  0  0  0
 29 24  1  0  0  0  0
 29 25  1  0  0  0  0
 31 26  2  0  0  0  0
M  END
>  <MODEL>
3

>  <REMARK>
 VINA RESULT:      -8.4      4.210      9.433
  Name = 
  3 active torsions:
  status: ('A' for Active; 'I' for Inactive)
    1  A    between atoms: S_2  and  C_6
    2  A    between atoms: S_2  and  C_17
    3  A    between atoms: C_9  and  C_15
                            x       y       z     vdW  Elec       q    Type
                         _______ _______ _______ _____ _____    ______ ____

>  <TORSDO>
F 3

$$$$
=
 OpenBabel11062420553D

 31 36  0  0  1  0  0  0  0  0999 V2000
  191.8420  171.2740  143.9160 N   0  0  0  0  0  1  0  0  0  0  0  0
  191.9650  175.5000  144.5900 O   0  0  0  0  0  0  0  0  0  0  0  0
  190.1500  176.5580  143.5400 C   0  0  1  0  0  3  0  0  0  0  0  0
  191.0580  173.3650  144.8950 C   0  0  0  0  0  2  0  0  0  0  0  0
  190.8230  176.2340  144.8830 C   0  0  1  0  0  3  0  0  0  0  0  0
  191.0910  173.0120  142.3420 C   0  0  2  0  0  3  0  0  0  0  0  0
  190.0110  175.0560  143.2470 C   0  0  1  0  0  3  0  0  0  0  0  0
  190.8900  174.5210  142.1250 C   0  0  0  0  0  2  0  0  0  0  0  0
  190.7300  174.8010  144.5360 C   0  0  1  0  0  0  0  0  0  0  0  0
  191.7750  172.7080  143.6980 C   0  0  2  0  0  3  0  0  0  0  0  0
  184.9000  178.9610  144.3540 C   0  0  0  0  0  0  0  0  0  0  0  0
  183.7390  178.7220  143.6150 O   0  0  0  0  0  1  0  0  0  0  0  0
  186.0670  178.0720  143.9070 C   0  0  1  0  0  0  0  0  0  0  0  0
  184.6780  178.6020  145.8290 C   0  0  0  0  0  2  0  0  0  0  0  0
  188.8270  177.2460  143.7660 C   0  0  0  0  0  0  0  0  0  0  0  0
  186.9480  178.6380  142.7910 C   0  0  0  0  0  2  0  0  0  0  0  0
  188.0560  177.0340  145.0640 C   0  0  0  0  0  2  0  0  0  0  0  0
  186.9060  178.0300  145.1640 C   0  0  2  0  0  3  0  0  0  0  0  0
  188.2830  177.9160  142.7230 C   0  0  0  0  0  3  0  0  0  0  0  0
  185.2360  180.3150  144.2620 O   0  0  0  0  0  1  0  0  0  0  0  0
  185.5670  176.6730  143.5070 C   0  0  0  0  0  1  0  0  0  0  0  0
  185.9320  177.8630  146.3060 C   0  0  0  0  0  2  0  0  0  0  0  0
  192.0820  172.3390  140.9660 S   0  0  0  0  0  0  0  0  0  0  0  0
  190.6930  171.4700  140.1530 C   0  0  1  0  0  3  0  0  0  0  0  0
  190.1870  171.3150  137.5830 C   0  0  2  0  0  3  0  0  0  0  0  0
  190.5510  169.2790  138.9680 C   0  0  0  0  0  3  0  0  0  0  0  0
  190.0620  173.3290  138.8230 O   0  0  0  0  0  0  0  0  0  0  0  0
  189.6910  169.9080  137.9090 C   0  0  0  0  0  2  0  0  0  0  0  0
  190.2920  172.1290  138.8490 C   0  0  0  0  0  0  0  0  0  0  0  0
  189.3100  171.9100  136.6940 F   0  0  0  0  0  0  0  0  0  0  0  0
  191.0030  170.0000  140.0030 C   0  0  0  0  0  3  0  0  0  0  0  0
  3 15  1  1  0  0  0
  3  5  1  0  0  0  0
  5  2  1  6  0  0  0
  6 23  1  6  0  0  0
  6 10  1  0  0  0  0
  7  8  1  6  0  0  0
  7  3  1  0  0  0  0
  7  9  1  0  0  0  0
  8  6  1  0  0  0  0
  9  2  1  0  0  0  0
  9  5  1  0  0  0  0
  9  4  1  1  0  0  0
 10  1  1  1  0  0  0
 10  4  1  0  0  0  0
 11 14  1  0  0  0  0
 12 11  1  0  0  0  0
 13 21  1  6  0  0  0
 13 11  1  0  0  0  0
 13 18  1  0  0  0  0
 14 22  1  0  0  0  0
 15 17  1  0  0  0  0
 16 13  1  0  0  0  0
 18 17  1  6  0  0  0
 18 22  1  0  0  0  0
 19 16  1  0  0  0  0
 19 15  2  0  0  0  0
 20 11  1  0  0  0  0
 24 23  1  6  0  0  0
 25 30  1  6  0  0  0
 25 28  1  0  0  0  0
 25 29  1  0  0  0  0
 26 31  2  0  0  0  0
 27 29  2  0  0  0  0
 28 26  1  0  0  0  0
 29 24  1  0  0  0  0
 31 24  1  0  0  0  0
M  END
>  <MODEL>
4

>  <REMARK>
 VINA RESULT:      -7.7      4.188      4.743
  Name = 
  3 active torsions:
  status: ('A' for Active; 'I' for Inactive)
    1  A    between atoms: S_2  and  C_6
    2  A    between atoms: S_2  and  C_17
    3  A    between atoms: C_9  and  C_15
                            x       y       z     vdW  Elec       q    Type
                         _______ _______ _______ _____ _____    ______ ____

>  <TORSDO>
F 3

$$$$
=
 OpenBabel11062420553D

 31 36  0  0  1  0  0  0  0  0999 V2000
  186.8600  178.2340  141.5720 N   0  0  0  0  0  1  0  0  0  0  0  0
  190.3290  178.4220  144.0730 O   0  0  0  0  0  0  0  0  0  0  0  0
  191.5590  176.4260  143.9330 C   0  0  1  0  0  3  0  0  0  0  0  0
  189.2570  178.3740  141.9950 C   0  0  0  0  0  2  0  0  0  0  0  0
  191.5630  177.9380  143.6600 C   0  0  1  0  0  3  0  0  0  0  0  0
  187.8770  176.3450  142.7790 C   0  0  2  0  0  3  0  0  0  0  0  0
  190.3480  176.2610  143.0020 C   0  0  1  0  0  3  0  0  0  0  0  0
  189.0360  175.8980  143.6850 C   0  0  0  0  0  2  0  0  0  0  0  0
  190.3610  177.7480  142.8240 C   0  0  1  0  0  0  0  0  0  0  0  0
  187.8980  177.8710  142.5210 C   0  0  2  0  0  3  0  0  0  0  0  0
  196.4750  174.2140  141.7100 C   0  0  0  0  0  0  0  0  0  0  0  0
  196.9700  174.3930  140.4160 O   0  0  0  0  0  1  0  0  0  0  0  0
  195.2000  175.0300  141.9620 C   0  0  1  0  0  0  0  0  0  0  0  0
  197.4810  174.7320  142.7450 C   0  0  0  0  0  2  0  0  0  0  0  0
  192.8160  175.7880  143.3960 C   0  0  0  0  0  0  0  0  0  0  0  0
  193.8820  174.3330  141.6170 C   0  0  0  0  0  2  0  0  0  0  0  0
  194.1770  176.1510  143.9790 C   0  0  0  0  0  2  0  0  0  0  0  0
  195.2440  175.1920  143.4650 C   0  0  2  0  0  3  0  0  0  0  0  0
  192.7040  175.0210  142.2860 C   0  0  0  0  0  3  0  0  0  0  0  0
  196.2520  172.8530  141.9350 O   0  0  0  0  0  1  0  0  0  0  0  0
  195.2680  176.3870  141.2400 C   0  0  0  0  0  1  0  0  0  0  0  0
  196.6840  175.4960  143.8060 C   0  0  0  0  0  2  0  0  0  0  0  0
  186.2970  175.8520  143.5490 S   0  0  0  0  0  0  0  0  0  0  0  0
  186.3030  177.1630  144.8250 C   0  0  1  0  0  3  0  0  0  0  0  0
  184.2690  178.0260  146.2390 C   0  0  2  0  0  3  0  0  0  0  0  0
  186.3000  177.0750  147.3180 C   0  0  0  0  0  3  0  0  0  0  0  0
  184.4590  178.3320  143.8990 O   0  0  0  0  0  0  0  0  0  0  0  0
  185.2970  178.1920  147.3560 C   0  0  0  0  0  2  0  0  0  0  0  0
  184.9700  177.8800  144.9120 C   0  0  0  0  0  0  0  0  0  0  0  0
  183.4320  179.1270  146.2270 F   0  0  0  0  0  0  0  0  0  0  0  0
  186.7660  176.6090  146.1510 C   0  0  0  0  0  3  0  0  0  0  0  0
  3 15  1  6  0  0  0
  4 10  1  0  0  0  0
  5  3  1  0  0  0  0
  5  2  1  1  0  0  0
  6 23  1  1  0  0  0
  6  8  1  0  0  0  0
  7  8  1  1  0  0  0
  7  3  1  0  0  0  0
  9  4  1  6  0  0  0
  9  7  1  0  0  0  0
  9  5  1  0  0  0  0
  9  2  1  0  0  0  0
 10  1  1  6  0  0  0
 10  6  1  0  0  0  0
 11 20  1  0  0  0  0
 11 13  1  0  0  0  0
 11 14  1  0  0  0  0
 12 11  1  0  0  0  0
 13 21  1  6  0  0  0
 13 18  1  0  0  0  0
 14 22  1  0  0  0  0
 15 17  1  0  0  0  0
 16 13  1  0  0  0  0
 16 19  1  0  0  0  0
 18 22  1  6  0  0  0
 18 17  1  0  0  0  0
 19 15  2  0  0  0  0
 24 23  1  6  0  0  0
 24 29  1  0  0  0  0
 24 31  1  0  0  0  0
 25 30  1  6  0  0  0
 25 28  1  0  0  0  0
 26 28  1  0  0  0  0
 27 29  2  0  0  0  0
 29 25  1  0  0  0  0
 31 26  2  0  0  0  0
M  END
>  <MODEL>
5

>  <REMARK>
 VINA RESULT:      -7.6      4.138      9.659
  Name = 
  3 active torsions:
  status: ('A' for Active; 'I' for Inactive)
    1  A    between atoms: S_2  and  C_6
    2  A    between atoms: S_2  and  C_17
    3  A    between atoms: C_9  and  C_15
                            x       y       z     vdW  Elec       q    Type
                         _______ _______ _______ _____ _____    ______ ____

>  <TORSDO>
F 3

$$$$
=
 OpenBabel11062420553D

 31 36  0  0  1  0  0  0  0  0999 V2000
  192.0950  171.8040  141.0810 N   0  0  0  0  0  1  0  0  0  0  0  0
  191.2850  173.9700  144.6840 O   0  0  0  0  0  0  0  0  0  0  0  0
  190.2680  176.0310  144.1980 C   0  0  1  0  0  3  0  0  0  0  0  0
  190.6410  172.7550  142.7910 C   0  0  0  0  0  2  0  0  0  0  0  0
  190.0960  174.6630  144.8760 C   0  0  1  0  0  3  0  0  0  0  0  0
  192.1570  174.2520  141.3420 C   0  0  2  0  0  3  0  0  0  0  0  0
  190.5090  175.3330  142.8510 C   0  0  1  0  0  3  0  0  0  0  0  0
  191.9280  175.4280  142.3050 C   0  0  0  0  0  2  0  0  0  0  0  0
  190.3970  174.0280  143.5770 C   0  0  1  0  0  0  0  0  0  0  0  0
  191.9850  172.8840  142.0460 C   0  0  2  0  0  3  0  0  0  0  0  0
  185.1300  178.7870  144.2980 C   0  0  0  0  0  0  0  0  0  0  0  0
  184.0690  178.6260  143.4040 O   0  0  0  0  0  1  0  0  0  0  0  0
  186.2850  177.8200  144.0100 C   0  0  1  0  0  0  0  0  0  0  0  0
  184.6840  178.4480  145.7260 C   0  0  0  0  0  2  0  0  0  0  0  0
  188.9760  176.8080  144.2440 C   0  0  0  0  0  0  0  0  0  0  0  0
  187.3480  178.3220  143.0290 C   0  0  0  0  0  2  0  0  0  0  0  0
  188.0200  176.6520  145.4220 C   0  0  0  0  0  2  0  0  0  0  0  0
  186.9380  177.7240  145.3700 C   0  0  2  0  0  3  0  0  0  0  0  0
  188.6270  177.5110  143.1400 C   0  0  0  0  0  3  0  0  0  0  0  0
  185.5660  180.1150  144.2620 O   0  0  0  0  0  1  0  0  0  0  0  0
  185.7510  176.4570  143.5350 C   0  0  0  0  0  1  0  0  0  0  0  0
  185.8070  177.6270  146.3660 C   0  0  0  0  0  2  0  0  0  0  0  0
  193.8290  174.3900  140.6220 S   0  0  0  0  0  0  0  0  0  0  0  0
  194.6030  175.1250  142.1080 C   0  0  1  0  0  3  0  0  0  0  0  0
  196.9020  174.4820  143.1970 C   0  0  2  0  0  3  0  0  0  0  0  0
  196.4390  176.7910  142.3900 C   0  0  0  0  0  3  0  0  0  0  0  0
  195.0270  173.0370  143.1500 O   0  0  0  0  0  0  0  0  0  0  0  0
  197.0080  175.9720  143.5130 C   0  0  0  0  0  2  0  0  0  0  0  0
  195.4780  174.1320  142.8470 C   0  0  0  0  0  0  0  0  0  0  0  0
  197.3260  173.7550  144.2940 F   0  0  0  0  0  0  0  0  0  0  0  0
  195.3270  176.4010  141.7510 C   0  0  0  0  0  3  0  0  0  0  0  0
  3 15  1  6  0  0  0
  3  5  1  0  0  0  0
  5  2  1  1  0  0  0
  6 23  1  1  0  0  0
  6 10  1  0  0  0  0
  6  8  1  0  0  0  0
  7  8  1  1  0  0  0
  7  9  1  0  0  0  0
  7  3  1  0  0  0  0
  9  4  1  6  0  0  0
  9  2  1  0  0  0  0
  9  5  1  0  0  0  0
 10  1  1  6  0  0  0
 10  4  1  0  0  0  0
 11 14  1  0  0  0  0
 12 11  1  0  0  0  0
 13 21  1  6  0  0  0
 13 11  1  0  0  0  0
 13 18  1  0  0  0  0
 14 22  1  0  0  0  0
 15 17  1  0  0  0  0
 16 19  1  0  0  0  0
 16 13  1  0  0  0  0
 18 17  1  6  0  0  0
 18 22  1  0  0  0  0
 19 15  2  0  0  0  0
 20 11  1  0  0  0  0
 24 23  1  6  0  0  0
 24 29  1  0  0  0  0
 25 28  1  0  0  0  0
 25 30  1  1  0  0  0
 26 28  1  0  0  0  0
 29 27  2  0  0  0  0
 29 25  1  0  0  0  0
 31 24  1  0  0  0  0
 31 26  2  0  0  0  0
M  END
>  <MODEL>
6

>  <REMARK>
 VINA RESULT:      -7.6      2.214      2.583
  Name = 
  3 active torsions:
  status: ('A' for Active; 'I' for Inactive)
    1  A    between atoms: S_2  and  C_6
    2  A    between atoms: S_2  and  C_17
    3  A    between atoms: C_9  and  C_15
                            x       y       z     vdW  Elec       q    Type
                         _______ _______ _______ _____ _____    ______ ____

>  <TORSDO>
F 3

$$$$
=
 OpenBabel11062420553D

 31 36  0  0  1  0  0  0  0  0999 V2000
  193.6010  174.2400  141.2540 N   0  0  0  0  0  1  0  0  0  0  0  0
  189.5360  173.3620  142.2690 O   0  0  0  0  0  0  0  0  0  0  0  0
  188.8340  174.6800  144.0820 C   0  0  1  0  0  3  0  0  0  0  0  0
  191.2200  174.7380  141.4070 C   0  0  0  0  0  2  0  0  0  0  0  0
  188.6260  174.3580  142.5940 C   0  0  1  0  0  3  0  0  0  0  0  0
  192.6320  174.2940  143.5160 C   0  0  2  0  0  3  0  0  0  0  0  0
  190.2910  175.0720  143.7930 C   0  0  1  0  0  3  0  0  0  0  0  0
  191.3490  174.1280  144.3470 C   0  0  0  0  0  2  0  0  0  0  0  0
  190.0480  174.6820  142.3680 C   0  0  1  0  0  0  0  0  0  0  0  0
  192.4010  173.9610  142.0220 C   0  0  2  0  0  3  0  0  0  0  0  0
  185.3210  178.9990  145.8160 C   0  0  0  0  0  0  0  0  0  0  0  0
  183.9250  178.9850  145.8570 O   0  0  0  0  0  1  0  0  0  0  0  0
  185.9040  177.6440  145.3940 C   0  0  1  0  0  0  0  0  0  0  0  0
  185.8960  179.2520  147.2150 C   0  0  0  0  0  2  0  0  0  0  0  0
  187.9730  175.8470  144.4960 C   0  0  0  0  0  0  0  0  0  0  0  0
  186.0990  177.4400  143.8900 C   0  0  0  0  0  2  0  0  0  0  0  0
  188.0200  176.3750  145.9250 C   0  0  0  0  0  2  0  0  0  0  0  0
  187.2780  177.7030  146.0220 C   0  0  2  0  0  3  0  0  0  0  0  0
  187.0510  176.2910  143.6090 C   0  0  0  0  0  3  0  0  0  0  0  0
  185.7480  180.0170  144.9590 O   0  0  0  0  0  1  0  0  0  0  0  0
  185.0640  176.4870  145.9640 C   0  0  0  0  0  1  0  0  0  0  0  0
  187.0780  178.2960  147.3960 C   0  0  0  0  0  2  0  0  0  0  0  0
  193.9350  173.2220  144.2120 S   0  0  0  0  0  0  0  0  0  0  0  0
  194.5610  174.4560  145.4090 C   0  0  1  0  0  3  0  0  0  0  0  0
  194.8380  177.0390  145.0440 C   0  0  2  0  0  3  0  0  0  0  0  0
  193.4010  176.1230  146.8580 C   0  0  0  0  0  3  0  0  0  0  0  0
  196.1160  175.4110  143.8950 O   0  0  0  0  0  0  0  0  0  0  0  0
  194.4450  177.1460  146.5150 C   0  0  0  0  0  2  0  0  0  0  0  0
  195.2420  175.6230  144.7220 C   0  0  0  0  0  0  0  0  0  0  0  0
  195.8800  177.9120  144.7880 F   0  0  0  0  0  0  0  0  0  0  0  0
  193.4620  174.8840  146.3520 C   0  0  0  0  0  3  0  0  0  0  0  0
  2  9  1  0  0  0  0
  3 15  1  6  0  0  0
  4 10  1  0  0  0  0
  5  2  1  1  0  0  0
  5  3  1  0  0  0  0
  6 23  1  1  0  0  0
  6  8  1  0  0  0  0
  7  3  1  0  0  0  0
  7  8  1  1  0  0  0
  9  4  1  6  0  0  0
  9  5  1  0  0  0  0
  9  7  1  0  0  0  0
 10  1  1  6  0  0  0
 10  6  1  0  0  0  0
 11 12  1  0  0  0  0
 11 14  1  0  0  0  0
 13 11  1  0  0  0  0
 13 21  1  1  0  0  0
 13 18  1  0  0  0  0
 14 22  1  0  0  0  0
 15 17  1  0  0  0  0
 16 13  1  0  0  0  0
 18 17  1  1  0  0  0
 18 22  1  0  0  0  0
 19 16  1  0  0  0  0
 19 15  2  0  0  0  0
 20 11  1  0  0  0  0
 24 23  1  6  0  0  0
 24 31  1  0  0  0  0
 25 30  1  1  0  0  0
 25 28  1  0  0  0  0
 27 29  2  0  0  0  0
 28 26  1  0  0  0  0
 29 25  1  0  0  0  0
 29 24  1  0  0  0  0
 31 26  2  0  0  0  0
M  END
>  <MODEL>
7

>  <REMARK>
 VINA RESULT:      -7.5      2.452      3.344
  Name = 
  3 active torsions:
  status: ('A' for Active; 'I' for Inactive)
    1  A    between atoms: S_2  and  C_6
    2  A    between atoms: S_2  and  C_17
    3  A    between atoms: C_9  and  C_15
                            x       y       z     vdW  Elec       q    Type
                         _______ _______ _______ _____ _____    ______ ____

>  <TORSDO>
F 3

$$$$
=
 OpenBabel11062420553D

 31 36  0  0  1  0  0  0  0  0999 V2000
  186.8520  178.1820  146.4120 N   0  0  0  0  0  1  0  0  0  0  0  0
  189.8990  175.2480  147.0660 O   0  0  0  0  0  0  0  0  0  0  0  0
  191.3310  175.1140  145.2090 C   0  0  1  0  0  3  0  0  0  0  0  0
  189.1390  177.4470  146.8240 C   0  0  0  0  0  2  0  0  0  0  0  0
  191.2210  175.4640  146.7020 C   0  0  1  0  0  3  0  0  0  0  0  0
  187.8740  176.7510  144.6900 C   0  0  2  0  0  3  0  0  0  0  0  0
  190.2860  176.1910  144.8810 C   0  0  1  0  0  3  0  0  0  0  0  0
  188.9350  175.6740  144.4050 C   0  0  0  0  0  2  0  0  0  0  0  0
  190.1730  176.4440  146.3520 C   0  0  1  0  0  0  0  0  0  0  0  0
  187.7770  177.0840  146.1990 C   0  0  2  0  0  3  0  0  0  0  0  0
  196.7000  176.0920  143.1550 C   0  0  0  0  0  0  0  0  0  0  0  0
  197.8410  175.3150  143.3740 O   0  0  0  0  0  1  0  0  0  0  0  0
  195.4440  175.4680  143.7780 C   0  0  1  0  0  0  0  0  0  0  0  0
  196.3900  176.1770  141.6550 C   0  0  0  0  0  2  0  0  0  0  0  0
  192.7090  175.4420  144.6910 C   0  0  0  0  0  0  0  0  0  0  0  0
  195.1480  175.8680  145.2250 C   0  0  0  0  0  2  0  0  0  0  0  0
  192.9900  175.4510  143.1920 C   0  0  0  0  0  2  0  0  0  0  0  0
  194.3570  176.0650  142.9140 C   0  0  2  0  0  3  0  0  0  0  0  0
  193.7070  175.5630  145.5970 C   0  0  0  0  0  3  0  0  0  0  0  0
  196.9170  177.3810  143.6480 O   0  0  0  0  0  1  0  0  0  0  0  0
  195.4840  173.9340  143.6670 C   0  0  0  0  0  1  0  0  0  0  0  0
  194.8770  176.0090  141.4980 C   0  0  0  0  0  2  0  0  0  0  0  0
  186.2600  176.1770  144.0600 S   0  0  0  0  0  0  0  0  0  0  0  0
  186.0190  177.5670  142.8950 C   0  0  1  0  0  3  0  0  0  0  0  0
  185.8870  177.4550  140.2770 C   0  0  2  0  0  3  0  0  0  0  0  0
  184.0190  178.3740  141.6410 C   0  0  0  0  0  3  0  0  0  0  0  0
  187.8490  176.9700  141.5100 O   0  0  0  0  0  0  0  0  0  0  0  0
  184.8690  178.5840  140.4210 C   0  0  0  0  0  2  0  0  0  0  0  0
  186.6760  177.3090  141.5540 C   0  0  0  0  0  0  0  0  0  0  0  0
  186.7280  177.7360  139.2150 F   0  0  0  0  0  0  0  0  0  0  0  0
  184.5530  177.9130  142.7800 C   0  0  0  0  0  3  0  0  0  0  0  0
  3 15  1  6  0  0  0
  3  5  1  0  0  0  0
  5  2  1  1  0  0  0
  6 23  1  1  0  0  0
  6 10  1  0  0  0  0
  7  8  1  1  0  0  0
  7  3  1  0  0  0  0
  7  9  1  0  0  0  0
  8  6  1  0  0  0  0
  9  5  1  0  0  0  0
  9  4  1  1  0  0  0
  9  2  1  0  0  0  0
 10  1  1  6  0  0  0
 10  4  1  0  0  0  0
 11 12  1  0  0  0  0
 11 20  1  0  0  0  0
 11 13  1  0  0  0  0
 13 21  1  6  0  0  0
 13 16  1  0  0  0  0
 14 11  1  0  0  0  0
 15 19  2  0  0  0  0
 16 19  1  0  0  0  0
 17 15  1  0  0  0  0
 18 22  1  6  0  0  0
 18 17  1  0  0  0  0
 18 13  1  0  0  0  0
 22 14  1  0  0  0  0
 24 23  1  1  0  0  0
 25 30  1  6  0  0  0
 25 28  1  0  0  0  0
 25 29  1  0  0  0  0
 26 31  2  0  0  0  0
 27 29  2  0  0  0  0
 28 26  1  0  0  0  0
 29 24  1  0  0  0  0
 31 24  1  0  0  0  0
M  END
>  <MODEL>
8

>  <REMARK>
 VINA RESULT:      -7.5      3.549      8.732
  Name = 
  3 active torsions:
  status: ('A' for Active; 'I' for Inactive)
    1  A    between atoms: S_2  and  C_6
    2  A    between atoms: S_2  and  C_17
    3  A    between atoms: C_9  and  C_15
                            x       y       z     vdW  Elec       q    Type
                         _______ _______ _______ _____ _____    ______ ____

>  <TORSDO>
F 3

$$$$
=
 OpenBabel11062420553D

 31 36  0  0  1  0  0  0  0  0999 V2000
  188.9400  174.5450  147.6350 N   0  0  0  0  0  1  0  0  0  0  0  0
  189.6590  174.3230  143.4210 O   0  0  0  0  0  0  0  0  0  0  0  0
  191.6920  175.3640  142.8730 C   0  0  1  0  0  3  0  0  0  0  0  0
  190.0960  173.7430  145.6450 C   0  0  0  0  0  2  0  0  0  0  0  0
  190.9150  174.0380  142.9010 C   0  0  1  0  0  3  0  0  0  0  0  0
  190.0910  176.2420  146.2730 C   0  0  2  0  0  3  0  0  0  0  0  0
  191.5310  175.4900  144.3950 C   0  0  1  0  0  3  0  0  0  0  0  0
  190.6050  176.6030  144.8700 C   0  0  0  0  0  2  0  0  0  0  0  0
  190.7260  174.2280  144.3530 C   0  0  1  0  0  0  0  0  0  0  0  0
  189.3080  174.9070  146.2770 C   0  0  2  0  0  3  0  0  0  0  0  0
  197.2380  174.7550  141.1760 C   0  0  0  0  0  0  0  0  0  0  0  0
  197.9010  175.4810  140.1840 O   0  0  0  0  0  1  0  0  0  0  0  0
  195.8090  175.2620  141.4110 C   0  0  1  0  0  0  0  0  0  0  0  0
  197.9410  174.9290  142.5280 C   0  0  0  0  0  2  0  0  0  0  0  0
  193.1190  175.1300  142.4420 C   0  0  0  0  0  0  0  0  0  0  0  0
  194.7220  174.6180  140.5480 C   0  0  0  0  0  2  0  0  0  0  0  0
  194.2710  175.3800  143.4090 C   0  0  0  0  0  2  0  0  0  0  0  0
  195.5700  174.8220  142.8380 C   0  0  2  0  0  3  0  0  0  0  0  0
  193.3410  174.8550  141.1350 C   0  0  0  0  0  3  0  0  0  0  0  0
  197.2390  173.3990  140.8350 O   0  0  0  0  0  1  0  0  0  0  0  0
  195.7410  176.7920  141.2660 C   0  0  0  0  0  1  0  0  0  0  0  0
  196.8480  175.1220  143.5830 C   0  0  0  0  0  2  0  0  0  0  0  0
  189.0370  177.6000  146.8870 S   0  0  0  0  0  0  0  0  0  0  0  0
  187.5750  177.1620  145.8770 C   0  0  1  0  0  3  0  0  0  0  0  0
  185.1410  178.1180  146.0900 C   0  0  2  0  0  3  0  0  0  0  0  0
  186.4440  178.3190  143.9780 C   0  0  0  0  0  3  0  0  0  0  0  0
  186.1680  176.7730  147.7460 O   0  0  0  0  0  0  0  0  0  0  0  0
  185.1060  177.9790  144.5700 C   0  0  0  0  0  2  0  0  0  0  0  0
  186.2820  177.3080  146.6530 C   0  0  0  0  0  0  0  0  0  0  0  0
  183.9350  177.6890  146.6130 F   0  0  0  0  0  0  0  0  0  0  0  0
  187.5780  177.9340  144.5790 C   0  0  0  0  0  3  0  0  0  0  0  0
  2  9  1  0  0  0  0
  3 15  1  1  0  0  0
  3  5  1  0  0  0  0
  3  7  1  0  0  0  0
  4 10  1  0  0  0  0
  5  2  1  6  0  0  0
  5  9  1  0  0  0  0
  6 10  1  0  0  0  0
  6 23  1  6  0  0  0
  7  8  1  6  0  0  0
  8  6  1  0  0  0  0
  9  7  1  0  0  0  0
  9  4  1  1  0  0  0
 10  1  1  1  0  0  0
 11 13  1  0  0  0  0
 11 14  1  0  0  0  0
 12 11  1  0  0  0  0
 13 21  1  6  0  0  0
 13 18  1  0  0  0  0
 14 22  1  0  0  0  0
 15 17  1  0  0  0  0
 16 19  1  0  0  0  0
 16 13  1  0  0  0  0
 18 17  1  1  0  0  0
 18 22  1  0  0  0  0
 19 15  2  0  0  0  0
 20 11  1  0  0  0  0
 24 29  1  0  0  0  0
 24 23  1  1  0  0  0
 25 30  1  1  0  0  0
 25 29  1  0  0  0  0
 26 28  1  0  0  0  0
 26 31  2  0  0  0  0
 28 25  1  0  0  0  0
 29 27  2  0  0  0  0
 31 24  1  0  0  0  0
M  END
>  <MODEL>
9

>  <REMARK>
 VINA RESULT:      -7.5      3.711      9.300
  Name = 
  3 active torsions:
  status: ('A' for Active; 'I' for Inactive)
    1  A    between atoms: S_2  and  C_6
    2  A    between atoms: S_2  and  C_17
    3  A    between atoms: C_9  and  C_15
                            x       y       z     vdW  Elec       q    Type
                         _______ _______ _______ _____ _____    ______ ____

>  <TORSDO>
F 3

$$$$
