=
 OpenBabel11062422403D

 44 50  0  0  1  0  0  0  0  0999 V2000
  194.3790  174.8020  145.8360 C   0  0  0  0  0  2  0  0  0  0  0  0
  193.6090  173.2600  144.0880 C   0  0  0  0  0  3  0  0  0  0  0  0
  194.0150  173.4350  145.3510 C   0  0  0  0  0  3  0  0  0  0  0  0
  192.0480  176.0940  143.2180 N   0  0  0  0  0  0  0  0  0  0  0  0
  193.3610  175.7960  145.2860 C   0  0  2  0  0  3  0  0  0  0  0  0
  192.1210  174.7490  142.6020 C   0  0  1  0  0  3  0  0  0  0  0  0
  191.2200  177.2540  143.1190 C   0  0  0  0  0  0  0  0  0  0  0  0
  193.3900  175.7880  143.7450 C   0  0  1  0  0  3  0  0  0  0  0  0
  191.5390  178.3050  143.7410 O   0  0  0  0  0  0  0  0  0  0  0  0
  193.5080  174.4180  143.1080 C   0  0  1  0  0  3  0  0  0  0  0  0
  188.1790  172.8090  140.1380 N   0  0  0  0  0  0  0  0  0  0  0  0
  188.7130  174.4100  143.4010 O   0  0  0  0  0  0  0  0  0  0  0  0
  190.4860  172.6860  140.8100 C   0  0  0  0  0  3  0  0  0  0  0  0
  190.1370  173.3770  141.9710 C   0  0  0  0  0  0  0  0  0  0  0  0
  189.9910  174.5390  144.0210 C   0  0  2  0  0  3  0  0  0  0  0  0
  188.8470  173.7540  142.2000 C   0  0  0  0  0  0  0  0  0  0  0  0
  187.8430  173.4760  141.2800 C   0  0  0  0  0  3  0  0  0  0  0  0
  189.4640  172.4110  139.8870 C   0  0  0  0  0  3  0  0  0  0  0  0
  191.0060  173.8060  143.1060 C   0  0  2  0  0  3  0  0  0  0  0  0
  189.9960  173.9800  145.4450 C   0  0  0  0  0  2  0  0  0  0  0  0
  190.1490  175.0620  146.5040 C   0  0  0  0  0  2  0  0  0  0  0  0
  188.8500  175.3650  147.0900 N   0  0  0  0  0  2  0  0  0  0  0  0
  188.6200  176.8010  146.9860 C   0  0  0  0  0  0  0  0  0  0  0  0
  189.5980  177.6920  147.7250 C   0  0  0  0  0  2  0  0  0  0  0  0
  189.7050  177.5200  146.2140 C   0  0  0  0  0  2  0  0  0  0  0  0
  183.3860  178.7280  146.0530 F   0  0  0  0  0  0  0  0  0  0  0  0
  185.4040  178.8000  147.3200 C   0  0  0  0  0  3  0  0  0  0  0  0
  186.6980  178.3220  147.5550 C   0  0  0  0  0  3  0  0  0  0  0  0
  186.4550  176.7690  145.7140 C   0  0  0  0  0  3  0  0  0  0  0  0
  185.1640  177.2490  145.4770 C   0  0  0  0  0  3  0  0  0  0  0  0
  187.2230  177.2950  146.7610 C   0  0  0  0  0  0  0  0  0  0  0  0
  184.6370  178.2620  146.2840 C   0  0  0  0  0  0  0  0  0  0  0  0
  194.9370  177.3480  145.3270 C   0  0  0  0  0  1  0  0  0  0  0  0
  193.6400  177.0780  145.7620 O   0  0  0  0  0  0  0  0  0  0  0  0
  190.0680  177.2120  142.3340 O   0  0  0  0  0  0  0  0  0  0  0  0
  186.5760  178.4880  142.1700 C   0  0  0  0  0  0  0  0  0  0  0  0
  186.3350  179.3630  143.2220 O   0  0  0  0  0  1  0  0  0  0  0  0
  187.6990  176.9760  140.6860 C   0  0  0  0  0  3  0  0  0  0  0  0
  188.9130  177.9150  142.6660 C   0  0  0  0  0  3  0  0  0  0  0  0
  185.6840  178.1510  141.2630 C   0  0  0  0  0  0  0  0  0  0  0  0
  186.2380  177.1820  140.2610 C   0  0  0  0  0  3  0  0  0  0  0  0
  187.8280  177.8190  141.9080 C   0  0  0  0  0  0  0  0  0  0  0  0
  184.3810  178.6490  141.2560 O   0  0  0  0  0  0  0  0  0  0  0  0
  183.4030  178.1740  140.3420 C   0  0  0  0  0  1  0  0  0  0  0  0
  2  3  2  0  0  0  0
  3  1  1  0  0  0  0
  5 34  1  1  0  0  0
  5  1  1  0  0  0  0
  6 19  1  0  0  0  0
  6 10  1  0  0  0  0
  6  4  1  1  0  0  0
  7  4  1  0  0  0  0
  7  9  2  0  0  0  0
  8  4  1  6  0  0  0
  8  5  1  0  0  0  0
 10  8  1  0  0  0  0
 10  2  1  1  0  0  0
 11 17  1  0  0  0  0
 12 15  1  0  0  0  0
 13 14  2  0  0  0  0
 14 16  1  0  0  0  0
 15 20  1  1  0  0  0
 16 12  1  0  0  0  0
 17 16  2  0  0  0  0
 18 11  2  0  0  0  0
 18 13  1  0  0  0  0
 19 14  1  6  0  0  0
 19 15  1  0  0  0  0
 20 21  1  0  0  0  0
 21 22  1  0  0  0  0
 23 22  1  0  0  0  0
 23 24  1  0  0  0  0
 25 23  1  0  0  0  0
 25 24  1  0  0  0  0
 26 32  1  0  0  0  0
 27 28  1  0  0  0  0
 29 31  1  0  0  0  0
 30 29  2  0  0  0  0
 30 32  1  0  0  0  0
 31 23  1  0  0  0  0
 31 28  2  0  0  0  0
 32 27  2  0  0  0  0
 33 34  1  0  0  0  0
 35 39  1  0  0  0  0
 35  7  1  0  0  0  0
 36 37  1  0  0  0  0
 38 42  1  0  0  0  0
 40 36  2  0  0  0  0
 41 38  2  0  0  0  0
 41 40  1  0  0  0  0
 42 36  1  0  0  0  0
 42 39  2  0  0  0  0
 43 40  1  0  0  0  0
 44 43  1  0  0  0  0
M  END
>  <MODEL>
1

>  <REMARK>
 VINA RESULT:      -8.6      0.000      0.000
  Name = 
  10 active torsions:
  status: ('A' for Active; 'I' for Inactive)
    1  A    between atoms: C_1  and  N_35
    2  A    between atoms: C_1  and  C_40
    3  A    between atoms: O_8  and  C_27
    4  A    between atoms: C_18  and  C_39
    5  A    between atoms: C_20  and  O_36
    6  A    between atoms: C_22  and  C_41
    7  A    between atoms: C_25  and  O_33
    8  A    between atoms: C_26  and  N_35
    9  A    between atoms: C_26  and  C_39
   10  A    between atoms: C_28  and  O_33
                            x       y       z     vdW  Elec       q    Type
                         _______ _______ _______ _____ _____    ______ ____

>  <TORSDO>
F 10

$$$$
=
 OpenBabel11062422403D

 44 50  0  0  1  0  0  0  0  0999 V2000
  189.6170  177.5340  147.6870 C   0  0  0  0  0  2  0  0  0  0  0  0
  188.4070  175.7170  146.5610 C   0  0  0  0  0  3  0  0  0  0  0  0
  188.4580  177.0120  146.8980 C   0  0  0  0  0  3  0  0  0  0  0  0
  191.5880  174.7300  146.1980 N   0  0  0  0  0  0  0  0  0  0  0  0
  190.8950  176.9020  147.1420 C   0  0  2  0  0  3  0  0  0  0  0  0
  190.2910  174.1160  145.8340 C   0  0  1  0  0  3  0  0  0  0  0  0
  192.9640  174.5660  145.8530 C   0  0  0  0  0  0  0  0  0  0  0  0
  190.8360  175.3700  147.2920 C   0  0  1  0  0  3  0  0  0  0  0  0
  193.8480  175.2190  146.4740 O   0  0  0  0  0  0  0  0  0  0  0  0
  189.4990  174.7380  146.9640 C   0  0  1  0  0  3  0  0  0  0  0  0
  190.9020  171.7320  141.4390 N   0  0  0  0  0  0  0  0  0  0  0  0
  191.2550  175.1910  142.6280 O   0  0  0  0  0  0  0  0  0  0  0  0
  189.6420  172.1010  143.4550 C   0  0  0  0  0  3  0  0  0  0  0  0
  190.1030  173.4180  143.4480 C   0  0  0  0  0  0  0  0  0  0  0  0
  190.6660  175.6790  143.8310 C   0  0  2  0  0  3  0  0  0  0  0  0
  190.9260  173.8660  142.4570 C   0  0  0  0  0  0  0  0  0  0  0  0
  191.3420  173.0230  141.4340 C   0  0  0  0  0  3  0  0  0  0  0  0
  190.0690  171.2580  142.4160 C   0  0  0  0  0  3  0  0  0  0  0  0
  189.8220  174.5180  144.4180 C   0  0  2  0  0  3  0  0  0  0  0  0
  189.8250  176.9330  143.5900 C   0  0  0  0  0  2  0  0  0  0  0  0
  188.9110  176.8080  142.3790 C   0  0  0  0  0  2  0  0  0  0  0  0
  187.6100  176.3020  142.7930 N   0  0  0  0  0  2  0  0  0  0  0  0
  186.6850  177.4250  142.8840 C   0  0  0  0  0  0  0  0  0  0  0  0
  186.9020  178.5540  141.8960 C   0  0  0  0  0  2  0  0  0  0  0  0
  185.7790  177.5450  141.6780 C   0  0  0  0  0  2  0  0  0  0  0  0
  184.4000  178.5990  147.9220 F   0  0  0  0  0  0  0  0  0  0  0  0
  184.8930  177.0140  146.2110 C   0  0  0  0  0  3  0  0  0  0  0  0
  185.4550  176.7220  144.9630 C   0  0  0  0  0  3  0  0  0  0  0  0
  186.1100  179.0400  144.7190 C   0  0  0  0  0  3  0  0  0  0  0  0
  185.5520  179.3300  145.9680 C   0  0  0  0  0  3  0  0  0  0  0  0
  186.0540  177.7370  144.2070 C   0  0  0  0  0  0  0  0  0  0  0  0
  184.9390  178.3170  146.7110 C   0  0  0  0  0  0  0  0  0  0  0  0
  191.5730  177.5750  149.1370 C   0  0  0  0  0  1  0  0  0  0  0  0
  192.0040  177.4070  147.8220 O   0  0  0  0  0  0  0  0  0  0  0  0
  193.3170  173.6840  144.8310 O   0  0  0  0  0  0  0  0  0  0  0  0
  194.7490  170.3240  145.5430 C   0  0  0  0  0  0  0  0  0  0  0  0
  193.7550  169.3550  145.4720 O   0  0  0  0  0  1  0  0  0  0  0  0
  195.8590  172.4480  145.4610 C   0  0  0  0  0  3  0  0  0  0  0  0
  193.3950  172.3080  145.0260 C   0  0  0  0  0  2  0  0  0  0  0  0
  196.0070  170.0790  145.8390 C   0  0  1  0  0  3  0  0  0  0  0  0
  196.8370  171.3290  145.8470 C   0  0  0  0  0  3  0  0  0  0  0  0
  194.5590  171.7350  145.3050 C   0  0  0  0  0  0  0  0  0  0  0  0
  196.4890  168.7990  146.1120 O   0  0  0  0  0  0  0  0  0  0  0  0
  197.5380  168.5770  147.0430 C   0  0  0  0  0  1  0  0  0  0  0  0
  2  3  2  0  0  0  0
  3  1  1  0  0  0  0
  5  8  1  0  0  0  0
  5  1  1  0  0  0  0
  5 34  1  1  0  0  0
  6  4  1  1  0  0  0
  6 10  1  0  0  0  0
  7  4  1  0  0  0  0
  7  9  2  0  0  0  0
  8  4  1  6  0  0  0
 10  2  1  6  0  0  0
 10  8  1  0  0  0  0
 11 18  1  0  0  0  0
 12 15  1  0  0  0  0
 14 13  1  0  0  0  0
 15 20  1  6  0  0  0
 15 19  1  0  0  0  0
 16 12  1  0  0  0  0
 16 14  2  0  0  0  0
 17 11  2  0  0  0  0
 17 16  1  0  0  0  0
 18 13  2  0  0  0  0
 19 14  1  6  0  0  0
 19  6  1  0  0  0  0
 21 22  1  0  0  0  0
 21 20  1  0  0  0  0
 22 23  1  0  0  0  0
 23 31  1  0  0  0  0
 24 23  1  0  0  0  0
 25 24  1  0  0  0  0
 25 23  1  0  0  0  0
 27 32  1  0  0  0  0
 28 27  2  0  0  0  0
 29 30  1  0  0  0  0
 30 32  2  0  0  0  0
 31 29  2  0  0  0  0
 31 28  1  0  0  0  0
 32 26  1  0  0  0  0
 34 33  1  0  0  0  0
 35 39  1  0  0  0  0
 35  7  1  0  0  0  0
 36 40  1  0  0  0  0
 37 36  1  0  0  0  0
 38 41  2  0  0  0  0
 39 42  1  0  0  0  0
 40 41  1  0  0  0  0
 40 43  1  1  0  0  0
 42 38  1  0  0  0  0
 42 36  2  0  0  0  0
 43 44  1  0  0  0  0
M  END
>  <MODEL>
2

>  <REMARK>
 VINA RESULT:      -8.5      2.761      6.907
  Name = 
  10 active torsions:
  status: ('A' for Active; 'I' for Inactive)
    1  A    between atoms: C_1  and  N_35
    2  A    between atoms: C_1  and  C_40
    3  A    between atoms: O_8  and  C_27
    4  A    between atoms: C_18  and  C_39
    5  A    between atoms: C_20  and  O_36
    6  A    between atoms: C_22  and  C_41
    7  A    between atoms: C_25  and  O_33
    8  A    between atoms: C_26  and  N_35
    9  A    between atoms: C_26  and  C_39
   10  A    between atoms: C_28  and  O_33
                            x       y       z     vdW  Elec       q    Type
                         _______ _______ _______ _____ _____    ______ ____

>  <TORSDO>
F 10

$$$$
=
 OpenBabel11062422403D

 44 50  0  0  1  0  0  0  0  0999 V2000
  190.6270  171.4530  140.0110 C   0  0  0  0  0  2  0  0  0  0  0  0
  190.5670  171.7000  142.4530 C   0  0  0  0  0  3  0  0  0  0  0  0
  191.2500  171.3240  141.3650 C   0  0  0  0  0  3  0  0  0  0  0  0
  188.5800  174.2140  141.4760 N   0  0  0  0  0  0  0  0  0  0  0  0
  189.8860  172.7850  139.9460 C   0  0  2  0  0  3  0  0  0  0  0  0
  188.9710  173.6920  142.8060 C   0  0  1  0  0  3  0  0  0  0  0  0
  188.0040  175.4060  140.9410 C   0  0  0  0  0  0  0  0  0  0  0  0
  188.7760  172.8280  141.0140 C   0  0  1  0  0  3  0  0  0  0  0  0
  187.6940  175.4580  139.7190 O   0  0  0  0  0  0  0  0  0  0  0  0
  189.1550  172.2560  142.3640 C   0  0  1  0  0  3  0  0  0  0  0  0
  189.4570  177.4100  146.1690 N   0  0  0  0  0  0  0  0  0  0  0  0
  190.9270  176.6130  142.8980 O   0  0  0  0  0  0  0  0  0  0  0  0
  189.2570  175.0660  145.6640 C   0  0  0  0  0  3  0  0  0  0  0  0
  189.8990  175.3200  144.4500 C   0  0  0  0  0  0  0  0  0  0  0  0
  190.9020  175.3120  142.3130 C   0  0  2  0  0  3  0  0  0  0  0  0
  190.3090  176.5790  144.1260 C   0  0  0  0  0  0  0  0  0  0  0  0
  190.0910  177.6490  144.9850 C   0  0  0  0  0  3  0  0  0  0  0  0
  189.0420  176.1550  146.5240 C   0  0  0  0  0  3  0  0  0  0  0  0
  190.2470  174.3680  143.3550 C   0  0  2  0  0  3  0  0  0  0  0  0
  192.2980  174.8380  141.9090 C   0  0  0  0  0  2  0  0  0  0  0  0
  193.3630  175.9110  142.0930 C   0  0  0  0  0  2  0  0  0  0  0  0
  194.6760  175.2890  142.1910 N   0  0  0  0  0  2  0  0  0  0  0  0
  195.2010  175.5260  143.5310 C   0  0  0  0  0  0  0  0  0  0  0  0
  196.6750  175.2410  143.7340 C   0  0  0  0  0  2  0  0  0  0  0  0
  196.1840  176.6770  143.5860 C   0  0  0  0  0  2  0  0  0  0  0  0
  191.7920  175.0670  148.0200 F   0  0  0  0  0  0  0  0  0  0  0  0
  192.9140  174.0440  146.1810 C   0  0  0  0  0  3  0  0  0  0  0  0
  193.7540  174.1560  145.0680 C   0  0  0  0  0  3  0  0  0  0  0  0
  193.9700  176.5340  145.4740 C   0  0  0  0  0  3  0  0  0  0  0  0
  193.1340  176.4200  146.5890 C   0  0  0  0  0  3  0  0  0  0  0  0
  194.2750  175.4040  144.7030 C   0  0  0  0  0  0  0  0  0  0  0  0
  192.6020  175.1760  146.9390 C   0  0  0  0  0  0  0  0  0  0  0  0
  190.3020  173.6690  137.9600 C   0  0  0  0  0  1  0  0  0  0  0  0
  189.3350  172.9630  138.6760 O   0  0  0  0  0  0  0  0  0  0  0  0
  187.7910  176.5030  141.7770 O   0  0  0  0  0  0  0  0  0  0  0  0
  185.7460  177.4630  144.7340 C   0  0  0  0  0  0  0  0  0  0  0  0
  185.5720  176.3680  145.5720 O   0  0  0  0  0  1  0  0  0  0  0  0
  186.4670  178.8220  142.8960 C   0  0  0  0  0  3  0  0  0  0  0  0
  187.1000  176.4000  142.9820 C   0  0  0  0  0  2  0  0  0  0  0  0
  185.2390  178.6570  144.9540 C   0  0  1  0  0  3  0  0  0  0  0  0
  185.5920  179.6280  143.8670 C   0  0  0  0  0  3  0  0  0  0  0  0
  186.5010  177.4630  143.5040 C   0  0  0  0  0  0  0  0  0  0  0  0
  184.4660  178.9590  146.0750 O   0  0  0  0  0  0  0  0  0  0  0  0
  185.0180  178.9710  147.3840 C   0  0  0  0  0  1  0  0  0  0  0  0
  1  3  1  0  0  0  0
  3  2  2  0  0  0  0
  5 34  1  6  0  0  0
  5  1  1  0  0  0  0
  5  8  1  0  0  0  0
  6  4  1  6  0  0  0
  6 19  1  0  0  0  0
  7  4  1  0  0  0  0
  7 35  1  0  0  0  0
  8  4  1  1  0  0  0
  8 10  1  0  0  0  0
  9  7  2  0  0  0  0
 10  2  1  6  0  0  0
 10  6  1  0  0  0  0
 11 18  1  0  0  0  0
 12 16  1  0  0  0  0
 13 18  2  0  0  0  0
 14 13  1  0  0  0  0
 15 20  1  1  0  0  0
 15 12  1  0  0  0  0
 15 19  1  0  0  0  0
 16 14  2  0  0  0  0
 16 17  1  0  0  0  0
 17 11  2  0  0  0  0
 19 14  1  1  0  0  0
 20 21  1  0  0  0  0
 21 22  1  0  0  0  0
 22 23  1  0  0  0  0
 23 25  1  0  0  0  0
 23 24  1  0  0  0  0
 23 31  1  0  0  0  0
 25 24  1  0  0  0  0
 27 32  1  0  0  0  0
 28 27  2  0  0  0  0
 29 30  1  0  0  0  0
 30 32  2  0  0  0  0
 31 28  1  0  0  0  0
 31 29  2  0  0  0  0
 32 26  1  0  0  0  0
 33 34  1  0  0  0  0
 35 39  1  0  0  0  0
 36 40  1  0  0  0  0
 36 37  1  0  0  0  0
 38 42  1  0  0  0  0
 38 41  2  0  0  0  0
 39 42  1  0  0  0  0
 40 43  1  6  0  0  0
 41 40  1  0  0  0  0
 42 36  2  0  0  0  0
 43 44  1  0  0  0  0
M  END
>  <MODEL>
3

>  <REMARK>
 VINA RESULT:      -8.4      2.429      6.101
  Name = 
  10 active torsions:
  status: ('A' for Active; 'I' for Inactive)
    1  A    between atoms: C_1  and  N_35
    2  A    between atoms: C_1  and  C_40
    3  A    between atoms: O_8  and  C_27
    4  A    between atoms: C_18  and  C_39
    5  A    between atoms: C_20  and  O_36
    6  A    between atoms: C_22  and  C_41
    7  A    between atoms: C_25  and  O_33
    8  A    between atoms: C_26  and  N_35
    9  A    between atoms: C_26  and  C_39
   10  A    between atoms: C_28  and  O_33
                            x       y       z     vdW  Elec       q    Type
                         _______ _______ _______ _____ _____    ______ ____

>  <TORSDO>
F 10

$$$$
=
 OpenBabel11062422403D

 44 50  0  0  1  0  0  0  0  0999 V2000
  191.6110  171.5660  140.9520 C   0  0  0  0  0  2  0  0  0  0  0  0
  191.1550  171.9960  143.3260 C   0  0  0  0  0  3  0  0  0  0  0  0
  192.0390  171.6480  142.3830 C   0  0  0  0  0  3  0  0  0  0  0  0
  188.9860  174.0720  141.8410 N   0  0  0  0  0  0  0  0  0  0  0  0
  190.7000  172.7530  140.6530 C   0  0  2  0  0  3  0  0  0  0  0  0
  189.2490  173.7280  143.2570 C   0  0  1  0  0  3  0  0  0  0  0  0
  188.3270  175.1100  141.1140 C   0  0  0  0  0  0  0  0  0  0  0  0
  189.4500  172.7030  141.5530 C   0  0  1  0  0  3  0  0  0  0  0  0
  188.1960  175.0130  139.8630 O   0  0  0  0  0  0  0  0  0  0  0  0
  189.7050  172.3100  142.9930 C   0  0  1  0  0  3  0  0  0  0  0  0
  188.7210  177.4020  146.6630 N   0  0  0  0  0  0  0  0  0  0  0  0
  190.5480  176.9870  143.5020 O   0  0  0  0  0  0  0  0  0  0  0  0
  189.0460  175.0760  146.1350 C   0  0  0  0  0  3  0  0  0  0  0  0
  189.7030  175.4800  144.9710 C   0  0  0  0  0  0  0  0  0  0  0  0
  190.8330  175.7200  142.9120 C   0  0  2  0  0  3  0  0  0  0  0  0
  189.8660  176.8030  144.6830 C   0  0  0  0  0  0  0  0  0  0  0  0
  189.3720  177.7890  145.5290 C   0  0  0  0  0  3  0  0  0  0  0  0
  188.5500  176.0810  146.9810 C   0  0  0  0  0  3  0  0  0  0  0  0
  190.3160  174.6420  143.8990 C   0  0  2  0  0  3  0  0  0  0  0  0
  192.3210  175.5520  142.6070 C   0  0  0  0  0  2  0  0  0  0  0  0
  193.2060  176.4330  143.4780 C   0  0  0  0  0  2  0  0  0  0  0  0
  194.4760  175.7650  143.7230 N   0  0  0  0  0  2  0  0  0  0  0  0
  194.5050  175.3240  145.1130 C   0  0  0  0  0  0  0  0  0  0  0  0
  194.6200  176.4130  146.1600 C   0  0  0  0  0  2  0  0  0  0  0  0
  193.2760  175.7430  145.8920 C   0  0  0  0  0  2  0  0  0  0  0  0
  196.5820  170.1780  146.2040 F   0  0  0  0  0  0  0  0  0  0  0  0
  194.7410  171.5590  145.5790 C   0  0  0  0  0  3  0  0  0  0  0  0
  194.2240  172.8310  145.3130 C   0  0  0  0  0  3  0  0  0  0  0  0
  196.3890  173.8060  145.7860 C   0  0  0  0  0  3  0  0  0  0  0  0
  196.9050  172.5340  146.0490 C   0  0  0  0  0  3  0  0  0  0  0  0
  195.0430  173.9610  145.4280 C   0  0  0  0  0  0  0  0  0  0  0  0
  196.0790  171.4110  145.9500 C   0  0  0  0  0  0  0  0  0  0  0  0
  189.7170  171.4950  139.1200 C   0  0  0  0  0  1  0  0  0  0  0  0
  190.3230  172.7380  139.3090 O   0  0  0  0  0  0  0  0  0  0  0  0
  187.8330  176.2210  141.7970 O   0  0  0  0  0  0  0  0  0  0  0  0
  185.6330  177.1740  144.6440 C   0  0  0  0  0  0  0  0  0  0  0  0
  185.3110  176.0510  145.3970 O   0  0  0  0  0  1  0  0  0  0  0  0
  186.6000  178.5730  142.9540 C   0  0  0  0  0  3  0  0  0  0  0  0
  187.0420  176.1060  142.9370 C   0  0  0  0  0  2  0  0  0  0  0  0
  185.2010  178.3900  144.8990 C   0  0  1  0  0  3  0  0  0  0  0  0
  185.7120  179.3890  143.9030 C   0  0  0  0  0  3  0  0  0  0  0  0
  186.4830  177.1820  143.4770 C   0  0  0  0  0  0  0  0  0  0  0  0
  184.3640  178.6900  145.9740 O   0  0  0  0  0  0  0  0  0  0  0  0
  184.8460  178.7250  147.3090 C   0  0  0  0  0  1  0  0  0  0  0  0
  1  3  1  0  0  0  0
  3  2  2  0  0  0  0
  5 34  1  6  0  0  0
  5  1  1  0  0  0  0
  5  8  1  0  0  0  0
  6  4  1  6  0  0  0
  6 19  1  0  0  0  0
  7 35  1  0  0  0  0
  7  4  1  0  0  0  0
  8  4  1  1  0  0  0
  8 10  1  0  0  0  0
  9  7  2  0  0  0  0
 10  6  1  0  0  0  0
 10  2  1  6  0  0  0
 11 18  1  0  0  0  0
 12 16  1  0  0  0  0
 13 18  2  0  0  0  0
 14 13  1  0  0  0  0
 15 20  1  1  0  0  0
 15 12  1  0  0  0  0
 15 19  1  0  0  0  0
 16 14  2  0  0  0  0
 16 17  1  0  0  0  0
 17 11  2  0  0  0  0
 19 14  1  1  0  0  0
 20 21  1  0  0  0  0
 21 22  1  0  0  0  0
 22 23  1  0  0  0  0
 23 31  1  0  0  0  0
 23 25  1  0  0  0  0
 23 24  1  0  0  0  0
 25 24  1  0  0  0  0
 27 32  1  0  0  0  0
 28 31  1  0  0  0  0
 28 27  2  0  0  0  0
 29 30  1  0  0  0  0
 31 29  2  0  0  0  0
 32 30  2  0  0  0  0
 32 26  1  0  0  0  0
 33 34  1  0  0  0  0
 35 39  1  0  0  0  0
 36 40  1  0  0  0  0
 36 37  1  0  0  0  0
 38 42  1  0  0  0  0
 38 41  2  0  0  0  0
 39 42  1  0  0  0  0
 40 43  1  6  0  0  0
 41 40  1  0  0  0  0
 42 36  2  0  0  0  0
 43 44  1  0  0  0  0
M  END
>  <MODEL>
4

>  <REMARK>
 VINA RESULT:      -8.0      3.072      6.702
  Name = 
  10 active torsions:
  status: ('A' for Active; 'I' for Inactive)
    1  A    between atoms: C_1  and  N_35
    2  A    between atoms: C_1  and  C_40
    3  A    between atoms: O_8  and  C_27
    4  A    between atoms: C_18  and  C_39
    5  A    between atoms: C_20  and  O_36
    6  A    between atoms: C_22  and  C_41
    7  A    between atoms: C_25  and  O_33
    8  A    between atoms: C_26  and  N_35
    9  A    between atoms: C_26  and  C_39
   10  A    between atoms: C_28  and  O_33
                            x       y       z     vdW  Elec       q    Type
                         _______ _______ _______ _____ _____    ______ ____

>  <TORSDO>
F 10

$$$$
=
 OpenBabel11062422403D

 44 50  0  0  1  0  0  0  0  0999 V2000
  191.1500  171.9000  139.2850 C   0  0  0  0  0  2  0  0  0  0  0  0
  192.2230  171.6100  141.4750 C   0  0  0  0  0  3  0  0  0  0  0  0
  192.3140  171.5170  140.1430 C   0  0  0  0  0  3  0  0  0  0  0  0
  190.1370  174.1610  142.0820 N   0  0  0  0  0  0  0  0  0  0  0  0
  190.5280  173.1710  139.8560 C   0  0  2  0  0  3  0  0  0  0  0  0
  191.0650  173.3870  142.9390 C   0  0  1  0  0  3  0  0  0  0  0  0
  189.4410  175.4070  142.1410 C   0  0  0  0  0  0  0  0  0  0  0  0
  190.0310  172.9210  141.2930 C   0  0  1  0  0  3  0  0  0  0  0  0
  188.6110  175.7030  141.2380 O   0  0  0  0  0  0  0  0  0  0  0  0
  190.9550  172.0930  142.1620 C   0  0  1  0  0  3  0  0  0  0  0  0
  193.2320  176.2770  146.4490 N   0  0  0  0  0  0  0  0  0  0  0  0
  192.9890  176.3270  142.7840 O   0  0  0  0  0  0  0  0  0  0  0  0
  192.7040  174.0990  145.5750 C   0  0  0  0  0  3  0  0  0  0  0  0
  192.7260  174.6570  144.2960 C   0  0  0  0  0  0  0  0  0  0  0  0
  192.6320  175.1910  141.9980 C   0  0  2  0  0  3  0  0  0  0  0  0
  193.0050  175.9800  144.1150 C   0  0  0  0  0  0  0  0  0  0  0  0
  193.2610  176.8150  145.1960 C   0  0  0  0  0  3  0  0  0  0  0  0
  192.9630  174.9520  146.6600 C   0  0  0  0  0  3  0  0  0  0  0  0
  192.4830  173.9990  142.9780 C   0  0  2  0  0  3  0  0  0  0  0  0
  193.6600  174.9070  140.9020 C   0  0  0  0  0  2  0  0  0  0  0  0
  194.8640  175.8360  140.9650 C   0  0  0  0  0  2  0  0  0  0  0  0
  196.0830  175.0520  141.1000 N   0  0  0  0  0  2  0  0  0  0  0  0
  196.5780  175.1990  142.4640 C   0  0  0  0  0  0  0  0  0  0  0  0
  197.8300  176.0350  142.6370 C   0  0  0  0  0  2  0  0  0  0  0  0
  196.4630  176.6150  142.9860 C   0  0  0  0  0  2  0  0  0  0  0  0
  195.6110  171.0850  146.2220 F   0  0  0  0  0  0  0  0  0  0  0  0
  195.6610  171.8250  143.9560 C   0  0  0  0  0  3  0  0  0  0  0  0
  195.8960  172.8420  143.0250 C   0  0  0  0  0  3  0  0  0  0  0  0
  196.4790  174.3520  144.8260 C   0  0  0  0  0  3  0  0  0  0  0  0
  196.2480  173.3330  145.7550 C   0  0  0  0  0  3  0  0  0  0  0  0
  196.2930  174.1140  143.4580 C   0  0  0  0  0  0  0  0  0  0  0  0
  195.8340  172.0720  145.3200 C   0  0  0  0  0  0  0  0  0  0  0  0
  188.4350  172.6910  139.3220 C   0  0  0  0  0  1  0  0  0  0  0  0
  189.4680  173.5870  139.0490 O   0  0  0  0  0  0  0  0  0  0  0  0
  189.6870  176.2840  143.1970 O   0  0  0  0  0  0  0  0  0  0  0  0
  187.5090  176.6640  146.1910 C   0  0  0  0  0  0  0  0  0  0  0  0
  187.9130  175.7890  147.1920 O   0  0  0  0  0  1  0  0  0  0  0  0
  187.4280  177.8500  144.1080 C   0  0  0  0  0  3  0  0  0  0  0  0
  189.1660  176.0810  144.4720 C   0  0  0  0  0  2  0  0  0  0  0  0
  186.4890  177.4900  146.2900 C   0  0  1  0  0  3  0  0  0  0  0  0
  186.2960  178.2990  145.0430 C   0  0  0  0  0  3  0  0  0  0  0  0
  188.1370  176.8040  144.8980 C   0  0  0  0  0  0  0  0  0  0  0  0
  185.6950  177.5820  147.4330 O   0  0  0  0  0  0  0  0  0  0  0  0
  184.8010  178.6660  147.6370 C   0  0  0  0  0  1  0  0  0  0  0  0
  1  5  1  0  0  0  0
  1  3  1  0  0  0  0
  3  2  2  0  0  0  0
  4  7  1  0  0  0  0
  5 34  1  6  0  0  0
  5  8  1  0  0  0  0
  6  4  1  6  0  0  0
  6 19  1  0  0  0  0
  7 35  1  0  0  0  0
  8  4  1  1  0  0  0
  8 10  1  0  0  0  0
  9  7  2  0  0  0  0
 10  2  1  6  0  0  0
 10  6  1  0  0  0  0
 11 18  1  0  0  0  0
 12 16  1  0  0  0  0
 13 18  2  0  0  0  0
 14 13  1  0  0  0  0
 15 20  1  6  0  0  0
 15 12  1  0  0  0  0
 15 19  1  0  0  0  0
 16 14  2  0  0  0  0
 16 17  1  0  0  0  0
 17 11  2  0  0  0  0
 19 14  1  1  0  0  0
 20 21  1  0  0  0  0
 21 22  1  0  0  0  0
 22 23  1  0  0  0  0
 23 24  1  0  0  0  0
 23 25  1  0  0  0  0
 23 31  1  0  0  0  0
 24 25  1  0  0  0  0
 27 32  1  0  0  0  0
 28 31  1  0  0  0  0
 28 27  2  0  0  0  0
 29 30  1  0  0  0  0
 31 29  2  0  0  0  0
 32 30  2  0  0  0  0
 32 26  1  0  0  0  0
 34 33  1  0  0  0  0
 35 39  1  0  0  0  0
 36 40  1  0  0  0  0
 36 37  1  0  0  0  0
 38 42  1  0  0  0  0
 38 41  2  0  0  0  0
 39 42  1  0  0  0  0
 40 43  1  6  0  0  0
 41 40  1  0  0  0  0
 42 36  2  0  0  0  0
 43 44  1  0  0  0  0
M  END
>  <MODEL>
5

>  <REMARK>
 VINA RESULT:      -8.0      3.256      7.348
  Name = 
  10 active torsions:
  status: ('A' for Active; 'I' for Inactive)
    1  A    between atoms: C_1  and  N_35
    2  A    between atoms: C_1  and  C_40
    3  A    between atoms: O_8  and  C_27
    4  A    between atoms: C_18  and  C_39
    5  A    between atoms: C_20  and  O_36
    6  A    between atoms: C_22  and  C_41
    7  A    between atoms: C_25  and  O_33
    8  A    between atoms: C_26  and  N_35
    9  A    between atoms: C_26  and  C_39
   10  A    between atoms: C_28  and  O_33
                            x       y       z     vdW  Elec       q    Type
                         _______ _______ _______ _____ _____    ______ ____

>  <TORSDO>
F 10

$$$$
=
 OpenBabel11062422403D

 44 50  0  0  1  0  0  0  0  0999 V2000
  194.9550  176.4930  145.8760 C   0  0  0  0  0  2  0  0  0  0  0  0
  192.9350  175.1340  146.1970 C   0  0  0  0  0  3  0  0  0  0  0  0
  193.6330  176.2280  146.5250 C   0  0  0  0  0  3  0  0  0  0  0  0
  193.6730  174.4930  142.9920 N   0  0  0  0  0  0  0  0  0  0  0  0
  194.8400  176.1560  144.3930 C   0  0  2  0  0  3  0  0  0  0  0  0
  192.6290  173.9840  143.9110 C   0  0  1  0  0  3  0  0  0  0  0  0
  193.9110  174.5270  141.5840 C   0  0  0  0  0  0  0  0  0  0  0  0
  194.4830  174.6680  144.2110 C   0  0  1  0  0  3  0  0  0  0  0  0
  195.0130  174.9610  141.1460 O   0  0  0  0  0  0  0  0  0  0  0  0
  193.4470  174.1290  145.1760 C   0  0  1  0  0  3  0  0  0  0  0  0
  188.1410  172.9530  141.8690 N   0  0  0  0  0  0  0  0  0  0  0  0
  190.4090  175.8430  141.9150 O   0  0  0  0  0  0  0  0  0  0  0  0
  189.6600  172.8480  143.7330 C   0  0  0  0  0  3  0  0  0  0  0  0
  190.2160  174.0480  143.2880 C   0  0  0  0  0  0  0  0  0  0  0  0
  191.4520  176.0170  142.8720 C   0  0  2  0  0  3  0  0  0  0  0  0
  189.7330  174.6730  142.1760 C   0  0  0  0  0  0  0  0  0  0  0  0
  188.6840  174.1290  141.4450 C   0  0  0  0  0  3  0  0  0  0  0  0
  188.6000  172.3080  142.9860 C   0  0  0  0  0  3  0  0  0  0  0  0
  191.3410  174.8360  143.8720 C   0  0  2  0  0  3  0  0  0  0  0  0
  191.3650  177.3720  143.5740 C   0  0  0  0  0  2  0  0  0  0  0  0
  190.4670  177.3450  144.8030 C   0  0  0  0  0  2  0  0  0  0  0  0
  189.0740  177.4740  144.3970 N   0  0  0  0  0  2  0  0  0  0  0  0
  188.2290  177.0770  145.5170 C   0  0  0  0  0  0  0  0  0  0  0  0
  188.5580  175.7490  146.1680 C   0  0  0  0  0  2  0  0  0  0  0  0
  188.9680  177.0560  146.8380 C   0  0  0  0  0  2  0  0  0  0  0  0
  182.9320  179.0440  145.7650 F   0  0  0  0  0  0  0  0  0  0  0  0
  184.6180  177.5760  146.5950 C   0  0  0  0  0  3  0  0  0  0  0  0
  185.9270  177.0850  146.5330 C   0  0  0  0  0  3  0  0  0  0  0  0
  186.3950  178.5760  144.6840 C   0  0  0  0  0  3  0  0  0  0  0  0
  185.0880  179.0690  144.7490 C   0  0  0  0  0  3  0  0  0  0  0  0
  186.8160  177.5750  145.5690 C   0  0  0  0  0  0  0  0  0  0  0  0
  184.1980  178.5650  145.7020 C   0  0  0  0  0  0  0  0  0  0  0  0
  196.8580  175.3390  143.9980 C   0  0  0  0  0  1  0  0  0  0  0  0
  196.0420  176.4420  143.7440 O   0  0  0  0  0  0  0  0  0  0  0  0
  192.9220  174.0810  140.7080 O   0  0  0  0  0  0  0  0  0  0  0  0
  191.1170  171.0060  139.6430 C   0  0  0  0  0  0  0  0  0  0  0  0
  191.4190  169.9530  140.4980 O   0  0  0  0  0  1  0  0  0  0  0  0
  191.0630  173.1980  138.6720 C   0  0  0  0  0  3  0  0  0  0  0  0
  192.4830  172.7600  140.6890 C   0  0  0  0  0  3  0  0  0  0  0  0
  190.3210  170.9130  138.6000 C   0  0  0  0  0  0  0  0  0  0  0  0
  190.1980  172.2160  137.8670 C   0  0  0  0  0  3  0  0  0  0  0  0
  191.6220  172.3530  139.7650 C   0  0  0  0  0  0  0  0  0  0  0  0
  189.6790  169.7300  138.2360 O   0  0  0  0  0  0  0  0  0  0  0  0
  190.3700  168.6720  137.5870 C   0  0  0  0  0  1  0  0  0  0  0  0
  1  3  1  0  0  0  0
  2  3  2  0  0  0  0
  5 34  1  6  0  0  0
  5  1  1  0  0  0  0
  6  4  1  6  0  0  0
  6 10  1  0  0  0  0
  7  4  1  0  0  0  0
  8  4  1  6  0  0  0
  8  5  1  0  0  0  0
  8 10  1  0  0  0  0
  9  7  2  0  0  0  0
 10  2  1  1  0  0  0
 11 18  1  0  0  0  0
 12 16  1  0  0  0  0
 12 15  1  0  0  0  0
 14 13  1  0  0  0  0
 15 20  1  1  0  0  0
 15 19  1  0  0  0  0
 16 14  2  0  0  0  0
 17 11  2  0  0  0  0
 17 16  1  0  0  0  0
 18 13  2  0  0  0  0
 19 14  1  6  0  0  0
 19  6  1  0  0  0  0
 20 21  1  0  0  0  0
 22 21  1  0  0  0  0
 22 23  1  0  0  0  0
 23 31  1  0  0  0  0
 23 24  1  0  0  0  0
 23 25  1  0  0  0  0
 24 25  1  0  0  0  0
 28 27  1  0  0  0  0
 29 30  2  0  0  0  0
 29 31  1  0  0  0  0
 30 32  1  0  0  0  0
 31 28  2  0  0  0  0
 32 26  1  0  0  0  0
 32 27  2  0  0  0  0
 34 33  1  0  0  0  0
 35  7  1  0  0  0  0
 36 42  1  0  0  0  0
 36 37  1  0  0  0  0
 38 42  1  0  0  0  0
 39 35  1  0  0  0  0
 40 36  2  0  0  0  0
 41 40  1  0  0  0  0
 41 38  2  0  0  0  0
 42 39  2  0  0  0  0
 43 40  1  0  0  0  0
 44 43  1  0  0  0  0
M  END
>  <MODEL>
6

>  <REMARK>
 VINA RESULT:      -7.9      2.450      4.645
  Name = 
  10 active torsions:
  status: ('A' for Active; 'I' for Inactive)
    1  A    between atoms: C_1  and  N_35
    2  A    between atoms: C_1  and  C_40
    3  A    between atoms: O_8  and  C_27
    4  A    between atoms: C_18  and  C_39
    5  A    between atoms: C_20  and  O_36
    6  A    between atoms: C_22  and  C_41
    7  A    between atoms: C_25  and  O_33
    8  A    between atoms: C_26  and  N_35
    9  A    between atoms: C_26  and  C_39
   10  A    between atoms: C_28  and  O_33
                            x       y       z     vdW  Elec       q    Type
                         _______ _______ _______ _____ _____    ______ ____

>  <TORSDO>
F 10

$$$$
=
 OpenBabel11062422403D

 44 50  0  0  1  0  0  0  0  0999 V2000
  195.5300  176.0100  144.2490 C   0  0  0  0  0  2  0  0  0  0  0  0
  193.9500  175.7800  142.3830 C   0  0  0  0  0  3  0  0  0  0  0  0
  195.1760  175.5500  142.8690 C   0  0  0  0  0  3  0  0  0  0  0  0
  191.8840  175.7330  145.0200 N   0  0  0  0  0  0  0  0  0  0  0  0
  194.3470  175.7250  145.1700 C   0  0  2  0  0  3  0  0  0  0  0  0
  191.6570  175.7050  143.5570 C   0  0  1  0  0  3  0  0  0  0  0  0
  191.1470  175.4340  146.2060 C   0  0  0  0  0  0  0  0  0  0  0  0
  193.1020  176.4950  144.6900 C   0  0  1  0  0  3  0  0  0  0  0  0
  191.6440  175.6970  147.3360 O   0  0  0  0  0  0  0  0  0  0  0  0
  192.8870  176.5070  143.1910 C   0  0  1  0  0  3  0  0  0  0  0  0
  187.7530  172.9220  142.0130 N   0  0  0  0  0  0  0  0  0  0  0  0
  190.7200  172.3600  144.1050 O   0  0  0  0  0  0  0  0  0  0  0  0
  189.4710  174.5430  141.5550 C   0  0  0  0  0  3  0  0  0  0  0  0
  190.2550  173.9200  142.5270 C   0  0  0  0  0  0  0  0  0  0  0  0
  191.8720  173.2020  144.0900 C   0  0  2  0  0  3  0  0  0  0  0  0
  189.7940  172.8290  143.2020 C   0  0  0  0  0  0  0  0  0  0  0  0
  188.5280  172.3120  142.9560 C   0  0  0  0  0  3  0  0  0  0  0  0
  188.1930  174.0130  141.3140 C   0  0  0  0  0  3  0  0  0  0  0  0
  191.6300  174.2680  142.9900 C   0  0  2  0  0  3  0  0  0  0  0  0
  193.1570  172.4100  143.8480 C   0  0  0  0  0  2  0  0  0  0  0  0
  192.8950  170.9660  143.4450 C   0  0  0  0  0  2  0  0  0  0  0  0
  193.3670  170.7410  142.0860 N   0  0  0  0  0  2  0  0  0  0  0  0
  192.2270  170.3730  141.2560 C   0  0  0  0  0  0  0  0  0  0  0  0
  192.0470  168.8930  140.9820 C   0  0  0  0  0  2  0  0  0  0  0  0
  191.1700  169.5960  142.0130 C   0  0  0  0  0  2  0  0  0  0  0  0
  190.2670  174.1640  137.5460 F   0  0  0  0  0  0  0  0  0  0  0  0
  189.9590  172.1420  138.7710 C   0  0  0  0  0  3  0  0  0  0  0  0
  190.4430  171.2010  139.6850 C   0  0  0  0  0  3  0  0  0  0  0  0
  192.4860  172.4800  139.9150 C   0  0  0  0  0  3  0  0  0  0  0  0
  192.0000  173.4220  139.0040 C   0  0  0  0  0  3  0  0  0  0  0  0
  191.7140  171.3590  140.2510 C   0  0  0  0  0  0  0  0  0  0  0  0
  190.7380  173.2490  138.4280 C   0  0  0  0  0  0  0  0  0  0  0  0
  194.5660  177.4850  146.4930 C   0  0  0  0  0  1  0  0  0  0  0  0
  194.6630  176.0940  146.4780 O   0  0  0  0  0  0  0  0  0  0  0  0
  189.8830  174.8540  146.1020 O   0  0  0  0  0  0  0  0  0  0  0  0
  186.7160  176.7940  146.3340 C   0  0  0  0  0  0  0  0  0  0  0  0
  186.2460  176.7910  147.6420 O   0  0  0  0  0  1  0  0  0  0  0  0
  188.1000  176.3930  144.4180 C   0  0  0  0  0  3  0  0  0  0  0  0
  188.7440  175.4420  146.6450 C   0  0  0  0  0  3  0  0  0  0  0  0
  186.1100  177.3850  145.3270 C   0  0  0  0  0  0  0  0  0  0  0  0
  186.8540  177.2060  144.0370 C   0  0  0  0  0  3  0  0  0  0  0  0
  187.9300  176.1580  145.8790 C   0  0  0  0  0  0  0  0  0  0  0  0
  184.9140  178.0900  145.4670 O   0  0  0  0  0  0  0  0  0  0  0  0
  184.3490  178.8260  144.3920 C   0  0  0  0  0  1  0  0  0  0  0  0
  1  5  1  0  0  0  0
  2  3  2  0  0  0  0
  3  1  1  0  0  0  0
  4  7  1  0  0  0  0
  5 34  1  1  0  0  0
  6  4  1  1  0  0  0
  7  9  2  0  0  0  0
  8  4  1  1  0  0  0
  8  5  1  0  0  0  0
 10  2  1  6  0  0  0
 10  6  1  0  0  0  0
 10  8  1  0  0  0  0
 11 17  1  0  0  0  0
 13 14  2  0  0  0  0
 14 16  1  0  0  0  0
 15 20  1  6  0  0  0
 15 12  1  0  0  0  0
 16 12  1  0  0  0  0
 17 16  2  0  0  0  0
 18 13  1  0  0  0  0
 18 11  2  0  0  0  0
 19 14  1  1  0  0  0
 19  6  1  0  0  0  0
 19 15  1  0  0  0  0
 21 20  1  0  0  0  0
 22 21  1  0  0  0  0
 23 25  1  0  0  0  0
 23 22  1  0  0  0  0
 24 23  1  0  0  0  0
 24 25  1  0  0  0  0
 26 32  1  0  0  0  0
 27 28  1  0  0  0  0
 28 31  2  0  0  0  0
 29 31  1  0  0  0  0
 30 29  2  0  0  0  0
 31 23  1  0  0  0  0
 32 27  2  0  0  0  0
 32 30  1  0  0  0  0
 34 33  1  0  0  0  0
 35  7  1  0  0  0  0
 35 39  1  0  0  0  0
 36 37  1  0  0  0  0
 38 42  1  0  0  0  0
 40 43  1  0  0  0  0
 40 36  2  0  0  0  0
 41 38  2  0  0  0  0
 41 40  1  0  0  0  0
 42 36  1  0  0  0  0
 42 39  2  0  0  0  0
 44 43  1  0  0  0  0
M  END
>  <MODEL>
7

>  <REMARK>
 VINA RESULT:      -7.8      2.900      5.908
  Name = 
  10 active torsions:
  status: ('A' for Active; 'I' for Inactive)
    1  A    between atoms: C_1  and  N_35
    2  A    between atoms: C_1  and  C_40
    3  A    between atoms: O_8  and  C_27
    4  A    between atoms: C_18  and  C_39
    5  A    between atoms: C_20  and  O_36
    6  A    between atoms: C_22  and  C_41
    7  A    between atoms: C_25  and  O_33
    8  A    between atoms: C_26  and  N_35
    9  A    between atoms: C_26  and  C_39
   10  A    between atoms: C_28  and  O_33
                            x       y       z     vdW  Elec       q    Type
                         _______ _______ _______ _____ _____    ______ ____

>  <TORSDO>
F 10

$$$$
=
 OpenBabel11062422403D

 44 50  0  0  1  0  0  0  0  0999 V2000
  188.7040  175.9630  146.7560 C   0  0  0  0  0  2  0  0  0  0  0  0
  190.7880  175.0440  147.6740 C   0  0  0  0  0  3  0  0  0  0  0  0
  189.4640  174.9230  147.5160 C   0  0  0  0  0  3  0  0  0  0  0  0
  191.9020  176.6370  144.9450 N   0  0  0  0  0  0  0  0  0  0  0  0
  189.5210  176.3560  145.5290 C   0  0  2  0  0  3  0  0  0  0  0  0
  192.5830  175.9030  146.0360 C   0  0  1  0  0  3  0  0  0  0  0  0
  192.2130  177.0900  143.6260 C   0  0  0  0  0  0  0  0  0  0  0  0
  190.8790  176.9440  145.9600 C   0  0  1  0  0  3  0  0  0  0  0  0
  191.3900  177.8170  143.0040 O   0  0  0  0  0  0  0  0  0  0  0  0
  191.5610  176.2240  147.1050 C   0  0  1  0  0  3  0  0  0  0  0  0
  196.5770  173.3770  144.2930 N   0  0  0  0  0  0  0  0  0  0  0  0
  192.9820  173.4550  143.5420 O   0  0  0  0  0  0  0  0  0  0  0  0
  195.3140  174.2690  146.1360 C   0  0  0  0  0  3  0  0  0  0  0  0
  194.1600  174.0890  145.3730 C   0  0  0  0  0  0  0  0  0  0  0  0
  191.9990  173.9870  144.4280 C   0  0  2  0  0  3  0  0  0  0  0  0
  194.2270  173.5590  144.1180 C   0  0  0  0  0  0  0  0  0  0  0  0
  195.4440  173.1960  143.5550 C   0  0  0  0  0  3  0  0  0  0  0  0
  196.5390  173.8990  145.5580 C   0  0  0  0  0  3  0  0  0  0  0  0
  192.7430  174.3980  145.7250 C   0  0  2  0  0  3  0  0  0  0  0  0
  190.8760  172.9870  144.7040 C   0  0  0  0  0  2  0  0  0  0  0  0
  189.7760  173.0270  143.6530 C   0  0  0  0  0  2  0  0  0  0  0  0
  189.8830  174.2530  142.8750 N   0  0  0  0  0  2  0  0  0  0  0  0
  188.7140  174.3560  142.0110 C   0  0  0  0  0  0  0  0  0  0  0  0
  188.7560  173.5530  140.7260 C   0  0  0  0  0  2  0  0  0  0  0  0
  187.9340  173.0620  141.9130 C   0  0  0  0  0  2  0  0  0  0  0  0
  185.5480  179.0420  142.0870 F   0  0  0  0  0  0  0  0  0  0  0  0
  187.5060  177.8990  141.3490 C   0  0  0  0  0  3  0  0  0  0  0  0
  188.2930  176.7420  141.3310 C   0  0  0  0  0  3  0  0  0  0  0  0
  186.6870  175.6330  142.7650 C   0  0  0  0  0  3  0  0  0  0  0  0
  185.9000  176.7880  142.7780 C   0  0  0  0  0  3  0  0  0  0  0  0
  187.8930  175.6090  142.0500 C   0  0  0  0  0  0  0  0  0  0  0  0
  186.3130  177.9230  142.0740 C   0  0  0  0  0  0  0  0  0  0  0  0
  187.8160  177.7640  145.6140 C   0  0  0  0  0  1  0  0  0  0  0  0
  188.8170  177.2900  144.7660 O   0  0  0  0  0  0  0  0  0  0  0  0
  193.4240  176.7230  143.0400 O   0  0  0  0  0  0  0  0  0  0  0  0
  194.8630  175.3630  139.8890 C   0  0  0  0  0  0  0  0  0  0  0  0
  193.8470  174.9150  139.0530 O   0  0  0  0  0  1  0  0  0  0  0  0
  195.9960  176.3280  141.7690 C   0  0  0  0  0  3  0  0  0  0  0  0
  193.4970  176.1430  141.7770 C   0  0  0  0  0  3  0  0  0  0  0  0
  196.1460  175.2930  139.6060 C   0  0  0  0  0  0  0  0  0  0  0  0
  196.9970  175.8490  140.7080 C   0  0  0  0  0  3  0  0  0  0  0  0
  194.6730  175.9690  141.1860 C   0  0  0  0  0  0  0  0  0  0  0  0
  196.6320  174.7600  138.4130 O   0  0  0  0  0  0  0  0  0  0  0  0
  197.3030  175.5630  137.4520 C   0  0  0  0  0  1  0  0  0  0  0  0
  1  3  1  0  0  0  0
  3  2  2  0  0  0  0
  5 34  1  1  0  0  0
  5  8  1  0  0  0  0
  5  1  1  0  0  0  0
  6  4  1  6  0  0  0
  6 10  1  0  0  0  0
  7  4  1  0  0  0  0
  8  4  1  6  0  0  0
  8 10  1  0  0  0  0
  9  7  2  0  0  0  0
 10  2  1  6  0  0  0
 11 18  1  0  0  0  0
 12 16  1  0  0  0  0
 12 15  1  0  0  0  0
 14 13  1  0  0  0  0
 15 20  1  1  0  0  0
 15 19  1  0  0  0  0
 16 14  2  0  0  0  0
 17 16  1  0  0  0  0
 17 11  2  0  0  0  0
 18 13  2  0  0  0  0
 19 14  1  6  0  0  0
 19  6  1  0  0  0  0
 21 20  1  0  0  0  0
 22 21  1  0  0  0  0
 23 31  1  0  0  0  0
 23 22  1  0  0  0  0
 24 25  1  0  0  0  0
 24 23  1  0  0  0  0
 25 23  1  0  0  0  0
 27 32  1  0  0  0  0
 28 27  2  0  0  0  0
 28 31  1  0  0  0  0
 29 30  1  0  0  0  0
 31 29  2  0  0  0  0
 32 26  1  0  0  0  0
 32 30  2  0  0  0  0
 34 33  1  0  0  0  0
 35  7  1  0  0  0  0
 36 42  1  0  0  0  0
 37 36  1  0  0  0  0
 39 35  1  0  0  0  0
 40 36  2  0  0  0  0
 40 41  1  0  0  0  0
 41 38  2  0  0  0  0
 42 38  1  0  0  0  0
 42 39  2  0  0  0  0
 43 40  1  0  0  0  0
 44 43  1  0  0  0  0
M  END
>  <MODEL>
8

>  <REMARK>
 VINA RESULT:      -7.6      2.890      6.595
  Name = 
  10 active torsions:
  status: ('A' for Active; 'I' for Inactive)
    1  A    between atoms: C_1  and  N_35
    2  A    between atoms: C_1  and  C_40
    3  A    between atoms: O_8  and  C_27
    4  A    between atoms: C_18  and  C_39
    5  A    between atoms: C_20  and  O_36
    6  A    between atoms: C_22  and  C_41
    7  A    between atoms: C_25  and  O_33
    8  A    between atoms: C_26  and  N_35
    9  A    between atoms: C_26  and  C_39
   10  A    between atoms: C_28  and  O_33
                            x       y       z     vdW  Elec       q    Type
                         _______ _______ _______ _____ _____    ______ ____

>  <TORSDO>
F 10

$$$$
=
 OpenBabel11062422403D

 44 50  0  0  1  0  0  0  0  0999 V2000
  187.5580  174.9220  142.0400 C   0  0  0  0  0  2  0  0  0  0  0  0
  189.5000  176.3150  142.6040 C   0  0  0  0  0  3  0  0  0  0  0  0
  188.1850  176.0980  142.7210 C   0  0  0  0  0  3  0  0  0  0  0  0
  190.9120  173.2930  142.2860 N   0  0  0  0  0  0  0  0  0  0  0  0
  188.4820  173.7200  142.2070 C   0  0  2  0  0  3  0  0  0  0  0  0
  191.4600  174.6420  142.5520 C   0  0  1  0  0  3  0  0  0  0  0  0
  191.3430  171.9370  142.4140 C   0  0  0  0  0  0  0  0  0  0  0  0
  189.8490  174.0050  141.5550 C   0  0  1  0  0  3  0  0  0  0  0  0
  190.6210  171.0060  141.9620 O   0  0  0  0  0  0  0  0  0  0  0  0
  190.3970  175.3990  141.7850 C   0  0  1  0  0  3  0  0  0  0  0  0
  195.4410  175.6950  145.4540 N   0  0  0  0  0  0  0  0  0  0  0  0
  192.4690  173.5540  145.7400 O   0  0  0  0  0  0  0  0  0  0  0  0
  193.6900  176.4190  143.9690 C   0  0  0  0  0  3  0  0  0  0  0  0
  192.9130  175.3620  144.4460 C   0  0  0  0  0  0  0  0  0  0  0  0
  191.2990  173.7110  144.9400 C   0  0  2  0  0  3  0  0  0  0  0  0
  193.3920  174.5170  145.4020 C   0  0  0  0  0  0  0  0  0  0  0  0
  194.6720  174.6700  145.9210 C   0  0  0  0  0  3  0  0  0  0  0  0
  194.9820  176.5650  144.5000 C   0  0  0  0  0  3  0  0  0  0  0  0
  191.5250  174.9680  144.0600 C   0  0  2  0  0  3  0  0  0  0  0  0
  190.0340  173.8280  145.7910 C   0  0  0  0  0  2  0  0  0  0  0  0
  189.9490  175.1470  146.5460 C   0  0  0  0  0  2  0  0  0  0  0  0
  188.5530  175.5130  146.7420 N   0  0  0  0  0  2  0  0  0  0  0  0
  188.4270  176.9570  146.5820 C   0  0  0  0  0  0  0  0  0  0  0  0
  189.4310  177.8050  147.3370 C   0  0  0  0  0  2  0  0  0  0  0  0
  189.5920  177.5740  145.8380 C   0  0  0  0  0  2  0  0  0  0  0  0
  183.3050  179.0430  145.4010 F   0  0  0  0  0  0  0  0  0  0  0  0
  185.5820  178.7120  144.7740 C   0  0  0  0  0  3  0  0  0  0  0  0
  186.8510  178.2010  145.0650 C   0  0  0  0  0  3  0  0  0  0  0  0
  186.0230  177.3640  147.1820 C   0  0  0  0  0  3  0  0  0  0  0  0
  184.7540  177.8730  146.8870 C   0  0  0  0  0  3  0  0  0  0  0  0
  187.0790  177.5360  146.2770 C   0  0  0  0  0  0  0  0  0  0  0  0
  184.5360  178.5510  145.6850 C   0  0  0  0  0  0  0  0  0  0  0  0
  188.1330  172.7300  140.2590 C   0  0  0  0  0  1  0  0  0  0  0  0
  187.9040  172.5890  141.6280 O   0  0  0  0  0  0  0  0  0  0  0  0
  192.5590  171.6570  143.0360 O   0  0  0  0  0  0  0  0  0  0  0  0
  194.1720  169.2530  145.3750 C   0  0  0  0  0  0  0  0  0  0  0  0
  193.3350  168.1660  145.5960 O   0  0  0  0  0  1  0  0  0  0  0  0
  195.0230  171.3260  144.5220 C   0  0  0  0  0  3  0  0  0  0  0  0
  192.7490  170.5320  143.8330 C   0  0  0  0  0  2  0  0  0  0  0  0
  195.3530  169.4100  145.9330 C   0  0  2  0  0  3  0  0  0  0  0  0
  196.0130  170.6870  145.5060 C   0  0  0  0  0  3  0  0  0  0  0  0
  193.8800  170.3700  144.5080 C   0  0  0  0  0  0  0  0  0  0  0  0
  195.9060  168.4820  146.8150 O   0  0  0  0  0  0  0  0  0  0  0  0
  197.0880  168.7610  147.5520 C   0  0  0  0  0  1  0  0  0  0  0  0
  1  5  1  0  0  0  0
  1  3  1  0  0  0  0
  2  3  2  0  0  0  0
  4  7  1  0  0  0  0
  5 34  1  6  0  0  0
  6  4  1  1  0  0  0
  6 19  1  0  0  0  0
  7 35  1  0  0  0  0
  8 10  1  0  0  0  0
  8  5  1  0  0  0  0
  8  4  1  1  0  0  0
  9  7  2  0  0  0  0
 10  6  1  0  0  0  0
 10  2  1  1  0  0  0
 11 17  1  0  0  0  0
 13 14  2  0  0  0  0
 13 18  1  0  0  0  0
 14 16  1  0  0  0  0
 15 12  1  0  0  0  0
 15 20  1  1  0  0  0
 16 12  1  0  0  0  0
 16 17  2  0  0  0  0
 18 11  2  0  0  0  0
 19 14  1  6  0  0  0
 19 15  1  0  0  0  0
 20 21  1  0  0  0  0
 21 22  1  0  0  0  0
 23 22  1  0  0  0  0
 23 24  1  0  0  0  0
 25 23  1  0  0  0  0
 25 24  1  0  0  0  0
 26 32  1  0  0  0  0
 27 28  2  0  0  0  0
 27 32  1  0  0  0  0
 28 31  1  0  0  0  0
 30 29  1  0  0  0  0
 31 23  1  0  0  0  0
 31 29  2  0  0  0  0
 32 30  2  0  0  0  0
 33 34  1  0  0  0  0
 35 39  1  0  0  0  0
 36 37  1  0  0  0  0
 36 40  1  0  0  0  0
 38 41  2  0  0  0  0
 39 42  1  0  0  0  0
 40 43  1  6  0  0  0
 41 40  1  0  0  0  0
 42 38  1  0  0  0  0
 42 36  2  0  0  0  0
 43 44  1  0  0  0  0
M  END
>  <MODEL>
9

>  <REMARK>
 VINA RESULT:      -7.6      2.929      7.413
  Name = 
  10 active torsions:
  status: ('A' for Active; 'I' for Inactive)
    1  A    between atoms: C_1  and  N_35
    2  A    between atoms: C_1  and  C_40
    3  A    between atoms: O_8  and  C_27
    4  A    between atoms: C_18  and  C_39
    5  A    between atoms: C_20  and  O_36
    6  A    between atoms: C_22  and  C_41
    7  A    between atoms: C_25  and  O_33
    8  A    between atoms: C_26  and  N_35
    9  A    between atoms: C_26  and  C_39
   10  A    between atoms: C_28  and  O_33
                            x       y       z     vdW  Elec       q    Type
                         _______ _______ _______ _____ _____    ______ ____

>  <TORSDO>
F 10

$$$$
