=
 OpenBabel11072408263D

 34 38  0  0  1  0  0  0  0  0999 V2000
  193.4660  176.3970  142.0680 O   0  0  0  0  0  0  0  0  0  0  0  0
  192.5980  176.3850  142.9800 C   0  0  0  0  0  0  0  0  0  0  0  0
  188.7480  176.6760  145.5440 C   0  0  2  0  0  3  0  0  0  0  0  0
  190.6110  176.6080  143.9910 C   0  0  0  0  0  0  0  0  0  0  0  0
  191.2750  176.8440  142.7650 N   0  0  0  0  0  0  0  0  0  0  0  0
  192.8680  175.8960  144.3660 C   0  0  2  0  0  3  0  0  0  0  0  0
  189.8140  177.3870  146.8500 S   0  0  0  0  0  0  0  0  0  0  0  0
  191.5240  175.3210  147.4300 C   0  0  0  0  0  1  0  0  0  0  0  0
  191.3510  176.4550  146.4400 C   0  0  1  0  0  3  0  0  0  0  0  0
  189.3500  176.9530  144.2060 C   0  0  0  0  0  2  0  0  0  0  0  0
  191.4570  175.9010  145.0030 C   0  0  1  0  0  3  0  0  0  0  0  0
  185.7250  178.7330  144.7140 N   0  0  0  0  0  0  0  0  0  0  0  0
  184.7480  178.2920  145.6640 C   0  0  0  0  0  0  0  0  0  0  0  0
  185.0790  177.2380  146.6810 C   0  0  0  0  0  2  0  0  0  0  0  0
  186.9260  178.2430  144.6860 C   0  0  0  0  0  3  0  0  0  0  0  0
  186.4930  176.7390  146.5550 C   0  0  0  0  0  3  0  0  0  0  0  0
  187.3500  177.2020  145.6360 C   0  0  0  0  0  0  0  0  0  0  0  0
  183.5950  178.7960  145.6490 O   0  0  0  0  0  0  0  0  0  0  0  0
  193.8600  176.8490  145.0360 C   0  0  0  0  0  2  0  0  0  0  0  0
  195.2240  176.1970  145.1990 C   0  0  0  0  0  2  0  0  0  0  0  0
  195.1560  175.0730  146.2180 C   0  0  0  0  0  2  0  0  0  0  0  0
  196.1750  173.9800  145.8990 C   0  0  0  0  0  2  0  0  0  0  0  0
  196.3340  171.4350  145.7120 C   0  0  0  0  0  1  0  0  0  0  0  0
  194.7390  168.7180  143.7650 O   0  0  0  0  0  0  0  0  0  0  0  0
  194.7600  172.2540  142.7550 C   0  0  1  0  0  3  0  0  0  0  0  0
  195.6360  172.7020  145.2150 C   0  0  1  0  0  0  0  0  0  0  0  0
  196.9630  173.1920  143.1630 C   0  0  0  0  0  2  0  0  0  0  0  0
  194.1560  172.6160  145.6320 C   0  0  0  0  0  2  0  0  0  0  0  0
  194.4250  169.9330  143.6750 C   0  0  0  0  0  0  0  0  0  0  0  0
  193.5340  170.4870  144.6040 O   0  0  0  0  0  0  0  0  0  0  0  0
  193.3540  172.5250  143.2750 C   0  0  0  0  0  2  0  0  0  0  0  0
  195.7990  172.8140  143.6970 C   0  0  0  0  0  0  0  0  0  0  0  0
  193.2330  171.8850  144.6530 C   0  0  2  0  0  3  0  0  0  0  0  0
  194.9640  170.7510  142.5340 C   0  0  0  0  0  2  0  0  0  0  0  0
  1  2  2  0  0  0  0
  2  6  1  0  0  0  0
  3 17  1  6  0  0  0
  3  7  1  0  0  0  0
  4 10  1  0  0  0  0
  5  2  1  0  0  0  0
  5  4  2  0  0  0  0
  6 11  1  0  0  0  0
  6 19  1  1  0  0  0
  9  7  1  0  0  0  0
  9  8  1  1  0  0  0
 10  3  1  0  0  0  0
 11  4  1  6  0  0  0
 11  9  1  0  0  0  0
 12 13  1  0  0  0  0
 13 14  1  0  0  0  0
 15 12  2  0  0  0  0
 15 17  1  0  0  0  0
 16 14  1  0  0  0  0
 17 16  2  0  0  0  0
 18 13  2  0  0  0  0
 19 20  1  0  0  0  0
 20 21  1  0  0  0  0
 22 21  1  0  0  0  0
 25 34  1  1  0  0  0
 25 31  1  0  0  0  0
 25 32  1  0  0  0  0
 26 28  1  0  0  0  0
 26 23  1  1  0  0  0
 26 22  1  0  0  0  0
 27 32  2  0  0  0  0
 29 24  2  0  0  0  0
 29 30  1  0  0  0  0
 30 33  1  0  0  0  0
 32 26  1  0  0  0  0
 33 31  1  6  0  0  0
 33 28  1  0  0  0  0
 34 29  1  0  0  0  0
M  END
>  <MODEL>
1

>  <REMARK>
 VINA RESULT:      -7.6      0.000      0.000
  Name = 
  6 active torsions:
  status: ('A' for Active; 'I' for Inactive)
    1  A    between atoms: C_5  and  C_24
    2  A    between atoms: C_5  and  C_31
    3  A    between atoms: C_7  and  C_10
    4  A    between atoms: C_10  and  C_31
    5  A    between atoms: C_11  and  C_29
    6  A    between atoms: C_16  and  C_24
                            x       y       z     vdW  Elec       q    Type
                         _______ _______ _______ _____ _____    ______ ____

>  <TORSDO>
F 6

$$$$
=
 OpenBabel11072408263D

 34 38  0  0  1  0  0  0  0  0999 V2000
  190.2780  174.9170  148.0090 O   0  0  0  0  0  0  0  0  0  0  0  0
  189.9420  175.6320  147.0280 C   0  0  0  0  0  0  0  0  0  0  0  0
  187.7200  177.8860  143.6420 C   0  0  2  0  0  3  0  0  0  0  0  0
  188.6410  176.6010  145.4830 C   0  0  0  0  0  0  0  0  0  0  0  0
  188.6200  175.6390  146.5200 N   0  0  0  0  0  2  0  0  0  0  0  0
  190.8900  176.5340  146.3060 C   0  0  2  0  0  3  0  0  0  0  0  0
  189.1560  177.4720  142.5870 S   0  0  0  0  0  0  0  0  0  0  0  0
  191.2140  178.8120  143.8090 C   0  0  0  0  0  1  0  0  0  0  0  0
  190.4440  177.5100  143.9050 C   0  0  1  0  0  3  0  0  0  0  0  0
  187.5870  176.8640  144.7230 C   0  0  0  0  0  3  0  0  0  0  0  0
  189.9490  177.3140  145.3550 C   0  0  1  0  0  3  0  0  0  0  0  0
  185.5100  178.0370  140.6170 N   0  0  0  0  0  0  0  0  0  0  0  0
  184.1950  178.1760  141.1680 C   0  0  0  0  0  0  0  0  0  0  0  0
  183.9820  178.2360  142.6540 C   0  0  0  0  0  2  0  0  0  0  0  0
  186.5650  177.9520  141.3680 C   0  0  0  0  0  3  0  0  0  0  0  0
  185.2690  178.1250  143.4260 C   0  0  0  0  0  3  0  0  0  0  0  0
  186.4640  177.9950  142.8350 C   0  0  0  0  0  0  0  0  0  0  0  0
  183.2030  178.2510  140.3980 O   0  0  0  0  0  0  0  0  0  0  0  0
  191.9330  175.6740  145.5880 C   0  0  0  0  0  2  0  0  0  0  0  0
  193.3220  176.2770  145.7130 C   0  0  0  0  0  2  0  0  0  0  0  0
  194.0440  176.2270  144.3780 C   0  0  0  0  0  2  0  0  0  0  0  0
  193.8220  174.8830  143.6830 C   0  0  0  0  0  2  0  0  0  0  0  0
  195.0080  172.9130  142.5670 C   0  0  0  0  0  1  0  0  0  0  0  0
  197.8590  170.6590  143.2810 O   0  0  0  0  0  0  0  0  0  0  0  0
  196.0590  172.5970  145.8360 C   0  0  1  0  0  3  0  0  0  0  0  0
  194.9720  173.8540  143.7720 C   0  0  1  0  0  0  0  0  0  0  0  0
  193.6730  172.4820  145.3980 C   0  0  0  0  0  2  0  0  0  0  0  0
  196.2650  174.6920  143.7510 C   0  0  0  0  0  2  0  0  0  0  0  0
  197.5040  171.6100  144.0240 C   0  0  0  0  0  0  0  0  0  0  0  0
  197.9400  172.9110  143.7370 O   0  0  0  0  0  0  0  0  0  0  0  0
  197.0990  173.7090  145.8830 C   0  0  0  0  0  2  0  0  0  0  0  0
  194.8410  173.0340  145.0580 C   0  0  0  0  0  0  0  0  0  0  0  0
  197.4740  174.0620  144.4480 C   0  0  2  0  0  3  0  0  0  0  0  0
  196.6710  171.3230  145.2420 C   0  0  0  0  0  2  0  0  0  0  0  0
  2  1  2  0  0  0  0
  3 17  1  6  0  0  0
  3 10  1  0  0  0  0
  4  5  1  0  0  0  0
  5  2  1  0  0  0  0
  6 19  1  6  0  0  0
  6  2  1  0  0  0  0
  7  3  1  0  0  0  0
  7  9  1  0  0  0  0
  9  8  1  1  0  0  0
  9 11  1  0  0  0  0
 10  4  2  0  0  0  0
 11  4  1  6  0  0  0
 11  6  1  0  0  0  0
 12 13  1  0  0  0  0
 12 15  2  0  0  0  0
 13 14  1  0  0  0  0
 14 16  1  0  0  0  0
 15 17  1  0  0  0  0
 17 16  2  0  0  0  0
 18 13  2  0  0  0  0
 19 20  1  0  0  0  0
 21 20  1  0  0  0  0
 22 26  1  0  0  0  0
 22 21  1  0  0  0  0
 24 29  2  0  0  0  0
 25 34  1  6  0  0  0
 25 31  1  0  0  0  0
 26 23  1  6  0  0  0
 26 32  1  0  0  0  0
 28 26  1  0  0  0  0
 29 34  1  0  0  0  0
 30 29  1  0  0  0  0
 30 33  1  0  0  0  0
 32 27  2  0  0  0  0
 32 25  1  0  0  0  0
 33 28  1  6  0  0  0
 33 31  1  0  0  0  0
M  END
>  <MODEL>
2

>  <REMARK>
 VINA RESULT:      -7.4      2.705      3.786
  Name = 
  6 active torsions:
  status: ('A' for Active; 'I' for Inactive)
    1  A    between atoms: C_5  and  C_24
    2  A    between atoms: C_5  and  C_31
    3  A    between atoms: C_7  and  C_10
    4  A    between atoms: C_10  and  C_31
    5  A    between atoms: C_11  and  C_29
    6  A    between atoms: C_16  and  C_24
                            x       y       z     vdW  Elec       q    Type
                         _______ _______ _______ _____ _____    ______ ____

>  <TORSDO>
F 6

$$$$
=
 OpenBabel11072408263D

 34 38  0  0  1  0  0  0  0  0999 V2000
  190.2760  174.9400  147.9920 O   0  0  0  0  0  0  0  0  0  0  0  0
  189.9500  175.6480  147.0030 C   0  0  0  0  0  0  0  0  0  0  0  0
  187.7600  177.8830  143.5840 C   0  0  2  0  0  3  0  0  0  0  0  0
  188.6620  176.6100  145.4420 C   0  0  0  0  0  0  0  0  0  0  0  0
  188.6310  175.6570  146.4870 N   0  0  0  0  0  2  0  0  0  0  0  0
  190.9060  176.5380  146.2790 C   0  0  2  0  0  3  0  0  0  0  0  0
  189.1990  177.4520  142.5410 S   0  0  0  0  0  0  0  0  0  0  0  0
  191.2580  178.7920  143.7630 C   0  0  0  0  0  1  0  0  0  0  0  0
  190.4800  177.4960  143.8670 C   0  0  1  0  0  3  0  0  0  0  0  0
  187.6150  176.8720  144.6730 C   0  0  0  0  0  3  0  0  0  0  0  0
  189.9760  177.3150  145.3150 C   0  0  1  0  0  3  0  0  0  0  0  0
  185.5680  178.0170  140.5440 N   0  0  0  0  0  0  0  0  0  0  0  0
  184.2510  178.1700  141.0860 C   0  0  0  0  0  0  0  0  0  0  0  0
  184.0300  178.2460  142.5700 C   0  0  0  0  0  2  0  0  0  0  0  0
  186.6180  177.9340  141.3020 C   0  0  0  0  0  3  0  0  0  0  0  0
  185.3110  178.1350  143.3510 C   0  0  0  0  0  3  0  0  0  0  0  0
  186.5090  177.9920  142.7680 C   0  0  0  0  0  0  0  0  0  0  0  0
  183.2640  178.2430  140.3090 O   0  0  0  0  0  0  0  0  0  0  0  0
  191.9490  175.6670  145.5750 C   0  0  0  0  0  2  0  0  0  0  0  0
  193.2370  175.5940  146.3780 C   0  0  0  0  0  2  0  0  0  0  0  0
  194.3940  176.1640  145.5760 C   0  0  0  0  0  2  0  0  0  0  0  0
  194.0260  176.2980  144.0980 C   0  0  0  0  0  2  0  0  0  0  0  0
  194.6740  176.1200  141.6310 C   0  0  0  0  0  1  0  0  0  0  0  0
  197.4200  174.6780  139.6080 O   0  0  0  0  0  0  0  0  0  0  0  0
  196.6040  173.6330  143.0380 C   0  0  1  0  0  3  0  0  0  0  0  0
  195.0670  175.7910  143.0720 C   0  0  1  0  0  0  0  0  0  0  0  0
  194.1930  173.4650  143.2740 C   0  0  0  0  0  2  0  0  0  0  0  0
  196.3590  176.5640  143.3950 C   0  0  0  0  0  2  0  0  0  0  0  0
  197.3750  174.6470  140.8650 C   0  0  0  0  0  0  0  0  0  0  0  0
  197.8100  175.7590  141.5990 O   0  0  0  0  0  0  0  0  0  0  0  0
  197.6980  174.4810  143.6750 C   0  0  0  0  0  2  0  0  0  0  0  0
  195.2510  174.2790  143.2190 C   0  0  0  0  0  0  0  0  0  0  0  0
  197.6650  175.8580  143.0200 C   0  0  2  0  0  3  0  0  0  0  0  0
  196.9120  173.3950  141.5560 C   0  0  0  0  0  2  0  0  0  0  0  0
  2  1  2  0  0  0  0
  3 17  1  6  0  0  0
  3 10  1  0  0  0  0
  4  5  1  0  0  0  0
  5  2  1  0  0  0  0
  6 19  1  6  0  0  0
  6  2  1  0  0  0  0
  7  3  1  0  0  0  0
  7  9  1  0  0  0  0
  9  8  1  1  0  0  0
  9 11  1  0  0  0  0
 10  4  2  0  0  0  0
 11  4  1  6  0  0  0
 11  6  1  0  0  0  0
 12 13  1  0  0  0  0
 12 15  2  0  0  0  0
 13 14  1  0  0  0  0
 14 16  1  0  0  0  0
 15 17  1  0  0  0  0
 17 16  2  0  0  0  0
 18 13  2  0  0  0  0
 19 20  1  0  0  0  0
 21 20  1  0  0  0  0
 22 21  1  0  0  0  0
 24 29  2  0  0  0  0
 25 34  1  6  0  0  0
 25 32  1  0  0  0  0
 25 31  1  0  0  0  0
 26 23  1  6  0  0  0
 26 32  1  0  0  0  0
 26 28  1  0  0  0  0
 26 22  1  0  0  0  0
 29 34  1  0  0  0  0
 29 30  1  0  0  0  0
 30 33  1  0  0  0  0
 32 27  2  0  0  0  0
 33 28  1  6  0  0  0
 33 31  1  0  0  0  0
M  END
>  <MODEL>
3

>  <REMARK>
 VINA RESULT:      -7.4      3.036      4.359
  Name = 
  6 active torsions:
  status: ('A' for Active; 'I' for Inactive)
    1  A    between atoms: C_5  and  C_24
    2  A    between atoms: C_5  and  C_31
    3  A    between atoms: C_7  and  C_10
    4  A    between atoms: C_10  and  C_31
    5  A    between atoms: C_11  and  C_29
    6  A    between atoms: C_16  and  C_24
                            x       y       z     vdW  Elec       q    Type
                         _______ _______ _______ _____ _____    ______ ____

>  <TORSDO>
F 6

$$$$
=
 OpenBabel11072408263D

 34 38  0  0  1  0  0  0  0  0999 V2000
  190.2030  174.9340  147.9630 O   0  0  0  0  0  0  0  0  0  0  0  0
  189.8890  175.5850  146.9310 C   0  0  0  0  0  0  0  0  0  0  0  0
  187.7250  177.7590  143.4570 C   0  0  2  0  0  3  0  0  0  0  0  0
  188.6090  176.5560  145.3690 C   0  0  0  0  0  0  0  0  0  0  0  0
  188.5450  175.7140  146.5040 N   0  0  0  0  0  2  0  0  0  0  0  0
  190.8870  176.2770  146.0600 C   0  0  2  0  0  3  0  0  0  0  0  0
  189.0170  177.0560  142.3700 S   0  0  0  0  0  0  0  0  0  0  0  0
  191.3100  178.2300  143.3150 C   0  0  0  0  0  1  0  0  0  0  0  0
  190.3920  177.0580  143.5980 C   0  0  1  0  0  3  0  0  0  0  0  0
  187.5440  176.8780  144.6490 C   0  0  0  0  0  3  0  0  0  0  0  0
  189.9840  177.0750  145.0870 C   0  0  1  0  0  3  0  0  0  0  0  0
  185.3800  178.1290  140.5540 N   0  0  0  0  0  0  0  0  0  0  0  0
  184.1000  178.2900  141.1740 C   0  0  0  0  0  0  0  0  0  0  0  0
  183.9600  178.2910  142.6700 C   0  0  0  0  0  2  0  0  0  0  0  0
  186.4660  177.9710  141.2480 C   0  0  0  0  0  3  0  0  0  0  0  0
  185.2770  178.0970  143.3720 C   0  0  0  0  0  3  0  0  0  0  0  0
  186.4370  177.9510  142.7180 C   0  0  0  0  0  0  0  0  0  0  0  0
  183.0760  178.4370  140.4580 O   0  0  0  0  0  0  0  0  0  0  0  0
  191.7590  175.2200  145.3800 C   0  0  0  0  0  2  0  0  0  0  0  0
  192.7680  174.6320  146.3520 C   0  0  0  0  0  2  0  0  0  0  0  0
  193.5970  173.5570  145.6710 C   0  0  0  0  0  2  0  0  0  0  0  0
  195.0170  174.0520  145.3920 C   0  0  0  0  0  2  0  0  0  0  0  0
  196.8490  174.3400  143.6330 C   0  0  0  0  0  1  0  0  0  0  0  0
  197.1140  175.3490  140.0800 O   0  0  0  0  0  0  0  0  0  0  0  0
  194.2760  176.1820  142.2640 C   0  0  1  0  0  3  0  0  0  0  0  0
  195.3510  174.4230  143.9290 C   0  0  1  0  0  0  0  0  0  0  0  0
  195.1110  176.8490  144.4450 C   0  0  0  0  0  2  0  0  0  0  0  0
  194.6450  173.3550  143.0720 C   0  0  0  0  0  2  0  0  0  0  0  0
  196.0300  175.2570  140.7120 C   0  0  0  0  0  0  0  0  0  0  0  0
  195.4110  174.0060  140.8430 O   0  0  0  0  0  0  0  0  0  0  0  0
  193.3980  175.0530  141.7400 C   0  0  0  0  0  2  0  0  0  0  0  0
  194.8470  175.8340  143.6190 C   0  0  0  0  0  0  0  0  0  0  0  0
  194.2540  173.7940  141.6580 C   0  0  2  0  0  3  0  0  0  0  0  0
  195.3880  176.5010  141.2590 C   0  0  0  0  0  2  0  0  0  0  0  0
  2  1  2  0  0  0  0
  3 17  1  6  0  0  0
  3 10  1  0  0  0  0
  4  5  1  0  0  0  0
  5  2  1  0  0  0  0
  6 19  1  6  0  0  0
  6  2  1  0  0  0  0
  7  3  1  0  0  0  0
  7  9  1  0  0  0  0
  9  8  1  6  0  0  0
  9 11  1  0  0  0  0
 10  4  2  0  0  0  0
 11  4  1  6  0  0  0
 11  6  1  0  0  0  0
 12 13  1  0  0  0  0
 12 15  2  0  0  0  0
 13 14  1  0  0  0  0
 14 16  1  0  0  0  0
 15 17  1  0  0  0  0
 17 16  2  0  0  0  0
 18 13  2  0  0  0  0
 19 20  1  0  0  0  0
 21 20  1  0  0  0  0
 22 21  1  0  0  0  0
 24 29  2  0  0  0  0
 25 34  1  6  0  0  0
 25 32  1  0  0  0  0
 26 23  1  6  0  0  0
 26 22  1  0  0  0  0
 28 26  1  0  0  0  0
 29 30  1  0  0  0  0
 29 34  1  0  0  0  0
 30 33  1  0  0  0  0
 31 25  1  0  0  0  0
 32 26  1  0  0  0  0
 32 27  2  0  0  0  0
 33 31  1  1  0  0  0
 33 28  1  0  0  0  0
M  END
>  <MODEL>
4

>  <REMARK>
 VINA RESULT:      -7.2      2.817      4.126
  Name = 
  6 active torsions:
  status: ('A' for Active; 'I' for Inactive)
    1  A    between atoms: C_5  and  C_24
    2  A    between atoms: C_5  and  C_31
    3  A    between atoms: C_7  and  C_10
    4  A    between atoms: C_10  and  C_31
    5  A    between atoms: C_11  and  C_29
    6  A    between atoms: C_16  and  C_24
                            x       y       z     vdW  Elec       q    Type
                         _______ _______ _______ _____ _____    ______ ____

>  <TORSDO>
F 6

$$$$
=
 OpenBabel11072408263D

 34 38  0  0  1  0  0  0  0  0999 V2000
  191.1930  175.3150  148.4170 O   0  0  0  0  0  0  0  0  0  0  0  0
  190.6940  175.8630  147.3990 C   0  0  0  0  0  0  0  0  0  0  0  0
  187.9360  177.8000  144.2180 C   0  0  2  0  0  3  0  0  0  0  0  0
  189.1550  176.7570  146.0370 C   0  0  0  0  0  0  0  0  0  0  0  0
  189.2980  176.0680  147.2640 N   0  0  0  0  0  2  0  0  0  0  0  0
  191.5070  176.3480  146.2440 C   0  0  2  0  0  3  0  0  0  0  0  0
  188.8950  176.8510  142.9820 S   0  0  0  0  0  0  0  0  0  0  0  0
  191.4150  177.9070  143.2290 C   0  0  0  0  0  1  0  0  0  0  0  0
  190.5120  176.8700  143.8660 C   0  0  1  0  0  3  0  0  0  0  0  0
  187.9770  177.0890  145.5310 C   0  0  0  0  0  3  0  0  0  0  0  0
  190.4590  177.1050  145.3910 C   0  0  1  0  0  3  0  0  0  0  0  0
  184.8790  177.5520  142.0590 N   0  0  0  0  0  0  0  0  0  0  0  0
  183.9070  178.3330  142.7630 C   0  0  0  0  0  0  0  0  0  0  0  0
  184.2530  179.0190  144.0540 C   0  0  0  0  0  2  0  0  0  0  0  0
  186.0890  177.3980  142.5030 C   0  0  0  0  0  3  0  0  0  0  0  0
  185.6760  178.7700  144.4750 C   0  0  0  0  0  3  0  0  0  0  0  0
  186.5280  178.0230  143.7600 C   0  0  0  0  0  0  0  0  0  0  0  0
  182.7450  178.4490  142.2930 O   0  0  0  0  0  0  0  0  0  0  0  0
  192.1290  175.1380  145.5420 C   0  0  0  0  0  2  0  0  0  0  0  0
  193.6250  175.0640  145.7980 C   0  0  0  0  0  2  0  0  0  0  0  0
  194.1710  173.7150  145.3640 C   0  0  0  0  0  2  0  0  0  0  0  0
  194.3870  173.6700  143.8510 C   0  0  0  0  0  2  0  0  0  0  0  0
  193.9970  171.9710  141.9810 C   0  0  0  0  0  1  0  0  0  0  0  0
  191.1240  170.3840  140.2660 O   0  0  0  0  0  0  0  0  0  0  0  0
  190.9270  173.5330  142.1540 C   0  0  1  0  0  3  0  0  0  0  0  0
  193.3450  172.8840  143.0210 C   0  0  1  0  0  0  0  0  0  0  0  0
  192.8660  174.9010  141.6370 C   0  0  0  0  0  2  0  0  0  0  0  0
  192.6130  171.9880  144.0380 C   0  0  0  0  0  2  0  0  0  0  0  0
  191.0190  171.1950  141.2210 C   0  0  0  0  0  0  0  0  0  0  0  0
  191.1470  170.7310  142.5380 O   0  0  0  0  0  0  0  0  0  0  0  0
  190.3710  172.8740  143.4100 C   0  0  0  0  0  2  0  0  0  0  0  0
  192.3930  173.8570  142.3220 C   0  0  0  0  0  0  0  0  0  0  0  0
  191.1770  171.6060  143.6700 C   0  0  2  0  0  3  0  0  0  0  0  0
  190.6940  172.6340  140.9350 C   0  0  0  0  0  2  0  0  0  0  0  0
  2  1  2  0  0  0  0
  3 17  1  6  0  0  0
  3 10  1  0  0  0  0
  4  5  1  0  0  0  0
  5  2  1  0  0  0  0
  6 19  1  6  0  0  0
  6  2  1  0  0  0  0
  7  9  1  0  0  0  0
  7  3  1  0  0  0  0
  9  8  1  6  0  0  0
  9 11  1  0  0  0  0
 10  4  2  0  0  0  0
 11  4  1  1  0  0  0
 11  6  1  0  0  0  0
 12 15  2  0  0  0  0
 12 13  1  0  0  0  0
 13 14  1  0  0  0  0
 14 16  1  0  0  0  0
 15 17  1  0  0  0  0
 17 16  2  0  0  0  0
 18 13  2  0  0  0  0
 19 20  1  0  0  0  0
 21 20  1  0  0  0  0
 22 21  1  0  0  0  0
 24 29  2  0  0  0  0
 25 34  1  6  0  0  0
 25 32  1  0  0  0  0
 25 31  1  0  0  0  0
 26 23  1  6  0  0  0
 26 22  1  0  0  0  0
 26 28  1  0  0  0  0
 27 32  2  0  0  0  0
 29 30  1  0  0  0  0
 30 33  1  0  0  0  0
 32 26  1  0  0  0  0
 33 31  1  6  0  0  0
 33 28  1  0  0  0  0
 34 29  1  0  0  0  0
M  END
>  <MODEL>
5

>  <REMARK>
 VINA RESULT:      -7.1      2.626      3.563
  Name = 
  6 active torsions:
  status: ('A' for Active; 'I' for Inactive)
    1  A    between atoms: C_5  and  C_24
    2  A    between atoms: C_5  and  C_31
    3  A    between atoms: C_7  and  C_10
    4  A    between atoms: C_10  and  C_31
    5  A    between atoms: C_11  and  C_29
    6  A    between atoms: C_16  and  C_24
                            x       y       z     vdW  Elec       q    Type
                         _______ _______ _______ _____ _____    ______ ____

>  <TORSDO>
F 6

$$$$
=
 OpenBabel11072408263D

 34 38  0  0  1  0  0  0  0  0999 V2000
  190.9690  175.1540  148.0950 O   0  0  0  0  0  0  0  0  0  0  0  0
  190.4700  175.8180  147.1490 C   0  0  0  0  0  0  0  0  0  0  0  0
  187.6970  177.9680  144.1210 C   0  0  2  0  0  3  0  0  0  0  0  0
  188.9200  176.7590  145.8310 C   0  0  0  0  0  0  0  0  0  0  0  0
  189.0720  175.8760  146.9260 N   0  0  0  0  0  2  0  0  0  0  0  0
  191.2870  176.6020  146.1740 C   0  0  2  0  0  3  0  0  0  0  0  0
  188.8550  177.3870  142.8290 S   0  0  0  0  0  0  0  0  0  0  0  0
  191.1890  178.6710  143.4840 C   0  0  0  0  0  1  0  0  0  0  0  0
  190.3930  177.4340  143.8450 C   0  0  1  0  0  3  0  0  0  0  0  0
  187.7450  177.0360  145.2870 C   0  0  0  0  0  3  0  0  0  0  0  0
  190.2070  177.3740  145.3770 C   0  0  1  0  0  3  0  0  0  0  0  0
  184.8740  177.8560  141.6560 N   0  0  0  0  0  0  0  0  0  0  0  0
  183.7430  178.2900  142.4200 C   0  0  0  0  0  0  0  0  0  0  0  0
  183.8860  178.6660  143.8670 C   0  0  0  0  0  2  0  0  0  0  0  0
  186.0590  177.7640  142.1740 C   0  0  0  0  0  3  0  0  0  0  0  0
  185.2990  178.5180  144.3640 C   0  0  0  0  0  3  0  0  0  0  0  0
  186.3060  178.1030  143.5840 C   0  0  0  0  0  0  0  0  0  0  0  0
  182.6120  178.3600  141.8720 O   0  0  0  0  0  0  0  0  0  0  0  0
  192.1100  175.6270  145.3300 C   0  0  0  0  0  2  0  0  0  0  0  0
  193.5670  176.0550  145.2610 C   0  0  0  0  0  2  0  0  0  0  0  0
  194.3670  175.3910  146.3680 C   0  0  0  0  0  2  0  0  0  0  0  0
  195.6820  174.8240  145.8310 C   0  0  0  0  0  2  0  0  0  0  0  0
  196.8150  172.5440  145.5930 C   0  0  0  0  0  1  0  0  0  0  0  0
  196.2330  169.3620  143.7900 O   0  0  0  0  0  0  0  0  0  0  0  0
  194.7490  172.5870  142.8320 C   0  0  1  0  0  3  0  0  0  0  0  0
  195.6250  173.4180  145.1910 C   0  0  1  0  0  0  0  0  0  0  0  0
  196.4300  174.3300  143.0160 C   0  0  0  0  0  2  0  0  0  0  0  0
  194.3520  172.7660  145.7630 C   0  0  0  0  0  2  0  0  0  0  0  0
  195.4570  170.3510  143.7500 C   0  0  0  0  0  0  0  0  0  0  0  0
  194.5210  170.5350  144.7770 O   0  0  0  0  0  0  0  0  0  0  0  0
  193.4120  172.2970  143.5030 C   0  0  0  0  0  2  0  0  0  0  0  0
  195.5720  173.5400  143.6660 C   0  0  0  0  0  0  0  0  0  0  0  0
  193.6970  171.7020  144.8780 C   0  0  2  0  0  3  0  0  0  0  0  0
  195.5070  171.2810  142.5700 C   0  0  0  0  0  2  0  0  0  0  0  0
  2  1  2  0  0  0  0
  3 17  1  6  0  0  0
  3 10  1  0  0  0  0
  4  5  1  0  0  0  0
  5  2  1  0  0  0  0
  6 19  1  6  0  0  0
  6  2  1  0  0  0  0
  7  9  1  0  0  0  0
  7  3  1  0  0  0  0
  9  8  1  1  0  0  0
  9 11  1  0  0  0  0
 10  4  2  0  0  0  0
 11  4  1  6  0  0  0
 11  6  1  0  0  0  0
 12 15  2  0  0  0  0
 12 13  1  0  0  0  0
 13 14  1  0  0  0  0
 14 16  1  0  0  0  0
 15 17  1  0  0  0  0
 17 16  2  0  0  0  0
 18 13  2  0  0  0  0
 20 19  1  0  0  0  0
 20 21  1  0  0  0  0
 22 21  1  0  0  0  0
 25 34  1  1  0  0  0
 25 31  1  0  0  0  0
 25 32  1  0  0  0  0
 26 23  1  1  0  0  0
 26 28  1  0  0  0  0
 26 22  1  0  0  0  0
 27 32  2  0  0  0  0
 29 24  2  0  0  0  0
 29 30  1  0  0  0  0
 30 33  1  0  0  0  0
 32 26  1  0  0  0  0
 33 31  1  6  0  0  0
 33 28  1  0  0  0  0
 34 29  1  0  0  0  0
M  END
>  <MODEL>
6

>  <REMARK>
 VINA RESULT:      -7.0      2.151      2.757
  Name = 
  6 active torsions:
  status: ('A' for Active; 'I' for Inactive)
    1  A    between atoms: C_5  and  C_24
    2  A    between atoms: C_5  and  C_31
    3  A    between atoms: C_7  and  C_10
    4  A    between atoms: C_10  and  C_31
    5  A    between atoms: C_11  and  C_29
    6  A    between atoms: C_16  and  C_24
                            x       y       z     vdW  Elec       q    Type
                         _______ _______ _______ _____ _____    ______ ____

>  <TORSDO>
F 6

$$$$
=
 OpenBabel11072408263D

 34 38  0  0  1  0  0  0  0  0999 V2000
  186.4180  178.4820  148.3290 O   0  0  0  0  0  0  0  0  0  0  0  0
  186.1360  178.4790  147.1010 C   0  0  0  0  0  0  0  0  0  0  0  0
  184.0960  178.6340  142.9430 C   0  0  2  0  0  3  0  0  0  0  0  0
  184.9160  178.5930  145.2260 C   0  0  0  0  0  0  0  0  0  0  0  0
  184.8010  178.5600  146.6360 N   0  0  0  0  0  2  0  0  0  0  0  0
  187.1660  178.3900  146.0230 C   0  0  2  0  0  3  0  0  0  0  0  0
  185.1940  177.2450  142.4850 S   0  0  0  0  0  0  0  0  0  0  0  0
  187.6940  178.3600  142.6690 C   0  0  0  0  0  1  0  0  0  0  0  0
  186.6320  177.7160  143.5370 C   0  0  1  0  0  3  0  0  0  0  0  0
  183.8650  178.6200  144.4190 C   0  0  0  0  0  3  0  0  0  0  0  0
  186.3310  178.6340  144.7420 C   0  0  1  0  0  3  0  0  0  0  0  0
  181.7150  177.9160  140.1370 N   0  0  0  0  0  0  0  0  0  0  0  0
  180.4580  178.3930  140.6320 C   0  0  0  0  0  0  0  0  0  0  0  0
  180.3510  179.0150  141.9950 C   0  0  0  0  0  2  0  0  0  0  0  0
  182.8040  177.9940  140.8380 C   0  0  0  0  0  3  0  0  0  0  0  0
  181.6690  179.0510  142.7190 C   0  0  0  0  0  3  0  0  0  0  0  0
  182.8050  178.5810  142.1860 C   0  0  0  0  0  0  0  0  0  0  0  0
  179.4280  178.2920  139.9160 O   0  0  0  0  0  0  0  0  0  0  0  0
  187.8240  177.0100  146.0870 C   0  0  0  0  0  2  0  0  0  0  0  0
  189.2980  177.1200  146.4390 C   0  0  0  0  0  2  0  0  0  0  0  0
  190.1500  177.0490  145.1830 C   0  0  0  0  0  2  0  0  0  0  0  0
  190.5440  175.6060  144.8670 C   0  0  0  0  0  2  0  0  0  0  0  0
  192.3410  173.8840  144.2830 C   0  0  0  0  0  1  0  0  0  0  0  0
  196.0350  173.6340  144.3560 O   0  0  0  0  0  0  0  0  0  0  0  0
  194.0810  176.0340  146.3430 C   0  0  1  0  0  3  0  0  0  0  0  0
  192.0570  175.2950  144.8000 C   0  0  1  0  0  0  0  0  0  0  0  0
  192.1310  174.9140  147.2620 C   0  0  0  0  0  2  0  0  0  0  0  0
  192.6270  176.2930  143.7740 C   0  0  0  0  0  2  0  0  0  0  0  0
  195.3880  174.6620  144.6820 C   0  0  0  0  0  0  0  0  0  0  0  0
  194.9560  175.5500  143.6880 O   0  0  0  0  0  0  0  0  0  0  0  0
  194.3110  177.1890  145.3770 C   0  0  0  0  0  2  0  0  0  0  0  0
  192.6890  175.4700  146.1830 C   0  0  0  0  0  0  0  0  0  0  0  0
  194.1010  176.6660  143.9610 C   0  0  2  0  0  3  0  0  0  0  0  0
  195.1460  174.9500  146.1380 C   0  0  0  0  0  2  0  0  0  0  0  0
  2  1  2  0  0  0  0
  3 17  1  6  0  0  0
  3 10  1  0  0  0  0
  4  5  1  0  0  0  0
  5  2  1  0  0  0  0
  6 19  1  6  0  0  0
  6  2  1  0  0  0  0
  7  3  1  0  0  0  0
  7  9  1  0  0  0  0
  9  8  1  6  0  0  0
  9 11  1  0  0  0  0
 10  4  2  0  0  0  0
 11  4  1  1  0  0  0
 11  6  1  0  0  0  0
 12 13  1  0  0  0  0
 12 15  2  0  0  0  0
 13 14  1  0  0  0  0
 14 16  1  0  0  0  0
 15 17  1  0  0  0  0
 17 16  2  0  0  0  0
 18 13  2  0  0  0  0
 19 20  1  0  0  0  0
 21 20  1  0  0  0  0
 22 21  1  0  0  0  0
 24 29  2  0  0  0  0
 25 31  1  6  0  0  0
 26 23  1  6  0  0  0
 26 22  1  0  0  0  0
 26 32  1  0  0  0  0
 28 26  1  0  0  0  0
 29 34  1  0  0  0  0
 30 33  1  0  0  0  0
 30 29  1  0  0  0  0
 32 25  1  0  0  0  0
 32 27  2  0  0  0  0
 33 28  1  1  0  0  0
 33 31  1  0  0  0  0
 34 25  1  0  0  0  0
M  END
>  <MODEL>
7

>  <REMARK>
 VINA RESULT:      -7.0      3.210      6.090
  Name = 
  6 active torsions:
  status: ('A' for Active; 'I' for Inactive)
    1  A    between atoms: C_5  and  C_24
    2  A    between atoms: C_5  and  C_31
    3  A    between atoms: C_7  and  C_10
    4  A    between atoms: C_10  and  C_31
    5  A    between atoms: C_11  and  C_29
    6  A    between atoms: C_16  and  C_24
                            x       y       z     vdW  Elec       q    Type
                         _______ _______ _______ _____ _____    ______ ____

>  <TORSDO>
F 6

$$$$
=
 OpenBabel11072408263D

 34 38  0  0  1  0  0  0  0  0999 V2000
  186.5570  178.5870  148.5540 O   0  0  0  0  0  0  0  0  0  0  0  0
  186.3340  178.5090  147.3170 C   0  0  0  0  0  0  0  0  0  0  0  0
  184.5110  178.4940  143.0570 C   0  0  2  0  0  3  0  0  0  0  0  0
  185.2160  178.5700  145.3770 C   0  0  0  0  0  0  0  0  0  0  0  0
  185.0340  178.6580  146.7760 N   0  0  0  0  0  2  0  0  0  0  0  0
  187.4030  178.2540  146.3040 C   0  0  2  0  0  3  0  0  0  0  0  0
  185.5100  176.9900  142.7630 S   0  0  0  0  0  0  0  0  0  0  0  0
  188.0830  177.9160  142.9950 C   0  0  0  0  0  1  0  0  0  0  0  0
  186.9320  177.4290  143.8520 C   0  0  1  0  0  3  0  0  0  0  0  0
  184.2110  178.6150  144.5150 C   0  0  0  0  0  3  0  0  0  0  0  0
  186.6510  178.4600  144.9670 C   0  0  1  0  0  3  0  0  0  0  0  0
  182.2560  177.8960  140.1200 N   0  0  0  0  0  0  0  0  0  0  0  0
  180.9840  178.3760  140.5700 C   0  0  0  0  0  0  0  0  0  0  0  0
  180.8200  178.9590  141.9450 C   0  0  0  0  0  2  0  0  0  0  0  0
  183.3120  177.9370  140.8740 C   0  0  0  0  0  3  0  0  0  0  0  0
  182.1030  178.9530  142.7310 C   0  0  0  0  0  3  0  0  0  0  0  0
  183.2570  178.4830  142.2380 C   0  0  0  0  0  0  0  0  0  0  0  0
  179.9880  178.3130  139.8030 O   0  0  0  0  0  0  0  0  0  0  0  0
  187.9400  176.8360  146.5080 C   0  0  0  0  0  2  0  0  0  0  0  0
  189.4160  176.8540  146.8700 C   0  0  0  0  0  2  0  0  0  0  0  0
  190.2250  176.0880  145.8370 C   0  0  0  0  0  2  0  0  0  0  0  0
  189.9900  174.5820  145.9610 C   0  0  0  0  0  2  0  0  0  0  0  0
  189.7060  172.2940  144.8570 C   0  0  0  0  0  1  0  0  0  0  0  0
  190.3720  170.7270  141.5690 O   0  0  0  0  0  0  0  0  0  0  0  0
  192.0130  173.7890  142.7760 C   0  0  1  0  0  3  0  0  0  0  0  0
  190.1670  173.7410  144.6760 C   0  0  1  0  0  0  0  0  0  0  0  0
  192.6090  173.5110  145.1130 C   0  0  0  0  0  2  0  0  0  0  0  0
  189.2430  174.3990  143.6330 C   0  0  0  0  0  2  0  0  0  0  0  0
  190.5870  171.9380  141.8330 C   0  0  0  0  0  0  0  0  0  0  0  0
  189.5340  172.8590  141.7560 O   0  0  0  0  0  0  0  0  0  0  0  0
  191.0940  174.7210  141.9960 C   0  0  0  0  0  2  0  0  0  0  0  0
  191.6330  173.7590  144.2370 C   0  0  0  0  0  0  0  0  0  0  0  0
  189.6630  174.2230  142.1720 C   0  0  2  0  0  3  0  0  0  0  0  0
  191.9840  172.3830  142.1660 C   0  0  0  0  0  2  0  0  0  0  0  0
  2  1  2  0  0  0  0
  3 17  1  6  0  0  0
  3 10  1  0  0  0  0
  4  5  1  0  0  0  0
  5  2  1  0  0  0  0
  6 19  1  6  0  0  0
  6  2  1  0  0  0  0
  7  3  1  0  0  0  0
  7  9  1  0  0  0  0
  9  8  1  6  0  0  0
  9 11  1  0  0  0  0
 10  4  2  0  0  0  0
 11  4  1  1  0  0  0
 11  6  1  0  0  0  0
 12 13  1  0  0  0  0
 12 15  2  0  0  0  0
 13 14  1  0  0  0  0
 14 16  1  0  0  0  0
 15 17  1  0  0  0  0
 17 16  2  0  0  0  0
 18 13  2  0  0  0  0
 19 20  1  0  0  0  0
 21 22  1  0  0  0  0
 21 20  1  0  0  0  0
 24 29  2  0  0  0  0
 25 31  1  6  0  0  0
 25 32  1  0  0  0  0
 26 23  1  1  0  0  0
 26 22  1  0  0  0  0
 28 26  1  0  0  0  0
 29 34  1  0  0  0  0
 30 29  1  0  0  0  0
 30 33  1  0  0  0  0
 32 26  1  0  0  0  0
 32 27  2  0  0  0  0
 33 31  1  1  0  0  0
 33 28  1  0  0  0  0
 34 25  1  0  0  0  0
M  END
>  <MODEL>
8

>  <REMARK>
 VINA RESULT:      -6.9      3.463      5.849
  Name = 
  6 active torsions:
  status: ('A' for Active; 'I' for Inactive)
    1  A    between atoms: C_5  and  C_24
    2  A    between atoms: C_5  and  C_31
    3  A    between atoms: C_7  and  C_10
    4  A    between atoms: C_10  and  C_31
    5  A    between atoms: C_11  and  C_29
    6  A    between atoms: C_16  and  C_24
                            x       y       z     vdW  Elec       q    Type
                         _______ _______ _______ _____ _____    ______ ____

>  <TORSDO>
F 6

$$$$
=
 OpenBabel11072408263D

 34 38  0  0  1  0  0  0  0  0999 V2000
  192.2320  173.0600  142.9190 O   0  0  0  0  0  0  0  0  0  0  0  0
  191.5240  173.7210  143.7240 C   0  0  0  0  0  0  0  0  0  0  0  0
  188.2200  176.1700  145.8620 C   0  0  2  0  0  3  0  0  0  0  0  0
  189.7840  174.8840  144.5250 C   0  0  0  0  0  0  0  0  0  0  0  0
  190.2860  174.2940  143.3420 N   0  0  0  0  0  0  0  0  0  0  0  0
  191.9100  173.9690  145.1460 C   0  0  2  0  0  3  0  0  0  0  0  0
  189.5800  177.1830  146.5460 S   0  0  0  0  0  0  0  0  0  0  0  0
  190.9640  175.3830  148.0850 C   0  0  0  0  0  1  0  0  0  0  0  0
  190.8480  175.8490  146.6480 C   0  0  1  0  0  3  0  0  0  0  0  0
  188.6510  175.5700  144.5630 C   0  0  0  0  0  2  0  0  0  0  0  0
  190.6340  174.6260  145.7290 C   0  0  1  0  0  3  0  0  0  0  0  0
  185.8180  178.6500  144.3990 N   0  0  0  0  0  0  0  0  0  0  0  0
  184.6750  178.5580  145.2570 C   0  0  0  0  0  0  0  0  0  0  0  0
  184.6620  177.6170  146.4280 C   0  0  0  0  0  2  0  0  0  0  0  0
  186.8800  177.9300  144.5890 C   0  0  0  0  0  3  0  0  0  0  0  0
  185.9390  176.8310  146.5510 C   0  0  0  0  0  3  0  0  0  0  0  0
  186.9670  176.9740  145.7040 C   0  0  0  0  0  0  0  0  0  0  0  0
  183.6670  179.2750  145.0290 O   0  0  0  0  0  0  0  0  0  0  0  0
  193.1450  174.8720  145.1680 C   0  0  0  0  0  2  0  0  0  0  0  0
  194.2560  174.2620  146.0060 C   0  0  0  0  0  2  0  0  0  0  0  0
  195.5910  174.3970  145.2940 C   0  0  0  0  0  2  0  0  0  0  0  0
  195.6500  175.6870  144.4760 C   0  0  0  0  0  2  0  0  0  0  0  0
  196.9680  176.7930  142.5850 C   0  0  0  0  0  1  0  0  0  0  0  0
  197.9120  176.0370  139.0850 O   0  0  0  0  0  0  0  0  0  0  0  0
  195.1070  174.4580  140.8610 C   0  0  1  0  0  3  0  0  0  0  0  0
  196.1650  175.5680  143.0220 C   0  0  1  0  0  0  0  0  0  0  0  0
  193.9100  176.1460  142.1330 C   0  0  0  0  0  2  0  0  0  0  0  0
  197.1210  174.3600  143.0320 C   0  0  0  0  0  2  0  0  0  0  0  0
  197.2590  175.2590  139.8260 C   0  0  0  0  0  0  0  0  0  0  0  0
  197.9400  174.4320  140.7290 O   0  0  0  0  0  0  0  0  0  0  0  0
  195.8890  173.1970  141.2040 C   0  0  0  0  0  2  0  0  0  0  0  0
  194.9880  175.3600  142.0670 C   0  0  0  0  0  0  0  0  0  0  0  0
  197.2680  173.6210  141.6990 C   0  0  2  0  0  3  0  0  0  0  0  0
  195.7640  175.1880  139.6850 C   0  0  0  0  0  2  0  0  0  0  0  0
  1  2  2  0  0  0  0
  2  6  1  0  0  0  0
  3 17  1  6  0  0  0
  3  7  1  0  0  0  0
  4 10  1  0  0  0  0
  5  2  1  0  0  0  0
  5  4  2  0  0  0  0
  6 19  1  6  0  0  0
  6 11  1  0  0  0  0
  7  9  1  0  0  0  0
  9  8  1  1  0  0  0
 10  3  1  0  0  0  0
 11  4  1  6  0  0  0
 11  9  1  0  0  0  0
 12 15  2  0  0  0  0
 12 13  1  0  0  0  0
 13 14  1  0  0  0  0
 14 16  1  0  0  0  0
 15 17  1  0  0  0  0
 17 16  2  0  0  0  0
 18 13  2  0  0  0  0
 19 20  1  0  0  0  0
 21 20  1  0  0  0  0
 22 21  1  0  0  0  0
 24 29  2  0  0  0  0
 25 34  1  6  0  0  0
 25 31  1  0  0  0  0
 25 32  1  0  0  0  0
 26 23  1  6  0  0  0
 26 28  1  0  0  0  0
 26 22  1  0  0  0  0
 29 30  1  0  0  0  0
 30 33  1  0  0  0  0
 32 27  2  0  0  0  0
 32 26  1  0  0  0  0
 33 31  1  6  0  0  0
 33 28  1  0  0  0  0
 34 29  1  0  0  0  0
M  END
>  <MODEL>
9

>  <REMARK>
 VINA RESULT:      -6.7      2.282      3.547
  Name = 
  6 active torsions:
  status: ('A' for Active; 'I' for Inactive)
    1  A    between atoms: C_5  and  C_24
    2  A    between atoms: C_5  and  C_31
    3  A    between atoms: C_7  and  C_10
    4  A    between atoms: C_10  and  C_31
    5  A    between atoms: C_11  and  C_29
    6  A    between atoms: C_16  and  C_24
                            x       y       z     vdW  Elec       q    Type
                         _______ _______ _______ _____ _____    ______ ____

>  <TORSDO>
F 6

$$$$
