=
 OpenBabel11062419253D

 38 40  0  0  1  0  0  0  0  0999 V2000
  188.9860  176.7790  145.7880 C   0  0  0  0  0  0  0  0  0  0  0  0
  187.2790  177.5550  147.3570 C   0  0  0  0  0  2  0  0  0  0  0  0
  189.2550  176.0590  144.6920 C   0  0  0  0  0  3  0  0  0  0  0  0
  188.1510  175.5410  143.8220 C   0  0  1  0  0  3  0  0  0  0  0  0
  187.5800  177.1580  146.1220 C   0  0  0  0  0  0  0  0  0  0  0  0
  186.4610  176.8680  145.1300 C   0  0  2  0  0  3  0  0  0  0  0  0
  187.0360  176.5610  143.7550 C   0  0  0  0  0  0  0  0  0  0  0  0
  186.7810  177.3700  142.7050 C   0  0  0  0  0  3  0  0  0  0  0  0
  185.2880  177.8720  145.2010 C   0  0  0  0  0  3  0  0  0  0  0  0
  185.7730  179.3100  145.1820 C   0  0  0  0  0  1  0  0  0  0  0  0
  184.3570  177.6290  146.3800 C   0  0  0  0  0  1  0  0  0  0  0  0
  188.4630  178.2350  141.2930 O   0  0  0  0  0  1  0  0  0  0  0  0
  187.4250  177.3080  141.3550 C   0  0  2  0  0  3  0  0  0  0  0  0
  186.6130  177.1330  139.1230 O   0  0  0  0  0  0  0  0  0  0  0  0
  186.4330  177.6000  140.2770 C   0  0  0  0  0  0  0  0  0  0  0  0
  185.3530  178.4410  140.5200 O   0  0  0  0  0  1  0  0  0  0  0  0
  188.6650  174.9490  142.5190 C   0  0  0  0  0  2  0  0  0  0  0  0
  187.4890  172.8660  141.8220 O   0  0  0  0  0  0  0  0  0  0  0  0
  188.5100  173.4680  142.5440 C   0  0  0  0  0  0  0  0  0  0  0  0
  189.3330  172.7580  143.1780 O   0  0  0  0  0  1  0  0  0  0  0  0
  190.1340  177.2260  146.6340 C   0  0  0  0  0  2  0  0  0  0  0  0
  190.6410  176.0950  147.4740 C   0  0  0  0  0  3  0  0  0  0  0  0
  191.8130  175.5480  147.3280 N   0  0  0  0  0  0  0  0  0  0  0  0
  192.8660  175.1920  145.1000 C   0  0  0  0  0  3  0  0  0  0  0  0
  192.8130  175.8450  146.3380 C   0  0  0  0  0  0  0  0  0  0  0  0
  194.8480  176.4320  144.5300 C   0  0  0  0  0  3  0  0  0  0  0  0
  194.7970  177.0490  145.7410 N   0  0  0  0  0  0  0  0  0  0  0  0
  193.8130  176.7740  146.6420 C   0  0  0  0  0  3  0  0  0  0  0  0
  193.8790  175.4870  144.1900 C   0  0  0  0  0  0  0  0  0  0  0  0
  193.9390  174.8020  142.9450 N   0  0  0  0  0  0  0  0  0  0  0  0
  193.4860  174.5960  141.5380 C   0  0  1  0  0  3  0  0  0  0  0  0
  194.4330  173.7250  142.0380 C   0  0  0  0  0  2  0  0  0  0  0  0
  192.1130  173.9520  141.5540 C   0  0  0  0  0  2  0  0  0  0  0  0
  191.6020  173.8910  140.2540 O   0  0  0  0  0  0  0  0  0  0  0  0
  191.7460  171.3080  141.2920 O   0  0  0  0  0  1  0  0  0  0  0  0
  192.2640  171.8230  138.7770 O   0  0  0  0  0  0  0  0  0  0  0  0
  191.3770  172.2400  139.9280 P   0  0  0  0  0  0  0  0  0  0  0  0
  189.7610  171.9750  139.5080 O   0  0  0  0  0  1  0  0  0  0  0  0
  1  5  1  0  0  0  0
  1 21  1  0  0  0  0
  3  1  2  0  0  0  0
  4 17  1  6  0  0  0
  4  3  1  0  0  0  0
  5  2  2  0  0  0  0
  6  9  1  6  0  0  0
  6  5  1  0  0  0  0
  7  4  1  0  0  0  0
  7  6  1  0  0  0  0
  8  7  2  0  0  0  0
  9 11  1  0  0  0  0
 10  9  1  0  0  0  0
 13 12  1  1  0  0  0
 13  8  1  0  0  0  0
 14 15  2  0  0  0  0
 15 16  1  0  0  0  0
 15 13  1  0  0  0  0
 17 19  1  0  0  0  0
 18 19  2  0  0  0  0
 19 20  1  0  0  0  0
 21 22  1  0  0  0  0
 23 22  2  0  0  0  0
 24 25  1  0  0  0  0
 25 28  2  0  0  0  0
 25 23  1  0  0  0  0
 26 27  2  0  0  0  0
 27 28  1  0  0  0  0
 29 26  1  0  0  0  0
 29 24  2  0  0  0  0
 30 29  1  0  0  0  0
 31 33  1  1  0  0  0
 31 32  1  0  0  0  0
 31 30  1  0  0  0  0
 32 30  1  0  0  0  0
 34 33  1  0  0  0  0
 36 37  2  0  0  0  0
 37 34  1  0  0  0  0
 37 35  1  0  0  0  0
 38 37  1  0  0  0  0
M  END
>  <MODEL>
1

>  <REMARK>
 VINA RESULT:      -6.9      0.000      0.000
  Name = 
  12 active torsions:
  status: ('A' for Active; 'I' for Inactive)
    1  A    between atoms: C_1  and  C_15
    2  A    between atoms: N_4  and  C_32
    3  A    between atoms: C_6  and  N_21
    4  A    between atoms: C_7  and  C_20
    5  A    between atoms: C_7  and  C_29
    6  A    between atoms: C_8  and  C_19
    7  A    between atoms: C_8  and  O_34
    8  A    between atoms: C_11  and  C_15
    9  A    between atoms: C_13  and  C_18
   10  A    between atoms: C_17  and  C_25
   11  A    between atoms: C_18  and  C_38
   12  A    between atoms: O_34  and  P_35
                            x       y       z     vdW  Elec       q    Type
                         _______ _______ _______ _____ _____    ______ ____

>  <TORSDO>
F 12

$$$$
=
 OpenBabel11062419253D

 38 40  0  0  1  0  0  0  0  0999 V2000
  188.9650  176.7170  145.7610 C   0  0  0  0  0  0  0  0  0  0  0  0
  187.2610  177.4940  147.3320 C   0  0  0  0  0  2  0  0  0  0  0  0
  189.2300  176.0130  144.6530 C   0  0  0  0  0  3  0  0  0  0  0  0
  188.1230  175.5300  143.7660 C   0  0  1  0  0  3  0  0  0  0  0  0
  187.5630  177.1140  146.0920 C   0  0  0  0  0  0  0  0  0  0  0  0
  186.4470  176.8620  145.0870 C   0  0  2  0  0  3  0  0  0  0  0  0
  187.0260  176.5710  143.7110 C   0  0  0  0  0  0  0  0  0  0  0  0
  186.7930  177.4030  142.6740 C   0  0  0  0  0  3  0  0  0  0  0  0
  185.2910  177.8840  145.1690 C   0  0  0  0  0  3  0  0  0  0  0  0
  185.8000  179.3150  145.1590 C   0  0  0  0  0  1  0  0  0  0  0  0
  184.3590  177.6490  146.3480 C   0  0  0  0  0  1  0  0  0  0  0  0
  188.4640  178.3040  141.2710 O   0  0  0  0  0  1  0  0  0  0  0  0
  187.4460  177.3550  141.3280 C   0  0  2  0  0  3  0  0  0  0  0  0
  186.6680  177.1920  139.0820 O   0  0  0  0  0  0  0  0  0  0  0  0
  186.4540  177.6250  140.2440 C   0  0  0  0  0  0  0  0  0  0  0  0
  185.3340  178.4100  140.4910 O   0  0  0  0  0  1  0  0  0  0  0  0
  188.6370  174.9530  142.4570 C   0  0  0  0  0  2  0  0  0  0  0  0
  187.6150  172.8060  141.7120 O   0  0  0  0  0  0  0  0  0  0  0  0
  188.5520  173.4670  142.4940 C   0  0  0  0  0  0  0  0  0  0  0  0
  189.3620  172.8070  143.1950 O   0  0  0  0  0  1  0  0  0  0  0  0
  190.1140  177.1290  146.6230 C   0  0  0  0  0  2  0  0  0  0  0  0
  190.5750  175.9820  147.4680 C   0  0  0  0  0  3  0  0  0  0  0  0
  191.7670  175.4610  147.4030 N   0  0  0  0  0  0  0  0  0  0  0  0
  193.1410  175.0490  145.3670 C   0  0  0  0  0  3  0  0  0  0  0  0
  192.8360  175.8070  146.5050 C   0  0  0  0  0  0  0  0  0  0  0  0
  194.9900  176.5130  144.8870 C   0  0  0  0  0  3  0  0  0  0  0  0
  194.6960  177.2320  146.0030 N   0  0  0  0  0  0  0  0  0  0  0  0
  193.6500  176.9030  146.8110 C   0  0  0  0  0  3  0  0  0  0  0  0
  194.2130  175.4030  144.5520 C   0  0  0  0  0  0  0  0  0  0  0  0
  194.5310  174.6140  143.4110 N   0  0  0  0  0  0  0  0  0  0  0  0
  194.7780  173.2970  142.7550 C   0  0  1  0  0  3  0  0  0  0  0  0
  194.9260  174.4310  141.9840 C   0  0  0  0  0  2  0  0  0  0  0  0
  196.1340  172.7760  143.1960 C   0  0  0  0  0  2  0  0  0  0  0  0
  195.9960  171.4930  143.7350 O   0  0  0  0  0  0  0  0  0  0  0  0
  196.7300  170.4640  146.2190 O   0  0  0  0  0  1  0  0  0  0  0  0
  194.4670  171.7320  145.8560 O   0  0  0  0  0  1  0  0  0  0  0  0
  195.9140  171.7110  145.4160 P   0  0  0  0  0  0  0  0  0  0  0  0
  196.6380  173.1840  145.8200 O   0  0  0  0  0  0  0  0  0  0  0  0
  1  5  1  0  0  0  0
  1 21  1  0  0  0  0
  3  1  2  0  0  0  0
  4 17  1  6  0  0  0
  4  3  1  0  0  0  0
  5  2  2  0  0  0  0
  6  9  1  6  0  0  0
  6  5  1  0  0  0  0
  7  4  1  0  0  0  0
  7  6  1  0  0  0  0
  8  7  2  0  0  0  0
  9 11  1  0  0  0  0
 10  9  1  0  0  0  0
 13 12  1  1  0  0  0
 13  8  1  0  0  0  0
 14 15  2  0  0  0  0
 15 16  1  0  0  0  0
 15 13  1  0  0  0  0
 17 19  1  0  0  0  0
 18 19  2  0  0  0  0
 19 20  1  0  0  0  0
 21 22  1  0  0  0  0
 23 22  2  0  0  0  0
 24 25  1  0  0  0  0
 25 28  2  0  0  0  0
 25 23  1  0  0  0  0
 26 27  2  0  0  0  0
 27 28  1  0  0  0  0
 29 26  1  0  0  0  0
 29 24  2  0  0  0  0
 30 29  1  0  0  0  0
 31 33  1  1  0  0  0
 31 30  1  0  0  0  0
 32 31  1  0  0  0  0
 32 30  1  0  0  0  0
 33 34  1  0  0  0  0
 34 37  1  0  0  0  0
 37 38  2  0  0  0  0
 37 36  1  0  0  0  0
 37 35  1  0  0  0  0
M  END
>  <MODEL>
2

>  <REMARK>
 VINA RESULT:      -6.8      2.348      2.851
  Name = 
  12 active torsions:
  status: ('A' for Active; 'I' for Inactive)
    1  A    between atoms: C_1  and  C_15
    2  A    between atoms: N_4  and  C_32
    3  A    between atoms: C_6  and  N_21
    4  A    between atoms: C_7  and  C_20
    5  A    between atoms: C_7  and  C_29
    6  A    between atoms: C_8  and  C_19
    7  A    between atoms: C_8  and  O_34
    8  A    between atoms: C_11  and  C_15
    9  A    between atoms: C_13  and  C_18
   10  A    between atoms: C_17  and  C_25
   11  A    between atoms: C_18  and  C_38
   12  A    between atoms: O_34  and  P_35
                            x       y       z     vdW  Elec       q    Type
                         _______ _______ _______ _____ _____    ______ ____

>  <TORSDO>
F 12

$$$$
=
 OpenBabel11062419253D

 38 40  0  0  1  0  0  0  0  0999 V2000
  189.0010  176.6930  145.6880 C   0  0  0  0  0  0  0  0  0  0  0  0
  187.3200  177.4830  147.2780 C   0  0  0  0  0  2  0  0  0  0  0  0
  189.2490  175.9830  144.5800 C   0  0  0  0  0  3  0  0  0  0  0  0
  188.1290  175.5000  143.7100 C   0  0  1  0  0  3  0  0  0  0  0  0
  187.6050  177.0970  146.0360 C   0  0  0  0  0  0  0  0  0  0  0  0
  186.4740  176.8440  145.0470 C   0  0  2  0  0  3  0  0  0  0  0  0
  187.0350  176.5440  143.6650 C   0  0  0  0  0  0  0  0  0  0  0  0
  186.7910  177.3730  142.6270 C   0  0  0  0  0  3  0  0  0  0  0  0
  185.3240  177.8710  145.1390 C   0  0  0  0  0  3  0  0  0  0  0  0
  185.8360  179.2990  145.1020 C   0  0  0  0  0  1  0  0  0  0  0  0
  184.4150  177.6520  146.3390 C   0  0  0  0  0  1  0  0  0  0  0  0
  188.4510  178.2560  141.2010 O   0  0  0  0  0  1  0  0  0  0  0  0
  187.4250  177.3160  141.2720 C   0  0  2  0  0  3  0  0  0  0  0  0
  186.6200  177.1610  139.0360 O   0  0  0  0  0  0  0  0  0  0  0  0
  186.4210  177.5920  140.2010 C   0  0  0  0  0  0  0  0  0  0  0  0
  185.3080  178.3810  140.4640 O   0  0  0  0  0  1  0  0  0  0  0  0
  188.6230  174.9150  142.3970 C   0  0  0  0  0  2  0  0  0  0  0  0
  189.3670  172.6770  143.1990 O   0  0  0  0  0  1  0  0  0  0  0  0
  188.4950  173.4320  142.4270 C   0  0  0  0  0  0  0  0  0  0  0  0
  187.5680  172.8660  141.7920 O   0  0  0  0  0  0  0  0  0  0  0  0
  190.1630  177.1040  146.5330 C   0  0  0  0  0  2  0  0  0  0  0  0
  190.4720  176.0520  147.5510 C   0  0  0  0  0  3  0  0  0  0  0  0
  191.5960  175.3950  147.6040 N   0  0  0  0  0  0  0  0  0  0  0  0
  193.1020  174.4180  145.8780 C   0  0  0  0  0  3  0  0  0  0  0  0
  192.7140  175.4820  146.7030 C   0  0  0  0  0  0  0  0  0  0  0  0
  194.9540  175.7230  145.0660 C   0  0  0  0  0  3  0  0  0  0  0  0
  194.5790  176.7430  145.8830 N   0  0  0  0  0  0  0  0  0  0  0  0
  193.4890  176.6460  146.6950 C   0  0  0  0  0  3  0  0  0  0  0  0
  194.2180  174.5380  145.0530 C   0  0  0  0  0  0  0  0  0  0  0  0
  194.6180  173.4450  144.2350 N   0  0  0  0  0  0  0  0  0  0  0  0
  195.2030  172.8920  142.9780 C   0  0  1  0  0  3  0  0  0  0  0  0
  194.7410  171.9920  143.9160 C   0  0  0  0  0  2  0  0  0  0  0  0
  194.1950  173.0530  141.8550 C   0  0  0  0  0  2  0  0  0  0  0  0
  194.8550  173.3870  140.6690 O   0  0  0  0  0  0  0  0  0  0  0  0
  193.5030  175.6510  141.5710 O   0  0  0  0  0  1  0  0  0  0  0  0
  194.2960  175.4060  139.0870 O   0  0  0  0  0  0  0  0  0  0  0  0
  194.6850  175.0680  140.5090 P   0  0  0  0  0  0  0  0  0  0  0  0
  196.1590  175.8110  140.8730 O   0  0  0  0  0  1  0  0  0  0  0  0
  1  5  1  0  0  0  0
  1 21  1  0  0  0  0
  3  1  2  0  0  0  0
  4 17  1  6  0  0  0
  4  3  1  0  0  0  0
  5  2  2  0  0  0  0
  6  9  1  6  0  0  0
  6  5  1  0  0  0  0
  7  4  1  0  0  0  0
  7  6  1  0  0  0  0
  8  7  2  0  0  0  0
  9 11  1  0  0  0  0
 10  9  1  0  0  0  0
 13 12  1  1  0  0  0
 13  8  1  0  0  0  0
 14 15  2  0  0  0  0
 15 16  1  0  0  0  0
 15 13  1  0  0  0  0
 17 19  1  0  0  0  0
 19 18  1  0  0  0  0
 20 19  2  0  0  0  0
 21 22  1  0  0  0  0
 22 23  2  0  0  0  0
 24 25  1  0  0  0  0
 25 23  1  0  0  0  0
 26 27  2  0  0  0  0
 27 28  1  0  0  0  0
 28 25  2  0  0  0  0
 29 26  1  0  0  0  0
 29 24  2  0  0  0  0
 30 29  1  0  0  0  0
 31 33  1  6  0  0  0
 31 32  1  0  0  0  0
 31 30  1  0  0  0  0
 32 30  1  0  0  0  0
 34 33  1  0  0  0  0
 36 37  2  0  0  0  0
 37 34  1  0  0  0  0
 37 38  1  0  0  0  0
 37 35  1  0  0  0  0
M  END
>  <MODEL>
3

>  <REMARK>
 VINA RESULT:      -6.5      1.561      2.090
  Name = 
  12 active torsions:
  status: ('A' for Active; 'I' for Inactive)
    1  A    between atoms: C_1  and  C_15
    2  A    between atoms: N_4  and  C_32
    3  A    between atoms: C_6  and  N_21
    4  A    between atoms: C_7  and  C_20
    5  A    between atoms: C_7  and  C_29
    6  A    between atoms: C_8  and  C_19
    7  A    between atoms: C_8  and  O_34
    8  A    between atoms: C_11  and  C_15
    9  A    between atoms: C_13  and  C_18
   10  A    between atoms: C_17  and  C_25
   11  A    between atoms: C_18  and  C_38
   12  A    between atoms: O_34  and  P_35
                            x       y       z     vdW  Elec       q    Type
                         _______ _______ _______ _____ _____    ______ ____

>  <TORSDO>
F 12

$$$$
=
 OpenBabel11062419253D

 38 40  0  0  1  0  0  0  0  0999 V2000
  189.5800  175.3030  146.1930 C   0  0  0  0  0  0  0  0  0  0  0  0
  191.6710  176.1920  145.2890 C   0  0  0  0  0  2  0  0  0  0  0  0
  188.3510  175.5750  146.6470 C   0  0  0  0  0  3  0  0  0  0  0  0
  187.7540  176.9390  146.4800 C   0  0  1  0  0  3  0  0  0  0  0  0
  190.3540  176.3290  145.4300 C   0  0  0  0  0  0  0  0  0  0  0  0
  189.6840  177.6340  145.0220 C   0  0  2  0  0  3  0  0  0  0  0  0
  188.1710  177.5160  145.1450 C   0  0  0  0  0  0  0  0  0  0  0  0
  187.3810  177.6060  144.0540 C   0  0  0  0  0  3  0  0  0  0  0  0
  190.2440  178.2420  143.7170 C   0  0  0  0  0  3  0  0  0  0  0  0
  190.5330  177.1770  142.6750 C   0  0  0  0  0  1  0  0  0  0  0  0
  191.4600  179.1280  143.9380 C   0  0  0  0  0  1  0  0  0  0  0  0
  185.6630  176.4100  142.9640 O   0  0  0  0  0  1  0  0  0  0  0  0
  185.9140  177.3190  143.9890 C   0  0  2  0  0  3  0  0  0  0  0  0
  184.1720  178.5570  142.9370 O   0  0  0  0  0  0  0  0  0  0  0  0
  185.1360  178.5710  143.7450 C   0  0  0  0  0  0  0  0  0  0  0  0
  185.5130  179.7660  144.3470 O   0  0  0  0  0  1  0  0  0  0  0  0
  186.2820  176.9800  146.8550 C   0  0  0  0  0  2  0  0  0  0  0  0
  184.6930  178.7580  147.5780 O   0  0  0  0  0  0  0  0  0  0  0  0
  185.9830  178.2440  147.5830 C   0  0  0  0  0  0  0  0  0  0  0  0
  186.8850  178.8200  148.2430 O   0  0  0  0  0  1  0  0  0  0  0  0
  190.1310  173.9340  146.4320 C   0  0  0  0  0  2  0  0  0  0  0  0
  189.4300  172.9270  145.5750 C   0  0  0  0  0  3  0  0  0  0  0  0
  189.9200  172.4430  144.4700 N   0  0  0  0  0  0  0  0  0  0  0  0
  192.4080  172.4680  144.3550 C   0  0  0  0  0  3  0  0  0  0  0  0
  191.1540  172.7940  143.8200 C   0  0  0  0  0  0  0  0  0  0  0  0
  193.4840  173.6040  142.5270 C   0  0  0  0  0  3  0  0  0  0  0  0
  192.2620  173.9290  142.0240 N   0  0  0  0  0  0  0  0  0  0  0  0
  191.1110  173.5470  142.6420 C   0  0  0  0  0  3  0  0  0  0  0  0
  193.5750  172.8660  143.7080 C   0  0  0  0  0  0  0  0  0  0  0  0
  194.8430  172.5520  144.2700 N   0  0  0  0  0  0  0  0  0  0  0  0
  196.1320  172.9550  144.9070 C   0  0  1  0  0  3  0  0  0  0  0  0
  195.9450  171.6150  144.6350 C   0  0  0  0  0  2  0  0  0  0  0  0
  197.0220  173.5890  143.8550 C   0  0  0  0  0  2  0  0  0  0  0  0
  197.4520  174.8450  144.2930 O   0  0  0  0  0  0  0  0  0  0  0  0
  196.3430  175.3790  141.7930 O   0  0  0  0  0  0  0  0  0  0  0  0
  197.3770  177.2680  143.2830 O   0  0  0  0  0  1  0  0  0  0  0  0
  196.5980  175.9740  143.3560 P   0  0  0  0  0  0  0  0  0  0  0  0
  195.0970  176.2690  144.0780 O   0  0  0  0  0  1  0  0  0  0  0  0
  1 21  1  0  0  0  0
  1  3  2  0  0  0  0
  2  5  2  0  0  0  0
  4  3  1  0  0  0  0
  4 17  1  6  0  0  0
  5  1  1  0  0  0  0
  6  9  1  6  0  0  0
  6  7  1  0  0  0  0
  6  5  1  0  0  0  0
  7  4  1  0  0  0  0
  8  7  2  0  0  0  0
  9 11  1  0  0  0  0
 10  9  1  0  0  0  0
 13 12  1  6  0  0  0
 13  8  1  0  0  0  0
 14 15  2  0  0  0  0
 15 13  1  0  0  0  0
 15 16  1  0  0  0  0
 17 19  1  0  0  0  0
 18 19  2  0  0  0  0
 19 20  1  0  0  0  0
 22 21  1  0  0  0  0
 23 22  2  0  0  0  0
 25 24  1  0  0  0  0
 25 23  1  0  0  0  0
 26 29  1  0  0  0  0
 27 26  2  0  0  0  0
 27 28  1  0  0  0  0
 28 25  2  0  0  0  0
 29 30  1  0  0  0  0
 29 24  2  0  0  0  0
 30 32  1  0  0  0  0
 30 31  1  0  0  0  0
 31 33  1  6  0  0  0
 32 31  1  0  0  0  0
 33 34  1  0  0  0  0
 35 37  2  0  0  0  0
 36 37  1  0  0  0  0
 37 38  1  0  0  0  0
 37 34  1  0  0  0  0
M  END
>  <MODEL>
4

>  <REMARK>
 VINA RESULT:      -6.5      3.665      5.151
  Name = 
  12 active torsions:
  status: ('A' for Active; 'I' for Inactive)
    1  A    between atoms: C_1  and  C_15
    2  A    between atoms: N_4  and  C_32
    3  A    between atoms: C_6  and  N_21
    4  A    between atoms: C_7  and  C_20
    5  A    between atoms: C_7  and  C_29
    6  A    between atoms: C_8  and  C_19
    7  A    between atoms: C_8  and  O_34
    8  A    between atoms: C_11  and  C_15
    9  A    between atoms: C_13  and  C_18
   10  A    between atoms: C_17  and  C_25
   11  A    between atoms: C_18  and  C_38
   12  A    between atoms: O_34  and  P_35
                            x       y       z     vdW  Elec       q    Type
                         _______ _______ _______ _____ _____    ______ ____

>  <TORSDO>
F 12

$$$$
=
 OpenBabel11062419253D

 38 40  0  0  1  0  0  0  0  0999 V2000
  189.5740  176.9530  144.5330 C   0  0  0  0  0  0  0  0  0  0  0  0
  189.0330  177.4330  146.8690 C   0  0  0  0  0  2  0  0  0  0  0  0
  189.2070  176.3380  143.4020 C   0  0  0  0  0  3  0  0  0  0  0  0
  187.8350  175.7540  143.2550 C   0  0  1  0  0  3  0  0  0  0  0  0
  188.5940  177.1500  145.6440 C   0  0  0  0  0  0  0  0  0  0  0  0
  187.1270  176.7980  145.4320 C   0  0  2  0  0  3  0  0  0  0  0  0
  186.8270  176.6440  143.9480 C   0  0  0  0  0  0  0  0  0  0  0  0
  185.9710  177.4830  143.3270 C   0  0  0  0  0  3  0  0  0  0  0  0
  186.1520  177.6570  146.2670 C   0  0  0  0  0  3  0  0  0  0  0  0
  184.8360  176.9410  146.5120 C   0  0  0  0  0  1  0  0  0  0  0  0
  185.9150  179.0420  145.6840 C   0  0  0  0  0  1  0  0  0  0  0  0
  186.6670  178.4350  141.2820 O   0  0  0  0  0  1  0  0  0  0  0  0
  185.7280  177.5780  141.8530 C   0  0  2  0  0  3  0  0  0  0  0  0
  184.0220  178.3670  140.3890 O   0  0  0  0  0  0  0  0  0  0  0  0
  184.3530  178.0900  141.5710 C   0  0  0  0  0  0  0  0  0  0  0  0
  183.4620  178.3300  142.6100 O   0  0  0  0  0  1  0  0  0  0  0  0
  187.5430  175.3060  141.8320 C   0  0  0  0  0  2  0  0  0  0  0  0
  187.8240  172.8410  142.0550 O   0  0  0  0  0  1  0  0  0  0  0  0
  188.2810  174.0460  141.5400 C   0  0  0  0  0  0  0  0  0  0  0  0
  189.2880  174.0640  140.7870 O   0  0  0  0  0  0  0  0  0  0  0  0
  190.9720  177.4740  144.6290 C   0  0  0  0  0  2  0  0  0  0  0  0
  191.6210  177.4880  143.2800 C   0  0  0  0  0  3  0  0  0  0  0  0
  192.7160  176.8450  142.9920 N   0  0  0  0  0  0  0  0  0  0  0  0
  193.5760  174.6670  143.8390 C   0  0  0  0  0  3  0  0  0  0  0  0
  193.5450  176.0680  143.8730 C   0  0  0  0  0  0  0  0  0  0  0  0
  195.1150  174.6560  145.6890 C   0  0  0  0  0  3  0  0  0  0  0  0
  195.0660  176.0150  145.7240 N   0  0  0  0  0  0  0  0  0  0  0  0
  194.3020  176.7250  144.8480 C   0  0  0  0  0  3  0  0  0  0  0  0
  194.3650  173.9580  144.7420 C   0  0  0  0  0  0  0  0  0  0  0  0
  194.3720  172.5360  144.7170 N   0  0  0  0  0  0  0  0  0  0  0  0
  194.7350  171.2370  144.0770 C   0  0  1  0  0  3  0  0  0  0  0  0
  193.9950  171.1910  145.2410 C   0  0  0  0  0  2  0  0  0  0  0  0
  193.8400  171.0160  142.8710 C   0  0  0  0  0  2  0  0  0  0  0  0
  192.6370  170.4300  143.2750 O   0  0  0  0  0  0  0  0  0  0  0  0
  190.7920  172.4680  143.7340 O   0  0  0  0  0  1  0  0  0  0  0  0
  190.2980  170.4960  142.0830 O   0  0  0  0  0  1  0  0  0  0  0  0
  191.4110  171.3840  142.5910 P   0  0  0  0  0  0  0  0  0  0  0  0
  192.0520  172.2650  141.2980 O   0  0  0  0  0  0  0  0  0  0  0  0
  1 21  1  0  0  0  0
  1  5  1  0  0  0  0
  3  1  2  0  0  0  0
  4 17  1  6  0  0  0
  4  3  1  0  0  0  0
  4  7  1  0  0  0  0
  5  2  2  0  0  0  0
  6  5  1  0  0  0  0
  6  9  1  6  0  0  0
  7  6  1  0  0  0  0
  8  7  2  0  0  0  0
  9 10  1  0  0  0  0
 11  9  1  0  0  0  0
 13 12  1  1  0  0  0
 13  8  1  0  0  0  0
 14 15  2  0  0  0  0
 15 13  1  0  0  0  0
 15 16  1  0  0  0  0
 19 17  1  0  0  0  0
 19 18  1  0  0  0  0
 20 19  2  0  0  0  0
 22 21  1  0  0  0  0
 23 22  2  0  0  0  0
 23 25  1  0  0  0  0
 24 25  2  0  0  0  0
 24 29  1  0  0  0  0
 25 28  1  0  0  0  0
 26 27  1  0  0  0  0
 28 27  2  0  0  0  0
 29 26  2  0  0  0  0
 30 29  1  0  0  0  0
 30 32  1  0  0  0  0
 31 33  1  6  0  0  0
 31 30  1  0  0  0  0
 31 32  1  0  0  0  0
 33 34  1  0  0  0  0
 36 37  1  0  0  0  0
 37 34  1  0  0  0  0
 37 35  1  0  0  0  0
 38 37  2  0  0  0  0
M  END
>  <MODEL>
5

>  <REMARK>
 VINA RESULT:      -6.4      1.875      2.595
  Name = 
  12 active torsions:
  status: ('A' for Active; 'I' for Inactive)
    1  A    between atoms: C_1  and  C_15
    2  A    between atoms: N_4  and  C_32
    3  A    between atoms: C_6  and  N_21
    4  A    between atoms: C_7  and  C_20
    5  A    between atoms: C_7  and  C_29
    6  A    between atoms: C_8  and  C_19
    7  A    between atoms: C_8  and  O_34
    8  A    between atoms: C_11  and  C_15
    9  A    between atoms: C_13  and  C_18
   10  A    between atoms: C_17  and  C_25
   11  A    between atoms: C_18  and  C_38
   12  A    between atoms: O_34  and  P_35
                            x       y       z     vdW  Elec       q    Type
                         _______ _______ _______ _____ _____    ______ ____

>  <TORSDO>
F 12

$$$$
=
 OpenBabel11062419253D

 38 40  0  0  1  0  0  0  0  0999 V2000
  188.4330  176.0730  142.1600 C   0  0  0  0  0  0  0  0  0  0  0  0
  186.8990  177.1260  140.5730 C   0  0  0  0  0  2  0  0  0  0  0  0
  189.2240  176.2340  143.2280 C   0  0  0  0  0  3  0  0  0  0  0  0
  189.1820  177.4960  144.0330 C   0  0  1  0  0  3  0  0  0  0  0  0
  187.4250  177.1150  141.7970 C   0  0  0  0  0  0  0  0  0  0  0  0
  187.1780  178.2900  142.7340 C   0  0  2  0  0  3  0  0  0  0  0  0
  187.7580  178.0010  144.1110 C   0  0  0  0  0  0  0  0  0  0  0  0
  186.9530  177.9010  145.1910 C   0  0  0  0  0  3  0  0  0  0  0  0
  185.7380  178.8460  142.6720 C   0  0  0  0  0  3  0  0  0  0  0  0
  185.4770  179.8610  143.7700 C   0  0  0  0  0  1  0  0  0  0  0  0
  184.6720  177.7610  142.6730 C   0  0  0  0  0  1  0  0  0  0  0  0
  187.3500  176.0420  146.5900 O   0  0  0  0  0  1  0  0  0  0  0  0
  187.3490  177.4350  146.5570 C   0  0  2  0  0  3  0  0  0  0  0  0
  185.9340  177.1720  148.4550 O   0  0  0  0  0  1  0  0  0  0  0  0
  186.4060  177.9560  147.5920 C   0  0  0  0  0  0  0  0  0  0  0  0
  185.9910  179.2820  147.5650 O   0  0  0  0  0  0  0  0  0  0  0  0
  189.9820  177.3920  145.3210 C   0  0  0  0  0  2  0  0  0  0  0  0
  192.0190  175.9760  145.5450 O   0  0  0  0  0  1  0  0  0  0  0  0
  191.4070  177.0990  145.0060 C   0  0  0  0  0  0  0  0  0  0  0  0
  192.0430  177.8400  144.2140 O   0  0  0  0  0  0  0  0  0  0  0  0
  188.5590  174.8070  141.3760 C   0  0  0  0  0  2  0  0  0  0  0  0
  187.8540  173.6850  142.0730 C   0  0  0  0  0  3  0  0  0  0  0  0
  188.4490  172.6150  142.5190 N   0  0  0  0  0  0  0  0  0  0  0  0
  190.7630  172.4560  143.4250 C   0  0  0  0  0  3  0  0  0  0  0  0
  189.8360  172.2560  142.3940 C   0  0  0  0  0  0  0  0  0  0  0  0
  192.5180  171.6110  142.0110 C   0  0  0  0  0  3  0  0  0  0  0  0
  191.6130  171.4360  141.0110 N   0  0  0  0  0  0  0  0  0  0  0  0
  190.2970  171.7480  141.1750 C   0  0  0  0  0  3  0  0  0  0  0  0
  192.1040  172.1290  143.2390 C   0  0  0  0  0  0  0  0  0  0  0  0
  193.0430  172.3570  144.2830 N   0  0  0  0  0  0  0  0  0  0  0  0
  193.9150  173.2630  145.0880 C   0  0  1  0  0  3  0  0  0  0  0  0
  193.9610  171.9130  145.3720 C   0  0  0  0  0  2  0  0  0  0  0  0
  195.1120  173.6670  144.2460 C   0  0  0  0  0  2  0  0  0  0  0  0
  195.0640  175.0400  143.9840 O   0  0  0  0  0  0  0  0  0  0  0  0
  196.7320  175.0020  141.7510 O   0  0  0  0  0  0  0  0  0  0  0  0
  197.6640  174.7340  144.1840 O   0  0  0  0  0  1  0  0  0  0  0  0
  196.5980  175.4430  143.3800 P   0  0  0  0  0  0  0  0  0  0  0  0
  196.8240  177.1140  143.5110 O   0  0  0  0  0  1  0  0  0  0  0  0
  1  3  2  0  0  0  0
  2  5  2  0  0  0  0
  3  4  1  0  0  0  0
  4  7  1  0  0  0  0
  4 17  1  1  0  0  0
  5  1  1  0  0  0  0
  5  6  1  0  0  0  0
  6  9  1  1  0  0  0
  6  7  1  0  0  0  0
  7  8  2  0  0  0  0
  8 13  1  0  0  0  0
  9 11  1  0  0  0  0
  9 10  1  0  0  0  0
 13 12  1  6  0  0  0
 13 15  1  0  0  0  0
 15 14  1  0  0  0  0
 16 15  2  0  0  0  0
 19 17  1  0  0  0  0
 19 18  1  0  0  0  0
 20 19  2  0  0  0  0
 21 22  1  0  0  0  0
 21  1  1  0  0  0  0
 22 23  2  0  0  0  0
 25 23  1  0  0  0  0
 25 24  2  0  0  0  0
 26 29  2  0  0  0  0
 27 28  2  0  0  0  0
 27 26  1  0  0  0  0
 28 25  1  0  0  0  0
 29 24  1  0  0  0  0
 29 30  1  0  0  0  0
 30 31  1  0  0  0  0
 30 32  1  0  0  0  0
 31 33  1  6  0  0  0
 31 32  1  0  0  0  0
 34 33  1  0  0  0  0
 35 37  2  0  0  0  0
 37 38  1  0  0  0  0
 37 34  1  0  0  0  0
 37 36  1  0  0  0  0
M  END
>  <MODEL>
6

>  <REMARK>
 VINA RESULT:      -6.2      3.739      5.588
  Name = 
  12 active torsions:
  status: ('A' for Active; 'I' for Inactive)
    1  A    between atoms: C_1  and  C_15
    2  A    between atoms: N_4  and  C_32
    3  A    between atoms: C_6  and  N_21
    4  A    between atoms: C_7  and  C_20
    5  A    between atoms: C_7  and  C_29
    6  A    between atoms: C_8  and  C_19
    7  A    between atoms: C_8  and  O_34
    8  A    between atoms: C_11  and  C_15
    9  A    between atoms: C_13  and  C_18
   10  A    between atoms: C_17  and  C_25
   11  A    between atoms: C_18  and  C_38
   12  A    between atoms: O_34  and  P_35
                            x       y       z     vdW  Elec       q    Type
                         _______ _______ _______ _____ _____    ______ ____

>  <TORSDO>
F 12

$$$$
=
 OpenBabel11062419253D

 38 40  0  0  1  0  0  0  0  0999 V2000
  189.0550  174.7190  142.8880 C   0  0  0  0  0  0  0  0  0  0  0  0
  188.5060  172.3870  142.3960 C   0  0  0  0  0  2  0  0  0  0  0  0
  189.8400  175.5650  143.5660 C   0  0  0  0  0  3  0  0  0  0  0  0
  191.0620  175.0760  144.2800 C   0  0  1  0  0  3  0  0  0  0  0  0
  189.4290  173.2780  142.7530 C   0  0  0  0  0  0  0  0  0  0  0  0
  190.7870  172.7980  143.2470 C   0  0  2  0  0  3  0  0  0  0  0  0
  191.7190  173.9800  143.4700 C   0  0  0  0  0  0  0  0  0  0  0  0
  192.8420  174.1220  142.7330 C   0  0  0  0  0  3  0  0  0  0  0  0
  191.3470  171.5920  142.4620 C   0  0  0  0  0  3  0  0  0  0  0  0
  192.4230  170.8590  143.2430 C   0  0  0  0  0  1  0  0  0  0  0  0
  191.8400  171.9540  141.0690 C   0  0  0  0  0  1  0  0  0  0  0  0
  193.8350  175.7950  141.3960 O   0  0  0  0  0  1  0  0  0  0  0  0
  193.7430  175.3170  142.7020 C   0  0  2  0  0  3  0  0  0  0  0  0
  196.0070  174.6490  142.3800 O   0  0  0  0  0  0  0  0  0  0  0  0
  195.1070  174.9680  143.2000 C   0  0  0  0  0  0  0  0  0  0  0  0
  195.3710  174.9250  144.5640 O   0  0  0  0  0  1  0  0  0  0  0  0
  191.9310  176.2140  144.7920 C   0  0  0  0  0  2  0  0  0  0  0  0
  193.4550  176.6120  146.7230 O   0  0  0  0  0  0  0  0  0  0  0  0
  192.3850  175.9150  146.1790 C   0  0  0  0  0  0  0  0  0  0  0  0
  191.7700  175.0670  146.8750 O   0  0  0  0  0  1  0  0  0  0  0  0
  187.8270  175.2670  142.2350 C   0  0  0  0  0  2  0  0  0  0  0  0
  188.1930  176.2610  141.1770 C   0  0  0  0  0  3  0  0  0  0  0  0
  187.5140  177.3440  140.9280 N   0  0  0  0  0  0  0  0  0  0  0  0
  186.1660  178.0070  142.9140 C   0  0  0  0  0  3  0  0  0  0  0  0
  186.2850  177.7780  141.5370 C   0  0  0  0  0  0  0  0  0  0  0  0
  183.8340  178.5280  142.6250 C   0  0  0  0  0  3  0  0  0  0  0  0
  183.9570  178.2870  141.2920 N   0  0  0  0  0  0  0  0  0  0  0  0
  185.1450  177.9160  140.7390 C   0  0  0  0  0  3  0  0  0  0  0  0
  184.9430  178.3880  143.4610 C   0  0  0  0  0  0  0  0  0  0  0  0
  184.8240  178.5960  144.8630 N   0  0  0  0  0  0  0  0  0  0  0  0
  185.4210  178.8590  146.2060 C   0  0  1  0  0  3  0  0  0  0  0  0
  184.0570  178.6660  146.1410 C   0  0  0  0  0  2  0  0  0  0  0  0
  186.1110  177.5970  146.6920 C   0  0  0  0  0  2  0  0  0  0  0  0
  187.1810  177.9340  147.5270 O   0  0  0  0  0  0  0  0  0  0  0  0
  188.6950  177.9140  145.1870 O   0  0  0  0  0  0  0  0  0  0  0  0
  188.4980  175.8070  146.7300 O   0  0  0  0  0  1  0  0  0  0  0  0
  188.5670  177.3170  146.7650 P   0  0  0  0  0  0  0  0  0  0  0  0
  189.9350  177.7900  147.6380 O   0  0  0  0  0  1  0  0  0  0  0  0
  1  3  2  0  0  0  0
  2  5  2  0  0  0  0
  3  4  1  0  0  0  0
  4 17  1  6  0  0  0
  5  1  1  0  0  0  0
  5  6  1  0  0  0  0
  6  9  1  6  0  0  0
  6  7  1  0  0  0  0
  7  4  1  0  0  0  0
  8  7  2  0  0  0  0
  9 10  1  0  0  0  0
 11  9  1  0  0  0  0
 13 12  1  6  0  0  0
 13  8  1  0  0  0  0
 13 15  1  0  0  0  0
 14 15  2  0  0  0  0
 15 16  1  0  0  0  0
 17 19  1  0  0  0  0
 19 18  2  0  0  0  0
 19 20  1  0  0  0  0
 21  1  1  0  0  0  0
 22 21  1  0  0  0  0
 23 22  2  0  0  0  0
 23 25  1  0  0  0  0
 24 29  1  0  0  0  0
 25 24  2  0  0  0  0
 26 29  2  0  0  0  0
 27 26  1  0  0  0  0
 28 27  2  0  0  0  0
 28 25  1  0  0  0  0
 29 30  1  0  0  0  0
 30 32  1  0  0  0  0
 30 31  1  0  0  0  0
 31 33  1  1  0  0  0
 32 31  1  0  0  0  0
 33 34  1  0  0  0  0
 35 37  2  0  0  0  0
 36 37  1  0  0  0  0
 37 34  1  0  0  0  0
 37 38  1  0  0  0  0
M  END
>  <MODEL>
7

>  <REMARK>
 VINA RESULT:      -6.2      4.089      8.413
  Name = 
  12 active torsions:
  status: ('A' for Active; 'I' for Inactive)
    1  A    between atoms: C_1  and  C_15
    2  A    between atoms: N_4  and  C_32
    3  A    between atoms: C_6  and  N_21
    4  A    between atoms: C_7  and  C_20
    5  A    between atoms: C_7  and  C_29
    6  A    between atoms: C_8  and  C_19
    7  A    between atoms: C_8  and  O_34
    8  A    between atoms: C_11  and  C_15
    9  A    between atoms: C_13  and  C_18
   10  A    between atoms: C_17  and  C_25
   11  A    between atoms: C_18  and  C_38
   12  A    between atoms: O_34  and  P_35
                            x       y       z     vdW  Elec       q    Type
                         _______ _______ _______ _____ _____    ______ ____

>  <TORSDO>
F 12

$$$$
=
 OpenBabel11062419253D

 38 40  0  0  1  0  0  0  0  0999 V2000
  189.2550  177.0880  144.6180 C   0  0  0  0  0  0  0  0  0  0  0  0
  188.5900  177.4250  146.9460 C   0  0  0  0  0  2  0  0  0  0  0  0
  188.9650  176.5180  143.4410 C   0  0  0  0  0  3  0  0  0  0  0  0
  187.6270  175.8900  143.2010 C   0  0  1  0  0  3  0  0  0  0  0  0
  188.2190  177.1890  145.6890 C   0  0  0  0  0  0  0  0  0  0  0  0
  186.7790  176.7910  145.3910 C   0  0  2  0  0  3  0  0  0  0  0  0
  186.5530  176.7030  143.8890 C   0  0  0  0  0  0  0  0  0  0  0  0
  185.6910  177.5380  143.2700 C   0  0  0  0  0  3  0  0  0  0  0  0
  185.7320  177.5670  146.2210 C   0  0  0  0  0  3  0  0  0  0  0  0
  185.8940  179.0690  146.0740 C   0  0  0  0  0  1  0  0  0  0  0  0
  185.7090  177.1650  147.6890 C   0  0  0  0  0  1  0  0  0  0  0  0
  186.4120  178.6510  141.3170 O   0  0  0  0  0  1  0  0  0  0  0  0
  185.5110  177.7000  141.7930 C   0  0  2  0  0  3  0  0  0  0  0  0
  183.2860  178.2960  142.4000 O   0  0  0  0  0  1  0  0  0  0  0  0
  184.1180  178.1300  141.4700 C   0  0  0  0  0  0  0  0  0  0  0  0
  183.7130  178.2780  140.1490 O   0  0  0  0  0  0  0  0  0  0  0  0
  187.4190  175.5050  141.7450 C   0  0  0  0  0  2  0  0  0  0  0  0
  187.7980  173.0460  141.8860 O   0  0  0  0  0  1  0  0  0  0  0  0
  188.2160  174.2880  141.4270 C   0  0  0  0  0  0  0  0  0  0  0  0
  189.2400  174.3760  140.7020 O   0  0  0  0  0  0  0  0  0  0  0  0
  190.6240  177.6570  144.8050 C   0  0  0  0  0  2  0  0  0  0  0  0
  191.1900  178.1100  143.4950 C   0  0  0  0  0  3  0  0  0  0  0  0
  192.0090  177.4020  142.7710 N   0  0  0  0  0  0  0  0  0  0  0  0
  191.9460  174.9130  142.7450 C   0  0  0  0  0  3  0  0  0  0  0  0
  192.5790  176.1180  143.0770 C   0  0  0  0  0  0  0  0  0  0  0  0
  193.7260  173.6860  143.8030 C   0  0  0  0  0  3  0  0  0  0  0  0
  194.3230  174.8620  144.1360 N   0  0  0  0  0  0  0  0  0  0  0  0
  193.7780  176.0620  143.7940 C   0  0  0  0  0  3  0  0  0  0  0  0
  192.5200  173.6950  143.1000 C   0  0  0  0  0  0  0  0  0  0  0  0
  191.8590  172.4760  142.7800 N   0  0  0  0  0  0  0  0  0  0  0  0
  191.7410  171.2180  141.9850 C   0  0  1  0  0  3  0  0  0  0  0  0
  190.7500  171.4870  142.9070 C   0  0  0  0  0  2  0  0  0  0  0  0
  191.2700  171.5640  140.5850 C   0  0  0  0  0  2  0  0  0  0  0  0
  191.0600  170.3920  139.8520 O   0  0  0  0  0  0  0  0  0  0  0  0
  188.9290  171.8880  138.8580 O   0  0  0  0  0  1  0  0  0  0  0  0
  189.6940  169.6480  137.7370 O   0  0  0  0  0  1  0  0  0  0  0  0
  190.2200  170.8700  138.4570 P   0  0  0  0  0  0  0  0  0  0  0  0
  191.2750  171.7060  137.4340 O   0  0  0  0  0  0  0  0  0  0  0  0
  1 21  1  0  0  0  0
  1  5  1  0  0  0  0
  3  1  2  0  0  0  0
  4 17  1  6  0  0  0
  4  3  1  0  0  0  0
  4  7  1  0  0  0  0
  5  2  2  0  0  0  0
  6  5  1  0  0  0  0
  6  9  1  6  0  0  0
  7  6  1  0  0  0  0
  8  7  2  0  0  0  0
  9 11  1  0  0  0  0
 10  9  1  0  0  0  0
 13 12  1  1  0  0  0
 13  8  1  0  0  0  0
 15 13  1  0  0  0  0
 15 14  1  0  0  0  0
 16 15  2  0  0  0  0
 19 17  1  0  0  0  0
 19 18  1  0  0  0  0
 20 19  2  0  0  0  0
 22 21  1  0  0  0  0
 23 25  1  0  0  0  0
 23 22  2  0  0  0  0
 24 25  2  0  0  0  0
 24 29  1  0  0  0  0
 25 28  1  0  0  0  0
 26 27  1  0  0  0  0
 28 27  2  0  0  0  0
 29 26  2  0  0  0  0
 30 32  1  0  0  0  0
 30 29  1  0  0  0  0
 31 33  1  6  0  0  0
 31 30  1  0  0  0  0
 31 32  1  0  0  0  0
 34 33  1  0  0  0  0
 36 37  1  0  0  0  0
 37 35  1  0  0  0  0
 37 34  1  0  0  0  0
 38 37  2  0  0  0  0
M  END
>  <MODEL>
8

>  <REMARK>
 VINA RESULT:      -6.1      1.906      2.661
  Name = 
  12 active torsions:
  status: ('A' for Active; 'I' for Inactive)
    1  A    between atoms: C_1  and  C_15
    2  A    between atoms: N_4  and  C_32
    3  A    between atoms: C_6  and  N_21
    4  A    between atoms: C_7  and  C_20
    5  A    between atoms: C_7  and  C_29
    6  A    between atoms: C_8  and  C_19
    7  A    between atoms: C_8  and  O_34
    8  A    between atoms: C_11  and  C_15
    9  A    between atoms: C_13  and  C_18
   10  A    between atoms: C_17  and  C_25
   11  A    between atoms: C_18  and  C_38
   12  A    between atoms: O_34  and  P_35
                            x       y       z     vdW  Elec       q    Type
                         _______ _______ _______ _____ _____    ______ ____

>  <TORSDO>
F 12

$$$$
=
 OpenBabel11062419253D

 38 40  0  0  1  0  0  0  0  0999 V2000
  192.3470  171.9620  144.2120 C   0  0  0  0  0  0  0  0  0  0  0  0
  194.1330  170.3250  144.5380 C   0  0  0  0  0  2  0  0  0  0  0  0
  191.7590  173.0810  144.6540 C   0  0  0  0  0  3  0  0  0  0  0  0
  192.4080  173.9260  145.7070 C   0  0  1  0  0  3  0  0  0  0  0  0
  193.7070  171.5760  144.6960 C   0  0  0  0  0  0  0  0  0  0  0  0
  194.5020  172.5380  145.5690 C   0  0  2  0  0  3  0  0  0  0  0  0
  193.9070  173.9360  145.4980 C   0  0  0  0  0  0  0  0  0  0  0  0
  194.6140  174.9610  144.9760 C   0  0  0  0  0  3  0  0  0  0  0  0
  196.0330  172.4100  145.4070 C   0  0  0  0  0  3  0  0  0  0  0  0
  196.7820  173.2940  146.3870 C   0  0  0  0  0  1  0  0  0  0  0  0
  196.5110  172.6530  143.9830 C   0  0  0  0  0  1  0  0  0  0  0  0
  194.5500  176.7200  143.4030 O   0  0  0  0  0  1  0  0  0  0  0  0
  194.0990  176.3320  144.6630 C   0  0  2  0  0  3  0  0  0  0  0  0
  195.3260  178.2590  145.3390 O   0  0  0  0  0  0  0  0  0  0  0  0
  194.5620  177.3200  145.6830 C   0  0  0  0  0  0  0  0  0  0  0  0
  194.2130  177.1720  147.0200 O   0  0  0  0  0  1  0  0  0  0  0  0
  191.6990  175.2560  145.9040 C   0  0  0  0  0  2  0  0  0  0  0  0
  189.5160  175.0820  147.0930 O   0  0  0  0  0  0  0  0  0  0  0  0
  190.8960  175.2170  147.1580 C   0  0  0  0  0  0  0  0  0  0  0  0
  191.4710  175.2560  148.2760 O   0  0  0  0  0  1  0  0  0  0  0  0
  191.6230  171.1430  143.1930 C   0  0  0  0  0  2  0  0  0  0  0  0
  192.0680  171.5100  141.8110 C   0  0  0  0  0  3  0  0  0  0  0  0
  191.4730  172.3960  141.0650 N   0  0  0  0  0  0  0  0  0  0  0  0
  190.3020  174.4800  141.7610 C   0  0  0  0  0  3  0  0  0  0  0  0
  190.2770  173.1390  141.3560 C   0  0  0  0  0  0  0  0  0  0  0  0
  187.9060  174.4570  141.9870 C   0  0  0  0  0  3  0  0  0  0  0  0
  187.8940  173.1510  141.6090 N   0  0  0  0  0  0  0  0  0  0  0  0
  189.0410  172.4860  141.3000 C   0  0  0  0  0  3  0  0  0  0  0  0
  189.1170  175.1450  142.0710 C   0  0  0  0  0  0  0  0  0  0  0  0
  189.1540  176.5000  142.5030 N   0  0  0  0  0  0  0  0  0  0  0  0
  189.5250  177.5500  143.4970 C   0  0  1  0  0  3  0  0  0  0  0  0
  188.8220  177.9490  142.3790 C   0  0  0  0  0  2  0  0  0  0  0  0
  188.5990  177.4410  144.6950 C   0  0  0  0  0  2  0  0  0  0  0  0
  187.4570  178.2190  144.4830 O   0  0  0  0  0  0  0  0  0  0  0  0
  185.5140  176.6040  145.6570 O   0  0  0  0  0  0  0  0  0  0  0  0
  185.5990  179.1900  146.0640 O   0  0  0  0  0  1  0  0  0  0  0  0
  186.4800  177.9790  145.8500 P   0  0  0  0  0  0  0  0  0  0  0  0
  187.4680  177.7650  147.2050 O   0  0  0  0  0  1  0  0  0  0  0  0
  1  3  2  0  0  0  0
  1  5  1  0  0  0  0
  2  5  2  0  0  0  0
  3  4  1  0  0  0  0
  4 17  1  6  0  0  0
  5  6  1  0  0  0  0
  6  9  1  6  0  0  0
  7  6  1  0  0  0  0
  7  4  1  0  0  0  0
  8  7  2  0  0  0  0
  9 10  1  0  0  0  0
 11  9  1  0  0  0  0
 13 12  1  6  0  0  0
 13  8  1  0  0  0  0
 13 15  1  0  0  0  0
 14 15  2  0  0  0  0
 15 16  1  0  0  0  0
 17 19  1  0  0  0  0
 18 19  2  0  0  0  0
 19 20  1  0  0  0  0
 21  1  1  0  0  0  0
 22 21  1  0  0  0  0
 23 25  1  0  0  0  0
 23 22  2  0  0  0  0
 24 29  1  0  0  0  0
 25 24  2  0  0  0  0
 26 29  2  0  0  0  0
 27 26  1  0  0  0  0
 28 25  1  0  0  0  0
 28 27  2  0  0  0  0
 29 30  1  0  0  0  0
 30 31  1  0  0  0  0
 31 33  1  1  0  0  0
 32 30  1  0  0  0  0
 32 31  1  0  0  0  0
 34 33  1  0  0  0  0
 34 37  1  0  0  0  0
 35 37  2  0  0  0  0
 37 36  1  0  0  0  0
 37 38  1  0  0  0  0
M  END
>  <MODEL>
9

>  <REMARK>
 VINA RESULT:      -6.1      4.078      8.232
  Name = 
  12 active torsions:
  status: ('A' for Active; 'I' for Inactive)
    1  A    between atoms: C_1  and  C_15
    2  A    between atoms: N_4  and  C_32
    3  A    between atoms: C_6  and  N_21
    4  A    between atoms: C_7  and  C_20
    5  A    between atoms: C_7  and  C_29
    6  A    between atoms: C_8  and  C_19
    7  A    between atoms: C_8  and  O_34
    8  A    between atoms: C_11  and  C_15
    9  A    between atoms: C_13  and  C_18
   10  A    between atoms: C_17  and  C_25
   11  A    between atoms: C_18  and  C_38
   12  A    between atoms: O_34  and  P_35
                            x       y       z     vdW  Elec       q    Type
                         _______ _______ _______ _____ _____    ______ ____

>  <TORSDO>
F 12

$$$$
