=
 OpenBabel11072409183D

 64 72  0  0  1  0  0  0  0  0999 V2000
  190.0970  176.7020  145.7330 C   0  0  1  0  0  3  0  0  0  0  0  0
  192.1720  177.2870  144.2520 O   0  0  0  0  0  0  0  0  0  0  0  0
  192.4880  176.5340  143.1030 C   0  0  1  0  0  3  0  0  0  0  0  0
  191.3220  179.4400  143.7270 C   0  0  0  0  0  1  0  0  0  0  0  0
  188.2580  177.8380  146.9450 F   0  0  0  0  0  0  0  0  0  0  0  0
  189.0460  176.7080  146.8230 C   0  0  0  0  0  0  0  0  0  0  0  0
  190.3720  177.4380  142.6760 C   0  0  2  0  0  3  0  0  0  0  0  0
  193.1410  175.2020  143.4530 C   0  0  0  0  0  2  0  0  0  0  0  0
  191.2140  176.2510  142.3500 C   0  0  0  0  0  2  0  0  0  0  0  0
  194.1750  175.2930  144.5810 C   0  0  1  0  0  3  0  0  0  0  0  0
  191.7720  174.7110  147.5390 C   0  0  0  0  0  3  0  0  0  0  0  0
  190.0680  177.9490  145.0660 O   0  0  0  0  0  0  0  0  0  0  0  0
  188.4730  175.4710  147.0900 F   0  0  0  0  0  0  0  0  0  0  0  0
  190.9730  177.9840  143.9740 C   0  0  1  0  0  0  0  0  0  0  0  0
  192.3150  174.5870  146.1560 C   0  0  0  0  0  2  0  0  0  0  0  0
  193.5430  175.4680  145.9690 C   0  0  0  0  0  2  0  0  0  0  0  0
  190.9910  175.7100  147.9720 C   0  0  0  0  0  3  0  0  0  0  0  0
  190.5050  176.9170  147.2000 C   0  0  1  0  0  3  0  0  0  0  0  0
  195.1490  174.1160  144.5430 C   0  0  0  0  0  2  0  0  0  0  0  0
  196.8830  170.0980  145.0100 O   0  0  0  0  0  0  0  0  0  0  0  0
  193.9370  172.0900  143.5690 C   0  0  2  0  0  3  0  0  0  0  0  0
  194.4740  172.7740  144.8380 C   0  0  1  0  0  3  0  0  0  0  0  0
  193.2000  170.4320  143.9170 S   0  0  0  0  0  0  0  0  0  0  0  0
  196.5780  172.1060  146.1920 O   0  0  0  0  0  0  0  0  0  0  0  0
  195.8180  169.4630  144.3310 C   0  0  0  0  0  2  0  0  0  0  0  0
  194.4840  169.7550  145.0600 C   0  0  1  0  0  0  0  0  0  0  0  0
  194.7010  170.6460  146.1350 O   0  0  0  0  0  0  0  0  0  0  0  0
  195.3390  171.7860  145.6100 C   0  0  1  0  0  0  0  0  0  0  0  0
  193.9670  168.4480  145.6220 C   0  0  0  0  0  1  0  0  0  0  0  0
  196.6330  171.4820  144.9190 C   0  0  2  0  0  3  0  0  0  0  0  0
  194.9320  171.9700  142.5910 O   0  0  0  0  0  0  0  0  0  0  0  0
  194.4250  172.6270  141.4640 C   0  0  1  0  0  3  0  0  0  0  0  0
  195.1330  174.6870  140.2430 O   0  0  0  0  0  0  0  0  0  0  0  0
  195.4840  173.5170  140.8980 C   0  0  0  0  0  0  0  0  0  0  0  0
  196.6990  173.2350  141.0640 O   0  0  0  0  0  1  0  0  0  0  0  0
  193.9910  171.6040  140.4070 C   0  0  1  0  0  3  0  0  0  0  0  0
  192.5840  171.6490  140.2010 O   0  0  0  0  0  0  0  0  0  0  0  0
  191.8290  172.7730  140.5320 C   0  0  0  0  0  0  0  0  0  0  0  0
  191.8800  173.7950  139.8020 O   0  0  0  0  0  0  0  0  0  0  0  0
  191.0300  172.7810  141.6710 O   0  0  0  0  0  1  0  0  0  0  0  0
  194.7330  171.8080  139.0840 C   0  0  0  0  0  2  0  0  0  0  0  0
  194.9520  171.0070  136.8670 O   0  0  0  0  0  0  0  0  0  0  0  0
  194.4610  170.6730  138.1090 C   0  0  0  0  0  3  0  0  0  0  0  0
  193.6370  171.1200  137.1040 O   0  0  0  0  0  0  0  0  0  0  0  0
  188.8960  177.0730  142.7370 C   0  0  0  0  0  2  0  0  0  0  0  0
  188.1710  177.8330  141.7200 N   0  0  0  0  0  0  0  0  0  0  0  0
  187.2150  176.8810  141.1610 C   0  0  2  0  0  0  0  0  0  0  0  0
  186.7370  178.0710  141.9740 C   0  0  2  0  0  0  0  0  0  0  0  0
  185.8720  177.1680  141.3780 O   0  0  0  0  0  0  0  0  0  0  0  0
  187.3680  177.0520  139.6600 C   0  0  0  0  0  2  0  0  0  0  0  0
  186.2550  176.2540  137.5980 C   0  0  0  0  0  1  0  0  0  0  0  0
  186.8550  175.8260  138.9210 C   0  0  1  0  0  3  0  0  0  0  0  0
  187.9560  174.8460  138.6750 C   0  0  0  0  0  0  0  0  0  0  0  0
  188.5220  174.2940  139.6590 O   0  0  0  0  0  0  0  0  0  0  0  0
  188.3290  174.5290  137.3670 O   0  0  0  0  0  0  0  0  0  0  0  0
  189.6240  174.0420  137.0550 C   0  0  0  0  0  1  0  0  0  0  0  0
  186.4290  177.9390  143.4740 C   0  0  0  0  0  2  0  0  0  0  0  0
  185.6330  179.1320  143.9910 C   0  0  1  0  0  3  0  0  0  0  0  0
  184.3120  179.0640  143.5430 O   0  0  0  0  0  1  0  0  0  0  0  0
  185.6660  179.1920  145.5100 C   0  0  0  0  0  2  0  0  0  0  0  0
  184.4540  178.4800  146.0910 C   0  0  0  0  0  2  0  0  0  0  0  0
  185.5980  176.3890  146.1260 F   0  0  0  0  0  0  0  0  0  0  0  0
  184.8730  177.2690  146.9090 C   0  0  0  0  0  3  0  0  0  0  0  0
  185.6250  177.6570  148.0050 F   0  0  0  0  0  0  0  0  0  0  0  0
  1 12  1  6  0  0  0
  1  6  1  0  0  0  0
  1 18  1  0  0  0  0
  3  9  1  1  0  0  0
  3  8  1  0  0  0  0
  3  2  1  0  0  0  0
  6  5  1  0  0  0  0
  6 13  1  0  0  0  0
  6 18  1  0  0  0  0
  7 45  1  1  0  0  0
  7 14  1  0  0  0  0
  8 10  1  0  0  0  0
  9  7  1  0  0  0  0
 10 19  1  1  0  0  0
 10 16  1  0  0  0  0
 11 17  2  0  0  0  0
 14  4  1  6  0  0  0
 14  2  1  0  0  0  0
 14 12  1  0  0  0  0
 15 11  1  0  0  0  0
 16 15  1  0  0  0  0
 18 17  1  1  0  0  0
 21 31  1  6  0  0  0
 21 23  1  0  0  0  0
 21 22  1  0  0  0  0
 22 19  1  6  0  0  0
 22 28  1  0  0  0  0
 23 26  1  0  0  0  0
 25 20  1  0  0  0  0
 25 26  1  0  0  0  0
 26 29  1  1  0  0  0
 26 27  1  0  0  0  0
 28 27  1  1  0  0  0
 28 24  1  0  0  0  0
 30 20  1  1  0  0  0
 30 28  1  0  0  0  0
 30 24  1  0  0  0  0
 32 34  1  6  0  0  0
 32 31  1  0  0  0  0
 33 34  2  0  0  0  0
 34 35  1  0  0  0  0
 36 41  1  6  0  0  0
 36 32  1  0  0  0  0
 37 36  1  0  0  0  0
 37 38  1  0  0  0  0
 38 40  1  0  0  0  0
 39 38  2  0  0  0  0
 42 44  1  0  0  0  0
 42 43  1  0  0  0  0
 43 41  1  0  0  0  0
 44 43  1  0  0  0  0
 46 48  1  0  0  0  0
 46 45  1  0  0  0  0
 47 50  1  6  0  0  0
 47 49  1  0  0  0  0
 47 46  1  0  0  0  0
 47 48  1  0  0  0  0
 48 57  1  1  0  0  0
 49 48  1  0  0  0  0
 52 51  1  6  0  0  0
 52 50  1  0  0  0  0
 53 52  1  0  0  0  0
 53 54  2  0  0  0  0
 55 53  1  0  0  0  0
 56 55  1  0  0  0  0
 57 58  1  0  0  0  0
 58 59  1  1  0  0  0
 58 60  1  0  0  0  0
 60 61  1  0  0  0  0
 61 63  1  0  0  0  0
 62 63  1  0  0  0  0
 63 64  1  0  0  0  0
M  END
>  <MODEL>
1

>  <REMARK>
 VINA RESULT:      -6.4      0.000      0.000
  Name = 
  21 active torsions:
  status: ('A' for Active; 'I' for Inactive)
    1  A    between atoms: C_2  and  O_14
    2  A    between atoms: C_5  and  C_44
    3  A    between atoms: C_5  and  C_51
    4  A    between atoms: C_6  and  C_39
    5  A    between atoms: C_6  and  C_51
    6  A    between atoms: C_7  and  O_11
    7  A    between atoms: C_9  and  C_37
    8  A    between atoms: C_9  and  C_54
    9  A    between atoms: C_10  and  C_26
   10  A    between atoms: O_11  and  C_21
   11  A    between atoms: O_14  and  C_38
   12  A    between atoms: O_16  and  C_61
   13  A    between atoms: C_21  and  C_38
   14  A    between atoms: C_21  and  C_47
   15  A    between atoms: C_23  and  C_35
   16  A    between atoms: C_26  and  C_33
   17  A    between atoms: N_32  and  C_35
   18  A    between atoms: C_38  and  C_55
   19  A    between atoms: C_42  and  C_44
   20  A    between atoms: C_52  and  C_55
   21  A    between atoms: C_54  and  C_61
                            x       y       z     vdW  Elec       q    Type
                         _______ _______ _______ _____ _____    ______ ____

>  <TORSDO>
F 21

$$$$
=
 OpenBabel11072409183D

 64 72  0  0  1  0  0  0  0  0999 V2000
  190.2300  176.6910  146.0000 C   0  0  1  0  0  3  0  0  0  0  0  0
  192.2270  177.4740  144.5020 O   0  0  0  0  0  0  0  0  0  0  0  0
  192.6390  176.7260  143.3810 C   0  0  1  0  0  3  0  0  0  0  0  0
  191.1240  179.4870  143.9000 C   0  0  0  0  0  1  0  0  0  0  0  0
  188.2600  177.6360  147.1680 F   0  0  0  0  0  0  0  0  0  0  0  0
  189.1800  176.6070  147.0870 C   0  0  0  0  0  0  0  0  0  0  0  0
  190.4310  177.3490  142.9190 C   0  0  2  0  0  3  0  0  0  0  0  0
  193.4480  175.4960  143.7780 C   0  0  0  0  0  2  0  0  0  0  0  0
  191.4130  176.2630  142.6360 C   0  0  0  0  0  2  0  0  0  0  0  0
  194.4560  175.7520  144.9040 C   0  0  1  0  0  3  0  0  0  0  0  0
  192.1260  174.9840  147.8770 C   0  0  0  0  0  3  0  0  0  0  0  0
  190.0530  177.9020  145.2890 O   0  0  0  0  0  0  0  0  0  0  0  0
  188.7610  175.3200  147.3970 F   0  0  0  0  0  0  0  0  0  0  0  0
  190.9540  178.0090  144.1970 C   0  0  1  0  0  0  0  0  0  0  0  0
  192.6870  174.8790  146.4990 C   0  0  0  0  0  2  0  0  0  0  0  0
  193.8000  175.8960  146.2830 C   0  0  0  0  0  2  0  0  0  0  0  0
  191.2260  175.8940  148.2730 C   0  0  0  0  0  3  0  0  0  0  0  0
  190.6000  177.0050  147.4590 C   0  0  1  0  0  3  0  0  0  0  0  0
  195.5670  174.7020  144.9080 C   0  0  0  0  0  2  0  0  0  0  0  0
  197.6960  170.8510  145.0100 O   0  0  0  0  0  0  0  0  0  0  0  0
  194.8830  172.8310  143.3090 C   0  0  2  0  0  3  0  0  0  0  0  0
  195.0350  173.2720  144.7750 C   0  0  1  0  0  3  0  0  0  0  0  0
  194.3240  171.0770  143.1520 S   0  0  0  0  0  0  0  0  0  0  0  0
  196.8710  172.5220  146.4410 O   0  0  0  0  0  0  0  0  0  0  0  0
  196.9000  170.2830  143.9890 C   0  0  0  0  0  2  0  0  0  0  0  0
  195.4130  170.2900  144.4200 C   0  0  1  0  0  0  0  0  0  0  0  0
  195.2690  170.9440  145.6640 O   0  0  0  0  0  0  0  0  0  0  0  0
  195.8420  172.2240  145.5310 C   0  0  1  0  0  0  0  0  0  0  0  0
  194.9730  168.8510  144.5850 C   0  0  0  0  0  1  0  0  0  0  0  0
  197.2830  172.1940  145.1240 C   0  0  2  0  0  3  0  0  0  0  0  0
  196.0730  173.0150  142.5920 O   0  0  0  0  0  0  0  0  0  0  0  0
  195.7440  173.8860  141.5470 C   0  0  1  0  0  3  0  0  0  0  0  0
  196.3270  176.2690  141.0830 O   0  0  0  0  0  0  0  0  0  0  0  0
  196.7220  175.0160  141.5250 C   0  0  0  0  0  0  0  0  0  0  0  0
  197.8900  174.8460  141.9590 O   0  0  0  0  0  1  0  0  0  0  0  0
  195.7850  173.1410  140.2070 C   0  0  1  0  0  3  0  0  0  0  0  0
  195.5370  174.0280  139.1220 O   0  0  0  0  0  0  0  0  0  0  0  0
  194.3670  173.9580  138.3680 C   0  0  0  0  0  0  0  0  0  0  0  0
  193.4010  174.7130  138.6460 O   0  0  0  0  0  1  0  0  0  0  0  0
  194.2510  173.0490  137.3210 O   0  0  0  0  0  0  0  0  0  0  0  0
  197.1130  172.4080  140.0070 C   0  0  0  0  0  2  0  0  0  0  0  0
  197.9410  170.1950  140.1700 O   0  0  0  0  0  0  0  0  0  0  0  0
  196.8970  170.9410  139.6690 C   0  0  0  0  0  3  0  0  0  0  0  0
  197.9220  170.5000  138.8650 O   0  0  0  0  0  0  0  0  0  0  0  0
  189.0100  176.8090  142.9910 C   0  0  0  0  0  2  0  0  0  0  0  0
  188.5240  176.5530  141.6360 N   0  0  0  0  0  0  0  0  0  0  0  0
  188.0870  175.1610  141.6580 C   0  0  2  0  0  0  0  0  0  0  0  0
  187.0810  176.2860  141.4940 C   0  0  2  0  0  0  0  0  0  0  0  0
  186.7260  174.9470  141.4690 O   0  0  0  0  0  0  0  0  0  0  0  0
  188.7080  174.5650  140.4070 C   0  0  0  0  0  2  0  0  0  0  0  0
  188.4560  172.5040  139.0600 C   0  0  0  0  0  1  0  0  0  0  0  0
  188.6750  173.0460  140.4570 C   0  0  1  0  0  3  0  0  0  0  0  0
  189.9510  172.4990  141.0090 C   0  0  0  0  0  0  0  0  0  0  0  0
  191.0510  172.8870  140.5250 O   0  0  0  0  0  0  0  0  0  0  0  0
  189.9200  171.5890  142.0690 O   0  0  0  0  0  0  0  0  0  0  0  0
  189.3910  171.9370  143.3390 C   0  0  0  0  0  1  0  0  0  0  0  0
  186.3100  176.8470  142.6990 C   0  0  0  0  0  2  0  0  0  0  0  0
  185.4990  178.0820  142.3220 C   0  0  1  0  0  3  0  0  0  0  0  0
  185.1290  178.0270  140.9770 O   0  0  0  0  0  1  0  0  0  0  0  0
  184.2630  178.2110  143.1980 C   0  0  0  0  0  2  0  0  0  0  0  0
  184.4300  179.3620  144.1780 C   0  0  0  0  0  2  0  0  0  0  0  0
  184.3940  177.6420  145.8280 F   0  0  0  0  0  0  0  0  0  0  0  0
  184.9560  178.8670  145.5160 C   0  0  0  0  0  3  0  0  0  0  0  0
  186.3360  178.7620  145.4890 F   0  0  0  0  0  0  0  0  0  0  0  0
  1 12  1  6  0  0  0
  1  6  1  0  0  0  0
  1 18  1  0  0  0  0
  3  9  1  1  0  0  0
  3  8  1  0  0  0  0
  3  2  1  0  0  0  0
  6  5  1  0  0  0  0
  6 13  1  0  0  0  0
  6 18  1  0  0  0  0
  7 45  1  1  0  0  0
  7 14  1  0  0  0  0
  8 10  1  0  0  0  0
  9  7  1  0  0  0  0
 10 19  1  1  0  0  0
 10 16  1  0  0  0  0
 11 17  2  0  0  0  0
 14  4  1  6  0  0  0
 14  2  1  0  0  0  0
 14 12  1  0  0  0  0
 15 11  1  0  0  0  0
 16 15  1  0  0  0  0
 18 17  1  1  0  0  0
 21 31  1  6  0  0  0
 21 22  1  0  0  0  0
 22 19  1  6  0  0  0
 22 28  1  0  0  0  0
 23 21  1  0  0  0  0
 23 26  1  0  0  0  0
 25 26  1  0  0  0  0
 25 20  1  0  0  0  0
 26 29  1  1  0  0  0
 26 27  1  0  0  0  0
 28 27  1  1  0  0  0
 28 24  1  0  0  0  0
 30 20  1  1  0  0  0
 30 28  1  0  0  0  0
 30 24  1  0  0  0  0
 32 34  1  6  0  0  0
 32 31  1  0  0  0  0
 33 34  2  0  0  0  0
 34 35  1  0  0  0  0
 36 41  1  6  0  0  0
 36 32  1  0  0  0  0
 37 36  1  0  0  0  0
 38 39  1  0  0  0  0
 38 37  1  0  0  0  0
 40 38  2  0  0  0  0
 43 41  1  0  0  0  0
 43 42  1  0  0  0  0
 44 43  1  0  0  0  0
 44 42  1  0  0  0  0
 46 47  1  0  0  0  0
 46 45  1  0  0  0  0
 47 50  1  6  0  0  0
 48 46  1  0  0  0  0
 48 47  1  0  0  0  0
 48 57  1  1  0  0  0
 49 48  1  0  0  0  0
 49 47  1  0  0  0  0
 50 52  1  0  0  0  0
 52 51  1  6  0  0  0
 52 53  1  0  0  0  0
 53 55  1  0  0  0  0
 54 53  2  0  0  0  0
 55 56  1  0  0  0  0
 58 59  1  6  0  0  0
 58 57  1  0  0  0  0
 58 60  1  0  0  0  0
 60 61  1  0  0  0  0
 61 63  1  0  0  0  0
 63 62  1  0  0  0  0
 64 63  1  0  0  0  0
M  END
>  <MODEL>
2

>  <REMARK>
 VINA RESULT:      -6.3      1.593      2.384
  Name = 
  21 active torsions:
  status: ('A' for Active; 'I' for Inactive)
    1  A    between atoms: C_2  and  O_14
    2  A    between atoms: C_5  and  C_44
    3  A    between atoms: C_5  and  C_51
    4  A    between atoms: C_6  and  C_39
    5  A    between atoms: C_6  and  C_51
    6  A    between atoms: C_7  and  O_11
    7  A    between atoms: C_9  and  C_37
    8  A    between atoms: C_9  and  C_54
    9  A    between atoms: C_10  and  C_26
   10  A    between atoms: O_11  and  C_21
   11  A    between atoms: O_14  and  C_38
   12  A    between atoms: O_16  and  C_61
   13  A    between atoms: C_21  and  C_38
   14  A    between atoms: C_21  and  C_47
   15  A    between atoms: C_23  and  C_35
   16  A    between atoms: C_26  and  C_33
   17  A    between atoms: N_32  and  C_35
   18  A    between atoms: C_38  and  C_55
   19  A    between atoms: C_42  and  C_44
   20  A    between atoms: C_52  and  C_55
   21  A    between atoms: C_54  and  C_61
                            x       y       z     vdW  Elec       q    Type
                         _______ _______ _______ _____ _____    ______ ____

>  <TORSDO>
F 21

$$$$
=
 OpenBabel11072409183D

 64 72  0  0  1  0  0  0  0  0999 V2000
  190.1020  176.6000  145.6690 C   0  0  1  0  0  3  0  0  0  0  0  0
  192.1630  177.2040  144.1750 O   0  0  0  0  0  0  0  0  0  0  0  0
  192.4400  176.4960  142.9880 C   0  0  1  0  0  3  0  0  0  0  0  0
  191.3540  179.3960  143.7620 C   0  0  0  0  0  1  0  0  0  0  0  0
  188.3130  177.7210  146.9650 F   0  0  0  0  0  0  0  0  0  0  0  0
  189.0730  176.5810  146.7780 C   0  0  0  0  0  0  0  0  0  0  0  0
  190.3380  177.4650  142.6430 C   0  0  2  0  0  3  0  0  0  0  0  0
  193.0690  175.1360  143.2660 C   0  0  0  0  0  2  0  0  0  0  0  0
  191.1460  176.2760  142.2480 C   0  0  0  0  0  2  0  0  0  0  0  0
  194.1250  175.1530  144.3760 C   0  0  1  0  0  3  0  0  0  0  0  0
  191.7650  174.4930  147.3520 C   0  0  0  0  0  3  0  0  0  0  0  0
  190.0900  177.8760  145.0580 O   0  0  0  0  0  0  0  0  0  0  0  0
  188.4760  175.3460  147.0010 F   0  0  0  0  0  0  0  0  0  0  0  0
  190.9760  177.9390  143.9510 C   0  0  1  0  0  0  0  0  0  0  0  0
  192.2780  174.4190  145.9540 C   0  0  0  0  0  2  0  0  0  0  0  0
  193.5230  175.2800  145.7820 C   0  0  0  0  0  2  0  0  0  0  0  0
  191.0150  175.4890  147.8440 C   0  0  0  0  0  3  0  0  0  0  0  0
  190.5420  176.7390  147.1360 C   0  0  1  0  0  3  0  0  0  0  0  0
  195.0710  173.9580  144.2670 C   0  0  0  0  0  2  0  0  0  0  0  0
  196.9320  170.0510  145.0700 O   0  0  0  0  0  0  0  0  0  0  0  0
  193.8020  171.8100  143.7170 C   0  0  2  0  0  3  0  0  0  0  0  0
  194.4610  172.6640  144.8140 C   0  0  1  0  0  3  0  0  0  0  0  0
  193.1440  170.2100  144.3660 S   0  0  0  0  0  0  0  0  0  0  0  0
  196.7170  172.1990  145.9980 O   0  0  0  0  0  0  0  0  0  0  0  0
  195.8120  169.3230  144.6070 C   0  0  0  0  0  2  0  0  0  0  0  0
  194.5610  169.7030  145.4360 C   0  0  1  0  0  0  0  0  0  0  0  0
  194.8770  170.7330  146.3510 O   0  0  0  0  0  0  0  0  0  0  0  0
  195.4280  171.7960  145.6090 C   0  0  1  0  0  0  0  0  0  0  0  0
  194.1380  168.4810  146.2230 C   0  0  0  0  0  1  0  0  0  0  0  0
  196.6430  171.4080  144.8230 C   0  0  2  0  0  3  0  0  0  0  0  0
  194.6850  171.5650  142.6570 O   0  0  0  0  0  0  0  0  0  0  0  0
  193.9690  170.7690  141.7550 C   0  0  1  0  0  3  0  0  0  0  0  0
  193.4120  172.8840  140.5500 O   0  0  0  0  0  0  0  0  0  0  0  0
  193.0160  171.6310  140.9920 C   0  0  0  0  0  0  0  0  0  0  0  0
  191.8720  171.1990  140.7000 O   0  0  0  0  0  1  0  0  0  0  0  0
  194.9320  170.0770  140.7830 C   0  0  1  0  0  3  0  0  0  0  0  0
  194.5920  170.3680  139.4330 O   0  0  0  0  0  0  0  0  0  0  0  0
  194.4280  169.3620  138.4830 C   0  0  0  0  0  0  0  0  0  0  0  0
  193.5180  168.5070  138.6310 O   0  0  0  0  0  1  0  0  0  0  0  0
  195.2710  169.2840  137.3790 O   0  0  0  0  0  0  0  0  0  0  0  0
  196.3880  170.4560  141.0630 C   0  0  0  0  0  2  0  0  0  0  0  0
  197.9400  172.1570  140.5110 O   0  0  0  0  0  0  0  0  0  0  0  0
  196.9480  171.3640  139.9790 C   0  0  0  0  0  3  0  0  0  0  0  0
  196.7190  172.6760  140.3180 O   0  0  0  0  0  0  0  0  0  0  0  0
  188.8550  177.1310  142.7160 C   0  0  0  0  0  2  0  0  0  0  0  0
  188.1510  177.8320  141.6440 N   0  0  0  0  0  0  0  0  0  0  0  0
  187.2510  176.8320  141.0790 C   0  0  2  0  0  0  0  0  0  0  0  0
  186.7010  178.0320  141.8290 C   0  0  2  0  0  0  0  0  0  0  0  0
  185.8910  177.0820  141.2290 O   0  0  0  0  0  0  0  0  0  0  0  0
  187.4620  176.9570  139.5800 C   0  0  0  0  0  2  0  0  0  0  0  0
  186.3730  176.1530  137.5080 C   0  0  0  0  0  1  0  0  0  0  0  0
  186.9260  175.7330  138.8540 C   0  0  1  0  0  3  0  0  0  0  0  0
  187.9990  174.7130  138.6560 C   0  0  0  0  0  0  0  0  0  0  0  0
  188.4730  174.5310  137.5000 O   0  0  0  0  0  0  0  0  0  0  0  0
  188.4880  173.9930  139.7490 O   0  0  0  0  0  0  0  0  0  0  0  0
  188.5950  172.5780  139.7260 C   0  0  0  0  0  1  0  0  0  0  0  0
  186.3330  177.9400  143.3190 C   0  0  0  0  0  2  0  0  0  0  0  0
  185.4580  179.1100  143.7540 C   0  0  1  0  0  3  0  0  0  0  0  0
  184.1120  178.8220  143.5180 O   0  0  0  0  0  1  0  0  0  0  0  0
  185.6720  179.4320  145.2250 C   0  0  0  0  0  2  0  0  0  0  0  0
  184.4040  179.1480  146.0160 C   0  0  0  0  0  2  0  0  0  0  0  0
  185.7580  177.2650  146.5650 F   0  0  0  0  0  0  0  0  0  0  0  0
  184.5080  177.8250  146.7570 C   0  0  0  0  0  3  0  0  0  0  0  0
  184.2710  178.0030  148.1090 F   0  0  0  0  0  0  0  0  0  0  0  0
  1 12  1  6  0  0  0
  1  6  1  0  0  0  0
  1 18  1  0  0  0  0
  3  9  1  1  0  0  0
  3  8  1  0  0  0  0
  3  2  1  0  0  0  0
  6  5  1  0  0  0  0
  6 13  1  0  0  0  0
  6 18  1  0  0  0  0
  7 45  1  1  0  0  0
  7 14  1  0  0  0  0
  8 10  1  0  0  0  0
  9  7  1  0  0  0  0
 10 19  1  1  0  0  0
 10 16  1  0  0  0  0
 11 17  2  0  0  0  0
 14  4  1  6  0  0  0
 14  2  1  0  0  0  0
 14 12  1  0  0  0  0
 15 11  1  0  0  0  0
 16 15  1  0  0  0  0
 18 17  1  1  0  0  0
 21 31  1  6  0  0  0
 21 23  1  0  0  0  0
 21 22  1  0  0  0  0
 22 19  1  6  0  0  0
 22 28  1  0  0  0  0
 23 26  1  0  0  0  0
 25 20  1  0  0  0  0
 25 26  1  0  0  0  0
 26 29  1  1  0  0  0
 26 27  1  0  0  0  0
 28 24  1  1  0  0  0
 28 27  1  0  0  0  0
 30 20  1  1  0  0  0
 30 28  1  0  0  0  0
 30 24  1  0  0  0  0
 32 34  1  6  0  0  0
 32 31  1  0  0  0  0
 33 34  2  0  0  0  0
 35 34  1  0  0  0  0
 36 41  1  1  0  0  0
 36 32  1  0  0  0  0
 37 36  1  0  0  0  0
 38 39  1  0  0  0  0
 38 37  1  0  0  0  0
 40 38  2  0  0  0  0
 43 44  1  0  0  0  0
 43 42  1  0  0  0  0
 43 41  1  0  0  0  0
 44 42  1  0  0  0  0
 46 48  1  0  0  0  0
 46 45  1  0  0  0  0
 47 50  1  6  0  0  0
 47 49  1  0  0  0  0
 47 46  1  0  0  0  0
 47 48  1  0  0  0  0
 48 57  1  1  0  0  0
 49 48  1  0  0  0  0
 52 51  1  6  0  0  0
 52 50  1  0  0  0  0
 53 52  1  0  0  0  0
 53 55  1  0  0  0  0
 54 53  2  0  0  0  0
 56 55  1  0  0  0  0
 57 58  1  0  0  0  0
 58 59  1  1  0  0  0
 58 60  1  0  0  0  0
 60 61  1  0  0  0  0
 61 63  1  0  0  0  0
 62 63  1  0  0  0  0
 63 64  1  0  0  0  0
M  END
>  <MODEL>
3

>  <REMARK>
 VINA RESULT:      -5.5      0.982      1.985
  Name = 
  21 active torsions:
  status: ('A' for Active; 'I' for Inactive)
    1  A    between atoms: C_2  and  O_14
    2  A    between atoms: C_5  and  C_44
    3  A    between atoms: C_5  and  C_51
    4  A    between atoms: C_6  and  C_39
    5  A    between atoms: C_6  and  C_51
    6  A    between atoms: C_7  and  O_11
    7  A    between atoms: C_9  and  C_37
    8  A    between atoms: C_9  and  C_54
    9  A    between atoms: C_10  and  C_26
   10  A    between atoms: O_11  and  C_21
   11  A    between atoms: O_14  and  C_38
   12  A    between atoms: O_16  and  C_61
   13  A    between atoms: C_21  and  C_38
   14  A    between atoms: C_21  and  C_47
   15  A    between atoms: C_23  and  C_35
   16  A    between atoms: C_26  and  C_33
   17  A    between atoms: N_32  and  C_35
   18  A    between atoms: C_38  and  C_55
   19  A    between atoms: C_42  and  C_44
   20  A    between atoms: C_52  and  C_55
   21  A    between atoms: C_54  and  C_61
                            x       y       z     vdW  Elec       q    Type
                         _______ _______ _______ _____ _____    ______ ____

>  <TORSDO>
F 21

$$$$
=
 OpenBabel11072409183D

 64 72  0  0  1  0  0  0  0  0999 V2000
  195.6340  172.3220  144.3970 C   0  0  1  0  0  3  0  0  0  0  0  0
  193.1600  171.5860  144.8210 O   0  0  0  0  0  0  0  0  0  0  0  0
  192.1620  171.7740  143.8440 C   0  0  1  0  0  3  0  0  0  0  0  0
  193.7700  169.3070  145.0760 C   0  0  0  0  0  1  0  0  0  0  0  0
  197.9410  171.5030  144.7770 F   0  0  0  0  0  0  0  0  0  0  0  0
  197.1140  172.5900  144.5620 C   0  0  0  0  0  0  0  0  0  0  0  0
  193.7230  170.3410  142.8530 C   0  0  2  0  0  3  0  0  0  0  0  0
  191.6950  173.2230  143.7730 C   0  0  0  0  0  2  0  0  0  0  0  0
  192.7280  171.3950  142.5000 C   0  0  0  0  0  2  0  0  0  0  0  0
  191.5190  173.8880  145.1430 C   0  0  1  0  0  3  0  0  0  0  0  0
  195.1110  175.2300  145.5370 C   0  0  0  0  0  3  0  0  0  0  0  0
  195.4030  170.9350  144.5520 O   0  0  0  0  0  0  0  0  0  0  0  0
  197.6030  173.6540  143.8130 F   0  0  0  0  0  0  0  0  0  0  0  0
  194.0420  170.5980  144.3270 C   0  0  1  0  0  0  0  0  0  0  0  0
  193.8600  174.8180  144.8380 C   0  0  0  0  0  2  0  0  0  0  0  0
  192.8500  174.2390  145.8210 C   0  0  0  0  0  2  0  0  0  0  0  0
  196.0990  174.4000  145.9000 C   0  0  0  0  0  3  0  0  0  0  0  0
  196.1740  172.9010  145.7160 C   0  0  1  0  0  3  0  0  0  0  0  0
  190.5850  175.0950  145.0620 C   0  0  0  0  0  2  0  0  0  0  0  0
  189.9310  178.0820  141.8960 O   0  0  0  0  0  0  0  0  0  0  0  0
  188.2280  175.4970  144.1630 C   0  0  2  0  0  3  0  0  0  0  0  0
  189.6650  175.0560  143.8380 C   0  0  1  0  0  3  0  0  0  0  0  0
  187.1430  175.5320  142.6680 S   0  0  0  0  0  0  0  0  0  0  0  0
  191.4550  176.4180  142.5530 O   0  0  0  0  0  0  0  0  0  0  0  0
  188.5400  177.8350  141.8270 C   0  0  0  0  0  2  0  0  0  0  0  0
  188.2890  176.3500  141.4720 C   0  0  1  0  0  0  0  0  0  0  0  0
  189.5150  175.6490  141.4110 O   0  0  0  0  0  0  0  0  0  0  0  0
  190.1720  175.8500  142.6400 C   0  0  1  0  0  0  0  0  0  0  0  0
  187.6460  176.3030  140.1030 C   0  0  0  0  0  1  0  0  0  0  0  0
  190.4140  177.2930  142.9590 C   0  0  2  0  0  3  0  0  0  0  0  0
  188.2050  176.7470  144.7950 O   0  0  0  0  0  0  0  0  0  0  0  0
  187.1350  176.6880  145.6940 C   0  0  1  0  0  3  0  0  0  0  0  0
  188.5110  177.5930  147.5710 O   0  0  0  0  0  0  0  0  0  0  0  0
  187.6700  176.6030  147.0870 C   0  0  0  0  0  0  0  0  0  0  0  0
  187.3150  175.6610  147.8410 O   0  0  0  0  0  1  0  0  0  0  0  0
  186.2580  177.9390  145.5540 C   0  0  1  0  0  3  0  0  0  0  0  0
  186.6130  178.6830  144.3950 O   0  0  0  0  0  0  0  0  0  0  0  0
  185.6730  179.4270  143.6830 C   0  0  0  0  0  0  0  0  0  0  0  0
  185.5510  180.6570  143.9090 O   0  0  0  0  0  1  0  0  0  0  0  0
  184.8580  178.8170  142.7340 O   0  0  0  0  0  0  0  0  0  0  0  0
  184.7690  177.5860  145.5290 C   0  0  0  0  0  2  0  0  0  0  0  0
  183.6110  178.7860  147.2100 O   0  0  0  0  0  0  0  0  0  0  0  0
  184.1760  177.5610  146.9290 C   0  0  0  0  0  3  0  0  0  0  0  0
  184.8170  178.4900  147.7140 O   0  0  0  0  0  0  0  0  0  0  0  0
  194.9150  170.3630  141.9070 C   0  0  0  0  0  2  0  0  0  0  0  0
  194.5760  171.1560  140.7250 N   0  0  0  0  0  0  0  0  0  0  0  0
  195.8110  171.2050  139.9490 C   0  0  2  0  0  0  0  0  0  0  0  0
  194.6000  170.4500  139.4300 C   0  0  2  0  0  0  0  0  0  0  0  0
  195.7780  170.5730  138.7110 O   0  0  0  0  0  0  0  0  0  0  0  0
  195.9530  172.6720  139.5840 C   0  0  0  0  0  2  0  0  0  0  0  0
  197.8100  173.9920  140.5500 C   0  0  0  0  0  1  0  0  0  0  0  0
  196.4020  173.4880  140.7860 C   0  0  1  0  0  3  0  0  0  0  0  0
  195.4900  174.6480  141.0190 C   0  0  0  0  0  0  0  0  0  0  0  0
  194.2860  174.4350  141.3340 O   0  0  0  0  0  0  0  0  0  0  0  0
  195.9790  175.9520  140.9140 O   0  0  0  0  0  0  0  0  0  0  0  0
  196.5260  176.6380  142.0290 C   0  0  0  0  0  1  0  0  0  0  0  0
  194.4550  168.9350  139.6420 C   0  0  0  0  0  2  0  0  0  0  0  0
  193.0400  168.4570  139.3330 C   0  0  1  0  0  3  0  0  0  0  0  0
  192.3580  168.1670  140.5170 O   0  0  0  0  0  1  0  0  0  0  0  0
  192.2760  169.5000  138.5330 C   0  0  0  0  0  2  0  0  0  0  0  0
  191.0430  169.9510  139.3000 C   0  0  0  0  0  2  0  0  0  0  0  0
  191.2140  171.6290  137.6150 F   0  0  0  0  0  0  0  0  0  0  0  0
  190.4270  171.1880  138.6640 C   0  0  0  0  0  3  0  0  0  0  0  0
  189.1460  170.9180  138.2140 F   0  0  0  0  0  0  0  0  0  0  0  0
  1 12  1  1  0  0  0
  1  6  1  0  0  0  0
  1 18  1  0  0  0  0
  3  9  1  6  0  0  0
  3  2  1  0  0  0  0
  6  5  1  0  0  0  0
  6 18  1  0  0  0  0
  7 45  1  6  0  0  0
  7 14  1  0  0  0  0
  8  3  1  0  0  0  0
  8 10  1  0  0  0  0
  9  7  1  0  0  0  0
 10 19  1  6  0  0  0
 10 16  1  0  0  0  0
 11 17  2  0  0  0  0
 13  6  1  0  0  0  0
 14 12  1  0  0  0  0
 14  2  1  0  0  0  0
 14  4  1  1  0  0  0
 15 11  1  0  0  0  0
 15 16  1  0  0  0  0
 18 17  1  6  0  0  0
 21 31  1  6  0  0  0
 22 21  1  0  0  0  0
 22 19  1  1  0  0  0
 23 21  1  0  0  0  0
 24 28  1  0  0  0  0
 24 30  1  0  0  0  0
 25 20  1  0  0  0  0
 26 29  1  6  0  0  0
 26 25  1  0  0  0  0
 26 23  1  0  0  0  0
 27 26  1  0  0  0  0
 28 27  1  6  0  0  0
 28 30  1  0  0  0  0
 28 22  1  0  0  0  0
 30 20  1  6  0  0  0
 32 31  1  6  0  0  0
 32 34  1  0  0  0  0
 34 33  2  0  0  0  0
 34 35  1  0  0  0  0
 36 41  1  6  0  0  0
 36 32  1  0  0  0  0
 37 36  1  0  0  0  0
 38 39  1  0  0  0  0
 38 37  1  0  0  0  0
 40 38  2  0  0  0  0
 41 43  1  0  0  0  0
 42 44  1  0  0  0  0
 43 42  1  0  0  0  0
 43 44  1  0  0  0  0
 46 45  1  0  0  0  0
 47 50  1  6  0  0  0
 47 46  1  0  0  0  0
 48 57  1  1  0  0  0
 48 47  1  0  0  0  0
 48 46  1  0  0  0  0
 49 48  1  0  0  0  0
 49 47  1  0  0  0  0
 50 52  1  0  0  0  0
 52 51  1  6  0  0  0
 52 53  1  0  0  0  0
 53 54  2  0  0  0  0
 55 53  1  0  0  0  0
 55 56  1  0  0  0  0
 58 57  1  0  0  0  0
 58 59  1  1  0  0  0
 60 61  1  0  0  0  0
 60 58  1  0  0  0  0
 62 63  1  0  0  0  0
 63 61  1  0  0  0  0
 64 63  1  0  0  0  0
M  END
>  <MODEL>
4

>  <REMARK>
 VINA RESULT:      -5.4      3.650      9.845
  Name = 
  21 active torsions:
  status: ('A' for Active; 'I' for Inactive)
    1  A    between atoms: C_2  and  O_14
    2  A    between atoms: C_5  and  C_44
    3  A    between atoms: C_5  and  C_51
    4  A    between atoms: C_6  and  C_39
    5  A    between atoms: C_6  and  C_51
    6  A    between atoms: C_7  and  O_11
    7  A    between atoms: C_9  and  C_37
    8  A    between atoms: C_9  and  C_54
    9  A    between atoms: C_10  and  C_26
   10  A    between atoms: O_11  and  C_21
   11  A    between atoms: O_14  and  C_38
   12  A    between atoms: O_16  and  C_61
   13  A    between atoms: C_21  and  C_38
   14  A    between atoms: C_21  and  C_47
   15  A    between atoms: C_23  and  C_35
   16  A    between atoms: C_26  and  C_33
   17  A    between atoms: N_32  and  C_35
   18  A    between atoms: C_38  and  C_55
   19  A    between atoms: C_42  and  C_44
   20  A    between atoms: C_52  and  C_55
   21  A    between atoms: C_54  and  C_61
                            x       y       z     vdW  Elec       q    Type
                         _______ _______ _______ _____ _____    ______ ____

>  <TORSDO>
F 21

$$$$
=
 OpenBabel11072409183D

 64 72  0  0  1  0  0  0  0  0999 V2000
  193.1360  170.4500  139.8250 C   0  0  1  0  0  3  0  0  0  0  0  0
  192.1170  172.7930  139.2640 O   0  0  0  0  0  0  0  0  0  0  0  0
  192.4560  173.9380  140.0130 C   0  0  1  0  0  3  0  0  0  0  0  0
  193.0740  172.8070  137.0930 C   0  0  0  0  0  1  0  0  0  0  0  0
  194.0600  168.4640  138.6670 F   0  0  0  0  0  0  0  0  0  0  0  0
  193.4710  168.9740  139.8090 C   0  0  0  0  0  0  0  0  0  0  0  0
  194.4690  173.2100  139.0690 C   0  0  2  0  0  3  0  0  0  0  0  0
  191.7410  173.9740  141.3590 C   0  0  0  0  0  2  0  0  0  0  0  0
  193.9410  173.9230  140.2680 C   0  0  0  0  0  2  0  0  0  0  0  0
  190.2710  173.5450  141.2950 C   0  0  1  0  0  3  0  0  0  0  0  0
  190.8070  169.7690  141.8600 C   0  0  0  0  0  3  0  0  0  0  0  0
  193.4830  171.0090  138.5720 O   0  0  0  0  0  0  0  0  0  0  0  0
  193.8470  168.4470  141.0380 F   0  0  0  0  0  0  0  0  0  0  0  0
  193.2730  172.4120  138.5440 C   0  0  1  0  0  0  0  0  0  0  0  0
  191.0610  171.2330  141.9820 C   0  0  0  0  0  2  0  0  0  0  0  0
  190.0900  172.0310  141.1210 C   0  0  0  0  0  2  0  0  0  0  0  0
  191.2320  168.9960  140.8510 C   0  0  0  0  0  3  0  0  0  0  0  0
  192.0240  169.4070  139.6300 C   0  0  1  0  0  3  0  0  0  0  0  0
  189.4810  174.0800  142.4890 C   0  0  0  0  0  2  0  0  0  0  0  0
  189.4880  174.1660  146.8900 O   0  0  0  0  0  0  0  0  0  0  0  0
  189.7900  176.2990  143.7140 C   0  0  2  0  0  3  0  0  0  0  0  0
  190.3450  174.8870  143.4630 C   0  0  1  0  0  3  0  0  0  0  0  0
  190.7860  177.2400  144.9540 S   0  0  0  0  0  0  0  0  0  0  0  0
  190.2550  172.8710  145.0860 O   0  0  0  0  0  0  0  0  0  0  0  0
  189.7030  175.5630  146.9500 C   0  0  0  0  0  2  0  0  0  0  0  0
  191.0240  175.9210  146.2250 C   0  0  1  0  0  0  0  0  0  0  0  0
  191.5840  174.7660  145.6340 O   0  0  0  0  0  0  0  0  0  0  0  0
  190.5970  174.2040  144.8000 C   0  0  1  0  0  0  0  0  0  0  0  0
  191.9950  176.4420  147.2630 C   0  0  0  0  0  1  0  0  0  0  0  0
  189.3320  173.8560  145.5240 C   0  0  2  0  0  3  0  0  0  0  0  0
  188.4480  176.2600  144.1150 O   0  0  0  0  0  0  0  0  0  0  0  0
  187.9300  177.5210  143.7990 C   0  0  1  0  0  3  0  0  0  0  0  0
  188.3770  178.5930  141.5890 O   0  0  0  0  0  0  0  0  0  0  0  0
  187.7280  177.6110  142.3210 C   0  0  0  0  0  0  0  0  0  0  0  0
  187.0130  176.7620  141.7300 O   0  0  0  0  0  1  0  0  0  0  0  0
  186.5930  177.7380  144.5180 C   0  0  1  0  0  3  0  0  0  0  0  0
  186.6940  177.3990  145.8960 O   0  0  0  0  0  0  0  0  0  0  0  0
  185.6690  177.6800  146.7980 C   0  0  0  0  0  0  0  0  0  0  0  0
  185.8690  178.4980  147.7320 O   0  0  0  0  0  1  0  0  0  0  0  0
  184.4320  177.0530  146.6860 O   0  0  0  0  0  0  0  0  0  0  0  0
  186.0880  179.1730  144.3540 C   0  0  0  0  0  2  0  0  0  0  0  0
  184.2750  177.9430  143.4580 O   0  0  0  0  0  0  0  0  0  0  0  0
  184.6550  179.2080  143.8470 C   0  0  0  0  0  3  0  0  0  0  0  0
  184.6280  178.8360  142.5240 O   0  0  0  0  0  0  0  0  0  0  0  0
  195.7070  172.3930  139.4080 C   0  0  0  0  0  2  0  0  0  0  0  0
  196.9010  173.1550  139.0430 N   0  0  0  0  0  0  0  0  0  0  0  0
  196.5020  174.5520  139.1800 C   0  0  2  0  0  0  0  0  0  0  0  0
  197.5300  173.9460  140.1170 C   0  0  2  0  0  0  0  0  0  0  0  0
  197.1550  175.2780  140.1690 O   0  0  0  0  0  0  0  0  0  0  0  0
  196.9920  175.1980  137.8960 C   0  0  0  0  0  2  0  0  0  0  0  0
  195.1900  175.5310  136.2330 C   0  0  0  0  0  1  0  0  0  0  0  0
  196.2930  174.5980  136.6870 C   0  0  1  0  0  3  0  0  0  0  0  0
  197.2540  174.3790  135.5640 C   0  0  0  0  0  0  0  0  0  0  0  0
  197.9200  175.3550  135.1210 O   0  0  0  0  0  0  0  0  0  0  0  0
  197.4290  173.0980  135.0350 O   0  0  0  0  0  0  0  0  0  0  0  0
  196.7980  171.9610  135.6030 C   0  0  0  0  0  1  0  0  0  0  0  0
  197.1270  173.3970  141.4950 C   0  0  0  0  0  2  0  0  0  0  0  0
  197.6880  174.2510  142.6270 C   0  0  1  0  0  3  0  0  0  0  0  0
  196.8130  175.2980  142.9240 O   0  0  0  0  0  1  0  0  0  0  0  0
  197.9380  173.4120  143.8700 C   0  0  0  0  0  2  0  0  0  0  0  0
  197.0660  172.1670  143.8490 C   0  0  0  0  0  2  0  0  0  0  0  0
  194.6840  172.0720  143.8410 F   0  0  0  0  0  0  0  0  0  0  0  0
  195.7780  172.3900  144.6260 C   0  0  0  0  0  3  0  0  0  0  0  0
  195.7680  171.6290  145.7820 F   0  0  0  0  0  0  0  0  0  0  0  0
  1 12  1  6  0  0  0
  2  3  1  0  0  0  0
  3  9  1  1  0  0  0
  3  8  1  0  0  0  0
  5  6  1  0  0  0  0
  6  1  1  0  0  0  0
  6 13  1  0  0  0  0
  7 45  1  1  0  0  0
  7  9  1  0  0  0  0
 10  8  1  0  0  0  0
 10 19  1  1  0  0  0
 11 15  1  0  0  0  0
 14  4  1  6  0  0  0
 14 12  1  0  0  0  0
 14  7  1  0  0  0  0
 14  2  1  0  0  0  0
 16 10  1  0  0  0  0
 16 15  1  0  0  0  0
 17 11  2  0  0  0  0
 18  6  1  0  0  0  0
 18  1  1  0  0  0  0
 18 17  1  1  0  0  0
 20 25  1  0  0  0  0
 21 31  1  1  0  0  0
 21 23  1  0  0  0  0
 22 19  1  6  0  0  0
 22 21  1  0  0  0  0
 22 28  1  0  0  0  0
 23 26  1  0  0  0  0
 26 25  1  0  0  0  0
 26 29  1  1  0  0  0
 27 26  1  0  0  0  0
 28 24  1  6  0  0  0
 28 30  1  0  0  0  0
 28 27  1  0  0  0  0
 30 24  1  1  0  0  0
 30 20  1  0  0  0  0
 32 34  1  6  0  0  0
 32 31  1  0  0  0  0
 32 36  1  0  0  0  0
 33 34  2  0  0  0  0
 35 34  1  0  0  0  0
 36 41  1  1  0  0  0
 36 37  1  0  0  0  0
 37 38  1  0  0  0  0
 38 39  1  0  0  0  0
 40 38  2  0  0  0  0
 42 43  1  0  0  0  0
 43 41  1  0  0  0  0
 44 42  1  0  0  0  0
 44 43  1  0  0  0  0
 46 47  1  0  0  0  0
 46 45  1  0  0  0  0
 46 48  1  0  0  0  0
 47 50  1  6  0  0  0
 47 48  1  0  0  0  0
 47 49  1  0  0  0  0
 48 49  1  0  0  0  0
 48 57  1  1  0  0  0
 52 51  1  6  0  0  0
 52 50  1  0  0  0  0
 53 52  1  0  0  0  0
 54 53  2  0  0  0  0
 55 53  1  0  0  0  0
 55 56  1  0  0  0  0
 57 58  1  0  0  0  0
 58 59  1  1  0  0  0
 58 60  1  0  0  0  0
 61 60  1  0  0  0  0
 61 63  1  0  0  0  0
 62 63  1  0  0  0  0
 63 64  1  0  0  0  0
M  END
>  <MODEL>
5

>  <REMARK>
 VINA RESULT:      -5.0      3.873      9.647
  Name = 
  21 active torsions:
  status: ('A' for Active; 'I' for Inactive)
    1  A    between atoms: C_2  and  O_14
    2  A    between atoms: C_5  and  C_44
    3  A    between atoms: C_5  and  C_51
    4  A    between atoms: C_6  and  C_39
    5  A    between atoms: C_6  and  C_51
    6  A    between atoms: C_7  and  O_11
    7  A    between atoms: C_9  and  C_37
    8  A    between atoms: C_9  and  C_54
    9  A    between atoms: C_10  and  C_26
   10  A    between atoms: O_11  and  C_21
   11  A    between atoms: O_14  and  C_38
   12  A    between atoms: O_16  and  C_61
   13  A    between atoms: C_21  and  C_38
   14  A    between atoms: C_21  and  C_47
   15  A    between atoms: C_23  and  C_35
   16  A    between atoms: C_26  and  C_33
   17  A    between atoms: N_32  and  C_35
   18  A    between atoms: C_38  and  C_55
   19  A    between atoms: C_42  and  C_44
   20  A    between atoms: C_52  and  C_55
   21  A    between atoms: C_54  and  C_61
                            x       y       z     vdW  Elec       q    Type
                         _______ _______ _______ _____ _____    ______ ____

>  <TORSDO>
F 21

$$$$
=
 OpenBabel11072409183D

 64 72  0  0  1  0  0  0  0  0999 V2000
  192.4240  170.1910  139.4860 C   0  0  1  0  0  3  0  0  0  0  0  0
  190.2630  171.6530  139.3050 O   0  0  0  0  0  0  0  0  0  0  0  0
  190.3190  173.0580  139.3980 C   0  0  1  0  0  3  0  0  0  0  0  0
  189.8110  170.9010  137.1000 C   0  0  0  0  0  1  0  0  0  0  0  0
  193.4590  168.2070  138.4210 F   0  0  0  0  0  0  0  0  0  0  0  0
  193.3810  169.0180  139.5380 C   0  0  0  0  0  0  0  0  0  0  0  0
  191.6050  172.5190  137.5190 C   0  0  2  0  0  3  0  0  0  0  0  0
  190.4920  173.5310  140.8360 C   0  0  0  0  0  2  0  0  0  0  0  0
  191.4990  173.5450  138.5960 C   0  0  0  0  0  2  0  0  0  0  0  0
  189.6420  172.7600  141.8510 C   0  0  1  0  0  3  0  0  0  0  0  0
  192.1740  169.9610  142.6340 C   0  0  0  0  0  3  0  0  0  0  0  0
  191.7470  170.1710  138.2430 O   0  0  0  0  0  0  0  0  0  0  0  0
  194.5360  169.2390  140.2760 F   0  0  0  0  0  0  0  0  0  0  0  0
  190.8910  171.2920  138.0910 C   0  0  1  0  0  0  0  0  0  0  0  0
  191.6910  171.3240  142.2700 C   0  0  0  0  0  2  0  0  0  0  0  0
  190.1740  171.3500  142.1400 C   0  0  0  0  0  2  0  0  0  0  0  0
  192.3360  168.9460  141.7740 C   0  0  0  0  0  3  0  0  0  0  0  0
  192.0600  168.9300  140.2870 C   0  0  1  0  0  3  0  0  0  0  0  0
  189.4360  173.5650  143.1340 C   0  0  0  0  0  2  0  0  0  0  0  0
  191.1540  174.9250  146.9520 O   0  0  0  0  0  0  0  0  0  0  0  0
  190.1170  176.0110  143.4210 C   0  0  2  0  0  3  0  0  0  0  0  0
  190.5810  174.5440  143.4130 C   0  0  1  0  0  3  0  0  0  0  0  0
  191.4810  177.1830  143.8430 S   0  0  0  0  0  0  0  0  0  0  0  0
  191.2040  173.1010  145.4720 O   0  0  0  0  0  0  0  0  0  0  0  0
  191.3240  176.2550  146.5040 C   0  0  0  0  0  2  0  0  0  0  0  0
  192.2440  176.2740  145.2580 C   0  0  1  0  0  0  0  0  0  0  0  0
  192.5710  174.9540  144.8740 O   0  0  0  0  0  0  0  0  0  0  0  0
  191.3590  174.2600  144.6910 C   0  0  1  0  0  0  0  0  0  0  0  0
  193.5220  176.9900  145.6380 C   0  0  0  0  0  1  0  0  0  0  0  0
  190.4900  174.2450  145.9110 C   0  0  2  0  0  3  0  0  0  0  0  0
  189.0390  176.2030  144.2950 O   0  0  0  0  0  0  0  0  0  0  0  0
  188.2150  177.1430  143.6660 C   0  0  1  0  0  3  0  0  0  0  0  0
  186.8220  175.2580  142.8030 O   0  0  0  0  0  1  0  0  0  0  0  0
  187.4540  176.4700  142.5690 C   0  0  0  0  0  0  0  0  0  0  0  0
  187.3390  177.0280  141.4480 O   0  0  0  0  0  0  0  0  0  0  0  0
  187.2340  177.7470  144.6780 C   0  0  1  0  0  3  0  0  0  0  0  0
  186.3560  178.6720  144.0480 O   0  0  0  0  0  0  0  0  0  0  0  0
  185.0560  178.8800  144.5060 C   0  0  0  0  0  0  0  0  0  0  0  0
  184.0820  178.5650  143.7760 O   0  0  0  0  0  0  0  0  0  0  0  0
  184.8250  179.4460  145.7560 O   0  0  0  0  0  1  0  0  0  0  0  0
  186.4380  176.6650  145.4110 C   0  0  0  0  0  2  0  0  0  0  0  0
  186.0930  177.4870  147.6040 O   0  0  0  0  0  0  0  0  0  0  0  0
  186.8300  176.5780  146.8780 C   0  0  0  0  0  3  0  0  0  0  0  0
  187.3610  177.7800  147.2820 O   0  0  0  0  0  0  0  0  0  0  0  0
  193.0520  172.3030  137.0980 C   0  0  0  0  0  2  0  0  0  0  0  0
  193.2210  172.7420  135.7130 N   0  0  0  0  0  0  0  0  0  0  0  0
  193.7140  174.1110  135.8180 C   0  0  2  0  0  0  0  0  0  0  0  0
  194.6020  173.0080  135.2710 C   0  0  2  0  0  0  0  0  0  0  0  0
  195.0020  174.3320  135.3430 O   0  0  0  0  0  0  0  0  0  0  0  0
  192.8470  174.8860  134.8410 C   0  0  0  0  0  2  0  0  0  0  0  0
  192.2300  177.2630  135.1460 C   0  0  0  0  0  1  0  0  0  0  0  0
  191.9250  175.8440  135.5780 C   0  0  1  0  0  3  0  0  0  0  0  0
  190.4910  175.5340  135.2950 C   0  0  0  0  0  0  0  0  0  0  0  0
  190.1730  174.3720  134.9190 O   0  0  0  0  0  0  0  0  0  0  0  0
  189.5160  176.5180  135.4740 O   0  0  0  0  0  0  0  0  0  0  0  0
  188.1750  176.3290  135.0510 C   0  0  0  0  0  1  0  0  0  0  0  0
  195.6060  172.2720  136.1730 C   0  0  0  0  0  2  0  0  0  0  0  0
  197.0330  172.4050  135.6520 C   0  0  1  0  0  3  0  0  0  0  0  0
  197.7750  173.2500  136.4790 O   0  0  0  0  0  1  0  0  0  0  0  0
  197.7060  171.0450  135.5580 C   0  0  0  0  0  2  0  0  0  0  0  0
  196.8940  170.1150  134.6690 C   0  0  0  0  0  2  0  0  0  0  0  0
  197.1550  168.7020  136.5710 F   0  0  0  0  0  0  0  0  0  0  0  0
  196.3630  168.9310  135.4600 C   0  0  0  0  0  3  0  0  0  0  0  0
  195.0530  169.1530  135.8510 F   0  0  0  0  0  0  0  0  0  0  0  0
  1 12  1  6  0  0  0
  1  6  1  0  0  0  0
  1 18  1  0  0  0  0
  2  3  1  0  0  0  0
  3  9  1  6  0  0  0
  3  8  1  0  0  0  0
  5  6  1  0  0  0  0
  6 13  1  0  0  0  0
  6 18  1  0  0  0  0
  7 45  1  1  0  0  0
  7 14  1  0  0  0  0
  7  9  1  0  0  0  0
  8 10  1  0  0  0  0
 10 16  1  0  0  0  0
 10 19  1  1  0  0  0
 14  4  1  6  0  0  0
 14 12  1  0  0  0  0
 14  2  1  0  0  0  0
 15 11  1  0  0  0  0
 16 15  1  0  0  0  0
 17 11  2  0  0  0  0
 18 17  1  1  0  0  0
 21 23  1  0  0  0  0
 21 31  1  1  0  0  0
 22 19  1  1  0  0  0
 22 21  1  0  0  0  0
 22 28  1  0  0  0  0
 23 26  1  0  0  0  0
 25 20  1  0  0  0  0
 26 29  1  1  0  0  0
 26 25  1  0  0  0  0
 27 26  1  0  0  0  0
 28 27  1  1  0  0  0
 28 24  1  0  0  0  0
 28 30  1  0  0  0  0
 30 24  1  1  0  0  0
 30 20  1  0  0  0  0
 32 34  1  6  0  0  0
 32 31  1  0  0  0  0
 32 36  1  0  0  0  0
 34 33  1  0  0  0  0
 35 34  2  0  0  0  0
 36 41  1  6  0  0  0
 37 38  1  0  0  0  0
 37 36  1  0  0  0  0
 38 40  1  0  0  0  0
 39 38  2  0  0  0  0
 41 43  1  0  0  0  0
 43 44  1  0  0  0  0
 43 42  1  0  0  0  0
 44 42  1  0  0  0  0
 46 47  1  0  0  0  0
 46 45  1  0  0  0  0
 47 50  1  6  0  0  0
 48 49  1  0  0  0  0
 48 46  1  0  0  0  0
 48 47  1  0  0  0  0
 48 57  1  1  0  0  0
 49 47  1  0  0  0  0
 50 52  1  0  0  0  0
 52 51  1  6  0  0  0
 53 55  1  0  0  0  0
 53 52  1  0  0  0  0
 54 53  2  0  0  0  0
 56 55  1  0  0  0  0
 58 57  1  0  0  0  0
 58 59  1  1  0  0  0
 60 58  1  0  0  0  0
 61 63  1  0  0  0  0
 61 60  1  0  0  0  0
 63 64  1  0  0  0  0
 63 62  1  0  0  0  0
M  END
>  <MODEL>
6

>  <REMARK>
 VINA RESULT:      -4.9      4.538     10.041
  Name = 
  21 active torsions:
  status: ('A' for Active; 'I' for Inactive)
    1  A    between atoms: C_2  and  O_14
    2  A    between atoms: C_5  and  C_44
    3  A    between atoms: C_5  and  C_51
    4  A    between atoms: C_6  and  C_39
    5  A    between atoms: C_6  and  C_51
    6  A    between atoms: C_7  and  O_11
    7  A    between atoms: C_9  and  C_37
    8  A    between atoms: C_9  and  C_54
    9  A    between atoms: C_10  and  C_26
   10  A    between atoms: O_11  and  C_21
   11  A    between atoms: O_14  and  C_38
   12  A    between atoms: O_16  and  C_61
   13  A    between atoms: C_21  and  C_38
   14  A    between atoms: C_21  and  C_47
   15  A    between atoms: C_23  and  C_35
   16  A    between atoms: C_26  and  C_33
   17  A    between atoms: N_32  and  C_35
   18  A    between atoms: C_38  and  C_55
   19  A    between atoms: C_42  and  C_44
   20  A    between atoms: C_52  and  C_55
   21  A    between atoms: C_54  and  C_61
                            x       y       z     vdW  Elec       q    Type
                         _______ _______ _______ _____ _____    ______ ____

>  <TORSDO>
F 21

$$$$
=
 OpenBabel11072409183D

 64 72  0  0  1  0  0  0  0  0999 V2000
  192.4320  172.7970  143.9570 C   0  0  1  0  0  3  0  0  0  0  0  0
  192.2100  175.4020  144.0020 O   0  0  0  0  0  0  0  0  0  0  0  0
  192.5750  176.1500  145.1400 C   0  0  1  0  0  3  0  0  0  0  0  0
  193.7380  175.6700  142.2060 C   0  0  0  0  0  1  0  0  0  0  0  0
  193.1570  170.9870  142.4270 F   0  0  0  0  0  0  0  0  0  0  0  0
  192.3960  171.3470  143.5250 C   0  0  0  0  0  0  0  0  0  0  0  0
  194.5440  175.0910  144.4480 C   0  0  2  0  0  3  0  0  0  0  0  0
  191.5260  176.0640  146.2430 C   0  0  0  0  0  2  0  0  0  0  0  0
  193.8710  175.6020  145.6780 C   0  0  0  0  0  2  0  0  0  0  0  0
  190.0820  176.1520  145.7360 C   0  0  1  0  0  3  0  0  0  0  0  0
  189.5160  172.3880  145.1210 C   0  0  0  0  0  3  0  0  0  0  0  0
  193.2540  173.5190  143.0600 O   0  0  0  0  0  0  0  0  0  0  0  0
  192.2570  170.4310  144.5600 F   0  0  0  0  0  0  0  0  0  0  0  0
  193.4010  174.8750  143.4530 C   0  0  1  0  0  0  0  0  0  0  0  0
  190.0630  173.6140  145.7700 C   0  0  0  0  0  2  0  0  0  0  0  0
  189.6070  174.8700  145.0380 C   0  0  0  0  0  2  0  0  0  0  0  0
  190.0220  171.8060  144.0260 C   0  0  0  0  0  3  0  0  0  0  0  0
  191.2120  172.2450  143.2010 C   0  0  1  0  0  3  0  0  0  0  0  0
  189.1260  176.5840  146.8480 C   0  0  0  0  0  2  0  0  0  0  0  0
  184.8280  176.4430  145.9120 O   0  0  0  0  0  0  0  0  0  0  0  0
  188.2070  177.9490  144.8950 C   0  0  2  0  0  3  0  0  0  0  0  0
  188.1700  177.6980  146.4120 C   0  0  1  0  0  3  0  0  0  0  0  0
  186.9910  179.2330  144.3600 S   0  0  0  0  0  0  0  0  0  0  0  0
  186.2990  176.5010  147.7430 O   0  0  0  0  0  0  0  0  0  0  0  0
  184.9420  177.3500  144.8330 C   0  0  0  0  0  2  0  0  0  0  0  0
  185.5200  178.6950  145.3400 C   0  0  1  0  0  0  0  0  0  0  0  0
  185.8540  178.5970  146.7100 O   0  0  0  0  0  0  0  0  0  0  0  0
  186.7250  177.4990  146.8500 C   0  0  1  0  0  0  0  0  0  0  0  0
  184.4450  179.7480  145.1860 C   0  0  0  0  0  1  0  0  0  0  0  0
  186.1420  176.2080  146.3640 C   0  0  2  0  0  3  0  0  0  0  0  0
  187.9960  176.7670  144.1730 O   0  0  0  0  0  0  0  0  0  0  0  0
  187.8610  177.1660  142.8390 C   0  0  1  0  0  3  0  0  0  0  0  0
  189.4720  178.7560  141.7840 O   0  0  0  0  0  0  0  0  0  0  0  0
  189.2110  177.4900  142.2860 C   0  0  0  0  0  0  0  0  0  0  0  0
  190.1300  176.6320  142.3250 O   0  0  0  0  0  1  0  0  0  0  0  0
  187.2200  176.0420  142.0140 C   0  0  1  0  0  3  0  0  0  0  0  0
  187.0830  176.4250  140.6510 O   0  0  0  0  0  0  0  0  0  0  0  0
  186.1210  177.3470  140.2400 C   0  0  0  0  0  0  0  0  0  0  0  0
  185.8210  177.4330  139.0220 O   0  0  0  0  0  0  0  0  0  0  0  0
  185.5020  178.1860  141.1620 O   0  0  0  0  0  1  0  0  0  0  0  0
  188.0100  174.7370  142.1270 C   0  0  0  0  0  2  0  0  0  0  0  0
  188.5850  172.8010  140.8910 O   0  0  0  0  0  0  0  0  0  0  0  0
  188.3100  174.1440  140.7590 C   0  0  0  0  0  3  0  0  0  0  0  0
  189.5980  173.6650  140.7400 O   0  0  0  0  0  0  0  0  0  0  0  0
  195.3960  173.8660  144.7490 C   0  0  0  0  0  2  0  0  0  0  0  0
  195.9200  173.3260  143.4950 N   0  0  0  0  0  0  0  0  0  0  0  0
  197.3640  173.2600  143.6970 C   0  0  2  0  0  0  0  0  0  0  0  0
  196.5420  171.9900  143.5630 C   0  0  2  0  0  0  0  0  0  0  0  0
  197.9200  171.9850  143.7040 O   0  0  0  0  0  0  0  0  0  0  0  0
  197.9370  173.8810  142.4360 C   0  0  0  0  0  2  0  0  0  0  0  0
  197.6830  176.3410  142.5260 C   0  0  0  0  0  1  0  0  0  0  0  0
  197.0910  175.0580  141.9800 C   0  0  1  0  0  3  0  0  0  0  0  0
  197.0310  175.1320  140.4890 C   0  0  0  0  0  0  0  0  0  0  0  0
  197.9410  175.7450  139.8640 O   0  0  0  0  0  0  0  0  0  0  0  0
  195.9930  174.5020  139.8000 O   0  0  0  0  0  0  0  0  0  0  0  0
  195.9300  173.0910  139.6670 C   0  0  0  0  0  1  0  0  0  0  0  0
  196.0440  171.2290  144.8020 C   0  0  0  0  0  2  0  0  0  0  0  0
  195.5710  169.8240  144.4450 C   0  0  1  0  0  3  0  0  0  0  0  0
  195.7700  169.5770  143.0850 O   0  0  0  0  0  1  0  0  0  0  0  0
  196.2970  168.7780  145.2760 C   0  0  0  0  0  2  0  0  0  0  0  0
  196.1210  169.0690  146.7590 C   0  0  0  0  0  2  0  0  0  0  0  0
  194.8460  168.5070  148.6930 F   0  0  0  0  0  0  0  0  0  0  0  0
  195.0600  168.1670  147.3690 C   0  0  0  0  0  3  0  0  0  0  0  0
  193.8750  168.2590  146.6590 F   0  0  0  0  0  0  0  0  0  0  0  0
  1 12  1  6  0  0  0
  2  3  1  0  0  0  0
  3  9  1  1  0  0  0
  3  8  1  0  0  0  0
  5  6  1  0  0  0  0
  6  1  1  0  0  0  0
  6 13  1  0  0  0  0
  7 45  1  1  0  0  0
  7  9  1  0  0  0  0
 10  8  1  0  0  0  0
 10 19  1  1  0  0  0
 11 15  1  0  0  0  0
 12 14  1  0  0  0  0
 14  4  1  6  0  0  0
 14  2  1  0  0  0  0
 14  7  1  0  0  0  0
 16 10  1  0  0  0  0
 16 15  1  0  0  0  0
 17 11  2  0  0  0  0
 18  6  1  0  0  0  0
 18  1  1  0  0  0  0
 18 17  1  1  0  0  0
 21 31  1  6  0  0  0
 21 22  1  0  0  0  0
 22 19  1  6  0  0  0
 22 28  1  0  0  0  0
 23 21  1  0  0  0  0
 23 26  1  0  0  0  0
 25 26  1  0  0  0  0
 25 20  1  0  0  0  0
 26 29  1  6  0  0  0
 26 27  1  0  0  0  0
 28 27  1  6  0  0  0
 28 24  1  0  0  0  0
 30 20  1  1  0  0  0
 30 28  1  0  0  0  0
 30 24  1  0  0  0  0
 32 34  1  6  0  0  0
 32 31  1  0  0  0  0
 33 34  2  0  0  0  0
 34 35  1  0  0  0  0
 36 41  1  6  0  0  0
 36 32  1  0  0  0  0
 37 36  1  0  0  0  0
 38 37  1  0  0  0  0
 38 40  1  0  0  0  0
 39 38  2  0  0  0  0
 43 42  1  0  0  0  0
 43 41  1  0  0  0  0
 44 43  1  0  0  0  0
 44 42  1  0  0  0  0
 46 48  1  0  0  0  0
 46 47  1  0  0  0  0
 46 45  1  0  0  0  0
 47 50  1  6  0  0  0
 47 49  1  0  0  0  0
 48 47  1  0  0  0  0
 48 49  1  0  0  0  0
 48 57  1  1  0  0  0
 52 50  1  0  0  0  0
 52 51  1  6  0  0  0
 53 52  1  0  0  0  0
 54 53  2  0  0  0  0
 55 53  1  0  0  0  0
 56 55  1  0  0  0  0
 58 59  1  6  0  0  0
 58 57  1  0  0  0  0
 58 60  1  0  0  0  0
 60 61  1  0  0  0  0
 61 63  1  0  0  0  0
 63 62  1  0  0  0  0
 64 63  1  0  0  0  0
M  END
>  <MODEL>
7

>  <REMARK>
 VINA RESULT:      -4.8      3.513      9.349
  Name = 
  21 active torsions:
  status: ('A' for Active; 'I' for Inactive)
    1  A    between atoms: C_2  and  O_14
    2  A    between atoms: C_5  and  C_44
    3  A    between atoms: C_5  and  C_51
    4  A    between atoms: C_6  and  C_39
    5  A    between atoms: C_6  and  C_51
    6  A    between atoms: C_7  and  O_11
    7  A    between atoms: C_9  and  C_37
    8  A    between atoms: C_9  and  C_54
    9  A    between atoms: C_10  and  C_26
   10  A    between atoms: O_11  and  C_21
   11  A    between atoms: O_14  and  C_38
   12  A    between atoms: O_16  and  C_61
   13  A    between atoms: C_21  and  C_38
   14  A    between atoms: C_21  and  C_47
   15  A    between atoms: C_23  and  C_35
   16  A    between atoms: C_26  and  C_33
   17  A    between atoms: N_32  and  C_35
   18  A    between atoms: C_38  and  C_55
   19  A    between atoms: C_42  and  C_44
   20  A    between atoms: C_52  and  C_55
   21  A    between atoms: C_54  and  C_61
                            x       y       z     vdW  Elec       q    Type
                         _______ _______ _______ _____ _____    ______ ____

>  <TORSDO>
F 21

$$$$
=
 OpenBabel11072409183D

 64 72  0  0  1  0  0  0  0  0999 V2000
  189.2050  173.7800  142.1920 C   0  0  1  0  0  3  0  0  0  0  0  0
  190.5420  171.6820  142.9990 O   0  0  0  0  0  0  0  0  0  0  0  0
  191.9330  171.7400  143.2220 C   0  0  1  0  0  3  0  0  0  0  0  0
  189.3000  171.5330  145.0150 C   0  0  0  0  0  1  0  0  0  0  0  0
  187.0520  174.9300  142.6230 F   0  0  0  0  0  0  0  0  0  0  0  0
  188.0950  174.7060  141.7420 C   0  0  0  0  0  0  0  0  0  0  0  0
  191.0080  173.2700  144.7320 C   0  0  2  0  0  3  0  0  0  0  0  0
  192.7240  171.7160  141.9200 C   0  0  0  0  0  2  0  0  0  0  0  0
  192.2490  173.0260  143.9430 C   0  0  0  0  0  2  0  0  0  0  0  0
  192.1860  170.7240  140.8830 C   0  0  1  0  0  3  0  0  0  0  0  0
  189.6910  173.0900  139.1400 C   0  0  0  0  0  3  0  0  0  0  0  0
  188.8890  173.2820  143.4790 O   0  0  0  0  0  0  0  0  0  0  0  0
  188.5020  175.7500  140.9210 F   0  0  0  0  0  0  0  0  0  0  0  0
  189.9280  172.4690  144.0000 C   0  0  1  0  0  0  0  0  0  0  0  0
  190.9260  172.6790  139.8690 C   0  0  0  0  0  2  0  0  0  0  0  0
  190.8900  171.1940  140.2100 C   0  0  0  0  0  2  0  0  0  0  0  0
  188.5110  173.3590  139.7150 C   0  0  0  0  0  3  0  0  0  0  0  0
  188.1510  173.2930  141.1830 C   0  0  1  0  0  3  0  0  0  0  0  0
  193.2570  170.3510  139.8590 C   0  0  0  0  0  2  0  0  0  0  0  0
  195.4110  169.9960  136.0360 O   0  0  0  0  0  0  0  0  0  0  0  0
  194.2330  172.4370  138.7530 C   0  0  2  0  0  3  0  0  0  0  0  0
  193.2480  171.2620  138.6280 C   0  0  1  0  0  3  0  0  0  0  0  0
  194.2810  173.4840  137.2320 S   0  0  0  0  0  0  0  0  0  0  0  0
  193.5310  169.1460  137.1610 O   0  0  0  0  0  0  0  0  0  0  0  0
  195.6630  171.3850  135.9480 C   0  0  0  0  0  2  0  0  0  0  0  0
  194.3230  172.1610  135.9440 C   0  0  1  0  0  0  0  0  0  0  0  0
  193.2420  171.2680  136.1250 O   0  0  0  0  0  0  0  0  0  0  0  0
  193.4920  170.5440  137.3070 C   0  0  1  0  0  0  0  0  0  0  0  0
  194.1730  172.8210  134.5910 C   0  0  0  0  0  1  0  0  0  0  0  0
  194.7880  169.7920  137.2840 C   0  0  2  0  0  3  0  0  0  0  0  0
  195.5240  171.9920  139.0640 O   0  0  0  0  0  0  0  0  0  0  0  0
  195.8940  172.7020  140.2120 C   0  0  1  0  0  3  0  0  0  0  0  0
  197.2390  172.2630  142.2700 O   0  0  0  0  0  1  0  0  0  0  0  0
  196.5430  171.7650  141.1790 C   0  0  0  0  0  0  0  0  0  0  0  0
  196.4110  170.5220  141.0360 O   0  0  0  0  0  0  0  0  0  0  0  0
  196.8710  173.8260  139.8470 C   0  0  1  0  0  3  0  0  0  0  0  0
  197.6200  173.4920  138.6840 O   0  0  0  0  0  0  0  0  0  0  0  0
  197.7330  174.3690  137.6070 C   0  0  0  0  0  0  0  0  0  0  0  0
  197.6730  173.9240  136.4320 O   0  0  0  0  0  0  0  0  0  0  0  0
  197.9270  175.7310  137.8170 O   0  0  0  0  0  1  0  0  0  0  0  0
  196.1500  175.1620  139.6560 C   0  0  0  0  0  2  0  0  0  0  0  0
  195.1630  176.9080  140.9150 O   0  0  0  0  0  0  0  0  0  0  0  0
  195.3410  175.5420  140.8860 C   0  0  0  0  0  3  0  0  0  0  0  0
  196.0980  176.3530  141.7000 O   0  0  0  0  0  0  0  0  0  0  0  0
  190.7310  174.7580  144.8880 C   0  0  0  0  0  2  0  0  0  0  0  0
  191.5220  175.2800  146.0030 N   0  0  0  0  0  0  0  0  0  0  0  0
  192.4190  176.2560  145.3930 C   0  0  2  0  0  0  0  0  0  0  0  0
  191.3220  176.7010  146.3430 C   0  0  2  0  0  0  0  0  0  0  0  0
  192.2320  177.5790  145.7780 O   0  0  0  0  0  0  0  0  0  0  0  0
  193.7790  175.9150  145.9750 C   0  0  0  0  0  2  0  0  0  0  0  0
  195.4550  177.5540  145.1830 C   0  0  0  0  0  1  0  0  0  0  0  0
  194.8820  176.1700  144.9610 C   0  0  1  0  0  3  0  0  0  0  0  0
  195.9710  175.1550  145.0840 C   0  0  0  0  0  0  0  0  0  0  0  0
  196.9780  175.2350  144.3270 O   0  0  0  0  0  0  0  0  0  0  0  0
  195.8820  174.1480  146.0480 O   0  0  0  0  0  0  0  0  0  0  0  0
  196.8430  173.1080  146.1360 C   0  0  0  0  0  1  0  0  0  0  0  0
  189.9640  177.1920  145.8180 C   0  0  0  0  0  2  0  0  0  0  0  0
  188.8880  177.1310  146.8970 C   0  0  1  0  0  3  0  0  0  0  0  0
  188.9250  178.2840  147.6840 O   0  0  0  0  0  1  0  0  0  0  0  0
  187.5080  176.9640  146.2810 C   0  0  0  0  0  2  0  0  0  0  0  0
  186.4350  177.0810  147.3530 C   0  0  0  0  0  2  0  0  0  0  0  0
  185.9410  179.2940  146.6180 F   0  0  0  0  0  0  0  0  0  0  0  0
  185.3640  178.0810  146.9460 C   0  0  0  0  0  3  0  0  0  0  0  0
  184.6300  177.6000  145.8760 F   0  0  0  0  0  0  0  0  0  0  0  0
  1 12  1  1  0  0  0
  2  3  1  0  0  0  0
  2 14  1  0  0  0  0
  3  8  1  6  0  0  0
  3  9  1  0  0  0  0
  6  1  1  0  0  0  0
  6  5  1  0  0  0  0
  7 45  1  6  0  0  0
  9  7  1  0  0  0  0
 10 19  1  6  0  0  0
 10  8  1  0  0  0  0
 11 17  2  0  0  0  0
 11 15  1  0  0  0  0
 12 14  1  0  0  0  0
 13  6  1  0  0  0  0
 14  7  1  0  0  0  0
 14  4  1  1  0  0  0
 15 16  1  0  0  0  0
 16 10  1  0  0  0  0
 18 17  1  6  0  0  0
 18  6  1  0  0  0  0
 18  1  1  0  0  0  0
 21 31  1  6  0  0  0
 22 21  1  0  0  0  0
 22 19  1  1  0  0  0
 23 21  1  0  0  0  0
 24 30  1  0  0  0  0
 24 28  1  0  0  0  0
 25 20  1  0  0  0  0
 26 29  1  6  0  0  0
 26 25  1  0  0  0  0
 26 27  1  0  0  0  0
 26 23  1  0  0  0  0
 28 27  1  6  0  0  0
 28 22  1  0  0  0  0
 30 20  1  6  0  0  0
 30 28  1  0  0  0  0
 32 31  1  6  0  0  0
 32 34  1  0  0  0  0
 34 33  1  0  0  0  0
 35 34  2  0  0  0  0
 36 41  1  6  0  0  0
 36 32  1  0  0  0  0
 37 36  1  0  0  0  0
 38 40  1  0  0  0  0
 38 37  1  0  0  0  0
 39 38  2  0  0  0  0
 41 43  1  0  0  0  0
 42 44  1  0  0  0  0
 43 42  1  0  0  0  0
 43 44  1  0  0  0  0
 45 46  1  0  0  0  0
 46 48  1  0  0  0  0
 47 49  1  0  0  0  0
 47 50  1  1  0  0  0
 47 46  1  0  0  0  0
 47 48  1  0  0  0  0
 48 57  1  6  0  0  0
 49 48  1  0  0  0  0
 52 53  1  0  0  0  0
 52 51  1  1  0  0  0
 52 50  1  0  0  0  0
 53 55  1  0  0  0  0
 54 53  2  0  0  0  0
 55 56  1  0  0  0  0
 57 58  1  0  0  0  0
 58 59  1  6  0  0  0
 60 58  1  0  0  0  0
 60 61  1  0  0  0  0
 62 63  1  0  0  0  0
 63 61  1  0  0  0  0
 64 63  1  0  0  0  0
M  END
>  <MODEL>
8

>  <REMARK>
 VINA RESULT:      -4.7      2.995      6.961
  Name = 
  21 active torsions:
  status: ('A' for Active; 'I' for Inactive)
    1  A    between atoms: C_2  and  O_14
    2  A    between atoms: C_5  and  C_44
    3  A    between atoms: C_5  and  C_51
    4  A    between atoms: C_6  and  C_39
    5  A    between atoms: C_6  and  C_51
    6  A    between atoms: C_7  and  O_11
    7  A    between atoms: C_9  and  C_37
    8  A    between atoms: C_9  and  C_54
    9  A    between atoms: C_10  and  C_26
   10  A    between atoms: O_11  and  C_21
   11  A    between atoms: O_14  and  C_38
   12  A    between atoms: O_16  and  C_61
   13  A    between atoms: C_21  and  C_38
   14  A    between atoms: C_21  and  C_47
   15  A    between atoms: C_23  and  C_35
   16  A    between atoms: C_26  and  C_33
   17  A    between atoms: N_32  and  C_35
   18  A    between atoms: C_38  and  C_55
   19  A    between atoms: C_42  and  C_44
   20  A    between atoms: C_52  and  C_55
   21  A    between atoms: C_54  and  C_61
                            x       y       z     vdW  Elec       q    Type
                         _______ _______ _______ _____ _____    ______ ____

>  <TORSDO>
F 21

$$$$
=
 OpenBabel11072409183D

 64 72  0  0  1  0  0  0  0  0999 V2000
  192.8480  170.1250  138.9600 C   0  0  1  0  0  3  0  0  0  0  0  0
  190.9380  171.8810  138.6320 O   0  0  0  0  0  0  0  0  0  0  0  0
  191.1330  173.2430  138.9380 C   0  0  1  0  0  3  0  0  0  0  0  0
  190.8250  171.4790  136.2960 C   0  0  0  0  0  1  0  0  0  0  0  0
  193.8330  168.1660  137.8070 F   0  0  0  0  0  0  0  0  0  0  0  0
  193.6390  168.8350  139.0010 C   0  0  0  0  0  0  0  0  0  0  0  0
  192.6800  172.7710  137.2470 C   0  0  2  0  0  3  0  0  0  0  0  0
  191.0860  173.5050  140.4390 C   0  0  0  0  0  2  0  0  0  0  0  0
  192.4890  173.6590  138.4300 C   0  0  0  0  0  2  0  0  0  0  0  0
  189.9790  172.7380  141.1700 C   0  0  1  0  0  3  0  0  0  0  0  0
  191.9880  169.5420  141.9520 C   0  0  0  0  0  3  0  0  0  0  0  0
  192.4180  170.3530  137.6310 O   0  0  0  0  0  0  0  0  0  0  0  0
  194.6540  168.8020  139.9500 F   0  0  0  0  0  0  0  0  0  0  0  0
  191.7380  171.5920  137.5020 C   0  0  1  0  0  0  0  0  0  0  0  0
  191.7390  170.9930  141.7150 C   0  0  0  0  0  2  0  0  0  0  0  0
  190.2850  171.2430  141.3340 C   0  0  0  0  0  2  0  0  0  0  0  0
  192.1930  168.6290  140.9920 C   0  0  0  0  0  3  0  0  0  0  0  0
  192.2000  168.8360  139.4930 C   0  0  1  0  0  3  0  0  0  0  0  0
  189.6290  173.3970  142.5040 C   0  0  0  0  0  2  0  0  0  0  0  0
  190.6340  174.9640  146.4930 O   0  0  0  0  0  0  0  0  0  0  0  0
  190.0690  175.8940  142.8130 C   0  0  2  0  0  3  0  0  0  0  0  0
  190.6390  174.4700  142.9210 C   0  0  1  0  0  3  0  0  0  0  0  0
  191.2600  177.1800  143.3990 S   0  0  0  0  0  0  0  0  0  0  0  0
  191.0490  173.1220  145.0940 O   0  0  0  0  0  0  0  0  0  0  0  0
  190.7690  176.2950  146.0330 C   0  0  0  0  0  2  0  0  0  0  0  0
  191.8640  176.3630  144.9410 C   0  0  1  0  0  0  0  0  0  0  0  0
  192.3460  175.0660  144.6520 O   0  0  0  0  0  0  0  0  0  0  0  0
  191.2320  174.2740  144.3100 C   0  0  1  0  0  0  0  0  0  0  0  0
  193.0110  177.1860  145.4870 C   0  0  0  0  0  1  0  0  0  0  0  0
  190.1900  174.2130  145.3850 C   0  0  2  0  0  3  0  0  0  0  0  0
  188.8590  176.0170  143.5080 O   0  0  0  0  0  0  0  0  0  0  0  0
  188.3860  177.2990  143.2050 C   0  0  1  0  0  3  0  0  0  0  0  0
  187.3380  176.0220  141.3320 O   0  0  0  0  0  0  0  0  0  0  0  0
  187.6030  177.2430  141.9330 C   0  0  0  0  0  0  0  0  0  0  0  0
  187.1340  178.2990  141.4360 O   0  0  0  0  0  1  0  0  0  0  0  0
  187.4920  177.8140  144.3400 C   0  0  1  0  0  3  0  0  0  0  0  0
  186.6250  178.8430  143.8800 O   0  0  0  0  0  0  0  0  0  0  0  0
  185.4770  179.2060  144.5820 C   0  0  0  0  0  0  0  0  0  0  0  0
  184.3490  179.0730  144.0420 O   0  0  0  0  0  0  0  0  0  0  0  0
  185.5660  179.7280  145.8690 O   0  0  0  0  0  1  0  0  0  0  0  0
  186.6870  176.6830  144.9840 C   0  0  0  0  0  2  0  0  0  0  0  0
  186.4230  176.5500  147.3330 O   0  0  0  0  0  0  0  0  0  0  0  0
  187.2940  176.2490  146.3100 C   0  0  0  0  0  3  0  0  0  0  0  0
  187.4750  177.3500  147.1120 O   0  0  0  0  0  0  0  0  0  0  0  0
  194.1460  172.4120  137.0510 C   0  0  0  0  0  2  0  0  0  0  0  0
  194.5190  172.6560  135.6580 N   0  0  0  0  0  0  0  0  0  0  0  0
  195.1490  173.9720  135.6710 C   0  0  2  0  0  0  0  0  0  0  0  0
  195.9630  172.7270  135.3670 C   0  0  2  0  0  0  0  0  0  0  0  0
  196.4990  174.0040  135.3410 O   0  0  0  0  0  0  0  0  0  0  0  0
  194.4920  174.7020  134.5130 C   0  0  0  0  0  2  0  0  0  0  0  0
  193.5570  176.0070  136.3950 C   0  0  0  0  0  1  0  0  0  0  0  0
  193.9960  176.0710  134.9480 C   0  0  1  0  0  3  0  0  0  0  0  0
  195.0660  177.1030  134.7970 C   0  0  0  0  0  0  0  0  0  0  0  0
  196.2760  176.7410  134.7820 O   0  0  0  0  0  0  0  0  0  0  0  0
  194.7220  178.4480  134.6460 O   0  0  0  0  0  0  0  0  0  0  0  0
  195.7060  179.4660  134.5480 C   0  0  0  0  0  1  0  0  0  0  0  0
  196.7680  172.0130  136.4640 C   0  0  0  0  0  2  0  0  0  0  0  0
  196.3760  170.5440  136.5840 C   0  0  1  0  0  3  0  0  0  0  0  0
  196.7380  169.8510  135.4280 O   0  0  0  0  0  1  0  0  0  0  0  0
  197.0250  169.9050  137.8010 C   0  0  0  0  0  2  0  0  0  0  0  0
  197.9330  170.9050  138.5000 C   0  0  0  0  0  2  0  0  0  0  0  0
  196.2010  172.1030  139.6170 F   0  0  0  0  0  0  0  0  0  0  0  0
  197.3380  171.3450  139.8290 C   0  0  0  0  0  3  0  0  0  0  0  0
  197.0360  170.2460  140.6150 F   0  0  0  0  0  0  0  0  0  0  0  0
  1 12  1  6  0  0  0
  1  6  1  0  0  0  0
  1 18  1  0  0  0  0
  2  3  1  0  0  0  0
  3  9  1  1  0  0  0
  3  8  1  0  0  0  0
  5  6  1  0  0  0  0
  6 18  1  0  0  0  0
  6 13  1  0  0  0  0
  7 45  1  1  0  0  0
  7 14  1  0  0  0  0
  7  9  1  0  0  0  0
  8 10  1  0  0  0  0
 10 16  1  0  0  0  0
 10 19  1  1  0  0  0
 14  4  1  6  0  0  0
 14 12  1  0  0  0  0
 14  2  1  0  0  0  0
 15 11  1  0  0  0  0
 16 15  1  0  0  0  0
 17 11  2  0  0  0  0
 18 17  1  1  0  0  0
 21 22  1  0  0  0  0
 21 23  1  0  0  0  0
 21 31  1  1  0  0  0
 22 19  1  1  0  0  0
 22 28  1  0  0  0  0
 23 26  1  0  0  0  0
 25 20  1  0  0  0  0
 26 29  1  1  0  0  0
 26 25  1  0  0  0  0
 27 26  1  0  0  0  0
 28 27  1  1  0  0  0
 28 24  1  0  0  0  0
 28 30  1  0  0  0  0
 30 24  1  1  0  0  0
 30 20  1  0  0  0  0
 32 34  1  6  0  0  0
 32 31  1  0  0  0  0
 32 36  1  0  0  0  0
 33 34  2  0  0  0  0
 35 34  1  0  0  0  0
 36 41  1  6  0  0  0
 37 36  1  0  0  0  0
 37 38  1  0  0  0  0
 38 40  1  0  0  0  0
 39 38  2  0  0  0  0
 41 43  1  0  0  0  0
 43 44  1  0  0  0  0
 43 42  1  0  0  0  0
 44 42  1  0  0  0  0
 46 47  1  0  0  0  0
 46 45  1  0  0  0  0
 47 50  1  6  0  0  0
 48 46  1  0  0  0  0
 48 47  1  0  0  0  0
 48 57  1  1  0  0  0
 49 48  1  0  0  0  0
 49 47  1  0  0  0  0
 50 52  1  0  0  0  0
 52 51  1  1  0  0  0
 53 52  1  0  0  0  0
 54 53  2  0  0  0  0
 55 53  1  0  0  0  0
 56 55  1  0  0  0  0
 57 58  1  0  0  0  0
 58 59  1  6  0  0  0
 58 60  1  0  0  0  0
 60 61  1  0  0  0  0
 61 63  1  0  0  0  0
 62 63  1  0  0  0  0
 63 64  1  0  0  0  0
M  END
>  <MODEL>
9

>  <REMARK>
 VINA RESULT:      -4.4      4.625     10.182
  Name = 
  21 active torsions:
  status: ('A' for Active; 'I' for Inactive)
    1  A    between atoms: C_2  and  O_14
    2  A    between atoms: C_5  and  C_44
    3  A    between atoms: C_5  and  C_51
    4  A    between atoms: C_6  and  C_39
    5  A    between atoms: C_6  and  C_51
    6  A    between atoms: C_7  and  O_11
    7  A    between atoms: C_9  and  C_37
    8  A    between atoms: C_9  and  C_54
    9  A    between atoms: C_10  and  C_26
   10  A    between atoms: O_11  and  C_21
   11  A    between atoms: O_14  and  C_38
   12  A    between atoms: O_16  and  C_61
   13  A    between atoms: C_21  and  C_38
   14  A    between atoms: C_21  and  C_47
   15  A    between atoms: C_23  and  C_35
   16  A    between atoms: C_26  and  C_33
   17  A    between atoms: N_32  and  C_35
   18  A    between atoms: C_38  and  C_55
   19  A    between atoms: C_42  and  C_44
   20  A    between atoms: C_52  and  C_55
   21  A    between atoms: C_54  and  C_61
                            x       y       z     vdW  Elec       q    Type
                         _______ _______ _______ _____ _____    ______ ____

>  <TORSDO>
F 21

$$$$
