=
 OpenBabel11062421143D

 33 36  0  0  1  0  0  0  0  0999 V2000
  188.3480  173.5330  140.4830 N   0  0  0  0  0  2  0  0  0  0  0  0
  188.7580  175.4620  143.6560 C   0  0  0  0  0  3  0  0  0  0  0  0
  188.2880  174.5890  141.4470 C   0  0  0  0  0  0  0  0  0  0  0  0
  187.6740  176.8790  142.0150 C   0  0  0  0  0  0  0  0  0  0  0  0
  188.7980  174.4120  142.7350 C   0  0  0  0  0  3  0  0  0  0  0  0
  187.7280  175.8150  141.0940 C   0  0  0  0  0  3  0  0  0  0  0  0
  188.2070  176.7020  143.3010 C   0  0  0  0  0  0  0  0  0  0  0  0
  189.2100  177.7310  145.2120 O   0  0  0  0  0  1  0  0  0  0  0  0
  188.1530  177.8190  144.3010 C   0  0  2  0  0  3  0  0  0  0  0  0
  186.0310  179.0040  144.8880 C   0  0  0  0  0  3  0  0  0  0  0  0
  186.8350  177.8670  145.0130 C   0  0  0  0  0  0  0  0  0  0  0  0
  186.3910  176.7900  145.7910 C   0  0  0  0  0  3  0  0  0  0  0  0
  184.7910  179.0650  145.5330 C   0  0  0  0  0  3  0  0  0  0  0  0
  185.1530  176.8520  146.4370 C   0  0  0  0  0  3  0  0  0  0  0  0
  184.3520  177.9890  146.3060 C   0  0  0  0  0  3  0  0  0  0  0  0
  185.7750  178.2500  141.2000 C   0  0  0  0  0  1  0  0  0  0  0  0
  187.1070  178.1140  141.6690 O   0  0  0  0  0  0  0  0  0  0  0  0
  189.3480  172.5520  140.5240 N   0  0  0  0  0  2  0  0  0  0  0  0
  190.6360  173.5590  138.8650 O   0  0  0  0  0  0  0  0  0  0  0  0
  190.5700  172.7300  139.8140 C   0  0  0  0  0  0  0  0  0  0  0  0
  191.7750  171.9420  140.2070 C   0  0  0  0  0  2  0  0  0  0  0  0
  192.2740  173.7050  141.9070 N   0  0  0  0  0  0  0  0  0  0  0  0
  192.9710  174.7110  144.0300 C   0  0  0  0  0  3  0  0  0  0  0  0
  192.2810  172.3970  141.5360 C   0  0  0  0  0  0  0  0  0  0  0  0
  193.5370  172.0190  144.7510 C   0  0  0  0  0  3  0  0  0  0  0  0
  193.7570  173.0660  145.6660 C   0  0  0  0  0  3  0  0  0  0  0  0
  193.4830  174.4110  145.3120 C   0  0  0  0  0  0  0  0  0  0  0  0
  192.7530  171.5380  142.4850 N   0  0  0  0  0  2  0  0  0  0  0  0
  192.7610  173.6500  143.1550 C   0  0  0  0  0  0  0  0  0  0  0  0
  193.0470  172.3620  143.4960 C   0  0  0  0  0  0  0  0  0  0  0  0
  193.7310  175.4970  146.2740 C   0  0  0  0  0  0  0  0  0  0  0  0
  194.9120  175.8870  146.5060 O   0  0  0  0  0  0  0  0  0  0  0  0
  192.6720  176.1010  146.9410 O   0  0  0  0  0  1  0  0  0  0  0  0
  1 18  1  0  0  0  0
  1  3  1  0  0  0  0
  3  5  1  0  0  0  0
  4  7  2  0  0  0  0
  5  2  2  0  0  0  0
  6  3  2  0  0  0  0
  6  4  1  0  0  0  0
  7  2  1  0  0  0  0
  7  9  1  0  0  0  0
  9 11  1  0  0  0  0
  9  8  1  1  0  0  0
 10 11  2  0  0  0  0
 10 13  1  0  0  0  0
 11 12  1  0  0  0  0
 12 14  2  0  0  0  0
 13 15  2  0  0  0  0
 15 14  1  0  0  0  0
 16 17  1  0  0  0  0
 17  4  1  0  0  0  0
 19 20  2  0  0  0  0
 20 21  1  0  0  0  0
 20 18  1  0  0  0  0
 21 24  1  0  0  0  0
 22 29  1  0  0  0  0
 23 27  1  0  0  0  0
 24 22  2  0  0  0  0
 24 28  1  0  0  0  0
 25 26  1  0  0  0  0
 27 26  2  0  0  0  0
 27 31  1  0  0  0  0
 28 30  1  0  0  0  0
 29 30  1  0  0  0  0
 29 23  2  0  0  0  0
 30 25  2  0  0  0  0
 31 32  2  0  0  0  0
 31 33  1  0  0  0  0
M  END
>  <MODEL>
1

>  <REMARK>
 VINA RESULT:      -7.1      0.000      0.000
  Name = 
  8 active torsions:
  status: ('A' for Active; 'I' for Inactive)
    1  A    between atoms: N_2  and  N_8
    2  A    between atoms: C_5  and  C_27
    3  A    between atoms: N_8  and  C_11
    4  A    between atoms: C_9  and  C_19
    5  A    between atoms: C_12  and  O_22
    6  A    between atoms: C_16  and  C_29
    7  A    between atoms: C_17  and  C_19
    8  A    between atoms: C_28  and  C_29
                            x       y       z     vdW  Elec       q    Type
                         _______ _______ _______ _____ _____    ______ ____

>  <TORSDO>
F 8

$$$$
=
 OpenBabel11062421143D

 33 36  0  0  1  0  0  0  0  0999 V2000
  193.2690  177.2350  144.9730 N   0  0  0  0  0  2  0  0  0  0  0  0
  189.7680  177.5150  143.7000 C   0  0  0  0  0  3  0  0  0  0  0  0
  191.8710  176.9980  144.7840 C   0  0  0  0  0  0  0  0  0  0  0  0
  189.8750  175.6960  145.3000 C   0  0  0  0  0  0  0  0  0  0  0  0
  191.1260  177.7780  143.8960 C   0  0  0  0  0  3  0  0  0  0  0  0
  191.2440  175.9670  145.4810 C   0  0  0  0  0  3  0  0  0  0  0  0
  189.1370  176.4690  144.3900 C   0  0  0  0  0  0  0  0  0  0  0  0
  187.3590  176.1400  142.8270 O   0  0  0  0  0  1  0  0  0  0  0  0
  187.6740  176.2050  144.1870 C   0  0  2  0  0  3  0  0  0  0  0  0
  186.3960  178.3540  144.1880 C   0  0  0  0  0  3  0  0  0  0  0  0
  186.8210  177.2190  144.8860 C   0  0  0  0  0  0  0  0  0  0  0  0
  186.4310  177.0440  146.2210 C   0  0  0  0  0  3  0  0  0  0  0  0
  185.5880  179.3070  144.8180 C   0  0  0  0  0  3  0  0  0  0  0  0
  185.6250  177.9970  146.8490 C   0  0  0  0  0  3  0  0  0  0  0  0
  185.2020  179.1280  146.1460 C   0  0  0  0  0  3  0  0  0  0  0  0
  189.1300  174.6410  147.4160 C   0  0  0  0  0  1  0  0  0  0  0  0
  189.2360  174.6640  146.0020 O   0  0  0  0  0  0  0  0  0  0  0  0
  194.2100  176.1980  144.9040 N   0  0  0  0  0  2  0  0  0  0  0  0
  194.3330  176.2420  142.5790 O   0  0  0  0  0  0  0  0  0  0  0  0
  194.8470  175.8770  143.6720 C   0  0  0  0  0  0  0  0  0  0  0  0
  196.1330  175.1200  143.6800 C   0  0  0  0  0  2  0  0  0  0  0  0
  196.7900  173.2020  145.1430 N   0  0  0  0  0  0  0  0  0  0  0  0
  196.6590  171.0330  146.2770 C   0  0  0  0  0  3  0  0  0  0  0  0
  195.9270  173.7530  144.2490 C   0  0  0  0  0  0  0  0  0  0  0  0
  194.2390  170.7720  144.8070 C   0  0  0  0  0  3  0  0  0  0  0  0
  194.6600  169.7510  145.6810 C   0  0  0  0  0  3  0  0  0  0  0  0
  195.8680  169.8720  146.4130 C   0  0  0  0  0  0  0  0  0  0  0  0
  194.8480  172.9770  143.9430 N   0  0  0  0  0  2  0  0  0  0  0  0
  196.2080  172.0240  145.4100 C   0  0  0  0  0  0  0  0  0  0  0  0
  195.0570  171.8910  144.6950 C   0  0  0  0  0  0  0  0  0  0  0  0
  196.3030  168.7900  147.3110 C   0  0  0  0  0  0  0  0  0  0  0  0
  197.5100  168.4150  147.3210 O   0  0  0  0  0  0  0  0  0  0  0  0
  195.3890  168.1660  148.1530 O   0  0  0  0  0  1  0  0  0  0  0  0
  2  5  2  0  0  0  0
  2  7  1  0  0  0  0
  3  1  1  0  0  0  0
  3  6  2  0  0  0  0
  4  6  1  0  0  0  0
  4 17  1  0  0  0  0
  5  3  1  0  0  0  0
  7  4  2  0  0  0  0
  9  8  1  6  0  0  0
  9  7  1  0  0  0  0
  9 11  1  0  0  0  0
 10 13  2  0  0  0  0
 10 11  1  0  0  0  0
 11 12  2  0  0  0  0
 12 14  1  0  0  0  0
 13 15  1  0  0  0  0
 15 14  2  0  0  0  0
 17 16  1  0  0  0  0
 18  1  1  0  0  0  0
 19 20  2  0  0  0  0
 20 21  1  0  0  0  0
 20 18  1  0  0  0  0
 21 24  1  0  0  0  0
 22 29  1  0  0  0  0
 23 27  1  0  0  0  0
 24 22  2  0  0  0  0
 25 26  1  0  0  0  0
 26 27  2  0  0  0  0
 27 31  1  0  0  0  0
 28 24  1  0  0  0  0
 28 30  1  0  0  0  0
 29 23  2  0  0  0  0
 30 25  2  0  0  0  0
 30 29  1  0  0  0  0
 31 32  2  0  0  0  0
 31 33  1  0  0  0  0
M  END
>  <MODEL>
2

>  <REMARK>
 VINA RESULT:      -7.1      3.380      4.939
  Name = 
  8 active torsions:
  status: ('A' for Active; 'I' for Inactive)
    1  A    between atoms: N_2  and  N_8
    2  A    between atoms: C_5  and  C_27
    3  A    between atoms: N_8  and  C_11
    4  A    between atoms: C_9  and  C_19
    5  A    between atoms: C_12  and  O_22
    6  A    between atoms: C_16  and  C_29
    7  A    between atoms: C_17  and  C_19
    8  A    between atoms: C_28  and  C_29
                            x       y       z     vdW  Elec       q    Type
                         _______ _______ _______ _____ _____    ______ ____

>  <TORSDO>
F 8

$$$$
=
 OpenBabel11062421143D

 33 36  0  0  1  0  0  0  0  0999 V2000
  188.9270  172.3410  142.0610 N   0  0  0  0  0  2  0  0  0  0  0  0
  189.2750  175.3200  144.2880 C   0  0  0  0  0  3  0  0  0  0  0  0
  188.7440  173.6440  142.6230 C   0  0  0  0  0  0  0  0  0  0  0  0
  187.6870  175.8390  142.5310 C   0  0  0  0  0  0  0  0  0  0  0  0
  189.4420  174.0350  143.7680 C   0  0  0  0  0  3  0  0  0  0  0  0
  187.8710  174.5430  142.0140 C   0  0  0  0  0  3  0  0  0  0  0  0
  188.4070  176.2330  143.6700 C   0  0  0  0  0  0  0  0  0  0  0  0
  189.2770  177.9430  145.0960 O   0  0  0  0  0  1  0  0  0  0  0  0
  188.2200  177.6060  144.2450 C   0  0  2  0  0  3  0  0  0  0  0  0
  186.5360  176.7950  145.9040 C   0  0  0  0  0  3  0  0  0  0  0  0
  186.9030  177.7440  144.9450 C   0  0  0  0  0  0  0  0  0  0  0  0
  186.0410  178.8120  144.6660 C   0  0  0  0  0  3  0  0  0  0  0  0
  185.3170  176.9110  146.5810 C   0  0  0  0  0  3  0  0  0  0  0  0
  184.8220  178.9270  145.3410 C   0  0  0  0  0  3  0  0  0  0  0  0
  184.4610  177.9770  146.3000 C   0  0  0  0  0  3  0  0  0  0  0  0
  187.1090  177.4370  140.7250 C   0  0  0  0  0  1  0  0  0  0  0  0
  186.8060  176.7470  141.9270 O   0  0  0  0  0  0  0  0  0  0  0  0
  190.1940  171.7470  141.9690 N   0  0  0  0  0  2  0  0  0  0  0  0
  190.7080  172.7690  139.9400 O   0  0  0  0  0  0  0  0  0  0  0  0
  191.1170  172.1580  140.9650 C   0  0  0  0  0  0  0  0  0  0  0  0
  192.5720  171.8750  141.1400 C   0  0  0  0  0  2  0  0  0  0  0  0
  192.7130  173.9740  142.4910 N   0  0  0  0  0  0  0  0  0  0  0  0
  193.4020  175.5150  144.2670 C   0  0  0  0  0  3  0  0  0  0  0  0
  193.1320  172.7030  142.2510 C   0  0  0  0  0  0  0  0  0  0  0  0
  195.0650  173.3500  145.0610 C   0  0  0  0  0  3  0  0  0  0  0  0
  195.0600  174.5540  145.7910 C   0  0  0  0  0  3  0  0  0  0  0  0
  194.2380  175.6390  145.3990 C   0  0  0  0  0  0  0  0  0  0  0  0
  194.0730  172.2380  143.1220 N   0  0  0  0  0  2  0  0  0  0  0  0
  193.4290  174.3090  143.5740 C   0  0  0  0  0  0  0  0  0  0  0  0
  194.2370  173.2780  143.9460 C   0  0  0  0  0  0  0  0  0  0  0  0
  194.2530  176.8970  146.1630 C   0  0  0  0  0  0  0  0  0  0  0  0
  193.5840  177.0030  147.2310 O   0  0  0  0  0  1  0  0  0  0  0  0
  194.9990  177.9810  145.7170 O   0  0  0  0  0  0  0  0  0  0  0  0
  1  3  1  0  0  0  0
  3  5  2  0  0  0  0
  4  7  1  0  0  0  0
  5  2  1  0  0  0  0
  6  4  2  0  0  0  0
  6  3  1  0  0  0  0
  7  9  1  0  0  0  0
  7  2  2  0  0  0  0
  9 11  1  0  0  0  0
  9  8  1  1  0  0  0
 10 13  1  0  0  0  0
 11 10  2  0  0  0  0
 12 11  1  0  0  0  0
 12 14  2  0  0  0  0
 14 15  1  0  0  0  0
 15 13  2  0  0  0  0
 16 17  1  0  0  0  0
 17  4  1  0  0  0  0
 18  1  1  0  0  0  0
 19 20  2  0  0  0  0
 20 21  1  0  0  0  0
 20 18  1  0  0  0  0
 21 24  1  0  0  0  0
 22 29  1  0  0  0  0
 23 27  1  0  0  0  0
 24 22  2  0  0  0  0
 24 28  1  0  0  0  0
 25 26  1  0  0  0  0
 27 26  2  0  0  0  0
 27 31  1  0  0  0  0
 28 30  1  0  0  0  0
 29 30  1  0  0  0  0
 29 23  2  0  0  0  0
 30 25  2  0  0  0  0
 31 32  1  0  0  0  0
 33 31  2  0  0  0  0
M  END
>  <MODEL>
3

>  <REMARK>
 VINA RESULT:      -7.0      1.137      1.610
  Name = 
  8 active torsions:
  status: ('A' for Active; 'I' for Inactive)
    1  A    between atoms: N_2  and  N_8
    2  A    between atoms: C_5  and  C_27
    3  A    between atoms: N_8  and  C_11
    4  A    between atoms: C_9  and  C_19
    5  A    between atoms: C_12  and  O_22
    6  A    between atoms: C_16  and  C_29
    7  A    between atoms: C_17  and  C_19
    8  A    between atoms: C_28  and  C_29
                            x       y       z     vdW  Elec       q    Type
                         _______ _______ _______ _____ _____    ______ ____

>  <TORSDO>
F 8

$$$$
=
 OpenBabel11062421143D

 33 36  0  0  1  0  0  0  0  0999 V2000
  187.3700  176.7770  147.8150 N   0  0  0  0  0  2  0  0  0  0  0  0
  189.8450  174.4750  146.2220 C   0  0  0  0  0  3  0  0  0  0  0  0
  188.3530  176.2510  146.9170 C   0  0  0  0  0  0  0  0  0  0  0  0
  189.6970  176.5010  144.8980 C   0  0  0  0  0  0  0  0  0  0  0  0
  188.9090  174.9870  147.1240 C   0  0  0  0  0  3  0  0  0  0  0  0
  188.7490  177.0010  145.8110 C   0  0  0  0  0  3  0  0  0  0  0  0
  190.2370  175.2220  145.1010 C   0  0  0  0  0  0  0  0  0  0  0  0
  191.0830  173.2970  143.9630 O   0  0  0  0  0  1  0  0  0  0  0  0
  191.2560  174.6720  144.1460 C   0  0  2  0  0  3  0  0  0  0  0  0
  193.7210  174.6790  143.7300 C   0  0  0  0  0  3  0  0  0  0  0  0
  192.6550  174.9830  144.5830 C   0  0  0  0  0  0  0  0  0  0  0  0
  192.9120  175.5820  145.8220 C   0  0  0  0  0  3  0  0  0  0  0  0
  195.0350  174.9730  144.1120 C   0  0  0  0  0  3  0  0  0  0  0  0
  194.2250  175.8740  146.2040 C   0  0  0  0  0  3  0  0  0  0  0  0
  195.2860  175.5710  145.3470 C   0  0  0  0  0  3  0  0  0  0  0  0
  191.0640  178.2950  143.8680 C   0  0  0  0  0  1  0  0  0  0  0  0
  190.1060  177.2520  143.7870 O   0  0  0  0  0  0  0  0  0  0  0  0
  186.0320  176.9450  147.4310 N   0  0  0  0  0  2  0  0  0  0  0  0
  186.0340  179.2400  147.8240 O   0  0  0  0  0  0  0  0  0  0  0  0
  185.4790  178.2470  147.2780 C   0  0  0  0  0  0  0  0  0  0  0  0
  184.2470  178.4350  146.4560 C   0  0  0  0  0  2  0  0  0  0  0  0
  185.7160  177.7060  144.5700 N   0  0  0  0  0  0  0  0  0  0  0  0
  186.4510  177.2650  142.2730 C   0  0  0  0  0  3  0  0  0  0  0  0
  184.5630  178.2800  145.0040 C   0  0  0  0  0  0  0  0  0  0  0  0
  183.9510  178.4350  141.5910 C   0  0  0  0  0  3  0  0  0  0  0  0
  184.8200  177.9660  140.5870 C   0  0  0  0  0  3  0  0  0  0  0  0
  186.0700  177.3870  140.9190 C   0  0  0  0  0  0  0  0  0  0  0  0
  183.7100  178.6690  144.0130 N   0  0  0  0  0  2  0  0  0  0  0  0
  185.5640  177.7340  143.2380 C   0  0  0  0  0  0  0  0  0  0  0  0
  184.3730  178.3080  142.9090 C   0  0  0  0  0  0  0  0  0  0  0  0
  186.9740  176.9140  139.8580 C   0  0  0  0  0  0  0  0  0  0  0  0
  187.0320  177.5210  138.7510 O   0  0  0  0  0  0  0  0  0  0  0  0
  187.7700  175.7920  140.0620 O   0  0  0  0  0  1  0  0  0  0  0  0
  2  5  1  0  0  0  0
  3  5  2  0  0  0  0
  3  1  1  0  0  0  0
  4  7  1  0  0  0  0
  4  6  2  0  0  0  0
  6  3  1  0  0  0  0
  7  2  2  0  0  0  0
  9  8  1  1  0  0  0
  9 11  1  0  0  0  0
  9  7  1  0  0  0  0
 10 13  2  0  0  0  0
 10 11  1  0  0  0  0
 11 12  2  0  0  0  0
 12 14  1  0  0  0  0
 13 15  1  0  0  0  0
 15 14  2  0  0  0  0
 17 16  1  0  0  0  0
 17  4  1  0  0  0  0
 18  1  1  0  0  0  0
 20 18  1  0  0  0  0
 20 19  2  0  0  0  0
 21 20  1  0  0  0  0
 22 24  2  0  0  0  0
 23 29  1  0  0  0  0
 24 21  1  0  0  0  0
 25 30  1  0  0  0  0
 26 27  1  0  0  0  0
 26 25  2  0  0  0  0
 27 23  2  0  0  0  0
 28 24  1  0  0  0  0
 29 22  1  0  0  0  0
 30 29  2  0  0  0  0
 30 28  1  0  0  0  0
 31 33  1  0  0  0  0
 31 27  1  0  0  0  0
 32 31  2  0  0  0  0
M  END
>  <MODEL>
4

>  <REMARK>
 VINA RESULT:      -6.8      3.712      8.540
  Name = 
  8 active torsions:
  status: ('A' for Active; 'I' for Inactive)
    1  A    between atoms: N_2  and  N_8
    2  A    between atoms: C_5  and  C_27
    3  A    between atoms: N_8  and  C_11
    4  A    between atoms: C_9  and  C_19
    5  A    between atoms: C_12  and  O_22
    6  A    between atoms: C_16  and  C_29
    7  A    between atoms: C_17  and  C_19
    8  A    between atoms: C_28  and  C_29
                            x       y       z     vdW  Elec       q    Type
                         _______ _______ _______ _____ _____    ______ ____

>  <TORSDO>
F 8

$$$$
=
 OpenBabel11062421143D

 33 36  0  0  1  0  0  0  0  0999 V2000
  191.9990  175.2210  146.7170 N   0  0  0  0  0  2  0  0  0  0  0  0
  189.3270  177.4980  145.4390 C   0  0  0  0  0  3  0  0  0  0  0  0
  190.8910  175.7260  145.9640 C   0  0  0  0  0  0  0  0  0  0  0  0
  189.2390  175.4170  144.1980 C   0  0  0  0  0  0  0  0  0  0  0  0
  190.3890  177.0070  146.2020 C   0  0  0  0  0  3  0  0  0  0  0  0
  190.3150  174.9390  144.9690 C   0  0  0  0  0  3  0  0  0  0  0  0
  188.7520  176.7130  144.4280 C   0  0  0  0  0  0  0  0  0  0  0  0
  188.0120  178.2650  142.7680 O   0  0  0  0  0  1  0  0  0  0  0  0
  187.6000  177.2410  143.6250 C   0  0  2  0  0  3  0  0  0  0  0  0
  185.9120  176.7990  145.4150 C   0  0  0  0  0  3  0  0  0  0  0  0
  186.4710  177.6950  144.4990 C   0  0  0  0  0  0  0  0  0  0  0  0
  185.9770  179.0040  144.4240 C   0  0  0  0  0  3  0  0  0  0  0  0
  184.8670  177.2070  146.2510 C   0  0  0  0  0  3  0  0  0  0  0  0
  184.9310  179.4100  145.2580 C   0  0  0  0  0  3  0  0  0  0  0  0
  184.3770  178.5110  146.1730 C   0  0  0  0  0  3  0  0  0  0  0  0
  189.2780  174.3580  141.9570 C   0  0  0  0  0  1  0  0  0  0  0  0
  188.6500  174.6290  143.2000 O   0  0  0  0  0  0  0  0  0  0  0  0
  193.1690  174.7650  146.0930 N   0  0  0  0  0  2  0  0  0  0  0  0
  194.2780  176.8010  146.3150 O   0  0  0  0  0  0  0  0  0  0  0  0
  194.3500  175.5600  146.0960 C   0  0  0  0  0  0  0  0  0  0  0  0
  195.6740  174.9160  145.8530 C   0  0  0  0  0  2  0  0  0  0  0  0
  195.0320  175.1820  143.4520 N   0  0  0  0  0  0  0  0  0  0  0  0
  195.2570  175.2520  141.0120 C   0  0  0  0  0  3  0  0  0  0  0  0
  195.9650  174.8650  144.3880 C   0  0  0  0  0  0  0  0  0  0  0  0
  197.9370  174.4760  141.5580 C   0  0  0  0  0  3  0  0  0  0  0  0
  197.5070  174.6820  140.2330 C   0  0  0  0  0  3  0  0  0  0  0  0
  196.1710  175.0630  139.9530 C   0  0  0  0  0  0  0  0  0  0  0  0
  197.1890  174.5350  143.8850 N   0  0  0  0  0  2  0  0  0  0  0  0
  195.7200  175.0470  142.3080 C   0  0  0  0  0  0  0  0  0  0  0  0
  196.9990  174.6600  142.5670 C   0  0  0  0  0  0  0  0  0  0  0  0
  195.7320  175.2600  138.5610 C   0  0  0  0  0  0  0  0  0  0  0  0
  194.4990  175.2830  138.2790 O   0  0  0  0  0  1  0  0  0  0  0  0
  196.6670  175.4170  137.5450 O   0  0  0  0  0  0  0  0  0  0  0  0
  2  5  1  0  0  0  0
  3  5  2  0  0  0  0
  3  1  1  0  0  0  0
  4  7  1  0  0  0  0
  4  6  2  0  0  0  0
  6  3  1  0  0  0  0
  7  2  2  0  0  0  0
  9  8  1  1  0  0  0
  9  7  1  0  0  0  0
  9 11  1  0  0  0  0
 10 13  1  0  0  0  0
 11 10  2  0  0  0  0
 12 11  1  0  0  0  0
 12 14  2  0  0  0  0
 14 15  1  0  0  0  0
 15 13  2  0  0  0  0
 16 17  1  0  0  0  0
 17  4  1  0  0  0  0
 18 20  1  0  0  0  0
 18  1  1  0  0  0  0
 20 19  2  0  0  0  0
 21 20  1  0  0  0  0
 22 24  2  0  0  0  0
 23 29  1  0  0  0  0
 24 21  1  0  0  0  0
 25 30  1  0  0  0  0
 26 25  2  0  0  0  0
 27 26  1  0  0  0  0
 27 23  2  0  0  0  0
 28 24  1  0  0  0  0
 29 30  2  0  0  0  0
 29 22  1  0  0  0  0
 30 28  1  0  0  0  0
 31 27  1  0  0  0  0
 32 31  1  0  0  0  0
 33 31  2  0  0  0  0
M  END
>  <MODEL>
5

>  <REMARK>
 VINA RESULT:      -6.8      3.314      5.351
  Name = 
  8 active torsions:
  status: ('A' for Active; 'I' for Inactive)
    1  A    between atoms: N_2  and  N_8
    2  A    between atoms: C_5  and  C_27
    3  A    between atoms: N_8  and  C_11
    4  A    between atoms: C_9  and  C_19
    5  A    between atoms: C_12  and  O_22
    6  A    between atoms: C_16  and  C_29
    7  A    between atoms: C_17  and  C_19
    8  A    between atoms: C_28  and  C_29
                            x       y       z     vdW  Elec       q    Type
                         _______ _______ _______ _____ _____    ______ ____

>  <TORSDO>
F 8

$$$$
=
 OpenBabel11062421143D

 33 36  0  0  1  0  0  0  0  0999 V2000
  190.9910  176.1810  147.7810 N   0  0  0  0  0  2  0  0  0  0  0  0
  194.3960  175.8640  146.2760 C   0  0  0  0  0  3  0  0  0  0  0  0
  192.0870  175.7120  146.9900 C   0  0  0  0  0  0  0  0  0  0  0  0
  192.9890  174.0930  145.4050 C   0  0  0  0  0  0  0  0  0  0  0  0
  193.3270  176.3530  147.0320 C   0  0  0  0  0  3  0  0  0  0  0  0
  191.9220  174.5910  146.1770 C   0  0  0  0  0  3  0  0  0  0  0  0
  194.2380  174.7290  145.4680 C   0  0  0  0  0  0  0  0  0  0  0  0
  196.5360  174.0740  145.4260 O   0  0  0  0  0  1  0  0  0  0  0  0
  195.3860  174.2220  144.6450 C   0  0  2  0  0  3  0  0  0  0  0  0
  196.7410  175.9740  143.4870 C   0  0  0  0  0  3  0  0  0  0  0  0
  195.6530  175.0970  143.4590 C   0  0  0  0  0  0  0  0  0  0  0  0
  194.8400  175.0420  142.3190 C   0  0  0  0  0  3  0  0  0  0  0  0
  197.0170  176.7900  142.3850 C   0  0  0  0  0  3  0  0  0  0  0  0
  195.1150  175.8590  141.2190 C   0  0  0  0  0  3  0  0  0  0  0  0
  196.2050  176.7320  141.2520 C   0  0  0  0  0  3  0  0  0  0  0  0
  191.5670  172.5310  144.1060 C   0  0  0  0  0  1  0  0  0  0  0  0
  192.8290  172.9700  144.5800 O   0  0  0  0  0  0  0  0  0  0  0  0
  190.0530  177.0940  147.2770 N   0  0  0  0  0  2  0  0  0  0  0  0
  188.3850  175.4890  147.0140 O   0  0  0  0  0  0  0  0  0  0  0  0
  188.6950  176.7100  147.0900 C   0  0  0  0  0  0  0  0  0  0  0  0
  187.6370  177.7590  146.9980 C   0  0  0  0  0  2  0  0  0  0  0  0
  185.7090  177.8670  145.4110 N   0  0  0  0  0  0  0  0  0  0  0  0
  184.4910  177.9980  143.2880 C   0  0  0  0  0  3  0  0  0  0  0  0
  187.0490  177.7850  145.6250 C   0  0  0  0  0  0  0  0  0  0  0  0
  187.0970  177.8980  142.1560 C   0  0  0  0  0  3  0  0  0  0  0  0
  185.9610  177.9960  141.3300 C   0  0  0  0  0  3  0  0  0  0  0  0
  184.6580  178.0410  141.8870 C   0  0  0  0  0  0  0  0  0  0  0  0
  187.8080  177.7650  144.4920 N   0  0  0  0  0  2  0  0  0  0  0  0
  185.6370  177.9070  144.0730 C   0  0  0  0  0  0  0  0  0  0  0  0
  186.8830  177.8440  143.5280 C   0  0  0  0  0  0  0  0  0  0  0  0
  183.4790  178.1290  141.0110 C   0  0  0  0  0  0  0  0  0  0  0  0
  183.5490  177.7520  139.8060 O   0  0  0  0  0  0  0  0  0  0  0  0
  182.2780  178.6330  141.4970 O   0  0  0  0  0  1  0  0  0  0  0  0
  2  5  1  0  0  0  0
  3  5  2  0  0  0  0
  3  1  1  0  0  0  0
  4  7  1  0  0  0  0
  4  6  2  0  0  0  0
  6  3  1  0  0  0  0
  7  2  2  0  0  0  0
  9  8  1  1  0  0  0
  9  7  1  0  0  0  0
 11 10  1  0  0  0  0
 11  9  1  0  0  0  0
 12 11  2  0  0  0  0
 13 10  2  0  0  0  0
 14 15  2  0  0  0  0
 14 12  1  0  0  0  0
 15 13  1  0  0  0  0
 16 17  1  0  0  0  0
 17  4  1  0  0  0  0
 18  1  1  0  0  0  0
 19 20  2  0  0  0  0
 20 18  1  0  0  0  0
 21 20  1  0  0  0  0
 22 24  2  0  0  0  0
 23 29  1  0  0  0  0
 24 21  1  0  0  0  0
 25 30  1  0  0  0  0
 26 27  1  0  0  0  0
 26 25  2  0  0  0  0
 27 23  2  0  0  0  0
 28 24  1  0  0  0  0
 29 22  1  0  0  0  0
 30 29  2  0  0  0  0
 30 28  1  0  0  0  0
 31 33  1  0  0  0  0
 31 27  1  0  0  0  0
 32 31  2  0  0  0  0
M  END
>  <MODEL>
6

>  <REMARK>
 VINA RESULT:      -6.8      3.418      9.315
  Name = 
  8 active torsions:
  status: ('A' for Active; 'I' for Inactive)
    1  A    between atoms: N_2  and  N_8
    2  A    between atoms: C_5  and  C_27
    3  A    between atoms: N_8  and  C_11
    4  A    between atoms: C_9  and  C_19
    5  A    between atoms: C_12  and  O_22
    6  A    between atoms: C_16  and  C_29
    7  A    between atoms: C_17  and  C_19
    8  A    between atoms: C_28  and  C_29
                            x       y       z     vdW  Elec       q    Type
                         _______ _______ _______ _____ _____    ______ ____

>  <TORSDO>
F 8

$$$$
=
 OpenBabel11062421143D

 33 36  0  0  1  0  0  0  0  0999 V2000
  192.1750  175.1350  142.9610 N   0  0  0  0  0  2  0  0  0  0  0  0
  190.5230  173.3340  140.1350 C   0  0  0  0  0  3  0  0  0  0  0  0
  191.1980  174.7220  142.0010 C   0  0  0  0  0  0  0  0  0  0  0  0
  188.9330  174.8830  141.1110 C   0  0  0  0  0  0  0  0  0  0  0  0
  191.4980  173.7480  141.0460 C   0  0  0  0  0  3  0  0  0  0  0  0
  189.9230  175.2840  142.0280 C   0  0  0  0  0  3  0  0  0  0  0  0
  189.2350  173.8890  140.1670 C   0  0  0  0  0  0  0  0  0  0  0  0
  188.2760  172.0750  138.9400 O   0  0  0  0  0  1  0  0  0  0  0  0
  188.1990  173.4520  139.1730 C   0  0  2  0  0  3  0  0  0  0  0  0
  189.2900  173.8820  136.9660 C   0  0  0  0  0  3  0  0  0  0  0  0
  188.2970  174.2190  137.8900 C   0  0  0  0  0  0  0  0  0  0  0  0
  187.4040  175.2580  137.5970 C   0  0  0  0  0  3  0  0  0  0  0  0
  189.3900  174.5760  135.7550 C   0  0  0  0  0  3  0  0  0  0  0  0
  187.5060  175.9520  136.3880 C   0  0  0  0  0  3  0  0  0  0  0  0
  188.4990  175.6100  135.4660 C   0  0  0  0  0  3  0  0  0  0  0  0
  187.4090  176.8250  140.8880 C   0  0  0  0  0  1  0  0  0  0  0  0
  187.6510  175.4480  141.1280 O   0  0  0  0  0  0  0  0  0  0  0  0
  191.9140  175.1140  144.3380 N   0  0  0  0  0  2  0  0  0  0  0  0
  192.8080  177.2330  144.7080 O   0  0  0  0  0  0  0  0  0  0  0  0
  192.0860  176.2870  145.1270 C   0  0  0  0  0  0  0  0  0  0  0  0
  191.3970  176.3970  146.4470 C   0  0  0  0  0  2  0  0  0  0  0  0
  189.5070  177.3720  145.1340 N   0  0  0  0  0  0  0  0  0  0  0  0
  187.2130  177.9910  144.5300 C   0  0  0  0  0  3  0  0  0  0  0  0
  189.9570  176.7450  146.2530 C   0  0  0  0  0  0  0  0  0  0  0  0
  186.5740  176.7970  147.0300 C   0  0  0  0  0  3  0  0  0  0  0  0
  185.5610  177.3370  146.2150 C   0  0  0  0  0  3  0  0  0  0  0  0
  185.8720  177.9380  144.9700 C   0  0  0  0  0  0  0  0  0  0  0  0
  188.9890  176.4300  147.1600 N   0  0  0  0  0  2  0  0  0  0  0  0
  188.1860  177.4420  145.3590 C   0  0  0  0  0  0  0  0  0  0  0  0
  187.8810  176.8840  146.5640 C   0  0  0  0  0  0  0  0  0  0  0  0
  184.8040  178.5110  144.1340 C   0  0  0  0  0  0  0  0  0  0  0  0
  183.7860  179.0360  144.6710 O   0  0  0  0  0  1  0  0  0  0  0  0
  184.9010  178.4750  142.7480 O   0  0  0  0  0  0  0  0  0  0  0  0
  1 18  1  0  0  0  0
  2  7  2  0  0  0  0
  2  5  1  0  0  0  0
  3  6  1  0  0  0  0
  3  1  1  0  0  0  0
  4 17  1  0  0  0  0
  4  6  2  0  0  0  0
  5  3  2  0  0  0  0
  7  4  1  0  0  0  0
  9  8  1  6  0  0  0
  9  7  1  0  0  0  0
 10 11  1  0  0  0  0
 11  9  1  0  0  0  0
 12 11  2  0  0  0  0
 13 10  2  0  0  0  0
 14 12  1  0  0  0  0
 15 13  1  0  0  0  0
 15 14  2  0  0  0  0
 16 17  1  0  0  0  0
 18 20  1  0  0  0  0
 19 20  2  0  0  0  0
 20 21  1  0  0  0  0
 22 29  1  0  0  0  0
 22 24  2  0  0  0  0
 23 27  2  0  0  0  0
 23 29  1  0  0  0  0
 24 21  1  0  0  0  0
 24 28  1  0  0  0  0
 26 25  2  0  0  0  0
 27 26  1  0  0  0  0
 29 30  2  0  0  0  0
 30 25  1  0  0  0  0
 30 28  1  0  0  0  0
 31 32  1  0  0  0  0
 31 27  1  0  0  0  0
 33 31  2  0  0  0  0
M  END
>  <MODEL>
7

>  <REMARK>
 VINA RESULT:      -6.7      3.003      7.493
  Name = 
  8 active torsions:
  status: ('A' for Active; 'I' for Inactive)
    1  A    between atoms: N_2  and  N_8
    2  A    between atoms: C_5  and  C_27
    3  A    between atoms: N_8  and  C_11
    4  A    between atoms: C_9  and  C_19
    5  A    between atoms: C_12  and  O_22
    6  A    between atoms: C_16  and  C_29
    7  A    between atoms: C_17  and  C_19
    8  A    between atoms: C_28  and  C_29
                            x       y       z     vdW  Elec       q    Type
                         _______ _______ _______ _____ _____    ______ ____

>  <TORSDO>
F 8

$$$$
=
 OpenBabel11062421143D

 33 36  0  0  1  0  0  0  0  0999 V2000
  192.2470  176.8210  144.6760 N   0  0  0  0  0  2  0  0  0  0  0  0
  188.6310  177.7180  144.3960 C   0  0  0  0  0  3  0  0  0  0  0  0
  190.8540  176.7580  144.3550 C   0  0  0  0  0  0  0  0  0  0  0  0
  188.9980  175.5950  143.2840 C   0  0  0  0  0  0  0  0  0  0  0  0
  189.9830  177.7790  144.7430 C   0  0  0  0  0  3  0  0  0  0  0  0
  190.3590  175.6740  143.6330 C   0  0  0  0  0  3  0  0  0  0  0  0
  188.1320  176.6340  143.6580 C   0  0  0  0  0  0  0  0  0  0  0  0
  186.4480  177.0510  142.0130 O   0  0  0  0  0  1  0  0  0  0  0  0
  186.6750  176.5670  143.3050 C   0  0  2  0  0  3  0  0  0  0  0  0
  185.2200  178.4980  143.9430 C   0  0  0  0  0  3  0  0  0  0  0  0
  185.8240  177.2900  144.3050 C   0  0  0  0  0  0  0  0  0  0  0  0
  185.6150  176.7710  145.5890 C   0  0  0  0  0  3  0  0  0  0  0  0
  184.4110  179.1820  144.8560 C   0  0  0  0  0  3  0  0  0  0  0  0
  184.8070  177.4560  146.5020 C   0  0  0  0  0  3  0  0  0  0  0  0
  184.2040  178.6620  146.1340 C   0  0  0  0  0  3  0  0  0  0  0  0
  188.6550  174.3600  141.1620 C   0  0  0  0  0  1  0  0  0  0  0  0
  188.4920  174.5040  142.5630 O   0  0  0  0  0  0  0  0  0  0  0  0
  193.0660  175.6840  144.6360 N   0  0  0  0  0  2  0  0  0  0  0  0
  192.7600  175.1790  146.8890 O   0  0  0  0  0  0  0  0  0  0  0  0
  193.1270  174.7940  145.7450 C   0  0  0  0  0  0  0  0  0  0  0  0
  193.6140  173.3970  145.5450 C   0  0  0  0  0  2  0  0  0  0  0  0
  193.6340  172.4690  143.2240 N   0  0  0  0  0  0  0  0  0  0  0  0
  192.8200  171.3990  141.1750 C   0  0  0  0  0  3  0  0  0  0  0  0
  192.9510  172.7810  144.3570 C   0  0  0  0  0  0  0  0  0  0  0  0
  190.3400  171.3580  142.5650 C   0  0  0  0  0  3  0  0  0  0  0  0
  190.4420  170.8220  141.2670 C   0  0  0  0  0  3  0  0  0  0  0  0
  191.6730  170.8430  140.5660 C   0  0  0  0  0  0  0  0  0  0  0  0
  191.6270  172.4550  144.3320 N   0  0  0  0  0  2  0  0  0  0  0  0
  192.6820  171.9130  142.4610 C   0  0  0  0  0  0  0  0  0  0  0  0
  191.4900  171.9070  143.1200 C   0  0  0  0  0  0  0  0  0  0  0  0
  191.7620  170.2920  139.2040 C   0  0  0  0  0  0  0  0  0  0  0  0
  191.4000  170.9840  138.2100 O   0  0  0  0  0  0  0  0  0  0  0  0
  192.2390  169.0020  138.9980 O   0  0  0  0  0  1  0  0  0  0  0  0
  2  5  1  0  0  0  0
  3  1  1  0  0  0  0
  3  5  2  0  0  0  0
  4  6  2  0  0  0  0
  4  7  1  0  0  0  0
  6  3  1  0  0  0  0
  7  2  2  0  0  0  0
  9  8  1  6  0  0  0
  9  7  1  0  0  0  0
  9 11  1  0  0  0  0
 10 11  2  0  0  0  0
 10 13  1  0  0  0  0
 11 12  1  0  0  0  0
 12 14  2  0  0  0  0
 13 15  2  0  0  0  0
 15 14  1  0  0  0  0
 16 17  1  0  0  0  0
 17  4  1  0  0  0  0
 18  1  1  0  0  0  0
 18 20  1  0  0  0  0
 20 19  2  0  0  0  0
 21 20  1  0  0  0  0
 22 24  2  0  0  0  0
 23 29  1  0  0  0  0
 24 21  1  0  0  0  0
 25 30  1  0  0  0  0
 26 25  2  0  0  0  0
 27 23  2  0  0  0  0
 27 26  1  0  0  0  0
 28 24  1  0  0  0  0
 29 30  2  0  0  0  0
 29 22  1  0  0  0  0
 30 28  1  0  0  0  0
 31 27  1  0  0  0  0
 32 31  2  0  0  0  0
 33 31  1  0  0  0  0
M  END
>  <MODEL>
8

>  <REMARK>
 VINA RESULT:      -6.7      1.987      4.918
  Name = 
  8 active torsions:
  status: ('A' for Active; 'I' for Inactive)
    1  A    between atoms: N_2  and  N_8
    2  A    between atoms: C_5  and  C_27
    3  A    between atoms: N_8  and  C_11
    4  A    between atoms: C_9  and  C_19
    5  A    between atoms: C_12  and  O_22
    6  A    between atoms: C_16  and  C_29
    7  A    between atoms: C_17  and  C_19
    8  A    between atoms: C_28  and  C_29
                            x       y       z     vdW  Elec       q    Type
                         _______ _______ _______ _____ _____    ______ ____

>  <TORSDO>
F 8

$$$$
=
 OpenBabel11062421143D

 33 36  0  0  1  0  0  0  0  0999 V2000
  191.7240  176.5410  144.8940 N   0  0  0  0  0  2  0  0  0  0  0  0
  195.0760  175.4640  146.1460 C   0  0  0  0  0  3  0  0  0  0  0  0
  193.0670  176.0460  144.9260 C   0  0  0  0  0  0  0  0  0  0  0  0
  194.9830  175.1010  143.7510 C   0  0  0  0  0  0  0  0  0  0  0  0
  193.7760  175.9770  146.1270 C   0  0  0  0  0  3  0  0  0  0  0  0
  193.6710  175.6130  143.7470 C   0  0  0  0  0  3  0  0  0  0  0  0
  195.6830  175.0150  144.9640 C   0  0  0  0  0  0  0  0  0  0  0  0
  197.8350  174.9870  143.9230 O   0  0  0  0  0  1  0  0  0  0  0  0
  197.0850  174.4820  144.9900 C   0  0  2  0  0  3  0  0  0  0  0  0
  197.6880  172.3010  143.9270 C   0  0  0  0  0  3  0  0  0  0  0  0
  197.1140  172.9840  145.0040 C   0  0  0  0  0  0  0  0  0  0  0  0
  196.5870  172.2580  146.0800 C   0  0  0  0  0  3  0  0  0  0  0  0
  197.7370  170.9030  143.9260 C   0  0  0  0  0  3  0  0  0  0  0  0
  196.6350  170.8610  146.0770 C   0  0  0  0  0  3  0  0  0  0  0  0
  197.2120  170.1840  145.0000 C   0  0  0  0  0  3  0  0  0  0  0  0
  195.0200  173.7110  141.6980 C   0  0  0  0  0  1  0  0  0  0  0  0
  195.6000  174.6690  142.5680 O   0  0  0  0  0  0  0  0  0  0  0  0
  190.6560  175.8120  145.4350 N   0  0  0  0  0  2  0  0  0  0  0  0
  190.4410  177.1930  147.2980 O   0  0  0  0  0  0  0  0  0  0  0  0
  189.9310  176.3100  146.5550 C   0  0  0  0  0  0  0  0  0  0  0  0
  188.5600  175.7920  146.8370 C   0  0  0  0  0  2  0  0  0  0  0  0
  187.2370  176.1630  144.7490 N   0  0  0  0  0  0  0  0  0  0  0  0
  185.5850  177.1370  143.2230 C   0  0  0  0  0  3  0  0  0  0  0  0
  187.5490  176.5290  146.0200 C   0  0  0  0  0  0  0  0  0  0  0  0
  185.0800  178.8910  145.4040 C   0  0  0  0  0  3  0  0  0  0  0  0
  184.3510  179.0110  144.2050 C   0  0  0  0  0  3  0  0  0  0  0  0
  184.6010  178.1440  143.1120 C   0  0  0  0  0  0  0  0  0  0  0  0
  186.8420  177.5940  146.4970 N   0  0  0  0  0  2  0  0  0  0  0  0
  186.2800  177.0450  144.4250 C   0  0  0  0  0  0  0  0  0  0  0  0
  186.0480  177.8950  145.4630 C   0  0  0  0  0  0  0  0  0  0  0  0
  183.8420  178.2910  141.8590 C   0  0  0  0  0  0  0  0  0  0  0  0
  184.4470  178.4160  140.7560 O   0  0  0  0  0  0  0  0  0  0  0  0
  182.4520  178.3000  141.8780 O   0  0  0  0  0  1  0  0  0  0  0  0
  1  3  1  0  0  0  0
  1 18  1  0  0  0  0
  3  5  2  0  0  0  0
  4  7  1  0  0  0  0
  5  2  1  0  0  0  0
  6  4  2  0  0  0  0
  6  3  1  0  0  0  0
  7  9  1  0  0  0  0
  7  2  2  0  0  0  0
  9  8  1  6  0  0  0
  9 11  1  0  0  0  0
 10 11  1  0  0  0  0
 11 12  2  0  0  0  0
 13 10  2  0  0  0  0
 13 15  1  0  0  0  0
 14 12  1  0  0  0  0
 15 14  2  0  0  0  0
 16 17  1  0  0  0  0
 17  4  1  0  0  0  0
 18 20  1  0  0  0  0
 20 21  1  0  0  0  0
 20 19  2  0  0  0  0
 22 24  2  0  0  0  0
 23 29  1  0  0  0  0
 24 28  1  0  0  0  0
 24 21  1  0  0  0  0
 25 30  1  0  0  0  0
 26 25  2  0  0  0  0
 27 23  2  0  0  0  0
 27 26  1  0  0  0  0
 29 22  1  0  0  0  0
 29 30  2  0  0  0  0
 30 28  1  0  0  0  0
 31 33  1  0  0  0  0
 31 27  1  0  0  0  0
 32 31  2  0  0  0  0
M  END
>  <MODEL>
9

>  <REMARK>
 VINA RESULT:      -6.6      3.272      9.765
  Name = 
  8 active torsions:
  status: ('A' for Active; 'I' for Inactive)
    1  A    between atoms: N_2  and  N_8
    2  A    between atoms: C_5  and  C_27
    3  A    between atoms: N_8  and  C_11
    4  A    between atoms: C_9  and  C_19
    5  A    between atoms: C_12  and  O_22
    6  A    between atoms: C_16  and  C_29
    7  A    between atoms: C_17  and  C_19
    8  A    between atoms: C_28  and  C_29
                            x       y       z     vdW  Elec       q    Type
                         _______ _______ _______ _____ _____    ______ ____

>  <TORSDO>
F 8

$$$$
