=
 OpenBabel11062421253D

 31 34  0  0  1  0  0  0  0  0999 V2000
  184.5160  178.7550  144.8230 C   0  0  0  0  0  2  0  0  0  0  0  0
  186.4730  178.3040  146.4670 C   0  0  0  0  0  3  0  0  0  0  0  0
  185.1590  178.1330  143.5690 C   0  0  1  0  0  3  0  0  0  0  0  0
  186.9580  177.0040  145.8580 C   0  0  1  0  0  3  0  0  0  0  0  0
  185.7490  176.8220  144.0200 C   0  0  1  0  0  3  0  0  0  0  0  0
  186.9170  176.1150  143.5040 C   0  0  2  0  0  3  0  0  0  0  0  0
  187.0970  177.2340  144.4360 N   0  0  2  0  0  0  0  0  0  0  0  0
  185.4520  179.0580  145.9910 C   0  0  0  0  0  3  0  0  0  0  0  0
  189.2660  177.5410  146.6580 C   0  0  0  0  0  3  0  0  0  0  0  0
  190.7130  175.8920  147.5700 C   0  0  0  0  0  3  0  0  0  0  0  0
  188.5100  175.2570  146.8290 C   0  0  0  0  0  3  0  0  0  0  0  0
  190.4580  177.1780  147.2030 N   0  0  0  0  0  0  0  0  0  0  0  0
  189.7400  174.9060  147.3860 C   0  0  0  0  0  3  0  0  0  0  0  0
  188.2630  176.5870  146.4610 C   0  0  0  0  0  0  0  0  0  0  0  0
  184.1650  177.9270  142.5180 N   0  0  0  0  0  2  0  0  0  0  0  0
  184.3720  178.2030  141.1260 C   0  0  0  0  0  0  0  0  0  0  0  0
  185.4660  178.6720  140.7160 O   0  0  0  0  0  1  0  0  0  0  0  0
  183.3480  177.9570  140.2200 O   0  0  0  0  0  0  0  0  0  0  0  0
  187.1980  176.5370  142.2030 O   0  0  0  0  0  0  0  0  0  0  0  0
  188.5900  176.5660  142.1380 C   0  0  0  0  0  2  0  0  0  0  0  0
  189.1300  175.1480  142.2110 C   0  0  0  0  0  2  0  0  0  0  0  0
  190.6320  175.1660  142.4220 C   0  0  0  0  0  2  0  0  0  0  0  0
  190.9580  175.4150  143.8850 C   0  0  0  0  0  2  0  0  0  0  0  0
  192.3690  177.0050  142.8150 O   0  0  0  0  0  1  0  0  0  0  0  0
  192.1910  176.2980  144.0060 C   0  0  2  0  0  3  0  0  0  0  0  0
  193.2120  174.6750  145.4410 O   0  0  0  0  0  1  0  0  0  0  0  0
  193.4260  175.4470  144.2970 C   0  0  2  0  0  3  0  0  0  0  0  0
  196.5330  177.0040  143.5170 O   0  0  0  0  0  1  0  0  0  0  0  0
  194.6420  176.3310  144.5190 C   0  0  1  0  0  3  0  0  0  0  0  0
  195.6840  175.5730  144.9490 O   0  0  0  0  0  0  0  0  0  0  0  0
  195.6950  175.9440  143.6150 N   0  0  0  0  0  0  0  0  0  0  0  0
  1  8  1  0  0  0  0
  3 15  1  6  0  0  0
  3  5  1  0  0  0  0
  3  1  1  0  0  0  0
  4 14  1  1  0  0  0
  4  2  1  0  0  0  0
  5  7  1  0  0  0  0
  6  5  1  0  0  0  0
  6  7  1  0  0  0  0
  7  4  1  0  0  0  0
  8  2  2  0  0  0  0
  9 12  1  0  0  0  0
 11 13  2  0  0  0  0
 12 10  2  0  0  0  0
 13 10  1  0  0  0  0
 14  9  2  0  0  0  0
 14 11  1  0  0  0  0
 16 15  1  0  0  0  0
 17 16  1  0  0  0  0
 18 16  2  0  0  0  0
 19  6  1  0  0  0  0
 20 19  1  0  0  0  0
 20 21  1  0  0  0  0
 21 22  1  0  0  0  0
 22 23  1  0  0  0  0
 23 25  1  0  0  0  0
 24 25  1  0  0  0  0
 25 27  1  0  0  0  0
 27 29  1  0  0  0  0
 27 26  1  0  0  0  0
 28 31  1  0  0  0  0
 29 30  1  0  0  0  0
 31 29  1  0  0  0  0
 31 30  1  0  0  0  0
M  END
>  <MODEL>
1

>  <REMARK>
 VINA RESULT:      -6.8      0.000      0.000
  Name = 
  10 active torsions:
  status: ('A' for Active; 'I' for Inactive)
    1  A    between atoms: C_4  and  C_23
    2  A    between atoms: C_4  and  C_26
    3  A    between atoms: C_6  and  N_10
    4  A    between atoms: C_7  and  C_25
    5  A    between atoms: O_8  and  C_20
    6  A    between atoms: O_8  and  C_28
    7  A    between atoms: C_9  and  C_30
    8  A    between atoms: C_17  and  C_25
    9  A    between atoms: C_17  and  C_26
   10  A    between atoms: C_23  and  C_28
                            x       y       z     vdW  Elec       q    Type
                         _______ _______ _______ _____ _____    ______ ____

>  <TORSDO>
F 10

$$$$
=
 OpenBabel11062421253D

 31 34  0  0  1  0  0  0  0  0999 V2000
  184.4320  178.5850  145.0350 C   0  0  0  0  0  2  0  0  0  0  0  0
  186.4060  178.1410  146.6620 C   0  0  0  0  0  3  0  0  0  0  0  0
  185.1320  178.1320  143.7400 C   0  0  1  0  0  3  0  0  0  0  0  0
  186.9970  176.9430  145.9450 C   0  0  1  0  0  3  0  0  0  0  0  0
  185.8210  176.8350  144.0810 C   0  0  1  0  0  3  0  0  0  0  0  0
  187.0450  176.2710  143.5210 C   0  0  2  0  0  3  0  0  0  0  0  0
  187.1280  177.3120  144.5520 N   0  0  2  0  0  0  0  0  0  0  0  0
  185.3320  178.8520  146.2390 C   0  0  0  0  0  3  0  0  0  0  0  0
  189.2890  177.5710  146.7260 C   0  0  0  0  0  3  0  0  0  0  0  0
  190.8170  175.9760  147.5990 C   0  0  0  0  0  3  0  0  0  0  0  0
  188.6360  175.2540  146.8750 C   0  0  0  0  0  3  0  0  0  0  0  0
  190.5020  177.2540  147.2530 N   0  0  0  0  0  0  0  0  0  0  0  0
  189.8860  174.9500  147.4140 C   0  0  0  0  0  3  0  0  0  0  0  0
  188.3260  176.5760  146.5280 C   0  0  0  0  0  0  0  0  0  0  0  0
  184.1660  177.9450  142.6600 N   0  0  0  0  0  2  0  0  0  0  0  0
  184.4010  178.2680  141.2830 C   0  0  0  0  0  0  0  0  0  0  0  0
  185.4970  178.7650  140.9140 O   0  0  0  0  0  1  0  0  0  0  0  0
  183.4020  178.0350  140.3460 O   0  0  0  0  0  0  0  0  0  0  0  0
  187.3020  176.8300  142.2670 O   0  0  0  0  0  0  0  0  0  0  0  0
  187.8410  175.7830  141.5210 C   0  0  0  0  0  2  0  0  0  0  0  0
  187.8800  174.5240  142.3700 C   0  0  0  0  0  2  0  0  0  0  0  0
  189.2660  173.9080  142.3370 C   0  0  0  0  0  2  0  0  0  0  0  0
  189.9630  174.1040  143.6730 C   0  0  0  0  0  2  0  0  0  0  0  0
  191.3410  172.3550  144.5130 O   0  0  0  0  0  1  0  0  0  0  0  0
  191.3380  173.4520  143.6490 C   0  0  2  0  0  3  0  0  0  0  0  0
  192.9080  174.1110  145.3330 O   0  0  0  0  0  1  0  0  0  0  0  0
  192.4080  174.4550  144.0750 C   0  0  2  0  0  3  0  0  0  0  0  0
  191.6520  177.7480  142.9470 O   0  0  0  0  0  1  0  0  0  0  0  0
  191.8270  175.8580  144.1430 C   0  0  1  0  0  3  0  0  0  0  0  0
  192.7920  176.7340  144.5250 O   0  0  0  0  0  0  0  0  0  0  0  0
  192.4810  176.7020  143.1760 N   0  0  0  0  0  0  0  0  0  0  0  0
  1  8  1  0  0  0  0
  3 15  1  6  0  0  0
  3  5  1  0  0  0  0
  3  1  1  0  0  0  0
  4 14  1  1  0  0  0
  4  2  1  0  0  0  0
  5  7  1  0  0  0  0
  6  5  1  0  0  0  0
  6  7  1  0  0  0  0
  7  4  1  0  0  0  0
  8  2  2  0  0  0  0
  9 12  1  0  0  0  0
 11 13  2  0  0  0  0
 12 10  2  0  0  0  0
 13 10  1  0  0  0  0
 14  9  2  0  0  0  0
 14 11  1  0  0  0  0
 16 15  1  0  0  0  0
 17 16  1  0  0  0  0
 18 16  2  0  0  0  0
 19  6  1  0  0  0  0
 20 19  1  0  0  0  0
 20 21  1  0  0  0  0
 22 21  1  0  0  0  0
 22 23  1  0  0  0  0
 25 23  1  0  0  0  0
 25 27  1  0  0  0  0
 25 24  1  0  0  0  0
 27 29  1  0  0  0  0
 27 26  1  0  0  0  0
 28 31  1  0  0  0  0
 29 30  1  0  0  0  0
 31 29  1  0  0  0  0
 31 30  1  0  0  0  0
M  END
>  <MODEL>
2

>  <REMARK>
 VINA RESULT:      -6.6      1.347      1.809
  Name = 
  10 active torsions:
  status: ('A' for Active; 'I' for Inactive)
    1  A    between atoms: C_4  and  C_23
    2  A    between atoms: C_4  and  C_26
    3  A    between atoms: C_6  and  N_10
    4  A    between atoms: C_7  and  C_25
    5  A    between atoms: O_8  and  C_20
    6  A    between atoms: O_8  and  C_28
    7  A    between atoms: C_9  and  C_30
    8  A    between atoms: C_17  and  C_25
    9  A    between atoms: C_17  and  C_26
   10  A    between atoms: C_23  and  C_28
                            x       y       z     vdW  Elec       q    Type
                         _______ _______ _______ _____ _____    ______ ____

>  <TORSDO>
F 10

$$$$
=
 OpenBabel11062421253D

 31 34  0  0  1  0  0  0  0  0999 V2000
  186.6470  177.1480  147.1720 C   0  0  0  0  0  2  0  0  0  0  0  0
  184.9580  177.6840  145.2740 C   0  0  0  0  0  3  0  0  0  0  0  0
  187.7340  176.4980  146.2970 C   0  0  1  0  0  3  0  0  0  0  0  0
  185.9650  177.9510  144.1730 C   0  0  1  0  0  3  0  0  0  0  0  0
  187.8910  177.4020  145.1010 C   0  0  1  0  0  3  0  0  0  0  0  0
  188.2780  177.0590  143.7360 C   0  0  2  0  0  3  0  0  0  0  0  0
  186.8950  176.8420  144.1770 N   0  0  2  0  0  0  0  0  0  0  0  0
  185.2660  177.3060  146.5390 C   0  0  0  0  0  3  0  0  0  0  0  0
  183.8910  178.1780  142.7940 C   0  0  0  0  0  3  0  0  0  0  0  0
  183.9460  178.2960  140.4220 C   0  0  0  0  0  3  0  0  0  0  0  0
  186.0090  178.0750  141.6460 C   0  0  0  0  0  3  0  0  0  0  0  0
  183.2570  178.2870  141.5960 N   0  0  0  0  0  0  0  0  0  0  0  0
  185.3390  178.1870  140.4270 C   0  0  0  0  0  3  0  0  0  0  0  0
  185.2840  178.0720  142.8450 C   0  0  0  0  0  0  0  0  0  0  0  0
  188.9920  176.3740  147.0300 N   0  0  0  0  0  2  0  0  0  0  0  0
  189.7720  175.1750  147.1270 C   0  0  0  0  0  0  0  0  0  0  0  0
  189.3920  174.1100  146.5720 O   0  0  0  0  0  0  0  0  0  0  0  0
  190.9580  175.1870  147.8500 O   0  0  0  0  0  1  0  0  0  0  0  0
  188.9630  175.8430  143.7210 O   0  0  0  0  0  0  0  0  0  0  0  0
  188.6720  175.2930  142.4740 C   0  0  0  0  0  2  0  0  0  0  0  0
  189.7670  174.3150  142.0830 C   0  0  0  0  0  2  0  0  0  0  0  0
  190.9240  174.4010  143.0600 C   0  0  0  0  0  2  0  0  0  0  0  0
  192.2070  174.7590  142.3300 C   0  0  0  0  0  2  0  0  0  0  0  0
  194.0400  176.2720  142.4620 O   0  0  0  0  0  1  0  0  0  0  0  0
  192.6790  176.1450  142.7460 C   0  0  2  0  0  3  0  0  0  0  0  0
  191.7020  177.5340  144.4350 O   0  0  0  0  0  1  0  0  0  0  0  0
  192.4350  176.3620  144.2380 C   0  0  2  0  0  3  0  0  0  0  0  0
  195.1660  175.2790  146.2530 O   0  0  0  0  0  1  0  0  0  0  0  0
  193.7550  176.4750  144.9830 C   0  0  1  0  0  3  0  0  0  0  0  0
  193.5170  176.7280  146.2970 O   0  0  0  0  0  0  0  0  0  0  0  0
  193.8510  175.4250  145.9650 N   0  0  0  0  0  0  0  0  0  0  0  0
  2  8  2  0  0  0  0
  3 15  1  1  0  0  0
  3  1  1  0  0  0  0
  4 14  1  6  0  0  0
  4  7  1  0  0  0  0
  4  2  1  0  0  0  0
  5  3  1  0  0  0  0
  6  7  1  0  0  0  0
  6  5  1  0  0  0  0
  7  5  1  0  0  0  0
  8  1  1  0  0  0  0
  9 14  1  0  0  0  0
 10 13  2  0  0  0  0
 10 12  1  0  0  0  0
 11 14  2  0  0  0  0
 12  9  2  0  0  0  0
 13 11  1  0  0  0  0
 15 16  1  0  0  0  0
 16 18  1  0  0  0  0
 17 16  2  0  0  0  0
 19  6  1  0  0  0  0
 20 19  1  0  0  0  0
 21 20  1  0  0  0  0
 21 22  1  0  0  0  0
 23 25  1  0  0  0  0
 23 22  1  0  0  0  0
 24 25  1  0  0  0  0
 25 27  1  0  0  0  0
 27 26  1  0  0  0  0
 27 29  1  0  0  0  0
 29 31  1  0  0  0  0
 29 30  1  0  0  0  0
 31 28  1  0  0  0  0
 31 30  1  0  0  0  0
M  END
>  <MODEL>
3

>  <REMARK>
 VINA RESULT:      -6.6      2.148      5.092
  Name = 
  10 active torsions:
  status: ('A' for Active; 'I' for Inactive)
    1  A    between atoms: C_4  and  C_23
    2  A    between atoms: C_4  and  C_26
    3  A    between atoms: C_6  and  N_10
    4  A    between atoms: C_7  and  C_25
    5  A    between atoms: O_8  and  C_20
    6  A    between atoms: O_8  and  C_28
    7  A    between atoms: C_9  and  C_30
    8  A    between atoms: C_17  and  C_25
    9  A    between atoms: C_17  and  C_26
   10  A    between atoms: C_23  and  C_28
                            x       y       z     vdW  Elec       q    Type
                         _______ _______ _______ _____ _____    ______ ____

>  <TORSDO>
F 10

$$$$
=
 OpenBabel11062421253D

 31 34  0  0  1  0  0  0  0  0999 V2000
  186.8660  177.4540  147.1760 C   0  0  0  0  0  2  0  0  0  0  0  0
  185.1350  177.9620  145.3080 C   0  0  0  0  0  3  0  0  0  0  0  0
  187.8790  176.6850  146.3070 C   0  0  1  0  0  3  0  0  0  0  0  0
  186.1100  178.0980  144.1560 C   0  0  1  0  0  3  0  0  0  0  0  0
  188.0390  177.4990  145.0490 C   0  0  1  0  0  3  0  0  0  0  0  0
  188.3500  177.0460  143.6970 C   0  0  2  0  0  3  0  0  0  0  0  0
  186.9760  176.9390  144.2010 N   0  0  2  0  0  0  0  0  0  0  0  0
  185.4720  177.6500  146.5840 C   0  0  0  0  0  3  0  0  0  0  0  0
  186.1160  178.2600  141.6600 C   0  0  0  0  0  3  0  0  0  0  0  0
  184.1120  178.3160  140.3850 C   0  0  0  0  0  3  0  0  0  0  0  0
  183.9850  178.1610  142.7850 C   0  0  0  0  0  3  0  0  0  0  0  0
  185.4710  178.3290  140.4650 N   0  0  0  0  0  0  0  0  0  0  0  0
  183.3430  178.2340  141.5480 C   0  0  0  0  0  3  0  0  0  0  0  0
  185.3850  178.1720  142.8490 C   0  0  0  0  0  0  0  0  0  0  0  0
  189.1570  176.5360  147.0000 N   0  0  0  0  0  2  0  0  0  0  0  0
  189.8160  175.2880  147.2480 C   0  0  0  0  0  0  0  0  0  0  0  0
  189.3020  174.2000  146.8770 O   0  0  0  0  0  0  0  0  0  0  0  0
  191.0360  175.2790  147.9130 O   0  0  0  0  0  1  0  0  0  0  0  0
  188.9650  175.7930  143.7390 O   0  0  0  0  0  0  0  0  0  0  0  0
  189.8630  175.8090  142.6730 C   0  0  0  0  0  2  0  0  0  0  0  0
  190.9780  176.7990  142.9630 C   0  0  0  0  0  2  0  0  0  0  0  0
  192.0920  176.1240  143.7410 C   0  0  0  0  0  2  0  0  0  0  0  0
  192.3860  176.8940  145.0180 C   0  0  0  0  0  2  0  0  0  0  0  0
  194.5090  177.4510  145.9390 O   0  0  0  0  0  1  0  0  0  0  0  0
  193.6630  176.3750  145.6620 C   0  0  2  0  0  3  0  0  0  0  0  0
  194.3630  174.1120  145.3040 O   0  0  0  0  0  1  0  0  0  0  0  0
  194.3620  175.3860  144.7310 C   0  0  2  0  0  3  0  0  0  0  0  0
  197.0600  176.9730  143.0310 O   0  0  0  0  0  1  0  0  0  0  0  0
  195.7990  175.8150  144.4810 C   0  0  1  0  0  3  0  0  0  0  0  0
  196.3810  174.9640  143.5970 O   0  0  0  0  0  0  0  0  0  0  0  0
  195.9610  176.1850  143.0970 N   0  0  0  0  0  0  0  0  0  0  0  0
  2  8  2  0  0  0  0
  3 15  1  1  0  0  0
  3  1  1  0  0  0  0
  4 14  1  6  0  0  0
  4  7  1  0  0  0  0
  4  2  1  0  0  0  0
  5  3  1  0  0  0  0
  6 19  1  0  0  0  0
  6  7  1  0  0  0  0
  6  5  1  0  0  0  0
  7  5  1  0  0  0  0
  8  1  1  0  0  0  0
  9 14  1  0  0  0  0
 10 12  1  0  0  0  0
 10 13  2  0  0  0  0
 11 14  2  0  0  0  0
 12  9  2  0  0  0  0
 13 11  1  0  0  0  0
 15 16  1  0  0  0  0
 16 18  1  0  0  0  0
 17 16  2  0  0  0  0
 20 21  1  0  0  0  0
 20 19  1  0  0  0  0
 21 22  1  0  0  0  0
 22 23  1  0  0  0  0
 23 25  1  0  0  0  0
 25 24  1  0  0  0  0
 27 26  1  0  0  0  0
 27 25  1  0  0  0  0
 28 31  1  0  0  0  0
 29 27  1  0  0  0  0
 30 29  1  0  0  0  0
 31 30  1  0  0  0  0
 31 29  1  0  0  0  0
M  END
>  <MODEL>
4

>  <REMARK>
 VINA RESULT:      -6.5      2.113      5.038
  Name = 
  10 active torsions:
  status: ('A' for Active; 'I' for Inactive)
    1  A    between atoms: C_4  and  C_23
    2  A    between atoms: C_4  and  C_26
    3  A    between atoms: C_6  and  N_10
    4  A    between atoms: C_7  and  C_25
    5  A    between atoms: O_8  and  C_20
    6  A    between atoms: O_8  and  C_28
    7  A    between atoms: C_9  and  C_30
    8  A    between atoms: C_17  and  C_25
    9  A    between atoms: C_17  and  C_26
   10  A    between atoms: C_23  and  C_28
                            x       y       z     vdW  Elec       q    Type
                         _______ _______ _______ _____ _____    ______ ____

>  <TORSDO>
F 10

$$$$
=
 OpenBabel11062421253D

 31 34  0  0  1  0  0  0  0  0999 V2000
  186.6780  177.5720  147.2370 C   0  0  0  0  0  2  0  0  0  0  0  0
  184.9270  178.0920  145.3930 C   0  0  0  0  0  3  0  0  0  0  0  0
  187.6270  176.7150  146.3790 C   0  0  1  0  0  3  0  0  0  0  0  0
  185.8760  178.1280  144.2120 C   0  0  1  0  0  3  0  0  0  0  0  0
  187.7940  177.4660  145.0830 C   0  0  1  0  0  3  0  0  0  0  0  0
  188.0460  176.9410  143.7440 C   0  0  2  0  0  3  0  0  0  0  0  0
  186.6820  176.9280  144.2860 N   0  0  2  0  0  0  0  0  0  0  0  0
  185.2800  177.8170  146.6720 C   0  0  0  0  0  3  0  0  0  0  0  0
  185.8220  178.1460  141.7120 C   0  0  0  0  0  3  0  0  0  0  0  0
  183.7930  178.2900  140.4850 C   0  0  0  0  0  3  0  0  0  0  0  0
  183.7230  178.2820  142.8930 C   0  0  0  0  0  3  0  0  0  0  0  0
  185.1500  178.1980  140.5300 N   0  0  0  0  0  0  0  0  0  0  0  0
  183.0540  178.3350  141.6690 C   0  0  0  0  0  3  0  0  0  0  0  0
  185.1210  178.1850  142.9210 C   0  0  0  0  0  0  0  0  0  0  0  0
  188.9130  176.5280  147.0460 N   0  0  0  0  0  2  0  0  0  0  0  0
  189.5530  175.2630  147.2570 C   0  0  0  0  0  0  0  0  0  0  0  0
  189.0120  174.1930  146.8720 O   0  0  0  0  0  0  0  0  0  0  0  0
  190.7830  175.2180  147.9000 O   0  0  0  0  0  1  0  0  0  0  0  0
  188.5960  175.6600  143.8260 O   0  0  0  0  0  0  0  0  0  0  0  0
  189.9700  175.8620  143.7030 C   0  0  0  0  0  2  0  0  0  0  0  0
  190.2290  177.0440  142.7840 C   0  0  0  0  0  2  0  0  0  0  0  0
  191.5290  177.7290  143.1590 C   0  0  0  0  0  2  0  0  0  0  0  0
  191.9220  177.3720  144.5830 C   0  0  0  0  0  2  0  0  0  0  0  0
  193.6820  176.3680  143.3340 O   0  0  0  0  0  1  0  0  0  0  0  0
  193.3360  176.8120  144.6130 C   0  0  2  0  0  3  0  0  0  0  0  0
  194.5460  175.8260  146.4300 O   0  0  0  0  0  1  0  0  0  0  0  0
  193.4290  175.6570  145.6090 C   0  0  2  0  0  3  0  0  0  0  0  0
  192.3180  172.5990  144.1590 O   0  0  0  0  0  1  0  0  0  0  0  0
  193.5510  174.3310  144.8770 C   0  0  1  0  0  3  0  0  0  0  0  0
  193.6140  173.3170  145.7790 O   0  0  0  0  0  0  0  0  0  0  0  0
  192.3950  173.5160  145.1530 N   0  0  0  0  0  0  0  0  0  0  0  0
  2  8  2  0  0  0  0
  3 15  1  1  0  0  0
  3  1  1  0  0  0  0
  4 14  1  6  0  0  0
  4  7  1  0  0  0  0
  4  2  1  0  0  0  0
  5  3  1  0  0  0  0
  6 19  1  0  0  0  0
  6  7  1  0  0  0  0
  6  5  1  0  0  0  0
  7  5  1  0  0  0  0
  8  1  1  0  0  0  0
  9 14  1  0  0  0  0
 10 12  1  0  0  0  0
 10 13  2  0  0  0  0
 11 14  2  0  0  0  0
 12  9  2  0  0  0  0
 13 11  1  0  0  0  0
 15 16  1  0  0  0  0
 16 18  1  0  0  0  0
 17 16  2  0  0  0  0
 20 19  1  0  0  0  0
 21 22  1  0  0  0  0
 21 20  1  0  0  0  0
 22 23  1  0  0  0  0
 23 25  1  0  0  0  0
 24 25  1  0  0  0  0
 25 27  1  0  0  0  0
 27 26  1  0  0  0  0
 28 31  1  0  0  0  0
 29 31  1  0  0  0  0
 29 27  1  0  0  0  0
 29 30  1  0  0  0  0
 31 30  1  0  0  0  0
M  END
>  <MODEL>
5

>  <REMARK>
 VINA RESULT:      -6.4      2.240      5.217
  Name = 
  10 active torsions:
  status: ('A' for Active; 'I' for Inactive)
    1  A    between atoms: C_4  and  C_23
    2  A    between atoms: C_4  and  C_26
    3  A    between atoms: C_6  and  N_10
    4  A    between atoms: C_7  and  C_25
    5  A    between atoms: O_8  and  C_20
    6  A    between atoms: O_8  and  C_28
    7  A    between atoms: C_9  and  C_30
    8  A    between atoms: C_17  and  C_25
    9  A    between atoms: C_17  and  C_26
   10  A    between atoms: C_23  and  C_28
                            x       y       z     vdW  Elec       q    Type
                         _______ _______ _______ _____ _____    ______ ____

>  <TORSDO>
F 10

$$$$
=
 OpenBabel11062421253D

 31 34  0  0  1  0  0  0  0  0999 V2000
  190.8000  175.0700  146.5340 C   0  0  0  0  0  2  0  0  0  0  0  0
  188.3400  175.7150  147.0540 C   0  0  0  0  0  3  0  0  0  0  0  0
  190.8860  175.7120  145.1370 C   0  0  1  0  0  3  0  0  0  0  0  0
  188.3120  177.0350  146.3100 C   0  0  1  0  0  3  0  0  0  0  0  0
  190.2610  177.0770  145.2760 C   0  0  1  0  0  3  0  0  0  0  0  0
  189.5430  177.8630  144.2780 C   0  0  2  0  0  3  0  0  0  0  0  0
  188.8500  176.7840  144.9900 N   0  0  2  0  0  0  0  0  0  0  0  0
  189.3990  174.8710  147.1080 C   0  0  0  0  0  3  0  0  0  0  0  0
  186.3750  178.2570  147.3160 C   0  0  0  0  0  3  0  0  0  0  0  0
  184.3340  178.5880  146.1480 C   0  0  0  0  0  3  0  0  0  0  0  0
  186.1310  177.3930  145.0780 C   0  0  0  0  0  3  0  0  0  0  0  0
  185.1090  178.7480  147.2560 N   0  0  0  0  0  0  0  0  0  0  0  0
  184.8330  177.9040  145.0370 C   0  0  0  0  0  3  0  0  0  0  0  0
  186.9160  177.5700  146.2250 C   0  0  0  0  0  0  0  0  0  0  0  0
  192.2740  175.8140  144.6910 N   0  0  0  0  0  2  0  0  0  0  0  0
  192.7560  175.3970  143.4070 C   0  0  0  0  0  0  0  0  0  0  0  0
  191.9790  174.8850  142.5590 O   0  0  0  0  0  0  0  0  0  0  0  0
  194.1010  175.5530  143.0980 O   0  0  0  0  0  1  0  0  0  0  0  0
  189.8830  177.4350  142.9930 O   0  0  0  0  0  0  0  0  0  0  0  0
  188.9290  178.0250  142.1640 C   0  0  0  0  0  2  0  0  0  0  0  0
  187.9410  176.9690  141.6970 C   0  0  0  0  0  2  0  0  0  0  0  0
  188.6220  175.6170  141.5970 C   0  0  0  0  0  2  0  0  0  0  0  0
  187.8130  174.5620  142.3320 C   0  0  0  0  0  2  0  0  0  0  0  0
  189.0080  172.5250  142.6290 O   0  0  0  0  0  1  0  0  0  0  0  0
  188.1200  173.1810  141.7730 C   0  0  2  0  0  3  0  0  0  0  0  0
  187.8380  172.8010  139.4250 O   0  0  0  0  0  1  0  0  0  0  0  0
  188.7310  173.2980  140.3780 C   0  0  2  0  0  3  0  0  0  0  0  0
  192.2260  172.7740  139.9330 O   0  0  0  0  0  1  0  0  0  0  0  0
  190.0280  172.5100  140.2960 C   0  0  1  0  0  3  0  0  0  0  0  0
  190.3150  172.2370  138.9960 O   0  0  0  0  0  0  0  0  0  0  0  0
  191.0180  173.2760  139.5830 N   0  0  0  0  0  0  0  0  0  0  0  0
  1  8  1  0  0  0  0
  2  8  2  0  0  0  0
  3 15  1  1  0  0  0
  3  5  1  0  0  0  0
  3  1  1  0  0  0  0
  4 14  1  6  0  0  0
  4  2  1  0  0  0  0
  6  7  1  0  0  0  0
  6  5  1  0  0  0  0
  7  5  1  0  0  0  0
  7  4  1  0  0  0  0
 10 12  2  0  0  0  0
 11 14  1  0  0  0  0
 12  9  1  0  0  0  0
 13 11  2  0  0  0  0
 13 10  1  0  0  0  0
 14  9  2  0  0  0  0
 16 15  1  0  0  0  0
 17 16  2  0  0  0  0
 18 16  1  0  0  0  0
 19  6  1  0  0  0  0
 20 19  1  0  0  0  0
 21 20  1  0  0  0  0
 22 21  1  0  0  0  0
 22 23  1  0  0  0  0
 25 23  1  0  0  0  0
 25 24  1  0  0  0  0
 26 27  1  0  0  0  0
 27 25  1  0  0  0  0
 29 27  1  0  0  0  0
 30 31  1  0  0  0  0
 30 29  1  0  0  0  0
 31 28  1  0  0  0  0
 31 29  1  0  0  0  0
M  END
>  <MODEL>
6

>  <REMARK>
 VINA RESULT:      -6.4      2.817      5.968
  Name = 
  10 active torsions:
  status: ('A' for Active; 'I' for Inactive)
    1  A    between atoms: C_4  and  C_23
    2  A    between atoms: C_4  and  C_26
    3  A    between atoms: C_6  and  N_10
    4  A    between atoms: C_7  and  C_25
    5  A    between atoms: O_8  and  C_20
    6  A    between atoms: O_8  and  C_28
    7  A    between atoms: C_9  and  C_30
    8  A    between atoms: C_17  and  C_25
    9  A    between atoms: C_17  and  C_26
   10  A    between atoms: C_23  and  C_28
                            x       y       z     vdW  Elec       q    Type
                         _______ _______ _______ _____ _____    ______ ____

>  <TORSDO>
F 10

$$$$
=
 OpenBabel11062421253D

 31 34  0  0  1  0  0  0  0  0999 V2000
  190.8980  174.9460  146.4530 C   0  0  0  0  0  2  0  0  0  0  0  0
  188.4490  175.4750  147.1350 C   0  0  0  0  0  3  0  0  0  0  0  0
  190.9210  175.7540  145.1420 C   0  0  1  0  0  3  0  0  0  0  0  0
  188.3740  176.8750  146.5590 C   0  0  1  0  0  3  0  0  0  0  0  0
  190.2820  177.0790  145.4680 C   0  0  1  0  0  3  0  0  0  0  0  0
  189.5140  177.9650  144.5990 C   0  0  2  0  0  3  0  0  0  0  0  0
  188.8650  176.7950  145.2000 N   0  0  2  0  0  0  0  0  0  0  0  0
  189.5230  174.6520  147.0490 C   0  0  0  0  0  3  0  0  0  0  0  0
  186.0970  177.0710  145.5420 C   0  0  0  0  0  3  0  0  0  0  0  0
  184.3470  178.3060  146.5700 C   0  0  0  0  0  3  0  0  0  0  0  0
  186.5010  178.1880  147.6410 C   0  0  0  0  0  3  0  0  0  0  0  0
  184.8170  177.5310  145.5540 N   0  0  0  0  0  0  0  0  0  0  0  0
  185.1850  178.6510  147.6330 C   0  0  0  0  0  3  0  0  0  0  0  0
  186.9680  177.3880  146.5890 C   0  0  0  0  0  0  0  0  0  0  0  0
  192.2890  175.9350  144.6620 N   0  0  0  0  0  2  0  0  0  0  0  0
  192.7080  175.7830  143.3000 C   0  0  0  0  0  0  0  0  0  0  0  0
  191.8870  175.4570  142.4030 O   0  0  0  0  0  0  0  0  0  0  0  0
  194.0410  175.9910  142.9670 O   0  0  0  0  0  1  0  0  0  0  0  0
  189.8110  177.7020  143.2600 O   0  0  0  0  0  0  0  0  0  0  0  0
  188.6130  177.9280  142.5850 C   0  0  0  0  0  2  0  0  0  0  0  0
  188.3410  176.7740  141.6350 C   0  0  0  0  0  2  0  0  0  0  0  0
  187.4910  175.7190  142.3180 C   0  0  0  0  0  2  0  0  0  0  0  0
  188.3430  174.5220  142.7050 C   0  0  0  0  0  2  0  0  0  0  0  0
  187.3380  172.5580  141.8150 O   0  0  0  0  0  1  0  0  0  0  0  0
  188.3470  173.4940  141.5830 C   0  0  2  0  0  3  0  0  0  0  0  0
  189.6930  171.8460  140.4840 O   0  0  0  0  0  1  0  0  0  0  0  0
  189.7030  172.7940  141.5100 C   0  0  2  0  0  3  0  0  0  0  0  0
  191.5680  172.0000  144.4380 O   0  0  0  0  0  1  0  0  0  0  0  0
  190.0140  172.0960  142.8230 C   0  0  1  0  0  3  0  0  0  0  0  0
  190.8470  171.0480  142.5970 O   0  0  0  0  0  0  0  0  0  0  0  0
  191.4230  172.1990  143.1070 N   0  0  0  0  0  0  0  0  0  0  0  0
  1  8  1  0  0  0  0
  3 15  1  1  0  0  0
  3  5  1  0  0  0  0
  3  1  1  0  0  0  0
  4 14  1  6  0  0  0
  4  2  1  0  0  0  0
  6  7  1  0  0  0  0
  6  5  1  0  0  0  0
  7  5  1  0  0  0  0
  7  4  1  0  0  0  0
  8  2  2  0  0  0  0
  9 12  2  0  0  0  0
  9 14  1  0  0  0  0
 10 13  2  0  0  0  0
 12 10  1  0  0  0  0
 13 11  1  0  0  0  0
 14 11  2  0  0  0  0
 16 15  1  0  0  0  0
 17 16  2  0  0  0  0
 18 16  1  0  0  0  0
 19  6  1  0  0  0  0
 20 19  1  0  0  0  0
 21 22  1  0  0  0  0
 21 20  1  0  0  0  0
 22 23  1  0  0  0  0
 25 24  1  0  0  0  0
 25 23  1  0  0  0  0
 26 27  1  0  0  0  0
 27 25  1  0  0  0  0
 27 29  1  0  0  0  0
 29 31  1  0  0  0  0
 30 29  1  0  0  0  0
 30 31  1  0  0  0  0
 31 28  1  0  0  0  0
M  END
>  <MODEL>
7

>  <REMARK>
 VINA RESULT:      -6.4      2.535      5.750
  Name = 
  10 active torsions:
  status: ('A' for Active; 'I' for Inactive)
    1  A    between atoms: C_4  and  C_23
    2  A    between atoms: C_4  and  C_26
    3  A    between atoms: C_6  and  N_10
    4  A    between atoms: C_7  and  C_25
    5  A    between atoms: O_8  and  C_20
    6  A    between atoms: O_8  and  C_28
    7  A    between atoms: C_9  and  C_30
    8  A    between atoms: C_17  and  C_25
    9  A    between atoms: C_17  and  C_26
   10  A    between atoms: C_23  and  C_28
                            x       y       z     vdW  Elec       q    Type
                         _______ _______ _______ _____ _____    ______ ____

>  <TORSDO>
F 10

$$$$
=
 OpenBabel11062421253D

 31 34  0  0  1  0  0  0  0  0999 V2000
  190.1610  175.6170  147.3200 C   0  0  0  0  0  2  0  0  0  0  0  0
  187.7530  176.0420  146.4470 C   0  0  0  0  0  3  0  0  0  0  0  0
  190.9180  176.1170  146.0760 C   0  0  1  0  0  3  0  0  0  0  0  0
  188.0530  177.2680  145.6080 C   0  0  1  0  0  3  0  0  0  0  0  0
  190.2540  177.4130  145.6880 C   0  0  1  0  0  3  0  0  0  0  0  0
  190.1110  178.0100  144.3640 C   0  0  2  0  0  3  0  0  0  0  0  0
  189.1970  176.9420  144.7830 N   0  0  2  0  0  0  0  0  0  0  0  0
  188.6720  175.3270  147.1420 C   0  0  0  0  0  3  0  0  0  0  0  0
  186.5330  176.8360  143.6680 C   0  0  0  0  0  3  0  0  0  0  0  0
  184.7030  178.2570  143.1450 C   0  0  0  0  0  3  0  0  0  0  0  0
  186.1010  178.7740  145.0370 C   0  0  0  0  0  3  0  0  0  0  0  0
  185.4660  177.1580  142.8900 N   0  0  0  0  0  0  0  0  0  0  0  0
  185.0100  179.0870  144.2260 C   0  0  0  0  0  3  0  0  0  0  0  0
  186.8730  177.6370  144.7630 C   0  0  0  0  0  0  0  0  0  0  0  0
  192.3340  176.3210  146.3710 N   0  0  0  0  0  2  0  0  0  0  0  0
  193.3600  175.3360  146.1950 C   0  0  0  0  0  0  0  0  0  0  0  0
  193.0840  174.1840  145.7680 O   0  0  0  0  0  0  0  0  0  0  0  0
  194.6760  175.6550  146.5050 O   0  0  0  0  0  1  0  0  0  0  0  0
  191.0730  177.4910  143.4960 O   0  0  0  0  0  0  0  0  0  0  0  0
  190.3830  176.5550  142.7280 C   0  0  0  0  0  2  0  0  0  0  0  0
  191.2360  175.3080  142.5620 C   0  0  0  0  0  2  0  0  0  0  0  0
  190.4170  174.0660  142.8600 C   0  0  0  0  0  2  0  0  0  0  0  0
  188.9720  174.2720  142.4380 C   0  0  0  0  0  2  0  0  0  0  0  0
  188.9320  171.9210  142.8080 O   0  0  0  0  0  1  0  0  0  0  0  0
  188.3410  172.9400  142.0580 C   0  0  2  0  0  3  0  0  0  0  0  0
  189.7370  171.9910  140.3580 O   0  0  0  0  0  1  0  0  0  0  0  0
  188.5330  172.6690  140.5670 C   0  0  2  0  0  3  0  0  0  0  0  0
  187.7880  174.9110  137.9010 O   0  0  0  0  0  1  0  0  0  0  0  0
  188.5610  173.9740  139.7870 C   0  0  1  0  0  3  0  0  0  0  0  0
  189.5110  173.9070  138.8190 O   0  0  0  0  0  0  0  0  0  0  0  0
  188.1990  173.7270  138.4150 N   0  0  0  0  0  0  0  0  0  0  0  0
  2  8  2  0  0  0  0
  3 15  1  1  0  0  0
  3  1  1  0  0  0  0
  4 14  1  6  0  0  0
  4  2  1  0  0  0  0
  5  3  1  0  0  0  0
  6  7  1  0  0  0  0
  6  5  1  0  0  0  0
  7  4  1  0  0  0  0
  7  5  1  0  0  0  0
  8  1  1  0  0  0  0
  9 14  1  0  0  0  0
 10 13  2  0  0  0  0
 12 10  1  0  0  0  0
 12  9  2  0  0  0  0
 13 11  1  0  0  0  0
 14 11  2  0  0  0  0
 16 15  1  0  0  0  0
 16 18  1  0  0  0  0
 17 16  2  0  0  0  0
 19  6  1  0  0  0  0
 20 19  1  0  0  0  0
 21 20  1  0  0  0  0
 21 22  1  0  0  0  0
 23 22  1  0  0  0  0
 25 23  1  0  0  0  0
 25 24  1  0  0  0  0
 26 27  1  0  0  0  0
 27 25  1  0  0  0  0
 28 31  1  0  0  0  0
 29 27  1  0  0  0  0
 30 29  1  0  0  0  0
 31 30  1  0  0  0  0
 31 29  1  0  0  0  0
M  END
>  <MODEL>
8

>  <REMARK>
 VINA RESULT:      -6.3      2.644      6.670
  Name = 
  10 active torsions:
  status: ('A' for Active; 'I' for Inactive)
    1  A    between atoms: C_4  and  C_23
    2  A    between atoms: C_4  and  C_26
    3  A    between atoms: C_6  and  N_10
    4  A    between atoms: C_7  and  C_25
    5  A    between atoms: O_8  and  C_20
    6  A    between atoms: O_8  and  C_28
    7  A    between atoms: C_9  and  C_30
    8  A    between atoms: C_17  and  C_25
    9  A    between atoms: C_17  and  C_26
   10  A    between atoms: C_23  and  C_28
                            x       y       z     vdW  Elec       q    Type
                         _______ _______ _______ _____ _____    ______ ____

>  <TORSDO>
F 10

$$$$
=
 OpenBabel11062421253D

 31 34  0  0  1  0  0  0  0  0999 V2000
  186.6700  177.3410  147.2610 C   0  0  0  0  0  2  0  0  0  0  0  0
  184.9670  177.8520  145.3700 C   0  0  0  0  0  3  0  0  0  0  0  0
  187.7280  176.6340  146.3940 C   0  0  1  0  0  3  0  0  0  0  0  0
  185.9630  178.0570  144.2460 C   0  0  1  0  0  3  0  0  0  0  0  0
  187.8890  177.4930  145.1660 C   0  0  1  0  0  3  0  0  0  0  0  0
  188.2460  177.0940  143.8080 C   0  0  2  0  0  3  0  0  0  0  0  0
  186.8660  176.9260  144.2760 N   0  0  2  0  0  0  0  0  0  0  0  0
  185.2840  177.5110  146.6430 C   0  0  0  0  0  3  0  0  0  0  0  0
  183.8690  178.2190  142.8880 C   0  0  0  0  0  3  0  0  0  0  0  0
  183.8960  178.3170  140.5150 C   0  0  0  0  0  3  0  0  0  0  0  0
  185.9770  178.1610  141.7180 C   0  0  0  0  0  3  0  0  0  0  0  0
  183.2200  178.3010  141.6960 N   0  0  0  0  0  0  0  0  0  0  0  0
  185.2910  178.2450  140.5060 C   0  0  0  0  0  3  0  0  0  0  0  0
  185.2650  178.1490  142.9250 C   0  0  0  0  0  0  0  0  0  0  0  0
  188.9940  176.5050  147.1130 N   0  0  0  0  0  2  0  0  0  0  0  0
  189.7370  175.2880  147.2530 C   0  0  0  0  0  0  0  0  0  0  0  0
  189.3170  174.2110  146.7540 O   0  0  0  0  0  0  0  0  0  0  0  0
  190.9350  175.2960  147.9560 O   0  0  0  0  0  1  0  0  0  0  0  0
  188.9020  175.8610  143.8260 O   0  0  0  0  0  0  0  0  0  0  0  0
  190.0910  176.0880  143.1340 C   0  0  0  0  0  2  0  0  0  0  0  0
  191.2190  176.3110  144.1260 C   0  0  0  0  0  2  0  0  0  0  0  0
  192.5350  175.8290  143.5450 C   0  0  0  0  0  2  0  0  0  0  0  0
  192.4970  174.3260  143.3250 C   0  0  0  0  0  2  0  0  0  0  0  0
  193.2210  173.3830  145.3870 O   0  0  0  0  0  1  0  0  0  0  0  0
  192.0860  173.6180  144.6080 C   0  0  2  0  0  3  0  0  0  0  0  0
  192.3420  171.2850  144.1310 O   0  0  0  0  0  1  0  0  0  0  0  0
  191.3920  172.2960  144.2850 C   0  0  2  0  0  3  0  0  0  0  0  0
  188.4850  172.6670  142.2600 O   0  0  0  0  0  1  0  0  0  0  0  0
  190.5880  172.4160  143.0010 C   0  0  1  0  0  3  0  0  0  0  0  0
  190.0690  171.2050  142.6720 O   0  0  0  0  0  0  0  0  0  0  0  0
  189.2040  172.1100  143.2630 N   0  0  0  0  0  0  0  0  0  0  0  0
  2  8  2  0  0  0  0
  3 15  1  1  0  0  0
  3  1  1  0  0  0  0
  4 14  1  6  0  0  0
  4  7  1  0  0  0  0
  4  2  1  0  0  0  0
  5  3  1  0  0  0  0
  6 19  1  0  0  0  0
  6  7  1  0  0  0  0
  6  5  1  0  0  0  0
  7  5  1  0  0  0  0
  8  1  1  0  0  0  0
  9 14  1  0  0  0  0
 10 12  1  0  0  0  0
 11 14  2  0  0  0  0
 12  9  2  0  0  0  0
 13 10  2  0  0  0  0
 13 11  1  0  0  0  0
 15 16  1  0  0  0  0
 16 18  1  0  0  0  0
 17 16  2  0  0  0  0
 20 19  1  0  0  0  0
 20 21  1  0  0  0  0
 22 21  1  0  0  0  0
 23 22  1  0  0  0  0
 23 25  1  0  0  0  0
 25 24  1  0  0  0  0
 26 27  1  0  0  0  0
 27 25  1  0  0  0  0
 28 31  1  0  0  0  0
 29 31  1  0  0  0  0
 29 27  1  0  0  0  0
 30 29  1  0  0  0  0
 30 31  1  0  0  0  0
M  END
>  <MODEL>
9

>  <REMARK>
 VINA RESULT:      -6.3      2.748      5.837
  Name = 
  10 active torsions:
  status: ('A' for Active; 'I' for Inactive)
    1  A    between atoms: C_4  and  C_23
    2  A    between atoms: C_4  and  C_26
    3  A    between atoms: C_6  and  N_10
    4  A    between atoms: C_7  and  C_25
    5  A    between atoms: O_8  and  C_20
    6  A    between atoms: O_8  and  C_28
    7  A    between atoms: C_9  and  C_30
    8  A    between atoms: C_17  and  C_25
    9  A    between atoms: C_17  and  C_26
   10  A    between atoms: C_23  and  C_28
                            x       y       z     vdW  Elec       q    Type
                         _______ _______ _______ _____ _____    ______ ____

>  <TORSDO>
F 10

$$$$
