=
 OpenBabel11062419523D

 30 36  0  0  1  0  0  0  0  0999 V2000
  189.4840  177.3340  142.6400 C   0  0  2  0  0  3  0  0  0  0  0  0
  190.1220  176.7940  145.5540 C   0  0  0  0  0  0  0  0  0  0  0  0
  184.0610  178.8140  146.2720 N   0  0  0  0  0  0  0  0  0  0  0  0
  189.3500  175.9010  142.1010 C   0  0  1  0  0  3  0  0  0  0  0  0
  187.4090  178.1340  145.3720 C   0  0  0  0  0  2  0  0  0  0  0  0
  187.4380  176.8190  140.5280 C   0  0  0  0  0  0  0  0  0  0  0  0
  188.6940  176.3000  143.4270 C   0  0  1  0  0  3  0  0  0  0  0  0
  187.4200  174.6070  141.4220 O   0  0  0  0  0  0  0  0  0  0  0  0
  188.5700  178.4260  142.0200 C   0  0  0  0  0  2  0  0  0  0  0  0
  191.3550  177.0110  145.3920 O   0  0  0  0  0  0  0  0  0  0  0  0
  189.4220  175.7780  144.6780 C   0  0  1  0  0  3  0  0  0  0  0  0
  185.4970  178.8670  142.9320 C   0  0  1  0  0  3  0  0  0  0  0  0
  188.2520  174.3790  140.3090 C   0  0  0  0  0  2  0  0  0  0  0  0
  187.2220  177.9930  141.4200 C   0  0  2  0  0  3  0  0  0  0  0  0
  187.3010  177.9130  147.7990 C   0  0  0  0  0  3  0  0  0  0  0  0
  186.2090  177.6540  142.5100 C   0  0  2  0  0  3  0  0  0  0  0  0
  188.2610  175.6690  141.0390 C   0  0  2  0  0  0  0  0  0  0  0  0
  184.4740  177.7270  141.9010 S   0  0  0  0  0  0  0  0  0  0  0  0
  189.4230  177.4770  146.6080 N   0  0  0  0  0  2  0  0  0  0  0  0
  185.3410  178.4990  146.5450 C   0  0  0  0  0  0  0  0  0  0  0  0
  185.9290  178.2500  147.7850 C   0  0  0  0  0  3  0  0  0  0  0  0
  183.9590  178.9650  144.9510 N   0  0  0  0  0  0  0  0  0  0  0  0
  186.0620  178.4550  145.3950 C   0  0  0  0  0  0  0  0  0  0  0  0
  185.1730  178.7440  144.3910 C   0  0  0  0  0  0  0  0  0  0  0  0
  188.0350  177.8240  146.5880 C   0  0  0  0  0  0  0  0  0  0  0  0
  186.9710  176.8170  139.3990 O   0  0  0  0  0  0  0  0  0  0  0  0
  190.1520  174.4430  144.5140 C   0  0  0  0  0  2  0  0  0  0  0  0
  189.6650  173.4280  145.4980 C   0  0  0  0  0  0  0  0  0  0  0  0
  189.5580  172.0620  145.1150 N   0  0  0  0  0  1  0  0  0  0  0  0
  189.3050  173.7810  146.6540 O   0  0  0  0  0  0  0  0  0  0  0  0
  1  9  1  6  0  0  0
  1  7  1  0  0  0  0
  2 19  1  0  0  0  0
  3 20  1  0  0  0  0
  4  1  1  0  0  0  0
  4  7  1  0  0  0  0
  5 23  1  0  0  0  0
  5 25  1  0  0  0  0
  6 17  1  0  0  0  0
  6 14  1  0  0  0  0
  7 11  1  0  0  0  0
 10  2  2  0  0  0  0
 11  2  1  0  0  0  0
 12 24  1  0  0  0  0
 13 17  1  0  0  0  0
 13  8  1  0  0  0  0
 14  9  1  0  0  0  0
 14 16  1  0  0  0  0
 16 12  1  0  0  0  0
 17  8  1  0  0  0  0
 17  4  1  0  0  0  0
 18 16  1  0  0  0  0
 18 12  1  0  0  0  0
 20 21  2  0  0  0  0
 21 15  1  0  0  0  0
 22  3  2  0  0  0  0
 23 20  1  0  0  0  0
 24 22  1  0  0  0  0
 24 23  2  0  0  0  0
 25 19  1  0  0  0  0
 25 15  2  0  0  0  0
 26  6  2  0  0  0  0
 27 11  1  0  0  0  0
 27 28  1  0  0  0  0
 28 30  2  0  0  0  0
 29 28  1  0  0  0  0
M  END
>  <MODEL>
1

>  <REMARK>
 VINA RESULT:      -8.1      0.000      0.000
  Name = 
  2 active torsions:
  status: ('A' for Active; 'I' for Inactive)
    1  A    between atoms: C_11  and  C_27
    2  A    between atoms: C_18  and  C_27
                            x       y       z     vdW  Elec       q    Type
                         _______ _______ _______ _____ _____    ______ ____

>  <TORSDO>
F 2

$$$$
=
 OpenBabel11062419523D

 30 36  0  0  1  0  0  0  0  0999 V2000
  190.4780  173.6340  144.6520 C   0  0  2  0  0  3  0  0  0  0  0  0
  190.0900  173.9480  141.6610 C   0  0  0  0  0  0  0  0  0  0  0  0
  186.2210  178.6940  143.6220 N   0  0  0  0  0  0  0  0  0  0  0  0
  191.8970  174.1990  144.8220 C   0  0  1  0  0  3  0  0  0  0  0  0
  188.1570  175.7840  143.1040 C   0  0  0  0  0  3  0  0  0  0  0  0
  191.0810  175.1720  147.1380 C   0  0  0  0  0  0  0  0  0  0  0  0
  190.8660  174.9270  143.9530 C   0  0  1  0  0  3  0  0  0  0  0  0
  192.7010  176.2730  145.7760 O   0  0  0  0  0  0  0  0  0  0  0  0
  189.4650  173.8690  145.8050 C   0  0  0  0  0  2  0  0  0  0  0  0
  190.3300  172.7300  141.4360 O   0  0  0  0  0  0  0  0  0  0  0  0
  191.0920  174.7740  142.4390 C   0  0  1  0  0  3  0  0  0  0  0  0
  187.8180  176.6320  146.1560 C   0  0  1  0  0  3  0  0  0  0  0  0
  193.5570  175.3710  146.4370 C   0  0  0  0  0  2  0  0  0  0  0  0
  189.6570  175.1010  146.7030 C   0  0  2  0  0  3  0  0  0  0  0  0
  187.4380  176.5230  140.8940 C   0  0  0  0  0  3  0  0  0  0  0  0
  189.2550  176.3860  145.9830 C   0  0  2  0  0  3  0  0  0  0  0  0
  192.1570  175.0160  146.1000 C   0  0  2  0  0  0  0  0  0  0  0  0
  188.8880  177.7590  147.1520 S   0  0  0  0  0  0  0  0  0  0  0  0
  188.8950  174.5390  141.1240 N   0  0  0  0  0  2  0  0  0  0  0  0
  186.7850  177.7440  142.8530 C   0  0  0  0  0  0  0  0  0  0  0  0
  186.7330  177.6050  141.4660 C   0  0  0  0  0  3  0  0  0  0  0  0
  186.5360  178.4220  144.8890 N   0  0  0  0  0  2  0  0  0  0  0  0
  187.4590  176.8580  143.6310 C   0  0  0  0  0  0  0  0  0  0  0  0
  187.2990  177.3030  144.9190 C   0  0  0  0  0  0  0  0  0  0  0  0
  188.1780  175.6300  141.7110 C   0  0  0  0  0  0  0  0  0  0  0  0
  191.3510  175.3300  148.3190 O   0  0  0  0  0  0  0  0  0  0  0  0
  192.5490  174.6200  141.9960 C   0  0  0  0  0  2  0  0  0  0  0  0
  193.3630  175.8200  142.3610 C   0  0  0  0  0  0  0  0  0  0  0  0
  194.7290  175.6660  142.7320 N   0  0  0  0  0  1  0  0  0  0  0  0
  192.8360  176.9650  142.3870 O   0  0  0  0  0  0  0  0  0  0  0  0
  1  4  1  0  0  0  0
  1  9  1  1  0  0  0
  2 11  1  0  0  0  0
  3 22  1  0  0  0  0
  4 17  1  0  0  0  0
  5 23  1  0  0  0  0
  6 26  2  0  0  0  0
  7  1  1  0  0  0  0
  7  4  1  0  0  0  0
  8 17  1  0  0  0  0
  8 13  1  0  0  0  0
  9 14  1  0  0  0  0
 10  2  2  0  0  0  0
 11  7  1  0  0  0  0
 12 18  1  0  0  0  0
 14  6  1  0  0  0  0
 15 21  2  0  0  0  0
 15 25  1  0  0  0  0
 16 12  1  0  0  0  0
 16 14  1  0  0  0  0
 16 18  1  0  0  0  0
 17 13  1  0  0  0  0
 17  6  1  0  0  0  0
 19  2  1  0  0  0  0
 19 25  1  0  0  0  0
 20  3  2  0  0  0  0
 20 23  1  0  0  0  0
 21 20  1  0  0  0  0
 22 24  1  0  0  0  0
 23 24  2  0  0  0  0
 24 12  1  0  0  0  0
 25  5  2  0  0  0  0
 27 28  1  0  0  0  0
 27 11  1  0  0  0  0
 28 30  2  0  0  0  0
 28 29  1  0  0  0  0
M  END
>  <MODEL>
2

>  <REMARK>
 VINA RESULT:      -7.5      2.863      5.606
  Name = 
  2 active torsions:
  status: ('A' for Active; 'I' for Inactive)
    1  A    between atoms: C_11  and  C_27
    2  A    between atoms: C_18  and  C_27
                            x       y       z     vdW  Elec       q    Type
                         _______ _______ _______ _____ _____    ______ ____

>  <TORSDO>
F 2

$$$$
=
 OpenBabel11062419523D

 30 36  0  0  1  0  0  0  0  0999 V2000
  189.8200  172.8680  144.6700 C   0  0  2  0  0  3  0  0  0  0  0  0
  189.8310  175.0950  146.7260 C   0  0  0  0  0  0  0  0  0  0  0  0
  195.9010  175.6620  144.6820 N   0  0  0  0  0  0  0  0  0  0  0  0
  188.9770  173.5060  143.5540 C   0  0  1  0  0  3  0  0  0  0  0  0
  192.6500  174.7040  145.6810 C   0  0  0  0  0  3  0  0  0  0  0  0
  190.5470  172.2500  141.8410 C   0  0  0  0  0  0  0  0  0  0  0  0
  190.0830  174.3060  144.2510 C   0  0  1  0  0  3  0  0  0  0  0  0
  189.5800  174.3820  141.3800 O   0  0  0  0  0  0  0  0  0  0  0  0
  190.9700  171.9120  144.2480 C   0  0  0  0  0  2  0  0  0  0  0  0
  188.9420  174.5410  147.4280 O   0  0  0  0  0  0  0  0  0  0  0  0
  189.5710  175.3510  145.2570 C   0  0  1  0  0  3  0  0  0  0  0  0
  193.8750  172.9760  143.3020 C   0  0  1  0  0  3  0  0  0  0  0  0
  188.4920  173.5700  141.0060 C   0  0  0  0  0  2  0  0  0  0  0  0
  191.6170  172.1160  142.8690 C   0  0  2  0  0  3  0  0  0  0  0  0
  193.2890  176.5560  147.1350 C   0  0  0  0  0  3  0  0  0  0  0  0
  192.5260  173.3430  142.8550 C   0  0  2  0  0  3  0  0  0  0  0  0
  189.4050  173.1910  142.1100 C   0  0  2  0  0  0  0  0  0  0  0  0
  193.7550  173.2870  141.4870 S   0  0  0  0  0  0  0  0  0  0  0  0
  191.0520  175.5240  147.3520 N   0  0  0  0  0  2  0  0  0  0  0  0
  194.8000  175.7590  145.4500 C   0  0  2  0  0  3  0  0  0  0  0  0
  194.5460  176.6450  146.4970 C   0  0  0  0  0  3  0  0  0  0  0  0
  195.6970  174.6710  143.8130 N   0  0  0  0  0  0  0  0  0  0  0  0
  193.8910  174.8220  145.0750 C   0  0  0  0  0  0  0  0  0  0  0  0
  194.4680  174.1440  144.0320 C   0  0  0  0  0  0  0  0  0  0  0  0
  192.3270  175.6050  146.7050 C   0  0  0  0  0  0  0  0  0  0  0  0
  190.5970  171.5840  140.8180 O   0  0  0  0  0  0  0  0  0  0  0  0
  188.2120  175.9750  144.9340 C   0  0  0  0  0  2  0  0  0  0  0  0
  188.3390  177.4290  144.6080 C   0  0  0  0  0  0  0  0  0  0  0  0
  187.1760  178.1980  144.3230 N   0  0  0  0  0  1  0  0  0  0  0  0
  189.4760  177.9700  144.5380 O   0  0  0  0  0  0  0  0  0  0  0  0
  1  9  1  6  0  0  0
  2 19  1  0  0  0  0
  2 10  2  0  0  0  0
  3 20  1  0  0  0  0
  4  7  1  0  0  0  0
  4  1  1  0  0  0  0
  5 25  2  0  0  0  0
  6 17  1  0  0  0  0
  6 14  1  0  0  0  0
  7  1  1  0  0  0  0
  7 11  1  0  0  0  0
  8 17  1  0  0  0  0
 11  2  1  0  0  0  0
 12 24  1  0  0  0  0
 13  8  1  0  0  0  0
 13 17  1  0  0  0  0
 14  9  1  0  0  0  0
 16 14  1  0  0  0  0
 16 12  1  0  0  0  0
 17  4  1  0  0  0  0
 18 16  1  0  0  0  0
 18 12  1  0  0  0  0
 20 21  1  0  0  0  0
 21 15  2  0  0  0  0
 22 24  1  0  0  0  0
 22  3  2  0  0  0  0
 23 20  1  0  0  0  0
 23  5  1  0  0  0  0
 24 23  2  0  0  0  0
 25 15  1  0  0  0  0
 25 19  1  0  0  0  0
 26  6  2  0  0  0  0
 27 11  1  0  0  0  0
 28 27  1  0  0  0  0
 29 28  1  0  0  0  0
 30 28  2  0  0  0  0
M  END
>  <MODEL>
3

>  <REMARK>
 VINA RESULT:      -7.3      3.783      6.821
  Name = 
  2 active torsions:
  status: ('A' for Active; 'I' for Inactive)
    1  A    between atoms: C_11  and  C_27
    2  A    between atoms: C_18  and  C_27
                            x       y       z     vdW  Elec       q    Type
                         _______ _______ _______ _____ _____    ______ ____

>  <TORSDO>
F 2

$$$$
=
 OpenBabel11062419523D

 30 36  0  0  1  0  0  0  0  0999 V2000
  190.4420  177.6570  144.8090 C   0  0  2  0  0  3  0  0  0  0  0  0
  187.5780  177.2110  143.9190 C   0  0  0  0  0  0  0  0  0  0  0  0
  190.0380  171.5710  142.0550 N   0  0  0  0  0  0  0  0  0  0  0  0
  190.2960  177.5280  146.3330 C   0  0  1  0  0  3  0  0  0  0  0  0
  189.2870  174.9100  142.9300 C   0  0  0  0  0  3  0  0  0  0  0  0
  192.6770  176.3860  146.3250 C   0  0  0  0  0  0  0  0  0  0  0  0
  189.6160  176.5230  145.3970 C   0  0  1  0  0  3  0  0  0  0  0  0
  190.9660  175.7860  147.8740 O   0  0  0  0  0  0  0  0  0  0  0  0
  191.7620  177.1510  144.1650 C   0  0  0  0  0  2  0  0  0  0  0  0
  187.3700  178.4440  143.7490 O   0  0  0  0  0  0  0  0  0  0  0  0
  188.0970  176.7190  145.2530 C   0  0  1  0  0  3  0  0  0  0  0  0
  192.2990  174.0340  143.4840 C   0  0  1  0  0  3  0  0  0  0  0  0
  191.4850  176.9050  148.5540 C   0  0  0  0  0  2  0  0  0  0  0  0
  192.5410  176.0370  144.8820 C   0  0  2  0  0  3  0  0  0  0  0  0
  187.2320  173.9710  142.0130 C   0  0  0  0  0  3  0  0  0  0  0  0
  191.8540  174.6840  144.7240 C   0  0  2  0  0  3  0  0  0  0  0  0
  191.4540  176.8360  147.0740 C   0  0  2  0  0  0  0  0  0  0  0  0
  193.0040  173.2760  145.0130 S   0  0  0  0  0  0  0  0  0  0  0  0
  187.2630  176.2940  142.8580 N   0  0  0  0  0  2  0  0  0  0  0  0
  189.2190  172.6340  142.1540 C   0  0  0  0  0  0  0  0  0  0  0  0
  187.8800  172.7370  141.7790 C   0  0  0  0  0  3  0  0  0  0  0  0
  191.2290  171.9360  142.5330 N   0  0  0  0  0  2  0  0  0  0  0  0
  189.8900  173.6860  142.6920 C   0  0  0  0  0  0  0  0  0  0  0  0
  191.1600  173.2280  142.9350 C   0  0  0  0  0  0  0  0  0  0  0  0
  187.9270  175.0490  142.6190 C   0  0  0  0  0  0  0  0  0  0  0  0
  193.7710  176.3260  146.8660 O   0  0  0  0  0  0  0  0  0  0  0  0
  187.3800  177.2830  146.4810 C   0  0  0  0  0  2  0  0  0  0  0  0
  185.9110  177.4300  146.2390 C   0  0  0  0  0  0  0  0  0  0  0  0
  185.3040  178.7150  146.3120 N   0  0  0  0  0  1  0  0  0  0  0  0
  185.1970  176.4160  146.0140 O   0  0  0  0  0  0  0  0  0  0  0  0
  1  9  1  1  0  0  0
  1  7  1  0  0  0  0
  1  4  1  0  0  0  0
  2 11  1  0  0  0  0
  3 20  2  0  0  0  0
  3 22  1  0  0  0  0
  4 17  1  0  0  0  0
  6 26  2  0  0  0  0
  6 17  1  0  0  0  0
  7  4  1  0  0  0  0
  8 13  1  0  0  0  0
  9 14  1  0  0  0  0
 10  2  2  0  0  0  0
 11  7  1  0  0  0  0
 11 27  1  0  0  0  0
 12 16  1  0  0  0  0
 12 18  1  0  0  0  0
 14  6  1  0  0  0  0
 15 25  1  0  0  0  0
 16 14  1  0  0  0  0
 16 18  1  0  0  0  0
 17  8  1  0  0  0  0
 17 13  1  0  0  0  0
 19  2  1  0  0  0  0
 20 23  1  0  0  0  0
 21 15  2  0  0  0  0
 21 20  1  0  0  0  0
 22 24  1  0  0  0  0
 23  5  1  0  0  0  0
 23 24  2  0  0  0  0
 24 12  1  0  0  0  0
 25 19  1  0  0  0  0
 25  5  2  0  0  0  0
 28 29  1  0  0  0  0
 28 27  1  0  0  0  0
 30 28  2  0  0  0  0
M  END
>  <MODEL>
4

>  <REMARK>
 VINA RESULT:      -7.2      3.090      6.860
  Name = 
  2 active torsions:
  status: ('A' for Active; 'I' for Inactive)
    1  A    between atoms: C_11  and  C_27
    2  A    between atoms: C_18  and  C_27
                            x       y       z     vdW  Elec       q    Type
                         _______ _______ _______ _____ _____    ______ ____

>  <TORSDO>
F 2

$$$$
=
 OpenBabel11062419523D

 30 36  0  0  1  0  0  0  0  0999 V2000
  192.3550  176.9840  143.1250 C   0  0  2  0  0  3  0  0  0  0  0  0
  189.3320  177.1060  142.9330 C   0  0  0  0  0  0  0  0  0  0  0  0
  190.0760  170.7700  142.1340 N   0  0  0  0  0  0  0  0  0  0  0  0
  192.5610  177.2090  144.6310 C   0  0  1  0  0  3  0  0  0  0  0  0
  190.2500  174.2970  142.2570 C   0  0  0  0  0  3  0  0  0  0  0  0
  194.5880  175.5240  144.4650 C   0  0  0  0  0  0  0  0  0  0  0  0
  191.4860  176.2400  144.1260 C   0  0  1  0  0  3  0  0  0  0  0  0
  193.2180  175.7050  146.4100 O   0  0  0  0  0  0  0  0  0  0  0  0
  193.3500  176.0410  142.3940 C   0  0  0  0  0  2  0  0  0  0  0  0
  189.3420  178.2910  142.4970 O   0  0  0  0  0  0  0  0  0  0  0  0
  190.0490  176.7800  144.2250 C   0  0  1  0  0  3  0  0  0  0  0  0
  193.0650  172.8180  142.4390 C   0  0  1  0  0  3  0  0  0  0  0  0
  194.1010  176.7690  146.6720 C   0  0  0  0  0  2  0  0  0  0  0  0
  194.0390  174.9360  143.2100 C   0  0  2  0  0  3  0  0  0  0  0  0
  187.8870  173.7420  142.0130 C   0  0  0  0  0  3  0  0  0  0  0  0
  193.0750  173.7970  143.5330 C   0  0  2  0  0  3  0  0  0  0  0  0
  193.6990  176.4110  145.2910 C   0  0  2  0  0  0  0  0  0  0  0  0
  193.9520  172.2340  143.9490 S   0  0  0  0  0  0  0  0  0  0  0  0
  188.5910  176.1030  142.2180 N   0  0  0  0  0  2  0  0  0  0  0  0
  189.5380  172.0040  142.1120 C   0  0  0  0  0  0  0  0  0  0  0  0
  188.1970  172.3640  141.9830 C   0  0  0  0  0  3  0  0  0  0  0  0
  191.3950  170.9120  142.2710 N   0  0  0  0  0  2  0  0  0  0  0  0
  190.5170  172.9380  142.2290 C   0  0  0  0  0  0  0  0  0  0  0  0
  191.6880  172.2330  142.3370 C   0  0  0  0  0  0  0  0  0  0  0  0
  188.9120  174.7090  142.1830 C   0  0  0  0  0  0  0  0  0  0  0  0
  195.7450  175.3000  144.7870 O   0  0  0  0  0  0  0  0  0  0  0  0
  189.7790  177.7450  145.3820 C   0  0  0  0  0  2  0  0  0  0  0  0
  189.6070  177.0160  146.6760 C   0  0  0  0  0  0  0  0  0  0  0  0
  188.4680  176.1860  146.8780 N   0  0  0  0  0  1  0  0  0  0  0  0
  190.4420  177.1660  147.6090 O   0  0  0  0  0  0  0  0  0  0  0  0
  1  9  1  1  0  0  0
  1  7  1  0  0  0  0
  1  4  1  0  0  0  0
  2 11  1  0  0  0  0
  3 22  1  0  0  0  0
  4 17  1  0  0  0  0
  6 26  2  0  0  0  0
  6 17  1  0  0  0  0
  7 11  1  0  0  0  0
  7  4  1  0  0  0  0
  8 13  1  0  0  0  0
  9 14  1  0  0  0  0
 10  2  2  0  0  0  0
 11 27  1  0  0  0  0
 12 16  1  0  0  0  0
 12 18  1  0  0  0  0
 14 16  1  0  0  0  0
 14  6  1  0  0  0  0
 15 25  1  0  0  0  0
 16 18  1  0  0  0  0
 17  8  1  0  0  0  0
 17 13  1  0  0  0  0
 19  2  1  0  0  0  0
 20  3  2  0  0  0  0
 20 23  1  0  0  0  0
 21 15  2  0  0  0  0
 21 20  1  0  0  0  0
 22 24  1  0  0  0  0
 23  5  1  0  0  0  0
 23 24  2  0  0  0  0
 24 12  1  0  0  0  0
 25 19  1  0  0  0  0
 25  5  2  0  0  0  0
 27 28  1  0  0  0  0
 28 29  1  0  0  0  0
 28 30  2  0  0  0  0
M  END
>  <MODEL>
5

>  <REMARK>
 VINA RESULT:      -6.9      3.730      7.157
  Name = 
  2 active torsions:
  status: ('A' for Active; 'I' for Inactive)
    1  A    between atoms: C_11  and  C_27
    2  A    between atoms: C_18  and  C_27
                            x       y       z     vdW  Elec       q    Type
                         _______ _______ _______ _____ _____    ______ ____

>  <TORSDO>
F 2

$$$$
=
 OpenBabel11062419523D

 30 36  0  0  1  0  0  0  0  0999 V2000
  188.1130  173.0720  142.2680 C   0  0  2  0  0  3  0  0  0  0  0  0
  187.4240  175.8190  143.3520 C   0  0  0  0  0  0  0  0  0  0  0  0
  193.0930  175.0390  146.2830 N   0  0  0  0  0  0  0  0  0  0  0  0
  188.4760  173.4150  140.8150 C   0  0  1  0  0  3  0  0  0  0  0  0
  189.9230  174.8100  144.7410 C   0  0  0  0  0  2  0  0  0  0  0  0
  190.3070  171.5190  140.9700 C   0  0  0  0  0  0  0  0  0  0  0  0
  189.0060  174.2670  141.9730 C   0  0  1  0  0  3  0  0  0  0  0  0
  190.6000  173.4900  139.6580 O   0  0  0  0  0  0  0  0  0  0  0  0
  188.8880  171.9120  142.9500 C   0  0  0  0  0  2  0  0  0  0  0  0
  186.1820  175.6150  143.2610 O   0  0  0  0  0  0  0  0  0  0  0  0
  188.3030  175.6260  142.1350 C   0  0  1  0  0  3  0  0  0  0  0  0
  191.8210  172.2960  144.2640 C   0  0  1  0  0  3  0  0  0  0  0  0
  189.8630  172.7270  138.7330 C   0  0  0  0  0  2  0  0  0  0  0  0
  190.3100  171.5990  142.4580 C   0  0  2  0  0  3  0  0  0  0  0  0
  189.9490  176.9420  145.9240 C   0  0  0  0  0  3  0  0  0  0  0  0
  191.3100  172.6500  142.9330 C   0  0  2  0  0  3  0  0  0  0  0  0
  189.6340  172.6170  140.1930 C   0  0  2  0  0  0  0  0  0  0  0  0
  193.0430  172.0310  142.9060 S   0  0  0  0  0  0  0  0  0  0  0  0
  187.9690  176.2850  144.5980 N   0  0  0  0  0  2  0  0  0  0  0  0
  191.8600  175.4940  145.9920 C   0  0  0  0  0  0  0  0  0  0  0  0
  191.2580  176.6870  146.3900 C   0  0  0  0  0  3  0  0  0  0  0  0
  193.2340  173.8540  145.6880 N   0  0  0  0  0  0  0  0  0  0  0  0
  191.2070  174.5930  145.2120 C   0  0  0  0  0  0  0  0  0  0  0  0
  192.0910  173.5620  145.0210 C   0  0  0  0  0  0  0  0  0  0  0  0
  189.2920  176.0170  145.0720 C   0  0  0  0  0  0  0  0  0  0  0  0
  190.8210  170.5630  140.4090 O   0  0  0  0  0  0  0  0  0  0  0  0
  187.7810  176.2620  140.8450 C   0  0  0  0  0  2  0  0  0  0  0  0
  187.4760  177.7140  141.0350 C   0  0  0  0  0  0  0  0  0  0  0  0
  186.1600  178.2010  140.7930 N   0  0  0  0  0  1  0  0  0  0  0  0
  188.3870  178.5200  141.3630 O   0  0  0  0  0  0  0  0  0  0  0  0
  1  9  1  1  0  0  0
  2 19  1  0  0  0  0
  4  7  1  0  0  0  0
  4  1  1  0  0  0  0
  5 25  1  0  0  0  0
  5 23  1  0  0  0  0
  6 14  1  0  0  0  0
  7 11  1  0  0  0  0
  7  1  1  0  0  0  0
  8 17  1  0  0  0  0
 10  2  2  0  0  0  0
 11  2  1  0  0  0  0
 12 24  1  0  0  0  0
 13  8  1  0  0  0  0
 13 17  1  0  0  0  0
 14 16  1  0  0  0  0
 14  9  1  0  0  0  0
 15 21  1  0  0  0  0
 16 12  1  0  0  0  0
 17  4  1  0  0  0  0
 17  6  1  0  0  0  0
 18 16  1  0  0  0  0
 18 12  1  0  0  0  0
 19 25  1  0  0  0  0
 20  3  1  0  0  0  0
 20 21  2  0  0  0  0
 22  3  2  0  0  0  0
 23 20  1  0  0  0  0
 24 23  2  0  0  0  0
 24 22  1  0  0  0  0
 25 15  2  0  0  0  0
 26  6  2  0  0  0  0
 27 28  1  0  0  0  0
 27 11  1  0  0  0  0
 28 30  2  0  0  0  0
 29 28  1  0  0  0  0
M  END
>  <MODEL>
6

>  <REMARK>
 VINA RESULT:      -6.8      3.509      6.301
  Name = 
  2 active torsions:
  status: ('A' for Active; 'I' for Inactive)
    1  A    between atoms: C_11  and  C_27
    2  A    between atoms: C_18  and  C_27
                            x       y       z     vdW  Elec       q    Type
                         _______ _______ _______ _____ _____    ______ ____

>  <TORSDO>
F 2

$$$$
=
 OpenBabel11062419523D

 30 36  0  0  1  0  0  0  0  0999 V2000
  194.7240  173.2340  143.2650 C   0  0  2  0  0  3  0  0  0  0  0  0
  191.9210  172.1120  142.9900 C   0  0  0  0  0  0  0  0  0  0  0  0
  190.7690  176.4070  147.6330 N   0  0  0  0  0  0  0  0  0  0  0  0
  194.8280  174.0740  141.9820 C   0  0  1  0  0  3  0  0  0  0  0  0
  191.9990  173.9940  145.3650 C   0  0  0  0  0  3  0  0  0  0  0  0
  196.2470  175.7980  143.3910 C   0  0  0  0  0  0  0  0  0  0  0  0
  193.5670  174.1320  142.8510 C   0  0  1  0  0  3  0  0  0  0  0  0
  194.8020  176.4660  141.6140 O   0  0  0  0  0  0  0  0  0  0  0  0
  195.4520  173.7600  144.5310 C   0  0  0  0  0  2  0  0  0  0  0  0
  192.3390  170.9890  142.5920 O   0  0  0  0  0  0  0  0  0  0  0  0
  192.3630  173.3690  142.2730 C   0  0  1  0  0  3  0  0  0  0  0  0
  194.1910  176.0250  146.4670 C   0  0  1  0  0  3  0  0  0  0  0  0
  195.9360  176.1290  140.8500 C   0  0  0  0  0  2  0  0  0  0  0  0
  195.6800  175.2740  144.6650 C   0  0  2  0  0  3  0  0  0  0  0  0
  189.6200  173.5270  145.6280 C   0  0  0  0  0  3  0  0  0  0  0  0
  194.3850  176.0050  145.0120 C   0  0  2  0  0  3  0  0  0  0  0  0
  195.5910  175.4050  142.0970 C   0  0  2  0  0  0  0  0  0  0  0  0
  194.6920  177.6560  145.7630 S   0  0  0  0  0  0  0  0  0  0  0  0
  190.9880  172.1650  144.0820 N   0  0  0  0  0  2  0  0  0  0  0  0
  190.6390  175.3410  146.8210 C   0  0  0  0  0  0  0  0  0  0  0  0
  189.4940  174.5950  146.5430 C   0  0  0  0  0  3  0  0  0  0  0  0
  192.0460  176.7900  147.5900 N   0  0  0  0  0  2  0  0  0  0  0  0
  191.8390  175.0370  146.2630 C   0  0  0  0  0  0  0  0  0  0  0  0
  192.7200  175.9670  146.7520 C   0  0  0  0  0  0  0  0  0  0  0  0
  190.8680  173.2460  145.0130 C   0  0  0  0  0  0  0  0  0  0  0  0
  197.2400  176.5110  143.4130 O   0  0  0  0  0  0  0  0  0  0  0  0
  192.2820  173.3130  140.7460 C   0  0  0  0  0  2  0  0  0  0  0  0
  190.8680  173.4120  140.2680 C   0  0  0  0  0  0  0  0  0  0  0  0
  189.9170  174.1640  141.0130 N   0  0  0  0  0  1  0  0  0  0  0  0
  190.5010  172.7940  139.2320 O   0  0  0  0  0  0  0  0  0  0  0  0
  1  9  1  1  0  0  0
  2 19  1  0  0  0  0
  4 17  1  0  0  0  0
  4  7  1  0  0  0  0
  4  1  1  0  0  0  0
  5 23  1  0  0  0  0
  6 26  2  0  0  0  0
  6 14  1  0  0  0  0
  7  1  1  0  0  0  0
  8 17  1  0  0  0  0
  9 14  1  0  0  0  0
 10  2  2  0  0  0  0
 11  7  1  0  0  0  0
 11  2  1  0  0  0  0
 12 24  1  0  0  0  0
 13  8  1  0  0  0  0
 13 17  1  0  0  0  0
 14 16  1  0  0  0  0
 15 21  2  0  0  0  0
 16 18  1  0  0  0  0
 16 12  1  0  0  0  0
 17  6  1  0  0  0  0
 18 12  1  0  0  0  0
 19 25  1  0  0  0  0
 20  3  2  0  0  0  0
 21 20  1  0  0  0  0
 22  3  1  0  0  0  0
 23 24  2  0  0  0  0
 23 20  1  0  0  0  0
 24 22  1  0  0  0  0
 25  5  2  0  0  0  0
 25 15  1  0  0  0  0
 27 11  1  0  0  0  0
 28 27  1  0  0  0  0
 28 29  1  0  0  0  0
 30 28  2  0  0  0  0
M  END
>  <MODEL>
7

>  <REMARK>
 VINA RESULT:      -6.6      5.091      7.346
  Name = 
  2 active torsions:
  status: ('A' for Active; 'I' for Inactive)
    1  A    between atoms: C_11  and  C_27
    2  A    between atoms: C_18  and  C_27
                            x       y       z     vdW  Elec       q    Type
                         _______ _______ _______ _____ _____    ______ ____

>  <TORSDO>
F 2

$$$$
=
 OpenBabel11062419523D

 30 36  0  0  1  0  0  0  0  0999 V2000
  193.8520  173.8720  145.6280 C   0  0  2  0  0  3  0  0  0  0  0  0
  192.9160  171.3790  144.1800 C   0  0  0  0  0  0  0  0  0  0  0  0
  188.0770  175.2890  142.5570 N   0  0  0  0  0  0  0  0  0  0  0  0
  195.0190  174.3100  144.7280 C   0  0  1  0  0  3  0  0  0  0  0  0
  190.7450  173.4880  144.0140 C   0  0  0  0  0  3  0  0  0  0  0  0
  194.3080  176.7990  145.2550 C   0  0  0  0  0  0  0  0  0  0  0  0
  193.6840  173.8720  144.1170 C   0  0  1  0  0  3  0  0  0  0  0  0
  195.2470  176.1420  143.1620 O   0  0  0  0  0  0  0  0  0  0  0  0
  193.0130  174.9850  146.3130 C   0  0  0  0  0  2  0  0  0  0  0  0
  193.4990  170.6090  144.9920 O   0  0  0  0  0  0  0  0  0  0  0  0
  193.7050  172.4680  143.4870 C   0  0  1  0  0  3  0  0  0  0  0  0
  190.6360  176.5730  144.7980 C   0  0  1  0  0  3  0  0  0  0  0  0
  196.4420  176.3100  143.8870 C   0  0  0  0  0  2  0  0  0  0  0  0
  192.9350  176.3610  145.6330 C   0  0  2  0  0  3  0  0  0  0  0  0
  189.4860  171.8770  142.6840 C   0  0  0  0  0  3  0  0  0  0  0  0
  192.0290  176.3260  144.4050 C   0  0  2  0  0  3  0  0  0  0  0  0
  195.1990  175.8260  144.5330 C   0  0  2  0  0  0  0  0  0  0  0  0
  191.4260  177.9990  143.9320 S   0  0  0  0  0  0  0  0  0  0  0  0
  191.5250  171.1660  143.8880 N   0  0  0  0  0  2  0  0  0  0  0  0
  188.7900  174.1710  142.7900 C   0  0  0  0  0  0  0  0  0  0  0  0
  188.5670  172.8820  142.3060 C   0  0  0  0  0  3  0  0  0  0  0  0
  188.6590  176.2820  143.2300 N   0  0  0  0  0  2  0  0  0  0  0  0
  189.8280  174.4490  143.6200 C   0  0  0  0  0  0  0  0  0  0  0  0
  189.7390  175.7920  143.8850 C   0  0  0  0  0  0  0  0  0  0  0  0
  190.5940  172.1870  143.5130 C   0  0  0  0  0  0  0  0  0  0  0  0
  194.6950  177.9180  145.5530 O   0  0  0  0  0  0  0  0  0  0  0  0
  195.0440  172.0270  142.8920 C   0  0  0  0  0  2  0  0  0  0  0  0
  195.2940  172.6720  141.5660 C   0  0  0  0  0  0  0  0  0  0  0  0
  196.4720  173.4450  141.3630 N   0  0  0  0  0  1  0  0  0  0  0  0
  194.4450  172.5750  140.6390 O   0  0  0  0  0  0  0  0  0  0  0  0
  1  9  1  1  0  0  0
  2 10  2  0  0  0  0
  3 20  2  0  0  0  0
  3 22  1  0  0  0  0
  4  1  1  0  0  0  0
  6 26  2  0  0  0  0
  6 14  1  0  0  0  0
  7  4  1  0  0  0  0
  7  1  1  0  0  0  0
  8 13  1  0  0  0  0
  8 17  1  0  0  0  0
 11  7  1  0  0  0  0
 11  2  1  0  0  0  0
 13 17  1  0  0  0  0
 14  9  1  0  0  0  0
 15 25  1  0  0  0  0
 16 12  1  0  0  0  0
 16 14  1  0  0  0  0
 17  4  1  0  0  0  0
 17  6  1  0  0  0  0
 18 16  1  0  0  0  0
 18 12  1  0  0  0  0
 19  2  1  0  0  0  0
 20 23  1  0  0  0  0
 21 15  2  0  0  0  0
 21 20  1  0  0  0  0
 22 24  1  0  0  0  0
 23 24  2  0  0  0  0
 23  5  1  0  0  0  0
 24 12  1  0  0  0  0
 25 19  1  0  0  0  0
 25  5  2  0  0  0  0
 27 11  1  0  0  0  0
 28 27  1  0  0  0  0
 29 28  1  0  0  0  0
 30 28  2  0  0  0  0
M  END
>  <MODEL>
8

>  <REMARK>
 VINA RESULT:      -6.6      4.457      7.059
  Name = 
  2 active torsions:
  status: ('A' for Active; 'I' for Inactive)
    1  A    between atoms: C_11  and  C_27
    2  A    between atoms: C_18  and  C_27
                            x       y       z     vdW  Elec       q    Type
                         _______ _______ _______ _____ _____    ______ ____

>  <TORSDO>
F 2

$$$$
=
 OpenBabel11062419523D

 30 36  0  0  1  0  0  0  0  0999 V2000
  191.0320  173.4740  145.3870 C   0  0  2  0  0  3  0  0  0  0  0  0
  191.6670  171.9730  142.8310 C   0  0  0  0  0  0  0  0  0  0  0  0
  187.4180  176.1620  140.4360 N   0  0  0  0  0  0  0  0  0  0  0  0
  192.3180  174.2940  145.5700 C   0  0  1  0  0  3  0  0  0  0  0  0
  189.3830  173.8950  142.3020 C   0  0  0  0  0  3  0  0  0  0  0  0
  190.7880  176.2240  146.5210 C   0  0  0  0  0  0  0  0  0  0  0  0
  191.6450  174.1960  144.1970 C   0  0  1  0  0  3  0  0  0  0  0  0
  192.7820  176.6520  145.2830 O   0  0  0  0  0  0  0  0  0  0  0  0
  189.6940  174.1200  145.8410 C   0  0  0  0  0  2  0  0  0  0  0  0
  191.9540  170.9110  143.4490 O   0  0  0  0  0  0  0  0  0  0  0  0
  192.3620  173.2650  143.2040 C   0  0  1  0  0  3  0  0  0  0  0  0
  188.0560  176.2290  144.0150 C   0  0  1  0  0  3  0  0  0  0  0  0
  193.3570  176.4590  146.5530 C   0  0  0  0  0  2  0  0  0  0  0  0
  189.5900  175.6530  145.8430 C   0  0  2  0  0  3  0  0  0  0  0  0
  189.4520  173.1120  139.9940 C   0  0  0  0  0  3  0  0  0  0  0  0
  189.4650  176.2060  144.4260 C   0  0  2  0  0  3  0  0  0  0  0  0
  192.1470  175.7190  146.1250 C   0  0  2  0  0  0  0  0  0  0  0  0
  188.7440  177.8990  144.3960 S   0  0  0  0  0  0  0  0  0  0  0  0
  190.7260  171.9200  141.7460 N   0  0  0  0  0  2  0  0  0  0  0  0
  188.1960  175.0720  140.5720 C   0  0  0  0  0  0  0  0  0  0  0  0
  188.6080  174.1710  139.5910 C   0  0  0  0  0  3  0  0  0  0  0  0
  187.2890  176.7150  141.6430 N   0  0  0  0  0  2  0  0  0  0  0  0
  188.5610  174.9240  141.8720 C   0  0  0  0  0  0  0  0  0  0  0  0
  187.9870  175.9760  142.5390 C   0  0  0  0  0  0  0  0  0  0  0  0
  189.8670  172.9920  141.3450 C   0  0  0  0  0  0  0  0  0  0  0  0
  190.6500  177.0670  147.3960 O   0  0  0  0  0  0  0  0  0  0  0  0
  193.8810  173.1670  143.3620 C   0  0  0  0  0  2  0  0  0  0  0  0
  194.5750  174.3160  142.7020 C   0  0  0  0  0  0  0  0  0  0  0  0
  194.4020  174.5450  141.3080 N   0  0  0  0  0  1  0  0  0  0  0  0
  195.3500  175.0580  143.3640 O   0  0  0  0  0  0  0  0  0  0  0  0
  1  4  1  0  0  0  0
  1  9  1  1  0  0  0
  2 11  1  0  0  0  0
  2 10  2  0  0  0  0
  3 20  2  0  0  0  0
  3 22  1  0  0  0  0
  4 17  1  0  0  0  0
  6 26  2  0  0  0  0
  7  1  1  0  0  0  0
  7  4  1  0  0  0  0
  8 17  1  0  0  0  0
  8 13  1  0  0  0  0
  9 14  1  0  0  0  0
 11 27  1  0  0  0  0
 11  7  1  0  0  0  0
 12 18  1  0  0  0  0
 12 16  1  0  0  0  0
 14  6  1  0  0  0  0
 15 25  1  0  0  0  0
 16 14  1  0  0  0  0
 17  6  1  0  0  0  0
 17 13  1  0  0  0  0
 18 16  1  0  0  0  0
 19  2  1  0  0  0  0
 20 23  1  0  0  0  0
 21 15  2  0  0  0  0
 21 20  1  0  0  0  0
 22 24  1  0  0  0  0
 23  5  1  0  0  0  0
 23 24  2  0  0  0  0
 24 12  1  0  0  0  0
 25 19  1  0  0  0  0
 25  5  2  0  0  0  0
 28 27  1  0  0  0  0
 28 30  2  0  0  0  0
 29 28  1  0  0  0  0
M  END
>  <MODEL>
9

>  <REMARK>
 VINA RESULT:      -6.5      3.635      6.341
  Name = 
  2 active torsions:
  status: ('A' for Active; 'I' for Inactive)
    1  A    between atoms: C_11  and  C_27
    2  A    between atoms: C_18  and  C_27
                            x       y       z     vdW  Elec       q    Type
                         _______ _______ _______ _____ _____    ______ ____

>  <TORSDO>
F 2

$$$$
