=
 OpenBabel11072409093D

 57 66  0  0  1  0  0  0  0  0999 V2000
  194.8960  173.0170  140.2780 C   0  0  2  0  0  3  0  0  0  0  0  0
  192.9570  175.7490  142.9980 C   0  0  0  0  0  2  0  0  0  0  0  0
  191.3120  173.8020  140.7130 C   0  0  1  0  0  3  0  0  0  0  0  0
  190.2610  174.6180  144.5240 C   0  0  1  0  0  3  0  0  0  0  0  0
  194.8570  172.0640  141.4670 C   0  0  2  0  0  3  0  0  0  0  0  0
  194.6630  173.9510  145.6610 O   0  0  0  0  0  1  0  0  0  0  0  0
  192.6920  172.4430  144.4360 O   0  0  0  0  0  0  0  0  0  0  0  0
  191.8550  172.8870  141.6470 O   0  0  0  0  0  0  0  0  0  0  0  0
  189.2630  172.5040  140.7050 C   0  0  2  0  0  3  0  0  0  0  0  0
  193.5380  174.5570  145.0950 C   0  0  2  0  0  0  0  0  0  0  0  0
  193.1240  175.7030  146.0120 C   0  0  0  0  0  1  0  0  0  0  0  0
  195.6600  174.1480  142.1960 C   0  0  1  0  0  3  0  0  0  0  0  0
  196.9940  171.2530  142.0030 C   0  0  1  0  0  3  0  0  0  0  0  0
  190.3210  171.6090  140.4510 O   0  0  0  0  0  0  0  0  0  0  0  0
  188.3610  172.4730  139.6450 O   0  0  0  0  0  1  0  0  0  0  0  0
  189.3970  174.5990  142.1720 C   0  0  2  0  0  3  0  0  0  0  0  0
  195.3130  175.1810  143.2690 C   0  0  0  0  0  2  0  0  0  0  0  0
  195.3620  172.7850  142.6390 N   0  0  2  0  0  0  0  0  0  0  0  0
  191.4920  172.3780  140.3900 C   0  0  1  0  0  0  0  0  0  0  0  0
  191.0510  173.7470  145.4890 C   0  0  0  0  0  2  0  0  0  0  0  0
  192.4440  173.5110  144.9780 C   0  0  0  0  0  0  0  0  0  0  0  0
  193.8820  175.1160  143.7270 C   0  0  0  0  0  0  0  0  0  0  0  0
  195.7670  170.8940  141.2190 C   0  0  0  0  0  2  0  0  0  0  0  0
  192.6840  171.8340  139.6040 C   0  0  0  0  0  2  0  0  0  0  0  0
  189.8200  173.9130  140.8660 C   0  0  1  0  0  3  0  0  0  0  0  0
  194.9450  174.3900  140.8870 C   0  0  0  0  0  2  0  0  0  0  0  0
  189.6830  173.7550  143.4110 C   0  0  0  0  0  2  0  0  0  0  0  0
  188.0390  174.9160  142.1220 O   0  0  0  0  0  1  0  0  0  0  0  0
  196.5830  172.1970  143.0360 N   0  0  0  0  0  2  0  0  0  0  0  0
  193.7450  172.8950  139.2660 C   0  0  2  0  0  3  0  0  0  0  0  0
  194.3280  171.1320  135.8840 C   0  0  0  0  0  2  0  0  0  0  0  0
  197.6160  170.8940  137.7340 O   0  0  0  0  0  1  0  0  0  0  0  0
  196.2330  171.0580  137.6220 C   0  0  2  0  0  3  0  0  0  0  0  0
  195.6940  170.5350  136.2700 C   0  0  2  0  0  3  0  0  0  0  0  0
  194.3110  172.7020  137.8600 C   0  0  1  0  0  3  0  0  0  0  0  0
  195.8450  172.5160  137.8600 C   0  0  0  0  0  2  0  0  0  0  0  0
  193.5470  171.5970  137.1090 C   0  0  0  0  0  2  0  0  0  0  0  0
  196.6800  170.6930  135.1120 C   0  0  0  0  0  2  0  0  0  0  0  0
  196.5510  171.9460  134.5150 O   0  0  0  0  0  1  0  0  0  0  0  0
  197.5940  170.0370  142.6180 C   0  0  0  0  0  0  0  0  0  0  0  0
  197.9410  170.0240  143.9640 O   0  0  0  0  0  1  0  0  0  0  0  0
  197.7760  169.0070  141.9180 O   0  0  0  0  0  0  0  0  0  0  0  0
  189.5330  176.7400  145.4960 N   0  0  0  0  0  0  0  0  0  0  0  0
  189.1550  175.3350  145.2830 C   0  0  2  0  0  3  0  0  0  0  0  0
  189.6550  175.7640  146.5850 C   0  0  0  0  0  2  0  0  0  0  0  0
  188.3050  177.4710  145.7440 C   0  0  0  0  0  2  0  0  0  0  0  0
  187.4750  177.5270  144.4660 C   0  0  0  0  0  2  0  0  0  0  0  0
  186.2740  178.4670  144.5970 C   0  0  1  0  0  3  0  0  0  0  0  0
  186.7100  178.4280  142.1340 C   0  0  2  0  0  3  0  0  0  0  0  0
  185.3340  177.8720  142.3750 C   0  0  1  0  0  3  0  0  0  0  0  0
  185.8480  179.0090  143.2380 C   0  0  1  0  0  3  0  0  0  0  0  0
  185.8150  178.0930  140.9560 C   0  0  0  0  0  2  0  0  0  0  0  0
  185.1080  177.7660  145.3120 C   0  0  2  0  0  3  0  0  0  0  0  0
  183.9780  178.7410  145.5940 C   0  0  0  0  0  2  0  0  0  0  0  0
  184.8410  178.2490  146.7480 C   0  0  2  0  0  3  0  0  0  0  0  0
  185.7260  179.3980  147.2150 C   0  0  0  0  0  2  0  0  0  0  0  0
  186.6210  178.9230  148.3360 C   0  0  0  0  0  1  0  0  0  0  0  0
  1 26  1  1  0  0  0
  1  5  1  0  0  0  0
  2 22  2  0  0  0  0
  3 25  1  0  0  0  0
  3  8  1  1  0  0  0
  4 27  1  6  0  0  0
  4 44  1  0  0  0  0
  4 20  1  0  0  0  0
  5 23  1  6  0  0  0
  5 18  1  0  0  0  0
  7 21  2  0  0  0  0
  9 15  1  6  0  0  0
  9 25  1  0  0  0  0
 10  6  1  0  0  0  0
 10 11  1  1  0  0  0
 12 26  1  6  0  0  0
 12 18  1  0  0  0  0
 12 17  1  0  0  0  0
 13 40  1  1  0  0  0
 13 29  1  0  0  0  0
 14  9  1  0  0  0  0
 16 28  1  6  0  0  0
 16 27  1  0  0  0  0
 17 22  1  0  0  0  0
 18 29  1  6  0  0  0
 19 24  1  6  0  0  0
 19 14  1  0  0  0  0
 19  3  1  0  0  0  0
 19  8  1  0  0  0  0
 21 10  1  0  0  0  0
 21 20  1  0  0  0  0
 22 10  1  0  0  0  0
 23 13  1  0  0  0  0
 25 16  1  0  0  0  0
 30 24  1  0  0  0  0
 30  1  1  0  0  0  0
 31 34  1  0  0  0  0
 31 37  1  0  0  0  0
 33 32  1  0  0  0  0
 33 36  1  0  0  0  0
 34 33  1  0  0  0  0
 35 36  1  0  0  0  0
 35 30  1  0  0  0  0
 37 35  1  0  0  0  0
 38 34  1  0  0  0  0
 39 38  1  0  0  0  0
 40 41  1  0  0  0  0
 42 40  2  0  0  0  0
 43 46  1  0  0  0  0
 43 45  1  0  0  0  0
 44 43  1  0  0  0  0
 44 45  1  0  0  0  0
 47 48  1  0  0  0  0
 47 46  1  0  0  0  0
 48 53  1  0  0  0  0
 49 50  1  0  0  0  0
 49 51  1  0  0  0  0
 50 51  1  0  0  0  0
 51 48  1  0  0  0  0
 52 49  1  0  0  0  0
 52 50  1  0  0  0  0
 53 54  1  0  0  0  0
 53 55  1  0  0  0  0
 54 55  1  0  0  0  0
 55 56  1  0  0  0  0
 56 57  1  0  0  0  0
M  END
>  <MODEL>
1

>  <REMARK>
 VINA RESULT:      -8.1      0.000      0.000
  Name = 
  10 active torsions:
  status: ('A' for Active; 'I' for Inactive)
    1  A    between atoms: C_1  and  C_23
    2  A    between atoms: C_4  and  N_5
    3  A    between atoms: C_4  and  C_7
    4  A    between atoms: C_7  and  C_43
    5  A    between atoms: C_11  and  C_32
    6  A    between atoms: C_13  and  C_35
    7  A    between atoms: C_16  and  C_45
    8  A    between atoms: C_30  and  C_43
    9  A    between atoms: C_37  and  C_43
   10  A    between atoms: C_38  and  C_57
                            x       y       z     vdW  Elec       q    Type
                         _______ _______ _______ _____ _____    ______ ____

>  <TORSDO>
F 10

$$$$
=
 OpenBabel11072409093D

 57 66  0  0  1  0  0  0  0  0999 V2000
  195.1280  172.0320  142.1200 C   0  0  2  0  0  3  0  0  0  0  0  0
  192.7320  175.5440  142.8580 C   0  0  0  0  0  2  0  0  0  0  0  0
  191.8490  173.0110  140.7290 C   0  0  1  0  0  3  0  0  0  0  0  0
  189.5060  175.0370  143.3190 C   0  0  1  0  0  3  0  0  0  0  0  0
  194.4630  171.5120  143.3880 C   0  0  2  0  0  3  0  0  0  0  0  0
  192.9130  174.6490  146.3790 O   0  0  0  0  0  1  0  0  0  0  0  0
  191.3820  172.8830  144.8980 O   0  0  0  0  0  0  0  0  0  0  0  0
  191.8160  172.4300  142.0200 O   0  0  0  0  0  0  0  0  0  0  0  0
  189.7940  171.8370  140.2000 C   0  0  2  0  0  3  0  0  0  0  0  0
  192.2220  175.0720  145.2390 C   0  0  2  0  0  0  0  0  0  0  0  0
  191.6670  176.4630  145.5290 C   0  0  0  0  0  1  0  0  0  0  0  0
  195.2320  173.6970  143.7800 C   0  0  1  0  0  3  0  0  0  0  0  0
  196.0430  170.8570  144.9960 C   0  0  1  0  0  3  0  0  0  0  0  0
  190.7050  170.8790  140.6870 O   0  0  0  0  0  0  0  0  0  0  0  0
  189.4000  171.4920  138.9090 O   0  0  0  0  0  1  0  0  0  0  0  0
  189.6670  174.2870  140.9330 C   0  0  2  0  0  3  0  0  0  0  0  0
  194.6550  175.0290  144.2640 C   0  0  0  0  0  2  0  0  0  0  0  0
  194.5650  172.5570  144.4120 N   0  0  2  0  0  0  0  0  0  0  0  0
  191.9100  171.5560  140.9260 C   0  0  1  0  0  0  0  0  0  0  0  0
  189.6910  174.4990  144.7300 C   0  0  0  0  0  2  0  0  0  0  0  0
  191.1140  174.0740  144.9580 C   0  0  0  0  0  0  0  0  0  0  0  0
  193.1710  175.1530  144.0580 C   0  0  0  0  0  0  0  0  0  0  0  0
  195.1930  170.3000  143.8950 C   0  0  0  0  0  2  0  0  0  0  0  0
  193.2120  170.7560  140.9170 C   0  0  0  0  0  2  0  0  0  0  0  0
  190.4600  173.2070  140.1860 C   0  0  1  0  0  3  0  0  0  0  0  0
  195.1510  173.5260  142.2810 C   0  0  0  0  0  2  0  0  0  0  0  0
  189.2910  173.8780  142.3550 C   0  0  0  0  0  2  0  0  0  0  0  0
  188.5130  174.6080  140.2160 O   0  0  0  0  0  1  0  0  0  0  0  0
  195.4120  172.0940  145.4430 N   0  0  0  0  0  2  0  0  0  0  0  0
  194.4760  171.6230  140.7890 C   0  0  2  0  0  3  0  0  0  0  0  0
  197.5790  171.4510  138.5030 C   0  0  0  0  0  2  0  0  0  0  0  0
  194.6080  170.9380  136.2230 O   0  0  0  0  0  1  0  0  0  0  0  0
  195.2570  171.3660  137.3840 C   0  0  2  0  0  3  0  0  0  0  0  0
  196.7850  171.4880  137.1840 C   0  0  2  0  0  3  0  0  0  0  0  0
  195.5190  170.9740  139.8800 C   0  0  1  0  0  3  0  0  0  0  0  0
  194.9110  170.4530  138.5590 C   0  0  0  0  0  2  0  0  0  0  0  0
  196.7310  171.9030  139.6880 C   0  0  0  0  0  2  0  0  0  0  0  0
  197.3610  170.4700  136.1990 C   0  0  0  0  0  2  0  0  0  0  0  0
  197.7790  171.0940  135.0250 O   0  0  0  0  0  1  0  0  0  0  0  0
  196.1420  169.8870  146.1220 C   0  0  0  0  0  0  0  0  0  0  0  0
  197.3760  169.3830  146.5130 O   0  0  0  0  0  0  0  0  0  0  0  0
  195.1000  169.5320  146.7330 O   0  0  0  0  0  1  0  0  0  0  0  0
  188.7240  177.2630  142.6800 N   0  0  0  0  0  0  0  0  0  0  0  0
  188.3200  175.9890  143.2940 C   0  0  2  0  0  3  0  0  0  0  0  0
  188.6040  177.1440  144.1380 C   0  0  0  0  0  2  0  0  0  0  0  0
  187.5090  177.9120  142.2270 C   0  0  0  0  0  2  0  0  0  0  0  0
  186.7180  178.4150  143.4300 C   0  0  0  0  0  2  0  0  0  0  0  0
  185.3500  178.9740  143.0300 C   0  0  1  0  0  3  0  0  0  0  0  0
  183.0920  178.4210  142.1070 C   0  0  2  0  0  3  0  0  0  0  0  0
  184.0800  178.4000  140.9730 C   0  0  1  0  0  3  0  0  0  0  0  0
  184.4990  177.9110  142.3470 C   0  0  1  0  0  3  0  0  0  0  0  0
  182.6490  177.9690  140.7280 C   0  0  0  0  0  2  0  0  0  0  0  0
  184.6280  179.5720  144.2480 C   0  0  2  0  0  3  0  0  0  0  0  0
  185.5580  179.6490  145.4470 C   0  0  0  0  0  2  0  0  0  0  0  0
  184.4460  178.6090  145.4340 C   0  0  2  0  0  3  0  0  0  0  0  0
  185.0730  177.2330  145.2470 C   0  0  0  0  0  2  0  0  0  0  0  0
  185.7110  176.7890  146.5430 C   0  0  0  0  0  1  0  0  0  0  0  0
  1 26  1  1  0  0  0
  1  5  1  0  0  0  0
  2 22  2  0  0  0  0
  3 19  1  0  0  0  0
  3  8  1  1  0  0  0
  4 27  1  6  0  0  0
  4 20  1  0  0  0  0
  5 23  1  1  0  0  0
  5 18  1  0  0  0  0
  7 21  2  0  0  0  0
  9 15  1  6  0  0  0
  9 14  1  0  0  0  0
 10 11  1  1  0  0  0
 10  6  1  0  0  0  0
 12 26  1  6  0  0  0
 12 17  1  0  0  0  0
 12 18  1  0  0  0  0
 13 29  1  0  0  0  0
 13 40  1  1  0  0  0
 14 19  1  0  0  0  0
 16 28  1  6  0  0  0
 16 27  1  0  0  0  0
 18 29  1  1  0  0  0
 19 24  1  6  0  0  0
 19  8  1  0  0  0  0
 20 21  1  0  0  0  0
 21 10  1  0  0  0  0
 22 17  1  0  0  0  0
 22 10  1  0  0  0  0
 23 13  1  0  0  0  0
 25  9  1  0  0  0  0
 25  3  1  0  0  0  0
 25 16  1  0  0  0  0
 30 24  1  0  0  0  0
 30  1  1  0  0  0  0
 31 37  1  0  0  0  0
 32 33  1  0  0  0  0
 33 36  1  0  0  0  0
 34 33  1  0  0  0  0
 34 31  1  0  0  0  0
 35 30  1  0  0  0  0
 36 35  1  0  0  0  0
 37 35  1  0  0  0  0
 38 34  1  0  0  0  0
 39 38  1  0  0  0  0
 40 41  2  0  0  0  0
 40 42  1  0  0  0  0
 43 44  1  0  0  0  0
 43 45  1  0  0  0  0
 44  4  1  0  0  0  0
 44 45  1  0  0  0  0
 46 43  1  0  0  0  0
 46 47  1  0  0  0  0
 48 47  1  0  0  0  0
 48 53  1  0  0  0  0
 49 51  1  0  0  0  0
 50 49  1  0  0  0  0
 50 51  1  0  0  0  0
 51 48  1  0  0  0  0
 52 50  1  0  0  0  0
 52 49  1  0  0  0  0
 53 55  1  0  0  0  0
 53 54  1  0  0  0  0
 55 54  1  0  0  0  0
 56 55  1  0  0  0  0
 56 57  1  0  0  0  0
M  END
>  <MODEL>
2

>  <REMARK>
 VINA RESULT:      -7.6      1.750      2.322
  Name = 
  10 active torsions:
  status: ('A' for Active; 'I' for Inactive)
    1  A    between atoms: C_1  and  C_23
    2  A    between atoms: C_4  and  N_5
    3  A    between atoms: C_4  and  C_7
    4  A    between atoms: C_7  and  C_43
    5  A    between atoms: C_11  and  C_32
    6  A    between atoms: C_13  and  C_35
    7  A    between atoms: C_16  and  C_45
    8  A    between atoms: C_30  and  C_43
    9  A    between atoms: C_37  and  C_43
   10  A    between atoms: C_38  and  C_57
                            x       y       z     vdW  Elec       q    Type
                         _______ _______ _______ _____ _____    ______ ____

>  <TORSDO>
F 10

$$$$
=
 OpenBabel11072409093D

 57 66  0  0  1  0  0  0  0  0999 V2000
  195.1300  171.1120  141.9040 C   0  0  2  0  0  3  0  0  0  0  0  0
  192.8200  174.7560  141.8880 C   0  0  0  0  0  2  0  0  0  0  0  0
  192.2030  172.0650  139.8630 C   0  0  1  0  0  3  0  0  0  0  0  0
  189.5420  174.4040  141.8000 C   0  0  1  0  0  3  0  0  0  0  0  0
  194.2250  170.7370  143.0720 C   0  0  2  0  0  3  0  0  0  0  0  0
  192.3280  174.1930  145.4480 O   0  0  0  0  0  1  0  0  0  0  0  0
  190.9980  172.3470  143.8730 O   0  0  0  0  0  0  0  0  0  0  0  0
  191.9120  171.6100  141.1720 O   0  0  0  0  0  0  0  0  0  0  0  0
  190.2180  170.9160  139.0750 C   0  0  2  0  0  3  0  0  0  0  0  0
  191.8730  174.5290  144.1700 C   0  0  2  0  0  0  0  0  0  0  0  0
  191.3460  175.9590  144.2320 C   0  0  0  0  0  1  0  0  0  0  0  0
  195.0210  172.9220  143.4050 C   0  0  1  0  0  3  0  0  0  0  0  0
  195.4610  170.1840  144.9890 C   0  0  1  0  0  3  0  0  0  0  0  0
  190.9790  169.9780  139.8000 O   0  0  0  0  0  0  0  0  0  0  0  0
  190.0420  170.4640  137.7690 O   0  0  0  0  0  1  0  0  0  0  0  0
  190.0850  173.4270  139.5570 C   0  0  2  0  0  3  0  0  0  0  0  0
  194.4350  174.3120  143.6590 C   0  0  0  0  0  2  0  0  0  0  0  0
  194.1970  171.8700  144.0020 N   0  0  2  0  0  0  0  0  0  0  0  0
  192.1550  170.6340  140.1940 C   0  0  1  0  0  0  0  0  0  0  0  0
  189.4460  173.9960  143.2630 C   0  0  0  0  0  2  0  0  0  0  0  0
  190.7830  173.5470  143.7800 C   0  0  0  0  0  0  0  0  0  0  0  0
  193.0190  174.4660  143.1780 C   0  0  0  0  0  0  0  0  0  0  0  0
  194.7930  169.5540  143.8050 C   0  0  0  0  0  2  0  0  0  0  0  0
  193.3960  169.7930  140.4900 C   0  0  0  0  0  2  0  0  0  0  0  0
  190.9430  172.2550  139.0630 C   0  0  1  0  0  3  0  0  0  0  0  0
  195.1990  172.6130  141.9370 C   0  0  0  0  0  2  0  0  0  0  0  0
  189.4430  173.1670  140.9170 C   0  0  0  0  0  2  0  0  0  0  0  0
  189.0940  173.7170  138.6180 O   0  0  0  0  0  1  0  0  0  0  0  0
  194.8230  171.4780  145.2060 N   0  0  0  0  0  2  0  0  0  0  0  0
  194.7040  170.6010  140.5180 C   0  0  2  0  0  3  0  0  0  0  0  0
  197.8430  170.0850  138.3350 C   0  0  0  0  0  2  0  0  0  0  0  0
  195.0450  168.2980  136.5280 O   0  0  0  0  0  1  0  0  0  0  0  0
  195.5900  169.2240  137.4220 C   0  0  2  0  0  3  0  0  0  0  0  0
  197.0830  169.5030  137.1300 C   0  0  2  0  0  3  0  0  0  0  0  0
  195.8580  169.8340  139.8730 C   0  0  1  0  0  3  0  0  0  0  0  0
  195.3710  168.7710  138.8640 C   0  0  0  0  0  2  0  0  0  0  0  0
  196.9080  170.8040  139.3020 C   0  0  0  0  0  2  0  0  0  0  0  0
  197.8360  168.2960  136.5680 C   0  0  0  0  0  2  0  0  0  0  0  0
  197.9300  168.3690  135.1790 O   0  0  0  0  0  1  0  0  0  0  0  0
  195.3100  169.3220  146.1940 C   0  0  0  0  0  0  0  0  0  0  0  0
  194.0590  168.8480  146.5700 O   0  0  0  0  0  0  0  0  0  0  0  0
  196.3240  169.0080  146.8690 O   0  0  0  0  0  1  0  0  0  0  0  0
  188.2150  176.2830  142.6260 N   0  0  0  0  0  0  0  0  0  0  0  0
  188.4290  175.3890  141.4780 C   0  0  2  0  0  3  0  0  0  0  0  0
  187.3010  175.1620  142.3750 C   0  0  0  0  0  2  0  0  0  0  0  0
  187.5500  177.4670  142.1150 C   0  0  0  0  0  2  0  0  0  0  0  0
  187.5830  178.5680  143.1690 C   0  0  0  0  0  2  0  0  0  0  0  0
  186.6630  178.2630  144.3540 C   0  0  1  0  0  3  0  0  0  0  0  0
  186.7440  176.9860  146.5030 C   0  0  2  0  0  3  0  0  0  0  0  0
  187.8850  176.5230  145.6410 C   0  0  1  0  0  3  0  0  0  0  0  0
  187.4670  177.9820  145.6170 C   0  0  1  0  0  3  0  0  0  0  0  0
  187.7670  176.0140  147.0620 C   0  0  0  0  0  2  0  0  0  0  0  0
  185.6570  179.4040  144.5710 C   0  0  2  0  0  3  0  0  0  0  0  0
  184.4350  178.9140  145.3300 C   0  0  0  0  0  2  0  0  0  0  0  0
  184.3100  179.2310  143.8460 C   0  0  2  0  0  3  0  0  0  0  0  0
  184.1550  177.9210  143.0830 C   0  0  0  0  0  2  0  0  0  0  0  0
  183.8740  178.2150  141.6280 C   0  0  0  0  0  1  0  0  0  0  0  0
  1 26  1  6  0  0  0
  1  5  1  0  0  0  0
  2 22  2  0  0  0  0
  3 19  1  0  0  0  0
  3  8  1  1  0  0  0
  4 27  1  6  0  0  0
  4 20  1  0  0  0  0
  5 23  1  1  0  0  0
  5 18  1  0  0  0  0
  9 15  1  6  0  0  0
  9 14  1  0  0  0  0
 10 11  1  1  0  0  0
 10  6  1  0  0  0  0
 12 26  1  6  0  0  0
 12 17  1  0  0  0  0
 12 18  1  0  0  0  0
 13 29  1  0  0  0  0
 13 40  1  1  0  0  0
 14 19  1  0  0  0  0
 16 28  1  6  0  0  0
 16 27  1  0  0  0  0
 18 29  1  1  0  0  0
 19 24  1  1  0  0  0
 19  8  1  0  0  0  0
 20 21  1  0  0  0  0
 21  7  2  0  0  0  0
 21 10  1  0  0  0  0
 22 17  1  0  0  0  0
 22 10  1  0  0  0  0
 23 13  1  0  0  0  0
 24 30  1  0  0  0  0
 25  9  1  0  0  0  0
 25 16  1  0  0  0  0
 25  3  1  0  0  0  0
 30  1  1  0  0  0  0
 31 37  1  0  0  0  0
 32 33  1  0  0  0  0
 33 36  1  0  0  0  0
 34 33  1  0  0  0  0
 34 31  1  0  0  0  0
 35 30  1  0  0  0  0
 36 35  1  0  0  0  0
 37 35  1  0  0  0  0
 38 34  1  0  0  0  0
 39 38  1  0  0  0  0
 40 41  2  0  0  0  0
 40 42  1  0  0  0  0
 44  4  1  0  0  0  0
 44 45  1  0  0  0  0
 44 43  1  0  0  0  0
 45 43  1  0  0  0  0
 46 43  1  0  0  0  0
 46 47  1  0  0  0  0
 47 48  1  0  0  0  0
 48 53  1  0  0  0  0
 48 51  1  0  0  0  0
 49 52  1  0  0  0  0
 50 49  1  0  0  0  0
 50 52  1  0  0  0  0
 51 50  1  0  0  0  0
 51 49  1  0  0  0  0
 53 54  1  0  0  0  0
 55 53  1  0  0  0  0
 55 54  1  0  0  0  0
 56 55  1  0  0  0  0
 57 56  1  0  0  0  0
M  END
>  <MODEL>
3

>  <REMARK>
 VINA RESULT:      -7.5      2.106      3.264
  Name = 
  10 active torsions:
  status: ('A' for Active; 'I' for Inactive)
    1  A    between atoms: C_1  and  C_23
    2  A    between atoms: C_4  and  N_5
    3  A    between atoms: C_4  and  C_7
    4  A    between atoms: C_7  and  C_43
    5  A    between atoms: C_11  and  C_32
    6  A    between atoms: C_13  and  C_35
    7  A    between atoms: C_16  and  C_45
    8  A    between atoms: C_30  and  C_43
    9  A    between atoms: C_37  and  C_43
   10  A    between atoms: C_38  and  C_57
                            x       y       z     vdW  Elec       q    Type
                         _______ _______ _______ _____ _____    ______ ____

>  <TORSDO>
F 10

$$$$
=
 OpenBabel11072409093D

 57 66  0  0  1  0  0  0  0  0999 V2000
  195.4670  172.6070  141.0210 C   0  0  2  0  0  3  0  0  0  0  0  0
  193.6350  175.9100  143.1090 C   0  0  0  0  0  2  0  0  0  0  0  0
  191.9520  173.7440  141.0600 C   0  0  1  0  0  3  0  0  0  0  0  0
  190.7620  175.2780  144.6000 C   0  0  1  0  0  3  0  0  0  0  0  0
  195.2710  171.8770  142.3440 C   0  0  2  0  0  3  0  0  0  0  0  0
  195.0110  174.4560  146.1470 O   0  0  0  0  0  1  0  0  0  0  0  0
  192.9820  172.9290  145.0460 O   0  0  0  0  0  0  0  0  0  0  0  0
  192.3520  172.9590  142.1690 O   0  0  0  0  0  0  0  0  0  0  0  0
  189.7950  172.6350  141.1170 C   0  0  2  0  0  3  0  0  0  0  0  0
  193.9800  175.0480  145.4090 C   0  0  2  0  0  0  0  0  0  0  0  0
  193.6220  176.3620  146.0940 C   0  0  0  0  0  1  0  0  0  0  0  0
  196.2200  173.9810  142.7780 C   0  0  1  0  0  3  0  0  0  0  0  0
  197.2890  170.9960  143.1590 C   0  0  1  0  0  3  0  0  0  0  0  0
  190.7790  171.6270  141.0900 O   0  0  0  0  0  0  0  0  0  0  0  0
  188.9570  172.4990  140.0130 O   0  0  0  0  0  1  0  0  0  0  0  0
  190.0380  174.9300  142.2260 C   0  0  2  0  0  3  0  0  0  0  0  0
  195.9080  175.2060  143.6390 C   0  0  0  0  0  2  0  0  0  0  0  0
  195.7730  172.7420  143.4160 N   0  0  2  0  0  0  0  0  0  0  0  0
  192.0180  172.2770  140.9890 C   0  0  1  0  0  0  0  0  0  0  0  0
  191.4110  174.5210  145.7490 C   0  0  0  0  0  2  0  0  0  0  0  0
  192.8030  174.0890  145.3860 C   0  0  0  0  0  0  0  0  0  0  0  0
  194.4540  175.3360  143.9960 C   0  0  0  0  0  0  0  0  0  0  0  0
  196.0820  170.6110  142.3580 C   0  0  0  0  0  2  0  0  0  0  0  0
  193.1970  171.5120  140.3920 C   0  0  0  0  0  2  0  0  0  0  0  0
  190.4700  174.0010  141.0850 C   0  0  1  0  0  3  0  0  0  0  0  0
  195.6080  174.0550  141.3980 C   0  0  0  0  0  2  0  0  0  0  0  0
  190.1720  174.2890  143.6040 C   0  0  0  0  0  2  0  0  0  0  0  0
  188.7200  175.3440  142.0260 O   0  0  0  0  0  1  0  0  0  0  0  0
  196.9090  172.1320  143.9910 N   0  0  0  0  0  2  0  0  0  0  0  0
  194.3700  172.4100  139.9620 C   0  0  2  0  0  3  0  0  0  0  0  0
  197.0330  172.1770  137.1790 C   0  0  0  0  0  2  0  0  0  0  0  0
  194.1190  174.0330  135.6440 O   0  0  0  0  0  1  0  0  0  0  0  0
  194.9070  173.5540  136.6950 C   0  0  2  0  0  3  0  0  0  0  0  0
  196.3230  173.1530  136.2230 C   0  0  2  0  0  3  0  0  0  0  0  0
  194.9970  171.9360  138.6510 C   0  0  1  0  0  3  0  0  0  0  0  0
  194.2020  172.4040  137.4120 C   0  0  0  0  0  2  0  0  0  0  0  0
  196.4950  172.2870  138.6020 C   0  0  0  0  0  2  0  0  0  0  0  0
  196.3650  172.6090  134.7940 C   0  0  0  0  0  2  0  0  0  0  0  0
  196.8690  171.3100  134.7700 O   0  0  0  0  0  1  0  0  0  0  0  0
  197.7380  169.8570  144.0070 C   0  0  0  0  0  0  0  0  0  0  0  0
  197.9390  170.0290  145.3710 O   0  0  0  0  0  1  0  0  0  0  0  0
  197.9230  168.7260  143.4870 O   0  0  0  0  0  0  0  0  0  0  0  0
  189.6740  177.4570  144.3830 N   0  0  0  0  0  0  0  0  0  0  0  0
  189.6850  176.2010  145.1490 C   0  0  2  0  0  3  0  0  0  0  0  0
  190.3060  177.3970  145.7070 C   0  0  0  0  0  2  0  0  0  0  0  0
  188.3700  178.0580  144.5850 C   0  0  0  0  0  2  0  0  0  0  0  0
  187.3170  176.9630  144.7270 C   0  0  0  0  0  2  0  0  0  0  0  0
  185.8930  177.5240  144.7120 C   0  0  1  0  0  3  0  0  0  0  0  0
  186.1860  176.8170  147.0940 C   0  0  2  0  0  3  0  0  0  0  0  0
  185.7550  178.2580  147.0830 C   0  0  1  0  0  3  0  0  0  0  0  0
  185.1980  177.2970  146.0490 C   0  0  1  0  0  3  0  0  0  0  0  0
  185.8790  177.5230  148.4010 C   0  0  0  0  0  2  0  0  0  0  0  0
  185.8970  179.0120  144.3280 C   0  0  2  0  0  3  0  0  0  0  0  0
  184.4930  179.4930  144.0050 C   0  0  0  0  0  2  0  0  0  0  0  0
  185.4950  179.3090  142.8720 C   0  0  2  0  0  3  0  0  0  0  0  0
  185.0840  178.0880  142.0580 C   0  0  0  0  0  2  0  0  0  0  0  0
  186.1990  177.7180  141.1060 C   0  0  0  0  0  1  0  0  0  0  0  0
  1 26  1  1  0  0  0
  1  5  1  0  0  0  0
  2 22  2  0  0  0  0
  3 25  1  0  0  0  0
  3  8  1  1  0  0  0
  4 27  1  6  0  0  0
  4 44  1  0  0  0  0
  4 20  1  0  0  0  0
  5 23  1  6  0  0  0
  5 18  1  0  0  0  0
  7 21  2  0  0  0  0
  9 15  1  6  0  0  0
 10 11  1  1  0  0  0
 10  6  1  0  0  0  0
 12 26  1  6  0  0  0
 12 18  1  0  0  0  0
 12 17  1  0  0  0  0
 13 29  1  0  0  0  0
 13 40  1  1  0  0  0
 14  9  1  0  0  0  0
 16 28  1  6  0  0  0
 16 27  1  0  0  0  0
 17 22  1  0  0  0  0
 18 29  1  6  0  0  0
 19 24  1  6  0  0  0
 19  3  1  0  0  0  0
 19 14  1  0  0  0  0
 19  8  1  0  0  0  0
 21 10  1  0  0  0  0
 21 20  1  0  0  0  0
 22 10  1  0  0  0  0
 23 13  1  0  0  0  0
 25  9  1  0  0  0  0
 25 16  1  0  0  0  0
 30 24  1  0  0  0  0
 30  1  1  0  0  0  0
 31 37  1  0  0  0  0
 32 33  1  0  0  0  0
 33 36  1  0  0  0  0
 34 33  1  0  0  0  0
 34 31  1  0  0  0  0
 35 30  1  0  0  0  0
 36 35  1  0  0  0  0
 37 35  1  0  0  0  0
 38 34  1  0  0  0  0
 39 38  1  0  0  0  0
 40 41  1  0  0  0  0
 42 40  2  0  0  0  0
 43 46  1  0  0  0  0
 43 44  1  0  0  0  0
 43 45  1  0  0  0  0
 44 45  1  0  0  0  0
 46 47  1  0  0  0  0
 48 47  1  0  0  0  0
 48 51  1  0  0  0  0
 49 52  1  0  0  0  0
 50 49  1  0  0  0  0
 50 52  1  0  0  0  0
 51 50  1  0  0  0  0
 51 49  1  0  0  0  0
 53 48  1  0  0  0  0
 54 53  1  0  0  0  0
 55 54  1  0  0  0  0
 55 53  1  0  0  0  0
 56 55  1  0  0  0  0
 57 56  1  0  0  0  0
M  END
>  <MODEL>
4

>  <REMARK>
 VINA RESULT:      -7.1      1.147      2.421
  Name = 
  10 active torsions:
  status: ('A' for Active; 'I' for Inactive)
    1  A    between atoms: C_1  and  C_23
    2  A    between atoms: C_4  and  N_5
    3  A    between atoms: C_4  and  C_7
    4  A    between atoms: C_7  and  C_43
    5  A    between atoms: C_11  and  C_32
    6  A    between atoms: C_13  and  C_35
    7  A    between atoms: C_16  and  C_45
    8  A    between atoms: C_30  and  C_43
    9  A    between atoms: C_37  and  C_43
   10  A    between atoms: C_38  and  C_57
                            x       y       z     vdW  Elec       q    Type
                         _______ _______ _______ _____ _____    ______ ____

>  <TORSDO>
F 10

$$$$
=
 OpenBabel11072409093D

 57 66  0  0  1  0  0  0  0  0999 V2000
  194.1380  170.9130  143.6180 C   0  0  2  0  0  3  0  0  0  0  0  0
  190.0870  172.3700  143.3210 C   0  0  0  0  0  2  0  0  0  0  0  0
  192.7440  174.2470  144.3870 C   0  0  1  0  0  3  0  0  0  0  0  0
  189.7070  175.3530  141.9690 C   0  0  1  0  0  3  0  0  0  0  0  0
  194.1950  171.2520  142.1340 C   0  0  2  0  0  3  0  0  0  0  0  0
  190.2030  171.3090  139.8430 O   0  0  0  0  0  1  0  0  0  0  0  0
  191.8400  173.4790  140.3610 O   0  0  0  0  0  0  0  0  0  0  0  0
  193.0030  173.9940  143.0180 O   0  0  0  0  0  0  0  0  0  0  0  0
  193.4890  176.5320  144.0550 C   0  0  2  0  0  3  0  0  0  0  0  0
  189.8900  172.2250  140.8520 C   0  0  2  0  0  0  0  0  0  0  0  0
  188.3790  172.4320  140.8320 C   0  0  0  0  0  1  0  0  0  0  0  0
  192.2210  170.0500  142.5600 C   0  0  1  0  0  3  0  0  0  0  0  0
  194.8330  169.3990  140.8420 C   0  0  1  0  0  3  0  0  0  0  0  0
  194.5040  175.6890  143.5590 O   0  0  0  0  0  0  0  0  0  0  0  0
  194.0060  177.3400  145.0650 O   0  0  0  0  0  1  0  0  0  0  0  0
  190.9790  176.0300  144.0190 C   0  0  2  0  0  3  0  0  0  0  0  0
  190.7180  170.2300  142.3370 C   0  0  0  0  0  2  0  0  0  0  0  0
  193.0040  170.6800  141.4950 N   0  0  2  0  0  0  0  0  0  0  0  0
  194.0940  174.3720  143.8160 C   0  0  1  0  0  0  0  0  0  0  0  0
  189.9480  174.8530  140.5530 C   0  0  0  0  0  2  0  0  0  0  0  0
  190.6360  173.5170  140.5690 C   0  0  0  0  0  0  0  0  0  0  0  0
  190.2970  171.6670  142.2030 C   0  0  0  0  0  0  0  0  0  0  0  0
  195.4030  170.6160  141.5060 C   0  0  0  0  0  2  0  0  0  0  0  0
  195.1590  173.2830  143.9190 C   0  0  0  0  0  2  0  0  0  0  0  0
  192.3520  175.6820  144.6080 C   0  0  1  0  0  3  0  0  0  0  0  0
  192.6940  170.5970  143.8870 C   0  0  0  0  0  2  0  0  0  0  0  0
  190.9650  176.0320  142.4930 C   0  0  0  0  0  2  0  0  0  0  0  0
  190.5610  177.2740  144.4950 O   0  0  0  0  0  1  0  0  0  0  0  0
  193.4160  169.6560  140.6140 N   0  0  0  0  0  2  0  0  0  0  0  0
  194.6640  171.9870  144.5850 C   0  0  2  0  0  3  0  0  0  0  0  0
  197.6680  169.7730  145.5640 C   0  0  0  0  0  2  0  0  0  0  0  0
  194.6640  168.2080  147.2420 O   0  0  0  0  0  1  0  0  0  0  0  0
  195.3190  169.0010  146.2950 C   0  0  2  0  0  3  0  0  0  0  0  0
  196.8190  168.6450  146.1760 C   0  0  2  0  0  3  0  0  0  0  0  0
  195.7240  171.3810  145.5040 C   0  0  1  0  0  3  0  0  0  0  0  0
  195.1110  170.4830  146.6020 C   0  0  0  0  0  2  0  0  0  0  0  0
  196.8330  170.6980  144.6840 C   0  0  0  0  0  2  0  0  0  0  0  0
  197.4450  168.1720  147.4890 C   0  0  0  0  0  2  0  0  0  0  0  0
  197.2040  169.0850  148.5140 O   0  0  0  0  0  1  0  0  0  0  0  0
  195.5280  169.1350  139.5510 C   0  0  0  0  0  0  0  0  0  0  0  0
  196.7270  168.4340  139.5250 O   0  0  0  0  0  1  0  0  0  0  0  0
  195.0170  169.5360  138.4730 O   0  0  0  0  0  0  0  0  0  0  0  0
  187.2970  175.5940  142.3040 N   0  0  0  0  0  0  0  0  0  0  0  0
  188.5310  176.3190  141.9670 C   0  0  2  0  0  3  0  0  0  0  0  0
  187.5960  175.9480  140.9110 C   0  0  0  0  0  2  0  0  0  0  0  0
  186.3470  176.5830  142.7770 C   0  0  0  0  0  2  0  0  0  0  0  0
  185.9610  176.2730  144.2190 C   0  0  0  0  0  2  0  0  0  0  0  0
  186.2120  177.4600  145.1520 C   0  0  1  0  0  3  0  0  0  0  0  0
  184.4440  178.3830  143.6420 C   0  0  2  0  0  3  0  0  0  0  0  0
  184.0930  178.7550  145.0560 C   0  0  1  0  0  3  0  0  0  0  0  0
  185.5470  178.7260  144.6250 C   0  0  1  0  0  3  0  0  0  0  0  0
  183.2640  179.2990  143.9110 C   0  0  0  0  0  2  0  0  0  0  0  0
  185.7490  177.1380  146.5820 C   0  0  2  0  0  3  0  0  0  0  0  0
  186.3430  178.1170  147.5790 C   0  0  0  0  0  2  0  0  0  0  0  0
  186.8650  176.6870  147.5410 C   0  0  2  0  0  3  0  0  0  0  0  0
  188.2680  176.7010  146.9460 C   0  0  0  0  0  2  0  0  0  0  0  0
  188.8580  175.3110  147.0140 C   0  0  0  0  0  1  0  0  0  0  0  0
  1 26  1  1  0  0  0
  1 30  1  0  0  0  0
  3  8  1  6  0  0  0
  3 25  1  0  0  0  0
  4 20  1  6  0  0  0
  4 27  1  0  0  0  0
  5 23  1  6  0  0  0
  5  1  1  0  0  0  0
  6 10  1  0  0  0  0
  7 21  2  0  0  0  0
  8 19  1  0  0  0  0
  9 25  1  0  0  0  0
  9 15  1  1  0  0  0
 10 11  1  6  0  0  0
 10 22  1  0  0  0  0
 12 17  1  6  0  0  0
 12 26  1  0  0  0  0
 13 40  1  6  0  0  0
 13 23  1  0  0  0  0
 14 19  1  0  0  0  0
 14  9  1  0  0  0  0
 16 28  1  6  0  0  0
 16 25  1  0  0  0  0
 18 29  1  6  0  0  0
 18  5  1  0  0  0  0
 18 12  1  0  0  0  0
 19 24  1  1  0  0  0
 19  3  1  0  0  0  0
 20 21  1  0  0  0  0
 21 10  1  0  0  0  0
 22 17  1  0  0  0  0
 22  2  2  0  0  0  0
 24 30  1  0  0  0  0
 27 16  1  0  0  0  0
 29 13  1  0  0  0  0
 30 35  1  0  0  0  0
 31 34  1  0  0  0  0
 33 36  1  0  0  0  0
 33 32  1  0  0  0  0
 34 33  1  0  0  0  0
 34 38  1  0  0  0  0
 35 36  1  0  0  0  0
 37 35  1  0  0  0  0
 37 31  1  0  0  0  0
 38 39  1  0  0  0  0
 41 40  1  0  0  0  0
 42 40  2  0  0  0  0
 43 46  1  0  0  0  0
 44  4  1  0  0  0  0
 44 43  1  0  0  0  0
 45 44  1  0  0  0  0
 45 43  1  0  0  0  0
 46 47  1  0  0  0  0
 47 48  1  0  0  0  0
 48 53  1  0  0  0  0
 49 52  1  0  0  0  0
 49 51  1  0  0  0  0
 49 50  1  0  0  0  0
 51 50  1  0  0  0  0
 51 48  1  0  0  0  0
 52 50  1  0  0  0  0
 53 55  1  0  0  0  0
 53 54  1  0  0  0  0
 55 54  1  0  0  0  0
 56 57  1  0  0  0  0
 56 55  1  0  0  0  0
M  END
>  <MODEL>
5

>  <REMARK>
 VINA RESULT:      -7.0      2.584      5.892
  Name = 
  10 active torsions:
  status: ('A' for Active; 'I' for Inactive)
    1  A    between atoms: C_1  and  C_23
    2  A    between atoms: C_4  and  N_5
    3  A    between atoms: C_4  and  C_7
    4  A    between atoms: C_7  and  C_43
    5  A    between atoms: C_11  and  C_32
    6  A    between atoms: C_13  and  C_35
    7  A    between atoms: C_16  and  C_45
    8  A    between atoms: C_30  and  C_43
    9  A    between atoms: C_37  and  C_43
   10  A    between atoms: C_38  and  C_57
                            x       y       z     vdW  Elec       q    Type
                         _______ _______ _______ _____ _____    ______ ____

>  <TORSDO>
F 10

$$$$
=
 OpenBabel11072409093D

 57 66  0  0  1  0  0  0  0  0999 V2000
  194.1340  171.0480  143.5360 C   0  0  2  0  0  3  0  0  0  0  0  0
  190.0400  172.4080  143.4230 C   0  0  0  0  0  2  0  0  0  0  0  0
  192.6810  174.3080  144.4900 C   0  0  1  0  0  3  0  0  0  0  0  0
  189.5420  175.4360  142.2150 C   0  0  1  0  0  3  0  0  0  0  0  0
  194.1350  171.4520  142.0660 C   0  0  2  0  0  3  0  0  0  0  0  0
  190.0740  171.5010  139.9000 O   0  0  0  0  0  1  0  0  0  0  0  0
  191.6720  173.6900  140.4640 O   0  0  0  0  0  0  0  0  0  0  0  0
  192.9030  174.1210  143.1050 O   0  0  0  0  0  0  0  0  0  0  0  0
  193.3570  176.6240  144.2370 C   0  0  2  0  0  3  0  0  0  0  0  0
  189.7700  172.3640  140.9580 C   0  0  2  0  0  0  0  0  0  0  0  0
  188.2550  172.5310  140.9920 C   0  0  0  0  0  1  0  0  0  0  0  0
  192.2070  170.1810  142.4980 C   0  0  1  0  0  3  0  0  0  0  0  0
  194.7800  169.6730  140.6760 C   0  0  1  0  0  3  0  0  0  0  0  0
  194.3760  175.8300  143.6740 O   0  0  0  0  0  0  0  0  0  0  0  0
  193.8840  177.4010  145.2650 O   0  0  0  0  0  1  0  0  0  0  0  0
  190.8600  176.0570  144.2540 C   0  0  2  0  0  3  0  0  0  0  0  0
  190.6940  170.3300  142.3290 C   0  0  0  0  0  2  0  0  0  0  0  0
  192.9410  170.8770  141.4400 N   0  0  2  0  0  0  0  0  0  0  0  0
  194.0080  174.4930  143.8850 C   0  0  1  0  0  0  0  0  0  0  0  0
  189.7530  175.0030  140.7710 C   0  0  0  0  0  2  0  0  0  0  0  0
  190.4740  173.6860  140.7090 C   0  0  0  0  0  0  0  0  0  0  0  0
  190.2330  171.7590  142.2700 C   0  0  0  0  0  0  0  0  0  0  0  0
  195.3400  170.8750  141.3750 C   0  0  0  0  0  2  0  0  0  0  0  0
  195.1030  173.4290  143.9100 C   0  0  0  0  0  2  0  0  0  0  0  0
  192.2590  175.7210  144.7860 C   0  0  1  0  0  3  0  0  0  0  0  0
  192.7070  170.6820  143.8330 C   0  0  0  0  0  2  0  0  0  0  0  0
  190.7980  176.1240  142.7300 C   0  0  0  0  0  2  0  0  0  0  0  0
  190.4250  177.2680  144.7960 O   0  0  0  0  0  1  0  0  0  0  0  0
  193.3510  169.9020  140.5030 N   0  0  0  0  0  2  0  0  0  0  0  0
  194.6620  172.0940  144.5320 C   0  0  2  0  0  3  0  0  0  0  0  0
  197.7710  169.9480  145.3160 C   0  0  0  0  0  2  0  0  0  0  0  0
  194.8680  168.1670  146.9560 O   0  0  0  0  0  1  0  0  0  0  0  0
  195.4700  169.0400  146.0460 C   0  0  2  0  0  3  0  0  0  0  0  0
  196.9800  168.7520  145.8760 C   0  0  2  0  0  3  0  0  0  0  0  0
  195.7650  171.4770  145.3920 C   0  0  1  0  0  3  0  0  0  0  0  0
  195.2120  170.4910  146.4460 C   0  0  0  0  0  2  0  0  0  0  0  0
  196.8810  170.8890  144.5100 C   0  0  0  0  0  2  0  0  0  0  0  0
  197.6530  168.2270  147.1450 C   0  0  0  0  0  2  0  0  0  0  0  0
  197.0580  168.7660  148.2850 O   0  0  0  0  0  1  0  0  0  0  0  0
  195.4410  169.4830  139.3550 C   0  0  0  0  0  0  0  0  0  0  0  0
  195.6740  168.2060  138.8590 O   0  0  0  0  0  1  0  0  0  0  0  0
  195.7780  170.4870  138.6750 O   0  0  0  0  0  0  0  0  0  0  0  0
  187.1320  175.5920  142.5940 N   0  0  0  0  0  0  0  0  0  0  0  0
  188.3430  176.3690  142.2900 C   0  0  2  0  0  3  0  0  0  0  0  0
  187.4030  176.0430  141.2230 C   0  0  0  0  0  2  0  0  0  0  0  0
  186.1640  176.5230  143.1410 C   0  0  0  0  0  2  0  0  0  0  0  0
  185.7170  176.0460  144.5190 C   0  0  0  0  0  2  0  0  0  0  0  0
  185.6600  177.1880  145.5360 C   0  0  1  0  0  3  0  0  0  0  0  0
  187.6540  176.0510  146.5280 C   0  0  2  0  0  3  0  0  0  0  0  0
  187.7250  177.5110  146.8800 C   0  0  1  0  0  3  0  0  0  0  0  0
  186.3790  176.8140  146.8270 C   0  0  1  0  0  3  0  0  0  0  0  0
  188.7390  176.5490  147.4650 C   0  0  0  0  0  2  0  0  0  0  0  0
  186.2260  178.4830  144.9340 C   0  0  2  0  0  3  0  0  0  0  0  0
  185.6870  179.7030  145.6630 C   0  0  0  0  0  2  0  0  0  0  0  0
  185.1870  179.3950  144.2580 C   0  0  2  0  0  3  0  0  0  0  0  0
  183.7470  178.9080  144.3520 C   0  0  0  0  0  2  0  0  0  0  0  0
  183.1960  178.6880  142.9620 C   0  0  0  0  0  1  0  0  0  0  0  0
  1 26  1  1  0  0  0
  1 30  1  0  0  0  0
  3  8  1  6  0  0  0
  3 25  1  0  0  0  0
  4 20  1  6  0  0  0
  4 44  1  0  0  0  0
  4 27  1  0  0  0  0
  5 23  1  6  0  0  0
  5  1  1  0  0  0  0
  6 10  1  0  0  0  0
  7 21  2  0  0  0  0
  8 19  1  0  0  0  0
  9 25  1  0  0  0  0
  9 15  1  1  0  0  0
 10 11  1  1  0  0  0
 10 22  1  0  0  0  0
 12 17  1  6  0  0  0
 12 26  1  0  0  0  0
 13 40  1  6  0  0  0
 13 23  1  0  0  0  0
 14 19  1  0  0  0  0
 14  9  1  0  0  0  0
 16 25  1  0  0  0  0
 16 28  1  1  0  0  0
 18 29  1  6  0  0  0
 18  5  1  0  0  0  0
 18 12  1  0  0  0  0
 19 24  1  1  0  0  0
 19  3  1  0  0  0  0
 21 20  1  0  0  0  0
 21 10  1  0  0  0  0
 22 17  1  0  0  0  0
 22  2  2  0  0  0  0
 24 30  1  0  0  0  0
 27 16  1  0  0  0  0
 29 13  1  0  0  0  0
 30 35  1  0  0  0  0
 31 34  1  0  0  0  0
 33 36  1  0  0  0  0
 33 32  1  0  0  0  0
 34 33  1  0  0  0  0
 34 38  1  0  0  0  0
 35 36  1  0  0  0  0
 37 31  1  0  0  0  0
 37 35  1  0  0  0  0
 38 39  1  0  0  0  0
 41 40  1  0  0  0  0
 42 40  2  0  0  0  0
 43 46  1  0  0  0  0
 44 43  1  0  0  0  0
 45 44  1  0  0  0  0
 45 43  1  0  0  0  0
 46 47  1  0  0  0  0
 47 48  1  0  0  0  0
 48 51  1  0  0  0  0
 49 51  1  0  0  0  0
 49 50  1  0  0  0  0
 49 52  1  0  0  0  0
 50 52  1  0  0  0  0
 51 50  1  0  0  0  0
 53 48  1  0  0  0  0
 53 54  1  0  0  0  0
 55 56  1  0  0  0  0
 55 53  1  0  0  0  0
 55 54  1  0  0  0  0
 57 56  1  0  0  0  0
M  END
>  <MODEL>
6

>  <REMARK>
 VINA RESULT:      -7.0      2.530      5.981
  Name = 
  10 active torsions:
  status: ('A' for Active; 'I' for Inactive)
    1  A    between atoms: C_1  and  C_23
    2  A    between atoms: C_4  and  N_5
    3  A    between atoms: C_4  and  C_7
    4  A    between atoms: C_7  and  C_43
    5  A    between atoms: C_11  and  C_32
    6  A    between atoms: C_13  and  C_35
    7  A    between atoms: C_16  and  C_45
    8  A    between atoms: C_30  and  C_43
    9  A    between atoms: C_37  and  C_43
   10  A    between atoms: C_38  and  C_57
                            x       y       z     vdW  Elec       q    Type
                         _______ _______ _______ _____ _____    ______ ____

>  <TORSDO>
F 10

$$$$
=
 OpenBabel11072409093D

 57 66  0  0  1  0  0  0  0  0999 V2000
  193.3310  172.7930  144.6110 C   0  0  2  0  0  3  0  0  0  0  0  0
  192.5610  171.7940  140.4850 C   0  0  0  0  0  2  0  0  0  0  0  0
  194.4980  174.4240  141.5090 C   0  0  1  0  0  3  0  0  0  0  0  0
  195.1610  171.8650  138.4580 C   0  0  1  0  0  3  0  0  0  0  0  0
  194.4200  171.7340  144.4930 C   0  0  2  0  0  3  0  0  0  0  0  0
  193.8470  168.4860  141.2820 O   0  0  0  0  0  1  0  0  0  0  0  0
  195.8060  170.4410  141.3220 O   0  0  0  0  0  0  0  0  0  0  0  0
  195.2180  173.2690  141.8990 O   0  0  0  0  0  0  0  0  0  0  0  0
  196.5870  175.4180  140.7790 C   0  0  2  0  0  3  0  0  0  0  0  0
  193.7540  169.6190  140.4680 C   0  0  2  0  0  0  0  0  0  0  0  0
  193.1870  169.1730  139.1240 C   0  0  0  0  0  1  0  0  0  0  0  0
  192.4290  170.8730  143.5900 C   0  0  1  0  0  3  0  0  0  0  0  0
  194.1920  170.0640  146.1280 C   0  0  1  0  0  3  0  0  0  0  0  0
  196.7760  174.9840  142.1060 O   0  0  0  0  0  0  0  0  0  0  0  0
  196.8150  176.7900  140.7000 O   0  0  0  0  0  1  0  0  0  0  0  0
  195.0740  174.3000  139.0420 C   0  0  2  0  0  3  0  0  0  0  0  0
  191.9610  170.2510  142.2740 C   0  0  0  0  0  2  0  0  0  0  0  0
  193.8250  170.5420  143.8800 N   0  0  2  0  0  0  0  0  0  0  0  0
  195.5450  174.4730  142.5410 C   0  0  1  0  0  0  0  0  0  0  0  0
  195.7310  170.5540  138.9810 C   0  0  0  0  0  2  0  0  0  0  0  0
  195.1430  170.2140  140.3210 C   0  0  0  0  0  0  0  0  0  0  0  0
  192.8110  170.6300  141.0930 C   0  0  0  0  0  0  0  0  0  0  0  0
  194.9150  171.3490  145.8600 C   0  0  0  0  0  2  0  0  0  0  0  0
  195.2540  174.4440  144.0400 C   0  0  0  0  0  2  0  0  0  0  0  0
  195.1610  175.1080  140.3440 C   0  0  1  0  0  3  0  0  0  0  0  0
  192.2800  172.3770  143.6210 C   0  0  0  0  0  2  0  0  0  0  0  0
  195.9250  173.0330  139.0660 C   0  0  0  0  0  2  0  0  0  0  0  0
  195.4530  175.1000  137.9630 O   0  0  0  0  0  1  0  0  0  0  0  0
  193.8210  169.5010  144.8350 N   0  0  0  0  0  2  0  0  0  0  0  0
  193.7670  174.2500  144.3840 C   0  0  2  0  0  3  0  0  0  0  0  0
  191.7750  175.1930  147.5500 C   0  0  0  0  0  2  0  0  0  0  0  0
  190.5590  177.5410  144.8480 O   0  0  0  0  0  1  0  0  0  0  0  0
  191.1580  176.3800  145.3450 C   0  0  2  0  0  3  0  0  0  0  0  0
  190.7830  176.1200  146.8220 C   0  0  2  0  0  3  0  0  0  0  0  0
  193.3440  175.1080  145.5760 C   0  0  1  0  0  3  0  0  0  0  0  0
  192.6710  176.4300  145.1440 C   0  0  0  0  0  2  0  0  0  0  0  0
  192.5170  174.2820  146.5780 C   0  0  0  0  0  2  0  0  0  0  0  0
  190.5660  177.3960  147.6360 C   0  0  0  0  0  2  0  0  0  0  0  0
  191.4950  177.4920  148.6710 O   0  0  0  0  0  1  0  0  0  0  0  0
  195.0670  169.1190  146.8750 C   0  0  0  0  0  0  0  0  0  0  0  0
  194.5990  168.4740  148.0140 O   0  0  0  0  0  1  0  0  0  0  0  0
  196.2340  168.8900  146.4640 O   0  0  0  0  0  0  0  0  0  0  0  0
  194.0610  171.2580  136.3610 N   0  0  0  0  0  0  0  0  0  0  0  0
  195.2590  171.8860  136.9400 C   0  0  2  0  0  3  0  0  0  0  0  0
  195.3270  170.5180  136.4360 C   0  0  0  0  0  2  0  0  0  0  0  0
  193.9560  171.7390  134.9960 C   0  0  0  0  0  2  0  0  0  0  0  0
  192.4940  171.7290  134.5610 C   0  0  0  0  0  2  0  0  0  0  0  0
  191.6740  172.8120  135.2660 C   0  0  1  0  0  3  0  0  0  0  0  0
  191.5850  175.2570  135.7850 C   0  0  2  0  0  3  0  0  0  0  0  0
  193.0180  174.8110  135.8770 C   0  0  1  0  0  3  0  0  0  0  0  0
  192.1060  174.2050  134.8260 C   0  0  1  0  0  3  0  0  0  0  0  0
  192.6810  176.2810  136.0130 C   0  0  0  0  0  2  0  0  0  0  0  0
  190.1700  172.5930  135.0370 C   0  0  2  0  0  3  0  0  0  0  0  0
  189.3510  173.2460  136.1360 C   0  0  0  0  0  2  0  0  0  0  0  0
  189.4690  171.7290  136.0990 C   0  0  2  0  0  3  0  0  0  0  0  0
  190.3570  171.2840  137.2550 C   0  0  0  0  0  2  0  0  0  0  0  0
  189.7770  170.0400  137.8880 C   0  0  0  0  0  1  0  0  0  0  0  0
  1 26  1  6  0  0  0
  2 22  2  0  0  0  0
  3  8  1  6  0  0  0
  3 19  1  0  0  0  0
  4 20  1  1  0  0  0
  4 27  1  0  0  0  0
  5  1  1  0  0  0  0
  5 23  1  1  0  0  0
  8 19  1  0  0  0  0
  9 15  1  1  0  0  0
  9 14  1  0  0  0  0
 10 11  1  6  0  0  0
 10 22  1  0  0  0  0
 10  6  1  0  0  0  0
 12 17  1  6  0  0  0
 12 26  1  0  0  0  0
 12 18  1  0  0  0  0
 13 40  1  6  0  0  0
 14 19  1  0  0  0  0
 16 28  1  6  0  0  0
 16 27  1  0  0  0  0
 16 25  1  0  0  0  0
 18  5  1  0  0  0  0
 18 29  1  1  0  0  0
 19 24  1  1  0  0  0
 20 21  1  0  0  0  0
 21 10  1  0  0  0  0
 21  7  2  0  0  0  0
 22 17  1  0  0  0  0
 23 13  1  0  0  0  0
 24 30  1  0  0  0  0
 25  9  1  0  0  0  0
 25  3  1  0  0  0  0
 29 13  1  0  0  0  0
 30  1  1  0  0  0  0
 30 35  1  0  0  0  0
 32 33  1  0  0  0  0
 33 34  1  0  0  0  0
 34 31  1  0  0  0  0
 34 38  1  0  0  0  0
 35 37  1  0  0  0  0
 36 33  1  0  0  0  0
 36 35  1  0  0  0  0
 37 31  1  0  0  0  0
 38 39  1  0  0  0  0
 40 41  1  0  0  0  0
 42 40  2  0  0  0  0
 43 45  1  0  0  0  0
 43 44  1  0  0  0  0
 44  4  1  0  0  0  0
 45 44  1  0  0  0  0
 46 43  1  0  0  0  0
 47 46  1  0  0  0  0
 47 48  1  0  0  0  0
 49 50  1  0  0  0  0
 49 52  1  0  0  0  0
 50 52  1  0  0  0  0
 51 48  1  0  0  0  0
 51 49  1  0  0  0  0
 51 50  1  0  0  0  0
 53 48  1  0  0  0  0
 53 55  1  0  0  0  0
 53 54  1  0  0  0  0
 55 54  1  0  0  0  0
 55 56  1  0  0  0  0
 56 57  1  0  0  0  0
M  END
>  <MODEL>
7

>  <REMARK>
 VINA RESULT:      -6.8      3.701      9.091
  Name = 
  10 active torsions:
  status: ('A' for Active; 'I' for Inactive)
    1  A    between atoms: C_1  and  C_23
    2  A    between atoms: C_4  and  N_5
    3  A    between atoms: C_4  and  C_7
    4  A    between atoms: C_7  and  C_43
    5  A    between atoms: C_11  and  C_32
    6  A    between atoms: C_13  and  C_35
    7  A    between atoms: C_16  and  C_45
    8  A    between atoms: C_30  and  C_43
    9  A    between atoms: C_37  and  C_43
   10  A    between atoms: C_38  and  C_57
                            x       y       z     vdW  Elec       q    Type
                         _______ _______ _______ _____ _____    ______ ____

>  <TORSDO>
F 10

$$$$
=
 OpenBabel11072409093D

 57 66  0  0  1  0  0  0  0  0999 V2000
  190.7810  174.0220  144.3910 C   0  0  2  0  0  3  0  0  0  0  0  0
  192.0490  170.3610  142.4930 C   0  0  0  0  0  2  0  0  0  0  0  0
  189.7330  172.5170  141.1850 C   0  0  1  0  0  3  0  0  0  0  0  0
  192.6790  170.5370  139.2600 C   0  0  1  0  0  3  0  0  0  0  0  0
  192.0310  174.6000  143.7400 C   0  0  2  0  0  3  0  0  0  0  0  0
  195.4360  171.6610  142.7610 O   0  0  0  0  0  1  0  0  0  0  0  0
  193.8880  173.0590  140.9420 O   0  0  0  0  0  0  0  0  0  0  0  0
  190.9550  173.2320  141.1530 O   0  0  0  0  0  0  0  0  0  0  0  0
  189.2290  173.3770  138.9740 C   0  0  2  0  0  3  0  0  0  0  0  0
  194.3970  171.0340  142.0650 C   0  0  2  0  0  0  0  0  0  0  0  0
  194.8690  169.6300  141.7030 C   0  0  0  0  0  1  0  0  0  0  0  0
  192.5950  172.5780  144.7940 C   0  0  1  0  0  3  0  0  0  0  0  0
  193.4470  175.6110  145.3160 C   0  0  1  0  0  3  0  0  0  0  0  0
  189.5480  174.4840  139.7860 O   0  0  0  0  0  0  0  0  0  0  0  0
  187.9400  173.5260  138.4680 O   0  0  0  0  0  1  0  0  0  0  0  0
  190.2220  171.0270  139.1920 C   0  0  2  0  0  3  0  0  0  0  0  0
  193.2550  171.2510  144.4150 C   0  0  0  0  0  2  0  0  0  0  0  0
  193.1490  173.6960  144.0290 N   0  0  2  0  0  0  0  0  0  0  0  0
  189.7720  173.9830  141.0770 C   0  0  1  0  0  0  0  0  0  0  0  0
  194.0100  171.2480  139.4570 C   0  0  0  0  0  2  0  0  0  0  0  0
  194.0910  171.8590  140.8270 C   0  0  0  0  0  0  0  0  0  0  0  0
  193.1680  170.9330  142.9480 C   0  0  0  0  0  0  0  0  0  0  0  0
  192.3550  175.9390  144.3430 C   0  0  0  0  0  2  0  0  0  0  0  0
  189.5880  174.9230  142.2670 C   0  0  0  0  0  2  0  0  0  0  0  0
  189.3120  172.1010  139.8020 C   0  0  1  0  0  3  0  0  0  0  0  0
  191.0960  172.5690  144.6080 C   0  0  0  0  0  2  0  0  0  0  0  0
  191.6160  171.5470  138.8490 C   0  0  0  0  0  2  0  0  0  0  0  0
  189.6250  170.4950  138.0470 O   0  0  0  0  0  1  0  0  0  0  0  0
  194.0640  174.3680  144.8690 N   0  0  0  0  0  2  0  0  0  0  0  0
  189.4630  174.2000  143.6190 C   0  0  2  0  0  3  0  0  0  0  0  0
  186.9370  176.8880  144.7480 C   0  0  0  0  0  2  0  0  0  0  0  0
  189.8460  177.1590  147.1460 O   0  0  0  0  0  1  0  0  0  0  0  0
  189.2170  176.8030  145.9500 C   0  0  2  0  0  3  0  0  0  0  0  0
  187.8950  177.5770  145.7370 C   0  0  2  0  0  3  0  0  0  0  0  0
  188.4200  174.8600  144.5210 C   0  0  1  0  0  3  0  0  0  0  0  0
  189.0060  175.2920  145.8840 C   0  0  0  0  0  2  0  0  0  0  0  0
  187.6830  175.9840  143.7720 C   0  0  0  0  0  2  0  0  0  0  0  0
  187.1590  177.9070  147.0360 C   0  0  0  0  0  2  0  0  0  0  0  0
  186.2210  176.9210  147.3410 O   0  0  0  0  0  1  0  0  0  0  0  0
  194.4550  176.7070  145.3580 C   0  0  0  0  0  0  0  0  0  0  0  0
  194.6280  177.4640  146.5110 O   0  0  0  0  0  1  0  0  0  0  0  0
  195.1660  176.9400  144.3460 O   0  0  0  0  0  0  0  0  0  0  0  0
  194.0830  169.6780  137.4540 N   0  0  0  0  0  0  0  0  0  0  0  0
  192.8370  169.4560  138.2020 C   0  0  2  0  0  3  0  0  0  0  0  0
  192.7900  170.0620  136.8750 C   0  0  0  0  0  2  0  0  0  0  0  0
  194.4360  168.4090  136.8450 C   0  0  0  0  0  2  0  0  0  0  0  0
  195.8730  168.4680  136.3360 C   0  0  0  0  0  2  0  0  0  0  0  0
  196.5380  169.8130  136.6360 C   0  0  1  0  0  3  0  0  0  0  0  0
  197.5470  170.5860  138.7900 C   0  0  2  0  0  3  0  0  0  0  0  0
  197.1800  169.1350  138.9390 C   0  0  1  0  0  3  0  0  0  0  0  0
  197.6990  169.6480  137.6090 C   0  0  1  0  0  3  0  0  0  0  0  0
  197.9360  169.8340  140.0500 C   0  0  0  0  0  2  0  0  0  0  0  0
  196.9880  170.5000  135.3370 C   0  0  2  0  0  3  0  0  0  0  0  0
  197.9220  171.6610  135.6320 C   0  0  0  0  0  2  0  0  0  0  0  0
  196.5020  171.9500  135.1660 C   0  0  2  0  0  3  0  0  0  0  0  0
  195.7100  172.5050  136.3430 C   0  0  0  0  0  2  0  0  0  0  0  0
  196.4260  173.7110  136.9090 C   0  0  0  0  0  1  0  0  0  0  0  0
  1 26  1  6  0  0  0
  2 22  2  0  0  0  0
  3  8  1  6  0  0  0
  4 27  1  6  0  0  0
  4 20  1  0  0  0  0
  5 18  1  0  0  0  0
  5 23  1  1  0  0  0
  5  1  1  0  0  0  0
  9 15  1  1  0  0  0
  9 14  1  0  0  0  0
  9 25  1  0  0  0  0
 10 11  1  6  0  0  0
 10  6  1  0  0  0  0
 10 22  1  0  0  0  0
 12 17  1  6  0  0  0
 13 40  1  6  0  0  0
 14 19  1  0  0  0  0
 16 28  1  6  0  0  0
 16 25  1  0  0  0  0
 18 12  1  0  0  0  0
 18 29  1  1  0  0  0
 19  8  1  0  0  0  0
 19  3  1  0  0  0  0
 19 24  1  1  0  0  0
 20 21  1  0  0  0  0
 21  7  2  0  0  0  0
 21 10  1  0  0  0  0
 22 17  1  0  0  0  0
 23 13  1  0  0  0  0
 24 30  1  0  0  0  0
 25  3  1  0  0  0  0
 26 12  1  0  0  0  0
 27 16  1  0  0  0  0
 29 13  1  0  0  0  0
 30  1  1  0  0  0  0
 30 35  1  0  0  0  0
 31 34  1  0  0  0  0
 33 32  1  0  0  0  0
 34 33  1  0  0  0  0
 34 38  1  0  0  0  0
 35 36  1  0  0  0  0
 36 33  1  0  0  0  0
 37 35  1  0  0  0  0
 37 31  1  0  0  0  0
 38 39  1  0  0  0  0
 40 41  1  0  0  0  0
 42 40  2  0  0  0  0
 43 44  1  0  0  0  0
 44  4  1  0  0  0  0
 45 43  1  0  0  0  0
 45 44  1  0  0  0  0
 46 43  1  0  0  0  0
 47 48  1  0  0  0  0
 47 46  1  0  0  0  0
 48 51  1  0  0  0  0
 49 50  1  0  0  0  0
 49 52  1  0  0  0  0
 50 52  1  0  0  0  0
 51 49  1  0  0  0  0
 51 50  1  0  0  0  0
 53 54  1  0  0  0  0
 53 48  1  0  0  0  0
 55 53  1  0  0  0  0
 55 54  1  0  0  0  0
 55 56  1  0  0  0  0
 56 57  1  0  0  0  0
M  END
>  <MODEL>
8

>  <REMARK>
 VINA RESULT:      -6.8      2.464     10.171
  Name = 
  10 active torsions:
  status: ('A' for Active; 'I' for Inactive)
    1  A    between atoms: C_1  and  C_23
    2  A    between atoms: C_4  and  N_5
    3  A    between atoms: C_4  and  C_7
    4  A    between atoms: C_7  and  C_43
    5  A    between atoms: C_11  and  C_32
    6  A    between atoms: C_13  and  C_35
    7  A    between atoms: C_16  and  C_45
    8  A    between atoms: C_30  and  C_43
    9  A    between atoms: C_37  and  C_43
   10  A    between atoms: C_38  and  C_57
                            x       y       z     vdW  Elec       q    Type
                         _______ _______ _______ _____ _____    ______ ____

>  <TORSDO>
F 10

$$$$
=
 OpenBabel11072409093D

 57 66  0  0  1  0  0  0  0  0999 V2000
  190.2470  175.5240  145.0480 C   0  0  2  0  0  3  0  0  0  0  0  0
  190.2670  171.7990  142.8700 C   0  0  0  0  0  2  0  0  0  0  0  0
  188.4600  174.5610  141.9620 C   0  0  1  0  0  3  0  0  0  0  0  0
  190.5250  172.0300  139.5900 C   0  0  1  0  0  3  0  0  0  0  0  0
  191.5170  175.8050  144.2540 C   0  0  2  0  0  3  0  0  0  0  0  0
  193.8830  172.1660  142.7240 O   0  0  0  0  0  1  0  0  0  0  0  0
  192.5490  174.0350  141.1800 O   0  0  0  0  0  0  0  0  0  0  0  0
  189.8130  174.9390  141.7910 O   0  0  0  0  0  0  0  0  0  0  0  0
  187.9350  175.6720  139.8700 C   0  0  2  0  0  3  0  0  0  0  0  0
  192.6400  171.8760  142.1530 C   0  0  2  0  0  0  0  0  0  0  0  0
  192.6790  170.4260  141.6820 C   0  0  0  0  0  1  0  0  0  0  0  0
  191.6530  173.6380  145.1520 C   0  0  1  0  0  3  0  0  0  0  0  0
  193.3290  176.3090  145.6590 C   0  0  1  0  0  3  0  0  0  0  0  0
  188.6310  176.6010  140.6700 O   0  0  0  0  0  0  0  0  0  0  0  0
  186.6800  176.1810  139.5480 O   0  0  0  0  0  1  0  0  0  0  0  0
  188.2940  173.1370  139.8710 C   0  0  2  0  0  3  0  0  0  0  0  0
  191.8890  172.2160  144.6410 C   0  0  0  0  0  2  0  0  0  0  0  0
  192.3840  174.6270  144.3580 N   0  0  2  0  0  0  0  0  0  0  0  0
  188.8700  175.9720  141.9000 C   0  0  1  0  0  0  0  0  0  0  0  0
  192.0100  172.3600  139.6300 C   0  0  0  0  0  2  0  0  0  0  0  0
  192.4150  172.8340  140.9970 C   0  0  0  0  0  0  0  0  0  0  0  0
  191.5440  172.0320  143.1900 C   0  0  0  0  0  0  0  0  0  0  0  0
  192.2520  176.9710  144.8540 C   0  0  0  0  0  2  0  0  0  0  0  0
  189.0850  176.8440  143.1360 C   0  0  0  0  0  2  0  0  0  0  0  0
  187.7800  174.3630  140.6350 C   0  0  1  0  0  3  0  0  0  0  0  0
  190.1930  174.0270  145.1690 C   0  0  0  0  0  2  0  0  0  0  0  0
  189.7230  173.3040  139.3620 C   0  0  0  0  0  2  0  0  0  0  0  0
  187.4440  172.8550  138.8000 O   0  0  0  0  0  1  0  0  0  0  0  0
  193.5390  174.9830  145.0900 N   0  0  0  0  0  2  0  0  0  0  0  0
  188.9390  176.0860  144.4670 C   0  0  2  0  0  3  0  0  0  0  0  0
  186.6650  176.7900  147.5030 C   0  0  0  0  0  2  0  0  0  0  0  0
  184.8080  178.1520  144.5050 O   0  0  0  0  0  1  0  0  0  0  0  0
  185.7460  177.3480  145.1590 C   0  0  2  0  0  3  0  0  0  0  0  0
  185.4410  177.2100  146.6680 C   0  0  2  0  0  3  0  0  0  0  0  0
  188.2240  176.9280  145.5240 C   0  0  1  0  0  3  0  0  0  0  0  0
  187.1610  177.8670  144.9110 C   0  0  0  0  0  2  0  0  0  0  0  0
  187.6930  176.0390  146.6630 C   0  0  0  0  0  2  0  0  0  0  0  0
  184.7910  178.4510  147.2810 C   0  0  0  0  0  2  0  0  0  0  0  0
  185.7550  179.3850  147.6580 O   0  0  0  0  0  1  0  0  0  0  0  0
  194.5870  177.1040  145.6030 C   0  0  0  0  0  0  0  0  0  0  0  0
  195.4610  176.9680  144.5310 O   0  0  0  0  0  0  0  0  0  0  0  0
  194.8550  177.9170  146.5250 O   0  0  0  0  0  1  0  0  0  0  0  0
  191.4090  170.9910  137.5610 N   0  0  0  0  0  0  0  0  0  0  0  0
  190.2630  171.0200  138.4830 C   0  0  2  0  0  3  0  0  0  0  0  0
  190.1810  171.7110  137.2010 C   0  0  0  0  0  2  0  0  0  0  0  0
  191.3520  169.7210  136.8630 C   0  0  0  0  0  2  0  0  0  0  0  0
  192.7490  169.3340  136.3890 C   0  0  0  0  0  2  0  0  0  0  0  0
  193.7310  170.5060  136.4640 C   0  0  1  0  0  3  0  0  0  0  0  0
  195.2660  171.0460  138.3630 C   0  0  2  0  0  3  0  0  0  0  0  0
  194.6650  169.6910  138.6180 C   0  0  1  0  0  3  0  0  0  0  0  0
  195.0050  170.1100  137.2000 C   0  0  1  0  0  3  0  0  0  0  0  0
  195.7420  170.2190  139.5440 C   0  0  0  0  0  2  0  0  0  0  0  0
  194.0390  171.0500  135.0610 C   0  0  2  0  0  3  0  0  0  0  0  0
  195.2390  171.9800  135.0900 C   0  0  0  0  0  2  0  0  0  0  0  0
  193.8480  172.5680  134.8950 C   0  0  2  0  0  3  0  0  0  0  0  0
  193.4550  173.3090  136.1670 C   0  0  0  0  0  2  0  0  0  0  0  0
  192.3980  174.3400  135.8440 C   0  0  0  0  0  1  0  0  0  0  0  0
  1 26  1  6  0  0  0
  2 22  2  0  0  0  0
  3  8  1  6  0  0  0
  4 27  1  6  0  0  0
  4 20  1  0  0  0  0
  5 18  1  0  0  0  0
  5 23  1  1  0  0  0
  5  1  1  0  0  0  0
  8 19  1  0  0  0  0
  9 15  1  1  0  0  0
  9 25  1  0  0  0  0
  9 14  1  0  0  0  0
 10 11  1  6  0  0  0
 10  6  1  0  0  0  0
 10 22  1  0  0  0  0
 12 17  1  6  0  0  0
 12 26  1  0  0  0  0
 13 40  1  6  0  0  0
 14 19  1  0  0  0  0
 16 28  1  6  0  0  0
 16 25  1  0  0  0  0
 18 29  1  1  0  0  0
 18 12  1  0  0  0  0
 19  3  1  0  0  0  0
 19 24  1  1  0  0  0
 20 21  1  0  0  0  0
 21  7  2  0  0  0  0
 21 10  1  0  0  0  0
 22 17  1  0  0  0  0
 23 13  1  0  0  0  0
 24 30  1  0  0  0  0
 25  3  1  0  0  0  0
 27 16  1  0  0  0  0
 29 13  1  0  0  0  0
 30  1  1  0  0  0  0
 30 35  1  0  0  0  0
 32 33  1  0  0  0  0
 33 34  1  0  0  0  0
 34 38  1  0  0  0  0
 34 31  1  0  0  0  0
 35 37  1  0  0  0  0
 36 33  1  0  0  0  0
 36 35  1  0  0  0  0
 37 31  1  0  0  0  0
 38 39  1  0  0  0  0
 40 42  1  0  0  0  0
 41 40  2  0  0  0  0
 43 44  1  0  0  0  0
 44  4  1  0  0  0  0
 45 43  1  0  0  0  0
 45 44  1  0  0  0  0
 46 43  1  0  0  0  0
 47 48  1  0  0  0  0
 47 46  1  0  0  0  0
 48 51  1  0  0  0  0
 49 50  1  0  0  0  0
 49 52  1  0  0  0  0
 50 52  1  0  0  0  0
 51 49  1  0  0  0  0
 51 50  1  0  0  0  0
 53 54  1  0  0  0  0
 53 48  1  0  0  0  0
 55 53  1  0  0  0  0
 55 54  1  0  0  0  0
 55 56  1  0  0  0  0
 57 56  1  0  0  0  0
M  END
>  <MODEL>
9

>  <REMARK>
 VINA RESULT:      -6.5      2.662     10.010
  Name = 
  10 active torsions:
  status: ('A' for Active; 'I' for Inactive)
    1  A    between atoms: C_1  and  C_23
    2  A    between atoms: C_4  and  N_5
    3  A    between atoms: C_4  and  C_7
    4  A    between atoms: C_7  and  C_43
    5  A    between atoms: C_11  and  C_32
    6  A    between atoms: C_13  and  C_35
    7  A    between atoms: C_16  and  C_45
    8  A    between atoms: C_30  and  C_43
    9  A    between atoms: C_37  and  C_43
   10  A    between atoms: C_38  and  C_57
                            x       y       z     vdW  Elec       q    Type
                         _______ _______ _______ _____ _____    ______ ____

>  <TORSDO>
F 10

$$$$
