=
 OpenBabel11062418383D

 55 60  0  0  1  0  0  0  0  0999 V2000
  188.8450  174.1580  142.2140 C   0  0  0  0  0  3  0  0  0  0  0  0
  189.8250  172.3440  140.3070 C   0  0  0  0  0  3  0  0  0  0  0  0
  189.4050  172.9410  142.6170 C   0  0  0  0  0  3  0  0  0  0  0  0
  187.9730  175.6340  140.3190 C   0  0  0  0  0  0  0  0  0  0  0  0
  189.1620  173.8530  138.4310 C   0  0  0  0  0  2  0  0  0  0  0  0
  188.7630  174.4750  140.8360 C   0  0  0  0  0  0  0  0  0  0  0  0
  186.5460  176.6270  138.8840 N   0  0  0  0  0  0  0  0  0  0  0  0
  187.8550  174.5620  138.0640 C   0  0  0  0  0  2  0  0  0  0  0  0
  187.4090  176.7400  141.0430 N   0  0  0  0  0  0  0  0  0  0  0  0
  189.9130  172.0320  141.6650 C   0  0  0  0  0  0  0  0  0  0  0  0
  189.2260  173.5350  139.9000 C   0  0  0  0  0  0  0  0  0  0  0  0
  186.4360  177.3580  140.1390 C   0  0  0  0  0  3  0  0  0  0  0  0
  187.5200  175.6180  139.0830 C   0  0  0  0  0  0  0  0  0  0  0  0
  187.2020  176.7930  142.5140 C   0  0  1  0  0  3  0  0  0  0  0  0
  188.3790  177.4150  143.2080 C   0  0  0  0  0  3  0  0  0  0  0  0
  189.0350  176.7760  144.1090 N   0  0  0  0  0  0  0  0  0  0  0  0
  190.1950  177.3570  144.7640 C   0  0  2  0  0  3  0  0  0  0  0  0
  191.2220  177.9110  143.7480 C   0  0  0  0  0  2  0  0  0  0  0  0
  192.3160  177.0550  143.5970 O   0  0  0  0  0  1  0  0  0  0  0  0
  190.8790  176.2260  145.5580 C   0  0  2  0  0  3  0  0  0  0  0  0
  189.3110  174.7440  146.9170 C   0  0  0  0  0  1  0  0  0  0  0  0
  190.1430  174.8680  145.6480 C   0  0  0  0  0  2  0  0  0  0  0  0
  191.6760  176.6630  146.6550 O   0  0  0  0  0  0  0  0  0  0  0  0
  194.4840  177.2960  146.4520 N   0  0  0  0  0  2  0  0  0  0  0  0
  192.6960  175.7980  146.8730 N   0  0  0  0  0  2  0  0  0  0  0  0
  194.0650  176.0770  146.4980 C   0  0  0  0  0  0  0  0  0  0  0  0
  194.7510  175.0960  145.6070 C   0  0  0  0  0  1  0  0  0  0  0  0
  186.0060  177.5640  142.8190 N   0  0  0  0  0  2  0  0  0  0  0  0
  184.0260  178.9750  145.6940 C   0  0  0  0  0  3  0  0  0  0  0  0
  185.0900  176.9240  146.4480 C   0  0  0  0  0  3  0  0  0  0  0  0
  184.6140  178.8150  144.4310 C   0  0  0  0  0  3  0  0  0  0  0  0
  185.6740  176.7630  145.1710 C   0  0  0  0  0  3  0  0  0  0  0  0
  185.4530  177.7160  144.1500 C   0  0  0  0  0  0  0  0  0  0  0  0
  184.2550  178.0220  146.6950 C   0  0  0  0  0  3  0  0  0  0  0  0
  190.4520  170.6900  142.0760 C   0  0  0  0  0  2  0  0  0  0  0  0
  191.6600  170.3030  141.2050 C   0  0  0  0  0  2  0  0  0  0  0  0
  193.8650  171.4400  141.5640 C   0  0  0  0  0  2  0  0  0  0  0  0
  192.9940  170.2240  141.9950 C   0  0  1  0  0  0  0  0  0  0  0  0
  192.6290  170.2330  143.5200 C   0  0  2  0  0  3  0  0  0  0  0  0
  193.6650  169.0450  141.6550 O   0  0  0  0  0  1  0  0  0  0  0  0
  192.8740  172.7480  143.3200 C   0  0  0  0  0  2  0  0  0  0  0  0
  194.1290  172.3660  142.6780 N   0  0  2  0  0  0  0  0  0  0  0  0
  192.3750  171.5980  144.1780 C   0  0  0  0  0  2  0  0  0  0  0  0
  196.2740  175.9840  140.9550 C   0  0  0  0  0  2  0  0  0  0  0  0
  197.3720  174.1780  142.4770 C   0  0  0  0  0  2  0  0  0  0  0  0
  194.2860  174.3390  141.0620 C   0  0  2  0  0  3  0  0  0  0  0  0
  196.9810  175.6610  142.2910 C   0  0  0  0  0  2  0  0  0  0  0  0
  194.7490  175.8050  141.0670 C   0  0  0  0  0  2  0  0  0  0  0  0
  192.9110  174.3080  141.1100 F   0  0  0  0  0  0  0  0  0  0  0  0
  194.9030  173.5400  142.2560 C   0  0  2  0  0  3  0  0  0  0  0  0
  196.3520  173.1360  141.9760 C   0  0  0  0  0  2  0  0  0  0  0  0
  193.4140  169.3740  144.3490 O   0  0  0  0  0  0  0  0  0  0  0  0
  194.5750  169.7720  145.0450 C   0  0  0  0  0  0  0  0  0  0  0  0
  195.8640  169.8840  144.2940 C   0  0  0  0  0  1  0  0  0  0  0  0
  194.5540  169.9240  146.2980 O   0  0  0  0  0  0  0  0  0  0  0  0
  1  3  1  0  0  0  0
  2 10  1  0  0  0  0
  4  6  1  0  0  0  0
  4  9  1  0  0  0  0
  5 11  1  0  0  0  0
  6  1  2  0  0  0  0
  7 13  1  0  0  0  0
  7 12  2  0  0  0  0
  8  5  1  0  0  0  0
  8 13  1  0  0  0  0
  9 14  1  0  0  0  0
 10 35  1  0  0  0  0
 10  3  2  0  0  0  0
 11  2  2  0  0  0  0
 11  6  1  0  0  0  0
 12  9  1  0  0  0  0
 13  4  2  0  0  0  0
 14 28  1  0  0  0  0
 14 15  1  1  0  0  0
 15 16  2  0  0  0  0
 16 17  1  0  0  0  0
 17 18  1  6  0  0  0
 17 20  1  0  0  0  0
 19 18  1  0  0  0  0
 20 22  1  1  0  0  0
 20 23  1  0  0  0  0
 22 21  1  0  0  0  0
 23 25  1  0  0  0  0
 24 26  2  0  0  0  0
 26 25  1  0  0  0  0
 27 26  1  0  0  0  0
 28 33  1  0  0  0  0
 29 34  1  0  0  0  0
 30 34  2  0  0  0  0
 31 29  2  0  0  0  0
 32 30  1  0  0  0  0
 33 31  1  0  0  0  0
 33 32  2  0  0  0  0
 36 38  1  0  0  0  0
 36 35  1  0  0  0  0
 37 38  1  0  0  0  0
 38 40  1  6  0  0  0
 38 39  1  0  0  0  0
 39 43  1  0  0  0  0
 39 52  1  1  0  0  0
 41 43  1  0  0  0  0
 42 37  1  6  0  0  0
 42 41  1  0  0  0  0
 44 48  1  0  0  0  0
 44 47  1  0  0  0  0
 46 48  1  0  0  0  0
 46 49  1  1  0  0  0
 46 50  1  0  0  0  0
 47 45  1  0  0  0  0
 50 51  1  6  0  0  0
 50 42  1  0  0  0  0
 51 45  1  0  0  0  0
 52 53  1  0  0  0  0
 53 55  2  0  0  0  0
 54 53  1  0  0  0  0
M  END
>  <MODEL>
1

>  <REMARK>
 VINA RESULT:      -7.4      0.000      0.000
  Name = 
  16 active torsions:
  status: ('A' for Active; 'I' for Inactive)
    1  A    between atoms: C_4  and  O_27
    2  A    between atoms: C_5  and  C_18
    3  A    between atoms: C_8  and  O_27
    4  A    between atoms: N_10  and  O_55
    5  A    between atoms: C_11  and  CA_20
    6  A    between atoms: N_14  and  C_39
    7  A    between atoms: N_14  and  C_43
    8  A    between atoms: C_18  and  C_37
    9  A    between atoms: CA_20  and  C_45
   10  A    between atoms: CA_20  and  N_51
   11  A    between atoms: C_26  and  C_43
   12  A    between atoms: N_35  and  C_52
   13  A    between atoms: C_37  and  C_44
   14  A    between atoms: N_41  and  C_43
   15  A    between atoms: C_45  and  C_48
   16  A    between atoms: C_45  and  O_55
                            x       y       z     vdW  Elec       q    Type
                         _______ _______ _______ _____ _____    ______ ____

>  <TORSDO>
F 16

$$$$
=
 OpenBabel11062418383D

 55 60  0  0  1  0  0  0  0  0999 V2000
  193.0570  172.0530  143.9860 C   0  0  0  0  0  3  0  0  0  0  0  0
  193.6130  169.2990  143.9970 C   0  0  0  0  0  3  0  0  0  0  0  0
  192.3230  171.1790  143.1760 C   0  0  0  0  0  3  0  0  0  0  0  0
  195.0680  172.4350  145.5150 C   0  0  0  0  0  0  0  0  0  0  0  0
  195.4620  169.6110  145.6460 C   0  0  0  0  0  2  0  0  0  0  0  0
  194.0930  171.5490  144.8100 C   0  0  0  0  0  0  0  0  0  0  0  0
  197.1320  173.0230  146.2050 N   0  0  0  0  0  0  0  0  0  0  0  0
  196.6830  170.5350  145.6950 C   0  0  0  0  0  2  0  0  0  0  0  0
  195.0110  173.8560  145.7260 N   0  0  0  0  0  0  0  0  0  0  0  0
  192.5870  169.7940  143.1880 C   0  0  0  0  0  0  0  0  0  0  0  0
  194.3770  170.1730  144.7700 C   0  0  0  0  0  0  0  0  0  0  0  0
  196.3650  174.2580  146.1190 C   0  0  0  0  0  3  0  0  0  0  0  0
  196.2550  171.9710  145.8460 C   0  0  0  0  0  0  0  0  0  0  0  0
  194.1330  174.8030  144.9910 C   0  0  1  0  0  3  0  0  0  0  0  0
  193.2190  175.5380  145.9270 C   0  0  0  0  0  3  0  0  0  0  0  0
  192.1280  176.0720  145.5100 N   0  0  0  0  0  0  0  0  0  0  0  0
  191.2190  176.7580  146.4130 C   0  0  2  0  0  3  0  0  0  0  0  0
  191.4480  176.3520  147.8890 C   0  0  0  0  0  2  0  0  0  0  0  0
  191.6920  177.4630  148.7000 O   0  0  0  0  0  1  0  0  0  0  0  0
  189.7890  176.3350  146.0240 C   0  0  2  0  0  3  0  0  0  0  0  0
  188.8930  174.4300  147.4610 C   0  0  0  0  0  1  0  0  0  0  0  0
  189.4420  174.8290  146.0980 C   0  0  0  0  0  2  0  0  0  0  0  0
  189.1780  177.1440  145.0230 O   0  0  0  0  0  0  0  0  0  0  0  0
  187.2430  178.0970  143.1050 N   0  0  0  0  0  2  0  0  0  0  0  0
  187.8390  177.2110  145.2210 N   0  0  0  0  0  2  0  0  0  0  0  0
  186.9440  177.9410  144.3500 C   0  0  0  0  0  0  0  0  0  0  0  0
  186.0760  178.9850  144.9700 C   0  0  0  0  0  1  0  0  0  0  0  0
  194.9450  175.7670  144.2620 N   0  0  0  0  0  2  0  0  0  0  0  0
  196.5880  176.4030  140.9350 C   0  0  0  0  0  3  0  0  0  0  0  0
  194.8900  174.6930  140.6200 C   0  0  0  0  0  3  0  0  0  0  0  0
  196.2520  176.4860  142.2940 C   0  0  0  0  0  3  0  0  0  0  0  0
  194.5610  174.7740  141.9920 C   0  0  0  0  0  3  0  0  0  0  0  0
  195.2310  175.6830  142.8440 C   0  0  0  0  0  0  0  0  0  0  0  0
  195.9150  175.4980  140.1040 C   0  0  0  0  0  3  0  0  0  0  0  0
  191.8580  168.8510  142.2720 C   0  0  0  0  0  2  0  0  0  0  0  0
  192.5240  168.8210  140.8850 C   0  0  0  0  0  2  0  0  0  0  0  0
  190.7240  170.4790  140.3410 C   0  0  0  0  0  2  0  0  0  0  0  0
  191.6090  169.3450  139.7460 C   0  0  1  0  0  0  0  0  0  0  0  0
  192.5480  169.8350  138.5890 C   0  0  2  0  0  3  0  0  0  0  0  0
  190.7800  168.3100  139.3030 O   0  0  0  0  0  1  0  0  0  0  0  0
  192.4160  172.0830  139.7550 C   0  0  0  0  0  2  0  0  0  0  0  0
  190.9870  171.7850  139.7150 N   0  0  2  0  0  0  0  0  0  0  0  0
  193.1340  171.2510  138.7060 C   0  0  0  0  0  2  0  0  0  0  0  0
  188.4650  175.2940  141.1270 C   0  0  0  0  0  2  0  0  0  0  0  0
  190.4880  174.2880  142.4230 C   0  0  0  0  0  2  0  0  0  0  0  0
  189.2680  173.6340  139.3180 C   0  0  2  0  0  3  0  0  0  0  0  0
  188.9720  174.5880  142.4040 C   0  0  0  0  0  2  0  0  0  0  0  0
  188.0720  174.2770  140.0390 C   0  0  0  0  0  2  0  0  0  0  0  0
  188.7950  172.7920  138.3380 F   0  0  0  0  0  0  0  0  0  0  0  0
  190.1910  172.8620  140.3170 C   0  0  2  0  0  3  0  0  0  0  0  0
  191.1050  173.8150  141.0910 C   0  0  0  0  0  2  0  0  0  0  0  0
  192.0990  169.5470  137.2630 O   0  0  0  0  0  0  0  0  0  0  0  0
  191.4220  170.4620  136.4290 C   0  0  0  0  0  0  0  0  0  0  0  0
  189.9290  170.5210  136.4840 C   0  0  0  0  0  1  0  0  0  0  0  0
  192.0550  171.1400  135.5720 O   0  0  0  0  0  0  0  0  0  0  0  0
  1  6  1  0  0  0  0
  2 11  1  0  0  0  0
  3 10  1  0  0  0  0
  3  1  2  0  0  0  0
  4  9  1  0  0  0  0
  4 13  2  0  0  0  0
  5  8  1  0  0  0  0
  6  4  1  0  0  0  0
  8 13  1  0  0  0  0
  9 12  1  0  0  0  0
 10  2  2  0  0  0  0
 11  6  2  0  0  0  0
 11  5  1  0  0  0  0
 12  7  2  0  0  0  0
 13  7  1  0  0  0  0
 14  9  1  0  0  0  0
 14 15  1  1  0  0  0
 16 15  2  0  0  0  0
 16 17  1  0  0  0  0
 17 18  1  1  0  0  0
 18 19  1  0  0  0  0
 20 22  1  6  0  0  0
 20 17  1  0  0  0  0
 22 21  1  0  0  0  0
 23 25  1  0  0  0  0
 23 20  1  0  0  0  0
 24 26  2  0  0  0  0
 26 27  1  0  0  0  0
 26 25  1  0  0  0  0
 28 14  1  0  0  0  0
 29 31  1  0  0  0  0
 30 32  2  0  0  0  0
 31 33  2  0  0  0  0
 32 33  1  0  0  0  0
 33 28  1  0  0  0  0
 34 30  1  0  0  0  0
 34 29  2  0  0  0  0
 35 10  1  0  0  0  0
 36 35  1  0  0  0  0
 38 40  1  6  0  0  0
 38 37  1  0  0  0  0
 38 36  1  0  0  0  0
 39 52  1  6  0  0  0
 39 43  1  0  0  0  0
 39 38  1  0  0  0  0
 42 41  1  1  0  0  0
 42 50  1  0  0  0  0
 42 37  1  0  0  0  0
 43 41  1  0  0  0  0
 44 47  1  0  0  0  0
 46 49  1  6  0  0  0
 46 48  1  0  0  0  0
 46 50  1  0  0  0  0
 47 45  1  0  0  0  0
 48 44  1  0  0  0  0
 50 51  1  6  0  0  0
 51 45  1  0  0  0  0
 53 54  1  0  0  0  0
 53 52  1  0  0  0  0
 55 53  2  0  0  0  0
M  END
>  <MODEL>
2

>  <REMARK>
 VINA RESULT:      -7.0      2.420      7.699
  Name = 
  16 active torsions:
  status: ('A' for Active; 'I' for Inactive)
    1  A    between atoms: C_4  and  O_27
    2  A    between atoms: C_5  and  C_18
    3  A    between atoms: C_8  and  O_27
    4  A    between atoms: N_10  and  O_55
    5  A    between atoms: C_11  and  CA_20
    6  A    between atoms: N_14  and  C_39
    7  A    between atoms: N_14  and  C_43
    8  A    between atoms: C_18  and  C_37
    9  A    between atoms: CA_20  and  C_45
   10  A    between atoms: CA_20  and  N_51
   11  A    between atoms: C_26  and  C_43
   12  A    between atoms: N_35  and  C_52
   13  A    between atoms: C_37  and  C_44
   14  A    between atoms: N_41  and  C_43
   15  A    between atoms: C_45  and  C_48
   16  A    between atoms: C_45  and  O_55
                            x       y       z     vdW  Elec       q    Type
                         _______ _______ _______ _____ _____    ______ ____

>  <TORSDO>
F 16

$$$$
=
 OpenBabel11062418383D

 55 60  0  0  1  0  0  0  0  0999 V2000
  195.0990  174.1680  142.8150 C   0  0  0  0  0  3  0  0  0  0  0  0
  195.1950  175.2120  145.4220 C   0  0  0  0  0  3  0  0  0  0  0  0
  194.3190  175.2770  143.1630 C   0  0  0  0  0  3  0  0  0  0  0  0
  196.6090  172.2470  143.5610 C   0  0  0  0  0  0  0  0  0  0  0  0
  196.8270  173.4630  146.1350 C   0  0  0  0  0  2  0  0  0  0  0  0
  195.9350  173.5620  143.7850 C   0  0  0  0  0  0  0  0  0  0  0  0
  197.2730  170.1850  144.1840 N   0  0  0  0  0  0  0  0  0  0  0  0
  196.8430  171.9350  146.0300 C   0  0  0  0  0  2  0  0  0  0  0  0
  196.7760  171.5120  142.3370 N   0  0  0  0  0  0  0  0  0  0  0  0
  194.3740  175.8150  144.4660 C   0  0  0  0  0  0  0  0  0  0  0  0
  195.9370  174.0790  145.0910 C   0  0  0  0  0  0  0  0  0  0  0  0
  197.1510  170.1520  142.7330 C   0  0  0  0  0  3  0  0  0  0  0  0
  196.9510  171.5030  144.5920 C   0  0  0  0  0  0  0  0  0  0  0  0
  196.0140  171.7420  141.0820 C   0  0  1  0  0  3  0  0  0  0  0  0
  196.8640  172.4140  140.0430 C   0  0  0  0  0  3  0  0  0  0  0  0
  196.5600  173.5730  139.5810 N   0  0  0  0  0  0  0  0  0  0  0  0
  197.3930  174.2460  138.5990 C   0  0  2  0  0  3  0  0  0  0  0  0
  197.9410  175.5940  139.1260 C   0  0  0  0  0  2  0  0  0  0  0  0
  197.3560  175.9530  140.3420 O   0  0  0  0  0  1  0  0  0  0  0  0
  196.5010  174.5440  137.3780 C   0  0  2  0  0  3  0  0  0  0  0  0
  196.8750  176.4110  135.6820 C   0  0  0  0  0  1  0  0  0  0  0  0
  197.2020  174.9750  136.0670 C   0  0  0  0  0  2  0  0  0  0  0  0
  195.2170  175.0760  137.6910 O   0  0  0  0  0  0  0  0  0  0  0  0
  193.2300  176.5280  136.1840 N   0  0  0  0  0  2  0  0  0  0  0  0
  194.2690  174.5210  136.8970 N   0  0  0  0  0  2  0  0  0  0  0  0
  193.1350  175.2570  136.3830 C   0  0  0  0  0  0  0  0  0  0  0  0
  191.7730  174.7220  136.6770 C   0  0  0  0  0  1  0  0  0  0  0  0
  195.5300  170.4740  140.5560 N   0  0  0  0  0  2  0  0  0  0  0  0
  192.1230  169.5910  139.2190 C   0  0  0  0  0  3  0  0  0  0  0  0
  192.0830  169.3020  141.6310 C   0  0  0  0  0  3  0  0  0  0  0  0
  193.4610  170.0060  139.2910 C   0  0  0  0  0  3  0  0  0  0  0  0
  193.4330  169.7120  141.6980 C   0  0  0  0  0  3  0  0  0  0  0  0
  194.1350  170.0820  140.5280 C   0  0  0  0  0  0  0  0  0  0  0  0
  191.4410  169.2280  140.3870 C   0  0  0  0  0  3  0  0  0  0  0  0
  193.4900  176.9600  144.8770 C   0  0  0  0  0  2  0  0  0  0  0  0
  192.2320  176.4410  145.5950 C   0  0  0  0  0  2  0  0  0  0  0  0
  190.8900  175.9500  143.5360 C   0  0  0  0  0  2  0  0  0  0  0  0
  190.9110  176.7780  144.8540 C   0  0  1  0  0  0  0  0  0  0  0  0
  189.7330  176.4230  145.8270 C   0  0  2  0  0  3  0  0  0  0  0  0
  190.8920  178.1380  144.5320 O   0  0  0  0  0  1  0  0  0  0  0  0
  189.8060  174.1500  144.7050 C   0  0  0  0  0  2  0  0  0  0  0  0
  189.7870  174.9760  143.5000 N   0  0  2  0  0  0  0  0  0  0  0  0
  189.2760  174.9560  145.8780 C   0  0  0  0  0  2  0  0  0  0  0  0
  189.4350  172.2280  139.8960 C   0  0  0  0  0  2  0  0  0  0  0  0
  191.6760  172.9850  140.9880 C   0  0  0  0  0  2  0  0  0  0  0  0
  188.4480  173.4560  141.9430 C   0  0  2  0  0  3  0  0  0  0  0  0
  190.7740  172.9820  139.7330 C   0  0  0  0  0  2  0  0  0  0  0  0
  188.3300  173.1530  140.4400 C   0  0  0  0  0  2  0  0  0  0  0  0
  187.3810  174.2410  142.3210 F   0  0  0  0  0  0  0  0  0  0  0  0
  189.8030  174.1580  142.2810 C   0  0  2  0  0  3  0  0  0  0  0  0
  190.9580  173.1550  142.3420 C   0  0  0  0  0  2  0  0  0  0  0  0
  188.6290  177.3300  145.8190 O   0  0  0  0  0  0  0  0  0  0  0  0
  187.5080  177.2220  144.9680 C   0  0  0  0  0  0  0  0  0  0  0  0
  186.2070  176.7600  145.5440 C   0  0  0  0  0  1  0  0  0  0  0  0
  187.6250  177.4020  143.7240 O   0  0  0  0  0  0  0  0  0  0  0  0
  1  3  2  0  0  0  0
  1  6  1  0  0  0  0
  3 10  1  0  0  0  0
  4  6  1  0  0  0  0
  4 13  2  0  0  0  0
  6 11  2  0  0  0  0
  7 13  1  0  0  0  0
  8  5  1  0  0  0  0
  9 12  1  0  0  0  0
  9  4  1  0  0  0  0
 10 35  1  0  0  0  0
 10  2  2  0  0  0  0
 11  2  1  0  0  0  0
 11  5  1  0  0  0  0
 12  7  2  0  0  0  0
 13  8  1  0  0  0  0
 14 15  1  6  0  0  0
 14  9  1  0  0  0  0
 16 15  2  0  0  0  0
 17 18  1  1  0  0  0
 17 16  1  0  0  0  0
 18 19  1  0  0  0  0
 20 22  1  6  0  0  0
 20 23  1  0  0  0  0
 20 17  1  0  0  0  0
 21 22  1  0  0  0  0
 24 26  2  0  0  0  0
 25 23  1  0  0  0  0
 26 27  1  0  0  0  0
 26 25  1  0  0  0  0
 28 14  1  0  0  0  0
 29 31  2  0  0  0  0
 29 34  1  0  0  0  0
 30 32  1  0  0  0  0
 31 33  1  0  0  0  0
 33 28  1  0  0  0  0
 33 32  2  0  0  0  0
 34 30  2  0  0  0  0
 35 36  1  0  0  0  0
 37 38  1  0  0  0  0
 38 40  1  6  0  0  0
 38 36  1  0  0  0  0
 38 39  1  0  0  0  0
 39 52  1  6  0  0  0
 39 43  1  0  0  0  0
 41 43  1  0  0  0  0
 42 37  1  6  0  0  0
 42 41  1  0  0  0  0
 44 48  1  0  0  0  0
 45 51  1  0  0  0  0
 46 50  1  0  0  0  0
 46 49  1  6  0  0  0
 47 44  1  0  0  0  0
 47 45  1  0  0  0  0
 48 46  1  0  0  0  0
 50 51  1  1  0  0  0
 50 42  1  0  0  0  0
 53 54  1  0  0  0  0
 53 52  1  0  0  0  0
 55 53  2  0  0  0  0
M  END
>  <MODEL>
3

>  <REMARK>
 VINA RESULT:      -7.0      3.213      9.533
  Name = 
  16 active torsions:
  status: ('A' for Active; 'I' for Inactive)
    1  A    between atoms: C_4  and  O_27
    2  A    between atoms: C_5  and  C_18
    3  A    between atoms: C_8  and  O_27
    4  A    between atoms: N_10  and  O_55
    5  A    between atoms: C_11  and  CA_20
    6  A    between atoms: N_14  and  C_39
    7  A    between atoms: N_14  and  C_43
    8  A    between atoms: C_18  and  C_37
    9  A    between atoms: CA_20  and  C_45
   10  A    between atoms: CA_20  and  N_51
   11  A    between atoms: C_26  and  C_43
   12  A    between atoms: N_35  and  C_52
   13  A    between atoms: C_37  and  C_44
   14  A    between atoms: N_41  and  C_43
   15  A    between atoms: C_45  and  C_48
   16  A    between atoms: C_45  and  O_55
                            x       y       z     vdW  Elec       q    Type
                         _______ _______ _______ _____ _____    ______ ____

>  <TORSDO>
F 16

$$$$
=
 OpenBabel11062418383D

 55 60  0  0  1  0  0  0  0  0999 V2000
  188.4080  174.6210  141.4160 C   0  0  0  0  0  3  0  0  0  0  0  0
  188.7960  173.6070  138.8250 C   0  0  0  0  0  3  0  0  0  0  0  0
  189.0300  173.3820  141.2270 C   0  0  0  0  0  3  0  0  0  0  0  0
  187.0870  176.5700  140.4230 C   0  0  0  0  0  0  0  0  0  0  0  0
  187.6820  175.5950  137.8070 C   0  0  0  0  0  2  0  0  0  0  0  0
  187.9620  175.3650  140.2960 C   0  0  0  0  0  0  0  0  0  0  0  0
  185.3460  177.8740  139.8310 N   0  0  0  0  0  0  0  0  0  0  0  0
  186.3390  176.2910  138.0540 C   0  0  0  0  0  2  0  0  0  0  0  0
  186.7640  177.3350  141.5960 N   0  0  0  0  0  0  0  0  0  0  0  0
  189.2420  172.8740  139.9280 C   0  0  0  0  0  0  0  0  0  0  0  0
  188.1340  174.8190  139.0130 C   0  0  0  0  0  0  0  0  0  0  0  0
  185.5960  178.1440  141.2400 C   0  0  0  0  0  3  0  0  0  0  0  0
  186.3150  176.9280  139.4170 C   0  0  0  0  0  0  0  0  0  0  0  0
  186.9650  176.8880  142.9990 C   0  0  1  0  0  3  0  0  0  0  0  0
  188.1940  177.5070  143.5980 C   0  0  0  0  0  3  0  0  0  0  0  0
  189.1680  176.7810  144.0170 N   0  0  0  0  0  0  0  0  0  0  0  0
  190.3760  177.3700  144.5690 C   0  0  2  0  0  3  0  0  0  0  0  0
  191.5720  177.2730  143.5910 C   0  0  0  0  0  2  0  0  0  0  0  0
  191.6300  176.0260  142.9650 O   0  0  0  0  0  1  0  0  0  0  0  0
  190.7350  176.5660  145.8340 C   0  0  2  0  0  3  0  0  0  0  0  0
  189.2130  174.9420  147.0790 C   0  0  0  0  0  1  0  0  0  0  0  0
  189.6360  176.3950  146.9100 C   0  0  0  0  0  2  0  0  0  0  0  0
  192.0990  176.6600  146.2360 O   0  0  0  0  0  0  0  0  0  0  0  0
  194.6100  175.5260  145.3790 N   0  0  0  0  0  2  0  0  0  0  0  0
  192.5730  175.4400  146.5880 N   0  0  0  0  0  2  0  0  0  0  0  0
  193.6920  174.8050  145.9280 C   0  0  0  0  0  0  0  0  0  0  0  0
  193.4750  173.4430  145.3560 C   0  0  0  0  0  1  0  0  0  0  0  0
  185.8070  177.2510  143.8050 N   0  0  0  0  0  2  0  0  0  0  0  0
  185.7440  179.3000  146.9630 C   0  0  0  0  0  3  0  0  0  0  0  0
  186.0300  176.9690  147.5850 C   0  0  0  0  0  3  0  0  0  0  0  0
  185.7300  178.9370  145.6080 C   0  0  0  0  0  3  0  0  0  0  0  0
  186.0080  176.6060  146.2200 C   0  0  0  0  0  3  0  0  0  0  0  0
  185.8700  177.5890  145.2130 C   0  0  0  0  0  0  0  0  0  0  0  0
  185.8810  178.3150  147.9480 C   0  0  0  0  0  3  0  0  0  0  0  0
  189.8430  171.5130  139.7090 C   0  0  0  0  0  2  0  0  0  0  0  0
  191.1850  171.6290  138.9660 C   0  0  0  0  0  2  0  0  0  0  0  0
  193.6390  171.8820  139.4090 C   0  0  0  0  0  2  0  0  0  0  0  0
  192.3830  171.0300  139.7510 C   0  0  1  0  0  0  0  0  0  0  0  0
  192.0020  171.0690  141.2720 C   0  0  2  0  0  3  0  0  0  0  0  0
  192.6020  169.7140  139.3310 O   0  0  0  0  0  1  0  0  0  0  0  0
  193.1280  173.3400  141.2510 C   0  0  0  0  0  2  0  0  0  0  0  0
  194.1830  172.5800  140.5860 N   0  0  2  0  0  0  0  0  0  0  0  0
  192.2310  172.3890  142.0250 C   0  0  0  0  0  2  0  0  0  0  0  0
  197.7520  175.3370  140.0170 C   0  0  0  0  0  2  0  0  0  0  0  0
  195.8540  174.9650  138.2710 C   0  0  0  0  0  2  0  0  0  0  0  0
  196.1940  173.8820  141.4750 C   0  0  2  0  0  3  0  0  0  0  0  0
  197.3580  174.8460  138.6050 C   0  0  0  0  0  2  0  0  0  0  0  0
  197.6370  174.2090  141.0580 C   0  0  0  0  0  2  0  0  0  0  0  0
  196.2230  172.9040  142.4440 F   0  0  0  0  0  0  0  0  0  0  0  0
  195.3330  173.4270  140.2510 C   0  0  2  0  0  3  0  0  0  0  0  0
  194.8740  174.6210  139.4100 C   0  0  0  0  0  2  0  0  0  0  0  0
  192.4100  169.9350  142.0410 O   0  0  0  0  0  0  0  0  0  0  0  0
  193.2580  169.9910  143.1670 C   0  0  0  0  0  0  0  0  0  0  0  0
  194.7380  169.9400  142.9590 C   0  0  0  0  0  1  0  0  0  0  0  0
  192.7790  169.9730  144.3350 O   0  0  0  0  0  0  0  0  0  0  0  0
  2 11  2  0  0  0  0
  2 10  1  0  0  0  0
  3  1  1  0  0  0  0
  4  9  1  0  0  0  0
  5  8  1  0  0  0  0
  5 11  1  0  0  0  0
  6  4  1  0  0  0  0
  6  1  2  0  0  0  0
  7 12  2  0  0  0  0
  8 13  1  0  0  0  0
  9 14  1  0  0  0  0
 10  3  2  0  0  0  0
 11  6  1  0  0  0  0
 12  9  1  0  0  0  0
 13  7  1  0  0  0  0
 13  4  2  0  0  0  0
 14 15  1  1  0  0  0
 14 28  1  0  0  0  0
 15 16  2  0  0  0  0
 16 17  1  0  0  0  0
 17 18  1  6  0  0  0
 17 20  1  0  0  0  0
 19 18  1  0  0  0  0
 20 23  1  0  0  0  0
 20 22  1  1  0  0  0
 22 21  1  0  0  0  0
 23 25  1  0  0  0  0
 24 26  2  0  0  0  0
 26 25  1  0  0  0  0
 27 26  1  0  0  0  0
 28 33  1  0  0  0  0
 29 34  1  0  0  0  0
 30 34  2  0  0  0  0
 31 29  2  0  0  0  0
 32 30  1  0  0  0  0
 33 31  1  0  0  0  0
 33 32  2  0  0  0  0
 35 10  1  0  0  0  0
 36 35  1  0  0  0  0
 36 38  1  0  0  0  0
 37 38  1  0  0  0  0
 38 40  1  6  0  0  0
 38 39  1  0  0  0  0
 39 43  1  0  0  0  0
 39 52  1  1  0  0  0
 41 43  1  0  0  0  0
 42 37  1  6  0  0  0
 42 41  1  0  0  0  0
 44 48  1  0  0  0  0
 45 47  1  0  0  0  0
 45 51  1  0  0  0  0
 46 49  1  1  0  0  0
 47 44  1  0  0  0  0
 48 46  1  0  0  0  0
 50 51  1  1  0  0  0
 50 42  1  0  0  0  0
 50 46  1  0  0  0  0
 52 53  1  0  0  0  0
 53 55  2  0  0  0  0
 54 53  1  0  0  0  0
M  END
>  <MODEL>
4

>  <REMARK>
 VINA RESULT:      -6.9      1.538      2.067
  Name = 
  16 active torsions:
  status: ('A' for Active; 'I' for Inactive)
    1  A    between atoms: C_4  and  O_27
    2  A    between atoms: C_5  and  C_18
    3  A    between atoms: C_8  and  O_27
    4  A    between atoms: N_10  and  O_55
    5  A    between atoms: C_11  and  CA_20
    6  A    between atoms: N_14  and  C_39
    7  A    between atoms: N_14  and  C_43
    8  A    between atoms: C_18  and  C_37
    9  A    between atoms: CA_20  and  C_45
   10  A    between atoms: CA_20  and  N_51
   11  A    between atoms: C_26  and  C_43
   12  A    between atoms: N_35  and  C_52
   13  A    between atoms: C_37  and  C_44
   14  A    between atoms: N_41  and  C_43
   15  A    between atoms: C_45  and  C_48
   16  A    between atoms: C_45  and  O_55
                            x       y       z     vdW  Elec       q    Type
                         _______ _______ _______ _____ _____    ______ ____

>  <TORSDO>
F 16

$$$$
=
 OpenBabel11062418383D

 55 60  0  0  1  0  0  0  0  0999 V2000
  192.1380  173.7850  140.0770 C   0  0  0  0  0  3  0  0  0  0  0  0
  190.3330  172.1140  141.4340 C   0  0  0  0  0  3  0  0  0  0  0  0
  191.2850  174.3100  141.0540 C   0  0  0  0  0  3  0  0  0  0  0  0
  192.7880  171.8200  138.5810 C   0  0  0  0  0  0  0  0  0  0  0  0
  191.0850  170.1260  140.1230 C   0  0  0  0  0  2  0  0  0  0  0  0
  192.0870  172.4050  139.7630 C   0  0  0  0  0  0  0  0  0  0  0  0
  192.9270  170.4800  136.7730 N   0  0  0  0  0  0  0  0  0  0  0  0
  191.2440  169.8540  138.6240 C   0  0  0  0  0  2  0  0  0  0  0  0
  193.7980  172.4080  137.7440 N   0  0  0  0  0  0  0  0  0  0  0  0
  190.3870  173.4730  141.7500 C   0  0  0  0  0  0  0  0  0  0  0  0
  191.1500  171.5970  140.4290 C   0  0  0  0  0  0  0  0  0  0  0  0
  193.8550  171.5770  136.5380 C   0  0  0  0  0  3  0  0  0  0  0  0
  192.3470  170.6990  138.0460 C   0  0  0  0  0  0  0  0  0  0  0  0
  194.1200  173.8570  137.6710 C   0  0  1  0  0  3  0  0  0  0  0  0
  195.3260  174.1900  138.5010 C   0  0  0  0  0  3  0  0  0  0  0  0
  195.5650  173.5770  139.6040 N   0  0  0  0  0  0  0  0  0  0  0  0
  196.7460  173.8680  140.3990 C   0  0  2  0  0  3  0  0  0  0  0  0
  197.6610  172.6300  140.5600 C   0  0  0  0  0  2  0  0  0  0  0  0
  197.0770  171.4800  140.0240 O   0  0  0  0  0  1  0  0  0  0  0  0
  196.2570  174.2790  141.8020 C   0  0  2  0  0  3  0  0  0  0  0  0
  194.4550  176.0140  142.2950 C   0  0  0  0  0  1  0  0  0  0  0  0
  195.9370  175.7740  142.0400 C   0  0  0  0  0  2  0  0  0  0  0  0
  196.7830  173.4970  142.8710 O   0  0  0  0  0  0  0  0  0  0  0  0
  195.3240  171.0090  142.9330 N   0  0  0  0  0  2  0  0  0  0  0  0
  195.8040  173.1810  143.7520 N   0  0  0  0  0  2  0  0  0  0  0  0
  194.9200  172.0480  143.5810 C   0  0  0  0  0  0  0  0  0  0  0  0
  193.4510  172.3120  143.5800 C   0  0  0  0  0  1  0  0  0  0  0  0
  194.3730  174.2390  136.2880 N   0  0  0  0  0  2  0  0  0  0  0  0
  192.9230  177.5970  135.3980 C   0  0  0  0  0  3  0  0  0  0  0  0
  195.2940  177.6390  134.8720 C   0  0  0  0  0  3  0  0  0  0  0  0
  193.0420  176.2690  135.8310 C   0  0  0  0  0  3  0  0  0  0  0  0
  195.4120  176.3030  135.3170 C   0  0  0  0  0  3  0  0  0  0  0  0
  194.2830  175.5970  135.7910 C   0  0  0  0  0  0  0  0  0  0  0  0
  194.0510  178.2830  134.9310 C   0  0  0  0  0  3  0  0  0  0  0  0
  189.4130  174.0320  142.7510 C   0  0  0  0  0  2  0  0  0  0  0  0
  190.0370  174.0540  144.1570 C   0  0  0  0  0  2  0  0  0  0  0  0
  189.0120  176.3120  144.5280 C   0  0  0  0  0  2  0  0  0  0  0  0
  190.3210  175.4850  144.6870 C   0  0  1  0  0  0  0  0  0  0  0  0
  190.7850  175.3410  146.1790 C   0  0  2  0  0  3  0  0  0  0  0  0
  191.3250  176.0760  143.9140 O   0  0  0  0  0  1  0  0  0  0  0  0
  188.3220  175.6090  146.7210 C   0  0  0  0  0  2  0  0  0  0  0  0
  188.4620  176.7510  145.8210 N   0  0  2  0  0  0  0  0  0  0  0  0
  189.6900  175.2120  147.2500 C   0  0  0  0  0  2  0  0  0  0  0  0
  184.4750  178.9320  145.8320 C   0  0  0  0  0  2  0  0  0  0  0  0
  185.3780  177.4750  143.8710 C   0  0  0  0  0  2  0  0  0  0  0  0
  186.5740  177.9960  147.0090 C   0  0  2  0  0  3  0  0  0  0  0  0
  184.9270  178.8710  144.3560 C   0  0  0  0  0  2  0  0  0  0  0  0
  185.6600  179.2100  146.7740 C   0  0  0  0  0  2  0  0  0  0  0  0
  187.5590  178.3490  147.9050 F   0  0  0  0  0  0  0  0  0  0  0  0
  187.1980  177.4810  145.6710 C   0  0  2  0  0  3  0  0  0  0  0  0
  186.2010  176.6390  144.8710 C   0  0  0  0  0  2  0  0  0  0  0  0
  191.8370  176.2180  146.5870 O   0  0  0  0  0  0  0  0  0  0  0  0
  193.2120  175.9190  146.4910 C   0  0  0  0  0  0  0  0  0  0  0  0
  194.2030  177.0330  146.6160 C   0  0  0  0  0  1  0  0  0  0  0  0
  193.5990  174.7550  146.1920 O   0  0  0  0  0  0  0  0  0  0  0  0
  1  3  1  0  0  0  0
  2 10  1  0  0  0  0
  3 10  2  0  0  0  0
  4  6  1  0  0  0  0
  5 11  1  0  0  0  0
  6  1  2  0  0  0  0
  6 11  1  0  0  0  0
  7 13  1  0  0  0  0
  8  5  1  0  0  0  0
  9  4  1  0  0  0  0
 10 35  1  0  0  0  0
 11  2  2  0  0  0  0
 12  7  2  0  0  0  0
 12  9  1  0  0  0  0
 13  4  2  0  0  0  0
 13  8  1  0  0  0  0
 14  9  1  0  0  0  0
 14 15  1  1  0  0  0
 15 16  2  0  0  0  0
 16 17  1  0  0  0  0
 17 18  1  1  0  0  0
 17 20  1  0  0  0  0
 19 18  1  0  0  0  0
 20 22  1  1  0  0  0
 20 23  1  0  0  0  0
 22 21  1  0  0  0  0
 23 25  1  0  0  0  0
 24 26  2  0  0  0  0
 26 25  1  0  0  0  0
 27 26  1  0  0  0  0
 28 14  1  0  0  0  0
 29 31  1  0  0  0  0
 30 34  1  0  0  0  0
 30 32  2  0  0  0  0
 32 33  1  0  0  0  0
 33 31  2  0  0  0  0
 33 28  1  0  0  0  0
 34 29  2  0  0  0  0
 35 36  1  0  0  0  0
 36 38  1  0  0  0  0
 37 38  1  0  0  0  0
 38 40  1  6  0  0  0
 38 39  1  0  0  0  0
 39 52  1  1  0  0  0
 39 43  1  0  0  0  0
 41 43  1  0  0  0  0
 42 37  1  6  0  0  0
 42 41  1  0  0  0  0
 44 48  1  0  0  0  0
 45 47  1  0  0  0  0
 45 51  1  0  0  0  0
 46 49  1  1  0  0  0
 47 44  1  0  0  0  0
 48 46  1  0  0  0  0
 50 51  1  1  0  0  0
 50 42  1  0  0  0  0
 50 46  1  0  0  0  0
 53 52  1  0  0  0  0
 53 54  1  0  0  0  0
 55 53  2  0  0  0  0
M  END
>  <MODEL>
5

>  <REMARK>
 VINA RESULT:      -6.9      3.383      8.596
  Name = 
  16 active torsions:
  status: ('A' for Active; 'I' for Inactive)
    1  A    between atoms: C_4  and  O_27
    2  A    between atoms: C_5  and  C_18
    3  A    between atoms: C_8  and  O_27
    4  A    between atoms: N_10  and  O_55
    5  A    between atoms: C_11  and  CA_20
    6  A    between atoms: N_14  and  C_39
    7  A    between atoms: N_14  and  C_43
    8  A    between atoms: C_18  and  C_37
    9  A    between atoms: CA_20  and  C_45
   10  A    between atoms: CA_20  and  N_51
   11  A    between atoms: C_26  and  C_43
   12  A    between atoms: N_35  and  C_52
   13  A    between atoms: C_37  and  C_44
   14  A    between atoms: N_41  and  C_43
   15  A    between atoms: C_45  and  C_48
   16  A    between atoms: C_45  and  O_55
                            x       y       z     vdW  Elec       q    Type
                         _______ _______ _______ _____ _____    ______ ____

>  <TORSDO>
F 16

$$$$
=
 OpenBabel11062418383D

 55 60  0  0  1  0  0  0  0  0999 V2000
  191.5490  173.1630  144.1170 C   0  0  0  0  0  3  0  0  0  0  0  0
  193.8920  173.2270  145.6650 C   0  0  0  0  0  3  0  0  0  0  0  0
  192.2960  171.9970  144.3180 C   0  0  0  0  0  3  0  0  0  0  0  0
  191.3750  175.7030  144.3290 C   0  0  0  0  0  0  0  0  0  0  0  0
  193.6470  175.6800  146.0570 C   0  0  0  0  0  2  0  0  0  0  0  0
  191.9800  174.3850  144.6890 C   0  0  0  0  0  0  0  0  0  0  0  0
  191.4700  177.8910  143.7960 N   0  0  0  0  0  0  0  0  0  0  0  0
  193.4330  176.8780  145.1260 C   0  0  0  0  0  2  0  0  0  0  0  0
  190.1600  175.9760  143.6110 N   0  0  0  0  0  0  0  0  0  0  0  0
  193.4660  172.0190  145.1070 C   0  0  0  0  0  0  0  0  0  0  0  0
  193.1750  174.3990  145.4280 C   0  0  0  0  0  0  0  0  0  0  0  0
  190.2380  177.3830  143.2080 C   0  0  0  0  0  3  0  0  0  0  0  0
  192.0770  176.8080  144.4760 C   0  0  0  0  0  0  0  0  0  0  0  0
  189.4140  174.9990  142.7760 C   0  0  1  0  0  3  0  0  0  0  0  0
  187.9580  175.3540  142.6910 C   0  0  0  0  0  3  0  0  0  0  0  0
  187.4250  176.1810  143.5170 N   0  0  0  0  0  0  0  0  0  0  0  0
  186.0240  176.5570  143.4240 C   0  0  2  0  0  3  0  0  0  0  0  0
  185.7360  177.4320  142.1800 C   0  0  0  0  0  2  0  0  0  0  0  0
  186.7160  178.4090  141.9940 O   0  0  0  0  0  1  0  0  0  0  0  0
  185.6970  177.3950  144.6760 C   0  0  2  0  0  3  0  0  0  0  0  0
  184.8490  179.7990  144.7180 C   0  0  0  0  0  1  0  0  0  0  0  0
  184.4650  178.3290  144.6100 C   0  0  0  0  0  2  0  0  0  0  0  0
  186.8300  177.7850  145.4480 O   0  0  0  0  0  0  0  0  0  0  0  0
  189.3520  177.3710  146.7870 N   0  0  0  0  0  2  0  0  0  0  0  0
  187.0580  176.8880  146.4380 N   0  0  0  0  0  2  0  0  0  0  0  0
  188.3840  176.5250  146.8870 C   0  0  0  0  0  0  0  0  0  0  0  0
  188.7490  175.0780  146.8620 C   0  0  0  0  0  1  0  0  0  0  0  0
  189.9750  174.9650  141.4330 N   0  0  0  0  0  2  0  0  0  0  0  0
  190.8990  171.5930  140.0360 C   0  0  0  0  0  3  0  0  0  0  0  0
  189.0200  172.4490  138.7550 C   0  0  0  0  0  3  0  0  0  0  0  0
  190.9000  172.7600  140.8140 C   0  0  0  0  0  3  0  0  0  0  0  0
  189.0190  173.6190  139.5460 C   0  0  0  0  0  3  0  0  0  0  0  0
  189.9690  173.7940  140.5790 C   0  0  0  0  0  0  0  0  0  0  0  0
  189.9520  171.4340  139.0170 C   0  0  0  0  0  3  0  0  0  0  0  0
  194.3190  170.7930  145.2730 C   0  0  0  0  0  2  0  0  0  0  0  0
  194.5080  170.0780  143.9240 C   0  0  0  0  0  2  0  0  0  0  0  0
  195.6950  169.9630  141.7190 C   0  0  0  0  0  2  0  0  0  0  0  0
  195.8060  170.4890  143.1800 C   0  0  1  0  0  0  0  0  0  0  0  0
  195.9130  172.0520  143.2690 C   0  0  2  0  0  3  0  0  0  0  0  0
  196.9060  169.8840  143.7950 O   0  0  0  0  0  1  0  0  0  0  0  0
  194.6420  172.0260  141.0750 C   0  0  0  0  0  2  0  0  0  0  0  0
  195.6730  171.0520  140.7290 N   0  0  2  0  0  0  0  0  0  0  0  0
  195.1200  172.8750  142.2410 C   0  0  0  0  0  2  0  0  0  0  0  0
  195.5590  169.7880  136.3640 C   0  0  0  0  0  2  0  0  0  0  0  0
  193.4660  170.1710  137.8660 C   0  0  0  0  0  2  0  0  0  0  0  0
  196.7690  170.7280  138.4430 C   0  0  2  0  0  3  0  0  0  0  0  0
  194.2980  169.1820  137.0200 C   0  0  0  0  0  2  0  0  0  0  0  0
  196.7790  169.7000  137.2990 C   0  0  0  0  0  2  0  0  0  0  0  0
  197.9280  170.5890  139.1730 F   0  0  0  0  0  0  0  0  0  0  0  0
  195.5120  170.5560  139.3570 C   0  0  2  0  0  3  0  0  0  0  0  0
  194.2640  171.1750  138.7220 C   0  0  0  0  0  2  0  0  0  0  0  0
  197.2290  172.5710  143.4730 O   0  0  0  0  0  0  0  0  0  0  0  0
  197.5370  173.6780  144.2920 C   0  0  0  0  0  0  0  0  0  0  0  0
  197.2590  173.5890  145.7590 C   0  0  0  0  0  1  0  0  0  0  0  0
  197.9340  174.7640  143.7850 O   0  0  0  0  0  0  0  0  0  0  0  0
  1  3  2  0  0  0  0
  1  6  1  0  0  0  0
  3 10  1  0  0  0  0
  4 13  2  0  0  0  0
  4  6  1  0  0  0  0
  6 11  2  0  0  0  0
  7 13  1  0  0  0  0
  8  5  1  0  0  0  0
  9  4  1  0  0  0  0
 10 35  1  0  0  0  0
 10  2  2  0  0  0  0
 11  2  1  0  0  0  0
 11  5  1  0  0  0  0
 12  9  1  0  0  0  0
 12  7  2  0  0  0  0
 13  8  1  0  0  0  0
 14 15  1  6  0  0  0
 14  9  1  0  0  0  0
 15 16  2  0  0  0  0
 17 18  1  6  0  0  0
 17 16  1  0  0  0  0
 17 20  1  0  0  0  0
 19 18  1  0  0  0  0
 20 22  1  6  0  0  0
 20 23  1  0  0  0  0
 22 21  1  0  0  0  0
 23 25  1  0  0  0  0
 24 26  2  0  0  0  0
 25 26  1  0  0  0  0
 27 26  1  0  0  0  0
 28 14  1  0  0  0  0
 29 31  1  0  0  0  0
 30 34  1  0  0  0  0
 30 32  2  0  0  0  0
 32 33  1  0  0  0  0
 33 31  2  0  0  0  0
 33 28  1  0  0  0  0
 34 29  2  0  0  0  0
 36 35  1  0  0  0  0
 37 38  1  0  0  0  0
 38 39  1  0  0  0  0
 38 40  1  1  0  0  0
 38 36  1  0  0  0  0
 39 52  1  6  0  0  0
 41 43  1  0  0  0  0
 42 41  1  1  0  0  0
 42 37  1  0  0  0  0
 43 39  1  0  0  0  0
 44 47  1  0  0  0  0
 44 48  1  0  0  0  0
 45 51  1  0  0  0  0
 46 49  1  1  0  0  0
 46 50  1  0  0  0  0
 47 45  1  0  0  0  0
 48 46  1  0  0  0  0
 50 51  1  6  0  0  0
 50 42  1  0  0  0  0
 52 53  1  0  0  0  0
 53 54  1  0  0  0  0
 55 53  2  0  0  0  0
M  END
>  <MODEL>
6

>  <REMARK>
 VINA RESULT:      -6.5      2.821      6.090
  Name = 
  16 active torsions:
  status: ('A' for Active; 'I' for Inactive)
    1  A    between atoms: C_4  and  O_27
    2  A    between atoms: C_5  and  C_18
    3  A    between atoms: C_8  and  O_27
    4  A    between atoms: N_10  and  O_55
    5  A    between atoms: C_11  and  CA_20
    6  A    between atoms: N_14  and  C_39
    7  A    between atoms: N_14  and  C_43
    8  A    between atoms: C_18  and  C_37
    9  A    between atoms: CA_20  and  C_45
   10  A    between atoms: CA_20  and  N_51
   11  A    between atoms: C_26  and  C_43
   12  A    between atoms: N_35  and  C_52
   13  A    between atoms: C_37  and  C_44
   14  A    between atoms: N_41  and  C_43
   15  A    between atoms: C_45  and  C_48
   16  A    between atoms: C_45  and  O_55
                            x       y       z     vdW  Elec       q    Type
                         _______ _______ _______ _____ _____    ______ ____

>  <TORSDO>
F 16

$$$$
=
 OpenBabel11062418383D

 55 60  0  0  1  0  0  0  0  0999 V2000
  193.9900  173.3270  142.8530 C   0  0  0  0  0  3  0  0  0  0  0  0
  196.5290  173.3040  141.6520 C   0  0  0  0  0  3  0  0  0  0  0  0
  194.2670  172.4470  141.8010 C   0  0  0  0  0  3  0  0  0  0  0  0
  194.7050  175.3380  144.2570 C   0  0  0  0  0  0  0  0  0  0  0  0
  197.3260  175.1400  143.1440 C   0  0  0  0  0  2  0  0  0  0  0  0
  194.9920  174.2180  143.3110 C   0  0  0  0  0  0  0  0  0  0  0  0
  194.8870  177.4620  144.9880 N   0  0  0  0  0  0  0  0  0  0  0  0
  196.7710  176.5230  143.4990 C   0  0  0  0  0  2  0  0  0  0  0  0
  193.5330  175.5700  145.0570 N   0  0  0  0  0  0  0  0  0  0  0  0
  195.5450  172.4200  141.2030 C   0  0  0  0  0  0  0  0  0  0  0  0
  196.2410  174.2130  142.6690 C   0  0  0  0  0  0  0  0  0  0  0  0
  193.6120  176.9680  145.4890 C   0  0  0  0  0  3  0  0  0  0  0  0
  195.4880  176.3960  144.2760 C   0  0  0  0  0  0  0  0  0  0  0  0
  192.2110  174.9220  144.8570 C   0  0  1  0  0  3  0  0  0  0  0  0
  191.2650  175.2570  145.9740 C   0  0  0  0  0  3  0  0  0  0  0  0
  190.3050  176.0930  145.8040 N   0  0  0  0  0  0  0  0  0  0  0  0
  189.3640  176.4010  146.8680 C   0  0  2  0  0  3  0  0  0  0  0  0
  188.9160  175.1340  147.6360 C   0  0  0  0  0  2  0  0  0  0  0  0
  188.9240  174.0020  146.8180 O   0  0  0  0  0  1  0  0  0  0  0  0
  188.1150  177.0150  146.2040 C   0  0  2  0  0  3  0  0  0  0  0  0
  186.1920  178.0420  147.5250 C   0  0  0  0  0  1  0  0  0  0  0  0
  186.7490  176.7760  146.8880 C   0  0  0  0  0  2  0  0  0  0  0  0
  188.1790  177.1100  144.7830 O   0  0  0  0  0  0  0  0  0  0  0  0
  187.0160  178.3430  142.4480 N   0  0  0  0  0  2  0  0  0  0  0  0
  186.9840  176.7850  144.2340 N   0  0  0  0  0  2  0  0  0  0  0  0
  186.3200  177.6010  143.2410 C   0  0  0  0  0  0  0  0  0  0  0  0
  184.9280  178.0520  143.5360 C   0  0  0  0  0  1  0  0  0  0  0  0
  191.6310  175.3570  143.5940 N   0  0  0  0  0  2  0  0  0  0  0  0
  188.6270  174.8750  141.3770 C   0  0  0  0  0  3  0  0  0  0  0  0
  189.0520  172.7810  142.5340 C   0  0  0  0  0  3  0  0  0  0  0  0
  189.7150  175.4620  142.0400 C   0  0  0  0  0  3  0  0  0  0  0  0
  190.1520  173.3730  143.1930 C   0  0  0  0  0  3  0  0  0  0  0  0
  190.4890  174.7270  142.9630 C   0  0  0  0  0  0  0  0  0  0  0  0
  188.3060  173.5320  141.6160 C   0  0  0  0  0  3  0  0  0  0  0  0
  195.8380  171.5330  140.0250 C   0  0  0  0  0  2  0  0  0  0  0  0
  196.9370  172.1520  139.1430 C   0  0  0  0  0  2  0  0  0  0  0  0
  194.8630  172.5340  137.7880 C   0  0  0  0  0  2  0  0  0  0  0  0
  196.4110  172.7020  137.7900 C   0  0  1  0  0  0  0  0  0  0  0  0
  196.8720  174.1980  137.6900 C   0  0  2  0  0  3  0  0  0  0  0  0
  196.9480  171.9490  136.7420 O   0  0  0  0  0  1  0  0  0  0  0  0
  194.6440  174.7100  138.7870 C   0  0  0  0  0  2  0  0  0  0  0  0
  194.1580  173.8250  137.7320 N   0  0  2  0  0  0  0  0  0  0  0  0
  196.0100  175.2530  138.4000 C   0  0  0  0  0  2  0  0  0  0  0  0
  189.6120  173.7910  137.7290 C   0  0  0  0  0  2  0  0  0  0  0  0
  191.1170  172.6270  139.5100 C   0  0  0  0  0  2  0  0  0  0  0  0
  191.8940  174.6950  136.9260 C   0  0  2  0  0  3  0  0  0  0  0  0
  190.0520  172.4700  138.4010 C   0  0  0  0  0  2  0  0  0  0  0  0
  190.5150  174.1430  136.5320 C   0  0  0  0  0  2  0  0  0  0  0  0
  192.5840  175.0230  135.7810 F   0  0  0  0  0  0  0  0  0  0  0  0
  192.6990  173.6670  137.7860 C   0  0  2  0  0  3  0  0  0  0  0  0
  192.2300  173.6610  139.2430 C   0  0  0  0  0  2  0  0  0  0  0  0
  197.2910  174.6300  136.3940 O   0  0  0  0  0  0  0  0  0  0  0  0
  196.4860  175.3550  135.4910 C   0  0  0  0  0  0  0  0  0  0  0  0
  195.5550  174.6050  134.5910 C   0  0  0  0  0  1  0  0  0  0  0  0
  196.6260  176.6030  135.3630 O   0  0  0  0  0  0  0  0  0  0  0  0
  1  6  1  0  0  0  0
  2 11  1  0  0  0  0
  3  1  2  0  0  0  0
  4 13  2  0  0  0  0
  4  9  1  0  0  0  0
  5  8  1  0  0  0  0
  6  4  1  0  0  0  0
  7 12  2  0  0  0  0
  8 13  1  0  0  0  0
  9 12  1  0  0  0  0
 10  2  2  0  0  0  0
 10  3  1  0  0  0  0
 11  5  1  0  0  0  0
 11  6  2  0  0  0  0
 13  7  1  0  0  0  0
 14  9  1  0  0  0  0
 14 15  1  1  0  0  0
 16 15  2  0  0  0  0
 16 17  1  0  0  0  0
 17 18  1  6  0  0  0
 19 18  1  0  0  0  0
 20 17  1  0  0  0  0
 20 22  1  6  0  0  0
 22 21  1  0  0  0  0
 23 20  1  0  0  0  0
 24 26  2  0  0  0  0
 25 23  1  0  0  0  0
 26 27  1  0  0  0  0
 26 25  1  0  0  0  0
 28 14  1  0  0  0  0
 29 34  2  0  0  0  0
 29 31  1  0  0  0  0
 30 32  2  0  0  0  0
 31 33  2  0  0  0  0
 33 32  1  0  0  0  0
 33 28  1  0  0  0  0
 34 30  1  0  0  0  0
 35 10  1  0  0  0  0
 36 35  1  0  0  0  0
 37 38  1  0  0  0  0
 38 40  1  6  0  0  0
 38 36  1  0  0  0  0
 39 52  1  6  0  0  0
 39 38  1  0  0  0  0
 39 43  1  0  0  0  0
 42 50  1  0  0  0  0
 42 37  1  1  0  0  0
 42 41  1  0  0  0  0
 43 41  1  0  0  0  0
 44 47  1  0  0  0  0
 46 49  1  6  0  0  0
 46 50  1  0  0  0  0
 47 45  1  0  0  0  0
 48 46  1  0  0  0  0
 48 44  1  0  0  0  0
 50 51  1  1  0  0  0
 51 45  1  0  0  0  0
 53 52  1  0  0  0  0
 54 53  1  0  0  0  0
 55 53  2  0  0  0  0
M  END
>  <MODEL>
7

>  <REMARK>
 VINA RESULT:      -6.5      3.179      7.165
  Name = 
  16 active torsions:
  status: ('A' for Active; 'I' for Inactive)
    1  A    between atoms: C_4  and  O_27
    2  A    between atoms: C_5  and  C_18
    3  A    between atoms: C_8  and  O_27
    4  A    between atoms: N_10  and  O_55
    5  A    between atoms: C_11  and  CA_20
    6  A    between atoms: N_14  and  C_39
    7  A    between atoms: N_14  and  C_43
    8  A    between atoms: C_18  and  C_37
    9  A    between atoms: CA_20  and  C_45
   10  A    between atoms: CA_20  and  N_51
   11  A    between atoms: C_26  and  C_43
   12  A    between atoms: N_35  and  C_52
   13  A    between atoms: C_37  and  C_44
   14  A    between atoms: N_41  and  C_43
   15  A    between atoms: C_45  and  C_48
   16  A    between atoms: C_45  and  O_55
                            x       y       z     vdW  Elec       q    Type
                         _______ _______ _______ _____ _____    ______ ____

>  <TORSDO>
F 16

$$$$
=
 OpenBabel11062418383D

 55 60  0  0  1  0  0  0  0  0999 V2000
  191.5350  172.6120  139.9730 C   0  0  0  0  0  3  0  0  0  0  0  0
  190.1030  171.5820  142.1590 C   0  0  0  0  0  3  0  0  0  0  0  0
  190.7840  173.4630  140.7900 C   0  0  0  0  0  3  0  0  0  0  0  0
  192.1470  170.2270  139.2880 C   0  0  0  0  0  0  0  0  0  0  0  0
  190.8420  169.2560  141.6340 C   0  0  0  0  0  2  0  0  0  0  0  0
  191.5680  171.2210  140.2420 C   0  0  0  0  0  0  0  0  0  0  0  0
  192.1520  168.2760  138.1600 N   0  0  0  0  0  0  0  0  0  0  0  0
  190.8130  168.4050  140.3600 C   0  0  0  0  0  2  0  0  0  0  0  0
  192.9700  170.4550  138.1310 N   0  0  0  0  0  0  0  0  0  0  0  0
  190.0750  172.9540  141.8990 C   0  0  0  0  0  0  0  0  0  0  0  0
  190.8130  170.7260  141.3190 C   0  0  0  0  0  0  0  0  0  0  0  0
  192.9320  169.2090  137.3600 C   0  0  0  0  0  3  0  0  0  0  0  0
  191.7400  168.9750  139.3200 C   0  0  0  0  0  0  0  0  0  0  0  0
  193.1430  171.7590  137.4400 C   0  0  1  0  0  3  0  0  0  0  0  0
  194.5940  172.0600  137.1990 C   0  0  0  0  0  3  0  0  0  0  0  0
  195.3400  172.5290  138.1340 N   0  0  0  0  0  0  0  0  0  0  0  0
  196.7530  172.7940  137.9210 C   0  0  2  0  0  3  0  0  0  0  0  0
  197.6400  172.1170  138.9940 C   0  0  0  0  0  2  0  0  0  0  0  0
  197.3770  170.7500  139.0990 O   0  0  0  0  0  1  0  0  0  0  0  0
  196.9500  174.3180  138.0390 C   0  0  2  0  0  3  0  0  0  0  0  0
  196.7730  175.6640  140.1970 C   0  0  0  0  0  1  0  0  0  0  0  0
  196.0190  175.0880  139.0050 C   0  0  0  0  0  2  0  0  0  0  0  0
  197.4030  174.9560  136.8470 O   0  0  0  0  0  0  0  0  0  0  0  0
  196.4380  177.1660  135.2640 N   0  0  0  0  0  2  0  0  0  0  0  0
  196.4560  174.8780  135.8800 N   0  0  0  0  0  2  0  0  0  0  0  0
  195.8120  176.0390  135.3080 C   0  0  0  0  0  0  0  0  0  0  0  0
  194.3210  176.0990  135.3600 C   0  0  0  0  0  1  0  0  0  0  0  0
  192.4420  171.7390  136.1630 N   0  0  0  0  0  2  0  0  0  0  0  0
  189.3580  173.1430  134.5220 C   0  0  0  0  0  3  0  0  0  0  0  0
  190.2590  174.8420  136.0070 C   0  0  0  0  0  3  0  0  0  0  0  0
  190.4060  172.2790  134.8750 C   0  0  0  0  0  3  0  0  0  0  0  0
  191.3080  173.9660  136.3650 C   0  0  0  0  0  3  0  0  0  0  0  0
  191.4010  172.6770  135.7920 C   0  0  0  0  0  0  0  0  0  0  0  0
  189.2800  174.4170  135.0980 C   0  0  0  0  0  3  0  0  0  0  0  0
  189.2050  173.8420  142.7450 C   0  0  0  0  0  2  0  0  0  0  0  0
  189.7540  173.9290  144.1800 C   0  0  0  0  0  2  0  0  0  0  0  0
  188.8180  176.2350  144.4730 C   0  0  0  0  0  2  0  0  0  0  0  0
  190.1050  175.3740  144.6240 C   0  0  1  0  0  0  0  0  0  0  0  0
  190.6240  175.2880  146.1020 C   0  0  2  0  0  3  0  0  0  0  0  0
  191.0950  175.8910  143.7830 O   0  0  0  0  0  1  0  0  0  0  0  0
  188.1950  175.6670  146.7250 C   0  0  0  0  0  2  0  0  0  0  0  0
  188.3350  176.7570  145.7630 N   0  0  2  0  0  0  0  0  0  0  0  0
  189.5700  175.2510  147.2200 C   0  0  0  0  0  2  0  0  0  0  0  0
  184.4070  179.0430  145.8120 C   0  0  0  0  0  2  0  0  0  0  0  0
  185.2600  177.5750  143.8360 C   0  0  0  0  0  2  0  0  0  0  0  0
  186.4870  178.0440  146.9700 C   0  0  2  0  0  3  0  0  0  0  0  0
  184.8490  178.9790  144.3320 C   0  0  0  0  0  2  0  0  0  0  0  0
  185.6050  179.2830  146.7480 C   0  0  0  0  0  2  0  0  0  0  0  0
  187.4860  178.3650  147.8620 F   0  0  0  0  0  0  0  0  0  0  0  0
  187.0900  177.5210  145.6250 C   0  0  2  0  0  3  0  0  0  0  0  0
  186.0660  176.7110  144.8260 C   0  0  0  0  0  2  0  0  0  0  0  0
  191.7190  176.1480  146.4240 O   0  0  0  0  0  0  0  0  0  0  0  0
  193.0720  175.7480  146.4530 C   0  0  0  0  0  0  0  0  0  0  0  0
  194.1340  176.7990  146.5120 C   0  0  0  0  0  1  0  0  0  0  0  0
  193.3860  174.5320  146.3170 O   0  0  0  0  0  0  0  0  0  0  0  0
  1  6  2  0  0  0  0
  1  3  1  0  0  0  0
  3 10  2  0  0  0  0
  4 13  2  0  0  0  0
  4  6  1  0  0  0  0
  6 11  1  0  0  0  0
  7 13  1  0  0  0  0
  8  5  1  0  0  0  0
  9  4  1  0  0  0  0
 10  2  1  0  0  0  0
 10 35  1  0  0  0  0
 11  5  1  0  0  0  0
 11  2  2  0  0  0  0
 12  9  1  0  0  0  0
 12  7  2  0  0  0  0
 13  8  1  0  0  0  0
 14 15  1  6  0  0  0
 14  9  1  0  0  0  0
 15 16  2  0  0  0  0
 17 20  1  0  0  0  0
 17 16  1  0  0  0  0
 17 18  1  1  0  0  0
 18 19  1  0  0  0  0
 20 22  1  6  0  0  0
 22 21  1  0  0  0  0
 23 20  1  0  0  0  0
 24 26  2  0  0  0  0
 25 23  1  0  0  0  0
 26 27  1  0  0  0  0
 26 25  1  0  0  0  0
 28 14  1  0  0  0  0
 29 31  2  0  0  0  0
 29 34  1  0  0  0  0
 30 32  1  0  0  0  0
 31 33  1  0  0  0  0
 33 28  1  0  0  0  0
 33 32  2  0  0  0  0
 34 30  2  0  0  0  0
 35 36  1  0  0  0  0
 36 38  1  0  0  0  0
 37 38  1  0  0  0  0
 38 40  1  6  0  0  0
 38 39  1  0  0  0  0
 39 52  1  1  0  0  0
 39 43  1  0  0  0  0
 41 43  1  0  0  0  0
 42 37  1  6  0  0  0
 42 41  1  0  0  0  0
 44 48  1  0  0  0  0
 45 47  1  0  0  0  0
 45 51  1  0  0  0  0
 46 49  1  1  0  0  0
 47 44  1  0  0  0  0
 48 46  1  0  0  0  0
 50 51  1  1  0  0  0
 50 42  1  0  0  0  0
 50 46  1  0  0  0  0
 52 53  1  0  0  0  0
 53 54  1  0  0  0  0
 55 53  2  0  0  0  0
M  END
>  <MODEL>
8

>  <REMARK>
 VINA RESULT:      -6.4      3.729      9.191
  Name = 
  16 active torsions:
  status: ('A' for Active; 'I' for Inactive)
    1  A    between atoms: C_4  and  O_27
    2  A    between atoms: C_5  and  C_18
    3  A    between atoms: C_8  and  O_27
    4  A    between atoms: N_10  and  O_55
    5  A    between atoms: C_11  and  CA_20
    6  A    between atoms: N_14  and  C_39
    7  A    between atoms: N_14  and  C_43
    8  A    between atoms: C_18  and  C_37
    9  A    between atoms: CA_20  and  C_45
   10  A    between atoms: CA_20  and  N_51
   11  A    between atoms: C_26  and  C_43
   12  A    between atoms: N_35  and  C_52
   13  A    between atoms: C_37  and  C_44
   14  A    between atoms: N_41  and  C_43
   15  A    between atoms: C_45  and  C_48
   16  A    between atoms: C_45  and  O_55
                            x       y       z     vdW  Elec       q    Type
                         _______ _______ _______ _____ _____    ______ ____

>  <TORSDO>
F 16

$$$$
=
 OpenBabel11062418383D

 55 60  0  0  1  0  0  0  0  0999 V2000
  191.9810  172.4830  144.5440 C   0  0  0  0  0  3  0  0  0  0  0  0
  194.5000  171.2400  144.5120 C   0  0  0  0  0  3  0  0  0  0  0  0
  192.1510  171.2440  143.9160 C   0  0  0  0  0  3  0  0  0  0  0  0
  193.0390  174.5350  145.6380 C   0  0  0  0  0  0  0  0  0  0  0  0
  195.5290  173.1440  145.7570 C   0  0  0  0  0  2  0  0  0  0  0  0
  193.0860  173.1200  145.1600 C   0  0  0  0  0  0  0  0  0  0  0  0
  193.8820  176.6100  145.8930 N   0  0  0  0  0  0  0  0  0  0  0  0
  195.5340  174.6610  145.5420 C   0  0  0  0  0  2  0  0  0  0  0  0
  191.8990  175.3920  145.8210 N   0  0  0  0  0  0  0  0  0  0  0  0
  193.4100  170.6080  143.9100 C   0  0  0  0  0  0  0  0  0  0  0  0
  194.3430  172.4960  145.0980 C   0  0  0  0  0  0  0  0  0  0  0  0
  192.4330  176.7520  145.9290 C   0  0  0  0  0  3  0  0  0  0  0  0
  194.1540  175.2290  145.7400 C   0  0  0  0  0  0  0  0  0  0  0  0
  190.5470  175.1610  145.2500 C   0  0  1  0  0  3  0  0  0  0  0  0
  189.5110  175.9950  145.9470 C   0  0  0  0  0  3  0  0  0  0  0  0
  188.5770  176.5820  145.2900 N   0  0  0  0  0  0  0  0  0  0  0  0
  187.5510  177.3650  145.9570 C   0  0  2  0  0  3  0  0  0  0  0  0
  186.5240  176.4730  146.6950 C   0  0  0  0  0  2  0  0  0  0  0  0
  186.2930  176.9180  147.9990 O   0  0  0  0  0  1  0  0  0  0  0  0
  186.7960  178.1470  144.8640 C   0  0  2  0  0  3  0  0  0  0  0  0
  184.4320  178.8710  145.4870 C   0  0  0  0  0  1  0  0  0  0  0  0
  185.8800  179.3090  145.3170 C   0  0  0  0  0  2  0  0  0  0  0  0
  186.4350  177.3770  143.7200 O   0  0  0  0  0  0  0  0  0  0  0  0
  184.3020  178.0710  141.9040 N   0  0  0  0  0  2  0  0  0  0  0  0
  186.5700  178.1150  142.5910 N   0  0  0  0  0  2  0  0  0  0  0  0
  185.5430  178.2080  141.5780 C   0  0  0  0  0  0  0  0  0  0  0  0
  185.9150  177.8390  140.1800 C   0  0  0  0  0  1  0  0  0  0  0  0
  190.5460  175.4880  143.8310 N   0  0  0  0  0  2  0  0  0  0  0  0
  188.4830  174.9380  140.7300 C   0  0  0  0  0  3  0  0  0  0  0  0
  188.6210  172.8270  141.9260 C   0  0  0  0  0  3  0  0  0  0  0  0
  189.2530  175.5530  141.7280 C   0  0  0  0  0  3  0  0  0  0  0  0
  189.4030  173.4500  142.9250 C   0  0  0  0  0  3  0  0  0  0  0  0
  189.7170  174.8250  142.8440 C   0  0  0  0  0  0  0  0  0  0  0  0
  188.1800  173.5740  140.8240 C   0  0  0  0  0  3  0  0  0  0  0  0
  193.6270  169.3120  143.1780 C   0  0  0  0  0  2  0  0  0  0  0  0
  192.8660  169.3120  141.8410 C   0  0  0  0  0  2  0  0  0  0  0  0
  192.8320  169.7210  139.3690 C   0  0  0  0  0  2  0  0  0  0  0  0
  193.7560  169.6680  140.6200 C   0  0  1  0  0  0  0  0  0  0  0  0
  194.4480  171.0400  140.9390 C   0  0  2  0  0  3  0  0  0  0  0  0
  194.7120  168.6650  140.4340 O   0  0  0  0  0  1  0  0  0  0  0  0
  192.4290  172.0540  139.7880 C   0  0  0  0  0  2  0  0  0  0  0  0
  192.7730  171.0650  138.7700 N   0  0  2  0  0  0  0  0  0  0  0  0
  193.6410  172.3190  140.6640 C   0  0  0  0  0  2  0  0  0  0  0  0
  190.3360  171.2800  134.9390 C   0  0  0  0  0  2  0  0  0  0  0  0
  189.6540  172.3610  137.2090 C   0  0  0  0  0  2  0  0  0  0  0  0
  192.5120  170.7950  136.2420 C   0  0  2  0  0  3  0  0  0  0  0  0
  189.3180  171.3390  136.1000 C   0  0  0  0  0  2  0  0  0  0  0  0
  191.4710  170.2820  135.2340 C   0  0  0  0  0  2  0  0  0  0  0  0
  193.4990  169.8450  136.3820 F   0  0  0  0  0  0  0  0  0  0  0  0
  191.8580  171.1250  137.6230 C   0  0  2  0  0  3  0  0  0  0  0  0
  191.1420  172.4780  137.5990 C   0  0  0  0  0  2  0  0  0  0  0  0
  195.8070  171.1600  140.5140 O   0  0  0  0  0  0  0  0  0  0  0  0
  196.6420  172.2600  140.8000 C   0  0  0  0  0  0  0  0  0  0  0  0
  196.9220  172.6020  142.2290 C   0  0  0  0  0  1  0  0  0  0  0  0
  197.0560  173.0120  139.8740 O   0  0  0  0  0  0  0  0  0  0  0  0
  1  6  1  0  0  0  0
  2 11  1  0  0  0  0
  3  1  2  0  0  0  0
  4 13  2  0  0  0  0
  4  9  1  0  0  0  0
  6  4  1  0  0  0  0
  7 12  2  0  0  0  0
  8 13  1  0  0  0  0
  8  5  1  0  0  0  0
  9 12  1  0  0  0  0
 10  3  1  0  0  0  0
 10  2  2  0  0  0  0
 11  6  2  0  0  0  0
 11  5  1  0  0  0  0
 13  7  1  0  0  0  0
 14  9  1  0  0  0  0
 14 15  1  1  0  0  0
 16 15  2  0  0  0  0
 16 17  1  0  0  0  0
 17 18  1  6  0  0  0
 18 19  1  0  0  0  0
 20 22  1  1  0  0  0
 20 17  1  0  0  0  0
 22 21  1  0  0  0  0
 23 20  1  0  0  0  0
 25 23  1  0  0  0  0
 26 24  2  0  0  0  0
 26 25  1  0  0  0  0
 27 26  1  0  0  0  0
 28 14  1  0  0  0  0
 29 34  2  0  0  0  0
 29 31  1  0  0  0  0
 30 32  2  0  0  0  0
 31 33  2  0  0  0  0
 33 32  1  0  0  0  0
 33 28  1  0  0  0  0
 34 30  1  0  0  0  0
 35 10  1  0  0  0  0
 36 35  1  0  0  0  0
 37 38  1  0  0  0  0
 38 40  1  6  0  0  0
 38 39  1  0  0  0  0
 38 36  1  0  0  0  0
 39 52  1  6  0  0  0
 41 43  1  0  0  0  0
 42 37  1  1  0  0  0
 42 41  1  0  0  0  0
 43 39  1  0  0  0  0
 44 48  1  0  0  0  0
 44 47  1  0  0  0  0
 45 51  1  0  0  0  0
 46 49  1  1  0  0  0
 46 50  1  0  0  0  0
 47 45  1  0  0  0  0
 48 46  1  0  0  0  0
 50 51  1  6  0  0  0
 50 42  1  0  0  0  0
 52 53  1  0  0  0  0
 53 54  1  0  0  0  0
 55 53  2  0  0  0  0
M  END
>  <MODEL>
9

>  <REMARK>
 VINA RESULT:      -6.3      2.576      6.714
  Name = 
  16 active torsions:
  status: ('A' for Active; 'I' for Inactive)
    1  A    between atoms: C_4  and  O_27
    2  A    between atoms: C_5  and  C_18
    3  A    between atoms: C_8  and  O_27
    4  A    between atoms: N_10  and  O_55
    5  A    between atoms: C_11  and  CA_20
    6  A    between atoms: N_14  and  C_39
    7  A    between atoms: N_14  and  C_43
    8  A    between atoms: C_18  and  C_37
    9  A    between atoms: CA_20  and  C_45
   10  A    between atoms: CA_20  and  N_51
   11  A    between atoms: C_26  and  C_43
   12  A    between atoms: N_35  and  C_52
   13  A    between atoms: C_37  and  C_44
   14  A    between atoms: N_41  and  C_43
   15  A    between atoms: C_45  and  C_48
   16  A    between atoms: C_45  and  O_55
                            x       y       z     vdW  Elec       q    Type
                         _______ _______ _______ _____ _____    ______ ____

>  <TORSDO>
F 16

$$$$
