=
 OpenBabel11062422203D

 41 46  0  0  1  0  0  0  0  0999 V2000
  194.7590  174.9930  145.3080 C   0  0  1  0  0  3  0  0  0  0  0  0
  193.8180  173.9250  144.7810 C   0  0  0  0  0  2  0  0  0  0  0  0
  190.2600  173.8880  143.7860 C   0  0  0  0  0  1  0  0  0  0  0  0
  191.8960  175.7130  144.5540 C   0  0  2  0  0  0  0  0  0  0  0  0
  191.6590  174.4790  143.6750 C   0  0  1  0  0  3  0  0  0  0  0  0
  192.9010  176.7580  144.0250 C   0  0  0  0  0  2  0  0  0  0  0  0
  196.0130  174.3850  145.9210 C   0  0  0  0  0  1  0  0  0  0  0  0
  193.9690  176.1880  143.3280 O   0  0  0  0  0  0  0  0  0  0  0  0
  195.0290  176.0810  144.2460 C   0  0  2  0  0  3  0  0  0  0  0  0
  192.3610  174.3190  145.0220 C   0  0  1  0  0  3  0  0  0  0  0  0
  190.6500  176.0970  146.8270 C   0  0  0  0  0  0  0  0  0  0  0  0
  189.4400  176.5770  147.5710 C   0  0  0  0  0  2  0  0  0  0  0  0
  189.7500  176.8950  144.7010 C   0  0  0  0  0  3  0  0  0  0  0  0
  190.7440  176.2790  145.3550 C   0  0  0  0  0  0  0  0  0  0  0  0
  188.5090  177.4040  145.3770 C   0  0  2  0  0  3  0  0  0  0  0  0
  188.7880  177.7510  146.8410 C   0  0  0  0  0  2  0  0  0  0  0  0
  191.5850  175.4350  147.5010 C   0  0  0  0  0  2  0  0  0  0  0  0
  187.3730  176.3920  145.2840 C   0  0  0  0  0  2  0  0  0  0  0  0
  187.2960  175.7530  142.2140 N   0  0  0  0  0  2  0  0  0  0  0  0
  186.2800  176.8490  144.3200 C   0  0  1  0  0  3  0  0  0  0  0  0
  185.9080  178.2470  144.5990 N   0  0  0  0  0  0  0  0  0  0  0  0
  186.8330  176.8940  142.9390 C   0  0  0  0  0  0  0  0  0  0  0  0
  186.8540  178.0850  142.4670 N   0  0  0  0  0  0  0  0  0  0  0  0
  186.3240  178.9260  143.4390 N   0  0  0  0  0  2  0  0  0  0  0  0
  188.4990  174.5650  140.4650 C   0  0  0  0  0  1  0  0  0  0  0  0
  187.7680  175.8360  140.8410 C   0  0  0  0  0  2  0  0  0  0  0  0
  184.4540  178.3070  144.6120 C   0  0  0  0  0  2  0  0  0  0  0  0
  184.3010  178.2210  146.7510 O   0  0  0  0  0  1  0  0  0  0  0  0
  184.0200  179.0090  145.7350 O   0  0  0  0  0  0  0  0  0  0  0  0
  197.0150  177.1730  143.4700 O   0  0  0  0  0  1  0  0  0  0  0  0
  196.3740  175.9340  143.5190 C   0  0  2  0  0  3  0  0  0  0  0  0
  196.1110  173.7510  140.5540 C   0  0  1  0  0  3  0  0  0  0  0  0
  196.2650  175.3280  142.1440 C   0  0  0  0  0  0  0  0  0  0  0  0
  196.2780  176.0110  141.0060 C   0  0  0  0  0  3  0  0  0  0  0  0
  196.2330  175.0590  139.8480 C   0  0  2  0  0  3  0  0  0  0  0  0
  196.6510  172.7630  142.6360 C   0  0  0  0  0  2  0  0  0  0  0  0
  197.3440  171.8450  141.6290 C   0  0  0  0  0  2  0  0  0  0  0  0
  196.6420  172.1630  139.9640 S   0  0  0  0  0  0  0  0  0  0  0  0
  196.1580  173.9140  141.8440 C   0  0  2  0  0  3  0  0  0  0  0  0
  195.0950  175.2980  139.0780 O   0  0  0  0  0  0  0  0  0  0  0  0
  195.4840  174.9930  137.7740 C   0  0  0  0  0  1  0  0  0  0  0  0
  1  7  1  6  0  0  0
  2  1  1  0  0  0  0
  4 10  1  0  0  0  0
  4 14  1  1  0  0  0
  5  3  1  1  0  0  0
  5  4  1  0  0  0  0
  5 10  1  0  0  0  0
  6  4  1  0  0  0  0
  8  6  1  0  0  0  0
  8  9  1  0  0  0  0
  9 31  1  6  0  0  0
  9  1  1  0  0  0  0
 10  2  1  6  0  0  0
 11 17  2  0  0  0  0
 11 12  1  0  0  0  0
 13 14  2  0  0  0  0
 13 15  1  0  0  0  0
 14 11  1  0  0  0  0
 15 18  1  1  0  0  0
 15 16  1  0  0  0  0
 16 12  1  0  0  0  0
 19 22  1  0  0  0  0
 20 21  1  0  0  0  0
 20 18  1  1  0  0  0
 21 27  1  0  0  0  0
 22 20  1  0  0  0  0
 23 22  2  0  0  0  0
 23 24  1  0  0  0  0
 24 21  1  0  0  0  0
 25 26  1  0  0  0  0
 26 19  1  0  0  0  0
 27 29  1  0  0  0  0
 29 28  1  0  0  0  0
 31 30  1  6  0  0  0
 32 38  1  6  0  0  0
 32 39  1  0  0  0  0
 33 31  1  0  0  0  0
 34 33  2  0  0  0  0
 35 40  1  6  0  0  0
 35 32  1  0  0  0  0
 35 34  1  0  0  0  0
 37 36  1  0  0  0  0
 38 37  1  0  0  0  0
 39 33  1  0  0  0  0
 39 36  1  6  0  0  0
 41 40  1  0  0  0  0
M  END
>  <MODEL>
1

>  <REMARK>
 VINA RESULT:      -7.5      0.000      0.000
  Name = 
  9 active torsions:
  status: ('A' for Active; 'I' for Inactive)
    1  A    between atoms: C_6  and  C_20
    2  A    between atoms: C_9  and  C_34
    3  A    between atoms: N_10  and  C_40
    4  A    between atoms: C_14  and  C_32
    5  A    between atoms: C_15  and  N_17
    6  A    between atoms: C_15  and  O_27
    7  A    between atoms: C_16  and  C_32
    8  A    between atoms: C_18  and  O_36
    9  A    between atoms: C_34  and  C_35
                            x       y       z     vdW  Elec       q    Type
                         _______ _______ _______ _____ _____    ______ ____

>  <TORSDO>
F 9

$$$$
=
 OpenBabel11062422203D

 41 46  0  0  1  0  0  0  0  0999 V2000
  194.7430  175.8310  144.3940 C   0  0  1  0  0  3  0  0  0  0  0  0
  194.5270  176.0820  145.8750 C   0  0  0  0  0  2  0  0  0  0  0  0
  191.5800  176.0090  148.1010 C   0  0  0  0  0  1  0  0  0  0  0  0
  191.9800  175.4590  145.6240 C   0  0  2  0  0  0  0  0  0  0  0  0
  192.4760  175.3370  147.0710 C   0  0  1  0  0  3  0  0  0  0  0  0
  192.3350  174.3000  144.6690 C   0  0  0  0  0  2  0  0  0  0  0  0
  196.0830  176.3740  143.9200 C   0  0  0  0  0  1  0  0  0  0  0  0
  193.5900  173.7420  144.9270 O   0  0  0  0  0  0  0  0  0  0  0  0
  194.4850  174.3520  144.0300 C   0  0  2  0  0  3  0  0  0  0  0  0
  193.0640  176.4150  146.1630 C   0  0  1  0  0  3  0  0  0  0  0  0
  189.3600  175.4250  145.5960 C   0  0  0  0  0  0  0  0  0  0  0  0
  188.0640  176.0780  145.2170 C   0  0  0  0  0  2  0  0  0  0  0  0
  190.6430  177.3540  144.8220 C   0  0  0  0  0  3  0  0  0  0  0  0
  190.6480  176.1260  145.3570 C   0  0  0  0  0  0  0  0  0  0  0  0
  189.3860  178.0730  144.4200 C   0  0  2  0  0  3  0  0  0  0  0  0
  188.1950  177.6000  145.2560 C   0  0  0  0  0  2  0  0  0  0  0  0
  189.3270  174.1820  146.0650 C   0  0  0  0  0  2  0  0  0  0  0  0
  189.0940  177.8870  142.9350 C   0  0  0  0  0  2  0  0  0  0  0  0
  188.2690  175.0450  141.8970 N   0  0  0  0  0  2  0  0  0  0  0  0
  187.6590  177.4240  142.6910 C   0  0  1  0  0  3  0  0  0  0  0  0
  186.8840  178.4930  142.0370 N   0  0  0  0  0  0  0  0  0  0  0  0
  187.6630  176.3210  141.6910 C   0  0  0  0  0  0  0  0  0  0  0  0
  187.0600  176.6500  140.6090 N   0  0  0  0  0  0  0  0  0  0  0  0
  186.5960  177.9510  140.7720 N   0  0  0  0  0  2  0  0  0  0  0  0
  187.8800  172.6610  141.6020 C   0  0  0  0  0  1  0  0  0  0  0  0
  188.1920  173.9730  140.9160 C   0  0  0  0  0  2  0  0  0  0  0  0
  185.6150  178.5920  142.7420 C   0  0  0  0  0  2  0  0  0  0  0  0
  184.8540  179.4350  144.5630 O   0  0  0  0  0  1  0  0  0  0  0  0
  185.5960  179.7480  143.5220 O   0  0  0  0  0  0  0  0  0  0  0  0
  196.0430  173.3510  142.5110 O   0  0  0  0  0  1  0  0  0  0  0  0
  195.7600  173.5110  143.8690 C   0  0  2  0  0  3  0  0  0  0  0  0
  195.1690  170.0360  144.9650 C   0  0  1  0  0  3  0  0  0  0  0  0
  195.7090  172.1790  144.5700 C   0  0  0  0  0  0  0  0  0  0  0  0
  196.2640  171.9150  145.7470 C   0  0  0  0  0  3  0  0  0  0  0  0
  195.9300  170.5110  146.1560 C   0  0  2  0  0  3  0  0  0  0  0  0
  193.8510  170.9010  143.1990 C   0  0  0  0  0  2  0  0  0  0  0  0
  192.9200  169.8830  143.8580 C   0  0  0  0  0  2  0  0  0  0  0  0
  193.9200  168.7760  144.9250 S   0  0  0  0  0  0  0  0  0  0  0  0
  195.0290  170.9920  144.0930 C   0  0  2  0  0  3  0  0  0  0  0  0
  197.0990  169.7680  146.3080 O   0  0  0  0  0  0  0  0  0  0  0  0
  196.8350  168.9140  147.3790 C   0  0  0  0  0  1  0  0  0  0  0  0
  1  7  1  1  0  0  0
  1  2  1  0  0  0  0
  4 14  1  6  0  0  0
  4 10  1  0  0  0  0
  4  5  1  0  0  0  0
  5  3  1  1  0  0  0
  6  8  1  0  0  0  0
  6  4  1  0  0  0  0
  9 31  1  1  0  0  0
  9  1  1  0  0  0  0
  9  8  1  0  0  0  0
 10  2  1  6  0  0  0
 10  5  1  0  0  0  0
 11 17  2  0  0  0  0
 12 16  1  0  0  0  0
 12 11  1  0  0  0  0
 13 14  2  0  0  0  0
 14 11  1  0  0  0  0
 15 18  1  6  0  0  0
 15 13  1  0  0  0  0
 15 16  1  0  0  0  0
 20 18  1  6  0  0  0
 21 20  1  0  0  0  0
 21 27  1  0  0  0  0
 22 19  1  0  0  0  0
 22 20  1  0  0  0  0
 23 24  1  0  0  0  0
 23 22  2  0  0  0  0
 24 21  1  0  0  0  0
 26 25  1  0  0  0  0
 26 19  1  0  0  0  0
 27 29  1  0  0  0  0
 29 28  1  0  0  0  0
 31 30  1  6  0  0  0
 31 33  1  0  0  0  0
 32 38  1  1  0  0  0
 32 35  1  0  0  0  0
 33 34  2  0  0  0  0
 34 35  1  0  0  0  0
 35 40  1  6  0  0  0
 36 37  1  0  0  0  0
 37 38  1  0  0  0  0
 39 36  1  1  0  0  0
 39 33  1  0  0  0  0
 39 32  1  0  0  0  0
 40 41  1  0  0  0  0
M  END
>  <MODEL>
2

>  <REMARK>
 VINA RESULT:      -7.5      2.695      4.026
  Name = 
  9 active torsions:
  status: ('A' for Active; 'I' for Inactive)
    1  A    between atoms: C_6  and  C_20
    2  A    between atoms: C_9  and  C_34
    3  A    between atoms: N_10  and  C_40
    4  A    between atoms: C_14  and  C_32
    5  A    between atoms: C_15  and  N_17
    6  A    between atoms: C_15  and  O_27
    7  A    between atoms: C_16  and  C_32
    8  A    between atoms: C_18  and  O_36
    9  A    between atoms: C_34  and  C_35
                            x       y       z     vdW  Elec       q    Type
                         _______ _______ _______ _____ _____    ______ ____

>  <TORSDO>
F 9

$$$$
=
 OpenBabel11062422203D

 41 46  0  0  1  0  0  0  0  0999 V2000
  192.0280  174.0030  142.5060 C   0  0  1  0  0  3  0  0  0  0  0  0
  192.7710  174.8940  143.4850 C   0  0  0  0  0  2  0  0  0  0  0  0
  191.9260  176.4150  146.7440 C   0  0  0  0  0  1  0  0  0  0  0  0
  190.7270  174.8020  145.1440 C   0  0  2  0  0  0  0  0  0  0  0  0
  192.0350  175.1930  145.8430 C   0  0  1  0  0  3  0  0  0  0  0  0
  190.5220  173.3020  144.8430 C   0  0  0  0  0  2  0  0  0  0  0  0
  192.6970  173.9860  141.1400 C   0  0  0  0  0  1  0  0  0  0  0  0
  191.7090  172.6430  144.5120 O   0  0  0  0  0  0  0  0  0  0  0  0
  191.7620  172.6050  143.1080 C   0  0  2  0  0  3  0  0  0  0  0  0
  191.7940  175.6310  144.4000 C   0  0  1  0  0  3  0  0  0  0  0  0
  188.7660  175.4210  146.7670 C   0  0  0  0  0  0  0  0  0  0  0  0
  187.4590  176.1160  147.0070 C   0  0  0  0  0  2  0  0  0  0  0  0
  188.9280  176.3480  144.5130 C   0  0  0  0  0  3  0  0  0  0  0  0
  189.4640  175.5710  145.4640 C   0  0  0  0  0  0  0  0  0  0  0  0
  187.6250  177.0760  144.6800 C   0  0  2  0  0  3  0  0  0  0  0  0
  187.3550  177.3800  146.1550 C   0  0  0  0  0  2  0  0  0  0  0  0
  189.2320  174.6100  147.7110 C   0  0  0  0  0  2  0  0  0  0  0  0
  186.4670  176.2810  144.0870 C   0  0  0  0  0  2  0  0  0  0  0  0
  187.6150  174.8960  141.5180 N   0  0  0  0  0  2  0  0  0  0  0  0
  186.1620  176.7040  142.6520 C   0  0  1  0  0  3  0  0  0  0  0  0
  186.1830  178.1730  142.5380 N   0  0  0  0  0  0  0  0  0  0  0  0
  187.2710  176.2600  141.7640 C   0  0  0  0  0  0  0  0  0  0  0  0
  187.8960  177.2500  141.2420 N   0  0  0  0  0  0  0  0  0  0  0  0
  187.2840  178.4130  141.6970 N   0  0  0  0  0  2  0  0  0  0  0  0
  188.9270  173.0200  140.6950 C   0  0  0  0  0  1  0  0  0  0  0  0
  188.6660  174.5070  140.5910 C   0  0  0  0  0  2  0  0  0  0  0  0
  184.9980  178.5590  141.7870 C   0  0  0  0  0  2  0  0  0  0  0  0
  183.6430  178.8280  143.4300 O   0  0  0  0  0  1  0  0  0  0  0  0
  183.8590  178.0380  142.3990 O   0  0  0  0  0  0  0  0  0  0  0  0
  192.0020  170.4100  142.1800 O   0  0  0  0  0  1  0  0  0  0  0  0
  192.7300  171.5160  142.6220 C   0  0  2  0  0  3  0  0  0  0  0  0
  195.6370  171.1860  144.8730 C   0  0  1  0  0  3  0  0  0  0  0  0
  193.7590  171.1110  143.6440 C   0  0  0  0  0  0  0  0  0  0  0  0
  193.7120  170.0060  144.3790 C   0  0  0  0  0  3  0  0  0  0  0  0
  194.9510  169.9080  145.2180 C   0  0  2  0  0  3  0  0  0  0  0  0
  195.7540  172.7540  143.1030 C   0  0  0  0  0  2  0  0  0  0  0  0
  197.2130  172.3400  143.2940 C   0  0  0  0  0  2  0  0  0  0  0  0
  197.3820  171.5120  144.9220 S   0  0  0  0  0  0  0  0  0  0  0  0
  194.9700  171.8390  143.9670 C   0  0  2  0  0  3  0  0  0  0  0  0
  194.6120  169.8940  146.5700 O   0  0  0  0  0  0  0  0  0  0  0  0
  195.4670  168.9490  147.1370 C   0  0  0  0  0  1  0  0  0  0  0  0
  1  7  1  6  0  0  0
  1  9  1  0  0  0  0
  1  2  1  0  0  0  0
  4 14  1  1  0  0  0
  4  5  1  0  0  0  0
  5  3  1  1  0  0  0
  6  4  1  0  0  0  0
  8  6  1  0  0  0  0
  9 31  1  1  0  0  0
  9  8  1  0  0  0  0
 10  2  1  6  0  0  0
 10  4  1  0  0  0  0
 10  5  1  0  0  0  0
 11 12  1  0  0  0  0
 11 17  2  0  0  0  0
 13 15  1  0  0  0  0
 13 14  2  0  0  0  0
 14 11  1  0  0  0  0
 15 18  1  1  0  0  0
 15 16  1  0  0  0  0
 16 12  1  0  0  0  0
 19 22  1  0  0  0  0
 20 18  1  1  0  0  0
 21 20  1  0  0  0  0
 22 20  1  0  0  0  0
 23 24  1  0  0  0  0
 23 22  2  0  0  0  0
 24 21  1  0  0  0  0
 26 25  1  0  0  0  0
 26 19  1  0  0  0  0
 27 29  1  0  0  0  0
 27 21  1  0  0  0  0
 29 28  1  0  0  0  0
 31 30  1  1  0  0  0
 31 33  1  0  0  0  0
 32 38  1  6  0  0  0
 32 35  1  0  0  0  0
 33 39  1  0  0  0  0
 33 34  2  0  0  0  0
 34 35  1  0  0  0  0
 35 40  1  1  0  0  0
 36 37  1  0  0  0  0
 37 38  1  0  0  0  0
 39 36  1  6  0  0  0
 39 32  1  0  0  0  0
 40 41  1  0  0  0  0
M  END
>  <MODEL>
3

>  <REMARK>
 VINA RESULT:      -7.4      2.738      4.254
  Name = 
  9 active torsions:
  status: ('A' for Active; 'I' for Inactive)
    1  A    between atoms: C_6  and  C_20
    2  A    between atoms: C_9  and  C_34
    3  A    between atoms: N_10  and  C_40
    4  A    between atoms: C_14  and  C_32
    5  A    between atoms: C_15  and  N_17
    6  A    between atoms: C_15  and  O_27
    7  A    between atoms: C_16  and  C_32
    8  A    between atoms: C_18  and  O_36
    9  A    between atoms: C_34  and  C_35
                            x       y       z     vdW  Elec       q    Type
                         _______ _______ _______ _____ _____    ______ ____

>  <TORSDO>
F 9

$$$$
=
 OpenBabel11062422203D

 41 46  0  0  1  0  0  0  0  0999 V2000
  189.5150  174.9240  143.3350 C   0  0  1  0  0  3  0  0  0  0  0  0
  189.4150  174.8210  144.8460 C   0  0  0  0  0  2  0  0  0  0  0  0
  191.8080  175.2690  147.6250 C   0  0  0  0  0  1  0  0  0  0  0  0
  191.9320  175.5670  145.0770 C   0  0  2  0  0  0  0  0  0  0  0  0
  191.1310  175.7910  146.3660 C   0  0  1  0  0  3  0  0  0  0  0  0
  191.7470  176.6120  143.9560 C   0  0  0  0  0  2  0  0  0  0  0  0
  188.3300  174.2640  142.6460 C   0  0  0  0  0  1  0  0  0  0  0  0
  190.4460  177.1160  143.8850 O   0  0  0  0  0  0  0  0  0  0  0  0
  189.7890  176.3770  142.8860 C   0  0  2  0  0  3  0  0  0  0  0  0
  190.7940  174.6020  145.4680 C   0  0  1  0  0  3  0  0  0  0  0  0
  194.5090  175.7750  145.4970 C   0  0  0  0  0  0  0  0  0  0  0  0
  195.8760  175.1580  145.4690 C   0  0  0  0  0  2  0  0  0  0  0  0
  193.4630  173.6610  144.8640 C   0  0  0  0  0  3  0  0  0  0  0  0
  193.3140  174.9580  145.1650 C   0  0  0  0  0  0  0  0  0  0  0  0
  194.7970  172.9730  144.8180 C   0  0  2  0  0  3  0  0  0  0  0  0
  195.7970  173.6580  145.7510 C   0  0  0  0  0  2  0  0  0  0  0  0
  194.4100  177.0780  145.7380 C   0  0  0  0  0  2  0  0  0  0  0  0
  195.3480  172.9300  143.3970 C   0  0  0  0  0  2  0  0  0  0  0  0
  192.9760  171.7830  141.6950 N   0  0  0  0  0  2  0  0  0  0  0  0
  194.4910  173.7410  142.4280 C   0  0  1  0  0  3  0  0  0  0  0  0
  195.3370  174.6550  141.6420 N   0  0  0  0  0  0  0  0  0  0  0  0
  193.9060  172.8280  141.4080 C   0  0  0  0  0  0  0  0  0  0  0  0
  194.3400  173.0820  140.2290 N   0  0  0  0  0  0  0  0  0  0  0  0
  195.2130  174.1590  140.3320 N   0  0  0  0  0  2  0  0  0  0  0  0
  190.9450  171.3720  140.4200 C   0  0  0  0  0  1  0  0  0  0  0  0
  192.3810  170.9560  140.6570 C   0  0  0  0  0  2  0  0  0  0  0  0
  194.6850  175.9560  141.6540 C   0  0  0  0  0  2  0  0  0  0  0  0
  196.5340  176.7930  142.3530 O   0  0  0  0  0  1  0  0  0  0  0  0
  195.6250  176.9580  141.4150 O   0  0  0  0  0  0  0  0  0  0  0  0
  188.9480  178.2400  141.6390 O   0  0  0  0  0  1  0  0  0  0  0  0
  188.5480  177.1240  142.3750 C   0  0  2  0  0  3  0  0  0  0  0  0
  185.6120  177.9410  144.4570 C   0  0  1  0  0  3  0  0  0  0  0  0
  187.5760  177.5110  143.4580 C   0  0  0  0  0  0  0  0  0  0  0  0
  187.9130  177.9170  144.6760 C   0  0  0  0  0  3  0  0  0  0  0  0
  186.6770  178.2910  145.4400 C   0  0  2  0  0  3  0  0  0  0  0  0
  185.3100  177.7230  142.1190 C   0  0  0  0  0  2  0  0  0  0  0  0
  184.2330  178.7340  142.5140 C   0  0  0  0  0  2  0  0  0  0  0  0
  183.9940  178.6600  144.3310 S   0  0  0  0  0  0  0  0  0  0  0  0
  186.1320  177.5300  143.3380 C   0  0  2  0  0  3  0  0  0  0  0  0
  186.5620  177.4950  146.5790 O   0  0  0  0  0  0  0  0  0  0  0  0
  186.3420  178.3990  147.6180 C   0  0  0  0  0  1  0  0  0  0  0  0
  1  7  1  6  0  0  0
  1  2  1  0  0  0  0
  4 14  1  1  0  0  0
  4 10  1  0  0  0  0
  4  5  1  0  0  0  0
  5  3  1  1  0  0  0
  6  4  1  0  0  0  0
  8  6  1  0  0  0  0
  9 31  1  1  0  0  0
  9  1  1  0  0  0  0
  9  8  1  0  0  0  0
 10  2  1  6  0  0  0
 10  5  1  0  0  0  0
 11 17  2  0  0  0  0
 12 11  1  0  0  0  0
 12 16  1  0  0  0  0
 13 14  2  0  0  0  0
 14 11  1  0  0  0  0
 15 18  1  6  0  0  0
 15 13  1  0  0  0  0
 15 16  1  0  0  0  0
 20 18  1  1  0  0  0
 21 27  1  0  0  0  0
 21 20  1  0  0  0  0
 22 19  1  0  0  0  0
 22 20  1  0  0  0  0
 23 24  1  0  0  0  0
 23 22  2  0  0  0  0
 24 21  1  0  0  0  0
 25 26  1  0  0  0  0
 26 19  1  0  0  0  0
 29 27  1  0  0  0  0
 29 28  1  0  0  0  0
 31 30  1  1  0  0  0
 31 33  1  0  0  0  0
 32 38  1  6  0  0  0
 32 35  1  0  0  0  0
 33 34  2  0  0  0  0
 34 35  1  0  0  0  0
 35 40  1  1  0  0  0
 36 37  1  0  0  0  0
 37 38  1  0  0  0  0
 39 36  1  6  0  0  0
 39 33  1  0  0  0  0
 39 32  1  0  0  0  0
 40 41  1  0  0  0  0
M  END
>  <MODEL>
4

>  <REMARK>
 VINA RESULT:      -7.2      4.063      8.757
  Name = 
  9 active torsions:
  status: ('A' for Active; 'I' for Inactive)
    1  A    between atoms: C_6  and  C_20
    2  A    between atoms: C_9  and  C_34
    3  A    between atoms: N_10  and  C_40
    4  A    between atoms: C_14  and  C_32
    5  A    between atoms: C_15  and  N_17
    6  A    between atoms: C_15  and  O_27
    7  A    between atoms: C_16  and  C_32
    8  A    between atoms: C_18  and  O_36
    9  A    between atoms: C_34  and  C_35
                            x       y       z     vdW  Elec       q    Type
                         _______ _______ _______ _____ _____    ______ ____

>  <TORSDO>
F 9

$$$$
=
 OpenBabel11062422203D

 41 46  0  0  1  0  0  0  0  0999 V2000
  193.6640  174.9760  145.2060 C   0  0  1  0  0  3  0  0  0  0  0  0
  193.1380  173.5540  145.2850 C   0  0  0  0  0  2  0  0  0  0  0  0
  190.6380  171.6200  143.3720 C   0  0  0  0  0  1  0  0  0  0  0  0
  191.6300  173.9810  143.1670 C   0  0  2  0  0  0  0  0  0  0  0  0
  191.8870  172.4890  143.4160 C   0  0  1  0  0  3  0  0  0  0  0  0
  192.7660  174.7770  142.4910 C   0  0  0  0  0  2  0  0  0  0  0  0
  194.4040  175.3730  146.4750 C   0  0  0  0  0  1  0  0  0  0  0  0
  194.0390  174.3480  142.8740 O   0  0  0  0  0  0  0  0  0  0  0  0
  194.4560  175.2120  143.9010 C   0  0  2  0  0  3  0  0  0  0  0  0
  191.7740  173.4410  144.6050 C   0  0  1  0  0  3  0  0  0  0  0  0
  189.6940  174.3320  141.4370 C   0  0  0  0  0  0  0  0  0  0  0  0
  188.3430  174.8950  141.1070 C   0  0  0  0  0  2  0  0  0  0  0  0
  189.4900  175.0200  143.7720 C   0  0  0  0  0  3  0  0  0  0  0  0
  190.2300  174.4380  142.8190 C   0  0  0  0  0  0  0  0  0  0  0  0
  188.1300  175.6040  143.5190 C   0  0  2  0  0  3  0  0  0  0  0  0
  187.4450  174.9030  142.3440 C   0  0  0  0  0  2  0  0  0  0  0  0
  190.4220  173.8200  140.4510 C   0  0  0  0  0  2  0  0  0  0  0  0
  188.2110  177.1050  143.2610 C   0  0  0  0  0  2  0  0  0  0  0  0
  189.5520  177.5830  146.0550 N   0  0  0  0  0  2  0  0  0  0  0  0
  187.5970  177.9130  144.4020 C   0  0  1  0  0  3  0  0  0  0  0  0
  186.1620  177.6060  144.5280 N   0  0  0  0  0  0  0  0  0  0  0  0
  188.1760  177.4540  145.6940 C   0  0  0  0  0  0  0  0  0  0  0  0
  187.2940  176.9200  146.4540 N   0  0  0  0  0  0  0  0  0  0  0  0
  186.0780  176.9760  145.7820 N   0  0  0  0  0  2  0  0  0  0  0  0
  190.6700  175.7970  147.2710 C   0  0  0  0  0  1  0  0  0  0  0  0
  190.0620  177.1800  147.3570 C   0  0  0  0  0  2  0  0  0  0  0  0
  185.4640  178.8760  144.6570 C   0  0  0  0  0  2  0  0  0  0  0  0
  183.7050  178.7050  143.4400 O   0  0  0  0  0  1  0  0  0  0  0  0
  184.0870  178.6580  144.6980 O   0  0  0  0  0  0  0  0  0  0  0  0
  196.5470  176.3160  143.5150 O   0  0  0  0  0  1  0  0  0  0  0  0
  195.9820  175.1670  144.0730 C   0  0  2  0  0  3  0  0  0  0  0  0
  197.2030  171.7630  143.3370 C   0  0  1  0  0  3  0  0  0  0  0  0
  196.6250  173.9250  143.5160 C   0  0  0  0  0  0  0  0  0  0  0  0
  197.4360  173.8900  142.4650 C   0  0  0  0  0  3  0  0  0  0  0  0
  197.9410  172.4920  142.2660 C   0  0  2  0  0  3  0  0  0  0  0  0
  196.2050  172.1710  145.4440 C   0  0  0  0  0  2  0  0  0  0  0  0
  197.2000  171.0510  145.7450 C   0  0  0  0  0  2  0  0  0  0  0  0
  197.7100  170.2750  144.1630 S   0  0  0  0  0  0  0  0  0  0  0  0
  196.4890  172.5850  144.0490 C   0  0  2  0  0  3  0  0  0  0  0  0
  197.5580  172.0210  141.0110 O   0  0  0  0  0  0  0  0  0  0  0  0
  197.8670  173.0630  140.1360 C   0  0  0  0  0  1  0  0  0  0  0  0
  1  2  1  0  0  0  0
  1  7  1  1  0  0  0
  4 14  1  6  0  0  0
  4  5  1  0  0  0  0
  4 10  1  0  0  0  0
  5  3  1  1  0  0  0
  5 10  1  0  0  0  0
  6  8  1  0  0  0  0
  6  4  1  0  0  0  0
  8  9  1  0  0  0  0
  9 31  1  1  0  0  0
  9  1  1  0  0  0  0
 10  2  1  6  0  0  0
 11 14  1  0  0  0  0
 12 11  1  0  0  0  0
 12 16  1  0  0  0  0
 14 13  2  0  0  0  0
 15 18  1  6  0  0  0
 15 13  1  0  0  0  0
 16 15  1  0  0  0  0
 17 11  2  0  0  0  0
 19 26  1  0  0  0  0
 20 18  1  6  0  0  0
 20 21  1  0  0  0  0
 20 22  1  0  0  0  0
 21 27  1  0  0  0  0
 21 24  1  0  0  0  0
 22 19  1  0  0  0  0
 22 23  2  0  0  0  0
 24 23  1  0  0  0  0
 25 26  1  0  0  0  0
 27 29  1  0  0  0  0
 28 29  1  0  0  0  0
 31 30  1  6  0  0  0
 32 39  1  0  0  0  0
 32 38  1  1  0  0  0
 33 39  1  0  0  0  0
 33 31  1  0  0  0  0
 34 33  2  0  0  0  0
 35 40  1  6  0  0  0
 35 34  1  0  0  0  0
 35 32  1  0  0  0  0
 36 37  1  0  0  0  0
 38 37  1  0  0  0  0
 39 36  1  1  0  0  0
 41 40  1  0  0  0  0
M  END
>  <MODEL>
5

>  <REMARK>
 VINA RESULT:      -7.2      1.945      3.610
  Name = 
  9 active torsions:
  status: ('A' for Active; 'I' for Inactive)
    1  A    between atoms: C_6  and  C_20
    2  A    between atoms: C_9  and  C_34
    3  A    between atoms: N_10  and  C_40
    4  A    between atoms: C_14  and  C_32
    5  A    between atoms: C_15  and  N_17
    6  A    between atoms: C_15  and  O_27
    7  A    between atoms: C_16  and  C_32
    8  A    between atoms: C_18  and  O_36
    9  A    between atoms: C_34  and  C_35
                            x       y       z     vdW  Elec       q    Type
                         _______ _______ _______ _____ _____    ______ ____

>  <TORSDO>
F 9

$$$$
=
 OpenBabel11062422203D

 41 46  0  0  1  0  0  0  0  0999 V2000
  195.4590  174.5270  145.3790 C   0  0  1  0  0  3  0  0  0  0  0  0
  194.4920  173.4330  144.9660 C   0  0  0  0  0  2  0  0  0  0  0  0
  190.9780  173.3910  143.8290 C   0  0  0  0  0  1  0  0  0  0  0  0
  192.6620  175.2420  144.4040 C   0  0  2  0  0  0  0  0  0  0  0  0
  192.4040  173.9050  143.6980 C   0  0  1  0  0  3  0  0  0  0  0  0
  193.7320  176.1620  143.7780 C   0  0  0  0  0  2  0  0  0  0  0  0
  196.6590  173.9660  146.1270 C   0  0  0  0  0  1  0  0  0  0  0  0
  194.8000  175.4570  143.2170 O   0  0  0  0  0  0  0  0  0  0  0  0
  195.8170  175.4420  144.1870 C   0  0  2  0  0  3  0  0  0  0  0  0
  193.0460  173.9120  145.0840 C   0  0  1  0  0  3  0  0  0  0  0  0
  191.3100  175.9380  146.5380 C   0  0  0  0  0  0  0  0  0  0  0  0
  190.0940  176.5690  147.1470 C   0  0  0  0  0  2  0  0  0  0  0  0
  190.5990  176.5670  144.2880 C   0  0  0  0  0  3  0  0  0  0  0  0
  191.5060  175.9600  145.0650 C   0  0  0  0  0  0  0  0  0  0  0  0
  189.3580  177.2230  144.8240 C   0  0  2  0  0  3  0  0  0  0  0  0
  189.5720  177.7000  146.2620 C   0  0  0  0  0  2  0  0  0  0  0  0
  192.1530  175.2920  147.3370 C   0  0  0  0  0  2  0  0  0  0  0  0
  188.1620  176.2810  144.7550 C   0  0  0  0  0  2  0  0  0  0  0  0
  187.8190  174.7460  142.0420 N   0  0  0  0  0  2  0  0  0  0  0  0
  187.1920  176.6720  143.6420 C   0  0  1  0  0  3  0  0  0  0  0  0
  187.2020  178.1330  143.4490 N   0  0  0  0  0  0  0  0  0  0  0  0
  187.6910  176.1350  142.3470 C   0  0  0  0  0  0  0  0  0  0  0  0
  188.0020  177.0690  141.5260 N   0  0  0  0  0  0  0  0  0  0  0  0
  187.7400  178.2800  142.1580 N   0  0  0  0  0  2  0  0  0  0  0  0
  188.7770  172.8520  140.8520 C   0  0  0  0  0  1  0  0  0  0  0  0
  188.2500  174.2670  140.7380 C   0  0  0  0  0  2  0  0  0  0  0  0
  185.8140  178.5620  143.3690 C   0  0  0  0  0  2  0  0  0  0  0  0
  184.1520  178.6060  144.7260 O   0  0  0  0  0  1  0  0  0  0  0  0
  185.0260  177.7710  144.2050 O   0  0  0  0  0  0  0  0  0  0  0  0
  197.7780  176.3340  143.1400 O   0  0  0  0  0  1  0  0  0  0  0  0
  197.1820  175.1400  143.5490 C   0  0  2  0  0  3  0  0  0  0  0  0
  197.0670  173.3740  140.3100 C   0  0  1  0  0  3  0  0  0  0  0  0
  197.1230  174.1500  142.4160 C   0  0  0  0  0  0  0  0  0  0  0  0
  196.9930  172.8360  142.5560 C   0  0  0  0  0  3  0  0  0  0  0  0
  196.8890  172.1950  141.2040 C   0  0  2  0  0  3  0  0  0  0  0  0
  196.7500  175.7200  140.3260 C   0  0  0  0  0  2  0  0  0  0  0  0
  195.9310  175.2700  139.1160 C   0  0  0  0  0  2  0  0  0  0  0  0
  196.4440  173.5690  138.6580 S   0  0  0  0  0  0  0  0  0  0  0  0
  197.1700  174.4700  141.0030 C   0  0  2  0  0  3  0  0  0  0  0  0
  197.9350  171.2910  141.0240 O   0  0  0  0  0  0  0  0  0  0  0  0
  197.3560  170.2130  140.3550 C   0  0  0  0  0  1  0  0  0  0  0  0
  1  7  1  6  0  0  0
  2  1  1  0  0  0  0
  4 14  1  1  0  0  0
  4 10  1  0  0  0  0
  5  3  1  1  0  0  0
  5  4  1  0  0  0  0
  5 10  1  0  0  0  0
  6  4  1  0  0  0  0
  8  6  1  0  0  0  0
  8  9  1  0  0  0  0
  9 31  1  6  0  0  0
  9  1  1  0  0  0  0
 10  2  1  6  0  0  0
 11 12  1  0  0  0  0
 11 17  2  0  0  0  0
 13 15  1  0  0  0  0
 13 14  2  0  0  0  0
 14 11  1  0  0  0  0
 15 18  1  1  0  0  0
 15 16  1  0  0  0  0
 16 12  1  0  0  0  0
 19 22  1  0  0  0  0
 20 18  1  1  0  0  0
 21 20  1  0  0  0  0
 22 20  1  0  0  0  0
 23 24  1  0  0  0  0
 23 22  2  0  0  0  0
 24 21  1  0  0  0  0
 26 25  1  0  0  0  0
 26 19  1  0  0  0  0
 27 21  1  0  0  0  0
 27 29  1  0  0  0  0
 29 28  1  0  0  0  0
 31 30  1  6  0  0  0
 32 38  1  6  0  0  0
 32 39  1  0  0  0  0
 32 35  1  0  0  0  0
 33 34  2  0  0  0  0
 33 31  1  0  0  0  0
 35 40  1  6  0  0  0
 35 34  1  0  0  0  0
 37 36  1  0  0  0  0
 38 37  1  0  0  0  0
 39 36  1  6  0  0  0
 39 33  1  0  0  0  0
 41 40  1  0  0  0  0
M  END
>  <MODEL>
6

>  <REMARK>
 VINA RESULT:      -7.0      1.395      2.084
  Name = 
  9 active torsions:
  status: ('A' for Active; 'I' for Inactive)
    1  A    between atoms: C_6  and  C_20
    2  A    between atoms: C_9  and  C_34
    3  A    between atoms: N_10  and  C_40
    4  A    between atoms: C_14  and  C_32
    5  A    between atoms: C_15  and  N_17
    6  A    between atoms: C_15  and  O_27
    7  A    between atoms: C_16  and  C_32
    8  A    between atoms: C_18  and  O_36
    9  A    between atoms: C_34  and  C_35
                            x       y       z     vdW  Elec       q    Type
                         _______ _______ _______ _____ _____    ______ ____

>  <TORSDO>
F 9

$$$$
=
 OpenBabel11062422203D

 41 46  0  0  1  0  0  0  0  0999 V2000
  192.2420  172.3940  144.0110 C   0  0  1  0  0  3  0  0  0  0  0  0
  191.1400  172.3510  142.9680 C   0  0  0  0  0  2  0  0  0  0  0  0
  188.4750  174.6920  141.9360 C   0  0  0  0  0  1  0  0  0  0  0  0
  190.4230  174.8050  143.6060 C   0  0  2  0  0  0  0  0  0  0  0  0
  189.9430  174.3960  142.2080 C   0  0  1  0  0  3  0  0  0  0  0  0
  191.9020  175.2270  143.7350 C   0  0  0  0  0  2  0  0  0  0  0  0
  192.8160  171.0110  144.2810 C   0  0  0  0  0  1  0  0  0  0  0  0
  192.7530  174.5070  142.8930 O   0  0  0  0  0  0  0  0  0  0  0  0
  193.2970  173.4710  143.6720 C   0  0  2  0  0  3  0  0  0  0  0  0
  190.0290  173.3430  143.3110 C   0  0  1  0  0  3  0  0  0  0  0  0
  189.3270  175.1480  145.9610 C   0  0  0  0  0  0  0  0  0  0  0  0
  188.2920  175.8120  146.8190 C   0  0  0  0  0  2  0  0  0  0  0  0
  188.6770  176.4800  144.0190 C   0  0  0  0  0  3  0  0  0  0  0  0
  189.4670  175.5260  144.5310 C   0  0  0  0  0  0  0  0  0  0  0  0
  187.6200  177.1910  144.8160 C   0  0  2  0  0  3  0  0  0  0  0  0
  187.9820  177.2160  146.3030 C   0  0  0  0  0  2  0  0  0  0  0  0
  190.0470  174.1630  146.4880 C   0  0  0  0  0  2  0  0  0  0  0  0
  186.2530  176.5470  144.6190 C   0  0  0  0  0  2  0  0  0  0  0  0
  185.3100  177.4310  141.7610 N   0  0  0  0  0  2  0  0  0  0  0  0
  185.1700  177.5860  144.3350 C   0  0  1  0  0  3  0  0  0  0  0  0
  185.3160  178.7360  145.2440 N   0  0  0  0  0  0  0  0  0  0  0  0
  185.3920  178.1670  142.9830 C   0  0  0  0  0  0  0  0  0  0  0  0
  185.6740  179.4160  143.0360 N   0  0  0  0  0  0  0  0  0  0  0  0
  185.6560  179.7890  144.3750 N   0  0  0  0  0  2  0  0  0  0  0  0
  186.6910  177.4970  139.7600 C   0  0  0  0  0  1  0  0  0  0  0  0
  185.4700  178.0560  140.4580 C   0  0  0  0  0  2  0  0  0  0  0  0
  183.9920  179.0410  145.7630 C   0  0  0  0  0  2  0  0  0  0  0  0
  184.8520  178.5120  147.6570 O   0  0  0  0  0  1  0  0  0  0  0  0
  183.7670  178.3220  146.9370 O   0  0  0  0  0  0  0  0  0  0  0  0
  195.6920  173.4760  143.6670 O   0  0  0  0  0  1  0  0  0  0  0  0
  194.5800  172.9180  143.0340 C   0  0  2  0  0  3  0  0  0  0  0  0
  194.2730  172.7470  139.3600 C   0  0  1  0  0  3  0  0  0  0  0  0
  194.6550  173.1090  141.5430 C   0  0  0  0  0  0  0  0  0  0  0  0
  195.4030  174.0170  140.9260 C   0  0  0  0  0  3  0  0  0  0  0  0
  195.2770  173.8470  139.4410 C   0  0  2  0  0  3  0  0  0  0  0  0
  193.4840  170.9210  140.6430 C   0  0  0  0  0  2  0  0  0  0  0  0
  193.9070  170.2630  139.3290 C   0  0  0  0  0  2  0  0  0  0  0  0
  194.0840  171.5640  138.0490 S   0  0  0  0  0  0  0  0  0  0  0  0
  193.9530  172.3240  140.5480 C   0  0  2  0  0  3  0  0  0  0  0  0
  194.7650  175.0100  138.8700 O   0  0  0  0  0  0  0  0  0  0  0  0
  195.6290  175.2910  137.8120 C   0  0  0  0  0  1  0  0  0  0  0  0
  1  7  1  6  0  0  0
  2  1  1  0  0  0  0
  4  6  1  0  0  0  0
  4 14  1  1  0  0  0
  5  3  1  1  0  0  0
  5 10  1  0  0  0  0
  5  4  1  0  0  0  0
  8  9  1  0  0  0  0
  8  6  1  0  0  0  0
  9 31  1  6  0  0  0
  9  1  1  0  0  0  0
 10  2  1  6  0  0  0
 10  4  1  0  0  0  0
 11 17  2  0  0  0  0
 11 12  1  0  0  0  0
 13 14  2  0  0  0  0
 13 15  1  0  0  0  0
 14 11  1  0  0  0  0
 15 18  1  1  0  0  0
 15 16  1  0  0  0  0
 16 12  1  0  0  0  0
 19 22  1  0  0  0  0
 20 18  1  1  0  0  0
 20 21  1  0  0  0  0
 21 27  1  0  0  0  0
 22 23  2  0  0  0  0
 22 20  1  0  0  0  0
 23 24  1  0  0  0  0
 24 21  1  0  0  0  0
 25 26  1  0  0  0  0
 26 19  1  0  0  0  0
 27 29  1  0  0  0  0
 29 28  1  0  0  0  0
 31 30  1  1  0  0  0
 32 38  1  6  0  0  0
 32 35  1  0  0  0  0
 32 39  1  0  0  0  0
 33 31  1  0  0  0  0
 34 33  2  0  0  0  0
 35 40  1  6  0  0  0
 35 34  1  0  0  0  0
 37 36  1  0  0  0  0
 38 37  1  0  0  0  0
 39 36  1  6  0  0  0
 39 33  1  0  0  0  0
 41 40  1  0  0  0  0
M  END
>  <MODEL>
7

>  <REMARK>
 VINA RESULT:      -6.9      1.945      2.558
  Name = 
  9 active torsions:
  status: ('A' for Active; 'I' for Inactive)
    1  A    between atoms: C_6  and  C_20
    2  A    between atoms: C_9  and  C_34
    3  A    between atoms: N_10  and  C_40
    4  A    between atoms: C_14  and  C_32
    5  A    between atoms: C_15  and  N_17
    6  A    between atoms: C_15  and  O_27
    7  A    between atoms: C_16  and  C_32
    8  A    between atoms: C_18  and  O_36
    9  A    between atoms: C_34  and  C_35
                            x       y       z     vdW  Elec       q    Type
                         _______ _______ _______ _____ _____    ______ ____

>  <TORSDO>
F 9

$$$$
=
 OpenBabel11062422203D

 41 46  0  0  1  0  0  0  0  0999 V2000
  188.5660  176.5660  141.8100 C   0  0  1  0  0  3  0  0  0  0  0  0
  188.0110  175.2410  142.3010 C   0  0  0  0  0  2  0  0  0  0  0  0
  189.3160  171.7870  142.4250 C   0  0  0  0  0  1  0  0  0  0  0  0
  190.2920  174.0560  141.7200 C   0  0  2  0  0  0  0  0  0  0  0  0
  189.4630  173.2680  142.7420 C   0  0  1  0  0  3  0  0  0  0  0  0
  191.0830  175.2680  142.2550 C   0  0  0  0  0  2  0  0  0  0  0  0
  187.4690  177.6060  141.6370 C   0  0  0  0  0  1  0  0  0  0  0  0
  190.4190  175.9470  143.2800 O   0  0  0  0  0  0  0  0  0  0  0  0
  189.7590  177.0310  142.6740 C   0  0  2  0  0  3  0  0  0  0  0  0
  188.7510  174.0700  141.6540 C   0  0  1  0  0  3  0  0  0  0  0  0
  192.2240  172.5720  140.7570 C   0  0  0  0  0  0  0  0  0  0  0  0
  192.9020  171.9400  139.5780 C   0  0  0  0  0  2  0  0  0  0  0  0
  190.3990  173.3950  139.3590 C   0  0  0  0  0  3  0  0  0  0  0  0
  190.9500  173.3140  140.5770 C   0  0  0  0  0  0  0  0  0  0  0  0
  191.0160  172.7860  138.1320 C   0  0  2  0  0  3  0  0  0  0  0  0
  191.8820  171.5790  138.4980 C   0  0  0  0  0  2  0  0  0  0  0  0
  192.8340  172.5230  141.9370 C   0  0  0  0  0  2  0  0  0  0  0  0
  191.8420  173.8110  137.3620 C   0  0  0  0  0  2  0  0  0  0  0  0
  192.4470  176.2020  135.4240 N   0  0  0  0  0  2  0  0  0  0  0  0
  191.4500  173.8660  135.8870 C   0  0  1  0  0  3  0  0  0  0  0  0
  190.0850  173.3430  135.7030 N   0  0  0  0  0  0  0  0  0  0  0  0
  191.3500  175.2880  135.4590 C   0  0  0  0  0  0  0  0  0  0  0  0
  190.1550  175.6080  135.1260 N   0  0  0  0  0  0  0  0  0  0  0  0
  189.3650  174.4730  135.2760 N   0  0  0  0  0  2  0  0  0  0  0  0
  193.6550  178.2680  134.9870 C   0  0  0  0  0  1  0  0  0  0  0  0
  192.3150  177.5660  134.9370 C   0  0  0  0  0  2  0  0  0  0  0  0
  190.1270  172.4300  134.5710 C   0  0  0  0  0  2  0  0  0  0  0  0
  189.3170  171.0350  135.9870 O   0  0  0  0  0  1  0  0  0  0  0  0
  190.2150  171.1150  135.0280 O   0  0  0  0  0  0  0  0  0  0  0  0
  190.5570  178.8250  144.0460 O   0  0  0  0  0  1  0  0  0  0  0  0
  189.4070  178.1090  143.7090 C   0  0  2  0  0  3  0  0  0  0  0  0
  187.0680  177.1150  146.3870 C   0  0  1  0  0  3  0  0  0  0  0  0
  188.7230  177.5770  144.9400 C   0  0  0  0  0  0  0  0  0  0  0  0
  189.3360  176.9850  145.9590 C   0  0  0  0  0  3  0  0  0  0  0  0
  188.3360  176.6680  147.0310 C   0  0  2  0  0  3  0  0  0  0  0  0
  186.3170  178.6460  144.7450 C   0  0  0  0  0  2  0  0  0  0  0  0
  185.5070  179.0400  145.9810 C   0  0  0  0  0  2  0  0  0  0  0  0
  185.5920  177.6730  147.2000 S   0  0  0  0  0  0  0  0  0  0  0  0
  187.3030  177.6490  145.2230 C   0  0  2  0  0  3  0  0  0  0  0  0
  188.3020  175.2930  147.2600 O   0  0  0  0  0  0  0  0  0  0  0  0
  189.6410  174.9050  147.2630 C   0  0  0  0  0  1  0  0  0  0  0  0
  1  7  1  1  0  0  0
  1  2  1  0  0  0  0
  1  9  1  0  0  0  0
  4 14  1  6  0  0  0
  4  6  1  0  0  0  0
  4  5  1  0  0  0  0
  5  3  1  6  0  0  0
  6  8  1  0  0  0  0
  9  8  1  0  0  0  0
  9 31  1  1  0  0  0
 10  4  1  0  0  0  0
 10  2  1  1  0  0  0
 10  5  1  0  0  0  0
 11 17  2  0  0  0  0
 12 11  1  0  0  0  0
 13 14  2  0  0  0  0
 14 11  1  0  0  0  0
 15 18  1  1  0  0  0
 15 16  1  0  0  0  0
 15 13  1  0  0  0  0
 16 12  1  0  0  0  0
 19 22  1  0  0  0  0
 20 18  1  1  0  0  0
 21 20  1  0  0  0  0
 22 20  1  0  0  0  0
 23 24  1  0  0  0  0
 23 22  2  0  0  0  0
 24 21  1  0  0  0  0
 26 25  1  0  0  0  0
 26 19  1  0  0  0  0
 27 29  1  0  0  0  0
 27 21  1  0  0  0  0
 29 28  1  0  0  0  0
 31 30  1  1  0  0  0
 31 33  1  0  0  0  0
 32 35  1  0  0  0  0
 32 38  1  1  0  0  0
 33 39  1  0  0  0  0
 33 34  2  0  0  0  0
 34 35  1  0  0  0  0
 35 40  1  6  0  0  0
 36 37  1  0  0  0  0
 37 38  1  0  0  0  0
 39 36  1  1  0  0  0
 39 32  1  0  0  0  0
 40 41  1  0  0  0  0
M  END
>  <MODEL>
8

>  <REMARK>
 VINA RESULT:      -6.8      4.951      9.224
  Name = 
  9 active torsions:
  status: ('A' for Active; 'I' for Inactive)
    1  A    between atoms: C_6  and  C_20
    2  A    between atoms: C_9  and  C_34
    3  A    between atoms: N_10  and  C_40
    4  A    between atoms: C_14  and  C_32
    5  A    between atoms: C_15  and  N_17
    6  A    between atoms: C_15  and  O_27
    7  A    between atoms: C_16  and  C_32
    8  A    between atoms: C_18  and  O_36
    9  A    between atoms: C_34  and  C_35
                            x       y       z     vdW  Elec       q    Type
                         _______ _______ _______ _____ _____    ______ ____

>  <TORSDO>
F 9

$$$$
=
 OpenBabel11062422203D

 41 46  0  0  1  0  0  0  0  0999 V2000
  189.5910  174.8590  143.3780 C   0  0  1  0  0  3  0  0  0  0  0  0
  189.4400  174.7180  144.8820 C   0  0  0  0  0  2  0  0  0  0  0  0
  191.7420  175.0720  147.7490 C   0  0  0  0  0  1  0  0  0  0  0  0
  191.9530  175.4350  145.2150 C   0  0  2  0  0  0  0  0  0  0  0  0
  191.1110  175.6330  146.4830 C   0  0  1  0  0  3  0  0  0  0  0  0
  191.8150  176.5110  144.1170 C   0  0  0  0  0  2  0  0  0  0  0  0
  188.4240  174.2280  142.6330 C   0  0  0  0  0  1  0  0  0  0  0  0
  190.5210  177.0280  144.0160 O   0  0  0  0  0  0  0  0  0  0  0  0
  189.8920  176.3210  142.9770 C   0  0  2  0  0  3  0  0  0  0  0  0
  190.7950  174.4710  145.5430 C   0  0  1  0  0  3  0  0  0  0  0  0
  194.5180  175.6110  145.7170 C   0  0  0  0  0  0  0  0  0  0  0  0
  195.8800  174.9830  145.7190 C   0  0  0  0  0  2  0  0  0  0  0  0
  193.4730  173.5200  145.0110 C   0  0  0  0  0  3  0  0  0  0  0  0
  193.3260  174.8120  145.3340 C   0  0  0  0  0  0  0  0  0  0  0  0
  194.8030  172.8200  144.9920 C   0  0  2  0  0  3  0  0  0  0  0  0
  195.7800  173.4780  145.9680 C   0  0  0  0  0  2  0  0  0  0  0  0
  194.4230  176.9100  145.9820 C   0  0  0  0  0  2  0  0  0  0  0  0
  195.3970  172.8000  143.5880 C   0  0  0  0  0  2  0  0  0  0  0  0
  194.6530  171.5600  140.8040 N   0  0  0  0  0  2  0  0  0  0  0  0
  195.7450  171.3830  143.1370 C   0  0  1  0  0  3  0  0  0  0  0  0
  195.5240  170.4300  144.2380 N   0  0  0  0  0  0  0  0  0  0  0  0
  194.7790  170.9510  142.0900 C   0  0  0  0  0  0  0  0  0  0  0  0
  194.0610  169.9620  142.4760 N   0  0  0  0  0  0  0  0  0  0  0  0
  194.4650  169.6330  143.7650 N   0  0  0  0  0  2  0  0  0  0  0  0
  192.4630  171.8760  139.7920 C   0  0  0  0  0  1  0  0  0  0  0  0
  193.7400  171.0620  139.7880 C   0  0  0  0  0  2  0  0  0  0  0  0
  196.6940  169.5670  144.2970 C   0  0  0  0  0  2  0  0  0  0  0  0
  196.8580  170.1750  146.3490 O   0  0  0  0  0  1  0  0  0  0  0  0
  197.5840  170.0430  145.2600 O   0  0  0  0  0  0  0  0  0  0  0  0
  189.1080  178.2060  141.7240 O   0  0  0  0  0  1  0  0  0  0  0  0
  188.6750  177.0920  142.4440 C   0  0  2  0  0  3  0  0  0  0  0  0
  185.7060  177.8950  144.4860 C   0  0  1  0  0  3  0  0  0  0  0  0
  187.6860  177.4890  143.5090 C   0  0  0  0  0  0  0  0  0  0  0  0
  188.0050  177.9500  144.7130 C   0  0  0  0  0  3  0  0  0  0  0  0
  186.7560  178.3140  145.4580 C   0  0  2  0  0  3  0  0  0  0  0  0
  185.4210  177.5810  142.1570 C   0  0  0  0  0  2  0  0  0  0  0  0
  184.3120  178.5730  142.5100 C   0  0  0  0  0  2  0  0  0  0  0  0
  184.0670  178.5600  144.3270 S   0  0  0  0  0  0  0  0  0  0  0  0
  186.2430  177.4590  143.3840 C   0  0  2  0  0  3  0  0  0  0  0  0
  186.6600  177.5580  146.6250 O   0  0  0  0  0  0  0  0  0  0  0  0
  186.1630  178.4470  147.5790 C   0  0  0  0  0  1  0  0  0  0  0  0
  1  7  1  6  0  0  0
  1  2  1  0  0  0  0
  4 14  1  1  0  0  0
  4 10  1  0  0  0  0
  4  5  1  0  0  0  0
  5  3  1  1  0  0  0
  6  4  1  0  0  0  0
  8  6  1  0  0  0  0
  9 31  1  1  0  0  0
  9  1  1  0  0  0  0
  9  8  1  0  0  0  0
 10  2  1  6  0  0  0
 10  5  1  0  0  0  0
 11 12  1  0  0  0  0
 11 17  2  0  0  0  0
 12 16  1  0  0  0  0
 13 14  2  0  0  0  0
 14 11  1  0  0  0  0
 15 18  1  6  0  0  0
 15 13  1  0  0  0  0
 15 16  1  0  0  0  0
 19 22  1  0  0  0  0
 20 18  1  1  0  0  0
 20 21  1  0  0  0  0
 21 27  1  0  0  0  0
 22 23  2  0  0  0  0
 22 20  1  0  0  0  0
 23 24  1  0  0  0  0
 24 21  1  0  0  0  0
 26 25  1  0  0  0  0
 26 19  1  0  0  0  0
 27 29  1  0  0  0  0
 29 28  1  0  0  0  0
 31 30  1  1  0  0  0
 31 33  1  0  0  0  0
 32 38  1  6  0  0  0
 32 35  1  0  0  0  0
 33 34  2  0  0  0  0
 34 35  1  0  0  0  0
 35 40  1  1  0  0  0
 36 37  1  0  0  0  0
 37 38  1  0  0  0  0
 39 36  1  6  0  0  0
 39 33  1  0  0  0  0
 39 32  1  0  0  0  0
 40 41  1  0  0  0  0
M  END
>  <MODEL>
9

>  <REMARK>
 VINA RESULT:      -6.8      4.757      9.395
  Name = 
  9 active torsions:
  status: ('A' for Active; 'I' for Inactive)
    1  A    between atoms: C_6  and  C_20
    2  A    between atoms: C_9  and  C_34
    3  A    between atoms: N_10  and  C_40
    4  A    between atoms: C_14  and  C_32
    5  A    between atoms: C_15  and  N_17
    6  A    between atoms: C_15  and  O_27
    7  A    between atoms: C_16  and  C_32
    8  A    between atoms: C_18  and  O_36
    9  A    between atoms: C_34  and  C_35
                            x       y       z     vdW  Elec       q    Type
                         _______ _______ _______ _____ _____    ______ ____

>  <TORSDO>
F 9

$$$$
