=
 OpenBabel11062422003D

 35 37  0  0  1  0  0  0  0  0999 V2000
  191.3840  176.2320  144.6350 C   0  0  0  0  0  2  0  0  0  0  0  0
  188.7610  176.6030  146.0850 C   0  0  0  0  0  0  0  0  0  0  0  0
  189.9690  175.9930  146.6730 C   0  0  0  0  0  3  0  0  0  0  0  0
  191.1590  175.8810  146.0750 C   0  0  0  0  0  0  0  0  0  0  0  0
  189.6870  177.7150  144.0270 C   0  0  0  0  0  2  0  0  0  0  0  0
  187.5820  176.1110  146.4600 C   0  0  0  0  0  3  0  0  0  0  0  0
  191.0920  177.6350  144.3950 N   0  0  0  0  0  2  0  0  0  0  0  0
  188.8300  177.8680  145.2730 C   0  0  0  0  0  2  0  0  0  0  0  0
  185.9960  177.8500  148.0280 O   0  0  0  0  0  0  0  0  0  0  0  0
  186.3520  176.6930  146.0280 N   0  0  0  0  0  2  0  0  0  0  0  0
  185.5970  177.5690  146.8660 C   0  0  0  0  0  0  0  0  0  0  0  0
  184.3110  178.1370  146.3730 C   0  0  0  0  0  2  0  0  0  0  0  0
  184.5580  179.1570  145.2730 C   0  0  0  0  0  2  0  0  0  0  0  0
  183.9030  178.7700  144.0890 O   0  0  0  0  0  0  0  0  0  0  0  0
  186.0280  179.3930  143.3760 O   0  0  0  0  0  1  0  0  0  0  0  0
  184.8410  178.7350  143.0330 C   0  0  1  0  0  3  0  0  0  0  0  0
  185.1130  177.3160  142.5340 C   0  0  0  0  0  2  0  0  0  0  0  0
  186.6060  177.0250  142.5040 C   0  0  0  0  0  2  0  0  0  0  0  0
  187.0180  176.6620  141.1560 N   0  0  0  0  0  0  0  0  0  0  0  0
  187.4930  177.7820  140.5550 O   0  0  0  0  0  1  0  0  0  0  0  0
  188.1840  174.7580  140.0290 C   0  0  0  0  0  1  0  0  0  0  0  0
  187.9310  174.8350  142.5080 C   0  0  0  0  0  1  0  0  0  0  0  0
  188.0950  175.6690  141.2510 C   0  0  0  0  0  3  0  0  0  0  0  0
  192.2950  175.3100  146.8530 C   0  0  0  0  0  2  0  0  0  0  0  0
  195.5600  176.3990  145.2820 N   0  0  0  0  0  0  0  0  0  0  0  0
  195.4860  175.1220  145.1120 C   0  0  0  0  0  0  0  0  0  0  0  0
  194.0980  173.2410  145.5590 N   0  0  0  0  0  0  0  0  0  0  0  0
  194.3420  174.5750  145.6070 C   0  0  0  0  0  0  0  0  0  0  0  0
  193.5870  175.5180  146.1300 C   0  0  0  0  0  0  0  0  0  0  0  0
  196.1870  172.9580  144.4650 N   0  0  0  0  0  0  0  0  0  0  0  0
  194.3390  176.8090  145.9840 C   0  0  0  0  0  2  0  0  0  0  0  0
  195.0330  172.4310  144.9810 C   0  0  0  0  0  3  0  0  0  0  0  0
  196.4380  174.3030  144.5170 C   0  0  0  0  0  0  0  0  0  0  0  0
  197.6180  174.8420  144.0000 O   0  0  0  0  0  0  0  0  0  0  0  0
  197.7280  175.2450  142.6440 C   0  0  0  0  0  1  0  0  0  0  0  0
  1  4  1  0  0  0  0
  2  6  2  0  0  0  0
  2  3  1  0  0  0  0
  4  3  2  0  0  0  0
  4 24  1  0  0  0  0
  5  7  1  0  0  0  0
  5  8  1  0  0  0  0
  7  1  1  0  0  0  0
  8  2  1  0  0  0  0
 10  6  1  0  0  0  0
 10 11  1  0  0  0  0
 11  9  2  0  0  0  0
 12 11  1  0  0  0  0
 13 12  1  0  0  0  0
 14 13  1  0  0  0  0
 16 15  1  1  0  0  0
 16 14  1  0  0  0  0
 17 16  1  0  0  0  0
 18 17  1  0  0  0  0
 19 23  1  0  0  0  0
 19 18  1  0  0  0  0
 20 19  1  0  0  0  0
 21 23  1  0  0  0  0
 23 22  1  0  0  0  0
 25 31  1  0  0  0  0
 26 25  2  0  0  0  0
 26 28  1  0  0  0  0
 27 28  1  0  0  0  0
 28 29  2  0  0  0  0
 29 24  1  0  0  0  0
 30 33  2  0  0  0  0
 30 32  1  0  0  0  0
 31 29  1  0  0  0  0
 32 27  2  0  0  0  0
 33 26  1  0  0  0  0
 34 33  1  0  0  0  0
 35 34  1  0  0  0  0
M  END
>  <MODEL>
1

>  <REMARK>
 VINA RESULT:      -6.8      0.000      0.000
  Name = 
  12 active torsions:
  status: ('A' for Active; 'I' for Inactive)
    1  A    between atoms: O_1  and  C_34
    2  A    between atoms: C_7  and  C_9
    3  A    between atoms: C_9  and  C_18
    4  A    between atoms: C_13  and  N_25
    5  A    between atoms: C_14  and  C_30
    6  A    between atoms: C_14  and  O_33
    7  A    between atoms: C_22  and  C_24
    8  A    between atoms: C_22  and  O_33
    9  A    between atoms: C_23  and  N_26
   10  A    between atoms: C_24  and  C_27
   11  A    between atoms: N_26  and  C_28
   12  A    between atoms: C_28  and  C_30
                            x       y       z     vdW  Elec       q    Type
                         _______ _______ _______ _____ _____    ______ ____

>  <TORSDO>
F 12

$$$$
=
 OpenBabel11062422003D

 35 37  0  0  1  0  0  0  0  0999 V2000
  191.6660  176.2700  147.2880 C   0  0  0  0  0  2  0  0  0  0  0  0
  190.7790  175.9010  144.4250 C   0  0  0  0  0  0  0  0  0  0  0  0
  192.1670  176.1660  144.8480 C   0  0  0  0  0  3  0  0  0  0  0  0
  192.5950  176.2640  146.1110 C   0  0  0  0  0  0  0  0  0  0  0  0
  189.6880  175.2420  146.5950 C   0  0  0  0  0  2  0  0  0  0  0  0
  190.3760  176.4350  143.2740 C   0  0  0  0  0  3  0  0  0  0  0  0
  190.9100  175.0310  147.3540 N   0  0  0  0  0  2  0  0  0  0  0  0
  189.9160  174.8910  145.1330 C   0  0  0  0  0  2  0  0  0  0  0  0
  188.9110  178.2260  141.6480 O   0  0  0  0  0  0  0  0  0  0  0  0
  189.0870  176.1590  142.7260 N   0  0  0  0  0  2  0  0  0  0  0  0
  188.3990  177.1040  141.9070 C   0  0  0  0  0  0  0  0  0  0  0  0
  187.0480  176.7730  141.3720 C   0  0  0  0  0  2  0  0  0  0  0  0
  185.9680  177.1100  142.3890 C   0  0  0  0  0  2  0  0  0  0  0  0
  185.8540  178.5040  142.5380 O   0  0  0  0  0  0  0  0  0  0  0  0
  183.6470  177.9110  142.0990 O   0  0  0  0  0  1  0  0  0  0  0  0
  184.4930  178.8380  142.7200 C   0  0  1  0  0  3  0  0  0  0  0  0
  184.1260  179.0310  144.1920 C   0  0  0  0  0  2  0  0  0  0  0  0
  185.3370  179.4690  145.0020 C   0  0  0  0  0  2  0  0  0  0  0  0
  185.3600  178.7740  146.2820 N   0  0  0  0  0  0  0  0  0  0  0  0
  184.0840  178.4260  146.5840 O   0  0  0  0  0  1  0  0  0  0  0  0
  186.3880  176.8190  147.4540 C   0  0  0  0  0  1  0  0  0  0  0  0
  187.5120  177.8970  145.5080 C   0  0  0  0  0  1  0  0  0  0  0  0
  186.1730  177.5610  146.1370 C   0  0  0  0  0  3  0  0  0  0  0  0
  194.0530  176.4530  146.3550 C   0  0  0  0  0  2  0  0  0  0  0  0
  195.6800  173.4100  144.8040 N   0  0  0  0  0  0  0  0  0  0  0  0
  196.1450  174.4310  144.1680 C   0  0  0  0  0  0  0  0  0  0  0  0
  196.0120  176.8050  144.0640 N   0  0  0  0  0  0  0  0  0  0  0  0
  195.6690  175.6200  144.6300 C   0  0  0  0  0  0  0  0  0  0  0  0
  194.8480  175.4100  145.6370 C   0  0  0  0  0  0  0  0  0  0  0  0
  197.3770  175.6120  142.5310 N   0  0  0  0  0  0  0  0  0  0  0  0
  194.7620  173.9230  145.8260 C   0  0  0  0  0  2  0  0  0  0  0  0
  196.8750  176.7940  143.0060 C   0  0  0  0  0  3  0  0  0  0  0  0
  197.0290  174.4150  143.0950 C   0  0  0  0  0  0  0  0  0  0  0  0
  197.5320  173.2080  142.6060 O   0  0  0  0  0  0  0  0  0  0  0  0
  197.1530  172.6930  141.3400 C   0  0  0  0  0  1  0  0  0  0  0  0
  1  7  1  0  0  0  0
  2  3  1  0  0  0  0
  2  8  1  0  0  0  0
  3  4  2  0  0  0  0
  4 24  1  0  0  0  0
  4  1  1  0  0  0  0
  5  7  1  0  0  0  0
  6  2  2  0  0  0  0
  8  5  1  0  0  0  0
  9 11  2  0  0  0  0
 10  6  1  0  0  0  0
 11 10  1  0  0  0  0
 12 11  1  0  0  0  0
 12 13  1  0  0  0  0
 13 14  1  0  0  0  0
 14 16  1  0  0  0  0
 16 15  1  1  0  0  0
 16 17  1  0  0  0  0
 17 18  1  0  0  0  0
 18 19  1  0  0  0  0
 19 20  1  0  0  0  0
 22 23  1  0  0  0  0
 23 19  1  0  0  0  0
 23 21  1  0  0  0  0
 25 31  1  0  0  0  0
 26 28  1  0  0  0  0
 26 25  2  0  0  0  0
 27 28  1  0  0  0  0
 28 29  2  0  0  0  0
 29 31  1  0  0  0  0
 29 24  1  0  0  0  0
 30 32  1  0  0  0  0
 30 33  2  0  0  0  0
 32 27  2  0  0  0  0
 33 26  1  0  0  0  0
 34 33  1  0  0  0  0
 35 34  1  0  0  0  0
M  END
>  <MODEL>
2

>  <REMARK>
 VINA RESULT:      -6.7      1.690      4.014
  Name = 
  12 active torsions:
  status: ('A' for Active; 'I' for Inactive)
    1  A    between atoms: O_1  and  C_34
    2  A    between atoms: C_7  and  C_9
    3  A    between atoms: C_9  and  C_18
    4  A    between atoms: C_13  and  N_25
    5  A    between atoms: C_14  and  C_30
    6  A    between atoms: C_14  and  O_33
    7  A    between atoms: C_22  and  C_24
    8  A    between atoms: C_22  and  O_33
    9  A    between atoms: C_23  and  N_26
   10  A    between atoms: C_24  and  C_27
   11  A    between atoms: N_26  and  C_28
   12  A    between atoms: C_28  and  C_30
                            x       y       z     vdW  Elec       q    Type
                         _______ _______ _______ _____ _____    ______ ____

>  <TORSDO>
F 12

$$$$
=
 OpenBabel11062422003D

 35 37  0  0  1  0  0  0  0  0999 V2000
  190.8990  173.9210  145.0930 C   0  0  0  0  0  2  0  0  0  0  0  0
  188.9080  175.9210  146.1680 C   0  0  0  0  0  0  0  0  0  0  0  0
  190.2420  175.6680  146.7450 C   0  0  0  0  0  3  0  0  0  0  0  0
  191.1660  174.8400  146.2470 C   0  0  0  0  0  0  0  0  0  0  0  0
  189.0970  174.8210  143.9130 C   0  0  0  0  0  2  0  0  0  0  0  0
  187.9200  176.2110  147.0120 C   0  0  0  0  0  3  0  0  0  0  0  0
  190.5440  174.6760  143.9040 N   0  0  0  0  0  2  0  0  0  0  0  0
  188.7040  176.0710  144.6850 C   0  0  0  0  0  2  0  0  0  0  0  0
  186.4460  178.4350  147.9510 O   0  0  0  0  0  0  0  0  0  0  0  0
  186.6170  176.5690  146.5520 N   0  0  0  0  0  2  0  0  0  0  0  0
  185.9250  177.7090  147.0620 C   0  0  0  0  0  0  0  0  0  0  0  0
  184.5590  178.0290  146.5600 C   0  0  0  0  0  2  0  0  0  0  0  0
  184.6290  178.9930  145.3860 C   0  0  0  0  0  2  0  0  0  0  0  0
  184.1980  178.3600  144.2060 O   0  0  0  0  0  0  0  0  0  0  0  0
  186.3220  178.6320  143.2970 O   0  0  0  0  0  1  0  0  0  0  0  0
  184.9510  178.8520  143.1170 C   0  0  1  0  0  3  0  0  0  0  0  0
  184.4690  178.3050  141.7730 C   0  0  0  0  0  2  0  0  0  0  0  0
  182.9660  178.0700  141.7870 C   0  0  0  0  0  2  0  0  0  0  0  0
  182.3780  178.5140  140.5310 N   0  0  0  0  0  0  0  0  0  0  0  0
  182.2380  177.4240  139.7350 O   0  0  0  0  0  1  0  0  0  0  0  0
  180.7680  179.2280  142.3070 C   0  0  0  0  0  1  0  0  0  0  0  0
  179.9720  178.2460  140.1570 C   0  0  0  0  0  1  0  0  0  0  0  0
  181.0550  179.0820  140.8140 C   0  0  0  0  0  3  0  0  0  0  0  0
  192.4950  174.7720  146.9180 C   0  0  0  0  0  2  0  0  0  0  0  0
  195.0410  176.7500  144.9370 N   0  0  0  0  0  0  0  0  0  0  0  0
  195.3530  175.5070  144.7870 C   0  0  0  0  0  0  0  0  0  0  0  0
  194.6920  173.3100  145.4200 N   0  0  0  0  0  0  0  0  0  0  0  0
  194.5070  174.6540  145.4270 C   0  0  0  0  0  0  0  0  0  0  0  0
  193.5610  175.3380  146.0350 C   0  0  0  0  0  0  0  0  0  0  0  0
  196.6190  173.6420  144.0720 N   0  0  0  0  0  0  0  0  0  0  0  0
  193.8450  176.7910  145.7850 C   0  0  0  0  0  2  0  0  0  0  0  0
  195.7600  172.8050  144.7330 C   0  0  0  0  0  3  0  0  0  0  0  0
  196.4380  174.9980  144.0820 C   0  0  0  0  0  0  0  0  0  0  0  0
  197.3180  175.8540  143.4150 O   0  0  0  0  0  0  0  0  0  0  0  0
  197.8310  175.5490  142.1280 C   0  0  0  0  0  1  0  0  0  0  0  0
  1  4  1  0  0  0  0
  2  3  1  0  0  0  0
  2  6  2  0  0  0  0
  4  3  2  0  0  0  0
  4 24  1  0  0  0  0
  5  8  1  0  0  0  0
  7  5  1  0  0  0  0
  7  1  1  0  0  0  0
  8  2  1  0  0  0  0
 10  6  1  0  0  0  0
 10 11  1  0  0  0  0
 11  9  2  0  0  0  0
 12 11  1  0  0  0  0
 13 12  1  0  0  0  0
 14 13  1  0  0  0  0
 16 15  1  1  0  0  0
 16 14  1  0  0  0  0
 17 18  1  0  0  0  0
 17 16  1  0  0  0  0
 19 23  1  0  0  0  0
 19 18  1  0  0  0  0
 20 19  1  0  0  0  0
 22 23  1  0  0  0  0
 23 21  1  0  0  0  0
 25 31  1  0  0  0  0
 26 25  2  0  0  0  0
 26 28  1  0  0  0  0
 27 28  1  0  0  0  0
 28 29  2  0  0  0  0
 29 24  1  0  0  0  0
 30 33  2  0  0  0  0
 30 32  1  0  0  0  0
 31 29  1  0  0  0  0
 32 27  2  0  0  0  0
 33 26  1  0  0  0  0
 34 33  1  0  0  0  0
 35 34  1  0  0  0  0
M  END
>  <MODEL>
3

>  <REMARK>
 VINA RESULT:      -6.4      2.107      3.073
  Name = 
  12 active torsions:
  status: ('A' for Active; 'I' for Inactive)
    1  A    between atoms: O_1  and  C_34
    2  A    between atoms: C_7  and  C_9
    3  A    between atoms: C_9  and  C_18
    4  A    between atoms: C_13  and  N_25
    5  A    between atoms: C_14  and  C_30
    6  A    between atoms: C_14  and  O_33
    7  A    between atoms: C_22  and  C_24
    8  A    between atoms: C_22  and  O_33
    9  A    between atoms: C_23  and  N_26
   10  A    between atoms: C_24  and  C_27
   11  A    between atoms: N_26  and  C_28
   12  A    between atoms: C_28  and  C_30
                            x       y       z     vdW  Elec       q    Type
                         _______ _______ _______ _____ _____    ______ ____

>  <TORSDO>
F 12

$$$$
=
 OpenBabel11062422003D

 35 37  0  0  1  0  0  0  0  0999 V2000
  188.1110  175.7180  146.4380 C   0  0  0  0  0  2  0  0  0  0  0  0
  190.9390  176.5160  145.7380 C   0  0  0  0  0  0  0  0  0  0  0  0
  189.8580  177.4590  146.0780 C   0  0  0  0  0  3  0  0  0  0  0  0
  188.6200  177.1280  146.4580 C   0  0  0  0  0  0  0  0  0  0  0  0
  189.9820  174.3230  146.5180 C   0  0  0  0  0  2  0  0  0  0  0  0
  191.8250  176.9020  144.8220 C   0  0  0  0  0  3  0  0  0  0  0  0
  188.9000  174.8730  147.3190 N   0  0  0  0  0  2  0  0  0  0  0  0
  191.1760  175.2640  146.5390 C   0  0  0  0  0  2  0  0  0  0  0  0
  194.4470  177.3980  145.7570 O   0  0  0  0  0  0  0  0  0  0  0  0
  192.9640  176.1070  144.4940 N   0  0  0  0  0  2  0  0  0  0  0  0
  194.2640  176.4060  145.0020 C   0  0  0  0  0  0  0  0  0  0  0  0
  195.4230  175.5530  144.6140 C   0  0  0  0  0  2  0  0  0  0  0  0
  195.2610  174.1430  145.1600 C   0  0  0  0  0  2  0  0  0  0  0  0
  195.2520  173.2090  144.1080 O   0  0  0  0  0  0  0  0  0  0  0  0
  193.2950  172.7330  145.2720 O   0  0  0  0  0  1  0  0  0  0  0  0
  193.9930  172.5690  144.0700 C   0  0  1  0  0  3  0  0  0  0  0  0
  193.1490  173.0030  142.8710 C   0  0  0  0  0  2  0  0  0  0  0  0
  191.6660  172.8210  143.1530 C   0  0  0  0  0  2  0  0  0  0  0  0
  190.9060  173.9190  142.5720 N   0  0  0  0  0  0  0  0  0  0  0  0
  190.9320  173.7680  141.2240 O   0  0  0  0  0  1  0  0  0  0  0  0
  188.7190  172.7270  142.3500 C   0  0  0  0  0  1  0  0  0  0  0  0
  188.8180  175.1610  142.8800 C   0  0  0  0  0  1  0  0  0  0  0  0
  189.5200  173.8260  143.0440 C   0  0  0  0  0  3  0  0  0  0  0  0
  187.6790  178.2170  146.8440 C   0  0  0  0  0  2  0  0  0  0  0  0
  184.2040  178.1160  145.3510 N   0  0  0  0  0  0  0  0  0  0  0  0
  185.0210  178.2010  144.3570 C   0  0  0  0  0  0  0  0  0  0  0  0
  187.3380  178.3480  143.8320 N   0  0  0  0  0  0  0  0  0  0  0  0
  186.3300  178.2230  144.7320 C   0  0  0  0  0  0  0  0  0  0  0  0
  186.4190  178.1360  146.0420 C   0  0  0  0  0  0  0  0  0  0  0  0
  185.7100  178.4100  142.1050 N   0  0  0  0  0  0  0  0  0  0  0  0
  185.0160  178.0830  146.5720 C   0  0  0  0  0  2  0  0  0  0  0  0
  187.0180  178.4410  142.5070 C   0  0  0  0  0  3  0  0  0  0  0  0
  184.6900  178.2900  143.0100 C   0  0  0  0  0  0  0  0  0  0  0  0
  183.3550  178.2670  142.6020 O   0  0  0  0  0  0  0  0  0  0  0  0
  182.9890  178.2090  141.2320 C   0  0  0  0  0  1  0  0  0  0  0  0
  1  4  1  0  0  0  0
  1  7  1  0  0  0  0
  2  3  1  0  0  0  0
  2  8  1  0  0  0  0
  3  4  2  0  0  0  0
  4 24  1  0  0  0  0
  5  8  1  0  0  0  0
  5  7  1  0  0  0  0
  6  2  2  0  0  0  0
 10  6  1  0  0  0  0
 10 11  1  0  0  0  0
 11  9  2  0  0  0  0
 12 11  1  0  0  0  0
 12 13  1  0  0  0  0
 14 13  1  0  0  0  0
 16 14  1  0  0  0  0
 16 15  1  1  0  0  0
 17 18  1  0  0  0  0
 17 16  1  0  0  0  0
 19 23  1  0  0  0  0
 19 18  1  0  0  0  0
 20 19  1  0  0  0  0
 21 23  1  0  0  0  0
 22 23  1  0  0  0  0
 25 31  1  0  0  0  0
 26 28  1  0  0  0  0
 26 25  2  0  0  0  0
 27 28  1  0  0  0  0
 28 29  2  0  0  0  0
 29 31  1  0  0  0  0
 29 24  1  0  0  0  0
 30 32  1  0  0  0  0
 30 33  2  0  0  0  0
 32 27  2  0  0  0  0
 33 26  1  0  0  0  0
 34 33  1  0  0  0  0
 35 34  1  0  0  0  0
M  END
>  <MODEL>
4

>  <REMARK>
 VINA RESULT:      -6.4      2.423      8.614
  Name = 
  12 active torsions:
  status: ('A' for Active; 'I' for Inactive)
    1  A    between atoms: O_1  and  C_34
    2  A    between atoms: C_7  and  C_9
    3  A    between atoms: C_9  and  C_18
    4  A    between atoms: C_13  and  N_25
    5  A    between atoms: C_14  and  C_30
    6  A    between atoms: C_14  and  O_33
    7  A    between atoms: C_22  and  C_24
    8  A    between atoms: C_22  and  O_33
    9  A    between atoms: C_23  and  N_26
   10  A    between atoms: C_24  and  C_27
   11  A    between atoms: N_26  and  C_28
   12  A    between atoms: C_28  and  C_30
                            x       y       z     vdW  Elec       q    Type
                         _______ _______ _______ _____ _____    ______ ____

>  <TORSDO>
F 12

$$$$
=
 OpenBabel11062422003D

 35 37  0  0  1  0  0  0  0  0999 V2000
  191.3110  176.6550  143.0690 C   0  0  0  0  0  2  0  0  0  0  0  0
  189.6850  176.0350  145.5370 C   0  0  0  0  0  0  0  0  0  0  0  0
  190.6140  175.0950  144.8830 C   0  0  0  0  0  3  0  0  0  0  0  0
  191.3950  175.3680  143.8340 C   0  0  0  0  0  0  0  0  0  0  0  0
  190.3450  178.2290  144.4980 C   0  0  0  0  0  2  0  0  0  0  0  0
  188.5810  175.5280  146.0820 C   0  0  0  0  0  3  0  0  0  0  0  0
  191.6100  177.7870  143.9300 N   0  0  0  0  0  2  0  0  0  0  0  0
  190.0580  177.4720  145.7840 C   0  0  0  0  0  2  0  0  0  0  0  0
  186.0710  176.4020  145.1170 O   0  0  0  0  0  0  0  0  0  0  0  0
  187.6670  176.3360  146.8230 N   0  0  0  0  0  2  0  0  0  0  0  0
  186.4100  176.7420  146.2820 C   0  0  0  0  0  0  0  0  0  0  0  0
  185.4990  177.5990  147.0920 C   0  0  0  0  0  2  0  0  0  0  0  0
  185.2170  178.9120  146.3780 C   0  0  0  0  0  2  0  0  0  0  0  0
  184.0860  178.7850  145.5500 O   0  0  0  0  0  0  0  0  0  0  0  0
  185.5520  180.1250  144.3370 O   0  0  0  0  0  1  0  0  0  0  0  0
  184.3540  179.4000  144.3060 C   0  0  1  0  0  3  0  0  0  0  0  0
  184.3320  178.4080  143.1430 C   0  0  0  0  0  2  0  0  0  0  0  0
  185.5340  178.6090  142.2320 C   0  0  0  0  0  2  0  0  0  0  0  0
  185.9730  177.3300  141.6930 N   0  0  0  0  0  0  0  0  0  0  0  0
  185.8970  177.4060  140.3400 O   0  0  0  0  0  1  0  0  0  0  0  0
  188.3110  178.2100  141.5980 C   0  0  0  0  0  1  0  0  0  0  0  0
  187.8510  175.7600  141.6010 C   0  0  0  0  0  1  0  0  0  0  0  0
  187.3690  177.1130  142.0890 C   0  0  0  0  0  3  0  0  0  0  0  0
  192.3370  174.3180  143.3550 C   0  0  0  0  0  2  0  0  0  0  0  0
  192.7490  174.1220  139.5980 N   0  0  0  0  0  0  0  0  0  0  0  0
  191.6170  173.5650  139.8670 C   0  0  0  0  0  0  0  0  0  0  0  0
  190.1770  173.0040  141.6770 N   0  0  0  0  0  0  0  0  0  0  0  0
  191.3080  173.5770  141.1920 C   0  0  0  0  0  0  0  0  0  0  0  0
  192.2630  174.1810  141.8670 C   0  0  0  0  0  0  0  0  0  0  0  0
  189.6040  172.3940  139.4540 N   0  0  0  0  0  0  0  0  0  0  0  0
  193.3170  174.5740  140.8730 C   0  0  0  0  0  2  0  0  0  0  0  0
  189.3210  172.4090  140.7940 C   0  0  0  0  0  3  0  0  0  0  0  0
  190.7460  172.9670  138.9630 C   0  0  0  0  0  0  0  0  0  0  0  0
  191.0410  172.9450  137.5980 O   0  0  0  0  0  0  0  0  0  0  0  0
  190.7190  174.0290  136.7430 C   0  0  0  0  0  1  0  0  0  0  0  0
  1  4  1  0  0  0  0
  1  7  1  0  0  0  0
  2  8  1  0  0  0  0
  2  6  2  0  0  0  0
  3  2  1  0  0  0  0
  4  3  2  0  0  0  0
  5  8  1  0  0  0  0
  6 10  1  0  0  0  0
  7  5  1  0  0  0  0
  9 11  2  0  0  0  0
 11 10  1  0  0  0  0
 11 12  1  0  0  0  0
 13 12  1  0  0  0  0
 14 13  1  0  0  0  0
 16 15  1  1  0  0  0
 16 14  1  0  0  0  0
 17 16  1  0  0  0  0
 18 17  1  0  0  0  0
 19 23  1  0  0  0  0
 19 18  1  0  0  0  0
 20 19  1  0  0  0  0
 21 23  1  0  0  0  0
 22 23  1  0  0  0  0
 24  4  1  0  0  0  0
 25 26  2  0  0  0  0
 25 31  1  0  0  0  0
 26 28  1  0  0  0  0
 28 27  1  0  0  0  0
 28 29  2  0  0  0  0
 29 24  1  0  0  0  0
 30 32  1  0  0  0  0
 31 29  1  0  0  0  0
 32 27  2  0  0  0  0
 33 30  2  0  0  0  0
 33 26  1  0  0  0  0
 34 33  1  0  0  0  0
 35 34  1  0  0  0  0
M  END
>  <MODEL>
5

>  <REMARK>
 VINA RESULT:      -6.4      3.056      4.304
  Name = 
  12 active torsions:
  status: ('A' for Active; 'I' for Inactive)
    1  A    between atoms: O_1  and  C_34
    2  A    between atoms: C_7  and  C_9
    3  A    between atoms: C_9  and  C_18
    4  A    between atoms: C_13  and  N_25
    5  A    between atoms: C_14  and  C_30
    6  A    between atoms: C_14  and  O_33
    7  A    between atoms: C_22  and  C_24
    8  A    between atoms: C_22  and  O_33
    9  A    between atoms: C_23  and  N_26
   10  A    between atoms: C_24  and  C_27
   11  A    between atoms: N_26  and  C_28
   12  A    between atoms: C_28  and  C_30
                            x       y       z     vdW  Elec       q    Type
                         _______ _______ _______ _____ _____    ______ ____

>  <TORSDO>
F 12

$$$$
=
 OpenBabel11062422003D

 35 37  0  0  1  0  0  0  0  0999 V2000
  190.2920  173.0660  145.3230 C   0  0  0  0  0  2  0  0  0  0  0  0
  189.4040  175.3520  143.5610 C   0  0  0  0  0  0  0  0  0  0  0  0
  190.2720  175.4900  144.7450 C   0  0  0  0  0  3  0  0  0  0  0  0
  190.7340  174.4880  145.4990 C   0  0  0  0  0  0  0  0  0  0  0  0
  189.4860  172.8720  143.1410 C   0  0  0  0  0  2  0  0  0  0  0  0
  188.5430  176.3370  143.3120 C   0  0  0  0  0  3  0  0  0  0  0  0
  190.6270  172.5820  143.9950 N   0  0  0  0  0  2  0  0  0  0  0  0
  189.6220  174.2640  142.5450 C   0  0  0  0  0  2  0  0  0  0  0  0
  188.1910  178.5820  141.6300 O   0  0  0  0  0  0  0  0  0  0  0  0
  187.7300  176.3480  142.1400 N   0  0  0  0  0  2  0  0  0  0  0  0
  187.5950  177.5140  141.3270 C   0  0  0  0  0  0  0  0  0  0  0  0
  186.7200  177.4780  140.1220 C   0  0  0  0  0  2  0  0  0  0  0  0
  185.3500  178.0610  140.4320 C   0  0  0  0  0  2  0  0  0  0  0  0
  184.8850  177.5860  141.6720 O   0  0  0  0  0  0  0  0  0  0  0  0
  182.6900  178.3440  141.8190 O   0  0  0  0  0  1  0  0  0  0  0  0
  184.0120  178.5440  142.2350 C   0  0  1  0  0  3  0  0  0  0  0  0
  184.1150  178.6080  143.7590 C   0  0  0  0  0  2  0  0  0  0  0  0
  185.1430  177.6150  144.2790 C   0  0  0  0  0  2  0  0  0  0  0  0
  186.1640  178.3090  145.0510 N   0  0  0  0  0  0  0  0  0  0  0  0
  185.7740  179.6010  145.1810 O   0  0  0  0  0  1  0  0  0  0  0  0
  185.4300  178.4300  147.4380 C   0  0  0  0  0  1  0  0  0  0  0  0
  187.6900  177.5760  146.8220 C   0  0  0  0  0  1  0  0  0  0  0  0
  186.2430  177.6890  146.3790 C   0  0  0  0  0  3  0  0  0  0  0  0
  191.6710  174.8080  146.6120 C   0  0  0  0  0  2  0  0  0  0  0  0
  195.0390  176.1250  145.4990 N   0  0  0  0  0  0  0  0  0  0  0  0
  195.0980  174.8420  145.3850 C   0  0  0  0  0  0  0  0  0  0  0  0
  193.8180  172.8620  145.7130 N   0  0  0  0  0  0  0  0  0  0  0  0
  193.9400  174.2130  145.7290 C   0  0  0  0  0  0  0  0  0  0  0  0
  193.0380  175.1040  146.0830 C   0  0  0  0  0  0  0  0  0  0  0  0
  196.0670  172.7260  144.9630 N   0  0  0  0  0  0  0  0  0  0  0  0
  193.6940  176.4510  145.9860 C   0  0  0  0  0  2  0  0  0  0  0  0
  194.8950  172.1170  145.3250 C   0  0  0  0  0  3  0  0  0  0  0  0
  196.1950  174.0890  144.9830 C   0  0  0  0  0  0  0  0  0  0  0  0
  197.3920  174.7120  144.6230 O   0  0  0  0  0  0  0  0  0  0  0  0
  197.7270  174.9700  143.2690 C   0  0  0  0  0  1  0  0  0  0  0  0
  1  4  1  0  0  0  0
  2  3  1  0  0  0  0
  3  4  2  0  0  0  0
  4 24  1  0  0  0  0
  5  7  1  0  0  0  0
  6  2  2  0  0  0  0
  7  1  1  0  0  0  0
  8  5  1  0  0  0  0
  8  2  1  0  0  0  0
 10  6  1  0  0  0  0
 11  9  2  0  0  0  0
 11 10  1  0  0  0  0
 12 13  1  0  0  0  0
 12 11  1  0  0  0  0
 13 14  1  0  0  0  0
 14 16  1  0  0  0  0
 16 15  1  1  0  0  0
 16 17  1  0  0  0  0
 17 18  1  0  0  0  0
 18 19  1  0  0  0  0
 19 20  1  0  0  0  0
 19 23  1  0  0  0  0
 23 22  1  0  0  0  0
 23 21  1  0  0  0  0
 25 31  1  0  0  0  0
 26 25  2  0  0  0  0
 26 28  1  0  0  0  0
 27 28  1  0  0  0  0
 28 29  2  0  0  0  0
 29 24  1  0  0  0  0
 30 33  2  0  0  0  0
 30 32  1  0  0  0  0
 31 29  1  0  0  0  0
 32 27  2  0  0  0  0
 33 26  1  0  0  0  0
 34 33  1  0  0  0  0
 35 34  1  0  0  0  0
M  END
>  <MODEL>
6

>  <REMARK>
 VINA RESULT:      -6.4      1.674      3.774
  Name = 
  12 active torsions:
  status: ('A' for Active; 'I' for Inactive)
    1  A    between atoms: O_1  and  C_34
    2  A    between atoms: C_7  and  C_9
    3  A    between atoms: C_9  and  C_18
    4  A    between atoms: C_13  and  N_25
    5  A    between atoms: C_14  and  C_30
    6  A    between atoms: C_14  and  O_33
    7  A    between atoms: C_22  and  C_24
    8  A    between atoms: C_22  and  O_33
    9  A    between atoms: C_23  and  N_26
   10  A    between atoms: C_24  and  C_27
   11  A    between atoms: N_26  and  C_28
   12  A    between atoms: C_28  and  C_30
                            x       y       z     vdW  Elec       q    Type
                         _______ _______ _______ _____ _____    ______ ____

>  <TORSDO>
F 12

$$$$
=
 OpenBabel11062422003D

 35 37  0  0  1  0  0  0  0  0999 V2000
  190.2910  171.6100  142.5030 C   0  0  0  0  0  2  0  0  0  0  0  0
  189.0430  174.3590  142.4160 C   0  0  0  0  0  0  0  0  0  0  0  0
  189.9510  173.8800  143.4750 C   0  0  0  0  0  3  0  0  0  0  0  0
  190.5690  172.6950  143.4990 C   0  0  0  0  0  0  0  0  0  0  0  0
  189.3970  172.6430  140.6100 C   0  0  0  0  0  2  0  0  0  0  0  0
  188.0590  175.1800  142.7760 C   0  0  0  0  0  3  0  0  0  0  0  0
  190.6090  172.0540  141.1560 N   0  0  0  0  0  2  0  0  0  0  0  0
  189.3340  174.1220  140.9590 C   0  0  0  0  0  2  0  0  0  0  0  0
  188.3010  177.8340  141.8300 O   0  0  0  0  0  0  0  0  0  0  0  0
  187.1880  175.7790  141.8170 N   0  0  0  0  0  2  0  0  0  0  0  0
  187.3640  177.1250  141.3750 C   0  0  0  0  0  0  0  0  0  0  0  0
  186.4160  177.7070  140.3830 C   0  0  0  0  0  2  0  0  0  0  0  0
  185.2320  178.3520  141.0850 C   0  0  0  0  0  2  0  0  0  0  0  0
  185.1020  177.8480  142.3920 O   0  0  0  0  0  0  0  0  0  0  0  0
  183.6990  178.9500  143.8850 O   0  0  0  0  0  1  0  0  0  0  0  0
  184.9670  178.9290  143.2920 C   0  0  1  0  0  3  0  0  0  0  0  0
  186.0770  178.9610  144.3440 C   0  0  0  0  0  2  0  0  0  0  0  0
  186.2570  177.5950  144.9870 C   0  0  0  0  0  2  0  0  0  0  0  0
  187.2580  177.6670  146.0420 N   0  0  0  0  0  0  0  0  0  0  0  0
  186.6510  177.3320  147.2090 O   0  0  0  0  0  1  0  0  0  0  0  0
  188.5130  175.6640  146.8610 C   0  0  0  0  0  1  0  0  0  0  0  0
  189.6230  177.4020  145.4590 C   0  0  0  0  0  1  0  0  0  0  0  0
  188.3140  176.6900  145.7480 C   0  0  0  0  0  3  0  0  0  0  0  0
  191.5200  172.4120  144.6110 C   0  0  0  0  0  2  0  0  0  0  0  0
  194.8860  173.6360  143.3910 N   0  0  0  0  0  0  0  0  0  0  0  0
  194.5450  174.4210  144.3560 C   0  0  2  0  0  3  0  0  0  0  0  0
  192.8050  174.8240  145.9300 N   0  0  0  0  0  0  0  0  0  0  0  0
  193.3520  174.0940  144.9250 C   0  0  0  0  0  0  0  0  0  0  0  0
  192.8550  173.0280  144.3340 C   0  0  0  0  0  0  0  0  0  0  0  0
  194.6960  176.2570  145.8390 N   0  0  0  0  0  0  0  0  0  0  0  0
  193.8160  172.6440  143.2470 C   0  0  0  0  0  3  0  0  0  0  0  0
  193.4890  175.9140  146.3870 C   0  0  0  0  0  3  0  0  0  0  0  0
  195.2480  175.5260  144.8220 C   0  0  0  0  0  0  0  0  0  0  0  0
  196.4750  175.8790  144.2560 O   0  0  0  0  0  0  0  0  0  0  0  0
  196.5610  176.7020  143.1040 C   0  0  0  0  0  1  0  0  0  0  0  0
  1  4  1  0  0  0  0
  2  6  2  0  0  0  0
  2  3  1  0  0  0  0
  3  4  2  0  0  0  0
  4 24  1  0  0  0  0
  5  8  1  0  0  0  0
  5  7  1  0  0  0  0
  7  1  1  0  0  0  0
  8  2  1  0  0  0  0
 10  6  1  0  0  0  0
 11 10  1  0  0  0  0
 11  9  2  0  0  0  0
 12 13  1  0  0  0  0
 12 11  1  0  0  0  0
 13 14  1  0  0  0  0
 14 16  1  0  0  0  0
 16 15  1  1  0  0  0
 16 17  1  0  0  0  0
 17 18  1  0  0  0  0
 18 19  1  0  0  0  0
 19 20  1  0  0  0  0
 22 23  1  0  0  0  0
 23 19  1  0  0  0  0
 23 21  1  0  0  0  0
 26 25  1  6  0  0  0
 26 33  1  0  0  0  0
 26 28  1  0  0  0  0
 27 32  2  0  0  0  0
 28 27  1  0  0  0  0
 29 24  1  0  0  0  0
 29 28  2  0  0  0  0
 30 32  1  0  0  0  0
 31 25  2  0  0  0  0
 31 29  1  0  0  0  0
 33 30  2  0  0  0  0
 34 33  1  0  0  0  0
 35 34  1  0  0  0  0
M  END
>  <MODEL>
7

>  <REMARK>
 VINA RESULT:      -6.4      2.070      4.314
  Name = 
  12 active torsions:
  status: ('A' for Active; 'I' for Inactive)
    1  A    between atoms: O_1  and  C_34
    2  A    between atoms: C_7  and  C_9
    3  A    between atoms: C_9  and  C_18
    4  A    between atoms: C_13  and  N_25
    5  A    between atoms: C_14  and  C_30
    6  A    between atoms: C_14  and  O_33
    7  A    between atoms: C_22  and  C_24
    8  A    between atoms: C_22  and  O_33
    9  A    between atoms: C_23  and  N_26
   10  A    between atoms: C_24  and  C_27
   11  A    between atoms: N_26  and  C_28
   12  A    between atoms: C_28  and  C_30
                            x       y       z     vdW  Elec       q    Type
                         _______ _______ _______ _____ _____    ______ ____

>  <TORSDO>
F 12

$$$$
=
 OpenBabel11062422003D

 35 37  0  0  1  0  0  0  0  0999 V2000
  191.0670  175.7130  143.8820 C   0  0  0  0  0  2  0  0  0  0  0  0
  189.1810  176.1150  146.2050 C   0  0  0  0  0  0  0  0  0  0  0  0
  189.9270  174.8730  145.9320 C   0  0  0  0  0  3  0  0  0  0  0  0
  190.8180  174.6940  144.9530 C   0  0  0  0  0  0  0  0  0  0  0  0
  190.3700  177.7720  144.7320 C   0  0  0  0  0  2  0  0  0  0  0  0
  187.9590  175.9970  146.7200 C   0  0  0  0  0  3  0  0  0  0  0  0
  191.5440  176.9590  144.4570 N   0  0  0  0  0  2  0  0  0  0  0  0
  189.8380  177.4660  146.1230 C   0  0  0  0  0  2  0  0  0  0  0  0
  185.1820  176.2890  146.2740 O   0  0  0  0  0  0  0  0  0  0  0  0
  187.1930  177.1350  147.1130 N   0  0  0  0  0  2  0  0  0  0  0  0
  185.7900  177.2230  146.8630 C   0  0  0  0  0  0  0  0  0  0  0  0
  185.0400  178.4410  147.2790 C   0  0  0  0  0  2  0  0  0  0  0  0
  184.9520  179.4370  146.1330 C   0  0  0  0  0  2  0  0  0  0  0  0
  183.9750  179.0330  145.2060 O   0  0  0  0  0  0  0  0  0  0  0  0
  185.5740  180.0980  143.8940 O   0  0  0  0  0  1  0  0  0  0  0  0
  184.4660  179.2430  143.8980 C   0  0  1  0  0  3  0  0  0  0  0  0
  184.7670  177.9340  143.1660 C   0  0  0  0  0  2  0  0  0  0  0  0
  185.1690  178.1970  141.7220 C   0  0  0  0  0  2  0  0  0  0  0  0
  186.1090  177.1800  141.2710 N   0  0  0  0  0  0  0  0  0  0  0  0
  186.5660  177.5560  140.0500 O   0  0  0  0  0  1  0  0  0  0  0  0
  188.3690  178.0830  141.8470 C   0  0  0  0  0  1  0  0  0  0  0  0
  187.7570  175.7160  142.3380 C   0  0  0  0  0  1  0  0  0  0  0  0
  187.2310  177.1340  142.2160 C   0  0  0  0  0  3  0  0  0  0  0  0
  191.5410  173.3930  144.8770 C   0  0  0  0  0  2  0  0  0  0  0  0
  189.6460  171.5360  142.1790 N   0  0  0  0  0  0  0  0  0  0  0  0
  190.8990  171.3730  141.9180 C   0  0  0  0  0  0  0  0  0  0  0  0
  193.0750  171.9420  142.6980 N   0  0  0  0  0  0  0  0  0  0  0  0
  191.7240  171.9680  142.8230 C   0  0  0  0  0  0  0  0  0  0  0  0
  191.0080  172.5570  143.7570 C   0  0  0  0  0  0  0  0  0  0  0  0
  192.8070  170.6650  140.7140 N   0  0  0  0  0  0  0  0  0  0  0  0
  189.5650  172.3440  143.4000 C   0  0  0  0  0  2  0  0  0  0  0  0
  193.6150  171.2810  141.6310 C   0  0  0  0  0  3  0  0  0  0  0  0
  191.4440  170.6940  140.8340 C   0  0  0  0  0  0  0  0  0  0  0  0
  190.6180  170.0740  139.8950 O   0  0  0  0  0  0  0  0  0  0  0  0
  190.7150  168.6870  139.6080 C   0  0  0  0  0  1  0  0  0  0  0  0
  1  7  1  0  0  0  0
  1  4  1  0  0  0  0
  2  6  2  0  0  0  0
  3  2  1  0  0  0  0
  4  3  2  0  0  0  0
  5  8  1  0  0  0  0
  6 10  1  0  0  0  0
  7  5  1  0  0  0  0
  8  2  1  0  0  0  0
  9 11  2  0  0  0  0
 11 10  1  0  0  0  0
 11 12  1  0  0  0  0
 13 12  1  0  0  0  0
 14 13  1  0  0  0  0
 16 15  1  1  0  0  0
 16 14  1  0  0  0  0
 17 16  1  0  0  0  0
 18 17  1  0  0  0  0
 19 18  1  0  0  0  0
 19 23  1  0  0  0  0
 20 19  1  0  0  0  0
 21 23  1  0  0  0  0
 23 22  1  0  0  0  0
 24  4  1  0  0  0  0
 25 31  1  0  0  0  0
 26 25  2  0  0  0  0
 26 28  1  0  0  0  0
 27 28  1  0  0  0  0
 28 29  2  0  0  0  0
 29 24  1  0  0  0  0
 30 33  2  0  0  0  0
 30 32  1  0  0  0  0
 31 29  1  0  0  0  0
 32 27  2  0  0  0  0
 33 26  1  0  0  0  0
 34 33  1  0  0  0  0
 35 34  1  0  0  0  0
M  END
>  <MODEL>
8

>  <REMARK>
 VINA RESULT:      -6.4      3.090      4.006
  Name = 
  12 active torsions:
  status: ('A' for Active; 'I' for Inactive)
    1  A    between atoms: O_1  and  C_34
    2  A    between atoms: C_7  and  C_9
    3  A    between atoms: C_9  and  C_18
    4  A    between atoms: C_13  and  N_25
    5  A    between atoms: C_14  and  C_30
    6  A    between atoms: C_14  and  O_33
    7  A    between atoms: C_22  and  C_24
    8  A    between atoms: C_22  and  O_33
    9  A    between atoms: C_23  and  N_26
   10  A    between atoms: C_24  and  C_27
   11  A    between atoms: N_26  and  C_28
   12  A    between atoms: C_28  and  C_30
                            x       y       z     vdW  Elec       q    Type
                         _______ _______ _______ _____ _____    ______ ____

>  <TORSDO>
F 12

$$$$
=
 OpenBabel11062422003D

 35 37  0  0  1  0  0  0  0  0999 V2000
  192.7370  176.2400  146.6340 C   0  0  0  0  0  2  0  0  0  0  0  0
  189.9070  175.8430  145.6560 C   0  0  0  0  0  0  0  0  0  0  0  0
  191.1050  175.8280  144.7950 C   0  0  0  0  0  3  0  0  0  0  0  0
  192.3710  175.9320  145.2130 C   0  0  0  0  0  0  0  0  0  0  0  0
  190.9120  175.6220  147.9520 C   0  0  0  0  0  2  0  0  0  0  0  0
  188.7910  176.3570  145.1450 C   0  0  0  0  0  3  0  0  0  0  0  0
  192.2410  175.2080  147.5290 N   0  0  0  0  0  2  0  0  0  0  0  0
  189.8700  175.1110  146.9700 C   0  0  0  0  0  2  0  0  0  0  0  0
  188.0590  178.2060  147.1550 O   0  0  0  0  0  0  0  0  0  0  0  0
  187.5540  176.3290  145.8560 N   0  0  0  0  0  2  0  0  0  0  0  0
  187.2390  177.2950  146.8600 C   0  0  0  0  0  0  0  0  0  0  0  0
  185.9410  177.2110  147.5850 C   0  0  0  0  0  2  0  0  0  0  0  0
  184.9820  178.2880  147.1010 C   0  0  0  0  0  2  0  0  0  0  0  0
  184.3830  177.9010  145.8880 O   0  0  0  0  0  0  0  0  0  0  0  0
  185.5540  179.7930  145.2090 O   0  0  0  0  0  1  0  0  0  0  0  0
  184.4340  178.9840  144.9830 C   0  0  1  0  0  3  0  0  0  0  0  0
  184.3560  178.5340  143.5230 C   0  0  0  0  0  2  0  0  0  0  0  0
  185.6940  178.7190  142.8230 C   0  0  0  0  0  2  0  0  0  0  0  0
  186.4980  177.5120  142.9540 N   0  0  0  0  0  0  0  0  0  0  0  0
  185.6500  176.4540  142.9840 O   0  0  0  0  0  1  0  0  0  0  0  0
  187.8000  175.9710  141.4770 C   0  0  0  0  0  1  0  0  0  0  0  0
  188.5880  178.2900  141.9410 C   0  0  0  0  0  1  0  0  0  0  0  0
  187.3680  177.4040  141.7770 C   0  0  0  0  0  3  0  0  0  0  0  0
  193.4640  175.8140  144.2070 C   0  0  0  0  0  2  0  0  0  0  0  0
  196.4210  173.9470  145.6520 N   0  0  0  0  0  0  0  0  0  0  0  0
  195.5410  173.0530  145.3530 C   0  0  2  0  0  3  0  0  0  0  0  0
  193.3560  172.7910  144.4470 N   0  0  0  0  0  0  0  0  0  0  0  0
  194.4120  173.5690  144.7930 C   0  0  0  0  0  0  0  0  0  0  0  0
  194.5250  174.8760  144.6890 C   0  0  0  0  0  0  0  0  0  0  0  0
  194.5720  170.9000  145.2110 N   0  0  0  0  0  0  0  0  0  0  0  0
  195.8570  175.2470  145.2720 C   0  0  0  0  0  3  0  0  0  0  0  0
  193.4440  171.4440  144.6600 C   0  0  0  0  0  3  0  0  0  0  0  0
  195.6380  171.6830  145.5670 C   0  0  0  0  0  0  0  0  0  0  0  0
  196.7860  171.1310  146.1380 O   0  0  0  0  0  0  0  0  0  0  0  0
  197.2760  169.8560  145.7560 C   0  0  0  0  0  1  0  0  0  0  0  0
  1  7  1  0  0  0  0
  2  8  1  0  0  0  0
  3  4  2  0  0  0  0
  3  2  1  0  0  0  0
  4  1  1  0  0  0  0
  6  2  2  0  0  0  0
  6 10  1  0  0  0  0
  7  5  1  0  0  0  0
  8  5  1  0  0  0  0
 10 11  1  0  0  0  0
 11  9  2  0  0  0  0
 11 12  1  0  0  0  0
 13 12  1  0  0  0  0
 14 13  1  0  0  0  0
 16 15  1  6  0  0  0
 16 14  1  0  0  0  0
 17 16  1  0  0  0  0
 18 19  1  0  0  0  0
 18 17  1  0  0  0  0
 19 20  1  0  0  0  0
 21 23  1  0  0  0  0
 23 22  1  0  0  0  0
 23 19  1  0  0  0  0
 24 29  1  0  0  0  0
 24  4  1  0  0  0  0
 26 28  1  1  0  0  0
 26 33  1  0  0  0  0
 26 25  1  0  0  0  0
 27 32  2  0  0  0  0
 27 28  1  0  0  0  0
 29 28  2  0  0  0  0
 29 31  1  0  0  0  0
 30 33  2  0  0  0  0
 31 25  2  0  0  0  0
 32 30  1  0  0  0  0
 33 34  1  0  0  0  0
 35 34  1  0  0  0  0
M  END
>  <MODEL>
9

>  <REMARK>
 VINA RESULT:      -6.3      1.857      2.678
  Name = 
  12 active torsions:
  status: ('A' for Active; 'I' for Inactive)
    1  A    between atoms: O_1  and  C_34
    2  A    between atoms: C_7  and  C_9
    3  A    between atoms: C_9  and  C_18
    4  A    between atoms: C_13  and  N_25
    5  A    between atoms: C_14  and  C_30
    6  A    between atoms: C_14  and  O_33
    7  A    between atoms: C_22  and  C_24
    8  A    between atoms: C_22  and  O_33
    9  A    between atoms: C_23  and  N_26
   10  A    between atoms: C_24  and  C_27
   11  A    between atoms: N_26  and  C_28
   12  A    between atoms: C_28  and  C_30
                            x       y       z     vdW  Elec       q    Type
                         _______ _______ _______ _____ _____    ______ ____

>  <TORSDO>
F 12

$$$$
