=
 OpenBabel11062419553D

 28 32  0  0  1  0  0  0  0  0999 V2000
  191.8990  174.2050  143.8780 C   0  0  0  0  0  0  0  0  0  0  0  0
  190.5150  174.8310  144.0700 C   0  0  0  0  0  0  0  0  0  0  0  0
  188.3890  174.6440  141.4560 O   0  0  0  0  0  1  0  0  0  0  0  0
  191.1200  172.4870  142.0160 C   0  0  0  0  0  2  0  0  0  0  0  0
  193.7920  172.5100  142.8280 Cl  0  0  0  0  0  0  0  0  0  0  0  0
  188.6530  173.7550  142.4970 C   0  0  2  0  0  3  0  0  0  0  0  0
  189.6790  174.2490  143.2730 C   0  0  0  0  0  0  0  0  0  0  0  0
  189.8820  173.1480  142.2850 N   0  0  0  0  0  0  0  0  0  0  0  0
  192.1610  173.1610  142.9670 C   0  0  0  0  0  0  0  0  0  0  0  0
  193.0470  174.7230  144.7090 C   0  0  1  0  0  3  0  0  0  0  0  0
  193.5070  176.0240  144.2560 N   0  0  0  0  0  0  0  0  0  0  0  0
  193.5630  177.0630  145.1970 N   0  0  0  0  0  2  0  0  0  0  0  0
  193.4980  176.4530  146.5190 C   0  0  0  0  0  2  0  0  0  0  0  0
  192.5690  174.8920  146.4410 S   0  0  0  0  0  0  0  0  0  0  0  0
  195.2490  176.0070  142.5940 C   0  0  0  0  0  2  0  0  0  0  0  0
  193.9780  176.2060  142.9160 C   0  0  0  0  0  3  0  0  0  0  0  0
  188.0330  176.9460  145.2800 C   0  0  0  0  0  0  0  0  0  0  0  0
  188.8210  175.7490  145.6640 C   0  0  0  0  0  2  0  0  0  0  0  0
  190.0770  177.2850  144.2250 C   0  0  0  0  0  2  0  0  0  0  0  0
  188.7040  177.7850  144.5020 C   0  0  0  0  0  3  0  0  0  0  0  0
  190.1730  175.9660  144.9900 C   0  0  2  0  0  3  0  0  0  0  0  0
  185.2620  180.1700  144.2330 C   0  0  0  0  0  1  0  0  0  0  0  0
  185.0110  177.7600  144.0530 N   0  0  0  0  0  2  0  0  0  0  0  0
  186.3080  178.6320  145.8740 C   0  0  2  0  0  3  0  0  0  0  0  0
  185.1020  178.8680  144.9910 C   0  0  1  0  0  3  0  0  0  0  0  0
  186.6190  177.1590  145.7360 C   0  0  1  0  0  3  0  0  0  0  0  0
  185.6270  176.6220  144.7210 C   0  0  0  0  0  2  0  0  0  0  0  0
  185.9640  178.9530  147.3150 C   0  0  0  0  0  1  0  0  0  0  0  0
  1  2  1  0  0  0  0
  4  8  1  0  0  0  0
  4  9  1  0  0  0  0
  5  9  1  0  0  0  0
  6  3  1  6  0  0  0
  6  7  1  0  0  0  0
  7  2  2  0  0  0  0
  8  6  1  0  0  0  0
  8  7  1  0  0  0  0
  9  1  2  0  0  0  0
 10  1  1  6  0  0  0
 10 14  1  0  0  0  0
 11 10  1  0  0  0  0
 11 12  1  0  0  0  0
 12 13  1  0  0  0  0
 14 13  1  0  0  0  0
 15 16  2  0  0  0  0
 16 11  1  0  0  0  0
 17 18  1  0  0  0  0
 19 20  1  0  0  0  0
 19 21  1  0  0  0  0
 20 17  2  0  0  0  0
 21  2  1  6  0  0  0
 21 18  1  0  0  0  0
 23 27  1  0  0  0  0
 23 25  1  0  0  0  0
 24 28  1  1  0  0  0
 25 22  1  6  0  0  0
 25 24  1  0  0  0  0
 26 17  1  6  0  0  0
 26 24  1  0  0  0  0
 27 26  1  0  0  0  0
M  END
>  <MODEL>
1

>  <REMARK>
 VINA RESULT:      -7.0      0.000      0.000
  Name = 
  4 active torsions:
  status: ('A' for Active; 'I' for Inactive)
    1  A    between atoms: C_1  and  C_2
    2  A    between atoms: N_3  and  C_26
    3  A    between atoms: C_5  and  C_28
    4  A    between atoms: C_11  and  C_13
                            x       y       z     vdW  Elec       q    Type
                         _______ _______ _______ _____ _____    ______ ____

>  <TORSDO>
F 4

$$$$
=
 OpenBabel11062419553D

 28 32  0  0  1  0  0  0  0  0999 V2000
  191.5970  175.2720  144.4640 C   0  0  0  0  0  0  0  0  0  0  0  0
  190.2130  175.5360  143.8640 C   0  0  0  0  0  0  0  0  0  0  0  0
  189.0490  173.2460  141.6750 O   0  0  0  0  0  1  0  0  0  0  0  0
  191.4940  172.6440  144.1410 C   0  0  0  0  0  2  0  0  0  0  0  0
  193.7600  173.7950  145.2990 Cl  0  0  0  0  0  0  0  0  0  0  0  0
  188.9800  173.3120  143.0660 C   0  0  2  0  0  3  0  0  0  0  0  0
  189.6900  174.4060  143.5080 C   0  0  0  0  0  0  0  0  0  0  0  0
  190.2230  173.0150  143.6050 N   0  0  0  0  0  0  0  0  0  0  0  0
  192.1590  173.9850  144.5890 C   0  0  0  0  0  0  0  0  0  0  0  0
  192.4040  176.4480  144.9560 C   0  0  1  0  0  3  0  0  0  0  0  0
  192.5640  176.4360  146.4000 N   0  0  0  0  0  0  0  0  0  0  0  0
  193.8670  176.5030  146.9160 N   0  0  0  0  0  2  0  0  0  0  0  0
  194.7350  176.9600  145.8380 C   0  0  0  0  0  2  0  0  0  0  0  0
  194.0570  176.4490  144.2300 S   0  0  0  0  0  0  0  0  0  0  0  0
  191.1220  175.4240  148.0420 C   0  0  0  0  0  2  0  0  0  0  0  0
  191.4200  176.4540  147.2610 C   0  0  0  0  0  3  0  0  0  0  0  0
  187.2530  177.3610  143.8080 C   0  0  0  0  0  0  0  0  0  0  0  0
  188.4380  177.1050  144.6630 C   0  0  0  0  0  2  0  0  0  0  0  0
  188.9570  176.9930  142.2710 C   0  0  0  0  0  2  0  0  0  0  0  0
  187.5240  177.3040  142.5110 C   0  0  0  0  0  3  0  0  0  0  0  0
  189.5700  176.8770  143.6660 C   0  0  2  0  0  3  0  0  0  0  0  0
  186.2120  179.5050  147.4820 C   0  0  0  0  0  1  0  0  0  0  0  0
  185.5030  179.8780  145.1880 N   0  0  0  0  0  2  0  0  0  0  0  0
  185.9250  177.6220  145.8910 C   0  0  2  0  0  3  0  0  0  0  0  0
  185.3950  178.9730  146.3220 C   0  0  1  0  0  3  0  0  0  0  0  0
  185.8950  177.6480  144.3800 C   0  0  1  0  0  3  0  0  0  0  0  0
  185.4210  179.0390  144.0010 C   0  0  0  0  0  2  0  0  0  0  0  0
  185.0170  176.5230  146.4060 C   0  0  0  0  0  1  0  0  0  0  0  0
  1  9  2  0  0  0  0
  2  1  1  0  0  0  0
  4  9  1  0  0  0  0
  6  3  1  6  0  0  0
  6  7  1  0  0  0  0
  6  8  1  0  0  0  0
  7  8  1  0  0  0  0
  7  2  2  0  0  0  0
  8  4  1  0  0  0  0
  9  5  1  0  0  0  0
 10  1  1  6  0  0  0
 10 11  1  0  0  0  0
 11 12  1  0  0  0  0
 11 16  1  0  0  0  0
 13 12  1  0  0  0  0
 14 10  1  0  0  0  0
 14 13  1  0  0  0  0
 16 15  2  0  0  0  0
 17 18  1  0  0  0  0
 19 20  1  0  0  0  0
 19 21  1  0  0  0  0
 20 17  2  0  0  0  0
 21  2  1  1  0  0  0
 21 18  1  0  0  0  0
 23 25  1  0  0  0  0
 24 25  1  0  0  0  0
 24 28  1  1  0  0  0
 25 22  1  1  0  0  0
 26 17  1  6  0  0  0
 26 24  1  0  0  0  0
 27 26  1  0  0  0  0
 27 23  1  0  0  0  0
M  END
>  <MODEL>
2

>  <REMARK>
 VINA RESULT:      -6.9      1.707      2.514
  Name = 
  4 active torsions:
  status: ('A' for Active; 'I' for Inactive)
    1  A    between atoms: C_1  and  C_2
    2  A    between atoms: N_3  and  C_26
    3  A    between atoms: C_5  and  C_28
    4  A    between atoms: C_11  and  C_13
                            x       y       z     vdW  Elec       q    Type
                         _______ _______ _______ _____ _____    ______ ____

>  <TORSDO>
F 4

$$$$
=
 OpenBabel11062419553D

 28 32  0  0  1  0  0  0  0  0999 V2000
  187.2220  176.6850  144.9490 C   0  0  0  0  0  0  0  0  0  0  0  0
  188.7350  176.5350  144.7640 C   0  0  0  0  0  0  0  0  0  0  0  0
  190.6680  177.2800  147.4280 O   0  0  0  0  0  1  0  0  0  0  0  0
  187.2720  176.3450  147.5760 C   0  0  0  0  0  2  0  0  0  0  0  0
  184.8280  176.7810  146.2970 Cl  0  0  0  0  0  0  0  0  0  0  0  0
  190.0280  176.1000  147.0530 C   0  0  2  0  0  3  0  0  0  0  0  0
  189.2770  176.3250  145.9200 C   0  0  0  0  0  0  0  0  0  0  0  0
  188.6650  176.2220  147.2780 N   0  0  0  0  0  0  0  0  0  0  0  0
  186.5770  176.5960  146.1990 C   0  0  0  0  0  0  0  0  0  0  0  0
  186.3690  176.9360  143.7300 C   0  0  1  0  0  3  0  0  0  0  0  0
  186.4630  178.3100  143.2690 N   0  0  0  0  0  0  0  0  0  0  0  0
  186.8180  178.5290  141.9300 N   0  0  0  0  0  2  0  0  0  0  0  0
  186.6290  177.2690  141.2210 C   0  0  0  0  0  2  0  0  0  0  0  0
  186.8660  175.8710  142.3590 S   0  0  0  0  0  0  0  0  0  0  0  0
  184.8420  179.7380  144.3340 C   0  0  0  0  0  2  0  0  0  0  0  0
  186.1080  179.3950  144.1330 C   0  0  0  0  0  3  0  0  0  0  0  0
  191.8420  176.5360  143.2020 C   0  0  0  0  0  0  0  0  0  0  0  0
  190.6550  175.6720  143.4150 C   0  0  0  0  0  2  0  0  0  0  0  0
  190.0840  178.0540  143.3120 C   0  0  0  0  0  2  0  0  0  0  0  0
  191.5440  177.8270  143.1440 C   0  0  0  0  0  3  0  0  0  0  0  0
  189.4890  176.6550  143.4730 C   0  0  2  0  0  3  0  0  0  0  0  0
  193.7590  173.3680  145.5380 C   0  0  0  0  0  1  0  0  0  0  0  0
  193.4530  173.5870  143.1370 N   0  0  0  0  0  2  0  0  0  0  0  0
  193.7840  175.5850  144.4250 C   0  0  2  0  0  3  0  0  0  0  0  0
  194.1610  174.1260  144.2890 C   0  0  1  0  0  3  0  0  0  0  0  0
  193.2300  175.9790  143.0750 C   0  0  1  0  0  3  0  0  0  0  0  0
  193.2400  174.7120  142.2390 C   0  0  0  0  0  2  0  0  0  0  0  0
  195.0170  176.4100  144.7370 C   0  0  0  0  0  1  0  0  0  0  0  0
  1  9  2  0  0  0  0
  2  1  1  0  0  0  0
  2  7  2  0  0  0  0
  6  8  1  0  0  0  0
  6  3  1  1  0  0  0
  7  6  1  0  0  0  0
  7  8  1  0  0  0  0
  8  4  1  0  0  0  0
  9  5  1  0  0  0  0
  9  4  1  0  0  0  0
 10  1  1  1  0  0  0
 11 10  1  0  0  0  0
 11 16  1  0  0  0  0
 12 11  1  0  0  0  0
 13 12  1  0  0  0  0
 13 14  1  0  0  0  0
 14 10  1  0  0  0  0
 16 15  2  0  0  0  0
 17 18  1  0  0  0  0
 18 21  1  0  0  0  0
 19 21  1  0  0  0  0
 20 17  2  0  0  0  0
 20 19  1  0  0  0  0
 21  2  1  1  0  0  0
 23 25  1  0  0  0  0
 24 28  1  6  0  0  0
 25 24  1  0  0  0  0
 25 22  1  1  0  0  0
 26 17  1  1  0  0  0
 26 24  1  0  0  0  0
 27 26  1  0  0  0  0
 27 23  1  0  0  0  0
M  END
>  <MODEL>
3

>  <REMARK>
 VINA RESULT:      -6.8      3.334      7.349
  Name = 
  4 active torsions:
  status: ('A' for Active; 'I' for Inactive)
    1  A    between atoms: C_1  and  C_2
    2  A    between atoms: N_3  and  C_26
    3  A    between atoms: C_5  and  C_28
    4  A    between atoms: C_11  and  C_13
                            x       y       z     vdW  Elec       q    Type
                         _______ _______ _______ _____ _____    ______ ____

>  <TORSDO>
F 4

$$$$
=
 OpenBabel11062419553D

 28 32  0  0  1  0  0  0  0  0999 V2000
  187.3940  177.4770  144.8480 C   0  0  0  0  0  0  0  0  0  0  0  0
  188.8820  177.1290  144.7460 C   0  0  0  0  0  0  0  0  0  0  0  0
  190.5540  176.7640  147.6540 O   0  0  0  0  0  1  0  0  0  0  0  0
  187.0690  176.4160  147.2540 C   0  0  0  0  0  2  0  0  0  0  0  0
  184.8880  177.5980  145.9720 Cl  0  0  0  0  0  0  0  0  0  0  0  0
  189.8070  175.8610  146.9000 C   0  0  2  0  0  3  0  0  0  0  0  0
  189.2420  176.5170  145.8280 C   0  0  0  0  0  0  0  0  0  0  0  0
  188.4570  176.1460  147.0430 N   0  0  0  0  0  0  0  0  0  0  0  0
  186.5920  177.1540  145.9620 C   0  0  0  0  0  0  0  0  0  0  0  0
  186.7420  178.1980  143.6930 C   0  0  1  0  0  3  0  0  0  0  0  0
  186.0180  177.2900  142.8200 N   0  0  0  0  0  0  0  0  0  0  0  0
  184.6690  177.5710  142.5570 N   0  0  0  0  0  2  0  0  0  0  0  0
  184.4330  178.9570  142.9420 C   0  0  0  0  0  2  0  0  0  0  0  0
  185.5660  179.4350  144.2820 S   0  0  0  0  0  0  0  0  0  0  0  0
  187.4280  176.3900  141.0870 C   0  0  0  0  0  2  0  0  0  0  0  0
  186.6920  176.2040  142.1760 C   0  0  0  0  0  3  0  0  0  0  0  0
  191.9830  176.6170  143.2580 C   0  0  0  0  0  0  0  0  0  0  0  0
  190.5540  176.2450  143.1110 C   0  0  0  0  0  2  0  0  0  0  0  0
  190.8550  178.4910  144.0470 C   0  0  0  0  0  2  0  0  0  0  0  0
  192.1570  177.8320  143.7620 C   0  0  0  0  0  3  0  0  0  0  0  0
  189.8000  177.4740  143.6110 C   0  0  2  0  0  3  0  0  0  0  0  0
  195.1630  174.9490  145.7620 C   0  0  0  0  0  1  0  0  0  0  0  0
  193.5350  173.8390  144.3400 N   0  0  0  0  0  2  0  0  0  0  0  0
  194.3530  175.9920  143.6620 C   0  0  2  0  0  3  0  0  0  0  0  0
  194.7170  174.6880  144.3370 C   0  0  1  0  0  3  0  0  0  0  0  0
  193.1000  175.6920  142.8710 C   0  0  1  0  0  3  0  0  0  0  0  0
  192.7510  174.2480  143.1840 C   0  0  0  0  0  2  0  0  0  0  0  0
  195.4650  176.4160  142.7230 C   0  0  0  0  0  1  0  0  0  0  0  0
  1  9  2  0  0  0  0
  2  1  1  0  0  0  0
  2  7  2  0  0  0  0
  6  8  1  0  0  0  0
  6  3  1  1  0  0  0
  7  6  1  0  0  0  0
  7  8  1  0  0  0  0
  8  4  1  0  0  0  0
  9  5  1  0  0  0  0
  9  4  1  0  0  0  0
 10 14  1  0  0  0  0
 10  1  1  1  0  0  0
 11 10  1  0  0  0  0
 12 11  1  0  0  0  0
 12 13  1  0  0  0  0
 13 14  1  0  0  0  0
 15 16  2  0  0  0  0
 16 11  1  0  0  0  0
 17 20  2  0  0  0  0
 18 17  1  0  0  0  0
 18 21  1  0  0  0  0
 20 19  1  0  0  0  0
 21 19  1  0  0  0  0
 21  2  1  1  0  0  0
 24 28  1  6  0  0  0
 24 25  1  0  0  0  0
 25 23  1  0  0  0  0
 25 22  1  1  0  0  0
 26 27  1  0  0  0  0
 26 17  1  1  0  0  0
 26 24  1  0  0  0  0
 27 23  1  0  0  0  0
M  END
>  <MODEL>
4

>  <REMARK>
 VINA RESULT:      -6.6      3.452      7.466
  Name = 
  4 active torsions:
  status: ('A' for Active; 'I' for Inactive)
    1  A    between atoms: C_1  and  C_2
    2  A    between atoms: N_3  and  C_26
    3  A    between atoms: C_5  and  C_28
    4  A    between atoms: C_11  and  C_13
                            x       y       z     vdW  Elec       q    Type
                         _______ _______ _______ _____ _____    ______ ____

>  <TORSDO>
F 4

$$$$
=
 OpenBabel11062419553D

 28 32  0  0  1  0  0  0  0  0999 V2000
  191.2760  175.5420  143.5910 C   0  0  0  0  0  0  0  0  0  0  0  0
  190.5960  175.6100  144.9620 C   0  0  0  0  0  0  0  0  0  0  0  0
  192.6240  175.8380  147.6490 O   0  0  0  0  0  1  0  0  0  0  0  0
  193.4860  176.7830  144.3640 C   0  0  0  0  0  2  0  0  0  0  0  0
  193.2440  175.9390  141.7130 Cl  0  0  0  0  0  0  0  0  0  0  0  0
  192.0920  176.8150  146.8100 C   0  0  2  0  0  3  0  0  0  0  0  0
  191.3890  176.2090  145.7910 C   0  0  0  0  0  0  0  0  0  0  0  0
  192.7510  176.7860  145.5900 N   0  0  0  0  0  0  0  0  0  0  0  0
  192.5570  176.0690  143.3300 C   0  0  0  0  0  0  0  0  0  0  0  0
  190.5360  174.8840  142.4520 C   0  0  1  0  0  3  0  0  0  0  0  0
  190.1730  173.5110  142.7570 N   0  0  0  0  0  0  0  0  0  0  0  0
  188.8240  173.1460  142.6270 N   0  0  0  0  0  2  0  0  0  0  0  0
  188.1720  174.1790  141.8310 C   0  0  0  0  0  2  0  0  0  0  0  0
  189.0140  175.7730  142.0670 S   0  0  0  0  0  0  0  0  0  0  0  0
  191.2060  171.9450  144.2660 C   0  0  0  0  0  2  0  0  0  0  0  0
  191.1770  172.5450  143.0830 C   0  0  0  0  0  3  0  0  0  0  0  0
  187.6310  176.0400  146.7280 C   0  0  0  0  0  0  0  0  0  0  0  0
  188.1810  176.1220  145.3520 C   0  0  0  0  0  2  0  0  0  0  0  0
  189.2810  174.4020  146.7070 C   0  0  0  0  0  2  0  0  0  0  0  0
  188.2190  175.1110  147.4690 C   0  0  0  0  0  3  0  0  0  0  0  0
  189.2550  175.0400  145.3190 C   0  0  2  0  0  3  0  0  0  0  0  0
  185.9110  179.5690  144.7910 C   0  0  0  0  0  1  0  0  0  0  0  0
  184.8430  177.5430  145.6020 N   0  0  0  0  0  2  0  0  0  0  0  0
  186.7620  178.3660  146.7870 C   0  0  2  0  0  3  0  0  0  0  0  0
  185.5230  178.7620  146.0130 C   0  0  1  0  0  3  0  0  0  0  0  0
  186.5250  176.9340  147.2080 C   0  0  1  0  0  3  0  0  0  0  0  0
  185.1940  176.5390  146.5960 C   0  0  0  0  0  2  0  0  0  0  0  0
  186.9100  179.2460  148.0120 C   0  0  0  0  0  1  0  0  0  0  0  0
  1  2  1  0  0  0  0
  2  7  2  0  0  0  0
  4  8  1  0  0  0  0
  5  9  1  0  0  0  0
  6  3  1  1  0  0  0
  7  6  1  0  0  0  0
  8  7  1  0  0  0  0
  8  6  1  0  0  0  0
  9  1  2  0  0  0  0
  9  4  1  0  0  0  0
 10 11  1  0  0  0  0
 10  1  1  1  0  0  0
 11 16  1  0  0  0  0
 12 11  1  0  0  0  0
 13 14  1  0  0  0  0
 13 12  1  0  0  0  0
 14 10  1  0  0  0  0
 16 15  2  0  0  0  0
 17 20  2  0  0  0  0
 18 17  1  0  0  0  0
 19 20  1  0  0  0  0
 21  2  1  1  0  0  0
 21 18  1  0  0  0  0
 21 19  1  0  0  0  0
 23 25  1  0  0  0  0
 23 27  1  0  0  0  0
 24 26  1  0  0  0  0
 24 28  1  1  0  0  0
 25 22  1  6  0  0  0
 25 24  1  0  0  0  0
 26 17  1  6  0  0  0
 27 26  1  0  0  0  0
M  END
>  <MODEL>
5

>  <REMARK>
 VINA RESULT:      -6.5      2.341      4.092
  Name = 
  4 active torsions:
  status: ('A' for Active; 'I' for Inactive)
    1  A    between atoms: C_1  and  C_2
    2  A    between atoms: N_3  and  C_26
    3  A    between atoms: C_5  and  C_28
    4  A    between atoms: C_11  and  C_13
                            x       y       z     vdW  Elec       q    Type
                         _______ _______ _______ _____ _____    ______ ____

>  <TORSDO>
F 4

$$$$
=
 OpenBabel11062419553D

 28 32  0  0  1  0  0  0  0  0999 V2000
  188.3880  176.6930  143.3220 C   0  0  0  0  0  0  0  0  0  0  0  0
  189.2000  175.3970  143.2350 C   0  0  0  0  0  0  0  0  0  0  0  0
  188.1190  173.0750  141.0380 O   0  0  0  0  0  1  0  0  0  0  0  0
  187.4170  176.5250  140.8620 C   0  0  0  0  0  2  0  0  0  0  0  0
  186.7090  178.6960  142.4700 Cl  0  0  0  0  0  0  0  0  0  0  0  0
  188.9630  174.1720  140.8800 C   0  0  2  0  0  3  0  0  0  0  0  0
  189.0280  174.8750  142.0630 C   0  0  0  0  0  0  0  0  0  0  0  0
  188.2140  175.3390  140.9010 N   0  0  0  0  0  0  0  0  0  0  0  0
  187.6020  177.1910  142.2640 C   0  0  0  0  0  0  0  0  0  0  0  0
  188.4340  177.4870  144.6040 C   0  0  1  0  0  3  0  0  0  0  0  0
  187.7340  176.8180  145.6870 N   0  0  0  0  0  0  0  0  0  0  0  0
  188.4370  176.5940  146.8810 N   0  0  0  0  0  2  0  0  0  0  0  0
  189.6120  177.4550  146.8580 C   0  0  0  0  0  2  0  0  0  0  0  0
  190.1360  177.7520  145.1430 S   0  0  0  0  0  0  0  0  0  0  0  0
  185.4110  177.1740  146.2120 C   0  0  0  0  0  2  0  0  0  0  0  0
  186.3460  176.4890  145.5660 C   0  0  0  0  0  3  0  0  0  0  0  0
  191.7970  173.2360  144.0610 C   0  0  0  0  0  0  0  0  0  0  0  0
  191.4940  174.6820  143.9270 C   0  0  0  0  0  2  0  0  0  0  0  0
  189.5530  173.3740  144.6550 C   0  0  0  0  0  2  0  0  0  0  0  0
  190.7530  172.5190  144.4560 C   0  0  0  0  0  3  0  0  0  0  0  0
  190.0260  174.7900  144.3300 C   0  0  2  0  0  3  0  0  0  0  0  0
  195.6810  174.3970  145.7140 C   0  0  0  0  0  1  0  0  0  0  0  0
  194.5830  172.2310  145.6510 N   0  0  0  0  0  2  0  0  0  0  0  0
  194.2170  173.7410  143.8220 C   0  0  2  0  0  3  0  0  0  0  0  0
  195.2270  173.2490  144.8360 C   0  0  1  0  0  3  0  0  0  0  0  0
  193.1550  172.6670  143.7670 C   0  0  1  0  0  3  0  0  0  0  0  0
  193.5560  171.6370  144.8070 C   0  0  0  0  0  2  0  0  0  0  0  0
  194.8760  173.8840  142.4640 C   0  0  0  0  0  1  0  0  0  0  0  0
  2  1  1  0  0  0  0
  4  8  1  0  0  0  0
  4  9  1  0  0  0  0
  6  8  1  0  0  0  0
  6  3  1  1  0  0  0
  6  7  1  0  0  0  0
  7  2  2  0  0  0  0
  8  7  1  0  0  0  0
  9  5  1  0  0  0  0
  9  1  2  0  0  0  0
 10  1  1  6  0  0  0
 10 14  1  0  0  0  0
 10 11  1  0  0  0  0
 11 12  1  0  0  0  0
 13 12  1  0  0  0  0
 14 13  1  0  0  0  0
 16 11  1  0  0  0  0
 16 15  2  0  0  0  0
 17 20  2  0  0  0  0
 18 17  1  0  0  0  0
 18 21  1  0  0  0  0
 20 19  1  0  0  0  0
 21  2  1  6  0  0  0
 21 19  1  0  0  0  0
 24 28  1  6  0  0  0
 24 25  1  0  0  0  0
 25 23  1  0  0  0  0
 25 22  1  1  0  0  0
 26 24  1  0  0  0  0
 26 17  1  1  0  0  0
 26 27  1  0  0  0  0
 27 23  1  0  0  0  0
M  END
>  <MODEL>
6

>  <REMARK>
 VINA RESULT:      -6.4      2.939      6.985
  Name = 
  4 active torsions:
  status: ('A' for Active; 'I' for Inactive)
    1  A    between atoms: C_1  and  C_2
    2  A    between atoms: N_3  and  C_26
    3  A    between atoms: C_5  and  C_28
    4  A    between atoms: C_11  and  C_13
                            x       y       z     vdW  Elec       q    Type
                         _______ _______ _______ _____ _____    ______ ____

>  <TORSDO>
F 4

$$$$
=
 OpenBabel11062419553D

 28 32  0  0  1  0  0  0  0  0999 V2000
  192.7150  173.8310  143.0330 C   0  0  0  0  0  0  0  0  0  0  0  0
  191.8680  174.7490  143.9190 C   0  0  0  0  0  0  0  0  0  0  0  0
  193.3740  176.0270  146.6550 O   0  0  0  0  0  1  0  0  0  0  0  0
  195.0370  174.8740  143.7690 C   0  0  0  0  0  2  0  0  0  0  0  0
  194.9990  172.7900  141.9100 Cl  0  0  0  0  0  0  0  0  0  0  0  0
  193.3280  176.4710  145.3350 C   0  0  2  0  0  3  0  0  0  0  0  0
  192.6550  175.5480  144.5640 C   0  0  0  0  0  0  0  0  0  0  0  0
  194.1430  175.6700  144.5490 N   0  0  0  0  0  0  0  0  0  0  0  0
  194.1220  173.8930  142.9670 C   0  0  0  0  0  0  0  0  0  0  0  0
  192.0120  172.8060  142.1780 C   0  0  1  0  0  3  0  0  0  0  0  0
  191.3430  171.7940  142.9750 N   0  0  0  0  0  0  0  0  0  0  0  0
  189.9770  171.5730  142.7420 N   0  0  0  0  0  2  0  0  0  0  0  0
  189.6550  172.1780  141.4550 C   0  0  0  0  0  2  0  0  0  0  0  0
  190.7630  173.5820  141.1300 S   0  0  0  0  0  0  0  0  0  0  0  0
  192.6060  169.8210  143.5340 C   0  0  0  0  0  2  0  0  0  0  0  0
  192.0810  170.9840  143.8970 C   0  0  0  0  0  3  0  0  0  0  0  0
  189.0350  176.3020  145.2070 C   0  0  0  0  0  0  0  0  0  0  0  0
  189.7680  176.1060  143.9320 C   0  0  0  0  0  2  0  0  0  0  0  0
  189.9710  174.1870  145.4430 C   0  0  0  0  0  2  0  0  0  0  0  0
  189.1380  175.2680  146.0320 C   0  0  0  0  0  3  0  0  0  0  0  0
  190.3760  174.7130  144.0660 C   0  0  2  0  0  3  0  0  0  0  0  0
  184.8300  176.7460  146.3440 C   0  0  0  0  0  1  0  0  0  0  0  0
  186.8500  177.5230  147.4510 N   0  0  0  0  0  2  0  0  0  0  0  0
  186.8320  177.4390  145.0520 C   0  0  2  0  0  3  0  0  0  0  0  0
  185.9990  177.7100  146.2850 C   0  0  1  0  0  3  0  0  0  0  0  0
  188.2680  177.5560  145.5100 C   0  0  1  0  0  3  0  0  0  0  0  0
  188.2040  177.8150  147.0040 C   0  0  0  0  0  2  0  0  0  0  0  0
  186.5420  178.4830  143.9920 C   0  0  0  0  0  1  0  0  0  0  0  0
  1  2  1  0  0  0  0
  2  7  2  0  0  0  0
  4  8  1  0  0  0  0
  5  9  1  0  0  0  0
  6  3  1  1  0  0  0
  7  6  1  0  0  0  0
  8  7  1  0  0  0  0
  8  6  1  0  0  0  0
  9  1  2  0  0  0  0
  9  4  1  0  0  0  0
 10 11  1  0  0  0  0
 10  1  1  1  0  0  0
 11 16  1  0  0  0  0
 12 11  1  0  0  0  0
 13 12  1  0  0  0  0
 14 13  1  0  0  0  0
 14 10  1  0  0  0  0
 15 16  2  0  0  0  0
 17 20  2  0  0  0  0
 18 21  1  0  0  0  0
 18 17  1  0  0  0  0
 19 20  1  0  0  0  0
 21  2  1  1  0  0  0
 21 19  1  0  0  0  0
 24 28  1  6  0  0  0
 24 26  1  0  0  0  0
 24 25  1  0  0  0  0
 25 22  1  1  0  0  0
 25 23  1  0  0  0  0
 26 17  1  1  0  0  0
 26 27  1  0  0  0  0
 27 23  1  0  0  0  0
M  END
>  <MODEL>
7

>  <REMARK>
 VINA RESULT:      -6.2      2.393      4.287
  Name = 
  4 active torsions:
  status: ('A' for Active; 'I' for Inactive)
    1  A    between atoms: C_1  and  C_2
    2  A    between atoms: N_3  and  C_26
    3  A    between atoms: C_5  and  C_28
    4  A    between atoms: C_11  and  C_13
                            x       y       z     vdW  Elec       q    Type
                         _______ _______ _______ _____ _____    ______ ____

>  <TORSDO>
F 4

$$$$
=
 OpenBabel11062419553D

 28 32  0  0  1  0  0  0  0  0999 V2000
  190.5000  174.8590  142.7920 C   0  0  0  0  0  0  0  0  0  0  0  0
  189.2570  175.3950  142.0750 C   0  0  0  0  0  0  0  0  0  0  0  0
  188.6860  174.2330  138.9590 O   0  0  0  0  0  1  0  0  0  0  0  0
  190.6010  172.5930  141.4230 C   0  0  0  0  0  2  0  0  0  0  0  0
  192.5180  173.0910  143.3910 Cl  0  0  0  0  0  0  0  0  0  0  0  0
  188.3300  173.7330  140.2100 C   0  0  2  0  0  3  0  0  0  0  0  0
  188.8770  174.5270  141.1940 C   0  0  0  0  0  0  0  0  0  0  0  0
  189.4490  173.1970  140.8300 N   0  0  0  0  0  0  0  0  0  0  0  0
  191.0900  173.6120  142.5020 C   0  0  0  0  0  0  0  0  0  0  0  0
  191.1280  175.7040  143.8740 C   0  0  1  0  0  3  0  0  0  0  0  0
  191.1170  175.0370  145.1640 N   0  0  0  0  0  0  0  0  0  0  0  0
  192.3380  174.9010  145.8420 N   0  0  0  0  0  2  0  0  0  0  0  0
  193.2790  175.8290  145.2260 C   0  0  0  0  0  2  0  0  0  0  0  0
  192.8470  176.0900  143.4800 S   0  0  0  0  0  0  0  0  0  0  0  0
  189.5090  175.0600  146.9570 C   0  0  0  0  0  2  0  0  0  0  0  0
  189.8840  174.6230  145.7610 C   0  0  0  0  0  3  0  0  0  0  0  0
  186.4020  177.0850  143.1180 C   0  0  0  0  0  0  0  0  0  0  0  0
  187.7630  176.7170  143.5820 C   0  0  0  0  0  2  0  0  0  0  0  0
  187.6550  177.0780  141.1600 C   0  0  0  0  0  2  0  0  0  0  0  0
  186.3330  177.2840  141.8080 C   0  0  0  0  0  3  0  0  0  0  0  0
  188.6010  176.7240  142.3070 C   0  0  2  0  0  3  0  0  0  0  0  0
  186.0290  179.5280  146.7320 C   0  0  0  0  0  1  0  0  0  0  0  0
  184.6270  179.4270  144.7500 N   0  0  0  0  0  2  0  0  0  0  0  0
  185.7060  177.4110  145.4800 C   0  0  2  0  0  3  0  0  0  0  0  0
  185.0460  178.6950  145.9350 C   0  0  1  0  0  3  0  0  0  0  0  0
  185.2370  177.2080  144.0570 C   0  0  1  0  0  3  0  0  0  0  0  0
  184.3890  178.4220  143.7250 C   0  0  0  0  0  2  0  0  0  0  0  0
  185.2410  176.2560  146.3450 C   0  0  0  0  0  1  0  0  0  0  0  0
  2  1  1  0  0  0  0
  4  9  1  0  0  0  0
  6  3  1  6  0  0  0
  6  8  1  0  0  0  0
  6  7  1  0  0  0  0
  7  2  2  0  0  0  0
  8  7  1  0  0  0  0
  8  4  1  0  0  0  0
  9  1  2  0  0  0  0
  9  5  1  0  0  0  0
 10  1  1  6  0  0  0
 10 11  1  0  0  0  0
 11 16  1  0  0  0  0
 11 12  1  0  0  0  0
 13 12  1  0  0  0  0
 14 10  1  0  0  0  0
 14 13  1  0  0  0  0
 16 15  2  0  0  0  0
 17 18  1  0  0  0  0
 19 20  1  0  0  0  0
 19 21  1  0  0  0  0
 20 17  2  0  0  0  0
 21  2  1  6  0  0  0
 21 18  1  0  0  0  0
 23 25  1  0  0  0  0
 24 25  1  0  0  0  0
 24 28  1  1  0  0  0
 25 22  1  6  0  0  0
 26 17  1  6  0  0  0
 26 24  1  0  0  0  0
 27 26  1  0  0  0  0
 27 23  1  0  0  0  0
M  END
>  <MODEL>
8

>  <REMARK>
 VINA RESULT:      -6.1      1.912      2.869
  Name = 
  4 active torsions:
  status: ('A' for Active; 'I' for Inactive)
    1  A    between atoms: C_1  and  C_2
    2  A    between atoms: N_3  and  C_26
    3  A    between atoms: C_5  and  C_28
    4  A    between atoms: C_11  and  C_13
                            x       y       z     vdW  Elec       q    Type
                         _______ _______ _______ _____ _____    ______ ____

>  <TORSDO>
F 4

$$$$
=
 OpenBabel11062419553D

 28 32  0  0  1  0  0  0  0  0999 V2000
  194.5500  173.6510  145.2100 C   0  0  0  0  0  0  0  0  0  0  0  0
  193.1400  173.7670  144.6240 C   0  0  0  0  0  0  0  0  0  0  0  0
  192.0690  171.1890  142.7280 O   0  0  0  0  0  1  0  0  0  0  0  0
  194.6000  171.0020  145.1750 C   0  0  0  0  0  2  0  0  0  0  0  0
  196.8160  172.4010  146.1370 Cl  0  0  0  0  0  0  0  0  0  0  0  0
  192.0270  171.4020  144.1050 C   0  0  2  0  0  3  0  0  0  0  0  0
  192.6790  172.5780  144.4070 C   0  0  0  0  0  0  0  0  0  0  0  0
  193.2970  171.2380  144.6370 N   0  0  0  0  0  0  0  0  0  0  0  0
  195.1920  172.4200  145.4570 C   0  0  0  0  0  0  0  0  0  0  0  0
  195.2960  174.9180  145.5500 C   0  0  1  0  0  3  0  0  0  0  0  0
  195.7270  175.6340  144.3630 N   0  0  0  0  0  0  0  0  0  0  0  0
  195.3540  176.9810  144.2380 N   0  0  0  0  0  2  0  0  0  0  0  0
  194.9300  177.4350  145.5570 C   0  0  0  0  0  2  0  0  0  0  0  0
  194.2610  176.0410  146.5130 S   0  0  0  0  0  0  0  0  0  0  0  0
  197.8960  174.9160  143.6010 C   0  0  0  0  0  2  0  0  0  0  0  0
  196.5870  175.0080  143.4050 C   0  0  0  0  0  3  0  0  0  0  0  0
  190.1510  175.2320  143.6150 C   0  0  0  0  0  0  0  0  0  0  0  0
  190.9800  175.0100  144.8250 C   0  0  0  0  0  2  0  0  0  0  0  0
  192.3260  175.2550  142.7910 C   0  0  0  0  0  2  0  0  0  0  0  0
  190.8700  175.3670  142.5080 C   0  0  0  0  0  3  0  0  0  0  0  0
  192.4130  175.0390  144.3010 C   0  0  2  0  0  3  0  0  0  0  0  0
  187.4590  178.2920  142.0150 C   0  0  0  0  0  1  0  0  0  0  0  0
  187.5170  175.8930  141.6340 N   0  0  0  0  0  2  0  0  0  0  0  0
  188.1660  176.7130  143.7940 C   0  0  2  0  0  3  0  0  0  0  0  0
  187.2320  176.9220  142.6220 C   0  0  1  0  0  3  0  0  0  0  0  0
  188.6520  175.2880  143.6650 C   0  0  1  0  0  3  0  0  0  0  0  0
  188.0390  174.7580  142.3820 C   0  0  0  0  0  2  0  0  0  0  0  0
  187.4070  176.8830  145.0960 C   0  0  0  0  0  1  0  0  0  0  0  0
  1  9  2  0  0  0  0
  2  1  1  0  0  0  0
  4  9  1  0  0  0  0
  6  3  1  6  0  0  0
  6  7  1  0  0  0  0
  6  8  1  0  0  0  0
  7  2  2  0  0  0  0
  7  8  1  0  0  0  0
  8  4  1  0  0  0  0
  9  5  1  0  0  0  0
 10  1  1  6  0  0  0
 10 14  1  0  0  0  0
 11 10  1  0  0  0  0
 12 11  1  0  0  0  0
 12 13  1  0  0  0  0
 13 14  1  0  0  0  0
 16 15  2  0  0  0  0
 16 11  1  0  0  0  0
 17 18  1  0  0  0  0
 19 21  1  0  0  0  0
 20 19  1  0  0  0  0
 20 17  2  0  0  0  0
 21  2  1  6  0  0  0
 21 18  1  0  0  0  0
 23 27  1  0  0  0  0
 23 25  1  0  0  0  0
 24 28  1  1  0  0  0
 25 22  1  6  0  0  0
 25 24  1  0  0  0  0
 26 17  1  6  0  0  0
 26 24  1  0  0  0  0
 27 26  1  0  0  0  0
M  END
>  <MODEL>
9

>  <REMARK>
 VINA RESULT:      -6.1      2.555      3.483
  Name = 
  4 active torsions:
  status: ('A' for Active; 'I' for Inactive)
    1  A    between atoms: C_1  and  C_2
    2  A    between atoms: N_3  and  C_26
    3  A    between atoms: C_5  and  C_28
    4  A    between atoms: C_11  and  C_13
                            x       y       z     vdW  Elec       q    Type
                         _______ _______ _______ _____ _____    ______ ____

>  <TORSDO>
F 4

$$$$
