=
 OpenBabel11062418513D

 37 40  0  0  1  0  0  0  0  0999 V2000
  187.6980  177.4060  145.1300 C   0  0  2  0  0  3  0  0  0  0  0  0
  192.5300  176.5660  143.3570 C   0  0  0  0  0  0  0  0  0  0  0  0
  189.6430  176.2760  144.1670 O   0  0  0  0  0  0  0  0  0  0  0  0
  186.4960  178.0720  144.4390 C   0  0  1  0  0  3  0  0  0  0  0  0
  187.3560  175.6480  143.2140 C   0  0  0  0  0  0  0  0  0  0  0  0
  185.4360  177.0120  144.1560 C   0  0  0  0  0  2  0  0  0  0  0  0
  191.6670  174.8170  141.9740 C   0  0  0  0  0  0  0  0  0  0  0  0
  190.2720  175.4430  141.9520 C   0  0  2  0  0  3  0  0  0  0  0  0
  188.2320  176.1970  144.3500 C   0  0  2  0  0  3  0  0  0  0  0  0
  187.8250  174.8050  142.2880 C   0  0  0  0  0  3  0  0  0  0  0  0
  188.7990  173.1120  140.1440 C   0  0  0  0  0  2  0  0  0  0  0  0
  190.9480  171.4270  140.5840 O   0  0  0  0  0  1  0  0  0  0  0  0
  193.1570  173.0140  141.4240 O   0  0  0  0  0  1  0  0  0  0  0  0
  191.8990  173.5640  141.1580 C   0  0  1  0  0  3  0  0  0  0  0  0
  190.0840  176.6910  142.8750 C   0  0  2  0  0  0  0  0  0  0  0  0
  189.4540  173.1630  141.3120 C   0  0  0  0  0  0  0  0  0  0  0  0
  191.3860  177.4670  143.0610 C   0  0  0  0  0  2  0  0  0  0  0  0
  189.2450  174.3250  142.2520 C   0  0  1  0  0  3  0  0  0  0  0  0
  189.1630  177.7020  142.1830 C   0  0  0  0  0  1  0  0  0  0  0  0
  187.3790  176.9770  146.5560 C   0  0  0  0  0  1  0  0  0  0  0  0
  190.8110  172.5240  141.4390 C   0  0  1  0  0  3  0  0  0  0  0  0
  192.6500  175.3380  142.6450 N   0  0  0  0  0  0  0  0  0  0  0  0
  185.9200  176.0780  143.0540 C   0  0  0  0  0  2  0  0  0  0  0  0
  193.4910  176.9770  144.1750 C   0  0  0  0  0  3  0  0  0  0  0  0
  184.7330  178.8290  146.0650 C   0  0  0  0  0  1  0  0  0  0  0  0
  185.9260  179.2590  145.2280 C   0  0  0  0  0  3  0  0  0  0  0  0
  185.4710  180.3610  144.2870 C   0  0  0  0  0  1  0  0  0  0  0  0
  194.6440  176.1730  144.4250 N   0  0  0  0  0  2  0  0  0  0  0  0
  194.8050  175.4760  145.6900 C   0  0  1  0  0  3  0  0  0  0  0  0
  192.6950  175.2260  147.0160 O   0  0  0  0  0  0  0  0  0  0  0  0
  193.8110  175.9860  146.6860 C   0  0  0  0  0  0  0  0  0  0  0  0
  193.9800  177.1150  147.2130 O   0  0  0  0  0  1  0  0  0  0  0  0
  194.6270  173.9830  145.4660 C   0  0  0  0  0  2  0  0  0  0  0  0
  196.2370  173.1440  145.3780 P   0  0  0  0  0  0  0  0  0  0  0  0
  195.9940  171.4700  145.4170 O   0  0  0  0  0  1  0  0  0  0  0  0
  197.0170  173.5620  143.9370 O   0  0  0  0  0  0  0  0  0  0  0  0
  197.0980  173.5520  146.5530 O   0  0  0  0  0  1  0  0  0  0  0  0
  1 20  1  1  0  0  0
  2 24  2  0  0  0  0
  3  9  1  0  0  0  0
  4  1  1  0  0  0  0
  4 26  1  1  0  0  0
  6  4  1  0  0  0  0
  7 22  2  0  0  0  0
  8  7  1  1  0  0  0
  8 18  1  0  0  0  0
  8 15  1  0  0  0  0
  9  5  1  6  0  0  0
  9  1  1  0  0  0  0
 10  5  2  0  0  0  0
 11 16  2  0  0  0  0
 14 13  1  1  0  0  0
 14 21  1  0  0  0  0
 14  7  1  0  0  0  0
 15 19  1  6  0  0  0
 15 17  1  0  0  0  0
 15  3  1  0  0  0  0
 16 21  1  0  0  0  0
 16 18  1  0  0  0  0
 17  2  1  0  0  0  0
 18 10  1  6  0  0  0
 21 12  1  6  0  0  0
 22  2  1  0  0  0  0
 23  5  1  0  0  0  0
 23  6  1  0  0  0  0
 24 28  1  0  0  0  0
 26 25  1  0  0  0  0
 27 26  1  0  0  0  0
 28 29  1  0  0  0  0
 29 33  1  6  0  0  0
 29 31  1  0  0  0  0
 31 30  2  0  0  0  0
 31 32  1  0  0  0  0
 34 35  1  0  0  0  0
 34 33  1  0  0  0  0
 34 37  1  0  0  0  0
 36 34  2  0  0  0  0
M  END
>  <MODEL>
1

>  <REMARK>
 VINA RESULT:      -7.8      0.000      0.000
  Name = 
  6 active torsions:
  status: ('A' for Active; 'I' for Inactive)
    1  A    between atoms: C_2  and  P_3
    2  A    between atoms: C_2  and  CA_9
    3  A    between atoms: C_6  and  C_19
    4  A    between atoms: CA_9  and  C_26
    5  A    between atoms: CA_9  and  N_32
    6  A    between atoms: N_32  and  C_37
                            x       y       z     vdW  Elec       q    Type
                         _______ _______ _______ _____ _____    ______ ____

>  <TORSDO>
F 6

$$$$
=
 OpenBabel11062418513D

 37 40  0  0  1  0  0  0  0  0999 V2000
  187.7680  177.3330  145.2240 C   0  0  2  0  0  3  0  0  0  0  0  0
  192.7320  176.5210  143.8450 C   0  0  0  0  0  0  0  0  0  0  0  0
  189.7910  176.2150  144.4200 O   0  0  0  0  0  0  0  0  0  0  0  0
  186.6220  177.9940  144.4410 C   0  0  1  0  0  3  0  0  0  0  0  0
  187.5920  175.5770  143.2830 C   0  0  0  0  0  0  0  0  0  0  0  0
  185.5940  176.9290  144.0710 C   0  0  0  0  0  2  0  0  0  0  0  0
  191.9920  174.7710  142.3940 C   0  0  0  0  0  0  0  0  0  0  0  0
  190.6010  175.3910  142.2610 C   0  0  2  0  0  3  0  0  0  0  0  0
  188.3700  176.1280  144.4880 C   0  0  2  0  0  3  0  0  0  0  0  0
  188.1380  174.7390  142.3960 C   0  0  0  0  0  3  0  0  0  0  0  0
  189.2900  173.0570  140.3350 C   0  0  0  0  0  2  0  0  0  0  0  0
  191.4060  171.3820  140.9430 O   0  0  0  0  0  1  0  0  0  0  0  0
  193.5320  172.9770  141.9620 O   0  0  0  0  0  1  0  0  0  0  0  0
  192.2960  173.5220  141.5960 C   0  0  1  0  0  3  0  0  0  0  0  0
  190.3320  176.6350  143.1680 C   0  0  2  0  0  0  0  0  0  0  0  0
  189.8490  173.1080  141.5520 C   0  0  0  0  0  0  0  0  0  0  0  0
  191.6110  177.4170  143.4600 C   0  0  0  0  0  2  0  0  0  0  0  0
  189.5590  174.2670  142.4740 C   0  0  1  0  0  3  0  0  0  0  0  0
  189.4650  177.6430  142.4060 C   0  0  0  0  0  1  0  0  0  0  0  0
  187.3370  176.8980  146.6190 C   0  0  0  0  0  1  0  0  0  0  0  0
  191.1950  172.4760  141.7870 C   0  0  1  0  0  3  0  0  0  0  0  0
  192.9150  175.2950  143.1430 N   0  0  0  0  0  0  0  0  0  0  0  0
  186.1710  176.0010  143.0090 C   0  0  0  0  0  2  0  0  0  0  0  0
  193.6220  176.9350  144.7390 C   0  0  0  0  0  3  0  0  0  0  0  0
  184.7580  178.7280  145.9590 C   0  0  0  0  0  1  0  0  0  0  0  0
  185.9850  179.1760  145.1840 C   0  0  0  0  0  3  0  0  0  0  0  0
  185.5580  180.2570  144.2060 C   0  0  0  0  0  1  0  0  0  0  0  0
  194.7540  176.1370  145.0800 N   0  0  0  0  0  2  0  0  0  0  0  0
  195.5500  175.4930  144.0480 C   0  0  1  0  0  3  0  0  0  0  0  0
  195.7650  176.6310  141.8280 O   0  0  0  0  0  0  0  0  0  0  0  0
  196.1620  176.5260  143.1550 C   0  0  0  0  0  0  0  0  0  0  0  0
  197.0540  177.2900  143.6050 O   0  0  0  0  0  1  0  0  0  0  0  0
  196.6250  174.6400  144.7030 C   0  0  0  0  0  2  0  0  0  0  0  0
  196.0530  172.9270  144.9150 P   0  0  0  0  0  0  0  0  0  0  0  0
  196.8870  172.2200  146.2060 O   0  0  0  0  0  1  0  0  0  0  0  0
  194.3960  172.9190  145.2480 O   0  0  0  0  0  1  0  0  0  0  0  0
  196.3170  172.1340  143.6540 O   0  0  0  0  0  0  0  0  0  0  0  0
  1 20  1  1  0  0  0
  2 24  2  0  0  0  0
  3  9  1  0  0  0  0
  4 26  1  1  0  0  0
  4  1  1  0  0  0  0
  6  4  1  0  0  0  0
  7 22  2  0  0  0  0
  8  7  1  1  0  0  0
  8 18  1  0  0  0  0
  8 15  1  0  0  0  0
  9  5  1  6  0  0  0
  9  1  1  0  0  0  0
 10  5  2  0  0  0  0
 11 16  2  0  0  0  0
 14 21  1  0  0  0  0
 14 13  1  1  0  0  0
 14  7  1  0  0  0  0
 15 19  1  6  0  0  0
 15 17  1  0  0  0  0
 15  3  1  0  0  0  0
 16 21  1  0  0  0  0
 16 18  1  0  0  0  0
 17  2  1  0  0  0  0
 18 10  1  6  0  0  0
 21 12  1  6  0  0  0
 22  2  1  0  0  0  0
 23  5  1  0  0  0  0
 23  6  1  0  0  0  0
 24 28  1  0  0  0  0
 26 25  1  0  0  0  0
 27 26  1  0  0  0  0
 29 33  1  1  0  0  0
 29 28  1  0  0  0  0
 30 31  2  0  0  0  0
 31 32  1  0  0  0  0
 31 29  1  0  0  0  0
 33 34  1  0  0  0  0
 34 36  1  0  0  0  0
 34 35  1  0  0  0  0
 37 34  2  0  0  0  0
M  END
>  <MODEL>
2

>  <REMARK>
 VINA RESULT:      -7.7      1.279      1.760
  Name = 
  6 active torsions:
  status: ('A' for Active; 'I' for Inactive)
    1  A    between atoms: C_2  and  P_3
    2  A    between atoms: C_2  and  CA_9
    3  A    between atoms: C_6  and  C_19
    4  A    between atoms: CA_9  and  C_26
    5  A    between atoms: CA_9  and  N_32
    6  A    between atoms: N_32  and  C_37
                            x       y       z     vdW  Elec       q    Type
                         _______ _______ _______ _____ _____    ______ ____

>  <TORSDO>
F 6

$$$$
=
 OpenBabel11062418513D

 37 40  0  0  1  0  0  0  0  0999 V2000
  191.0170  172.5880  139.4460 C   0  0  2  0  0  3  0  0  0  0  0  0
  191.6480  173.5210  144.5380 C   0  0  0  0  0  0  0  0  0  0  0  0
  190.9290  173.7100  141.6190 O   0  0  0  0  0  0  0  0  0  0  0  0
  189.9540  171.7450  138.7220 C   0  0  1  0  0  3  0  0  0  0  0  0
  188.9160  174.0260  140.0760 C   0  0  0  0  0  0  0  0  0  0  0  0
  189.0360  172.6730  137.9330 C   0  0  0  0  0  2  0  0  0  0  0  0
  189.7620  174.9870  144.4550 C   0  0  0  0  0  0  0  0  0  0  0  0
  189.1800  174.2630  143.2400 C   0  0  2  0  0  3  0  0  0  0  0  0
  190.4040  173.7100  140.2950 C   0  0  2  0  0  3  0  0  0  0  0  0
  188.2030  174.7610  140.9370 C   0  0  0  0  0  3  0  0  0  0  0  0
  186.5420  176.1990  142.8290 C   0  0  0  0  0  2  0  0  0  0  0  0
  187.6750  178.0820  144.5080 O   0  0  0  0  0  1  0  0  0  0  0  0
  189.7070  176.7980  146.0330 O   0  0  0  0  0  1  0  0  0  0  0  0
  188.9660  176.1250  145.0560 C   0  0  1  0  0  3  0  0  0  0  0  0
  190.0870  173.1490  142.6260 C   0  0  2  0  0  0  0  0  0  0  0  0
  187.8720  176.3630  142.8410 C   0  0  0  0  0  0  0  0  0  0  0  0
  190.9920  172.5050  143.6740 C   0  0  0  0  0  2  0  0  0  0  0  0
  188.7710  175.3340  142.2010 C   0  0  1  0  0  3  0  0  0  0  0  0
  189.2130  171.9850  142.1480 C   0  0  0  0  0  1  0  0  0  0  0  0
  192.0300  173.1910  138.4810 C   0  0  0  0  0  1  0  0  0  0  0  0
  188.5250  177.1110  143.9720 C   0  0  1  0  0  3  0  0  0  0  0  0
  190.8930  174.6410  144.9910 N   0  0  0  0  0  0  0  0  0  0  0  0
  188.1630  173.4730  138.8930 C   0  0  0  0  0  2  0  0  0  0  0  0
  192.8790  173.3010  144.9850 C   0  0  0  0  0  3  0  0  0  0  0  0
  190.0040  170.7240  136.4250 C   0  0  0  0  0  1  0  0  0  0  0  0
  190.5560  170.6430  137.8380 C   0  0  0  0  0  3  0  0  0  0  0  0
  190.2280  169.2690  138.3960 C   0  0  0  0  0  1  0  0  0  0  0  0
  193.5150  174.2150  145.8780 N   0  0  0  0  0  2  0  0  0  0  0  0
  194.1790  175.4060  145.3760 C   0  0  1  0  0  3  0  0  0  0  0  0
  194.7560  177.6660  146.2900 O   0  0  0  0  0  0  0  0  0  0  0  0
  193.9070  176.5650  146.2820 C   0  0  0  0  0  0  0  0  0  0  0  0
  192.9150  176.5340  147.0550 O   0  0  0  0  0  1  0  0  0  0  0  0
  195.6720  175.1420  145.2710 C   0  0  0  0  0  2  0  0  0  0  0  0
  196.2650  175.4290  143.5760 P   0  0  0  0  0  0  0  0  0  0  0  0
  194.9830  175.2030  142.4950 O   0  0  0  0  0  0  0  0  0  0  0  0
  196.8410  177.0120  143.4370 O   0  0  0  0  0  1  0  0  0  0  0  0
  197.3760  174.4580  143.2450 O   0  0  0  0  0  1  0  0  0  0  0  0
  1 20  1  6  0  0  0
  1  9  1  0  0  0  0
  2 24  2  0  0  0  0
  2 22  1  0  0  0  0
  3 15  1  0  0  0  0
  4 26  1  6  0  0  0
  4  1  1  0  0  0  0
  5 10  2  0  0  0  0
  6  4  1  0  0  0  0
  6 23  1  0  0  0  0
  7 22  2  0  0  0  0
  7 14  1  0  0  0  0
  8  7  1  1  0  0  0
  9  5  1  1  0  0  0
  9  3  1  0  0  0  0
 11 16  2  0  0  0  0
 14 13  1  1  0  0  0
 15 19  1  6  0  0  0
 15  8  1  0  0  0  0
 15 17  1  0  0  0  0
 16 21  1  0  0  0  0
 17  2  1  0  0  0  0
 18 10  1  6  0  0  0
 18 16  1  0  0  0  0
 18  8  1  0  0  0  0
 21 12  1  1  0  0  0
 21 14  1  0  0  0  0
 23  5  1  0  0  0  0
 24 28  1  0  0  0  0
 25 26  1  0  0  0  0
 26 27  1  0  0  0  0
 29 33  1  1  0  0  0
 29 28  1  0  0  0  0
 29 31  1  0  0  0  0
 31 30  2  0  0  0  0
 31 32  1  0  0  0  0
 34 33  1  0  0  0  0
 35 34  2  0  0  0  0
 36 34  1  0  0  0  0
 37 34  1  0  0  0  0
M  END
>  <MODEL>
3

>  <REMARK>
 VINA RESULT:      -7.6      2.301      6.031
  Name = 
  6 active torsions:
  status: ('A' for Active; 'I' for Inactive)
    1  A    between atoms: C_2  and  P_3
    2  A    between atoms: C_2  and  CA_9
    3  A    between atoms: C_6  and  C_19
    4  A    between atoms: CA_9  and  C_26
    5  A    between atoms: CA_9  and  N_32
    6  A    between atoms: N_32  and  C_37
                            x       y       z     vdW  Elec       q    Type
                         _______ _______ _______ _____ _____    ______ ____

>  <TORSDO>
F 6

$$$$
=
 OpenBabel11062418513D

 37 40  0  0  1  0  0  0  0  0999 V2000
  187.6300  177.0860  145.2000 C   0  0  2  0  0  3  0  0  0  0  0  0
  192.5040  175.8400  143.8270 C   0  0  0  0  0  0  0  0  0  0  0  0
  189.5260  175.8480  144.2710 O   0  0  0  0  0  0  0  0  0  0  0  0
  186.6170  178.0140  144.5090 C   0  0  1  0  0  3  0  0  0  0  0  0
  187.3170  175.7060  142.9920 C   0  0  0  0  0  0  0  0  0  0  0  0
  185.4780  177.1730  143.9430 C   0  0  0  0  0  2  0  0  0  0  0  0
  191.6120  174.4630  142.0880 C   0  0  0  0  0  0  0  0  0  0  0  0
  190.3200  175.2780  142.0260 C   0  0  2  0  0  3  0  0  0  0  0  0
  188.1040  175.9450  144.2900 C   0  0  2  0  0  3  0  0  0  0  0  0
  187.7900  174.9550  141.9920 C   0  0  0  0  0  3  0  0  0  0  0  0
  188.8080  173.4840  139.7100 C   0  0  0  0  0  2  0  0  0  0  0  0
  190.6570  171.4610  140.0840 O   0  0  0  0  0  1  0  0  0  0  0  0
  192.9230  172.5690  141.4040 O   0  0  0  0  0  1  0  0  0  0  0  0
  191.7870  173.3280  141.1030 C   0  0  1  0  0  3  0  0  0  0  0  0
  190.1740  176.3860  143.1190 C   0  0  2  0  0  0  0  0  0  0  0  0
  189.3120  173.2630  140.9320 C   0  0  0  0  0  0  0  0  0  0  0  0
  191.5290  176.9300  143.5680 C   0  0  0  0  0  2  0  0  0  0  0  0
  189.1320  174.2870  142.0260 C   0  0  1  0  0  3  0  0  0  0  0  0
  189.4820  177.6120  142.5140 C   0  0  0  0  0  1  0  0  0  0  0  0
  187.0830  176.4960  146.4930 C   0  0  0  0  0  1  0  0  0  0  0  0
  190.5510  172.4240  141.0910 C   0  0  1  0  0  3  0  0  0  0  0  0
  192.5600  174.7300  142.9360 N   0  0  0  0  0  0  0  0  0  0  0  0
  185.9780  176.3570  142.7570 C   0  0  0  0  0  2  0  0  0  0  0  0
  193.3990  175.9810  144.7980 C   0  0  0  0  0  3  0  0  0  0  0  0
  185.0430  178.6170  146.3740 C   0  0  0  0  0  1  0  0  0  0  0  0
  186.1060  179.1380  145.4210 C   0  0  0  0  0  3  0  0  0  0  0  0
  185.4960  180.2600  144.6000 C   0  0  0  0  0  1  0  0  0  0  0  0
  194.4010  174.9910  145.0300 N   0  0  0  0  0  2  0  0  0  0  0  0
  195.7580  175.1780  144.5460 C   0  0  1  0  0  3  0  0  0  0  0  0
  197.9400  173.9890  144.8550 O   0  0  0  0  0  0  0  0  0  0  0  0
  196.7130  174.3800  145.3760 C   0  0  0  0  0  0  0  0  0  0  0  0
  196.3940  174.0480  146.5470 O   0  0  0  0  0  1  0  0  0  0  0  0
  195.8320  174.7590  143.0860 C   0  0  0  0  0  2  0  0  0  0  0  0
  196.5460  176.0830  142.0660 P   0  0  0  0  0  0  0  0  0  0  0  0
  197.4440  177.1220  143.0530 O   0  0  0  0  0  1  0  0  0  0  0  0
  197.5610  175.4110  140.8920 O   0  0  0  0  0  0  0  0  0  0  0  0
  195.4430  176.8660  141.3880 O   0  0  0  0  0  1  0  0  0  0  0  0
  1 20  1  1  0  0  0
  2 24  2  0  0  0  0
  3  9  1  0  0  0  0
  4  1  1  0  0  0  0
  4 26  1  1  0  0  0
  6  4  1  0  0  0  0
  7 22  2  0  0  0  0
  8  7  1  1  0  0  0
  8 15  1  0  0  0  0
  9  5  1  6  0  0  0
  9  1  1  0  0  0  0
 10  5  2  0  0  0  0
 11 16  2  0  0  0  0
 14 13  1  1  0  0  0
 14  7  1  0  0  0  0
 15 19  1  6  0  0  0
 15 17  1  0  0  0  0
 15  3  1  0  0  0  0
 16 21  1  0  0  0  0
 16 18  1  0  0  0  0
 17  2  1  0  0  0  0
 18 10  1  6  0  0  0
 18  8  1  0  0  0  0
 21 12  1  6  0  0  0
 21 14  1  0  0  0  0
 22  2  1  0  0  0  0
 23  5  1  0  0  0  0
 23  6  1  0  0  0  0
 24 28  1  0  0  0  0
 26 25  1  0  0  0  0
 27 26  1  0  0  0  0
 29 33  1  6  0  0  0
 29 28  1  0  0  0  0
 29 31  1  0  0  0  0
 30 31  2  0  0  0  0
 31 32  1  0  0  0  0
 34 35  1  0  0  0  0
 34 33  1  0  0  0  0
 36 34  2  0  0  0  0
 37 34  1  0  0  0  0
M  END
>  <MODEL>
4

>  <REMARK>
 VINA RESULT:      -7.6      1.576      2.286
  Name = 
  6 active torsions:
  status: ('A' for Active; 'I' for Inactive)
    1  A    between atoms: C_2  and  P_3
    2  A    between atoms: C_2  and  CA_9
    3  A    between atoms: C_6  and  C_19
    4  A    between atoms: CA_9  and  C_26
    5  A    between atoms: CA_9  and  N_32
    6  A    between atoms: N_32  and  C_37
                            x       y       z     vdW  Elec       q    Type
                         _______ _______ _______ _____ _____    ______ ____

>  <TORSDO>
F 6

$$$$
=
 OpenBabel11062418513D

 37 40  0  0  1  0  0  0  0  0999 V2000
  187.9710  176.2260  144.0030 C   0  0  2  0  0  3  0  0  0  0  0  0
  190.8730  171.9190  143.5220 C   0  0  0  0  0  0  0  0  0  0  0  0
  189.9200  174.7670  143.7610 O   0  0  0  0  0  0  0  0  0  0  0  0
  187.3650  176.8720  145.2600 C   0  0  1  0  0  3  0  0  0  0  0  0
  190.2140  176.8540  145.2070 C   0  0  0  0  0  0  0  0  0  0  0  0
  188.0820  178.1900  145.5350 C   0  0  0  0  0  2  0  0  0  0  0  0
  192.7200  173.1170  144.4530 C   0  0  0  0  0  0  0  0  0  0  0  0
  191.7940  174.0910  145.1850 C   0  0  2  0  0  3  0  0  0  0  0  0
  189.4970  176.0880  144.0850 C   0  0  2  0  0  3  0  0  0  0  0  0
  191.4760  176.5930  145.5630 C   0  0  0  0  0  3  0  0  0  0  0  0
  194.1470  175.9810  146.5130 C   0  0  0  0  0  2  0  0  0  0  0  0
  196.0020  174.8640  144.7920 O   0  0  0  0  0  1  0  0  0  0  0  0
  194.9240  172.4260  143.7920 O   0  0  0  0  0  1  0  0  0  0  0  0
  194.2120  173.2580  144.6620 C   0  0  1  0  0  3  0  0  0  0  0  0
  190.2720  173.9350  144.8660 C   0  0  2  0  0  0  0  0  0  0  0  0
  193.7740  175.6230  145.2760 C   0  0  0  0  0  0  0  0  0  0  0  0
  189.9090  172.4990  144.4930 C   0  0  0  0  0  2  0  0  0  0  0  0
  192.3110  175.5250  144.9210 C   0  0  1  0  0  3  0  0  0  0  0  0
  189.4560  174.1880  146.1380 C   0  0  0  0  0  1  0  0  0  0  0  0
  187.6070  176.9840  142.7330 C   0  0  0  0  0  1  0  0  0  0  0  0
  194.6520  174.7110  144.4630 C   0  0  1  0  0  3  0  0  0  0  0  0
  192.2650  172.1710  143.6880 N   0  0  0  0  0  0  0  0  0  0  0  0
  189.5040  177.9160  146.0090 C   0  0  0  0  0  2  0  0  0  0  0  0
  190.4380  171.0680  142.6000 C   0  0  0  0  0  3  0  0  0  0  0  0
  185.4880  178.4770  144.7890 C   0  0  0  0  0  1  0  0  0  0  0  0
  185.8430  177.0510  145.1750 C   0  0  0  0  0  3  0  0  0  0  0  0
  185.1910  176.7470  146.5130 C   0  0  0  0  0  1  0  0  0  0  0  0
  191.3420  170.4310  141.6970 N   0  0  0  0  0  2  0  0  0  0  0  0
  191.3310  170.7540  140.2810 C   0  0  1  0  0  3  0  0  0  0  0  0
  190.5500  168.4400  139.7290 O   0  0  0  0  0  1  0  0  0  0  0  0
  191.4090  169.5000  139.4690 C   0  0  0  0  0  0  0  0  0  0  0  0
  192.2700  169.4010  138.5560 O   0  0  0  0  0  0  0  0  0  0  0  0
  190.0660  171.5320  139.9530 C   0  0  0  0  0  2  0  0  0  0  0  0
  190.4230  173.3050  139.7730 P   0  0  0  0  0  0  0  0  0  0  0  0
  189.2200  174.1960  140.5620 O   0  0  0  0  0  1  0  0  0  0  0  0
  191.9240  173.6560  140.4680 O   0  0  0  0  0  1  0  0  0  0  0  0
  190.4460  173.6820  138.3080 O   0  0  0  0  0  0  0  0  0  0  0  0
  1 20  1  6  0  0  0
  1  9  1  0  0  0  0
  1  4  1  0  0  0  0
  2 22  1  0  0  0  0
  2 17  1  0  0  0  0
  3 15  1  0  0  0  0
  4 26  1  6  0  0  0
  4  6  1  0  0  0  0
  5 10  2  0  0  0  0
  5 23  1  0  0  0  0
  6 23  1  0  0  0  0
  7 14  1  0  0  0  0
  8  7  1  6  0  0  0
  9  3  1  1  0  0  0
  9  5  1  0  0  0  0
 14 13  1  6  0  0  0
 15  8  1  0  0  0  0
 15 19  1  1  0  0  0
 16 11  2  0  0  0  0
 17 15  1  0  0  0  0
 18  8  1  0  0  0  0
 18 16  1  0  0  0  0
 18 10  1  1  0  0  0
 21 14  1  0  0  0  0
 21 12  1  1  0  0  0
 21 16  1  0  0  0  0
 22  7  2  0  0  0  0
 24  2  2  0  0  0  0
 25 26  1  0  0  0  0
 26 27  1  0  0  0  0
 28 24  1  0  0  0  0
 29 33  1  6  0  0  0
 29 28  1  0  0  0  0
 31 30  1  0  0  0  0
 31 29  1  0  0  0  0
 32 31  2  0  0  0  0
 34 33  1  0  0  0  0
 34 36  1  0  0  0  0
 34 35  1  0  0  0  0
 37 34  2  0  0  0  0
M  END
>  <MODEL>
5

>  <REMARK>
 VINA RESULT:      -7.4      2.663      6.048
  Name = 
  6 active torsions:
  status: ('A' for Active; 'I' for Inactive)
    1  A    between atoms: C_2  and  P_3
    2  A    between atoms: C_2  and  CA_9
    3  A    between atoms: C_6  and  C_19
    4  A    between atoms: CA_9  and  C_26
    5  A    between atoms: CA_9  and  N_32
    6  A    between atoms: N_32  and  C_37
                            x       y       z     vdW  Elec       q    Type
                         _______ _______ _______ _____ _____    ______ ____

>  <TORSDO>
F 6

$$$$
=
 OpenBabel11062418513D

 37 40  0  0  1  0  0  0  0  0999 V2000
  187.8480  176.7350  145.3890 C   0  0  2  0  0  3  0  0  0  0  0  0
  190.3260  172.7080  143.1880 C   0  0  0  0  0  0  0  0  0  0  0  0
  189.6230  175.3800  144.3860 O   0  0  0  0  0  0  0  0  0  0  0  0
  187.5210  177.0020  146.8670 C   0  0  1  0  0  3  0  0  0  0  0  0
  190.3070  176.9630  146.2730 C   0  0  0  0  0  0  0  0  0  0  0  0
  188.3610  178.1770  147.3580 C   0  0  0  0  0  2  0  0  0  0  0  0
  192.3850  173.5650  144.0490 C   0  0  0  0  0  0  0  0  0  0  0  0
  191.6710  174.3010  145.1830 C   0  0  2  0  0  3  0  0  0  0  0  0
  189.3520  176.5590  145.1390 C   0  0  2  0  0  3  0  0  0  0  0  0
  191.5920  176.5940  146.2970 C   0  0  0  0  0  3  0  0  0  0  0  0
  194.3420  175.7020  146.5150 C   0  0  0  0  0  2  0  0  0  0  0  0
  195.7840  175.0990  144.2320 O   0  0  0  0  0  1  0  0  0  0  0  0
  194.3850  173.0630  142.8160 O   0  0  0  0  0  1  0  0  0  0  0  0
  193.8960  173.6210  144.0020 C   0  0  1  0  0  3  0  0  0  0  0  0
  190.1090  174.2630  145.1280 C   0  0  2  0  0  0  0  0  0  0  0  0
  193.7320  175.7170  145.3210 C   0  0  0  0  0  0  0  0  0  0  0  0
  189.5910  172.9980  144.4460 C   0  0  0  0  0  2  0  0  0  0  0  0
  192.2260  175.7440  145.2370 C   0  0  1  0  0  3  0  0  0  0  0  0
  189.5510  174.1520  146.5510 C   0  0  0  0  0  1  0  0  0  0  0  0
  187.3160  177.8290  144.4730 C   0  0  0  0  0  1  0  0  0  0  0  0
  194.3900  175.0640  144.1350 C   0  0  1  0  0  3  0  0  0  0  0  0
  191.7390  172.8830  143.1510 N   0  0  0  0  0  0  0  0  0  0  0  0
  189.8230  177.7600  147.4570 C   0  0  0  0  0  2  0  0  0  0  0  0
  189.6790  172.1610  142.1650 C   0  0  0  0  0  3  0  0  0  0  0  0
  185.1960  176.7170  145.9530 C   0  0  0  0  0  1  0  0  0  0  0  0
  186.0230  177.2180  147.1250 C   0  0  0  0  0  3  0  0  0  0  0  0
  185.7190  178.6930  147.3220 C   0  0  0  0  0  1  0  0  0  0  0  0
  190.3640  171.7970  140.9660 N   0  0  0  0  0  2  0  0  0  0  0  0
  190.1760  172.5560  139.7420 C   0  0  1  0  0  3  0  0  0  0  0  0
  188.6450  174.5060  140.0970 O   0  0  0  0  0  1  0  0  0  0  0  0
  188.8150  173.1770  139.7270 C   0  0  0  0  0  0  0  0  0  0  0  0
  187.8180  172.4870  139.3940 O   0  0  0  0  0  0  0  0  0  0  0  0
  191.2570  173.6210  139.6410 C   0  0  0  0  0  2  0  0  0  0  0  0
  191.9190  173.7160  137.9510 P   0  0  0  0  0  0  0  0  0  0  0  0
  190.6760  174.1590  136.8920 O   0  0  0  0  0  0  0  0  0  0  0  0
  193.1470  174.8780  137.8870 O   0  0  0  0  0  1  0  0  0  0  0  0
  192.4750  172.3730  137.5360 O   0  0  0  0  0  1  0  0  0  0  0  0
  1 20  1  6  0  0  0
  1  4  1  0  0  0  0
  2 17  1  0  0  0  0
  3 15  1  0  0  0  0
  4 26  1  6  0  0  0
  4  6  1  0  0  0  0
  5 10  2  0  0  0  0
  5 23  1  0  0  0  0
  6 23  1  0  0  0  0
  8  7  1  6  0  0  0
  8 18  1  0  0  0  0
  9  3  1  1  0  0  0
  9  1  1  0  0  0  0
  9  5  1  0  0  0  0
 14 13  1  6  0  0  0
 14  7  1  0  0  0  0
 14 21  1  0  0  0  0
 15  8  1  0  0  0  0
 15 19  1  1  0  0  0
 16 11  2  0  0  0  0
 17 15  1  0  0  0  0
 18 16  1  0  0  0  0
 18 10  1  1  0  0  0
 21 12  1  1  0  0  0
 21 16  1  0  0  0  0
 22  2  1  0  0  0  0
 22  7  2  0  0  0  0
 24  2  2  0  0  0  0
 25 26  1  0  0  0  0
 26 27  1  0  0  0  0
 28 24  1  0  0  0  0
 29 33  1  1  0  0  0
 29 28  1  0  0  0  0
 31 29  1  0  0  0  0
 31 30  1  0  0  0  0
 32 31  2  0  0  0  0
 34 33  1  0  0  0  0
 35 34  2  0  0  0  0
 36 34  1  0  0  0  0
 37 34  1  0  0  0  0
M  END
>  <MODEL>
6

>  <REMARK>
 VINA RESULT:      -7.3      2.778      5.941
  Name = 
  6 active torsions:
  status: ('A' for Active; 'I' for Inactive)
    1  A    between atoms: C_2  and  P_3
    2  A    between atoms: C_2  and  CA_9
    3  A    between atoms: C_6  and  C_19
    4  A    between atoms: CA_9  and  C_26
    5  A    between atoms: CA_9  and  N_32
    6  A    between atoms: N_32  and  C_37
                            x       y       z     vdW  Elec       q    Type
                         _______ _______ _______ _____ _____    ______ ____

>  <TORSDO>
F 6

$$$$
=
 OpenBabel11062418513D

 37 40  0  0  1  0  0  0  0  0999 V2000
  194.3090  174.9920  143.2560 C   0  0  2  0  0  3  0  0  0  0  0  0
  189.2220  175.1960  142.1250 C   0  0  0  0  0  0  0  0  0  0  0  0
  192.1890  174.6800  142.0740 O   0  0  0  0  0  0  0  0  0  0  0  0
  195.0750  174.0390  144.1870 C   0  0  1  0  0  3  0  0  0  0  0  0
  193.8800  172.7680  141.9340 C   0  0  0  0  0  0  0  0  0  0  0  0
  195.9590  173.1250  143.3450 C   0  0  0  0  0  2  0  0  0  0  0  0
  189.4900  173.2350  140.7840 C   0  0  0  0  0  0  0  0  0  0  0  0
  190.7160  172.7870  141.5810 C   0  0  2  0  0  3  0  0  0  0  0  0
  193.5460  174.2520  142.1490 C   0  0  2  0  0  3  0  0  0  0  0  0
  193.0990  171.9520  141.2190 C   0  0  0  0  0  3  0  0  0  0  0  0
  191.3810  170.0730  139.8300 C   0  0  0  0  0  2  0  0  0  0  0  0
  189.6950  170.9650  137.8270 O   0  0  0  0  0  1  0  0  0  0  0  0
  187.9860  172.9560  138.9310 O   0  0  0  0  0  1  0  0  0  0  0  0
  188.9880  172.3300  139.6810 C   0  0  1  0  0  3  0  0  0  0  0  0
  191.2250  173.8030  142.6550 C   0  0  2  0  0  0  0  0  0  0  0  0
  191.2820  171.3870  139.5830 C   0  0  0  0  0  0  0  0  0  0  0  0
  190.0930  174.6670  143.2070 C   0  0  0  0  0  2  0  0  0  0  0  0
  191.8200  172.3910  140.5720 C   0  0  1  0  0  3  0  0  0  0  0  0
  191.7200  173.0380  143.8860 C   0  0  0  0  0  1  0  0  0  0  0  0
  195.2210  176.0340  142.6200 C   0  0  0  0  0  1  0  0  0  0  0  0
  190.1350  171.9090  138.7590 C   0  0  1  0  0  3  0  0  0  0  0  0
  188.8640  174.3430  141.0410 N   0  0  0  0  0  0  0  0  0  0  0  0
  195.0930  172.1380  142.5710 C   0  0  0  0  0  2  0  0  0  0  0  0
  188.6820  176.4020  142.2510 C   0  0  0  0  0  3  0  0  0  0  0  0
  196.7440  173.7940  146.0520 C   0  0  0  0  0  1  0  0  0  0  0  0
  195.8740  174.7690  145.2760 C   0  0  0  0  0  3  0  0  0  0  0  0
  194.9400  175.4540  146.2590 C   0  0  0  0  0  1  0  0  0  0  0  0
  187.7800  176.9160  141.2710 N   0  0  0  0  0  2  0  0  0  0  0  0
  186.6540  177.7480  141.6580 C   0  0  1  0  0  3  0  0  0  0  0  0
  185.9880  177.2980  139.2870 O   0  0  0  0  0  0  0  0  0  0  0  0
  185.7190  177.9160  140.5030 C   0  0  0  0  0  0  0  0  0  0  0  0
  184.6950  178.6340  140.6280 O   0  0  0  0  0  1  0  0  0  0  0  0
  185.9420  177.1110  142.8410 C   0  0  0  0  0  2  0  0  0  0  0  0
  185.9530  178.2200  144.2810 P   0  0  0  0  0  0  0  0  0  0  0  0
  185.5680  179.7880  143.7760 O   0  0  0  0  0  0  0  0  0  0  0  0
  184.8060  177.6980  145.4080 O   0  0  0  0  0  1  0  0  0  0  0  0
  187.3230  178.2230  144.9210 O   0  0  0  0  0  1  0  0  0  0  0  0
  1 20  1  6  0  0  0
  1  4  1  0  0  0  0
  2 24  2  0  0  0  0
  2 17  1  0  0  0  0
  3  9  1  0  0  0  0
  3 15  1  0  0  0  0
  4 26  1  1  0  0  0
  5 23  1  0  0  0  0
  6  4  1  0  0  0  0
  7 22  2  0  0  0  0
  8  7  1  6  0  0  0
  8 15  1  0  0  0  0
  9  5  1  1  0  0  0
  9  1  1  0  0  0  0
 10  5  2  0  0  0  0
 14 13  1  6  0  0  0
 14  7  1  0  0  0  0
 15 17  1  0  0  0  0
 15 19  1  1  0  0  0
 16 11  2  0  0  0  0
 16 18  1  0  0  0  0
 18 10  1  1  0  0  0
 18  8  1  0  0  0  0
 21 12  1  6  0  0  0
 21 16  1  0  0  0  0
 21 14  1  0  0  0  0
 22  2  1  0  0  0  0
 23  6  1  0  0  0  0
 26 25  1  0  0  0  0
 26 27  1  0  0  0  0
 28 29  1  0  0  0  0
 28 24  1  0  0  0  0
 29 33  1  1  0  0  0
 30 31  2  0  0  0  0
 31 32  1  0  0  0  0
 31 29  1  0  0  0  0
 33 34  1  0  0  0  0
 34 37  1  0  0  0  0
 34 36  1  0  0  0  0
 35 34  2  0  0  0  0
M  END
>  <MODEL>
7

>  <REMARK>
 VINA RESULT:      -7.3      3.700      8.068
  Name = 
  6 active torsions:
  status: ('A' for Active; 'I' for Inactive)
    1  A    between atoms: C_2  and  P_3
    2  A    between atoms: C_2  and  CA_9
    3  A    between atoms: C_6  and  C_19
    4  A    between atoms: CA_9  and  C_26
    5  A    between atoms: CA_9  and  N_32
    6  A    between atoms: N_32  and  C_37
                            x       y       z     vdW  Elec       q    Type
                         _______ _______ _______ _____ _____    ______ ____

>  <TORSDO>
F 6

$$$$
=
 OpenBabel11062418513D

 37 40  0  0  1  0  0  0  0  0999 V2000
  187.9100  176.7720  145.3210 C   0  0  2  0  0  3  0  0  0  0  0  0
  190.6640  173.0820  142.8730 C   0  0  0  0  0  0  0  0  0  0  0  0
  189.7830  175.6010  144.2690 O   0  0  0  0  0  0  0  0  0  0  0  0
  187.5230  176.8930  146.8050 C   0  0  1  0  0  3  0  0  0  0  0  0
  190.3240  177.0460  146.3070 C   0  0  0  0  0  0  0  0  0  0  0  0
  188.2840  178.0620  147.4230 C   0  0  0  0  0  2  0  0  0  0  0  0
  192.6470  173.9640  143.8750 C   0  0  0  0  0  0  0  0  0  0  0  0
  191.8610  174.5610  145.0430 C   0  0  2  0  0  3  0  0  0  0  0  0
  189.4280  176.6950  145.1100 C   0  0  2  0  0  3  0  0  0  0  0  0
  191.6260  176.7420  146.3440 C   0  0  0  0  0  3  0  0  0  0  0  0
  194.4120  175.9740  146.5820 C   0  0  0  0  0  2  0  0  0  0  0  0
  195.9520  175.6460  144.3080 O   0  0  0  0  0  1  0  0  0  0  0  0
  194.7090  173.6730  142.6760 O   0  0  0  0  0  1  0  0  0  0  0  0
  194.1540  174.1000  143.8860 C   0  0  1  0  0  3  0  0  0  0  0  0
  190.3060  174.4490  144.9300 C   0  0  2  0  0  0  0  0  0  0  0  0
  193.8390  176.0620  145.3730 C   0  0  0  0  0  0  0  0  0  0  0  0
  189.8770  173.2240  144.1250 C   0  0  0  0  0  2  0  0  0  0  0  0
  192.3370  176.0200  145.2390 C   0  0  1  0  0  3  0  0  0  0  0  0
  189.7120  174.1870  146.3180 C   0  0  0  0  0  1  0  0  0  0  0  0
  187.3480  177.9130  144.4840 C   0  0  0  0  0  1  0  0  0  0  0  0
  194.5660  175.5490  144.1600 C   0  0  1  0  0  3  0  0  0  0  0  0
  192.0670  173.3310  142.9010 N   0  0  0  0  0  0  0  0  0  0  0  0
  189.7630  177.7120  147.5380 C   0  0  0  0  0  2  0  0  0  0  0  0
  190.0790  172.5940  141.7850 C   0  0  0  0  0  3  0  0  0  0  0  0
  185.2480  176.6550  145.7600 C   0  0  0  0  0  1  0  0  0  0  0  0
  186.0090  177.0090  147.0270 C   0  0  0  0  0  3  0  0  0  0  0  0
  185.6320  178.4260  147.4240 C   0  0  0  0  0  1  0  0  0  0  0  0
  190.8180  172.3710  140.5850 N   0  0  0  0  0  2  0  0  0  0  0  0
  191.1360  173.4710  139.6900 C   0  0  1  0  0  3  0  0  0  0  0  0
  193.1560  174.5020  138.6270 O   0  0  0  0  0  0  0  0  0  0  0  0
  192.6010  173.4780  139.3860 C   0  0  0  0  0  0  0  0  0  0  0  0
  193.3290  172.5420  139.8050 O   0  0  0  0  0  1  0  0  0  0  0  0
  190.3200  173.3320  138.4150 C   0  0  0  0  0  2  0  0  0  0  0  0
  188.5760  173.7510  138.7100 P   0  0  0  0  0  0  0  0  0  0  0  0
  187.7340  172.3480  139.1410 O   0  0  0  0  0  1  0  0  0  0  0  0
  188.4690  174.8760  139.9680 O   0  0  0  0  0  1  0  0  0  0  0  0
  187.9650  174.3360  137.4570 O   0  0  0  0  0  0  0  0  0  0  0  0
  1 20  1  6  0  0  0
  1  4  1  0  0  0  0
  2 22  1  0  0  0  0
  2 17  1  0  0  0  0
  3 15  1  0  0  0  0
  4 26  1  6  0  0  0
  4  6  1  0  0  0  0
  5 10  2  0  0  0  0
  5 23  1  0  0  0  0
  6 23  1  0  0  0  0
  7 14  1  0  0  0  0
  8  7  1  6  0  0  0
  8 18  1  0  0  0  0
  9  3  1  1  0  0  0
  9  1  1  0  0  0  0
  9  5  1  0  0  0  0
 14 13  1  6  0  0  0
 14 21  1  0  0  0  0
 15  8  1  0  0  0  0
 15 19  1  1  0  0  0
 16 11  2  0  0  0  0
 17 15  1  0  0  0  0
 18 16  1  0  0  0  0
 18 10  1  1  0  0  0
 21 12  1  1  0  0  0
 21 16  1  0  0  0  0
 22  7  2  0  0  0  0
 24  2  2  0  0  0  0
 25 26  1  0  0  0  0
 26 27  1  0  0  0  0
 28 24  1  0  0  0  0
 29 33  1  6  0  0  0
 29 28  1  0  0  0  0
 30 31  2  0  0  0  0
 31 29  1  0  0  0  0
 31 32  1  0  0  0  0
 33 34  1  0  0  0  0
 34 35  1  0  0  0  0
 34 36  1  0  0  0  0
 37 34  2  0  0  0  0
M  END
>  <MODEL>
8

>  <REMARK>
 VINA RESULT:      -7.1      2.858      6.121
  Name = 
  6 active torsions:
  status: ('A' for Active; 'I' for Inactive)
    1  A    between atoms: C_2  and  P_3
    2  A    between atoms: C_2  and  CA_9
    3  A    between atoms: C_6  and  C_19
    4  A    between atoms: CA_9  and  C_26
    5  A    between atoms: CA_9  and  N_32
    6  A    between atoms: N_32  and  C_37
                            x       y       z     vdW  Elec       q    Type
                         _______ _______ _______ _____ _____    ______ ____

>  <TORSDO>
F 6

$$$$
=
 OpenBabel11062418513D

 37 40  0  0  1  0  0  0  0  0999 V2000
  191.2050  171.6720  141.8300 C   0  0  2  0  0  3  0  0  0  0  0  0
  188.4250  175.9590  142.8750 C   0  0  0  0  0  0  0  0  0  0  0  0
  190.1830  173.5210  143.0660 O   0  0  0  0  0  0  0  0  0  0  0  0
  192.6200  171.5320  141.2450 C   0  0  1  0  0  3  0  0  0  0  0  0
  192.5250  172.8010  143.7950 C   0  0  0  0  0  0  0  0  0  0  0  0
  193.5550  171.0040  142.3290 C   0  0  0  0  0  2  0  0  0  0  0  0
  189.8310  176.3510  144.7690 C   0  0  0  0  0  0  0  0  0  0  0  0
  190.9860  175.5660  144.1470 C   0  0  2  0  0  3  0  0  0  0  0  0
  191.1770  172.5010  143.1210 C   0  0  2  0  0  3  0  0  0  0  0  0
  192.6650  173.7380  144.7380 C   0  0  0  0  0  3  0  0  0  0  0  0
  193.0930  175.8610  146.6660 C   0  0  0  0  0  2  0  0  0  0  0  0
  191.0150  176.6890  148.2930 O   0  0  0  0  0  1  0  0  0  0  0  0
  188.8700  177.5360  146.6250 O   0  0  0  0  0  1  0  0  0  0  0  0
  190.0610  177.0190  146.1070 C   0  0  1  0  0  3  0  0  0  0  0  0
  190.6560  174.8410  142.8020 C   0  0  2  0  0  0  0  0  0  0  0  0
  191.8650  175.3560  146.4830 C   0  0  0  0  0  0  0  0  0  0  0  0
  189.5690  175.5680  142.0120 C   0  0  0  0  0  2  0  0  0  0  0  0
  191.5350  174.5970  145.2210 C   0  0  1  0  0  3  0  0  0  0  0  0
  191.8740  174.9070  141.8740 C   0  0  0  0  0  1  0  0  0  0  0  0
  190.5530  170.3200  142.0940 C   0  0  0  0  0  1  0  0  0  0  0  0
  190.6750  176.0350  147.1060 C   0  0  1  0  0  3  0  0  0  0  0  0
  188.6820  176.4790  144.1770 N   0  0  0  0  0  0  0  0  0  0  0  0
  193.7840  172.0810  143.3830 C   0  0  0  0  0  2  0  0  0  0  0  0
  187.1950  175.9490  142.3750 C   0  0  0  0  0  3  0  0  0  0  0  0
  194.0970  170.2840  139.6390 C   0  0  0  0  0  1  0  0  0  0  0  0
  192.6670  170.6720  139.9750 C   0  0  0  0  0  3  0  0  0  0  0  0
  192.0920  171.4310  138.7910 C   0  0  0  0  0  1  0  0  0  0  0  0
  186.0790  176.3900  143.1470 N   0  0  0  0  0  2  0  0  0  0  0  0
  185.5710  177.7440  143.0160 C   0  0  1  0  0  3  0  0  0  0  0  0
  186.0030  178.2870  140.6090 O   0  0  0  0  0  0  0  0  0  0  0  0
  185.0960  177.9800  141.6160 C   0  0  0  0  0  0  0  0  0  0  0  0
  183.8670  177.9170  141.3550 O   0  0  0  0  0  1  0  0  0  0  0  0
  184.4410  177.9550  144.0110 C   0  0  0  0  0  2  0  0  0  0  0  0
  185.0920  178.1680  145.6960 P   0  0  0  0  0  0  0  0  0  0  0  0
  186.3070  179.3450  145.6770 O   0  0  0  0  0  0  0  0  0  0  0  0
  183.8470  178.6660  146.7260 O   0  0  0  0  0  1  0  0  0  0  0  0
  185.6680  176.8620  146.1960 O   0  0  0  0  0  1  0  0  0  0  0  0
  1 20  1  1  0  0  0
  1  9  1  0  0  0  0
  2 22  1  0  0  0  0
  4 26  1  6  0  0  0
  4  1  1  0  0  0  0
  4  6  1  0  0  0  0
  5 10  2  0  0  0  0
  6 23  1  0  0  0  0
  7 14  1  0  0  0  0
  8  7  1  1  0  0  0
  8 18  1  0  0  0  0
  9  3  1  6  0  0  0
  9  5  1  0  0  0  0
 14 13  1  1  0  0  0
 14 21  1  0  0  0  0
 15 19  1  6  0  0  0
 15  3  1  0  0  0  0
 15  8  1  0  0  0  0
 16 11  2  0  0  0  0
 16 21  1  0  0  0  0
 17 15  1  0  0  0  0
 17  2  1  0  0  0  0
 18 10  1  6  0  0  0
 18 16  1  0  0  0  0
 21 12  1  1  0  0  0
 22  7  2  0  0  0  0
 23  5  1  0  0  0  0
 24  2  2  0  0  0  0
 24 28  1  0  0  0  0
 25 26  1  0  0  0  0
 27 26  1  0  0  0  0
 29 28  1  0  0  0  0
 29 33  1  1  0  0  0
 30 31  2  0  0  0  0
 31 29  1  0  0  0  0
 32 31  1  0  0  0  0
 33 34  1  0  0  0  0
 34 37  1  0  0  0  0
 34 36  1  0  0  0  0
 35 34  2  0  0  0  0
M  END
>  <MODEL>
9

>  <REMARK>
 VINA RESULT:      -7.0      3.794      8.662
  Name = 
  6 active torsions:
  status: ('A' for Active; 'I' for Inactive)
    1  A    between atoms: C_2  and  P_3
    2  A    between atoms: C_2  and  CA_9
    3  A    between atoms: C_6  and  C_19
    4  A    between atoms: CA_9  and  C_26
    5  A    between atoms: CA_9  and  N_32
    6  A    between atoms: N_32  and  C_37
                            x       y       z     vdW  Elec       q    Type
                         _______ _______ _______ _____ _____    ______ ____

>  <TORSDO>
F 6

$$$$
