=
 OpenBabel11072409453D

 59 65  0  0  1  0  0  0  0  0999 V2000
  189.3590  173.0710  140.9810 C   0  0  0  0  0  0  0  0  0  0  0  0
  190.4650  172.1680  138.6410 N   0  0  0  0  0  0  0  0  0  0  0  0
  189.0050  173.6130  139.7840 N   0  0  0  0  0  0  0  0  0  0  0  0
  189.5480  173.1680  138.6240 C   0  0  0  0  0  3  0  0  0  0  0  0
  190.8680  171.5990  139.8100 C   0  0  0  0  0  0  0  0  0  0  0  0
  190.3110  172.0400  141.0230 C   0  0  0  0  0  0  0  0  0  0  0  0
  188.7710  173.5570  142.1900 N   0  0  0  0  0  2  0  0  0  0  0  0
  190.7890  171.3030  142.5990 S   0  0  0  0  0  0  0  0  0  0  0  0
  191.7800  172.7490  143.0820 C   0  0  2  0  0  3  0  0  0  0  0  0
  197.7350  176.5010  143.1130 C   0  0  0  0  0  1  0  0  0  0  0  0
  194.9720  174.0380  142.7070 C   0  0  0  0  0  0  0  0  0  0  0  0
  195.8290  175.0460  142.5190 C   0  0  0  0  0  3  0  0  0  0  0  0
  193.2010  174.8240  141.0810 C   0  0  0  0  0  1  0  0  0  0  0  0
  195.2300  172.8020  143.4690 C   0  0  1  0  0  3  0  0  0  0  0  0
  197.5280  174.3380  144.3520 C   0  0  0  0  0  2  0  0  0  0  0  0
  195.4250  173.0780  144.9680 C   0  0  0  0  0  2  0  0  0  0  0  0
  194.0920  171.9770  143.2940 O   0  0  0  0  0  0  0  0  0  0  0  0
  193.1700  172.6710  142.4560 C   0  0  2  0  0  3  0  0  0  0  0  0
  196.3200  174.2810  145.2820 C   0  0  0  0  0  2  0  0  0  0  0  0
  197.2510  175.0680  143.0260 C   0  0  2  0  0  3  0  0  0  0  0  0
  193.6800  173.9950  142.1730 N   0  0  0  0  0  0  0  0  0  0  0  0
  191.8420  172.8620  144.5990 C   0  0  0  0  0  2  0  0  0  0  0  0
  188.9980  174.9030  146.2200 C   0  0  0  0  0  2  0  0  0  0  0  0
  189.8180  173.6900  145.7640 C   0  0  0  0  0  2  0  0  0  0  0  0
  191.1070  174.1040  145.0600 C   0  0  1  0  0  3  0  0  0  0  0  0
  191.9970  174.9130  146.0270 C   0  0  2  0  0  3  0  0  0  0  0  0
  189.8420  176.1500  146.5100 C   0  0  0  0  0  2  0  0  0  0  0  0
  191.2320  175.7930  147.0330 C   0  0  0  0  0  2  0  0  0  0  0  0
  193.0700  175.5800  145.3950 O   0  0  0  0  0  0  0  0  0  0  0  0
  193.5940  176.5290  146.2840 C   0  0  0  0  0  1  0  0  0  0  0  0
  187.8440  174.6760  142.2040 C   0  0  0  0  0  2  0  0  0  0  0  0
  188.5920  175.9560  141.8650 C   0  0  0  0  0  2  0  0  0  0  0  0
  188.8300  176.8430  143.0900 C   0  0  1  0  0  3  0  0  0  0  0  0
  189.8440  177.9550  142.8290 C   0  0  0  0  0  3  0  0  0  0  0  0
  190.6760  178.1890  144.0770 C   0  0  0  0  0  2  0  0  0  0  0  0
  191.2490  177.3920  142.9250 C   0  0  0  0  0  2  0  0  0  0  0  0
  187.5330  177.3420  143.7380 C   0  0  0  0  0  2  0  0  0  0  0  0
  186.8420  178.3240  142.9100 N   0  0  0  0  0  2  0  0  0  0  0  0
  186.0970  179.1490  143.7670 N   0  0  0  0  0  0  0  0  0  0  0  0
  184.8920  179.3210  143.1680 O   0  0  0  0  0  1  0  0  0  0  0  0
  184.3930  178.3600  145.3360 C   0  0  0  0  0  3  0  0  0  0  0  0
  184.8800  178.2830  147.6880 N   0  0  0  0  0  2  0  0  0  0  0  0
  183.9560  178.2700  146.5940 C   0  0  0  0  0  3  0  0  0  0  0  0
  186.3240  178.3090  147.4680 C   0  0  0  0  0  2  0  0  0  0  0  0
  186.6370  179.0630  146.1780 C   0  0  0  0  0  2  0  0  0  0  0  0
  185.8680  178.4170  145.0160 C   0  0  2  0  0  3  0  0  0  0  0  0
  191.8610  170.4790  139.7710 C   0  0  0  0  0  2  0  0  0  0  0  0
  193.1790  170.9880  139.4230 N   0  0  0  0  0  2  0  0  0  0  0  0
  193.5120  170.4490  138.1170 C   0  0  0  0  0  2  0  0  0  0  0  0
  194.8010  171.0670  137.6140 C   0  0  0  0  0  2  0  0  0  0  0  0
  195.3270  171.9640  138.6300 N   0  0  0  0  0  2  0  0  0  0  0  0
  196.4550  173.8420  139.3780 O   0  0  0  0  0  0  0  0  0  0  0  0
  195.9910  173.2130  138.3910 C   0  0  0  0  0  0  0  0  0  0  0  0
  196.1570  173.7690  137.1140 O   0  0  0  0  0  0  0  0  0  0  0  0
  195.1360  174.4280  136.3800 C   0  0  0  0  0  2  0  0  0  0  0  0
  192.7410  174.5960  137.2670 C   0  0  1  0  0  3  0  0  0  0  0  0
  193.1340  175.8780  136.5630 C   0  0  0  0  0  2  0  0  0  0  0  0
  192.5960  173.5690  136.3270 O   0  0  0  0  0  1  0  0  0  0  0  0
  194.1780  175.1110  137.3470 C   0  0  2  0  0  3  0  0  0  0  0  0
  1  6  1  0  0  0  0
  1  7  1  0  0  0  0
  2  5  1  0  0  0  0
  3  1  2  0  0  0  0
  4  2  2  0  0  0  0
  4  3  1  0  0  0  0
  5  6  2  0  0  0  0
  6  8  1  0  0  0  0
  7 31  1  0  0  0  0
  8  9  1  0  0  0  0
  9 22  1  1  0  0  0
 11 14  1  0  0  0  0
 12 11  2  0  0  0  0
 12 20  1  0  0  0  0
 13 21  1  0  0  0  0
 14 16  1  1  0  0  0
 15 19  1  0  0  0  0
 16 19  1  0  0  0  0
 17 14  1  0  0  0  0
 18  9  1  1  0  0  0
 18 17  1  0  0  0  0
 20 10  1  1  0  0  0
 20 15  1  0  0  0  0
 21 18  1  0  0  0  0
 21 11  1  0  0  0  0
 23 27  1  0  0  0  0
 24 23  1  0  0  0  0
 25 22  1  1  0  0  0
 25 24  1  0  0  0  0
 25 26  1  0  0  0  0
 26 29  1  6  0  0  0
 26 28  1  0  0  0  0
 27 28  1  0  0  0  0
 29 30  1  0  0  0  0
 32 31  1  0  0  0  0
 33 32  1  6  0  0  0
 33 37  1  0  0  0  0
 34 36  1  0  0  0  0
 34 33  1  0  0  0  0
 34 35  1  0  0  0  0
 36 35  1  0  0  0  0
 38 37  1  0  0  0  0
 38 39  1  0  0  0  0
 40 39  1  0  0  0  0
 41 43  2  0  0  0  0
 43 42  1  0  0  0  0
 44 42  1  0  0  0  0
 45 44  1  0  0  0  0
 46 39  1  6  0  0  0
 46 41  1  0  0  0  0
 46 45  1  0  0  0  0
 47  5  1  0  0  0  0
 48 47  1  0  0  0  0
 49 48  1  0  0  0  0
 50 49  1  0  0  0  0
 50 51  1  0  0  0  0
 53 51  1  0  0  0  0
 53 52  2  0  0  0  0
 54 53  1  0  0  0  0
 55 54  1  0  0  0  0
 56 58  1  6  0  0  0
 56 59  1  0  0  0  0
 57 56  1  0  0  0  0
 57 59  1  0  0  0  0
 59 55  1  6  0  0  0
M  END
>  <MODEL>
1

>  <REMARK>
 VINA RESULT:      -6.0      0.000      0.000
  Name = 
  22 active torsions:
  status: ('A' for Active; 'I' for Inactive)
    1  A    between atoms: N_3  and  C_10
    2  A    between atoms: N_3  and  C_35
    3  A    between atoms: C_6  and  O_18
    4  A    between atoms: C_6  and  C_59
    5  A    between atoms: C_8  and  C_30
    6  A    between atoms: C_8  and  C_57
    7  A    between atoms: C_9  and  N_12
    8  A    between atoms: C_9  and  C_35
    9  A    between atoms: C_10  and  C_48
   10  A    between atoms: O_13  and  C_36
   11  A    between atoms: N_16  and  N_28
   12  A    between atoms: N_16  and  C_54
   13  A    between atoms: O_18  and  C_58
   14  A    between atoms: C_21  and  C_41
   15  A    between atoms: C_26  and  C_57
   16  A    between atoms: N_28  and  C_56
   17  A    between atoms: C_30  and  N_55
   18  A    between atoms: C_33  and  S_34
   19  A    between atoms: C_33  and  C_41
   20  A    between atoms: C_33  and  C_47
   21  A    between atoms: S_34  and  C_53
   22  A    between atoms: C_54  and  C_57
                            x       y       z     vdW  Elec       q    Type
                         _______ _______ _______ _____ _____    ______ ____

>  <TORSDO>
F 22

$$$$
=
 OpenBabel11072409453D

 59 65  0  0  1  0  0  0  0  0999 V2000
  191.3580  176.4140  142.7560 C   0  0  0  0  0  0  0  0  0  0  0  0
  189.5650  178.2880  143.6430 N   0  0  0  0  0  0  0  0  0  0  0  0
  191.7760  177.6380  143.1770 N   0  0  0  0  0  0  0  0  0  0  0  0
  190.8930  178.5680  143.6180 C   0  0  0  0  0  3  0  0  0  0  0  0
  189.0890  177.0850  143.2200 C   0  0  0  0  0  0  0  0  0  0  0  0
  189.9880  176.1050  142.7660 C   0  0  0  0  0  0  0  0  0  0  0  0
  192.3090  175.4510  142.2960 N   0  0  0  0  0  2  0  0  0  0  0  0
  189.4150  174.4850  142.2180 S   0  0  0  0  0  0  0  0  0  0  0  0
  190.2580  173.6210  143.5780 C   0  0  2  0  0  3  0  0  0  0  0  0
  195.8620  170.2250  141.0100 C   0  0  0  0  0  1  0  0  0  0  0  0
  192.5980  171.3580  142.4000 C   0  0  0  0  0  0  0  0  0  0  0  0
  193.5820  170.9920  141.5730 C   0  0  0  0  0  3  0  0  0  0  0  0
  191.1770  172.5600  140.6870 C   0  0  0  0  0  1  0  0  0  0  0  0
  192.4190  170.9120  143.7950 C   0  0  1  0  0  3  0  0  0  0  0  0
  195.1290  169.9590  143.3860 C   0  0  0  0  0  2  0  0  0  0  0  0
  193.5440  171.4160  144.7120 C   0  0  0  0  0  2  0  0  0  0  0  0
  191.1860  171.4540  144.2340 O   0  0  0  0  0  0  0  0  0  0  0  0
  190.6240  172.2010  143.1560 C   0  0  2  0  0  3  0  0  0  0  0  0
  194.9520  171.2830  144.1220 C   0  0  0  0  0  2  0  0  0  0  0  0
  194.6700  170.0030  141.9190 C   0  0  2  0  0  3  0  0  0  0  0  0
  191.5550  172.2200  142.0490 N   0  0  0  0  0  0  0  0  0  0  0  0
  189.3920  173.6400  144.8310 C   0  0  0  0  0  2  0  0  0  0  0  0
  192.4580  175.0630  146.6900 C   0  0  0  0  0  2  0  0  0  0  0  0
  191.6010  174.5070  145.5470 C   0  0  0  0  0  2  0  0  0  0  0  0
  190.1680  174.2280  145.9920 C   0  0  1  0  0  3  0  0  0  0  0  0
  189.4990  175.5370  146.4610 C   0  0  2  0  0  3  0  0  0  0  0  0
  191.6590  175.8350  147.7480 C   0  0  0  0  0  2  0  0  0  0  0  0
  190.4460  176.5410  147.1460 C   0  0  0  0  0  2  0  0  0  0  0  0
  188.2840  175.3440  147.1540 O   0  0  0  0  0  0  0  0  0  0  0  0
  187.4380  176.4300  146.8880 C   0  0  0  0  0  1  0  0  0  0  0  0
  193.7270  175.7540  142.1900 C   0  0  0  0  0  2  0  0  0  0  0  0
  194.5280  174.4670  142.3020 C   0  0  0  0  0  2  0  0  0  0  0  0
  195.9730  174.6270  141.8250 C   0  0  1  0  0  3  0  0  0  0  0  0
  196.9960  174.2260  142.8850 C   0  0  0  0  0  3  0  0  0  0  0  0
  197.7010  175.4650  143.4070 C   0  0  0  0  0  2  0  0  0  0  0  0
  196.6000  174.8220  144.2220 C   0  0  0  0  0  2  0  0  0  0  0  0
  196.2350  173.9870  140.4560 C   0  0  0  0  0  2  0  0  0  0  0  0
  195.0010  173.7230  139.7230 N   0  0  0  0  0  2  0  0  0  0  0  0
  195.0870  174.3970  138.4940 N   0  0  0  0  0  0  0  0  0  0  0  0
  196.3220  174.1230  138.0030 O   0  0  0  0  0  1  0  0  0  0  0  0
  192.8480  174.6360  137.5390 C   0  0  0  0  0  3  0  0  0  0  0  0
  191.5370  172.6790  137.0640 N   0  0  0  0  0  2  0  0  0  0  0  0
  191.6600  174.0910  137.2670 C   0  0  0  0  0  3  0  0  0  0  0  0
  192.7070  171.8020  137.0610 C   0  0  0  0  0  2  0  0  0  0  0  0
  193.7730  172.3620  137.9990 C   0  0  0  0  0  2  0  0  0  0  0  0
  194.1070  173.8020  137.5810 C   0  0  2  0  0  3  0  0  0  0  0  0
  187.6180  176.8160  143.2950 C   0  0  0  0  0  2  0  0  0  0  0  0
  186.9100  178.0130  143.7220 N   0  0  0  0  0  2  0  0  0  0  0  0
  186.2170  178.5370  142.5590 C   0  0  0  0  0  2  0  0  0  0  0  0
  184.7200  178.3850  142.7340 C   0  0  0  0  0  2  0  0  0  0  0  0
  184.1270  178.0060  141.4620 N   0  0  0  0  0  2  0  0  0  0  0  0
  182.3750  177.7030  139.9800 O   0  0  0  0  0  0  0  0  0  0  0  0
  182.7470  178.1470  141.0980 C   0  0  0  0  0  0  0  0  0  0  0  0
  181.7870  178.7480  141.9250 O   0  0  0  0  0  0  0  0  0  0  0  0
  180.5150  179.2020  141.4900 C   0  0  0  0  0  2  0  0  0  0  0  0
  178.6180  177.5460  141.0340 C   0  0  1  0  0  3  0  0  0  0  0  0
  178.0710  178.8190  141.6460 C   0  0  0  0  0  2  0  0  0  0  0  0
  179.0560  177.8010  139.7300 O   0  0  0  0  0  1  0  0  0  0  0  0
  179.4300  178.3110  142.0790 C   0  0  2  0  0  3  0  0  0  0  0  0
  1  6  1  0  0  0  0
  1  3  2  0  0  0  0
  3  4  1  0  0  0  0
  4  2  2  0  0  0  0
  5 47  1  0  0  0  0
  5  2  1  0  0  0  0
  6  5  2  0  0  0  0
  7  1  1  0  0  0  0
  8  6  1  0  0  0  0
  8  9  1  0  0  0  0
  9 22  1  1  0  0  0
 11 14  1  0  0  0  0
 12 20  1  0  0  0  0
 12 11  2  0  0  0  0
 13 21  1  0  0  0  0
 14 17  1  0  0  0  0
 14 16  1  1  0  0  0
 15 19  1  0  0  0  0
 18  9  1  1  0  0  0
 18 17  1  0  0  0  0
 19 16  1  0  0  0  0
 20 10  1  6  0  0  0
 20 15  1  0  0  0  0
 21 11  1  0  0  0  0
 21 18  1  0  0  0  0
 23 27  1  0  0  0  0
 24 25  1  0  0  0  0
 24 23  1  0  0  0  0
 25 22  1  6  0  0  0
 25 26  1  0  0  0  0
 26 28  1  0  0  0  0
 26 29  1  1  0  0  0
 28 27  1  0  0  0  0
 30 29  1  0  0  0  0
 31  7  1  0  0  0  0
 31 32  1  0  0  0  0
 33 37  1  6  0  0  0
 33 32  1  0  0  0  0
 33 34  1  0  0  0  0
 34 35  1  0  0  0  0
 34 36  1  0  0  0  0
 35 36  1  0  0  0  0
 38 37  1  0  0  0  0
 39 38  1  0  0  0  0
 40 39  1  0  0  0  0
 41 46  1  0  0  0  0
 42 43  1  0  0  0  0
 43 41  2  0  0  0  0
 44 42  1  0  0  0  0
 44 45  1  0  0  0  0
 46 45  1  0  0  0  0
 46 39  1  1  0  0  0
 47 48  1  0  0  0  0
 49 50  1  0  0  0  0
 49 48  1  0  0  0  0
 51 50  1  0  0  0  0
 52 53  2  0  0  0  0
 53 51  1  0  0  0  0
 53 54  1  0  0  0  0
 55 54  1  0  0  0  0
 56 58  1  6  0  0  0
 56 57  1  0  0  0  0
 56 59  1  0  0  0  0
 57 59  1  0  0  0  0
 59 55  1  6  0  0  0
M  END
>  <MODEL>
2

>  <REMARK>
 VINA RESULT:      -5.5      2.861      9.138
  Name = 
  22 active torsions:
  status: ('A' for Active; 'I' for Inactive)
    1  A    between atoms: N_3  and  C_10
    2  A    between atoms: N_3  and  C_35
    3  A    between atoms: C_6  and  O_18
    4  A    between atoms: C_6  and  C_59
    5  A    between atoms: C_8  and  C_30
    6  A    between atoms: C_8  and  C_57
    7  A    between atoms: C_9  and  N_12
    8  A    between atoms: C_9  and  C_35
    9  A    between atoms: C_10  and  C_48
   10  A    between atoms: O_13  and  C_36
   11  A    between atoms: N_16  and  N_28
   12  A    between atoms: N_16  and  C_54
   13  A    between atoms: O_18  and  C_58
   14  A    between atoms: C_21  and  C_41
   15  A    between atoms: C_26  and  C_57
   16  A    between atoms: N_28  and  C_56
   17  A    between atoms: C_30  and  N_55
   18  A    between atoms: C_33  and  S_34
   19  A    between atoms: C_33  and  C_41
   20  A    between atoms: C_33  and  C_47
   21  A    between atoms: S_34  and  C_53
   22  A    between atoms: C_54  and  C_57
                            x       y       z     vdW  Elec       q    Type
                         _______ _______ _______ _____ _____    ______ ____

>  <TORSDO>
F 22

$$$$
=
 OpenBabel11072409453D

 59 65  0  0  1  0  0  0  0  0999 V2000
  189.5100  173.4330  140.7870 C   0  0  0  0  0  0  0  0  0  0  0  0
  190.5660  171.3460  139.3570 N   0  0  0  0  0  0  0  0  0  0  0  0
  189.6680  173.5180  139.4380 N   0  0  0  0  0  0  0  0  0  0  0  0
  190.1890  172.4870  138.7260 C   0  0  0  0  0  3  0  0  0  0  0  0
  190.4450  171.2130  140.7060 C   0  0  0  0  0  0  0  0  0  0  0  0
  189.9010  172.2660  141.4610 C   0  0  0  0  0  0  0  0  0  0  0  0
  188.9580  174.5340  141.5130 N   0  0  0  0  0  2  0  0  0  0  0  0
  189.6930  172.1320  143.2480 S   0  0  0  0  0  0  0  0  0  0  0  0
  191.0400  173.3050  143.5870 C   0  0  2  0  0  3  0  0  0  0  0  0
  197.8580  175.0270  143.2800 C   0  0  0  0  0  1  0  0  0  0  0  0
  194.4990  173.4350  143.5170 C   0  0  0  0  0  0  0  0  0  0  0  0
  195.6590  173.9220  143.0640 C   0  0  0  0  0  3  0  0  0  0  0  0
  193.2920  173.3800  141.2950 C   0  0  0  0  0  1  0  0  0  0  0  0
  194.2420  172.9100  144.8710 C   0  0  1  0  0  3  0  0  0  0  0  0
  196.8010  174.1780  145.3820 C   0  0  0  0  0  2  0  0  0  0  0  0
  194.3420  174.0050  145.9440 C   0  0  0  0  0  2  0  0  0  0  0  0
  192.9220  172.3940  144.8580 O   0  0  0  0  0  0  0  0  0  0  0  0
  192.3870  172.5890  143.5500 C   0  0  2  0  0  3  0  0  0  0  0  0
  195.5440  174.9430  145.7840 C   0  0  0  0  0  2  0  0  0  0  0  0
  196.9390  173.9730  143.8640 C   0  0  2  0  0  3  0  0  0  0  0  0
  193.3380  173.3260  142.7460 N   0  0  0  0  0  0  0  0  0  0  0  0
  190.8040  174.0080  144.9170 C   0  0  0  0  0  2  0  0  0  0  0  0
  191.5670  177.3200  143.0930 C   0  0  0  0  0  2  0  0  0  0  0  0
  191.4020  175.8150  143.3300 C   0  0  0  0  0  2  0  0  0  0  0  0
  190.9000  175.5090  144.7380 C   0  0  1  0  0  3  0  0  0  0  0  0
  189.5140  176.1540  144.9520 C   0  0  2  0  0  3  0  0  0  0  0  0
  190.6290  178.1890  143.9410 C   0  0  0  0  0  2  0  0  0  0  0  0
  189.2990  177.4920  144.2210 C   0  0  0  0  0  2  0  0  0  0  0  0
  189.0940  176.1740  146.3000 O   0  0  0  0  0  0  0  0  0  0  0  0
  190.0790  176.8110  147.0690 C   0  0  0  0  0  1  0  0  0  0  0  0
  188.6160  175.7920  140.8710 C   0  0  0  0  0  2  0  0  0  0  0  0
  187.2250  175.6900  140.2690 C   0  0  0  0  0  2  0  0  0  0  0  0
  186.8370  176.9310  139.4610 C   0  0  1  0  0  3  0  0  0  0  0  0
  186.2420  176.5900  138.0970 C   0  0  0  0  0  3  0  0  0  0  0  0
  187.2380  176.9350  137.0050 C   0  0  0  0  0  2  0  0  0  0  0  0
  187.0650  175.4970  137.4430 C   0  0  0  0  0  2  0  0  0  0  0  0
  185.9950  177.9350  140.2580 C   0  0  0  0  0  2  0  0  0  0  0  0
  185.6510  177.4390  141.5850 N   0  0  0  0  0  2  0  0  0  0  0  0
  184.7630  178.3600  142.1630 N   0  0  0  0  0  0  0  0  0  0  0  0
  183.5330  178.0480  141.6820 O   0  0  0  0  0  1  0  0  0  0  0  0
  185.0890  179.3910  144.3580 C   0  0  0  0  0  3  0  0  0  0  0  0
  186.0330  178.1020  146.1530 N   0  0  0  0  0  2  0  0  0  0  0  0
  185.6680  179.3540  145.5600 C   0  0  0  0  0  3  0  0  0  0  0  0
  185.7120  176.8300  145.5110 C   0  0  0  0  0  2  0  0  0  0  0  0
  185.7170  177.0010  143.9950 C   0  0  0  0  0  2  0  0  0  0  0  0
  184.7440  178.1250  143.6100 C   0  0  2  0  0  3  0  0  0  0  0  0
  190.8500  169.9230  141.3490 C   0  0  0  0  0  2  0  0  0  0  0  0
  192.2790  169.9270  141.6280 N   0  0  0  0  0  2  0  0  0  0  0  0
  192.5560  168.7620  142.4480 C   0  0  0  0  0  2  0  0  0  0  0  0
  193.9770  168.2900  142.2150 C   0  0  0  0  0  2  0  0  0  0  0  0
  194.8720  169.4350  142.2560 N   0  0  0  0  0  2  0  0  0  0  0  0
  196.7500  170.5960  142.9510 O   0  0  0  0  0  0  0  0  0  0  0  0
  196.1240  169.5040  142.9530 C   0  0  0  0  0  0  0  0  0  0  0  0
  196.6840  168.4200  143.6440 O   0  0  0  0  0  0  0  0  0  0  0  0
  196.8830  168.3720  145.0480 C   0  0  0  0  0  2  0  0  0  0  0  0
  195.3120  169.7530  146.5220 C   0  0  1  0  0  3  0  0  0  0  0  0
  195.7540  168.5010  147.2510 C   0  0  0  0  0  2  0  0  0  0  0  0
  196.3930  170.6340  146.4030 O   0  0  0  0  0  1  0  0  0  0  0  0
  195.5360  168.4510  145.7530 C   0  0  2  0  0  3  0  0  0  0  0  0
  1  6  1  0  0  0  0
  1  7  1  0  0  0  0
  2  5  1  0  0  0  0
  3  1  2  0  0  0  0
  4  2  2  0  0  0  0
  4  3  1  0  0  0  0
  5 47  1  0  0  0  0
  5  6  2  0  0  0  0
  6  8  1  0  0  0  0
  8  9  1  0  0  0  0
  9 22  1  1  0  0  0
 11 14  1  0  0  0  0
 12 11  2  0  0  0  0
 12 20  1  0  0  0  0
 13 21  1  0  0  0  0
 14 16  1  1  0  0  0
 15 19  1  0  0  0  0
 17 14  1  0  0  0  0
 18  9  1  1  0  0  0
 18 17  1  0  0  0  0
 19 16  1  0  0  0  0
 20 10  1  6  0  0  0
 20 15  1  0  0  0  0
 21 11  1  0  0  0  0
 21 18  1  0  0  0  0
 23 24  1  0  0  0  0
 23 27  1  0  0  0  0
 24 25  1  0  0  0  0
 25 22  1  6  0  0  0
 25 26  1  0  0  0  0
 26 29  1  1  0  0  0
 27 28  1  0  0  0  0
 28 26  1  0  0  0  0
 29 30  1  0  0  0  0
 31  7  1  0  0  0  0
 32 31  1  0  0  0  0
 33 37  1  1  0  0  0
 33 32  1  0  0  0  0
 34 33  1  0  0  0  0
 35 36  1  0  0  0  0
 35 34  1  0  0  0  0
 36 34  1  0  0  0  0
 37 38  1  0  0  0  0
 38 39  1  0  0  0  0
 40 39  1  0  0  0  0
 41 43  2  0  0  0  0
 43 42  1  0  0  0  0
 44 42  1  0  0  0  0
 45 44  1  0  0  0  0
 46 39  1  6  0  0  0
 46 45  1  0  0  0  0
 46 41  1  0  0  0  0
 47 48  1  0  0  0  0
 48 49  1  0  0  0  0
 50 51  1  0  0  0  0
 50 49  1  0  0  0  0
 51 53  1  0  0  0  0
 52 53  2  0  0  0  0
 53 54  1  0  0  0  0
 54 55  1  0  0  0  0
 56 58  1  6  0  0  0
 56 57  1  0  0  0  0
 59 55  1  6  0  0  0
 59 56  1  0  0  0  0
 59 57  1  0  0  0  0
M  END
>  <MODEL>
3

>  <REMARK>
 VINA RESULT:      -5.5      2.630      4.576
  Name = 
  22 active torsions:
  status: ('A' for Active; 'I' for Inactive)
    1  A    between atoms: N_3  and  C_10
    2  A    between atoms: N_3  and  C_35
    3  A    between atoms: C_6  and  O_18
    4  A    between atoms: C_6  and  C_59
    5  A    between atoms: C_8  and  C_30
    6  A    between atoms: C_8  and  C_57
    7  A    between atoms: C_9  and  N_12
    8  A    between atoms: C_9  and  C_35
    9  A    between atoms: C_10  and  C_48
   10  A    between atoms: O_13  and  C_36
   11  A    between atoms: N_16  and  N_28
   12  A    between atoms: N_16  and  C_54
   13  A    between atoms: O_18  and  C_58
   14  A    between atoms: C_21  and  C_41
   15  A    between atoms: C_26  and  C_57
   16  A    between atoms: N_28  and  C_56
   17  A    between atoms: C_30  and  N_55
   18  A    between atoms: C_33  and  S_34
   19  A    between atoms: C_33  and  C_41
   20  A    between atoms: C_33  and  C_47
   21  A    between atoms: S_34  and  C_53
   22  A    between atoms: C_54  and  C_57
                            x       y       z     vdW  Elec       q    Type
                         _______ _______ _______ _____ _____    ______ ____

>  <TORSDO>
F 22

$$$$
=
 OpenBabel11072409453D

 59 65  0  0  1  0  0  0  0  0999 V2000
  192.3890  173.5340  141.8110 C   0  0  0  0  0  0  0  0  0  0  0  0
  194.5620  172.0190  142.5150 N   0  0  0  0  0  0  0  0  0  0  0  0
  192.3920  172.8070  142.9610 N   0  0  0  0  0  0  0  0  0  0  0  0
  193.4660  172.0580  143.3150 C   0  0  0  0  0  3  0  0  0  0  0  0
  194.6080  172.7140  141.3460 C   0  0  0  0  0  0  0  0  0  0  0  0
  193.5080  173.5030  140.9650 C   0  0  0  0  0  0  0  0  0  0  0  0
  191.2440  174.3160  141.4620 N   0  0  0  0  0  2  0  0  0  0  0  0
  193.5260  174.4640  139.4380 S   0  0  0  0  0  0  0  0  0  0  0  0
  193.1490  173.0130  138.4090 C   0  0  2  0  0  3  0  0  0  0  0  0
  196.1910  178.1540  134.6870 C   0  0  0  0  0  1  0  0  0  0  0  0
  194.6460  175.0480  136.0420 C   0  0  0  0  0  0  0  0  0  0  0  0
  194.8420  176.2280  135.4460 C   0  0  0  0  0  3  0  0  0  0  0  0
  192.1440  175.2570  136.3400 C   0  0  0  0  0  1  0  0  0  0  0  0
  195.6400  173.9660  136.1860 C   0  0  1  0  0  3  0  0  0  0  0  0
  197.4340  176.0880  135.3520 C   0  0  0  0  0  2  0  0  0  0  0  0
  196.8070  174.3720  137.0990 C   0  0  0  0  0  2  0  0  0  0  0  0
  194.9570  172.8690  136.7680 O   0  0  0  0  0  0  0  0  0  0  0  0
  193.5990  173.2540  136.9710 C   0  0  2  0  0  3  0  0  0  0  0  0
  197.3530  175.7810  136.8440 C   0  0  0  0  0  2  0  0  0  0  0  0
  196.1250  176.6420  134.7650 C   0  0  2  0  0  3  0  0  0  0  0  0
  193.4340  174.6450  136.6090 N   0  0  0  0  0  0  0  0  0  0  0  0
  191.6660  172.6770  138.4960 C   0  0  0  0  0  2  0  0  0  0  0  0
  190.7730  169.2100  139.9330 C   0  0  0  0  0  2  0  0  0  0  0  0
  190.9510  170.7310  139.8540 C   0  0  0  0  0  2  0  0  0  0  0  0
  191.4710  171.1740  138.4890 C   0  0  1  0  0  3  0  0  0  0  0  0
  190.4620  170.7810  137.3890 C   0  0  2  0  0  3  0  0  0  0  0  0
  190.4820  168.5470  138.5800 C   0  0  0  0  0  2  0  0  0  0  0  0
  189.6990  169.4680  137.6470 C   0  0  0  0  0  2  0  0  0  0  0  0
  190.9740  170.8880  136.0780 O   0  0  0  0  0  0  0  0  0  0  0  0
  189.9600  171.3680  135.2370 C   0  0  0  0  0  1  0  0  0  0  0  0
  190.0320  174.3140  142.2630 C   0  0  0  0  0  2  0  0  0  0  0  0
  189.0650  175.3530  141.7180 C   0  0  0  0  0  2  0  0  0  0  0  0
  188.4610  176.2320  142.8160 C   0  0  1  0  0  3  0  0  0  0  0  0
  187.0160  176.6320  142.5290 C   0  0  0  0  0  3  0  0  0  0  0  0
  186.9300  178.1370  142.3500 C   0  0  0  0  0  2  0  0  0  0  0  0
  186.9230  177.2310  141.1380 C   0  0  0  0  0  2  0  0  0  0  0  0
  188.6660  175.6660  144.2270 C   0  0  0  0  0  2  0  0  0  0  0  0
  188.4230  176.6630  145.2640 N   0  0  0  0  0  2  0  0  0  0  0  0
  187.9420  175.9850  146.3960 N   0  0  0  0  0  0  0  0  0  0  0  0
  188.9320  176.0510  147.3210 O   0  0  0  0  0  1  0  0  0  0  0  0
  185.6480  176.7050  145.9400 C   0  0  0  0  0  3  0  0  0  0  0  0
  184.8920  178.8480  146.7190 N   0  0  0  0  0  2  0  0  0  0  0  0
  184.7540  177.6930  145.8830 C   0  0  0  0  0  3  0  0  0  0  0  0
  185.9580  178.9480  147.7140 C   0  0  0  0  0  2  0  0  0  0  0  0
  187.1890  178.1880  147.2290 C   0  0  0  0  0  2  0  0  0  0  0  0
  186.7970  176.7360  146.9200 C   0  0  2  0  0  3  0  0  0  0  0  0
  195.8520  172.6600  140.5150 C   0  0  0  0  0  2  0  0  0  0  0  0
  196.9450  172.0820  141.2830 N   0  0  0  0  0  2  0  0  0  0  0  0
  197.9310  173.1300  141.4740 C   0  0  0  0  0  2  0  0  0  0  0  0
  197.4400  174.4240  140.8550 C   0  0  0  0  0  2  0  0  0  0  0  0
  197.7800  175.5310  141.7340 N   0  0  0  0  0  2  0  0  0  0  0  0
  197.3140  177.2030  143.2660 O   0  0  0  0  0  0  0  0  0  0  0  0
  196.8820  176.2120  142.6210 C   0  0  0  0  0  0  0  0  0  0  0  0
  195.5430  175.8360  142.8030 O   0  0  0  0  0  0  0  0  0  0  0  0
  194.9650  175.4820  144.0490 C   0  0  0  0  0  2  0  0  0  0  0  0
  193.3180  176.7950  145.5030 C   0  0  1  0  0  3  0  0  0  0  0  0
  192.7940  175.3990  145.2420 C   0  0  0  0  0  2  0  0  0  0  0  0
  194.4230  176.7310  146.3600 O   0  0  0  0  0  1  0  0  0  0  0  0
  193.5820  176.1090  144.1620 C   0  0  2  0  0  3  0  0  0  0  0  0
  1  3  2  0  0  0  0
  2  4  2  0  0  0  0
  3  4  1  0  0  0  0
  5  2  1  0  0  0  0
  6  5  2  0  0  0  0
  6  1  1  0  0  0  0
  7  1  1  0  0  0  0
  7 31  1  0  0  0  0
  8  6  1  0  0  0  0
  9 22  1  6  0  0  0
  9  8  1  0  0  0  0
 11 14  1  0  0  0  0
 11 21  1  0  0  0  0
 12 11  2  0  0  0  0
 13 21  1  0  0  0  0
 14 17  1  0  0  0  0
 14 16  1  1  0  0  0
 15 19  1  0  0  0  0
 17 18  1  0  0  0  0
 18  9  1  1  0  0  0
 19 16  1  0  0  0  0
 20 10  1  1  0  0  0
 20 15  1  0  0  0  0
 20 12  1  0  0  0  0
 21 18  1  0  0  0  0
 24 23  1  0  0  0  0
 25 22  1  1  0  0  0
 25 24  1  0  0  0  0
 26 29  1  6  0  0  0
 26 28  1  0  0  0  0
 26 25  1  0  0  0  0
 27 23  1  0  0  0  0
 28 27  1  0  0  0  0
 30 29  1  0  0  0  0
 32 31  1  0  0  0  0
 33 32  1  6  0  0  0
 33 37  1  0  0  0  0
 34 33  1  0  0  0  0
 35 34  1  0  0  0  0
 36 35  1  0  0  0  0
 36 34  1  0  0  0  0
 37 38  1  0  0  0  0
 38 39  1  0  0  0  0
 39 40  1  0  0  0  0
 41 46  1  0  0  0  0
 42 44  1  0  0  0  0
 43 41  2  0  0  0  0
 43 42  1  0  0  0  0
 45 44  1  0  0  0  0
 46 39  1  6  0  0  0
 46 45  1  0  0  0  0
 47 48  1  0  0  0  0
 47  5  1  0  0  0  0
 48 49  1  0  0  0  0
 50 49  1  0  0  0  0
 50 51  1  0  0  0  0
 51 53  1  0  0  0  0
 53 54  1  0  0  0  0
 53 52  2  0  0  0  0
 54 55  1  0  0  0  0
 56 58  1  1  0  0  0
 57 56  1  0  0  0  0
 59 55  1  1  0  0  0
 59 57  1  0  0  0  0
 59 56  1  0  0  0  0
M  END
>  <MODEL>
4

>  <REMARK>
 VINA RESULT:      -5.4      2.472      6.411
  Name = 
  22 active torsions:
  status: ('A' for Active; 'I' for Inactive)
    1  A    between atoms: N_3  and  C_10
    2  A    between atoms: N_3  and  C_35
    3  A    between atoms: C_6  and  O_18
    4  A    between atoms: C_6  and  C_59
    5  A    between atoms: C_8  and  C_30
    6  A    between atoms: C_8  and  C_57
    7  A    between atoms: C_9  and  N_12
    8  A    between atoms: C_9  and  C_35
    9  A    between atoms: C_10  and  C_48
   10  A    between atoms: O_13  and  C_36
   11  A    between atoms: N_16  and  N_28
   12  A    between atoms: N_16  and  C_54
   13  A    between atoms: O_18  and  C_58
   14  A    between atoms: C_21  and  C_41
   15  A    between atoms: C_26  and  C_57
   16  A    between atoms: N_28  and  C_56
   17  A    between atoms: C_30  and  N_55
   18  A    between atoms: C_33  and  S_34
   19  A    between atoms: C_33  and  C_41
   20  A    between atoms: C_33  and  C_47
   21  A    between atoms: S_34  and  C_53
   22  A    between atoms: C_54  and  C_57
                            x       y       z     vdW  Elec       q    Type
                         _______ _______ _______ _____ _____    ______ ____

>  <TORSDO>
F 22

$$$$
=
 OpenBabel11072409453D

 59 65  0  0  1  0  0  0  0  0999 V2000
  189.2900  172.3620  139.6270 C   0  0  0  0  0  0  0  0  0  0  0  0
  191.0700  170.4030  140.3390 N   0  0  0  0  0  0  0  0  0  0  0  0
  189.8020  171.5100  138.6970 N   0  0  0  0  0  0  0  0  0  0  0  0
  190.6820  170.5380  139.0450 C   0  0  0  0  0  3  0  0  0  0  0  0
  190.6020  171.2360  141.3070 C   0  0  0  0  0  0  0  0  0  0  0  0
  189.6840  172.2460  140.9690 C   0  0  0  0  0  0  0  0  0  0  0  0
  188.3640  173.3770  139.2340 N   0  0  0  0  0  2  0  0  0  0  0  0
  189.0120  173.3610  142.2170 S   0  0  0  0  0  0  0  0  0  0  0  0
  190.3600  174.5630  142.0050 C   0  0  2  0  0  3  0  0  0  0  0  0
  191.7970  177.4740  148.2500 C   0  0  0  0  0  1  0  0  0  0  0  0
  191.5740  175.4730  145.1160 C   0  0  0  0  0  0  0  0  0  0  0  0
  191.9150  176.3800  146.0380 C   0  0  0  0  0  3  0  0  0  0  0  0
  192.4790  176.7130  143.1060 C   0  0  0  0  0  1  0  0  0  0  0  0
  191.0620  174.1140  145.3760 C   0  0  1  0  0  3  0  0  0  0  0  0
  190.7840  175.1950  148.0540 C   0  0  0  0  0  2  0  0  0  0  0  0
  189.6780  174.1370  146.0420 C   0  0  0  0  0  2  0  0  0  0  0  0
  190.9580  173.4770  144.1140 O   0  0  0  0  0  0  0  0  0  0  0  0
  191.3910  174.4010  143.1180 C   0  0  2  0  0  3  0  0  0  0  0  0
  189.5360  175.1550  147.1780 C   0  0  0  0  0  2  0  0  0  0  0  0
  191.8760  176.1430  147.5290 C   0  0  2  0  0  3  0  0  0  0  0  0
  191.6810  175.6760  143.7380 N   0  0  0  0  0  0  0  0  0  0  0  0
  189.7990  175.9770  141.9460 C   0  0  0  0  0  2  0  0  0  0  0  0
  186.9510  176.5200  144.4900 C   0  0  0  0  0  2  0  0  0  0  0  0
  188.3620  176.5180  143.8910 C   0  0  0  0  0  2  0  0  0  0  0  0
  188.3730  175.9940  142.4590 C   0  0  1  0  0  3  0  0  0  0  0  0
  187.5040  176.9000  141.5610 C   0  0  2  0  0  3  0  0  0  0  0  0
  185.8340  176.6710  143.4490 C   0  0  0  0  0  2  0  0  0  0  0  0
  186.2740  177.5150  142.2550 C   0  0  0  0  0  2  0  0  0  0  0  0
  187.2190  176.3470  140.2930 O   0  0  0  0  0  0  0  0  0  0  0  0
  186.5210  177.2980  139.5350 C   0  0  0  0  0  1  0  0  0  0  0  0
  187.9910  173.5900  137.8450 C   0  0  0  0  0  2  0  0  0  0  0  0
  188.6040  174.8900  137.3500 C   0  0  0  0  0  2  0  0  0  0  0  0
  188.8790  174.8790  135.8450 C   0  0  1  0  0  3  0  0  0  0  0  0
  188.4530  176.1720  135.1540 C   0  0  0  0  0  3  0  0  0  0  0  0
  187.0840  175.9870  134.5240 C   0  0  0  0  0  2  0  0  0  0  0  0
  187.2180  176.7290  135.8370 C   0  0  0  0  0  2  0  0  0  0  0  0
  190.3060  174.4430  135.4920 C   0  0  0  0  0  2  0  0  0  0  0  0
  191.2710  174.8250  136.5170 N   0  0  0  0  0  2  0  0  0  0  0  0
  192.3950  175.3550  135.8630 N   0  0  0  0  0  0  0  0  0  0  0  0
  191.9950  176.5360  135.3300 O   0  0  0  0  0  1  0  0  0  0  0  0
  194.7940  175.6120  136.2680 C   0  0  0  0  0  3  0  0  0  0  0  0
  195.7300  174.9270  138.3720 N   0  0  0  0  0  2  0  0  0  0  0  0
  195.8680  175.2970  136.9950 C   0  0  0  0  0  3  0  0  0  0  0  0
  194.4340  174.9620  139.0470 C   0  0  0  0  0  2  0  0  0  0  0  0
  193.3220  174.6590  138.0460 C   0  0  0  0  0  2  0  0  0  0  0  0
  193.4120  175.6500  136.8760 C   0  0  2  0  0  3  0  0  0  0  0  0
  191.0400  171.0260  142.7240 C   0  0  0  0  0  2  0  0  0  0  0  0
  192.2180  170.1730  142.7640 N   0  0  0  0  0  2  0  0  0  0  0  0
  193.1010  170.7130  143.7820 C   0  0  0  0  0  2  0  0  0  0  0  0
  194.5200  170.2380  143.5440 C   0  0  0  0  0  2  0  0  0  0  0  0
  195.0280  170.8450  142.3250 N   0  0  0  0  0  2  0  0  0  0  0  0
  195.9310  172.5650  141.0670 O   0  0  0  0  0  0  0  0  0  0  0  0
  195.6030  172.1540  142.2110 C   0  0  0  0  0  0  0  0  0  0  0  0
  195.8140  173.0040  143.3060 O   0  0  0  0  0  0  0  0  0  0  0  0
  196.6480  174.1520  143.2890 C   0  0  0  0  0  2  0  0  0  0  0  0
  196.1710  176.3410  142.0520 C   0  0  1  0  0  3  0  0  0  0  0  0
  196.6410  176.6250  143.4630 C   0  0  0  0  0  2  0  0  0  0  0  0
  197.2360  175.8430  141.2930 O   0  0  0  0  0  1  0  0  0  0  0  0
  195.7860  175.4040  143.1970 C   0  0  2  0  0  3  0  0  0  0  0  0
  1  6  1  0  0  0  0
  2  5  1  0  0  0  0
  3  4  1  0  0  0  0
  3  1  2  0  0  0  0
  4  2  2  0  0  0  0
  5 47  1  0  0  0  0
  6  5  2  0  0  0  0
  6  8  1  0  0  0  0
  7  1  1  0  0  0  0
  9 22  1  1  0  0  0
  9  8  1  0  0  0  0
 11 14  1  0  0  0  0
 11 12  2  0  0  0  0
 12 20  1  0  0  0  0
 13 21  1  0  0  0  0
 14 16  1  6  0  0  0
 16 19  1  0  0  0  0
 17 14  1  0  0  0  0
 18  9  1  6  0  0  0
 18 21  1  0  0  0  0
 18 17  1  0  0  0  0
 19 15  1  0  0  0  0
 20 15  1  0  0  0  0
 20 10  1  1  0  0  0
 21 11  1  0  0  0  0
 24 23  1  0  0  0  0
 25 22  1  6  0  0  0
 25 24  1  0  0  0  0
 26 29  1  6  0  0  0
 26 28  1  0  0  0  0
 26 25  1  0  0  0  0
 27 23  1  0  0  0  0
 28 27  1  0  0  0  0
 30 29  1  0  0  0  0
 31  7  1  0  0  0  0
 32 31  1  0  0  0  0
 33 37  1  1  0  0  0
 33 32  1  0  0  0  0
 34 36  1  0  0  0  0
 34 33  1  0  0  0  0
 35 34  1  0  0  0  0
 35 36  1  0  0  0  0
 37 38  1  0  0  0  0
 39 38  1  0  0  0  0
 40 39  1  0  0  0  0
 41 46  1  0  0  0  0
 41 43  2  0  0  0  0
 42 44  1  0  0  0  0
 43 42  1  0  0  0  0
 45 44  1  0  0  0  0
 46 39  1  6  0  0  0
 46 45  1  0  0  0  0
 47 48  1  0  0  0  0
 48 49  1  0  0  0  0
 50 49  1  0  0  0  0
 51 50  1  0  0  0  0
 52 53  2  0  0  0  0
 53 51  1  0  0  0  0
 53 54  1  0  0  0  0
 55 54  1  0  0  0  0
 56 58  1  6  0  0  0
 56 59  1  0  0  0  0
 56 57  1  0  0  0  0
 59 55  1  6  0  0  0
 59 57  1  0  0  0  0
M  END
>  <MODEL>
5

>  <REMARK>
 VINA RESULT:      -5.4      2.631      7.076
  Name = 
  22 active torsions:
  status: ('A' for Active; 'I' for Inactive)
    1  A    between atoms: N_3  and  C_10
    2  A    between atoms: N_3  and  C_35
    3  A    between atoms: C_6  and  O_18
    4  A    between atoms: C_6  and  C_59
    5  A    between atoms: C_8  and  C_30
    6  A    between atoms: C_8  and  C_57
    7  A    between atoms: C_9  and  N_12
    8  A    between atoms: C_9  and  C_35
    9  A    between atoms: C_10  and  C_48
   10  A    between atoms: O_13  and  C_36
   11  A    between atoms: N_16  and  N_28
   12  A    between atoms: N_16  and  C_54
   13  A    between atoms: O_18  and  C_58
   14  A    between atoms: C_21  and  C_41
   15  A    between atoms: C_26  and  C_57
   16  A    between atoms: N_28  and  C_56
   17  A    between atoms: C_30  and  N_55
   18  A    between atoms: C_33  and  S_34
   19  A    between atoms: C_33  and  C_41
   20  A    between atoms: C_33  and  C_47
   21  A    between atoms: S_34  and  C_53
   22  A    between atoms: C_54  and  C_57
                            x       y       z     vdW  Elec       q    Type
                         _______ _______ _______ _____ _____    ______ ____

>  <TORSDO>
F 22

$$$$
=
 OpenBabel11072409453D

 59 65  0  0  1  0  0  0  0  0999 V2000
  190.2700  173.4590  141.9800 C   0  0  0  0  0  0  0  0  0  0  0  0
  191.4520  171.3370  143.2510 N   0  0  0  0  0  0  0  0  0  0  0  0
  189.5230  172.4310  142.4680 N   0  0  0  0  0  0  0  0  0  0  0  0
  190.1030  171.3800  143.0990 C   0  0  0  0  0  3  0  0  0  0  0  0
  192.2480  172.3300  142.7700 C   0  0  0  0  0  0  0  0  0  0  0  0
  191.6660  173.4320  142.1200 C   0  0  0  0  0  0  0  0  0  0  0  0
  189.6330  174.5560  141.3200 N   0  0  0  0  0  2  0  0  0  0  0  0
  192.6730  174.7880  141.4860 S   0  0  0  0  0  0  0  0  0  0  0  0
  193.2140  173.8340  140.0360 C   0  0  2  0  0  3  0  0  0  0  0  0
  197.9410  172.2290  135.0740 C   0  0  0  0  0  1  0  0  0  0  0  0
  195.9780  173.4790  137.9820 C   0  0  0  0  0  0  0  0  0  0  0  0
  196.7840  172.7640  137.1910 C   0  0  0  0  0  3  0  0  0  0  0  0
  195.5960  171.6970  139.7340 C   0  0  0  0  0  1  0  0  0  0  0  0
  195.6950  174.9230  137.8640 C   0  0  1  0  0  3  0  0  0  0  0  0
  196.9840  174.5290  135.2950 C   0  0  0  0  0  2  0  0  0  0  0  0
  194.9300  175.2580  136.5750 C   0  0  0  0  0  2  0  0  0  0  0  0
  194.8940  175.2670  138.9810 O   0  0  0  0  0  0  0  0  0  0  0  0
  194.6930  174.0870  139.7590 C   0  0  2  0  0  3  0  0  0  0  0  0
  195.4590  174.5550  135.3210 C   0  0  0  0  0  2  0  0  0  0  0  0
  197.5930  173.3350  136.0500 C   0  0  2  0  0  3  0  0  0  0  0  0
  195.2890  172.9570  139.0790 N   0  0  0  0  0  0  0  0  0  0  0  0
  192.3420  174.1660  138.8330 C   0  0  0  0  0  2  0  0  0  0  0  0
  191.5530  170.4190  138.3590 C   0  0  0  0  0  2  0  0  0  0  0  0
  191.8590  171.7460  139.0640 C   0  0  0  0  0  2  0  0  0  0  0  0
  191.9960  172.9000  138.0750 C   0  0  1  0  0  3  0  0  0  0  0  0
  190.6720  173.0930  137.3070 C   0  0  2  0  0  3  0  0  0  0  0  0
  190.8070  170.5810  137.0280 C   0  0  0  0  0  2  0  0  0  0  0  0
  189.8850  171.7980  137.0320 C   0  0  0  0  0  2  0  0  0  0  0  0
  190.7810  173.9370  136.1790 O   0  0  0  0  0  0  0  0  0  0  0  0
  189.4980  174.1660  135.6630 C   0  0  0  0  0  1  0  0  0  0  0  0
  188.2010  174.5890  141.0790 C   0  0  0  0  0  2  0  0  0  0  0  0
  187.4910  175.1030  142.3210 C   0  0  0  0  0  2  0  0  0  0  0  0
  187.4110  176.6310  142.3660 C   0  0  1  0  0  3  0  0  0  0  0  0
  185.9840  177.1550  142.2240 C   0  0  0  0  0  3  0  0  0  0  0  0
  186.0060  178.6680  142.0990 C   0  0  0  0  0  2  0  0  0  0  0  0
  185.8170  177.8100  140.8660 C   0  0  0  0  0  2  0  0  0  0  0  0
  188.1680  177.2440  143.5510 C   0  0  0  0  0  2  0  0  0  0  0  0
  189.5270  177.6390  143.1950 N   0  0  0  0  0  2  0  0  0  0  0  0
  190.4030  176.7160  143.7880 N   0  0  0  0  0  0  0  0  0  0  0  0
  191.5730  177.3770  143.9740 O   0  0  0  0  0  1  0  0  0  0  0  0
  190.7150  177.0040  146.1980 C   0  0  0  0  0  3  0  0  0  0  0  0
  190.1730  175.2040  147.6950 N   0  0  0  0  0  2  0  0  0  0  0  0
  190.8170  176.4510  147.4080 C   0  0  0  0  0  3  0  0  0  0  0  0
  189.3200  174.5410  146.7120 C   0  0  0  0  0  2  0  0  0  0  0  0
  189.8170  174.8520  145.3030 C   0  0  0  0  0  2  0  0  0  0  0  0
  189.8740  176.3750  145.1120 C   0  0  2  0  0  3  0  0  0  0  0  0
  193.7270  172.2480  142.9890 C   0  0  0  0  0  2  0  0  0  0  0  0
  194.0250  171.3030  144.0550 N   0  0  0  0  0  2  0  0  0  0  0  0
  195.3860  170.8430  143.8480 C   0  0  0  0  0  2  0  0  0  0  0  0
  196.1810  170.9790  145.1310 C   0  0  0  0  0  2  0  0  0  0  0  0
  195.8510  172.2450  145.7640 N   0  0  0  0  0  2  0  0  0  0  0  0
  196.0600  174.5240  146.1140 O   0  0  0  0  0  0  0  0  0  0  0  0
  196.3940  173.5270  145.4210 C   0  0  0  0  0  0  0  0  0  0  0  0
  197.2850  173.7300  144.3570 O   0  0  0  0  0  0  0  0  0  0  0  0
  196.9220  174.2480  143.0860 C   0  0  0  0  0  2  0  0  0  0  0  0
  196.6430  176.7910  143.1090 C   0  0  1  0  0  3  0  0  0  0  0  0
  196.9420  176.3060  141.7060 C   0  0  0  0  0  2  0  0  0  0  0  0
  195.3560  176.3890  143.4820 O   0  0  0  0  0  1  0  0  0  0  0  0
  197.5820  175.6050  142.8860 C   0  0  2  0  0  3  0  0  0  0  0  0
  1  6  1  0  0  0  0
  1  3  2  0  0  0  0
  3  4  1  0  0  0  0
  4  2  2  0  0  0  0
  5 47  1  0  0  0  0
  5  2  1  0  0  0  0
  6  5  2  0  0  0  0
  7  1  1  0  0  0  0
  8  6  1  0  0  0  0
  9 22  1  6  0  0  0
  9  8  1  0  0  0  0
 11 21  1  0  0  0  0
 12 11  2  0  0  0  0
 14 16  1  6  0  0  0
 14 11  1  0  0  0  0
 14 17  1  0  0  0  0
 15 19  1  0  0  0  0
 15 20  1  0  0  0  0
 17 18  1  0  0  0  0
 18  9  1  6  0  0  0
 19 16  1  0  0  0  0
 20 10  1  6  0  0  0
 20 12  1  0  0  0  0
 21 13  1  0  0  0  0
 21 18  1  0  0  0  0
 23 24  1  0  0  0  0
 25 22  1  1  0  0  0
 25 24  1  0  0  0  0
 26 29  1  6  0  0  0
 26 25  1  0  0  0  0
 27 28  1  0  0  0  0
 27 23  1  0  0  0  0
 28 26  1  0  0  0  0
 30 29  1  0  0  0  0
 31  7  1  0  0  0  0
 31 32  1  0  0  0  0
 33 32  1  1  0  0  0
 33 37  1  0  0  0  0
 34 33  1  0  0  0  0
 35 34  1  0  0  0  0
 36 35  1  0  0  0  0
 36 34  1  0  0  0  0
 38 37  1  0  0  0  0
 38 39  1  0  0  0  0
 39 40  1  0  0  0  0
 41 43  2  0  0  0  0
 43 42  1  0  0  0  0
 44 42  1  0  0  0  0
 45 44  1  0  0  0  0
 46 39  1  6  0  0  0
 46 45  1  0  0  0  0
 46 41  1  0  0  0  0
 47 48  1  0  0  0  0
 49 48  1  0  0  0  0
 49 50  1  0  0  0  0
 50 51  1  0  0  0  0
 53 51  1  0  0  0  0
 53 52  2  0  0  0  0
 54 53  1  0  0  0  0
 55 54  1  0  0  0  0
 56 58  1  1  0  0  0
 57 59  1  0  0  0  0
 57 56  1  0  0  0  0
 59 55  1  1  0  0  0
 59 56  1  0  0  0  0
M  END
>  <MODEL>
6

>  <REMARK>
 VINA RESULT:      -5.1      2.514      6.372
  Name = 
  22 active torsions:
  status: ('A' for Active; 'I' for Inactive)
    1  A    between atoms: N_3  and  C_10
    2  A    between atoms: N_3  and  C_35
    3  A    between atoms: C_6  and  O_18
    4  A    between atoms: C_6  and  C_59
    5  A    between atoms: C_8  and  C_30
    6  A    between atoms: C_8  and  C_57
    7  A    between atoms: C_9  and  N_12
    8  A    between atoms: C_9  and  C_35
    9  A    between atoms: C_10  and  C_48
   10  A    between atoms: O_13  and  C_36
   11  A    between atoms: N_16  and  N_28
   12  A    between atoms: N_16  and  C_54
   13  A    between atoms: O_18  and  C_58
   14  A    between atoms: C_21  and  C_41
   15  A    between atoms: C_26  and  C_57
   16  A    between atoms: N_28  and  C_56
   17  A    between atoms: C_30  and  N_55
   18  A    between atoms: C_33  and  S_34
   19  A    between atoms: C_33  and  C_41
   20  A    between atoms: C_33  and  C_47
   21  A    between atoms: S_34  and  C_53
   22  A    between atoms: C_54  and  C_57
                            x       y       z     vdW  Elec       q    Type
                         _______ _______ _______ _____ _____    ______ ____

>  <TORSDO>
F 22

$$$$
=
 OpenBabel11072409453D

 59 65  0  0  1  0  0  0  0  0999 V2000
  190.5560  172.0520  142.1510 C   0  0  0  0  0  0  0  0  0  0  0  0
  192.2190  170.9400  144.0250 N   0  0  0  0  0  0  0  0  0  0  0  0
  190.5490  172.4880  143.4400 N   0  0  0  0  0  0  0  0  0  0  0  0
  191.3710  171.9420  144.3700 C   0  0  0  0  0  3  0  0  0  0  0  0
  192.2580  170.4540  142.7540 C   0  0  0  0  0  0  0  0  0  0  0  0
  191.4190  171.0120  141.7730 C   0  0  0  0  0  0  0  0  0  0  0  0
  189.6800  172.6450  141.1900 N   0  0  0  0  0  2  0  0  0  0  0  0
  191.4480  170.4240  140.0680 S   0  0  0  0  0  0  0  0  0  0  0  0
  192.1540  171.9800  139.4440 C   0  0  2  0  0  3  0  0  0  0  0  0
  190.3900  176.7920  134.6200 C   0  0  0  0  0  1  0  0  0  0  0  0
  191.4640  173.8230  136.5960 C   0  0  0  0  0  0  0  0  0  0  0  0
  190.7440  174.7100  135.9030 C   0  0  0  0  0  3  0  0  0  0  0  0
  189.5260  172.6520  137.7210 C   0  0  0  0  0  1  0  0  0  0  0  0
  192.9110  173.5710  136.4520 C   0  0  1  0  0  3  0  0  0  0  0  0
  192.7550  176.0390  134.9350 C   0  0  0  0  0  2  0  0  0  0  0  0
  193.7540  174.7800  136.8860 C   0  0  0  0  0  2  0  0  0  0  0  0
  193.2120  172.4710  137.2940 O   0  0  0  0  0  0  0  0  0  0  0  0
  192.0020  172.0580  137.9280 C   0  0  2  0  0  3  0  0  0  0  0  0
  193.2360  176.1300  136.3790 C   0  0  0  0  0  2  0  0  0  0  0  0
  191.2910  175.5860  134.8010 C   0  0  2  0  0  3  0  0  0  0  0  0
  190.9360  172.9660  137.5650 N   0  0  0  0  0  0  0  0  0  0  0  0
  193.6060  172.1110  139.8810 C   0  0  0  0  0  2  0  0  0  0  0  0
  193.4920  175.4720  141.7710 C   0  0  0  0  0  2  0  0  0  0  0  0
  193.2370  173.9950  141.4480 C   0  0  0  0  0  2  0  0  0  0  0  0
  193.9360  173.5630  140.1630 C   0  0  1  0  0  3  0  0  0  0  0  0
  195.4630  173.7350  140.3120 C   0  0  2  0  0  3  0  0  0  0  0  0
  194.8220  176.0070  141.2260 C   0  0  0  0  0  2  0  0  0  0  0  0
  195.9000  174.9260  141.1850 C   0  0  0  0  0  2  0  0  0  0  0  0
  196.1720  173.6370  139.0950 O   0  0  0  0  0  0  0  0  0  0  0  0
  197.3150  174.4450  139.1740 C   0  0  0  0  0  1  0  0  0  0  0  0
  188.7110  173.6670  141.5520 C   0  0  0  0  0  2  0  0  0  0  0  0
  189.4220  175.0000  141.7210 C   0  0  0  0  0  2  0  0  0  0  0  0
  188.7140  175.9260  142.7120 C   0  0  1  0  0  3  0  0  0  0  0  0
  189.6780  176.8450  143.4590 C   0  0  0  0  0  3  0  0  0  0  0  0
  189.6510  176.5170  144.9410 C   0  0  0  0  0  2  0  0  0  0  0  0
  190.7900  176.0190  144.0770 C   0  0  0  0  0  2  0  0  0  0  0  0
  187.5180  176.6670  142.1020 C   0  0  0  0  0  2  0  0  0  0  0  0
  187.3920  178.0280  142.6110 N   0  0  0  0  0  2  0  0  0  0  0  0
  186.1200  178.1460  143.1930 N   0  0  0  0  0  0  0  0  0  0  0  0
  185.4660  176.9940  142.8990 O   0  0  0  0  0  1  0  0  0  0  0  0
  185.9860  176.8540  145.2660 C   0  0  0  0  0  3  0  0  0  0  0  0
  185.2640  177.9230  147.2940 N   0  0  0  0  0  2  0  0  0  0  0  0
  185.5320  176.7500  146.5170 C   0  0  0  0  0  3  0  0  0  0  0  0
  185.5540  179.2610  146.7830 C   0  0  0  0  0  2  0  0  0  0  0  0
  185.3920  179.2800  145.2650 C   0  0  0  0  0  2  0  0  0  0  0  0
  186.2900  178.1980  144.6480 C   0  0  2  0  0  3  0  0  0  0  0  0
  193.2310  169.3670  142.4190 C   0  0  0  0  0  2  0  0  0  0  0  0
  194.5710  169.9180  142.2800 N   0  0  0  0  0  2  0  0  0  0  0  0
  195.4690  169.0420  143.0110 C   0  0  0  0  0  2  0  0  0  0  0  0
  194.7410  168.4100  144.1800 C   0  0  0  0  0  2  0  0  0  0  0  0
  195.5700  168.5140  145.3690 N   0  0  0  0  0  2  0  0  0  0  0  0
  196.7020  169.6550  147.0350 O   0  0  0  0  0  0  0  0  0  0  0  0
  195.9120  169.7250  146.0570 C   0  0  0  0  0  0  0  0  0  0  0  0
  195.4180  170.9860  145.6930 O   0  0  0  0  0  0  0  0  0  0  0  0
  196.0960  171.9080  144.8540 C   0  0  0  0  0  2  0  0  0  0  0  0
  196.0230  174.3600  145.5860 C   0  0  1  0  0  3  0  0  0  0  0  0
  197.2900  174.0800  144.8060 C   0  0  0  0  0  2  0  0  0  0  0  0
  194.9210  174.3150  144.7240 O   0  0  0  0  0  1  0  0  0  0  0  0
  196.7200  173.0050  145.7070 C   0  0  2  0  0  3  0  0  0  0  0  0
  1  3  2  0  0  0  0
  2  4  2  0  0  0  0
  3  4  1  0  0  0  0
  5  2  1  0  0  0  0
  6  1  1  0  0  0  0
  6  5  2  0  0  0  0
  7 31  1  0  0  0  0
  7  1  1  0  0  0  0
  8  6  1  0  0  0  0
  9 22  1  6  0  0  0
  9  8  1  0  0  0  0
 11 21  1  0  0  0  0
 12 11  2  0  0  0  0
 14 11  1  0  0  0  0
 14 16  1  1  0  0  0
 14 17  1  0  0  0  0
 15 19  1  0  0  0  0
 17 18  1  0  0  0  0
 18  9  1  1  0  0  0
 19 16  1  0  0  0  0
 20 10  1  1  0  0  0
 20 15  1  0  0  0  0
 20 12  1  0  0  0  0
 21 13  1  0  0  0  0
 21 18  1  0  0  0  0
 24 23  1  0  0  0  0
 25 22  1  1  0  0  0
 25 26  1  0  0  0  0
 25 24  1  0  0  0  0
 26 29  1  6  0  0  0
 26 28  1  0  0  0  0
 27 23  1  0  0  0  0
 28 27  1  0  0  0  0
 29 30  1  0  0  0  0
 31 32  1  0  0  0  0
 33 32  1  6  0  0  0
 33 34  1  0  0  0  0
 34 36  1  0  0  0  0
 34 35  1  0  0  0  0
 36 35  1  0  0  0  0
 37 38  1  0  0  0  0
 37 33  1  0  0  0  0
 38 39  1  0  0  0  0
 40 39  1  0  0  0  0
 41 43  2  0  0  0  0
 43 42  1  0  0  0  0
 44 42  1  0  0  0  0
 45 44  1  0  0  0  0
 46 39  1  6  0  0  0
 46 45  1  0  0  0  0
 46 41  1  0  0  0  0
 47  5  1  0  0  0  0
 48 47  1  0  0  0  0
 48 49  1  0  0  0  0
 49 50  1  0  0  0  0
 50 51  1  0  0  0  0
 51 53  1  0  0  0  0
 53 52  2  0  0  0  0
 54 53  1  0  0  0  0
 55 54  1  0  0  0  0
 56 58  1  6  0  0  0
 56 59  1  0  0  0  0
 57 56  1  0  0  0  0
 57 59  1  0  0  0  0
 59 55  1  6  0  0  0
M  END
>  <MODEL>
7

>  <REMARK>
 VINA RESULT:      -5.1      2.243      6.065
  Name = 
  22 active torsions:
  status: ('A' for Active; 'I' for Inactive)
    1  A    between atoms: N_3  and  C_10
    2  A    between atoms: N_3  and  C_35
    3  A    between atoms: C_6  and  O_18
    4  A    between atoms: C_6  and  C_59
    5  A    between atoms: C_8  and  C_30
    6  A    between atoms: C_8  and  C_57
    7  A    between atoms: C_9  and  N_12
    8  A    between atoms: C_9  and  C_35
    9  A    between atoms: C_10  and  C_48
   10  A    between atoms: O_13  and  C_36
   11  A    between atoms: N_16  and  N_28
   12  A    between atoms: N_16  and  C_54
   13  A    between atoms: O_18  and  C_58
   14  A    between atoms: C_21  and  C_41
   15  A    between atoms: C_26  and  C_57
   16  A    between atoms: N_28  and  C_56
   17  A    between atoms: C_30  and  N_55
   18  A    between atoms: C_33  and  S_34
   19  A    between atoms: C_33  and  C_41
   20  A    between atoms: C_33  and  C_47
   21  A    between atoms: S_34  and  C_53
   22  A    between atoms: C_54  and  C_57
                            x       y       z     vdW  Elec       q    Type
                         _______ _______ _______ _____ _____    ______ ____

>  <TORSDO>
F 22

$$$$
=
 OpenBabel11072409453D

 59 65  0  0  1  0  0  0  0  0999 V2000
  191.7280  176.2010  142.6540 C   0  0  0  0  0  0  0  0  0  0  0  0
  189.6000  177.8380  143.2080 N   0  0  0  0  0  0  0  0  0  0  0  0
  191.9160  177.5130  142.9620 N   0  0  0  0  0  0  0  0  0  0  0  0
  190.8670  178.3260  143.2390 C   0  0  0  0  0  3  0  0  0  0  0  0
  189.3520  176.5390  142.8910 C   0  0  0  0  0  0  0  0  0  0  0  0
  190.4260  175.6770  142.6080 C   0  0  0  0  0  0  0  0  0  0  0  0
  192.8510  175.3650  142.3670 N   0  0  0  0  0  2  0  0  0  0  0  0
  190.1560  173.9390  142.2070 S   0  0  0  0  0  0  0  0  0  0  0  0
  191.0900  173.3620  143.6570 C   0  0  2  0  0  3  0  0  0  0  0  0
  197.3920  170.5370  142.2980 C   0  0  0  0  0  1  0  0  0  0  0  0
  193.8310  171.3400  143.0380 C   0  0  0  0  0  0  0  0  0  0  0  0
  194.9790  171.0570  142.4150 C   0  0  0  0  0  3  0  0  0  0  0  0
  192.6150  172.2960  141.0370 C   0  0  0  0  0  1  0  0  0  0  0  0
  193.4560  170.9340  144.4050 C   0  0  1  0  0  3  0  0  0  0  0  0
  196.2820  170.2860  144.5260 C   0  0  0  0  0  2  0  0  0  0  0  0
  194.3410  171.6020  145.4690 C   0  0  0  0  0  2  0  0  0  0  0  0
  192.1140  171.3470  144.5930 O   0  0  0  0  0  0  0  0  0  0  0  0
  191.6760  171.9780  143.3910 C   0  0  2  0  0  3  0  0  0  0  0  0
  195.8370  171.6110  145.1380 C   0  0  0  0  0  2  0  0  0  0  0  0
  196.0880  170.2160  143.0010 C   0  0  2  0  0  3  0  0  0  0  0  0
  192.7800  172.0580  142.4610 N   0  0  0  0  0  0  0  0  0  0  0  0
  190.2040  173.3790  144.8950 C   0  0  0  0  0  2  0  0  0  0  0  0
  189.1630  176.2570  147.2440 C   0  0  0  0  0  2  0  0  0  0  0  0
  189.1250  174.9050  146.5240 C   0  0  0  0  0  2  0  0  0  0  0  0
  190.3280  174.7120  145.6060 C   0  0  1  0  0  3  0  0  0  0  0  0
  191.6310  174.7450  146.4330 C   0  0  2  0  0  3  0  0  0  0  0  0
  190.5790  176.8060  147.4600 C   0  0  0  0  0  2  0  0  0  0  0  0
  191.6040  175.6900  147.6500 C   0  0  0  0  0  2  0  0  0  0  0  0
  192.8020  174.8630  145.6540 O   0  0  0  0  0  0  0  0  0  0  0  0
  193.8270  175.3830  146.4580 C   0  0  0  0  0  1  0  0  0  0  0  0
  194.2090  175.8810  142.3200 C   0  0  0  0  0  2  0  0  0  0  0  0
  195.1320  174.8220  141.7410 C   0  0  0  0  0  2  0  0  0  0  0  0
  196.4370  175.4080  141.1960 C   0  0  1  0  0  3  0  0  0  0  0  0
  197.6710  174.9000  141.9370 C   0  0  0  0  0  3  0  0  0  0  0  0
  197.9100  175.7490  143.1720 C   0  0  0  0  0  2  0  0  0  0  0  0
  197.2660  174.3860  143.3050 C   0  0  0  0  0  2  0  0  0  0  0  0
  196.5580  175.3060  139.6710 C   0  0  0  0  0  2  0  0  0  0  0  0
  195.3160  174.8660  139.0450 N   0  0  0  0  0  2  0  0  0  0  0  0
  195.6410  173.8610  138.1210 N   0  0  0  0  0  0  0  0  0  0  0  0
  196.5570  173.0700  138.7340 O   0  0  0  0  0  1  0  0  0  0  0  0
  194.6010  172.2060  136.6480 C   0  0  0  0  0  3  0  0  0  0  0  0
  192.2290  172.2680  136.2710 N   0  0  0  0  0  2  0  0  0  0  0  0
  193.5470  171.8300  135.9220 C   0  0  0  0  0  3  0  0  0  0  0  0
  191.9810  173.0640  137.4710 C   0  0  0  0  0  2  0  0  0  0  0  0
  193.1950  173.9400  137.7700 C   0  0  0  0  0  2  0  0  0  0  0  0
  194.4420  173.0500  137.8910 C   0  0  2  0  0  3  0  0  0  0  0  0
  187.9390  176.0440  142.8990 C   0  0  0  0  0  2  0  0  0  0  0  0
  187.2990  176.3330  141.6240 N   0  0  0  0  0  2  0  0  0  0  0  0
  186.7840  177.6880  141.7040 C   0  0  0  0  0  2  0  0  0  0  0  0
  185.7550  177.9170  140.6160 C   0  0  0  0  0  2  0  0  0  0  0  0
  184.4430  178.0650  141.2240 N   0  0  0  0  0  2  0  0  0  0  0  0
  182.9820  178.6220  142.9310 O   0  0  0  0  0  0  0  0  0  0  0  0
  184.1700  178.6320  142.5130 C   0  0  0  0  0  0  0  0  0  0  0  0
  185.1570  179.1900  143.3370 O   0  0  0  0  0  0  0  0  0  0  0  0
  185.0900  179.2490  144.7530 C   0  0  0  0  0  2  0  0  0  0  0  0
  185.7330  177.3540  146.3490 C   0  0  1  0  0  3  0  0  0  0  0  0
  186.3000  178.6700  146.8380 C   0  0  0  0  0  2  0  0  0  0  0  0
  184.3420  177.3550  146.4990 O   0  0  0  0  0  1  0  0  0  0  0  0
  186.2100  178.4080  145.3490 C   0  0  2  0  0  3  0  0  0  0  0  0
  1  3  2  0  0  0  0
  2  4  2  0  0  0  0
  3  4  1  0  0  0  0
  5 47  1  0  0  0  0
  5  2  1  0  0  0  0
  6  1  1  0  0  0  0
  6  5  2  0  0  0  0
  7  1  1  0  0  0  0
  8  6  1  0  0  0  0
  8  9  1  0  0  0  0
  9 22  1  1  0  0  0
 11 14  1  0  0  0  0
 12 20  1  0  0  0  0
 12 11  2  0  0  0  0
 13 21  1  0  0  0  0
 14 17  1  0  0  0  0
 14 16  1  1  0  0  0
 15 19  1  0  0  0  0
 18  9  1  1  0  0  0
 18 17  1  0  0  0  0
 19 16  1  0  0  0  0
 20 10  1  6  0  0  0
 20 15  1  0  0  0  0
 21 11  1  0  0  0  0
 21 18  1  0  0  0  0
 23 27  1  0  0  0  0
 24 23  1  0  0  0  0
 25 22  1  1  0  0  0
 25 26  1  0  0  0  0
 25 24  1  0  0  0  0
 26 29  1  6  0  0  0
 26 28  1  0  0  0  0
 27 28  1  0  0  0  0
 29 30  1  0  0  0  0
 31  7  1  0  0  0  0
 32 31  1  0  0  0  0
 33 37  1  6  0  0  0
 33 32  1  0  0  0  0
 33 34  1  0  0  0  0
 34 35  1  0  0  0  0
 34 36  1  0  0  0  0
 35 36  1  0  0  0  0
 38 37  1  0  0  0  0
 39 40  1  0  0  0  0
 39 38  1  0  0  0  0
 41 46  1  0  0  0  0
 42 44  1  0  0  0  0
 43 42  1  0  0  0  0
 43 41  2  0  0  0  0
 44 45  1  0  0  0  0
 45 46  1  0  0  0  0
 46 39  1  6  0  0  0
 48 49  1  0  0  0  0
 48 47  1  0  0  0  0
 50 51  1  0  0  0  0
 50 49  1  0  0  0  0
 51 53  1  0  0  0  0
 53 52  2  0  0  0  0
 53 54  1  0  0  0  0
 54 55  1  0  0  0  0
 56 58  1  6  0  0  0
 56 57  1  0  0  0  0
 59 55  1  6  0  0  0
 59 56  1  0  0  0  0
 59 57  1  0  0  0  0
M  END
>  <MODEL>
8

>  <REMARK>
 VINA RESULT:      -5.0      2.075      8.586
  Name = 
  22 active torsions:
  status: ('A' for Active; 'I' for Inactive)
    1  A    between atoms: N_3  and  C_10
    2  A    between atoms: N_3  and  C_35
    3  A    between atoms: C_6  and  O_18
    4  A    between atoms: C_6  and  C_59
    5  A    between atoms: C_8  and  C_30
    6  A    between atoms: C_8  and  C_57
    7  A    between atoms: C_9  and  N_12
    8  A    between atoms: C_9  and  C_35
    9  A    between atoms: C_10  and  C_48
   10  A    between atoms: O_13  and  C_36
   11  A    between atoms: N_16  and  N_28
   12  A    between atoms: N_16  and  C_54
   13  A    between atoms: O_18  and  C_58
   14  A    between atoms: C_21  and  C_41
   15  A    between atoms: C_26  and  C_57
   16  A    between atoms: N_28  and  C_56
   17  A    between atoms: C_30  and  N_55
   18  A    between atoms: C_33  and  S_34
   19  A    between atoms: C_33  and  C_41
   20  A    between atoms: C_33  and  C_47
   21  A    between atoms: S_34  and  C_53
   22  A    between atoms: C_54  and  C_57
                            x       y       z     vdW  Elec       q    Type
                         _______ _______ _______ _____ _____    ______ ____

>  <TORSDO>
F 22

$$$$
=
 OpenBabel11072409453D

 59 65  0  0  1  0  0  0  0  0999 V2000
  190.4500  174.9380  142.1700 C   0  0  0  0  0  0  0  0  0  0  0  0
  189.2210  172.7190  141.1320 N   0  0  0  0  0  0  0  0  0  0  0  0
  189.1760  174.6150  142.5210 N   0  0  0  0  0  0  0  0  0  0  0  0
  188.5640  173.5170  142.0120 C   0  0  0  0  0  3  0  0  0  0  0  0
  190.4910  173.0030  140.7330 C   0  0  0  0  0  0  0  0  0  0  0  0
  191.1450  174.1320  141.2550 C   0  0  0  0  0  0  0  0  0  0  0  0
  191.0710  176.1010  142.7220 N   0  0  0  0  0  2  0  0  0  0  0  0
  192.8370  174.5400  140.7810 S   0  0  0  0  0  0  0  0  0  0  0  0
  193.5050  173.0000  141.4790 C   0  0  2  0  0  3  0  0  0  0  0  0
  195.2360  168.8360  146.8840 C   0  0  0  0  0  1  0  0  0  0  0  0
  194.1960  171.5380  144.5400 C   0  0  0  0  0  0  0  0  0  0  0  0
  194.1940  170.5050  145.3890 C   0  0  0  0  0  3  0  0  0  0  0  0
  191.9030  171.1370  143.5520 C   0  0  0  0  0  1  0  0  0  0  0  0
  195.1920  172.6250  144.4910 C   0  0  1  0  0  3  0  0  0  0  0  0
  196.6340  170.8040  146.2280 C   0  0  0  0  0  2  0  0  0  0  0  0
  196.5800  172.1180  144.0700 C   0  0  0  0  0  2  0  0  0  0  0  0
  194.7250  173.5530  143.5260 O   0  0  0  0  0  0  0  0  0  0  0  0
  193.4920  173.0620  143.0040 C   0  0  2  0  0  3  0  0  0  0  0  0
  197.0140  170.8160  144.7510 C   0  0  0  0  0  2  0  0  0  0  0  0
  195.2050  170.3000  146.4920 C   0  0  2  0  0  3  0  0  0  0  0  0
  193.2170  171.7580  143.5680 N   0  0  0  0  0  0  0  0  0  0  0  0
  194.8990  172.7340  140.9290 C   0  0  0  0  0  2  0  0  0  0  0  0
  195.5910  171.5620  137.3190 C   0  0  0  0  0  2  0  0  0  0  0  0
  195.6630  172.4110  138.5940 C   0  0  0  0  0  2  0  0  0  0  0  0
  194.8180  171.8240  139.7200 C   0  0  1  0  0  3  0  0  0  0  0  0
  195.3350  170.4170  140.0860 C   0  0  2  0  0  3  0  0  0  0  0  0
  195.3110  170.0760  137.5780 C   0  0  0  0  0  2  0  0  0  0  0  0
  195.9000  169.6050  138.9060 C   0  0  0  0  0  2  0  0  0  0  0  0
  194.4560  169.6790  140.9090 O   0  0  0  0  0  0  0  0  0  0  0  0
  195.1910  169.1140  141.9600 C   0  0  0  0  0  1  0  0  0  0  0  0
  190.3640  177.0110  143.6070 C   0  0  0  0  0  2  0  0  0  0  0  0
  190.8420  176.8010  145.0350 C   0  0  0  0  0  2  0  0  0  0  0  0
  189.7580  176.2130  145.9410 C   0  0  1  0  0  3  0  0  0  0  0  0
  190.1900  174.9160  146.6190 C   0  0  0  0  0  3  0  0  0  0  0  0
  189.6920  173.7290  145.8150 C   0  0  0  0  0  2  0  0  0  0  0  0
  191.1390  174.1600  145.7100 C   0  0  0  0  0  2  0  0  0  0  0  0
  189.1590  177.2370  146.9130 C   0  0  0  0  0  2  0  0  0  0  0  0
  187.9660  177.8810  146.3740 N   0  0  0  0  0  2  0  0  0  0  0  0
  187.2350  176.9030  145.6810 N   0  0  0  0  0  0  0  0  0  0  0  0
  186.2170  176.5450  146.5020 O   0  0  0  0  0  1  0  0  0  0  0  0
  185.4500  178.3740  144.8810 C   0  0  0  0  0  3  0  0  0  0  0  0
  184.4460  177.9730  142.7350 N   0  0  0  0  0  2  0  0  0  0  0  0
  184.4460  178.5880  144.0290 C   0  0  0  0  0  3  0  0  0  0  0  0
  185.5730  177.1670  142.2720 C   0  0  0  0  0  2  0  0  0  0  0  0
  186.2360  176.4760  143.4600 C   0  0  0  0  0  2  0  0  0  0  0  0
  186.6450  177.5330  144.4960 C   0  0  2  0  0  3  0  0  0  0  0  0
  191.1800  172.0740  139.7820 C   0  0  0  0  0  2  0  0  0  0  0  0
  190.2010  171.3720  138.9660 N   0  0  0  0  0  2  0  0  0  0  0  0
  190.4420  169.9520  139.1400 C   0  0  0  0  0  2  0  0  0  0  0  0
  191.7900  169.5790  138.5560 C   0  0  0  0  0  2  0  0  0  0  0  0
  191.5860  168.7830  137.3570 N   0  0  0  0  0  2  0  0  0  0  0  0
  191.5640  168.4140  135.0720 O   0  0  0  0  0  0  0  0  0  0  0  0
  191.8640  169.1960  136.0120 C   0  0  0  0  0  0  0  0  0  0  0  0
  192.4470  170.4290  135.6880 O   0  0  0  0  0  0  0  0  0  0  0  0
  191.7820  171.6810  135.7560 C   0  0  0  0  0  2  0  0  0  0  0  0
  189.7000  172.8980  134.9000 C   0  0  1  0  0  3  0  0  0  0  0  0
  189.3230  171.5470  135.4710 C   0  0  0  0  0  2  0  0  0  0  0  0
  190.0910  173.7540  135.9360 O   0  0  0  0  0  1  0  0  0  0  0  0
  190.6430  171.7050  134.7460 C   0  0  2  0  0  3  0  0  0  0  0  0
  1  3  2  0  0  0  0
  1  7  1  0  0  0  0
  2  4  2  0  0  0  0
  4  3  1  0  0  0  0
  5  2  1  0  0  0  0
  5  6  2  0  0  0  0
  6  1  1  0  0  0  0
  7 31  1  0  0  0  0
  8  6  1  0  0  0  0
  8  9  1  0  0  0  0
  9 22  1  6  0  0  0
 11 12  2  0  0  0  0
 12 20  1  0  0  0  0
 13 21  1  0  0  0  0
 14 16  1  6  0  0  0
 14 11  1  0  0  0  0
 15 20  1  0  0  0  0
 16 19  1  0  0  0  0
 17 14  1  0  0  0  0
 18  9  1  6  0  0  0
 18 17  1  0  0  0  0
 18 21  1  0  0  0  0
 19 15  1  0  0  0  0
 20 10  1  6  0  0  0
 21 11  1  0  0  0  0
 23 27  1  0  0  0  0
 23 24  1  0  0  0  0
 24 25  1  0  0  0  0
 25 26  1  0  0  0  0
 25 22  1  1  0  0  0
 26 29  1  6  0  0  0
 27 28  1  0  0  0  0
 28 26  1  0  0  0  0
 29 30  1  0  0  0  0
 31 32  1  0  0  0  0
 33 32  1  1  0  0  0
 33 34  1  0  0  0  0
 33 37  1  0  0  0  0
 35 34  1  0  0  0  0
 36 35  1  0  0  0  0
 36 34  1  0  0  0  0
 38 37  1  0  0  0  0
 39 38  1  0  0  0  0
 39 40  1  0  0  0  0
 42 43  1  0  0  0  0
 43 41  2  0  0  0  0
 44 42  1  0  0  0  0
 44 45  1  0  0  0  0
 45 46  1  0  0  0  0
 46 41  1  0  0  0  0
 46 39  1  1  0  0  0
 47  5  1  0  0  0  0
 48 49  1  0  0  0  0
 48 47  1  0  0  0  0
 50 49  1  0  0  0  0
 51 50  1  0  0  0  0
 52 53  2  0  0  0  0
 53 51  1  0  0  0  0
 54 55  1  0  0  0  0
 54 53  1  0  0  0  0
 56 57  1  0  0  0  0
 56 58  1  1  0  0  0
 59 56  1  0  0  0  0
 59 57  1  0  0  0  0
 59 55  1  1  0  0  0
M  END
>  <MODEL>
9

>  <REMARK>
 VINA RESULT:      -5.0      2.501      5.232
  Name = 
  22 active torsions:
  status: ('A' for Active; 'I' for Inactive)
    1  A    between atoms: N_3  and  C_10
    2  A    between atoms: N_3  and  C_35
    3  A    between atoms: C_6  and  O_18
    4  A    between atoms: C_6  and  C_59
    5  A    between atoms: C_8  and  C_30
    6  A    between atoms: C_8  and  C_57
    7  A    between atoms: C_9  and  N_12
    8  A    between atoms: C_9  and  C_35
    9  A    between atoms: C_10  and  C_48
   10  A    between atoms: O_13  and  C_36
   11  A    between atoms: N_16  and  N_28
   12  A    between atoms: N_16  and  C_54
   13  A    between atoms: O_18  and  C_58
   14  A    between atoms: C_21  and  C_41
   15  A    between atoms: C_26  and  C_57
   16  A    between atoms: N_28  and  C_56
   17  A    between atoms: C_30  and  N_55
   18  A    between atoms: C_33  and  S_34
   19  A    between atoms: C_33  and  C_41
   20  A    between atoms: C_33  and  C_47
   21  A    between atoms: S_34  and  C_53
   22  A    between atoms: C_54  and  C_57
                            x       y       z     vdW  Elec       q    Type
                         _______ _______ _______ _____ _____    ______ ____

>  <TORSDO>
F 22

$$$$
