=
 OpenBabel11062422103D

 27 31  0  0  1  0  0  0  0  0999 V2000
  185.7680  179.4830  147.0420 O   0  0  0  0  0  0  0  0  0  0  0  0
  186.7170  177.7870  140.6540 C   0  0  0  0  0  1  0  0  0  0  0  0
  183.1460  178.1720  141.8150 C   0  0  0  0  0  3  0  0  0  0  0  0
  187.0130  178.8960  143.2870 O   0  0  0  0  0  0  0  0  0  0  0  0
  187.7680  175.9730  146.7310 C   0  0  0  0  0  2  0  0  0  0  0  0
  184.2620  177.8730  141.0310 C   0  0  0  0  0  3  0  0  0  0  0  0
  183.3160  178.6690  143.1080 C   0  0  0  0  0  3  0  0  0  0  0  0
  184.5960  178.8660  143.6330 C   0  0  0  0  0  0  0  0  0  0  0  0
  186.3550  177.5660  145.7320 C   0  0  2  0  0  3  0  0  0  0  0  0
  185.6060  178.8430  145.9680 C   0  0  0  0  0  0  0  0  0  0  0  0
  186.4670  176.7020  146.9550 C   0  0  0  0  0  2  0  0  0  0  0  0
  185.5500  178.0830  141.5300 C   0  0  0  0  0  0  0  0  0  0  0  0
  187.8660  177.8760  143.7880 C   0  0  0  0  0  2  0  0  0  0  0  0
  188.6670  176.8830  146.0150 N   0  0  2  0  0  0  0  0  0  0  0  0
  185.7280  178.6000  142.8270 C   0  0  0  0  0  0  0  0  0  0  0  0
  187.7820  177.8480  145.3170 C   0  0  2  0  0  3  0  0  0  0  0  0
  184.7120  179.3580  144.9750 N   0  0  0  0  0  2  0  0  0  0  0  0
  189.5710  176.1170  145.1330 C   0  0  1  0  0  3  0  0  0  0  0  0
  190.9840  176.6710  145.2290 C   0  0  0  0  0  2  0  0  0  0  0  0
  189.7150  174.6700  145.5990 C   0  0  0  0  0  2  0  0  0  0  0  0
  191.6430  175.9370  146.3790 C   0  0  1  0  0  3  0  0  0  0  0  0
  190.9040  174.6190  146.5410 C   0  0  0  0  0  2  0  0  0  0  0  0
  193.4330  175.6470  144.7310 N   0  0  0  0  0  2  0  0  0  0  0  0
  194.6940  176.3490  144.5510 C   0  0  0  0  0  2  0  0  0  0  0  0
  193.9660  176.9280  146.6710 C   0  0  0  0  0  2  0  0  0  0  0  0
  194.8210  177.3680  145.5840 N   0  0  0  0  0  2  0  0  0  0  0  0
  193.1460  175.7660  146.1490 C   0  0  1  0  0  3  0  0  0  0  0  0
  2 12  1  0  0  0  0
  3  7  1  0  0  0  0
  4 13  1  0  0  0  0
  5 11  1  0  0  0  0
  6 12  1  0  0  0  0
  6  3  2  0  0  0  0
  7  8  2  0  0  0  0
  8 17  1  0  0  0  0
  9 10  1  0  0  0  0
  9 11  1  1  0  0  0
 10  1  2  0  0  0  0
 12 15  2  0  0  0  0
 14  5  1  6  0  0  0
 15  4  1  0  0  0  0
 15  8  1  0  0  0  0
 16 13  1  6  0  0  0
 16  9  1  0  0  0  0
 16 14  1  0  0  0  0
 17 10  1  0  0  0  0
 18 19  1  1  0  0  0
 18 20  1  0  0  0  0
 18 14  1  0  0  0  0
 20 22  1  0  0  0  0
 21 19  1  6  0  0  0
 21 22  1  0  0  0  0
 23 27  1  0  0  0  0
 24 23  1  0  0  0  0
 24 26  1  0  0  0  0
 26 25  1  0  0  0  0
 27 21  1  0  0  0  0
 27 25  1  6  0  0  0
M  END
>  <MODEL>
1

>  <REMARK>
 VINA RESULT:      -8.3      0.000      0.000
  Name = 
  2 active torsions:
  status: ('A' for Active; 'I' for Inactive)
    1  A    between atoms: C_2  and  N_22
    2  A    between atoms: C_19  and  C_24
                            x       y       z     vdW  Elec       q    Type
                         _______ _______ _______ _____ _____    ______ ____

>  <TORSDO>
F 2

$$$$
=
 OpenBabel11062422103D

 27 31  0  0  1  0  0  0  0  0999 V2000
  190.7610  176.7470  146.9590 O   0  0  0  0  0  0  0  0  0  0  0  0
  185.1070  177.6620  143.5280 C   0  0  0  0  0  1  0  0  0  0  0  0
  184.9570  178.2080  147.2590 C   0  0  0  0  0  3  0  0  0  0  0  0
  187.8660  177.5210  144.3100 O   0  0  0  0  0  0  0  0  0  0  0  0
  189.6400  173.3620  145.0360 C   0  0  0  0  0  2  0  0  0  0  0  0
  184.5780  178.0500  145.9260 C   0  0  0  0  0  3  0  0  0  0  0  0
  186.2990  178.0920  147.6220 C   0  0  0  0  0  3  0  0  0  0  0  0
  187.2740  177.8100  146.6610 C   0  0  0  0  0  0  0  0  0  0  0  0
  189.0350  175.4600  145.9110 C   0  0  2  0  0  3  0  0  0  0  0  0
  189.5360  176.6450  146.6790 C   0  0  0  0  0  0  0  0  0  0  0  0
  189.6870  174.1680  146.3100 C   0  0  0  0  0  2  0  0  0  0  0  0
  185.5410  177.7900  144.9470 C   0  0  0  0  0  0  0  0  0  0  0  0
  188.1220  176.2450  143.7410 C   0  0  0  0  0  2  0  0  0  0  0  0
  189.7840  174.2970  143.9160 N   0  0  2  0  0  0  0  0  0  0  0  0
  186.8980  177.6880  145.3020 C   0  0  0  0  0  0  0  0  0  0  0  0
  189.3310  175.6110  144.4360 C   0  0  2  0  0  3  0  0  0  0  0  0
  188.6360  177.6800  147.0920 N   0  0  0  0  0  2  0  0  0  0  0  0
  189.0400  173.8020  142.7400 C   0  0  1  0  0  3  0  0  0  0  0  0
  189.8550  174.0260  141.4770 C   0  0  0  0  0  2  0  0  0  0  0  0
  188.8560  172.2870  142.7900 C   0  0  0  0  0  2  0  0  0  0  0  0
  190.7280  172.7970  141.3190 C   0  0  1  0  0  3  0  0  0  0  0  0
  190.0360  171.6680  142.0640 C   0  0  0  0  0  2  0  0  0  0  0  0
  190.6670  171.0980  139.5550 N   0  0  0  0  0  2  0  0  0  0  0  0
  190.1030  171.1260  138.2150 C   0  0  0  0  0  2  0  0  0  0  0  0
  190.1780  173.3370  138.8960 C   0  0  0  0  0  2  0  0  0  0  0  0
  189.5080  172.4340  137.9780 N   0  0  0  0  0  2  0  0  0  0  0  0
  190.9920  172.4820  139.8450 C   0  0  1  0  0  3  0  0  0  0  0  0
  2 12  1  0  0  0  0
  3  7  1  0  0  0  0
  4 15  1  0  0  0  0
  5 11  1  0  0  0  0
  6  3  2  0  0  0  0
  8 17  1  0  0  0  0
  8  7  2  0  0  0  0
  9 11  1  1  0  0  0
  9 10  1  0  0  0  0
 10  1  2  0  0  0  0
 10 17  1  0  0  0  0
 12 15  2  0  0  0  0
 12  6  1  0  0  0  0
 13  4  1  0  0  0  0
 14 16  1  0  0  0  0
 14  5  1  1  0  0  0
 15  8  1  0  0  0  0
 16 13  1  6  0  0  0
 16  9  1  0  0  0  0
 18 19  1  6  0  0  0
 18 20  1  0  0  0  0
 18 14  1  0  0  0  0
 21 19  1  6  0  0  0
 21 22  1  0  0  0  0
 22 20  1  0  0  0  0
 23 27  1  0  0  0  0
 24 23  1  0  0  0  0
 26 24  1  0  0  0  0
 26 25  1  0  0  0  0
 27 25  1  6  0  0  0
 27 21  1  0  0  0  0
M  END
>  <MODEL>
2

>  <REMARK>
 VINA RESULT:      -7.6      3.945      5.411
  Name = 
  2 active torsions:
  status: ('A' for Active; 'I' for Inactive)
    1  A    between atoms: C_2  and  N_22
    2  A    between atoms: C_19  and  C_24
                            x       y       z     vdW  Elec       q    Type
                         _______ _______ _______ _____ _____    ______ ____

>  <TORSDO>
F 2

$$$$
=
 OpenBabel11062422103D

 27 31  0  0  1  0  0  0  0  0999 V2000
  191.1620  177.4890  148.4790 O   0  0  0  0  0  0  0  0  0  0  0  0
  188.6260  177.3990  142.3030 C   0  0  0  0  0  1  0  0  0  0  0  0
  186.2260  176.7910  145.1530 C   0  0  0  0  0  3  0  0  0  0  0  0
  190.2220  177.9690  144.6210 O   0  0  0  0  0  0  0  0  0  0  0  0
  192.8960  174.6100  146.2160 C   0  0  0  0  0  2  0  0  0  0  0  0
  186.7600  176.8980  143.8680 C   0  0  0  0  0  3  0  0  0  0  0  0
  187.0340  177.0300  146.2660 C   0  0  0  0  0  3  0  0  0  0  0  0
  188.3800  177.3720  146.1080 C   0  0  0  0  0  0  0  0  0  0  0  0
  191.0700  176.0520  146.5670 C   0  0  2  0  0  3  0  0  0  0  0  0
  190.4880  177.0690  147.5010 C   0  0  0  0  0  0  0  0  0  0  0  0
  191.8770  174.9930  147.2610 C   0  0  0  0  0  2  0  0  0  0  0  0
  188.0980  177.2600  143.6890 C   0  0  0  0  0  0  0  0  0  0  0  0
  191.2740  177.0650  144.3100 C   0  0  0  0  0  2  0  0  0  0  0  0
  193.2080  175.8150  145.4420 N   0  0  2  0  0  0  0  0  0  0  0  0
  188.9140  177.5190  144.8060 C   0  0  0  0  0  0  0  0  0  0  0  0
  192.0280  176.7010  145.5930 C   0  0  2  0  0  3  0  0  0  0  0  0
  189.1690  177.5850  147.2860 N   0  0  0  0  0  2  0  0  0  0  0  0
  193.5400  175.4530  144.0480 C   0  0  1  0  0  3  0  0  0  0  0  0
  194.5890  176.4080  143.4990 C   0  0  0  0  0  2  0  0  0  0  0  0
  194.2180  174.0860  143.9710 C   0  0  0  0  0  2  0  0  0  0  0  0
  195.9320  175.8130  143.8710 C   0  0  1  0  0  3  0  0  0  0  0  0
  195.7140  174.3210  144.0640 C   0  0  0  0  0  2  0  0  0  0  0  0
  197.6860  174.9330  142.4030 N   0  0  0  0  0  2  0  0  0  0  0  0
  197.9380  175.1320  140.9850 C   0  0  0  0  0  2  0  0  0  0  0  0
  196.4370  176.7900  141.5790 C   0  0  0  0  0  2  0  0  0  0  0  0
  196.9270  176.0290  140.4450 N   0  0  0  0  0  2  0  0  0  0  0  0
  197.0010  176.1400  142.8260 C   0  0  1  0  0  3  0  0  0  0  0  0
  2 12  1  0  0  0  0
  3  7  1  0  0  0  0
  4 15  1  0  0  0  0
  5 11  1  0  0  0  0
  6  3  2  0  0  0  0
  8  7  2  0  0  0  0
  8 17  1  0  0  0  0
  9 11  1  1  0  0  0
  9 10  1  0  0  0  0
 10  1  2  0  0  0  0
 12  6  1  0  0  0  0
 12 15  2  0  0  0  0
 13  4  1  0  0  0  0
 14 16  1  0  0  0  0
 14  5  1  1  0  0  0
 15  8  1  0  0  0  0
 16 13  1  6  0  0  0
 16  9  1  0  0  0  0
 17 10  1  0  0  0  0
 18 19  1  1  0  0  0
 18 14  1  0  0  0  0
 20 18  1  0  0  0  0
 20 22  1  0  0  0  0
 21 19  1  6  0  0  0
 21 22  1  0  0  0  0
 23 27  1  0  0  0  0
 24 23  1  0  0  0  0
 26 24  1  0  0  0  0
 26 25  1  0  0  0  0
 27 25  1  6  0  0  0
 27 21  1  0  0  0  0
M  END
>  <MODEL>
3

>  <REMARK>
 VINA RESULT:      -7.4      2.637      4.778
  Name = 
  2 active torsions:
  status: ('A' for Active; 'I' for Inactive)
    1  A    between atoms: C_2  and  N_22
    2  A    between atoms: C_19  and  C_24
                            x       y       z     vdW  Elec       q    Type
                         _______ _______ _______ _____ _____    ______ ____

>  <TORSDO>
F 2

$$$$
=
 OpenBabel11062422103D

 27 31  0  0  1  0  0  0  0  0999 V2000
  191.1970  172.2230  142.4640 O   0  0  0  0  0  0  0  0  0  0  0  0
  195.0500  176.7490  145.5060 C   0  0  0  0  0  1  0  0  0  0  0  0
  196.2870  173.1830  145.4790 C   0  0  0  0  0  3  0  0  0  0  0  0
  193.2010  175.4400  143.7410 O   0  0  0  0  0  0  0  0  0  0  0  0
  189.2380  174.0030  145.5300 C   0  0  0  0  0  2  0  0  0  0  0  0
  196.1700  174.5440  145.7630 C   0  0  0  0  0  3  0  0  0  0  0  0
  195.3500  172.5600  144.6530 C   0  0  0  0  0  3  0  0  0  0  0  0
  194.2860  173.2850  144.1090 C   0  0  0  0  0  0  0  0  0  0  0  0
  191.2870  173.4600  144.5120 C   0  0  2  0  0  3  0  0  0  0  0  0
  191.9170  172.7230  143.3700 C   0  0  0  0  0  0  0  0  0  0  0  0
  190.0210  172.8240  145.0100 C   0  0  0  0  0  2  0  0  0  0  0  0
  195.1250  175.2910  145.2110 C   0  0  0  0  0  0  0  0  0  0  0  0
  192.0240  175.8290  144.4360 C   0  0  0  0  0  2  0  0  0  0  0  0
  189.5600  175.1560  144.6840 N   0  0  2  0  0  0  0  0  0  0  0  0
  194.1870  174.6730  144.3640 C   0  0  0  0  0  0  0  0  0  0  0  0
  190.8880  174.8580  144.0960 C   0  0  2  0  0  3  0  0  0  0  0  0
  193.3410  172.5890  143.2850 N   0  0  0  0  0  2  0  0  0  0  0  0
  189.4940  176.4030  145.4740 C   0  0  1  0  0  3  0  0  0  0  0  0
  188.5610  177.3970  144.8010 C   0  0  0  0  0  2  0  0  0  0  0  0
  188.8510  176.1670  146.8390 C   0  0  0  0  0  2  0  0  0  0  0  0
  187.1750  177.0990  145.3380 C   0  0  1  0  0  3  0  0  0  0  0  0
  187.3620  176.4160  146.6820 C   0  0  0  0  0  2  0  0  0  0  0  0
  185.4710  178.4760  144.2400 N   0  0  0  0  0  2  0  0  0  0  0  0
  184.2270  179.0380  144.7380 C   0  0  0  0  0  2  0  0  0  0  0  0
  185.4070  178.3970  146.6230 C   0  0  0  0  0  2  0  0  0  0  0  0
  184.0670  178.6730  146.1380 N   0  0  0  0  0  2  0  0  0  0  0  0
  186.3180  178.3650  145.4130 C   0  0  1  0  0  3  0  0  0  0  0  0
  1 10  2  0  0  0  0
  3  6  1  0  0  0  0
  4 15  1  0  0  0  0
  4 13  1  0  0  0  0
  7  3  2  0  0  0  0
  8 15  2  0  0  0  0
  8  7  1  0  0  0  0
  9 11  1  6  0  0  0
 10  9  1  0  0  0  0
 11  5  1  0  0  0  0
 12  2  1  0  0  0  0
 12  6  2  0  0  0  0
 14 18  1  0  0  0  0
 14  5  1  1  0  0  0
 15 12  1  0  0  0  0
 16 13  1  1  0  0  0
 16  9  1  0  0  0  0
 16 14  1  0  0  0  0
 17 10  1  0  0  0  0
 17  8  1  0  0  0  0
 18 19  1  6  0  0  0
 18 20  1  0  0  0  0
 21 19  1  1  0  0  0
 21 27  1  0  0  0  0
 21 22  1  0  0  0  0
 22 20  1  0  0  0  0
 23 24  1  0  0  0  0
 23 27  1  0  0  0  0
 24 26  1  0  0  0  0
 26 25  1  0  0  0  0
 27 25  1  1  0  0  0
M  END
>  <MODEL>
4

>  <REMARK>
 VINA RESULT:      -7.0      3.204      8.536
  Name = 
  2 active torsions:
  status: ('A' for Active; 'I' for Inactive)
    1  A    between atoms: C_2  and  N_22
    2  A    between atoms: C_19  and  C_24
                            x       y       z     vdW  Elec       q    Type
                         _______ _______ _______ _____ _____    ______ ____

>  <TORSDO>
F 2

$$$$
=
 OpenBabel11062422103D

 27 31  0  0  1  0  0  0  0  0999 V2000
  192.1240  174.3090  140.8100 O   0  0  0  0  0  0  0  0  0  0  0  0
  194.4320  176.9030  146.5140 C   0  0  0  0  0  1  0  0  0  0  0  0
  195.9800  173.6620  145.3520 C   0  0  0  0  0  3  0  0  0  0  0  0
  193.3260  176.5670  143.8850 O   0  0  0  0  0  0  0  0  0  0  0  0
  189.1800  174.6440  143.5730 C   0  0  0  0  0  2  0  0  0  0  0  0
  195.6460  174.7660  146.1380 C   0  0  0  0  0  3  0  0  0  0  0  0
  195.3960  173.4980  144.0950 C   0  0  0  0  0  3  0  0  0  0  0  0
  194.4700  174.4280  143.6140 C   0  0  0  0  0  0  0  0  0  0  0  0
  191.4830  174.5220  143.1070 C   0  0  2  0  0  3  0  0  0  0  0  0
  192.4920  174.3350  142.0150 C   0  0  0  0  0  0  0  0  0  0  0  0
  190.1980  173.7820  142.8690 C   0  0  0  0  0  2  0  0  0  0  0  0
  194.7390  175.7180  145.6640 C   0  0  0  0  0  0  0  0  0  0  0  0
  191.9630  176.6570  144.2790 C   0  0  0  0  0  2  0  0  0  0  0  0
  189.6170  176.0380  143.4440 N   0  0  2  0  0  0  0  0  0  0  0  0
  194.1590  175.5680  144.3920 C   0  0  0  0  0  0  0  0  0  0  0  0
  191.0830  175.9760  143.2260 C   0  0  2  0  0  3  0  0  0  0  0  0
  193.8840  174.1980  142.3250 N   0  0  0  0  0  2  0  0  0  0  0  0
  189.1950  176.8160  144.6270 C   0  0  1  0  0  3  0  0  0  0  0  0
  188.4230  178.0500  144.1900 C   0  0  0  0  0  2  0  0  0  0  0  0
  188.1910  176.0410  145.4780 C   0  0  0  0  0  2  0  0  0  0  0  0
  186.9740  177.6200  144.0780 C   0  0  1  0  0  3  0  0  0  0  0  0
  186.8040  176.4090  144.9810 C   0  0  0  0  0  2  0  0  0  0  0  0
  184.7110  178.5270  143.8350 N   0  0  0  0  0  2  0  0  0  0  0  0
  183.7730  179.0410  144.8210 C   0  0  0  0  0  2  0  0  0  0  0  0
  185.8170  178.9590  145.9040 C   0  0  0  0  0  2  0  0  0  0  0  0
  184.3850  178.9710  146.1400 N   0  0  0  0  0  2  0  0  0  0  0  0
  186.0190  178.7680  144.4140 C   0  0  1  0  0  3  0  0  0  0  0  0
  1 10  2  0  0  0  0
  3  6  1  0  0  0  0
  4 13  1  0  0  0  0
  4 15  1  0  0  0  0
  7  3  2  0  0  0  0
  8  7  1  0  0  0  0
  8 15  2  0  0  0  0
  9 11  1  6  0  0  0
  9 16  1  0  0  0  0
 10 17  1  0  0  0  0
 10  9  1  0  0  0  0
 11  5  1  0  0  0  0
 12  6  2  0  0  0  0
 12  2  1  0  0  0  0
 14  5  1  1  0  0  0
 14 18  1  0  0  0  0
 15 12  1  0  0  0  0
 16 14  1  0  0  0  0
 16 13  1  1  0  0  0
 17  8  1  0  0  0  0
 18 19  1  6  0  0  0
 18 20  1  0  0  0  0
 21 19  1  1  0  0  0
 21 27  1  0  0  0  0
 21 22  1  0  0  0  0
 22 20  1  0  0  0  0
 23 27  1  0  0  0  0
 23 24  1  0  0  0  0
 24 26  1  0  0  0  0
 25 26  1  0  0  0  0
 27 25  1  1  0  0  0
M  END
>  <MODEL>
5

>  <REMARK>
 VINA RESULT:      -7.0      3.051      8.512
  Name = 
  2 active torsions:
  status: ('A' for Active; 'I' for Inactive)
    1  A    between atoms: C_2  and  N_22
    2  A    between atoms: C_19  and  C_24
                            x       y       z     vdW  Elec       q    Type
                         _______ _______ _______ _____ _____    ______ ____

>  <TORSDO>
F 2

$$$$
=
 OpenBabel11062422103D

 27 31  0  0  1  0  0  0  0  0999 V2000
  194.5660  177.2240  146.3950 O   0  0  0  0  0  0  0  0  0  0  0  0
  192.4400  171.2650  144.2630 C   0  0  0  0  0  1  0  0  0  0  0  0
  195.8580  172.3790  143.1130 C   0  0  0  0  0  3  0  0  0  0  0  0
  192.9020  173.6330  145.8200 O   0  0  0  0  0  0  0  0  0  0  0  0
  191.1450  177.5610  144.2510 C   0  0  0  0  0  2  0  0  0  0  0  0
  194.6750  171.6510  143.2440 C   0  0  0  0  0  3  0  0  0  0  0  0
  196.0420  173.5510  143.8480 C   0  0  0  0  0  3  0  0  0  0  0  0
  195.0460  174.0110  144.7140 C   0  0  0  0  0  0  0  0  0  0  0  0
  193.0550  176.2960  144.7870 C   0  0  2  0  0  3  0  0  0  0  0  0
  194.3270  176.2940  145.5780 C   0  0  0  0  0  0  0  0  0  0  0  0
  192.6490  177.6590  144.3070 C   0  0  0  0  0  2  0  0  0  0  0  0
  193.6760  172.0840  144.1210 C   0  0  0  0  0  0  0  0  0  0  0  0
  191.7140  174.3080  145.4290 C   0  0  0  0  0  2  0  0  0  0  0  0
  190.7200  176.6720  145.3370 N   0  0  2  0  0  0  0  0  0  0  0  0
  193.8610  173.2550  144.8780 C   0  0  0  0  0  0  0  0  0  0  0  0
  191.8950  175.8160  145.6310 C   0  0  2  0  0  3  0  0  0  0  0  0
  195.2780  175.2330  145.4280 N   0  0  0  0  0  2  0  0  0  0  0  0
  189.4980  175.9400  144.9480 C   0  0  1  0  0  3  0  0  0  0  0  0
  188.4680  176.0170  146.0640 C   0  0  0  0  0  2  0  0  0  0  0  0
  188.8000  176.6050  143.7630 C   0  0  0  0  0  2  0  0  0  0  0  0
  187.6730  177.2830  145.8120 C   0  0  1  0  0  3  0  0  0  0  0  0
  187.7970  177.5930  144.3300 C   0  0  0  0  0  2  0  0  0  0  0  0
  185.9800  177.9800  147.4410 N   0  0  0  0  0  2  0  0  0  0  0  0
  184.6200  178.4630  147.2630 C   0  0  0  0  0  2  0  0  0  0  0  0
  185.2110  177.5310  145.2280 C   0  0  0  0  0  2  0  0  0  0  0  0
  184.3070  178.4870  145.8410 N   0  0  0  0  0  2  0  0  0  0  0  0
  186.2240  177.1390  146.2840 C   0  0  1  0  0  3  0  0  0  0  0  0
  3  6  2  0  0  0  0
  3  7  1  0  0  0  0
  5 11  1  0  0  0  0
  6 12  1  0  0  0  0
  7  8  2  0  0  0  0
  8 15  1  0  0  0  0
  8 17  1  0  0  0  0
  9 11  1  1  0  0  0
  9 10  1  0  0  0  0
  9 16  1  0  0  0  0
 10  1  2  0  0  0  0
 12  2  1  0  0  0  0
 12 15  2  0  0  0  0
 13  4  1  0  0  0  0
 14  5  1  6  0  0  0
 14 16  1  0  0  0  0
 15  4  1  0  0  0  0
 16 13  1  6  0  0  0
 17 10  1  0  0  0  0
 18 20  1  6  0  0  0
 18 14  1  0  0  0  0
 18 19  1  0  0  0  0
 20 22  1  0  0  0  0
 21 22  1  6  0  0  0
 21 19  1  0  0  0  0
 21 27  1  0  0  0  0
 24 23  1  0  0  0  0
 25 26  1  0  0  0  0
 26 24  1  0  0  0  0
 27 25  1  6  0  0  0
 27 23  1  0  0  0  0
M  END
>  <MODEL>
6

>  <REMARK>
 VINA RESULT:      -6.8      3.243      8.563
  Name = 
  2 active torsions:
  status: ('A' for Active; 'I' for Inactive)
    1  A    between atoms: C_2  and  N_22
    2  A    between atoms: C_19  and  C_24
                            x       y       z     vdW  Elec       q    Type
                         _______ _______ _______ _____ _____    ______ ____

>  <TORSDO>
F 2

$$$$
=
 OpenBabel11062422103D

 27 31  0  0  1  0  0  0  0  0999 V2000
  190.3920  171.1290  142.7830 O   0  0  0  0  0  0  0  0  0  0  0  0
  187.7660  174.8250  137.8820 C   0  0  0  0  0  1  0  0  0  0  0  0
  190.6240  172.5370  136.9620 C   0  0  0  0  0  3  0  0  0  0  0  0
  188.1380  173.2700  140.2670 O   0  0  0  0  0  0  0  0  0  0  0  0
  190.7210  175.0860  143.5850 C   0  0  0  0  0  2  0  0  0  0  0  0
  189.6390  173.5230  136.8930 C   0  0  0  0  0  3  0  0  0  0  0  0
  190.8150  171.8240  138.1470 C   0  0  0  0  0  3  0  0  0  0  0  0
  190.0320  172.0920  139.2730 C   0  0  0  0  0  0  0  0  0  0  0  0
  190.4210  173.3860  141.9870 C   0  0  2  0  0  3  0  0  0  0  0  0
  190.3710  171.9020  141.7880 C   0  0  0  0  0  0  0  0  0  0  0  0
  191.3550  173.8140  143.0810 C   0  0  0  0  0  2  0  0  0  0  0  0
  188.8310  173.7900  138.0020 C   0  0  0  0  0  0  0  0  0  0  0  0
  188.3040  174.3740  141.1460 C   0  0  0  0  0  2  0  0  0  0  0  0
  189.2680  174.9360  143.4570 N   0  0  2  0  0  0  0  0  0  0  0  0
  189.0070  173.0640  139.1940 C   0  0  0  0  0  0  0  0  0  0  0  0
  189.0660  173.9200  142.3960 C   0  0  2  0  0  3  0  0  0  0  0  0
  190.2860  171.3450  140.4710 N   0  0  0  0  0  2  0  0  0  0  0  0
  188.6410  176.2470  143.1920 C   0  0  1  0  0  3  0  0  0  0  0  0
  187.4020  176.4150  144.0560 C   0  0  0  0  0  2  0  0  0  0  0  0
  189.5460  177.3980  143.6260 C   0  0  0  0  0  2  0  0  0  0  0  0
  187.8820  177.0180  145.3620 C   0  0  1  0  0  3  0  0  0  0  0  0
  189.1890  177.7340  145.0620 C   0  0  0  0  0  2  0  0  0  0  0  0
  186.0680  178.6130  144.9500 N   0  0  0  0  0  2  0  0  0  0  0  0
  184.7080  178.6730  145.4620 C   0  0  0  0  0  2  0  0  0  0  0  0
  185.8180  177.1780  146.8380 C   0  0  0  0  0  2  0  0  0  0  0  0
  184.4960  177.5580  146.3750 N   0  0  0  0  0  2  0  0  0  0  0  0
  186.8200  177.9280  145.9840 C   0  0  1  0  0  3  0  0  0  0  0  0
  2 12  1  0  0  0  0
  3  7  1  0  0  0  0
  4 13  1  0  0  0  0
  6  3  2  0  0  0  0
  6 12  1  0  0  0  0
  7  8  2  0  0  0  0
  8 17  1  0  0  0  0
  9 16  1  0  0  0  0
  9 11  1  1  0  0  0
 10  9  1  0  0  0  0
 10  1  2  0  0  0  0
 11  5  1  0  0  0  0
 12 15  2  0  0  0  0
 14  5  1  6  0  0  0
 15  8  1  0  0  0  0
 15  4  1  0  0  0  0
 16 13  1  6  0  0  0
 16 14  1  0  0  0  0
 17 10  1  0  0  0  0
 18 14  1  0  0  0  0
 18 20  1  1  0  0  0
 18 19  1  0  0  0  0
 20 22  1  0  0  0  0
 21 19  1  6  0  0  0
 21 27  1  0  0  0  0
 22 21  1  0  0  0  0
 23 24  1  0  0  0  0
 23 27  1  0  0  0  0
 24 26  1  0  0  0  0
 26 25  1  0  0  0  0
 27 25  1  6  0  0  0
M  END
>  <MODEL>
7

>  <REMARK>
 VINA RESULT:      -6.8      4.501      7.421
  Name = 
  2 active torsions:
  status: ('A' for Active; 'I' for Inactive)
    1  A    between atoms: C_2  and  N_22
    2  A    between atoms: C_19  and  C_24
                            x       y       z     vdW  Elec       q    Type
                         _______ _______ _______ _____ _____    ______ ____

>  <TORSDO>
F 2

$$$$
=
 OpenBabel11062422103D

 27 31  0  0  1  0  0  0  0  0999 V2000
  190.0480  175.2250  147.6610 O   0  0  0  0  0  0  0  0  0  0  0  0
  187.0660  178.6660  142.7780 C   0  0  0  0  0  1  0  0  0  0  0  0
  184.8720  177.4160  145.5820 C   0  0  0  0  0  3  0  0  0  0  0  0
  188.9670  177.6690  144.6860 O   0  0  0  0  0  0  0  0  0  0  0  0
  190.5300  173.4080  144.0720 C   0  0  0  0  0  2  0  0  0  0  0  0
  185.2910  177.9740  144.3740 C   0  0  0  0  0  3  0  0  0  0  0  0
  185.8120  176.8980  146.4750 C   0  0  0  0  0  3  0  0  0  0  0  0
  187.1750  176.9250  146.1680 C   0  0  0  0  0  0  0  0  0  0  0  0
  189.3160  174.9210  145.4010 C   0  0  2  0  0  3  0  0  0  0  0  0
  189.1870  175.4930  146.7810 C   0  0  0  0  0  0  0  0  0  0  0  0
  189.7930  173.4980  145.3850 C   0  0  0  0  0  2  0  0  0  0  0  0
  186.6510  178.0310  144.0600 C   0  0  0  0  0  0  0  0  0  0  0  0
  189.6320  176.7850  143.7930 C   0  0  0  0  0  2  0  0  0  0  0  0
  191.1470  174.7140  143.8210 N   0  0  2  0  0  0  0  0  0  0  0  0
  187.6050  177.5260  144.9620 C   0  0  0  0  0  0  0  0  0  0  0  0
  190.3400  175.6890  144.5950 C   0  0  2  0  0  3  0  0  0  0  0  0
  188.0950  176.3600  147.1110 N   0  0  0  0  0  2  0  0  0  0  0  0
  191.2130  174.9750  142.3680 C   0  0  1  0  0  3  0  0  0  0  0  0
  192.5350  175.6420  142.0200 C   0  0  0  0  0  2  0  0  0  0  0  0
  191.2390  173.6760  141.5660 C   0  0  0  0  0  2  0  0  0  0  0  0
  193.5160  174.5150  141.7640 C   0  0  1  0  0  3  0  0  0  0  0  0
  192.6960  173.2980  141.3700 C   0  0  0  0  0  2  0  0  0  0  0  0
  195.1690  176.1800  141.0580 N   0  0  0  0  0  2  0  0  0  0  0  0
  196.5610  176.0400  140.6580 C   0  0  0  0  0  2  0  0  0  0  0  0
  195.6840  173.8990  140.5870 C   0  0  0  0  0  2  0  0  0  0  0  0
  196.9310  174.6330  140.7110 N   0  0  0  0  0  2  0  0  0  0  0  0
  194.5610  174.9080  140.7170 C   0  0  1  0  0  3  0  0  0  0  0  0
  2 12  1  0  0  0  0
  3  7  1  0  0  0  0
  4 15  1  0  0  0  0
  5 11  1  0  0  0  0
  6  3  2  0  0  0  0
  8  7  2  0  0  0  0
  8 17  1  0  0  0  0
  9 11  1  1  0  0  0
  9 10  1  0  0  0  0
 10 17  1  0  0  0  0
 10  1  2  0  0  0  0
 12  6  1  0  0  0  0
 12 15  2  0  0  0  0
 13  4  1  0  0  0  0
 14  5  1  6  0  0  0
 14 16  1  0  0  0  0
 15  8  1  0  0  0  0
 16 13  1  6  0  0  0
 16  9  1  0  0  0  0
 18 20  1  6  0  0  0
 18 14  1  0  0  0  0
 19 18  1  0  0  0  0
 21 22  1  6  0  0  0
 21 19  1  0  0  0  0
 22 20  1  0  0  0  0
 24 26  1  0  0  0  0
 24 23  1  0  0  0  0
 25 26  1  0  0  0  0
 27 25  1  1  0  0  0
 27 23  1  0  0  0  0
 27 21  1  0  0  0  0
M  END
>  <MODEL>
8

>  <REMARK>
 VINA RESULT:      -6.8      3.085      4.440
  Name = 
  2 active torsions:
  status: ('A' for Active; 'I' for Inactive)
    1  A    between atoms: C_2  and  N_22
    2  A    between atoms: C_19  and  C_24
                            x       y       z     vdW  Elec       q    Type
                         _______ _______ _______ _____ _____    ______ ____

>  <TORSDO>
F 2

$$$$
=
 OpenBabel11062422103D

 27 31  0  0  1  0  0  0  0  0999 V2000
  191.0090  171.4570  144.2430 O   0  0  0  0  0  0  0  0  0  0  0  0
  195.2800  176.4020  142.8730 C   0  0  0  0  0  1  0  0  0  0  0  0
  196.3700  173.8550  145.4370 C   0  0  0  0  0  3  0  0  0  0  0  0
  193.2380  174.3910  142.6900 O   0  0  0  0  0  0  0  0  0  0  0  0
  189.3880  175.0760  145.0740 C   0  0  0  0  0  2  0  0  0  0  0  0
  196.3300  174.9960  144.6340 C   0  0  0  0  0  3  0  0  0  0  0  0
  195.3430  172.9130  145.3620 C   0  0  0  0  0  3  0  0  0  0  0  0
  194.2660  173.1020  144.4910 C   0  0  0  0  0  0  0  0  0  0  0  0
  191.3200  173.7820  144.7230 C   0  0  2  0  0  3  0  0  0  0  0  0
  191.8220  172.3920  144.4710 C   0  0  0  0  0  0  0  0  0  0  0  0
  190.0780  173.8270  145.5630 C   0  0  0  0  0  2  0  0  0  0  0  0
  195.2730  175.1920  143.7410 C   0  0  0  0  0  0  0  0  0  0  0  0
  192.1410  175.2670  142.9110 C   0  0  0  0  0  2  0  0  0  0  0  0
  189.6820  175.2110  143.6440 N   0  0  2  0  0  0  0  0  0  0  0  0
  194.2430  174.2380  143.6480 C   0  0  0  0  0  0  0  0  0  0  0  0
  190.9430  174.4620  143.4260 C   0  0  2  0  0  3  0  0  0  0  0  0
  193.2270  172.1140  144.4700 N   0  0  0  0  0  2  0  0  0  0  0  0
  189.7330  176.6380  143.2670 C   0  0  1  0  0  3  0  0  0  0  0  0
  188.6630  176.9410  142.2300 C   0  0  0  0  0  2  0  0  0  0  0  0
  189.3650  177.5420  144.4420 C   0  0  0  0  0  2  0  0  0  0  0  0
  187.4120  177.2920  143.0100 C   0  0  1  0  0  3  0  0  0  0  0  0
  187.8670  177.7760  144.3770 C   0  0  0  0  0  2  0  0  0  0  0  0
  186.3780  177.9110  140.8760 N   0  0  0  0  0  2  0  0  0  0  0  0
  185.0170  178.3010  140.5470 C   0  0  0  0  0  2  0  0  0  0  0  0
  185.1640  178.4690  142.8510 C   0  0  0  0  0  2  0  0  0  0  0  0
  184.2170  178.3030  141.7640 N   0  0  0  0  0  2  0  0  0  0  0  0
  186.5500  178.3110  142.2600 C   0  0  1  0  0  3  0  0  0  0  0  0
  1 10  2  0  0  0  0
  2 12  1  0  0  0  0
  4 13  1  0  0  0  0
  4 15  1  0  0  0  0
  5 11  1  0  0  0  0
  6  3  2  0  0  0  0
  7  3  1  0  0  0  0
  8  7  2  0  0  0  0
  9 11  1  1  0  0  0
 10  9  1  0  0  0  0
 12  6  1  0  0  0  0
 14  5  1  1  0  0  0
 15 12  2  0  0  0  0
 15  8  1  0  0  0  0
 16 13  1  1  0  0  0
 16 14  1  0  0  0  0
 16  9  1  0  0  0  0
 17 10  1  0  0  0  0
 17  8  1  0  0  0  0
 18 19  1  6  0  0  0
 18 14  1  0  0  0  0
 18 20  1  0  0  0  0
 21 19  1  6  0  0  0
 21 22  1  0  0  0  0
 22 20  1  0  0  0  0
 23 27  1  0  0  0  0
 24 23  1  0  0  0  0
 24 26  1  0  0  0  0
 26 25  1  0  0  0  0
 27 25  1  1  0  0  0
 27 21  1  0  0  0  0
M  END
>  <MODEL>
9

>  <REMARK>
 VINA RESULT:      -6.7      3.388      8.637
  Name = 
  2 active torsions:
  status: ('A' for Active; 'I' for Inactive)
    1  A    between atoms: C_2  and  N_22
    2  A    between atoms: C_19  and  C_24
                            x       y       z     vdW  Elec       q    Type
                         _______ _______ _______ _____ _____    ______ ____

>  <TORSDO>
F 2

$$$$
