=
 OpenBabel11062422433D

 29 33  0  0  1  0  0  0  0  0999 V2000
  187.0780  177.3270  140.3530 C   0  0  0  0  0  2  0  0  0  0  0  0
  185.2890  177.9720  143.4280 C   0  0  0  0  0  0  0  0  0  0  0  0
  188.4210  177.7990  146.3280 O   0  0  0  0  0  0  0  0  0  0  0  0
  186.2270  177.6900  144.5900 C   0  0  2  0  0  3  0  0  0  0  0  0
  183.0350  178.5120  142.3380 C   0  0  0  0  0  2  0  0  0  0  0  0
  185.7050  177.6770  142.2140 C   0  0  0  0  0  0  0  0  0  0  0  0
  188.6880  177.5080  145.1290 C   0  0  0  0  0  0  0  0  0  0  0  0
  183.7390  178.5430  141.0810 O   0  0  0  0  0  0  0  0  0  0  0  0
  187.6330  177.4530  144.1520 N   0  0  0  0  0  0  0  0  0  0  0  0
  187.0100  177.2780  141.8510 C   0  0  0  0  0  0  0  0  0  0  0  0
  185.0250  178.0150  141.0260 C   0  0  0  0  0  0  0  0  0  0  0  0
  183.9760  178.7150  143.5660 C   0  0  0  0  0  2  0  0  0  0  0  0
  187.9720  177.2150  142.7610 C   0  0  0  0  0  3  0  0  0  0  0  0
  185.7450  177.8400  139.9640 N   0  0  0  0  0  0  0  0  0  0  0  0
  191.7850  175.4930  144.0730 N   0  0  0  0  0  2  0  0  0  0  0  0
  190.4520  177.8020  143.3380 C   0  0  0  0  0  2  0  0  0  0  0  0
  191.9620  177.7360  143.0790 C   0  0  0  0  0  2  0  0  0  0  0  0
  190.1190  177.2690  144.7290 C   0  0  2  0  0  3  0  0  0  0  0  0
  190.6300  175.8140  144.9300 C   0  0  1  0  0  3  0  0  0  0  0  0
  192.6560  176.6570  143.9200 C   0  0  0  0  0  2  0  0  0  0  0  0
  189.5370  174.7510  144.7630 C   0  0  2  0  0  3  0  0  0  0  0  0
  189.6410  172.7500  143.5930 C   0  0  0  0  0  0  0  0  0  0  0  0
  189.6510  171.9440  142.5850 N   0  0  0  0  0  2  0  0  0  0  0  0
  189.7130  173.6110  145.7770 C   0  0  0  0  0  3  0  0  0  0  0  0
  189.5830  174.1510  143.4410 N   0  0  0  0  0  2  0  0  0  0  0  0
  189.6630  172.2990  144.9960 C   0  0  0  0  0  3  0  0  0  0  0  0
  185.7250  176.4820  145.3780 C   0  0  0  0  0  2  0  0  0  0  0  0
  185.2190  178.2640  146.8840 O   0  0  0  0  0  1  0  0  0  0  0  0
  184.9840  176.9120  146.6320 C   0  0  0  0  0  2  0  0  0  0  0  0
  1 10  1  0  0  0  0
  2 12  1  0  0  0  0
  2  4  1  0  0  0  0
  4 27  1  6  0  0  0
  5 12  1  0  0  0  0
  6  2  2  0  0  0  0
  7  3  2  0  0  0  0
  8  5  1  0  0  0  0
  9  4  1  0  0  0  0
  9  7  1  0  0  0  0
 10  6  1  0  0  0  0
 10 13  2  0  0  0  0
 11  8  1  0  0  0  0
 11  6  1  0  0  0  0
 13  9  1  0  0  0  0
 14  1  1  0  0  0  0
 14 11  2  0  0  0  0
 16 18  1  0  0  0  0
 17 16  1  0  0  0  0
 17 20  1  0  0  0  0
 18 19  1  0  0  0  0
 18  7  1  6  0  0  0
 19 15  1  6  0  0  0
 20 15  1  0  0  0  0
 21 19  1  0  0  0  0
 21 24  1  1  0  0  0
 22 26  1  0  0  0  0
 23 22  2  0  0  0  0
 25 22  1  0  0  0  0
 25 21  1  0  0  0  0
 26 24  2  0  0  0  0
 27 29  1  0  0  0  0
 29 28  1  0  0  0  0
M  END
>  <MODEL>
1

>  <REMARK>
 VINA RESULT:      -7.6      0.000      0.000
  Name = 
  4 active torsions:
  status: ('A' for Active; 'I' for Inactive)
    1  A    between atoms: C_1  and  C_15
    2  A    between atoms: C_7  and  C_12
    3  A    between atoms: C_7  and  C_25
    4  A    between atoms: C_11  and  C_17
                            x       y       z     vdW  Elec       q    Type
                         _______ _______ _______ _____ _____    ______ ____

>  <TORSDO>
F 4

$$$$
=
 OpenBabel11062422433D

 29 33  0  0  1  0  0  0  0  0999 V2000
  190.6110  171.8990  142.4480 C   0  0  0  0  0  2  0  0  0  0  0  0
  192.5120  174.0100  144.6840 C   0  0  0  0  0  0  0  0  0  0  0  0
  190.2550  177.6360  144.6130 O   0  0  0  0  0  0  0  0  0  0  0  0
  191.9780  175.4280  144.5670 C   0  0  2  0  0  3  0  0  0  0  0  0
  194.1480  172.2000  145.4630 C   0  0  0  0  0  2  0  0  0  0  0  0
  192.0390  173.1020  143.8560 C   0  0  0  0  0  0  0  0  0  0  0  0
  189.9180  176.6970  143.8410 C   0  0  0  0  0  0  0  0  0  0  0  0
  193.2800  171.2480  144.8150 O   0  0  0  0  0  0  0  0  0  0  0  0
  190.7230  175.5060  143.7650 N   0  0  0  0  0  0  0  0  0  0  0  0
  190.9530  173.2640  142.9690 C   0  0  0  0  0  0  0  0  0  0  0  0
  192.3150  171.7220  143.9330 C   0  0  0  0  0  0  0  0  0  0  0  0
  193.4330  173.5460  145.7950 C   0  0  0  0  0  2  0  0  0  0  0  0
  190.2670  174.3980  142.9460 C   0  0  0  0  0  3  0  0  0  0  0  0
  191.5480  171.0090  143.1710 N   0  0  0  0  0  0  0  0  0  0  0  0
  186.2070  177.4380  143.1710 N   0  0  0  0  0  2  0  0  0  0  0  0
  188.6740  177.9730  142.0430 C   0  0  0  0  0  2  0  0  0  0  0  0
  187.4610  177.9090  141.1080 C   0  0  0  0  0  2  0  0  0  0  0  0
  188.6480  176.8190  143.0410 C   0  0  2  0  0  3  0  0  0  0  0  0
  187.3360  176.8030  143.8750 C   0  0  1  0  0  3  0  0  0  0  0  0
  186.2740  177.1680  141.7360 C   0  0  0  0  0  2  0  0  0  0  0  0
  187.4910  177.4070  145.2760 C   0  0  2  0  0  3  0  0  0  0  0  0
  185.8270  178.0370  146.7660 C   0  0  0  0  0  0  0  0  0  0  0  0
  184.8840  178.7480  147.2880 N   0  0  0  0  0  2  0  0  0  0  0  0
  187.3840  176.3250  146.3610 C   0  0  0  0  0  3  0  0  0  0  0  0
  186.4500  178.3830  145.5490 N   0  0  0  0  0  2  0  0  0  0  0  0
  186.3660  176.8160  147.3900 C   0  0  0  0  0  3  0  0  0  0  0  0
  193.0400  176.3310  143.9470 C   0  0  0  0  0  2  0  0  0  0  0  0
  195.1340  176.5840  145.0670 O   0  0  0  0  0  1  0  0  0  0  0  0
  193.8270  177.0700  145.0170 C   0  0  0  0  0  2  0  0  0  0  0  0
  1 10  1  0  0  0  0
  1 14  1  0  0  0  0
  2 12  1  0  0  0  0
  4 27  1  6  0  0  0
  4  2  1  0  0  0  0
  5 12  1  0  0  0  0
  6 11  1  0  0  0  0
  6  2  2  0  0  0  0
  7  3  2  0  0  0  0
  8  5  1  0  0  0  0
  9  7  1  0  0  0  0
  9  4  1  0  0  0  0
 10  6  1  0  0  0  0
 11  8  1  0  0  0  0
 13 10  2  0  0  0  0
 13  9  1  0  0  0  0
 14 11  2  0  0  0  0
 16 18  1  0  0  0  0
 17 20  1  0  0  0  0
 17 16  1  0  0  0  0
 18  7  1  1  0  0  0
 18 19  1  0  0  0  0
 19 15  1  6  0  0  0
 19 21  1  0  0  0  0
 20 15  1  0  0  0  0
 21 25  1  0  0  0  0
 21 24  1  1  0  0  0
 22 23  2  0  0  0  0
 22 26  1  0  0  0  0
 24 26  2  0  0  0  0
 25 22  1  0  0  0  0
 27 29  1  0  0  0  0
 29 28  1  0  0  0  0
M  END
>  <MODEL>
2

>  <REMARK>
 VINA RESULT:      -7.3      2.885      7.284
  Name = 
  4 active torsions:
  status: ('A' for Active; 'I' for Inactive)
    1  A    between atoms: C_1  and  C_15
    2  A    between atoms: C_7  and  C_12
    3  A    between atoms: C_7  and  C_25
    4  A    between atoms: C_11  and  C_17
                            x       y       z     vdW  Elec       q    Type
                         _______ _______ _______ _____ _____    ______ ____

>  <TORSDO>
F 4

$$$$
=
 OpenBabel11062422433D

 29 33  0  0  1  0  0  0  0  0999 V2000
  189.1400  173.9520  140.8180 C   0  0  0  0  0  2  0  0  0  0  0  0
  188.8350  176.5560  143.3070 C   0  0  0  0  0  0  0  0  0  0  0  0
  192.1970  175.7760  145.8240 O   0  0  0  0  0  0  0  0  0  0  0  0
  189.8170  176.2590  144.4280 C   0  0  2  0  0  3  0  0  0  0  0  0
  186.8970  177.7970  142.1830 C   0  0  0  0  0  2  0  0  0  0  0  0
  188.6950  175.6570  142.3540 C   0  0  0  0  0  0  0  0  0  0  0  0
  191.9390  174.9690  144.8890 C   0  0  0  0  0  0  0  0  0  0  0  0
  187.1370  176.9680  141.0290 O   0  0  0  0  0  0  0  0  0  0  0  0
  190.7520  175.1460  144.0940 N   0  0  0  0  0  0  0  0  0  0  0  0
  189.4900  174.5060  142.1680 C   0  0  0  0  0  0  0  0  0  0  0  0
  187.9460  175.8450  141.1750 C   0  0  0  0  0  0  0  0  0  0  0  0
  188.1290  177.8860  143.1360 C   0  0  0  0  0  2  0  0  0  0  0  0
  190.5240  174.2670  142.9620 C   0  0  0  0  0  3  0  0  0  0  0  0
  188.1590  174.9250  140.2890 N   0  0  0  0  0  0  0  0  0  0  0  0
  195.0700  173.2870  143.4260 N   0  0  0  0  0  2  0  0  0  0  0  0
  193.6840  173.3860  145.8170 C   0  0  0  0  0  2  0  0  0  0  0  0
  194.4760  172.1120  145.5030 C   0  0  0  0  0  2  0  0  0  0  0  0
  192.9050  173.8540  144.5890 C   0  0  2  0  0  3  0  0  0  0  0  0
  193.8380  174.0940  143.3690 C   0  0  1  0  0  3  0  0  0  0  0  0
  194.8020  171.9750  144.0110 C   0  0  0  0  0  2  0  0  0  0  0  0
  194.1840  175.5710  143.1430 C   0  0  2  0  0  3  0  0  0  0  0  0
  196.2750  176.5300  142.8350 C   0  0  0  0  0  0  0  0  0  0  0  0
  197.4450  176.9870  143.1320 N   0  0  0  0  0  2  0  0  0  0  0  0
  194.3570  175.8780  141.6470 C   0  0  0  0  0  3  0  0  0  0  0  0
  195.4340  175.9260  143.7930 N   0  0  0  0  0  2  0  0  0  0  0  0
  195.6880  176.6100  141.4860 C   0  0  0  0  0  3  0  0  0  0  0  0
  189.0560  175.9220  145.7070 C   0  0  0  0  0  2  0  0  0  0  0  0
  187.6980  177.5390  146.8210 O   0  0  0  0  0  1  0  0  0  0  0  0
  189.0150  177.1110  146.6520 C   0  0  0  0  0  2  0  0  0  0  0  0
  1 10  1  0  0  0  0
  2  4  1  0  0  0  0
  4 27  1  1  0  0  0
  5 12  1  0  0  0  0
  6  2  2  0  0  0  0
  7  3  2  0  0  0  0
  8 11  1  0  0  0  0
  8  5  1  0  0  0  0
  9  4  1  0  0  0  0
  9  7  1  0  0  0  0
 10  6  1  0  0  0  0
 10 13  2  0  0  0  0
 11  6  1  0  0  0  0
 12  2  1  0  0  0  0
 13  9  1  0  0  0  0
 14  1  1  0  0  0  0
 14 11  2  0  0  0  0
 15 20  1  0  0  0  0
 17 16  1  0  0  0  0
 18  7  1  1  0  0  0
 18 16  1  0  0  0  0
 19 15  1  1  0  0  0
 19 18  1  0  0  0  0
 20 17  1  0  0  0  0
 21 24  1  6  0  0  0
 21 19  1  0  0  0  0
 21 25  1  0  0  0  0
 22 23  2  0  0  0  0
 22 25  1  0  0  0  0
 26 24  2  0  0  0  0
 26 22  1  0  0  0  0
 27 29  1  0  0  0  0
 29 28  1  0  0  0  0
M  END
>  <MODEL>
3

>  <REMARK>
 VINA RESULT:      -7.1      3.062      4.998
  Name = 
  4 active torsions:
  status: ('A' for Active; 'I' for Inactive)
    1  A    between atoms: C_1  and  C_15
    2  A    between atoms: C_7  and  C_12
    3  A    between atoms: C_7  and  C_25
    4  A    between atoms: C_11  and  C_17
                            x       y       z     vdW  Elec       q    Type
                         _______ _______ _______ _____ _____    ______ ____

>  <TORSDO>
F 4

$$$$
=
 OpenBabel11062422433D

 29 33  0  0  1  0  0  0  0  0999 V2000
  192.7660  177.1420  147.3940 C   0  0  0  0  0  2  0  0  0  0  0  0
  192.2310  174.9350  144.5810 C   0  0  0  0  0  0  0  0  0  0  0  0
  188.0950  175.5730  143.7270 O   0  0  0  0  0  0  0  0  0  0  0  0
  190.7370  174.8550  144.3190 C   0  0  2  0  0  3  0  0  0  0  0  0
  194.6850  174.2670  144.2740 C   0  0  0  0  0  2  0  0  0  0  0  0
  192.6360  175.5910  145.6490 C   0  0  0  0  0  0  0  0  0  0  0  0
  188.5970  176.1260  144.7450 C   0  0  0  0  0  0  0  0  0  0  0  0
  195.0080  175.3260  145.1970 O   0  0  0  0  0  0  0  0  0  0  0  0
  189.9570  175.8440  145.1180 N   0  0  0  0  0  0  0  0  0  0  0  0
  191.8330  176.3810  146.4990 C   0  0  0  0  0  0  0  0  0  0  0  0
  193.9810  175.8860  145.9500 C   0  0  0  0  0  0  0  0  0  0  0  0
  193.2860  174.4460  143.6080 C   0  0  0  0  0  2  0  0  0  0  0  0
  190.5470  176.5620  146.2320 C   0  0  0  0  0  3  0  0  0  0  0  0
  194.1080  176.7450  146.9120 N   0  0  0  0  0  0  0  0  0  0  0  0
  185.7540  178.6200  145.4310 N   0  0  0  0  0  2  0  0  0  0  0  0
  186.9770  176.4660  146.6610 C   0  0  0  0  0  2  0  0  0  0  0  0
  186.3450  177.5360  147.5580 C   0  0  0  0  0  2  0  0  0  0  0  0
  187.7730  177.1130  145.5300 C   0  0  2  0  0  3  0  0  0  0  0  0
  186.8950  178.0700  144.6770 C   0  0  1  0  0  3  0  0  0  0  0  0
  186.1240  178.8650  146.8240 C   0  0  0  0  0  2  0  0  0  0  0  0
  186.4080  177.4490  143.3620 C   0  0  2  0  0  3  0  0  0  0  0  0
  184.5620  178.0410  142.0860 C   0  0  0  0  0  0  0  0  0  0  0  0
  183.3250  178.1340  141.7290 N   0  0  0  0  0  2  0  0  0  0  0  0
  186.9000  178.2560  142.1510 C   0  0  0  0  0  3  0  0  0  0  0  0
  184.9560  177.4290  143.2930 N   0  0  0  0  0  2  0  0  0  0  0  0
  185.6840  178.5350  141.2690 C   0  0  0  0  0  3  0  0  0  0  0  0
  190.2350  173.4440  144.6170 C   0  0  0  0  0  2  0  0  0  0  0  0
  188.9110  171.8180  143.4750 O   0  0  0  0  0  1  0  0  0  0  0  0
  190.0200  172.6550  143.3370 C   0  0  0  0  0  2  0  0  0  0  0  0
  2  6  2  0  0  0  0
  3  7  2  0  0  0  0
  4  2  1  0  0  0  0
  4 27  1  1  0  0  0
  4  9  1  0  0  0  0
  5  8  1  0  0  0  0
  6 11  1  0  0  0  0
  6 10  1  0  0  0  0
  7  9  1  0  0  0  0
  8 11  1  0  0  0  0
  9 13  1  0  0  0  0
 10  1  1  0  0  0  0
 11 14  2  0  0  0  0
 12  5  1  0  0  0  0
 12  2  1  0  0  0  0
 13 10  2  0  0  0  0
 14  1  1  0  0  0  0
 15 20  1  0  0  0  0
 16 17  1  0  0  0  0
 18  7  1  6  0  0  0
 18 16  1  0  0  0  0
 19 15  1  1  0  0  0
 19 18  1  0  0  0  0
 20 17  1  0  0  0  0
 21 24  1  6  0  0  0
 21 19  1  0  0  0  0
 22 25  1  0  0  0  0
 23 22  2  0  0  0  0
 25 21  1  0  0  0  0
 26 22  1  0  0  0  0
 26 24  2  0  0  0  0
 29 28  1  0  0  0  0
 29 27  1  0  0  0  0
M  END
>  <MODEL>
4

>  <REMARK>
 VINA RESULT:      -7.1      2.762      7.476
  Name = 
  4 active torsions:
  status: ('A' for Active; 'I' for Inactive)
    1  A    between atoms: C_1  and  C_15
    2  A    between atoms: C_7  and  C_12
    3  A    between atoms: C_7  and  C_25
    4  A    between atoms: C_11  and  C_17
                            x       y       z     vdW  Elec       q    Type
                         _______ _______ _______ _____ _____    ______ ____

>  <TORSDO>
F 4

$$$$
=
 OpenBabel11062422433D

 29 33  0  0  1  0  0  0  0  0999 V2000
  186.9010  178.2490  147.5820 C   0  0  0  0  0  2  0  0  0  0  0  0
  185.9830  177.9110  144.1030 C   0  0  0  0  0  0  0  0  0  0  0  0
  189.1730  175.5180  142.5710 O   0  0  0  0  0  0  0  0  0  0  0  0
  187.1570  177.2960  143.3590 C   0  0  2  0  0  3  0  0  0  0  0  0
  183.6920  179.0380  144.3020 C   0  0  0  0  0  2  0  0  0  0  0  0
  186.1550  178.2380  145.3660 C   0  0  0  0  0  0  0  0  0  0  0  0
  189.2360  175.9200  143.7660 C   0  0  0  0  0  0  0  0  0  0  0  0
  183.8650  178.9600  145.7310 O   0  0  0  0  0  0  0  0  0  0  0  0
  188.2310  176.8160  144.2760 N   0  0  0  0  0  0  0  0  0  0  0  0
  187.2740  177.9220  146.1660 C   0  0  0  0  0  0  0  0  0  0  0  0
  185.1310  178.6720  146.2320 C   0  0  0  0  0  0  0  0  0  0  0  0
  184.5860  178.0230  143.5260 C   0  0  0  0  0  2  0  0  0  0  0  0
  188.2650  177.1890  145.6780 C   0  0  0  0  0  3  0  0  0  0  0  0
  185.4940  178.6950  147.4750 N   0  0  0  0  0  0  0  0  0  0  0  0
  191.9960  173.5460  144.9970 N   0  0  0  0  0  2  0  0  0  0  0  0
  191.6180  176.2500  144.5590 C   0  0  0  0  0  2  0  0  0  0  0  0
  192.6180  175.8350  145.6430 C   0  0  0  0  0  2  0  0  0  0  0  0
  190.3410  175.4180  144.6570 C   0  0  2  0  0  3  0  0  0  0  0  0
  190.6330  173.8940  144.5560 C   0  0  1  0  0  3  0  0  0  0  0  0
  192.4100  174.3900  146.1150 C   0  0  0  0  0  2  0  0  0  0  0  0
  190.3620  173.3080  143.1640 C   0  0  2  0  0  3  0  0  0  0  0  0
  191.6210  171.7560  141.9850 C   0  0  0  0  0  0  0  0  0  0  0  0
  192.5840  171.2810  141.2680 N   0  0  0  0  0  2  0  0  0  0  0  0
  189.6600  171.9450  143.2640 C   0  0  0  0  0  3  0  0  0  0  0  0
  191.5990  173.0920  142.4320 N   0  0  0  0  0  2  0  0  0  0  0  0
  190.4420  170.9680  142.3880 C   0  0  0  0  0  3  0  0  0  0  0  0
  187.7370  178.3110  142.3780 C   0  0  0  0  0  2  0  0  0  0  0  0
  186.6180  176.7910  140.9140 O   0  0  0  0  0  1  0  0  0  0  0  0
  187.4440  177.9160  140.9400 C   0  0  0  0  0  2  0  0  0  0  0  0
  2  6  2  0  0  0  0
  3  7  2  0  0  0  0
  4 27  1  6  0  0  0
  4  2  1  0  0  0  0
  4  9  1  0  0  0  0
  5  8  1  0  0  0  0
  6 10  1  0  0  0  0
  6 11  1  0  0  0  0
  7  9  1  0  0  0  0
  8 11  1  0  0  0  0
  9 13  1  0  0  0  0
 10  1  1  0  0  0  0
 11 14  2  0  0  0  0
 12  2  1  0  0  0  0
 12  5  1  0  0  0  0
 13 10  2  0  0  0  0
 14  1  1  0  0  0  0
 15 20  1  0  0  0  0
 16 18  1  0  0  0  0
 16 17  1  0  0  0  0
 17 20  1  0  0  0  0
 18  7  1  6  0  0  0
 19 18  1  0  0  0  0
 19 15  1  6  0  0  0
 21 24  1  1  0  0  0
 21 19  1  0  0  0  0
 22 26  1  0  0  0  0
 22 25  1  0  0  0  0
 23 22  2  0  0  0  0
 25 21  1  0  0  0  0
 26 24  2  0  0  0  0
 28 29  1  0  0  0  0
 29 27  1  0  0  0  0
M  END
>  <MODEL>
5

>  <REMARK>
 VINA RESULT:      -7.0      2.076      3.777
  Name = 
  4 active torsions:
  status: ('A' for Active; 'I' for Inactive)
    1  A    between atoms: C_1  and  C_15
    2  A    between atoms: C_7  and  C_12
    3  A    between atoms: C_7  and  C_25
    4  A    between atoms: C_11  and  C_17
                            x       y       z     vdW  Elec       q    Type
                         _______ _______ _______ _____ _____    ______ ____

>  <TORSDO>
F 4

$$$$
=
 OpenBabel11062422433D

 29 33  0  0  1  0  0  0  0  0999 V2000
  189.6310  173.4120  142.0870 C   0  0  0  0  0  2  0  0  0  0  0  0
  189.6130  176.9620  142.7700 C   0  0  0  0  0  0  0  0  0  0  0  0
  193.3410  177.4970  144.7850 O   0  0  0  0  0  0  0  0  0  0  0  0
  190.7620  177.2700  143.7140 C   0  0  2  0  0  3  0  0  0  0  0  0
  187.4850  177.4950  141.4470 C   0  0  0  0  0  2  0  0  0  0  0  0
  189.3620  175.7000  142.4920 C   0  0  0  0  0  0  0  0  0  0  0  0
  192.9730  176.3260  144.4900 C   0  0  0  0  0  0  0  0  0  0  0  0
  187.5780  176.1610  140.9100 O   0  0  0  0  0  0  0  0  0  0  0  0
  191.6750  176.1060  143.9090 N   0  0  0  0  0  0  0  0  0  0  0  0
  190.1600  174.5910  142.8490 C   0  0  0  0  0  0  0  0  0  0  0  0
  188.4380  175.2560  141.5250 C   0  0  0  0  0  0  0  0  0  0  0  0
  188.8430  178.0220  142.0070 C   0  0  0  0  0  2  0  0  0  0  0  0
  191.3100  174.7670  143.4860 C   0  0  0  0  0  3  0  0  0  0  0  0
  188.5470  173.9930  141.2620 N   0  0  0  0  0  0  0  0  0  0  0  0
  195.8440  173.8970  143.6960 N   0  0  0  0  0  2  0  0  0  0  0  0
  194.9510  175.4480  145.8040 C   0  0  0  0  0  2  0  0  0  0  0  0
  195.7350  174.1730  146.1370 C   0  0  0  0  0  2  0  0  0  0  0  0
  193.9220  175.1780  144.7090 C   0  0  2  0  0  3  0  0  0  0  0  0
  194.5830  174.6080  143.4220 C   0  0  1  0  0  3  0  0  0  0  0  0
  195.7690  173.1810  144.9680 C   0  0  0  0  0  2  0  0  0  0  0  0
  194.7960  175.6590  142.3250 C   0  0  2  0  0  3  0  0  0  0  0  0
  196.3340  175.6350  140.5870 C   0  0  0  0  0  0  0  0  0  0  0  0
  197.4710  175.7390  139.9840 N   0  0  0  0  0  2  0  0  0  0  0  0
  194.0570  175.2720  141.0350 C   0  0  0  0  0  3  0  0  0  0  0  0
  196.2030  175.7870  141.9830 N   0  0  0  0  0  2  0  0  0  0  0  0
  195.0630  175.3750  139.8890 C   0  0  0  0  0  3  0  0  0  0  0  0
  190.2150  177.7220  145.0660 C   0  0  0  0  0  2  0  0  0  0  0  0
  187.9540  177.5270  145.8080 O   0  0  0  0  0  1  0  0  0  0  0  0
  189.1140  176.7950  145.5520 C   0  0  0  0  0  2  0  0  0  0  0  0
  1 10  1  0  0  0  0
  2  4  1  0  0  0  0
  4  9  1  0  0  0  0
  4 27  1  1  0  0  0
  5 12  1  0  0  0  0
  6  2  2  0  0  0  0
  6 10  1  0  0  0  0
  7  3  2  0  0  0  0
  8  5  1  0  0  0  0
  8 11  1  0  0  0  0
  9  7  1  0  0  0  0
 10 13  2  0  0  0  0
 11  6  1  0  0  0  0
 12  2  1  0  0  0  0
 13  9  1  0  0  0  0
 14 11  2  0  0  0  0
 14  1  1  0  0  0  0
 15 20  1  0  0  0  0
 16 17  1  0  0  0  0
 18  7  1  6  0  0  0
 18 16  1  0  0  0  0
 19 15  1  1  0  0  0
 19 18  1  0  0  0  0
 20 17  1  0  0  0  0
 21 24  1  6  0  0  0
 21 19  1  0  0  0  0
 22 25  1  0  0  0  0
 23 22  2  0  0  0  0
 25 21  1  0  0  0  0
 26 22  1  0  0  0  0
 26 24  2  0  0  0  0
 27 29  1  0  0  0  0
 29 28  1  0  0  0  0
M  END
>  <MODEL>
6

>  <REMARK>
 VINA RESULT:      -6.8      3.264      5.354
  Name = 
  4 active torsions:
  status: ('A' for Active; 'I' for Inactive)
    1  A    between atoms: C_1  and  C_15
    2  A    between atoms: C_7  and  C_12
    3  A    between atoms: C_7  and  C_25
    4  A    between atoms: C_11  and  C_17
                            x       y       z     vdW  Elec       q    Type
                         _______ _______ _______ _____ _____    ______ ____

>  <TORSDO>
F 4

$$$$
=
 OpenBabel11062422433D

 29 33  0  0  1  0  0  0  0  0999 V2000
  195.3540  176.5610  144.4540 C   0  0  0  0  0  2  0  0  0  0  0  0
  194.1050  175.1080  141.3890 C   0  0  0  0  0  0  0  0  0  0  0  0
  189.9860  174.4690  142.3240 O   0  0  0  0  0  0  0  0  0  0  0  0
  192.7030  174.5850  141.6480 C   0  0  2  0  0  3  0  0  0  0  0  0
  196.2490  175.4340  140.0250 C   0  0  0  0  0  2  0  0  0  0  0  0
  194.7930  175.5660  142.4140 C   0  0  0  0  0  0  0  0  0  0  0  0
  190.7580  174.8800  143.2340 C   0  0  0  0  0  0  0  0  0  0  0  0
  196.7170  176.2650  141.1070 O   0  0  0  0  0  0  0  0  0  0  0  0
  192.1690  175.0020  142.9780 N   0  0  0  0  0  0  0  0  0  0  0  0
  194.3030  175.7810  143.7200 C   0  0  0  0  0  0  0  0  0  0  0  0
  196.0380  176.2210  142.3200 C   0  0  0  0  0  0  0  0  0  0  0  0
  194.6960  175.2830  140.0040 C   0  0  0  0  0  2  0  0  0  0  0  0
  193.0260  175.5680  144.0030 C   0  0  0  0  0  3  0  0  0  0  0  0
  196.3940  176.7920  143.4260 N   0  0  0  0  0  0  0  0  0  0  0  0
  188.2310  176.4290  145.6800 N   0  0  0  0  0  2  0  0  0  0  0  0
  189.6890  174.0980  145.3910 C   0  0  0  0  0  2  0  0  0  0  0  0
  189.3270  174.5410  146.8130 C   0  0  0  0  0  2  0  0  0  0  0  0
  190.1810  175.2830  144.5650 C   0  0  2  0  0  3  0  0  0  0  0  0
  189.1310  176.4280  144.5130 C   0  0  1  0  0  3  0  0  0  0  0  0
  188.9500  176.0260  146.8870 C   0  0  0  0  0  2  0  0  0  0  0  0
  188.3120  176.4530  143.2160 C   0  0  2  0  0  3  0  0  0  0  0  0
  186.2280  177.4030  142.8450 C   0  0  0  0  0  0  0  0  0  0  0  0
  184.9450  177.5410  142.8760 N   0  0  0  0  0  2  0  0  0  0  0  0
  188.5150  177.7730  142.4570 C   0  0  0  0  0  3  0  0  0  0  0  0
  186.8900  176.3360  143.4870 N   0  0  0  0  0  2  0  0  0  0  0  0
  187.1280  178.3210  142.1240 C   0  0  0  0  0  3  0  0  0  0  0  0
  192.6910  173.0620  141.5460 C   0  0  0  0  0  2  0  0  0  0  0  0
  191.6000  173.6830  139.5150 O   0  0  0  0  0  1  0  0  0  0  0  0
  191.8890  172.5970  140.3430 C   0  0  0  0  0  2  0  0  0  0  0  0
  2  4  1  0  0  0  0
  2  6  2  0  0  0  0
  3  7  2  0  0  0  0
  4 27  1  1  0  0  0
  4  9  1  0  0  0  0
  5  8  1  0  0  0  0
  6 10  1  0  0  0  0
  8 11  1  0  0  0  0
  9  7  1  0  0  0  0
  9 13  1  0  0  0  0
 10 13  2  0  0  0  0
 10  1  1  0  0  0  0
 11  6  1  0  0  0  0
 11 14  2  0  0  0  0
 12  5  1  0  0  0  0
 12  2  1  0  0  0  0
 14  1  1  0  0  0  0
 15 20  1  0  0  0  0
 16 17  1  0  0  0  0
 17 20  1  0  0  0  0
 18  7  1  6  0  0  0
 18 16  1  0  0  0  0
 19 18  1  0  0  0  0
 19 15  1  1  0  0  0
 21 24  1  1  0  0  0
 21 25  1  0  0  0  0
 21 19  1  0  0  0  0
 22 23  2  0  0  0  0
 22 25  1  0  0  0  0
 26 24  2  0  0  0  0
 26 22  1  0  0  0  0
 28 29  1  0  0  0  0
 29 27  1  0  0  0  0
M  END
>  <MODEL>
7

>  <REMARK>
 VINA RESULT:      -6.7      3.686      7.919
  Name = 
  4 active torsions:
  status: ('A' for Active; 'I' for Inactive)
    1  A    between atoms: C_1  and  C_15
    2  A    between atoms: C_7  and  C_12
    3  A    between atoms: C_7  and  C_25
    4  A    between atoms: C_11  and  C_17
                            x       y       z     vdW  Elec       q    Type
                         _______ _______ _______ _____ _____    ______ ____

>  <TORSDO>
F 4

$$$$
=
 OpenBabel11062422433D

 29 33  0  0  1  0  0  0  0  0999 V2000
  186.7060  176.8800  141.1690 C   0  0  0  0  0  2  0  0  0  0  0  0
  186.7240  177.9340  144.6270 C   0  0  0  0  0  0  0  0  0  0  0  0
  189.6630  175.3430  146.3290 O   0  0  0  0  0  0  0  0  0  0  0  0
  187.5390  176.9300  145.4250 C   0  0  2  0  0  3  0  0  0  0  0  0
  185.1600  179.9390  144.3210 C   0  0  0  0  0  2  0  0  0  0  0  0
  186.4850  177.6670  143.3600 C   0  0  0  0  0  0  0  0  0  0  0  0
  189.3250  175.1690  145.1260 C   0  0  0  0  0  0  0  0  0  0  0  0
  185.3230  179.7500  142.9010 O   0  0  0  0  0  0  0  0  0  0  0  0
  188.2620  175.9550  144.5580 N   0  0  0  0  0  0  0  0  0  0  0  0
  187.0520  176.6170  142.6060 C   0  0  0  0  0  0  0  0  0  0  0  0
  185.8810  178.5580  142.4500 C   0  0  0  0  0  0  0  0  0  0  0  0
  186.3090  179.2920  145.1560 C   0  0  0  0  0  2  0  0  0  0  0  0
  187.9540  175.8110  143.1470 C   0  0  0  0  0  3  0  0  0  0  0  0
  185.9780  178.1680  141.2190 N   0  0  0  0  0  0  0  0  0  0  0  0
  192.3620  173.5090  143.4560 N   0  0  0  0  0  2  0  0  0  0  0  0
  190.1280  172.7780  144.9120 C   0  0  0  0  0  2  0  0  0  0  0  0
  190.6980  171.7580  143.9200 C   0  0  0  0  0  2  0  0  0  0  0  0
  190.0750  174.1690  144.2860 C   0  0  2  0  0  3  0  0  0  0  0  0
  191.4720  174.6350  143.7890 C   0  0  1  0  0  3  0  0  0  0  0  0
  191.6050  172.4070  142.8660 C   0  0  0  0  0  2  0  0  0  0  0  0
  192.1770  175.5980  144.7530 C   0  0  2  0  0  3  0  0  0  0  0  0
  194.3490  175.4930  145.5620 C   0  0  0  0  0  0  0  0  0  0  0  0
  195.3510  175.0990  146.2750 N   0  0  0  0  0  2  0  0  0  0  0  0
  193.0240  176.6270  143.9890 C   0  0  0  0  0  3  0  0  0  0  0  0
  193.0780  174.8870  145.6430 N   0  0  0  0  0  2  0  0  0  0  0  0
  194.4170  176.6200  144.6150 C   0  0  0  0  0  3  0  0  0  0  0  0
  186.6300  176.1790  146.3940 C   0  0  0  0  0  2  0  0  0  0  0  0
  185.7030  177.6750  148.0070 O   0  0  0  0  0  1  0  0  0  0  0  0
  186.7280  176.7520  147.7970 C   0  0  0  0  0  2  0  0  0  0  0  0
  1 14  1  0  0  0  0
  1 10  1  0  0  0  0
  2 12  1  0  0  0  0
  2  4  1  0  0  0  0
  4 27  1  1  0  0  0
  5 12  1  0  0  0  0
  6  2  2  0  0  0  0
  7  3  2  0  0  0  0
  8  5  1  0  0  0  0
  9  7  1  0  0  0  0
  9  4  1  0  0  0  0
 10 13  2  0  0  0  0
 10  6  1  0  0  0  0
 11  8  1  0  0  0  0
 11  6  1  0  0  0  0
 13  9  1  0  0  0  0
 14 11  2  0  0  0  0
 17 16  1  0  0  0  0
 18 16  1  0  0  0  0
 18  7  1  1  0  0  0
 19 15  1  1  0  0  0
 19 18  1  0  0  0  0
 19 21  1  0  0  0  0
 20 15  1  0  0  0  0
 20 17  1  0  0  0  0
 21 24  1  6  0  0  0
 21 25  1  0  0  0  0
 22 25  1  0  0  0  0
 22 23  2  0  0  0  0
 24 26  2  0  0  0  0
 26 22  1  0  0  0  0
 27 29  1  0  0  0  0
 29 28  1  0  0  0  0
M  END
>  <MODEL>
8

>  <REMARK>
 VINA RESULT:      -6.7      1.797      3.481
  Name = 
  4 active torsions:
  status: ('A' for Active; 'I' for Inactive)
    1  A    between atoms: C_1  and  C_15
    2  A    between atoms: C_7  and  C_12
    3  A    between atoms: C_7  and  C_25
    4  A    between atoms: C_11  and  C_17
                            x       y       z     vdW  Elec       q    Type
                         _______ _______ _______ _____ _____    ______ ____

>  <TORSDO>
F 4

$$$$
=
 OpenBabel11062422433D

 29 33  0  0  1  0  0  0  0  0999 V2000
  188.7710  177.5670  146.9570 C   0  0  0  0  0  2  0  0  0  0  0  0
  186.8180  177.2040  143.9360 C   0  0  0  0  0  0  0  0  0  0  0  0
  189.5010  175.0570  141.3980 O   0  0  0  0  0  0  0  0  0  0  0  0
  187.7320  176.6810  142.8400 C   0  0  2  0  0  3  0  0  0  0  0  0
  184.6430  178.1660  144.8860 C   0  0  0  0  0  2  0  0  0  0  0  0
  187.3620  177.5280  145.0910 C   0  0  0  0  0  0  0  0  0  0  0  0
  189.9140  175.4500  142.5240 C   0  0  0  0  0  0  0  0  0  0  0  0
  185.2650  178.0850  146.1840 O   0  0  0  0  0  0  0  0  0  0  0  0
  189.0690  176.2670  143.3540 N   0  0  0  0  0  0  0  0  0  0  0  0
  188.6950  177.2820  145.4850 C   0  0  0  0  0  0  0  0  0  0  0  0
  186.6400  177.8800  146.2490 C   0  0  0  0  0  0  0  0  0  0  0  0
  185.3060  177.2240  143.8340 C   0  0  0  0  0  2  0  0  0  0  0  0
  189.5230  176.6260  144.6850 C   0  0  0  0  0  3  0  0  0  0  0  0
  187.3770  177.9140  147.3140 N   0  0  0  0  0  0  0  0  0  0  0  0
  192.8820  173.0760  143.0930 N   0  0  0  0  0  2  0  0  0  0  0  0
  192.4200  175.6600  142.2250 C   0  0  0  0  0  2  0  0  0  0  0  0
  193.7650  175.3630  142.8970 C   0  0  0  0  0  2  0  0  0  0  0  0
  191.2740  175.0160  143.0030 C   0  0  2  0  0  3  0  0  0  0  0  0
  191.4670  173.4800  143.1510 C   0  0  1  0  0  3  0  0  0  0  0  0
  193.7340  174.0770  143.7320 C   0  0  0  0  0  2  0  0  0  0  0  0
  190.6410  172.6590  142.1530 C   0  0  2  0  0  3  0  0  0  0  0  0
  191.3760  171.0310  140.6710 C   0  0  0  0  0  0  0  0  0  0  0  0
  191.9260  170.5180  139.6230 N   0  0  0  0  0  2  0  0  0  0  0  0
  190.2780  171.2830  142.7330 C   0  0  0  0  0  3  0  0  0  0  0  0
  191.3830  172.4180  140.9270 N   0  0  0  0  0  2  0  0  0  0  0  0
  190.6680  170.2370  141.6900 C   0  0  0  0  0  3  0  0  0  0  0  0
  187.9050  177.7450  141.7590 C   0  0  0  0  0  2  0  0  0  0  0  0
  185.9560  178.1950  140.4540 O   0  0  0  0  0  1  0  0  0  0  0  0
  187.1030  177.4020  140.5160 C   0  0  0  0  0  2  0  0  0  0  0  0
  1 14  1  0  0  0  0
  2  6  2  0  0  0  0
  3  7  2  0  0  0  0
  4 27  1  6  0  0  0
  4  9  1  0  0  0  0
  4  2  1  0  0  0  0
  5  8  1  0  0  0  0
  6 10  1  0  0  0  0
  6 11  1  0  0  0  0
  7  9  1  0  0  0  0
  8 11  1  0  0  0  0
  9 13  1  0  0  0  0
 10  1  1  0  0  0  0
 11 14  2  0  0  0  0
 12  2  1  0  0  0  0
 12  5  1  0  0  0  0
 13 10  2  0  0  0  0
 15 20  1  0  0  0  0
 16 17  1  0  0  0  0
 16 18  1  0  0  0  0
 17 20  1  0  0  0  0
 18  7  1  6  0  0  0
 18 19  1  0  0  0  0
 19 15  1  6  0  0  0
 21 24  1  1  0  0  0
 21 19  1  0  0  0  0
 22 25  1  0  0  0  0
 22 26  1  0  0  0  0
 23 22  2  0  0  0  0
 25 21  1  0  0  0  0
 26 24  2  0  0  0  0
 28 29  1  0  0  0  0
 29 27  1  0  0  0  0
M  END
>  <MODEL>
9

>  <REMARK>
 VINA RESULT:      -6.6      2.348      4.198
  Name = 
  4 active torsions:
  status: ('A' for Active; 'I' for Inactive)
    1  A    between atoms: C_1  and  C_15
    2  A    between atoms: C_7  and  C_12
    3  A    between atoms: C_7  and  C_25
    4  A    between atoms: C_11  and  C_17
                            x       y       z     vdW  Elec       q    Type
                         _______ _______ _______ _____ _____    ______ ____

>  <TORSDO>
F 4

$$$$
