=
 OpenBabel11072408473D

 36 37  0  0  1  0  0  0  0  0999 V2000
  188.9320  176.9960  145.7600 C   0  0  0  0  0  0  0  0  0  0  0  0
  186.6910  177.8770  145.9750 C   0  0  0  0  0  0  0  0  0  0  0  0
  187.8660  177.3810  146.5720 C   0  0  0  0  0  3  0  0  0  0  0  0
  190.2750  176.5840  143.6820 S   0  0  0  0  0  0  0  0  0  0  0  0
  186.6100  177.9790  144.5690 C   0  0  0  0  0  3  0  0  0  0  0  0
  188.8370  177.1020  144.3800 C   0  0  0  0  0  0  0  0  0  0  0  0
  191.0110  176.2070  145.1550 C   0  0  0  0  0  0  0  0  0  0  0  0
  187.6840  177.5850  143.7570 C   0  0  0  0  0  0  0  0  0  0  0  0
  190.1560  176.4990  146.2160 C   0  0  0  0  0  3  0  0  0  0  0  0
  185.5550  178.2960  146.8140 C   0  0  0  0  0  0  0  0  0  0  0  0
  184.4250  177.7560  146.6710 O   0  0  0  0  0  0  0  0  0  0  0  0
  185.7180  179.3150  147.7950 N   0  0  0  0  0  1  0  0  0  0  0  0
  192.4090  175.7210  145.3030 C   0  0  0  0  0  2  0  0  0  0  0  0
  193.2920  176.6460  144.7400 O   0  0  0  0  0  0  0  0  0  0  0  0
  194.4230  177.1010  146.7190 N   0  0  0  0  0  1  0  0  0  0  0  0
  194.4950  176.4530  145.4210 C   0  0  1  0  0  3  0  0  0  0  0  0
  194.7440  174.9620  145.6000 C   0  0  0  0  0  2  0  0  0  0  0  0
  196.1540  174.6100  145.2500 C   0  0  0  0  0  0  0  0  0  0  0  0
  196.7200  175.1410  144.2290 N   0  0  0  0  0  2  0  0  0  0  0  0
  196.9460  173.7490  146.1700 C   0  0  0  0  0  1  0  0  0  0  0  0
  187.6030  177.7340  142.2760 C   0  0  0  0  0  2  0  0  0  0  0  0
  186.9910  176.5510  141.7010 N   0  0  0  0  0  2  0  0  0  0  0  0
  187.8410  176.1260  140.6030 C   0  0  0  0  0  2  0  0  0  0  0  0
  188.1170  174.1960  141.9600 O   0  0  0  0  0  0  0  0  0  0  0  0
  188.2670  174.7120  140.8190 C   0  0  0  0  0  0  0  0  0  0  0  0
  188.1980  173.7740  138.5770 C   0  0  0  0  0  2  0  0  0  0  0  0
  188.8660  173.9310  139.7190 C   0  0  0  0  0  0  0  0  0  0  0  0
  191.1170  173.5420  138.7080 C   0  0  0  0  0  1  0  0  0  0  0  0
  190.2150  173.2870  139.9030 C   0  0  2  0  0  3  0  0  0  0  0  0
  190.1010  171.7900  140.1630 C   0  0  0  0  0  2  0  0  0  0  0  0
  190.4320  171.4800  141.5830 C   0  0  0  0  0  0  0  0  0  0  0  0
  190.3470  170.2920  141.9900 O   0  0  0  0  0  0  0  0  0  0  0  0
  190.9030  172.5280  142.4390 N   0  0  0  0  0  2  0  0  0  0  0  0
  190.0290  172.6370  144.7940 C   0  0  0  0  0  1  0  0  0  0  0  0
  192.6120  171.9830  144.4490 S   0  0  0  0  0  0  0  0  0  0  0  0
  191.1590  172.4450  143.8480 C   0  0  0  0  0  0  0  0  0  0  0  0
  1  9  1  0  0  0  0
  1  3  1  0  0  0  0
  2  3  2  0  0  0  0
  2 10  1  0  0  0  0
  4  6  1  0  0  0  0
  4  7  1  0  0  0  0
  5  2  1  0  0  0  0
  6  1  2  0  0  0  0
  7 13  1  0  0  0  0
  7  9  2  0  0  0  0
  8  6  1  0  0  0  0
  8  5  2  0  0  0  0
 10 12  1  0  0  0  0
 11 10  2  0  0  0  0
 14 13  1  0  0  0  0
 14 16  1  0  0  0  0
 16 17  1  0  0  0  0
 16 15  1  1  0  0  0
 18 17  1  0  0  0  0
 18 20  1  0  0  0  0
 19 18  2  0  0  0  0
 21  8  1  0  0  0  0
 22 21  1  0  0  0  0
 23 25  1  0  0  0  0
 23 22  1  0  0  0  0
 25 24  2  0  0  0  0
 26 27  2  0  0  0  0
 27 29  1  0  0  0  0
 27 25  1  0  0  0  0
 29 28  1  6  0  0  0
 29 30  1  0  0  0  0
 30 31  1  0  0  0  0
 31 32  2  0  0  0  0
 31 33  1  0  0  0  0
 33 36  1  0  0  0  0
 36 35  2  0  0  0  0
 36 34  1  0  0  0  0
M  END
>  <MODEL>
1

>  <REMARK>
 VINA RESULT:      -6.1      0.000      0.000
  Name = 
  15 active torsions:
  status: ('A' for Active; 'I' for Inactive)
    1  A    between atoms: C_2  and  O_25
    2  A    between atoms: C_2  and  C_30
    3  A    between atoms: C_5  and  C_19
    4  A    between atoms: C_8  and  N_13
    5  A    between atoms: C_8  and  C_33
    6  A    between atoms: C_10  and  C_12
    7  A    between atoms: C_12  and  C_31
    8  A    between atoms: N_13  and  C_32
    9  A    between atoms: C_14  and  C_21
   10  A    between atoms: C_16  and  C_32
   11  A    between atoms: C_16  and  C_36
   12  A    between atoms: C_18  and  N_20
   13  A    between atoms: C_19  and  C_28
   14  A    between atoms: O_25  and  C_31
   15  A    between atoms: C_28  and  C_36
                            x       y       z     vdW  Elec       q    Type
                         _______ _______ _______ _____ _____    ______ ____

>  <TORSDO>
F 15

$$$$
=
 OpenBabel11072408473D

 36 37  0  0  1  0  0  0  0  0999 V2000
  190.5750  175.1700  142.4490 C   0  0  0  0  0  0  0  0  0  0  0  0
  189.1440  174.1150  140.8120 C   0  0  0  0  0  0  0  0  0  0  0  0
  190.3070  174.0930  141.6060 C   0  0  0  0  0  3  0  0  0  0  0  0
  190.2840  177.3700  143.6190 S   0  0  0  0  0  0  0  0  0  0  0  0
  188.2690  175.2210  140.8840 C   0  0  0  0  0  3  0  0  0  0  0  0
  189.7060  176.2490  142.5080 C   0  0  0  0  0  0  0  0  0  0  0  0
  191.6620  176.4730  144.0090 C   0  0  0  0  0  0  0  0  0  0  0  0
  188.5470  176.3040  141.7310 C   0  0  0  0  0  0  0  0  0  0  0  0
  191.6820  175.2760  143.2960 C   0  0  0  0  0  3  0  0  0  0  0  0
  188.8360  172.9850  139.9180 C   0  0  0  0  0  0  0  0  0  0  0  0
  187.6790  172.4860  139.8980 O   0  0  0  0  0  0  0  0  0  0  0  0
  189.8410  172.4420  139.0670 N   0  0  0  0  0  1  0  0  0  0  0  0
  192.6620  176.8630  145.0380 C   0  0  0  0  0  2  0  0  0  0  0  0
  193.9530  176.7050  144.5260 O   0  0  0  0  0  0  0  0  0  0  0  0
  194.3510  177.1150  146.7800 N   0  0  0  0  0  1  0  0  0  0  0  0
  194.7290  176.3230  145.6220 C   0  0  1  0  0  3  0  0  0  0  0  0
  194.5070  174.8460  145.9120 C   0  0  0  0  0  2  0  0  0  0  0  0
  195.5760  174.0100  145.2850 C   0  0  0  0  0  0  0  0  0  0  0  0
  195.4820  173.6510  144.0580 N   0  0  0  0  0  2  0  0  0  0  0  0
  196.8200  173.7160  146.0490 C   0  0  0  0  0  1  0  0  0  0  0  0
  187.5960  177.4470  141.8290 C   0  0  0  0  0  2  0  0  0  0  0  0
  186.2820  176.9550  142.1990 N   0  0  0  0  0  2  0  0  0  0  0  0
  185.3170  177.9400  141.7430 C   0  0  0  0  0  2  0  0  0  0  0  0
  183.2220  178.2460  142.8180 O   0  0  0  0  0  0  0  0  0  0  0  0
  184.4730  178.3820  142.8920 C   0  0  0  0  0  0  0  0  0  0  0  0
  185.8970  180.0360  143.9650 C   0  0  0  0  0  2  0  0  0  0  0  0
  185.0900  178.9820  144.0910 C   0  0  0  0  0  0  0  0  0  0  0  0
  185.5610  179.1490  146.5390 C   0  0  0  0  0  1  0  0  0  0  0  0
  184.8310  178.3840  145.4490 C   0  0  2  0  0  3  0  0  0  0  0  0
  185.2070  176.9090  145.5020 C   0  0  0  0  0  2  0  0  0  0  0  0
  186.3080  176.6850  146.4810 C   0  0  0  0  0  0  0  0  0  0  0  0
  186.0540  176.7240  147.7130 O   0  0  0  0  0  0  0  0  0  0  0  0
  187.6200  176.3670  146.0010 N   0  0  0  0  0  2  0  0  0  0  0  0
  189.3920  174.8770  146.9810 C   0  0  0  0  0  1  0  0  0  0  0  0
  189.6640  177.5280  147.3180 S   0  0  0  0  0  0  0  0  0  0  0  0
  188.8170  176.2330  146.7810 C   0  0  0  0  0  0  0  0  0  0  0  0
  1  6  1  0  0  0  0
  1  9  1  0  0  0  0
  2  5  2  0  0  0  0
  2  3  1  0  0  0  0
  3  1  2  0  0  0  0
  4  7  1  0  0  0  0
  5  8  1  0  0  0  0
  6  4  1  0  0  0  0
  7 13  1  0  0  0  0
  8 21  1  0  0  0  0
  8  6  2  0  0  0  0
  9  7  2  0  0  0  0
 10  2  1  0  0  0  0
 11 10  2  0  0  0  0
 12 10  1  0  0  0  0
 14 13  1  0  0  0  0
 14 16  1  0  0  0  0
 16 17  1  0  0  0  0
 16 15  1  1  0  0  0
 18 17  1  0  0  0  0
 18 20  1  0  0  0  0
 19 18  2  0  0  0  0
 21 22  1  0  0  0  0
 23 22  1  0  0  0  0
 23 25  1  0  0  0  0
 24 25  2  0  0  0  0
 25 27  1  0  0  0  0
 26 27  2  0  0  0  0
 27 29  1  0  0  0  0
 29 30  1  0  0  0  0
 29 28  1  1  0  0  0
 30 31  1  0  0  0  0
 31 32  2  0  0  0  0
 33 31  1  0  0  0  0
 33 36  1  0  0  0  0
 36 34  1  0  0  0  0
 36 35  2  0  0  0  0
M  END
>  <MODEL>
2

>  <REMARK>
 VINA RESULT:      -5.9      2.145      5.926
  Name = 
  15 active torsions:
  status: ('A' for Active; 'I' for Inactive)
    1  A    between atoms: C_2  and  O_25
    2  A    between atoms: C_2  and  C_30
    3  A    between atoms: C_5  and  C_19
    4  A    between atoms: C_8  and  N_13
    5  A    between atoms: C_8  and  C_33
    6  A    between atoms: C_10  and  C_12
    7  A    between atoms: C_12  and  C_31
    8  A    between atoms: N_13  and  C_32
    9  A    between atoms: C_14  and  C_21
   10  A    between atoms: C_16  and  C_32
   11  A    between atoms: C_16  and  C_36
   12  A    between atoms: C_18  and  N_20
   13  A    between atoms: C_19  and  C_28
   14  A    between atoms: O_25  and  C_31
   15  A    between atoms: C_28  and  C_36
                            x       y       z     vdW  Elec       q    Type
                         _______ _______ _______ _____ _____    ______ ____

>  <TORSDO>
F 15

$$$$
=
 OpenBabel11072408473D

 36 37  0  0  1  0  0  0  0  0999 V2000
  189.2890  173.2670  140.5420 C   0  0  0  0  0  0  0  0  0  0  0  0
  190.5130  171.2130  140.1870 C   0  0  0  0  0  0  0  0  0  0  0  0
  189.7950  172.3080  139.6670 C   0  0  0  0  0  3  0  0  0  0  0  0
  188.7880  174.4560  142.6940 S   0  0  0  0  0  0  0  0  0  0  0  0
  190.7120  171.1070  141.5810 C   0  0  0  0  0  3  0  0  0  0  0  0
  189.4930  173.1480  141.9100 C   0  0  0  0  0  0  0  0  0  0  0  0
  188.2060  175.1650  141.2750 C   0  0  0  0  0  0  0  0  0  0  0  0
  190.1960  172.0730  142.4570 C   0  0  0  0  0  0  0  0  0  0  0  0
  188.5700  174.4050  140.1660 C   0  0  0  0  0  3  0  0  0  0  0  0
  191.0620  170.1910  139.2800 C   0  0  0  0  0  0  0  0  0  0  0  0
  192.2530  170.2730  138.8750 O   0  0  0  0  0  0  0  0  0  0  0  0
  190.2570  169.0980  138.8500 N   0  0  0  0  0  1  0  0  0  0  0  0
  187.4870  176.4660  141.2130 C   0  0  0  0  0  2  0  0  0  0  0  0
  186.5290  176.5250  142.2290 O   0  0  0  0  0  0  0  0  0  0  0  0
  185.5950  178.0250  140.7180 N   0  0  0  0  0  1  0  0  0  0  0  0
  185.9550  177.7910  142.1060 C   0  0  1  0  0  3  0  0  0  0  0  0
  184.7130  177.8740  142.9830 C   0  0  0  0  0  2  0  0  0  0  0  0
  184.9190  178.8300  144.1130 C   0  0  0  0  0  0  0  0  0  0  0  0
  185.6100  179.8960  143.9420 N   0  0  0  0  0  2  0  0  0  0  0  0
  184.2020  178.6110  145.4000 C   0  0  0  0  0  1  0  0  0  0  0  0
  190.4470  171.9710  143.9230 C   0  0  0  0  0  2  0  0  0  0  0  0
  191.8690  171.8030  144.1610 N   0  0  0  0  0  2  0  0  0  0  0  0
  192.4500  173.1330  144.2090 C   0  0  0  0  0  2  0  0  0  0  0  0
  193.9140  172.1020  145.7690 O   0  0  0  0  0  0  0  0  0  0  0  0
  193.4990  173.1820  145.2690 C   0  0  0  0  0  0  0  0  0  0  0  0
  195.3510  174.6330  145.8840 C   0  0  0  0  0  2  0  0  0  0  0  0
  194.0360  174.4750  145.7370 C   0  0  0  0  0  0  0  0  0  0  0  0
  193.8510  176.8320  146.5460 C   0  0  0  0  0  1  0  0  0  0  0  0
  193.0940  175.6020  146.0750 C   0  0  2  0  0  3  0  0  0  0  0  0
  192.0640  175.1890  147.1180 C   0  0  0  0  0  2  0  0  0  0  0  0
  190.6840  175.4610  146.6250 C   0  0  0  0  0  0  0  0  0  0  0  0
  189.9350  174.4950  146.3250 O   0  0  0  0  0  0  0  0  0  0  0  0
  190.2150  176.8140  146.5640 N   0  0  0  0  0  2  0  0  0  0  0  0
  188.9440  177.7560  144.6100 C   0  0  0  0  0  1  0  0  0  0  0  0
  187.5520  177.1350  146.8230 S   0  0  0  0  0  0  0  0  0  0  0  0
  188.9710  177.2740  146.0160 C   0  0  0  0  0  0  0  0  0  0  0  0
  1  6  1  0  0  0  0
  2  5  2  0  0  0  0
  3  2  1  0  0  0  0
  3  1  2  0  0  0  0
  5  8  1  0  0  0  0
  6  8  2  0  0  0  0
  6  4  1  0  0  0  0
  7  4  1  0  0  0  0
  8 21  1  0  0  0  0
  9  1  1  0  0  0  0
  9  7  2  0  0  0  0
 10  2  1  0  0  0  0
 11 10  2  0  0  0  0
 12 10  1  0  0  0  0
 13  7  1  0  0  0  0
 13 14  1  0  0  0  0
 16 15  1  6  0  0  0
 16 14  1  0  0  0  0
 16 17  1  0  0  0  0
 17 18  1  0  0  0  0
 18 20  1  0  0  0  0
 19 18  2  0  0  0  0
 21 22  1  0  0  0  0
 22 23  1  0  0  0  0
 23 25  1  0  0  0  0
 25 27  1  0  0  0  0
 25 24  2  0  0  0  0
 27 26  2  0  0  0  0
 27 29  1  0  0  0  0
 29 28  1  1  0  0  0
 29 30  1  0  0  0  0
 31 30  1  0  0  0  0
 32 31  2  0  0  0  0
 33 31  1  0  0  0  0
 34 36  1  0  0  0  0
 36 33  1  0  0  0  0
 36 35  2  0  0  0  0
M  END
>  <MODEL>
3

>  <REMARK>
 VINA RESULT:      -5.9      2.471      8.630
  Name = 
  15 active torsions:
  status: ('A' for Active; 'I' for Inactive)
    1  A    between atoms: C_2  and  O_25
    2  A    between atoms: C_2  and  C_30
    3  A    between atoms: C_5  and  C_19
    4  A    between atoms: C_8  and  N_13
    5  A    between atoms: C_8  and  C_33
    6  A    between atoms: C_10  and  C_12
    7  A    between atoms: C_12  and  C_31
    8  A    between atoms: N_13  and  C_32
    9  A    between atoms: C_14  and  C_21
   10  A    between atoms: C_16  and  C_32
   11  A    between atoms: C_16  and  C_36
   12  A    between atoms: C_18  and  N_20
   13  A    between atoms: C_19  and  C_28
   14  A    between atoms: O_25  and  C_31
   15  A    between atoms: C_28  and  C_36
                            x       y       z     vdW  Elec       q    Type
                         _______ _______ _______ _____ _____    ______ ____

>  <TORSDO>
F 15

$$$$
=
 OpenBabel11072408473D

 36 37  0  0  1  0  0  0  0  0999 V2000
  193.3120  175.7430  145.9200 C   0  0  0  0  0  0  0  0  0  0  0  0
  195.4120  174.9000  145.0680 C   0  0  0  0  0  0  0  0  0  0  0  0
  194.5690  175.1880  146.1590 C   0  0  0  0  0  3  0  0  0  0  0  0
  191.3420  176.6480  144.6570 S   0  0  0  0  0  0  0  0  0  0  0  0
  194.9720  175.1730  143.7540 C   0  0  0  0  0  3  0  0  0  0  0  0
  192.8950  176.0050  144.6230 C   0  0  0  0  0  0  0  0  0  0  0  0
  191.2160  176.6040  146.3420 C   0  0  0  0  0  0  0  0  0  0  0  0
  193.7080  175.7360  143.5210 C   0  0  0  0  0  0  0  0  0  0  0  0
  192.3730  176.0680  146.9030 C   0  0  0  0  0  3  0  0  0  0  0  0
  196.7410  174.3080  145.2960 C   0  0  0  0  0  0  0  0  0  0  0  0
  197.6770  174.5100  144.4760 O   0  0  0  0  0  0  0  0  0  0  0  0
  196.9860  173.5000  146.4430 N   0  0  0  0  0  1  0  0  0  0  0  0
  190.0040  176.9940  147.1090 C   0  0  0  0  0  2  0  0  0  0  0  0
  188.9120  176.2290  146.6890 O   0  0  0  0  0  0  0  0  0  0  0  0
  187.7050  177.1590  144.9320 N   0  0  0  0  0  1  0  0  0  0  0  0
  187.9240  177.1610  146.3690 C   0  0  1  0  0  3  0  0  0  0  0  0
  186.6320  176.7990  147.0880 C   0  0  0  0  0  2  0  0  0  0  0  0
  185.7230  177.9820  147.1840 C   0  0  0  0  0  0  0  0  0  0  0  0
  186.1250  179.0640  147.7420 N   0  0  0  0  0  2  0  0  0  0  0  0
  184.4000  177.9490  146.5030 C   0  0  0  0  0  1  0  0  0  0  0  0
  193.2390  175.9820  142.1270 C   0  0  0  0  0  2  0  0  0  0  0  0
  193.0650  174.7140  141.4430 N   0  0  0  0  0  2  0  0  0  0  0  0
  191.6600  174.3640  141.5530 C   0  0  0  0  0  2  0  0  0  0  0  0
  192.2930  172.0950  141.2510 O   0  0  0  0  0  0  0  0  0  0  0  0
  191.5300  172.9050  141.8420 C   0  0  0  0  0  0  0  0  0  0  0  0
  189.2670  172.1980  142.3830 C   0  0  0  0  0  2  0  0  0  0  0  0
  190.5160  172.4150  142.7960 C   0  0  0  0  0  0  0  0  0  0  0  0
  189.9750  172.9720  145.1710 C   0  0  0  0  0  1  0  0  0  0  0  0
  190.8860  172.1920  144.2390 C   0  0  2  0  0  3  0  0  0  0  0  0
  192.3420  172.5440  144.5140 C   0  0  0  0  0  2  0  0  0  0  0  0
  193.1590  171.3070  144.6650 C   0  0  0  0  0  0  0  0  0  0  0  0
  192.8050  170.2580  144.0650 O   0  0  0  0  0  0  0  0  0  0  0  0
  194.3660  171.3520  145.4370 N   0  0  0  0  0  2  0  0  0  0  0  0
  194.7480  169.2870  146.8190 C   0  0  0  0  0  1  0  0  0  0  0  0
  196.5930  169.9100  144.9680 S   0  0  0  0  0  0  0  0  0  0  0  0
  195.2130  170.2470  145.7840 C   0  0  0  0  0  0  0  0  0  0  0  0
  1  3  1  0  0  0  0
  1  9  1  0  0  0  0
  2 10  1  0  0  0  0
  2  3  2  0  0  0  0
  4  7  1  0  0  0  0
  5  2  1  0  0  0  0
  6  4  1  0  0  0  0
  6  1  2  0  0  0  0
  7  9  2  0  0  0  0
  7 13  1  0  0  0  0
  8  5  2  0  0  0  0
  8  6  1  0  0  0  0
 10 12  1  0  0  0  0
 11 10  2  0  0  0  0
 14 13  1  0  0  0  0
 16 15  1  6  0  0  0
 16 14  1  0  0  0  0
 16 17  1  0  0  0  0
 17 18  1  0  0  0  0
 18 19  2  0  0  0  0
 20 18  1  0  0  0  0
 21  8  1  0  0  0  0
 22 23  1  0  0  0  0
 22 21  1  0  0  0  0
 23 25  1  0  0  0  0
 24 25  2  0  0  0  0
 25 27  1  0  0  0  0
 26 27  2  0  0  0  0
 27 29  1  0  0  0  0
 29 30  1  0  0  0  0
 29 28  1  1  0  0  0
 30 31  1  0  0  0  0
 31 33  1  0  0  0  0
 32 31  2  0  0  0  0
 33 36  1  0  0  0  0
 35 36  2  0  0  0  0
 36 34  1  0  0  0  0
M  END
>  <MODEL>
4

>  <REMARK>
 VINA RESULT:      -5.8      2.757      7.111
  Name = 
  15 active torsions:
  status: ('A' for Active; 'I' for Inactive)
    1  A    between atoms: C_2  and  O_25
    2  A    between atoms: C_2  and  C_30
    3  A    between atoms: C_5  and  C_19
    4  A    between atoms: C_8  and  N_13
    5  A    between atoms: C_8  and  C_33
    6  A    between atoms: C_10  and  C_12
    7  A    between atoms: C_12  and  C_31
    8  A    between atoms: N_13  and  C_32
    9  A    between atoms: C_14  and  C_21
   10  A    between atoms: C_16  and  C_32
   11  A    between atoms: C_16  and  C_36
   12  A    between atoms: C_18  and  N_20
   13  A    between atoms: C_19  and  C_28
   14  A    between atoms: O_25  and  C_31
   15  A    between atoms: C_28  and  C_36
                            x       y       z     vdW  Elec       q    Type
                         _______ _______ _______ _____ _____    ______ ____

>  <TORSDO>
F 15

$$$$
=
 OpenBabel11072408473D

 36 37  0  0  1  0  0  0  0  0999 V2000
  186.8860  176.5490  143.8460 C   0  0  0  0  0  0  0  0  0  0  0  0
  185.8440  177.5680  145.7750 C   0  0  0  0  0  0  0  0  0  0  0  0
  185.8490  177.3050  144.3910 C   0  0  0  0  0  3  0  0  0  0  0  0
  188.9830  175.1760  143.7240 S   0  0  0  0  0  0  0  0  0  0  0  0
  186.8820  177.0620  146.5860 C   0  0  0  0  0  3  0  0  0  0  0  0
  187.8990  176.0580  144.6580 C   0  0  0  0  0  0  0  0  0  0  0  0
  188.1560  175.4420  142.2740 C   0  0  0  0  0  0  0  0  0  0  0  0
  187.9250  176.3050  146.0320 C   0  0  0  0  0  0  0  0  0  0  0  0
  187.0120  176.2040  142.4980 C   0  0  0  0  0  3  0  0  0  0  0  0
  184.7550  178.3600  146.3730 C   0  0  0  0  0  0  0  0  0  0  0  0
  184.7170  178.5510  147.6180 O   0  0  0  0  0  0  0  0  0  0  0  0
  183.7320  178.9180  145.5540 N   0  0  0  0  0  1  0  0  0  0  0  0
  188.5460  174.8640  140.9600 C   0  0  0  0  0  2  0  0  0  0  0  0
  188.1460  173.5260  140.8950 O   0  0  0  0  0  0  0  0  0  0  0  0
  189.5180  173.6450  139.0220 N   0  0  0  0  0  1  0  0  0  0  0  0
  189.1720  172.8780  140.2070 C   0  0  1  0  0  3  0  0  0  0  0  0
  190.3890  172.7480  141.1120 C   0  0  0  0  0  2  0  0  0  0  0  0
  190.2740  171.5470  141.9940 C   0  0  0  0  0  0  0  0  0  0  0  0
  189.6410  171.6180  143.1070 N   0  0  0  0  0  2  0  0  0  0  0  0
  190.7750  170.2300  141.5110 C   0  0  0  0  0  1  0  0  0  0  0  0
  188.9940  175.7420  146.9050 C   0  0  0  0  0  2  0  0  0  0  0  0
  190.1130  176.6640  146.9590 N   0  0  0  0  0  2  0  0  0  0  0  0
  191.3230  175.8640  146.9180 C   0  0  0  0  0  2  0  0  0  0  0  0
  191.7590  177.0840  144.9270 O   0  0  0  0  0  0  0  0  0  0  0  0
  192.2410  176.4000  145.8700 C   0  0  0  0  0  0  0  0  0  0  0  0
  194.5490  177.1270  146.1120 C   0  0  0  0  0  2  0  0  0  0  0  0
  193.6900  176.1250  145.9270 C   0  0  0  0  0  0  0  0  0  0  0  0
  195.6920  174.6310  145.9890 C   0  0  0  0  0  1  0  0  0  0  0  0
  194.1960  174.7170  145.7450 C   0  0  2  0  0  3  0  0  0  0  0  0
  193.8570  174.1640  144.3670 C   0  0  0  0  0  2  0  0  0  0  0  0
  195.0370  174.2580  143.4620 C   0  0  0  0  0  0  0  0  0  0  0  0
  195.6480  173.2070  143.1340 O   0  0  0  0  0  0  0  0  0  0  0  0
  195.4150  175.5350  142.9310 N   0  0  0  0  0  2  0  0  0  0  0  0
  197.8680  176.0830  142.8400 C   0  0  0  0  0  1  0  0  0  0  0  0
  196.5740  175.7520  140.5080 S   0  0  0  0  0  0  0  0  0  0  0  0
  196.5780  175.8350  142.1440 C   0  0  0  0  0  0  0  0  0  0  0  0
  1  3  2  0  0  0  0
  1  6  1  0  0  0  0
  2 10  1  0  0  0  0
  2  5  2  0  0  0  0
  3  2  1  0  0  0  0
  4  6  1  0  0  0  0
  6  8  2  0  0  0  0
  7  9  2  0  0  0  0
  7  4  1  0  0  0  0
  8  5  1  0  0  0  0
  8 21  1  0  0  0  0
  9  1  1  0  0  0  0
 10 11  2  0  0  0  0
 12 10  1  0  0  0  0
 13  7  1  0  0  0  0
 14 13  1  0  0  0  0
 16 15  1  6  0  0  0
 16 14  1  0  0  0  0
 16 17  1  0  0  0  0
 17 18  1  0  0  0  0
 18 19  2  0  0  0  0
 20 18  1  0  0  0  0
 21 22  1  0  0  0  0
 23 22  1  0  0  0  0
 24 25  2  0  0  0  0
 25 27  1  0  0  0  0
 25 23  1  0  0  0  0
 27 26  2  0  0  0  0
 29 27  1  0  0  0  0
 29 28  1  6  0  0  0
 30 29  1  0  0  0  0
 31 30  1  0  0  0  0
 32 31  2  0  0  0  0
 33 31  1  0  0  0  0
 35 36  2  0  0  0  0
 36 34  1  0  0  0  0
 36 33  1  0  0  0  0
M  END
>  <MODEL>
5

>  <REMARK>
 VINA RESULT:      -5.8      2.248      6.166
  Name = 
  15 active torsions:
  status: ('A' for Active; 'I' for Inactive)
    1  A    between atoms: C_2  and  O_25
    2  A    between atoms: C_2  and  C_30
    3  A    between atoms: C_5  and  C_19
    4  A    between atoms: C_8  and  N_13
    5  A    between atoms: C_8  and  C_33
    6  A    between atoms: C_10  and  C_12
    7  A    between atoms: C_12  and  C_31
    8  A    between atoms: N_13  and  C_32
    9  A    between atoms: C_14  and  C_21
   10  A    between atoms: C_16  and  C_32
   11  A    between atoms: C_16  and  C_36
   12  A    between atoms: C_18  and  N_20
   13  A    between atoms: C_19  and  C_28
   14  A    between atoms: O_25  and  C_31
   15  A    between atoms: C_28  and  C_36
                            x       y       z     vdW  Elec       q    Type
                         _______ _______ _______ _____ _____    ______ ____

>  <TORSDO>
F 15

$$$$
=
 OpenBabel11072408473D

 36 37  0  0  1  0  0  0  0  0999 V2000
  188.6040  175.1660  141.8490 C   0  0  0  0  0  0  0  0  0  0  0  0
  189.9630  173.2570  141.2520 C   0  0  0  0  0  0  0  0  0  0  0  0
  188.6980  173.8710  141.3400 C   0  0  0  0  0  3  0  0  0  0  0  0
  189.3140  177.3750  142.8020 S   0  0  0  0  0  0  0  0  0  0  0  0
  191.1120  173.9600  141.6750 C   0  0  0  0  0  3  0  0  0  0  0  0
  189.7430  175.8430  142.2610 C   0  0  0  0  0  0  0  0  0  0  0  0
  187.6610  177.1580  142.5230 C   0  0  0  0  0  0  0  0  0  0  0  0
  191.0100  175.2610  142.1910 C   0  0  0  0  0  0  0  0  0  0  0  0
  187.4200  175.8960  141.9830 C   0  0  0  0  0  3  0  0  0  0  0  0
  190.0870  171.8930  140.7110 C   0  0  0  0  0  0  0  0  0  0  0  0
  189.9650  171.6850  139.4740 O   0  0  0  0  0  0  0  0  0  0  0  0
  190.3450  170.7920  141.5780 N   0  0  0  0  0  1  0  0  0  0  0  0
  186.6240  178.2020  142.7350 C   0  0  0  0  0  2  0  0  0  0  0  0
  185.4820  177.6250  143.2980 O   0  0  0  0  0  0  0  0  0  0  0  0
  184.2850  179.0360  144.7060 N   0  0  0  0  0  1  0  0  0  0  0  0
  185.4230  178.1390  144.5940 C   0  0  1  0  0  3  0  0  0  0  0  0
  185.2780  176.9950  145.5890 C   0  0  0  0  0  2  0  0  0  0  0  0
  186.3100  177.0900  146.6660 C   0  0  0  0  0  0  0  0  0  0  0  0
  186.0070  177.5770  147.8130 N   0  0  0  0  0  2  0  0  0  0  0  0
  187.6540  176.4860  146.4510 C   0  0  0  0  0  1  0  0  0  0  0  0
  192.2340  176.0090  142.5970 C   0  0  0  0  0  2  0  0  0  0  0  0
  193.4100  175.2090  142.3050 N   0  0  0  0  0  2  0  0  0  0  0  0
  194.5580  176.0910  142.4140 C   0  0  0  0  0  2  0  0  0  0  0  0
  195.1230  176.9110  144.5700 O   0  0  0  0  0  0  0  0  0  0  0  0
  195.1760  175.9430  143.7640 C   0  0  0  0  0  0  0  0  0  0  0  0
  196.7100  174.1120  143.3060 C   0  0  0  0  0  2  0  0  0  0  0  0
  195.8520  174.6880  144.1480 C   0  0  0  0  0  0  0  0  0  0  0  0
  196.7860  173.4080  146.0800 C   0  0  0  0  0  1  0  0  0  0  0  0
  195.5460  174.0450  145.4770 C   0  0  2  0  0  3  0  0  0  0  0  0
  194.4280  173.0170  145.3680 C   0  0  0  0  0  2  0  0  0  0  0  0
  193.1020  173.6640  145.5740 C   0  0  0  0  0  0  0  0  0  0  0  0
  192.1050  173.2440  144.9300 O   0  0  0  0  0  0  0  0  0  0  0  0
  192.9740  174.7090  146.5460 N   0  0  0  0  0  2  0  0  0  0  0  0
  191.0410  175.2880  148.0470 C   0  0  0  0  0  1  0  0  0  0  0  0
  191.4120  176.7930  145.8520 S   0  0  0  0  0  0  0  0  0  0  0  0
  191.8160  175.5180  146.8000 C   0  0  0  0  0  0  0  0  0  0  0  0
  1  9  1  0  0  0  0
  1  6  1  0  0  0  0
  2  3  1  0  0  0  0
  2  5  2  0  0  0  0
  3  1  2  0  0  0  0
  5  8  1  0  0  0  0
  6  4  1  0  0  0  0
  7 13  1  0  0  0  0
  7  4  1  0  0  0  0
  8  6  2  0  0  0  0
  8 21  1  0  0  0  0
  9  7  2  0  0  0  0
 10  2  1  0  0  0  0
 10 12  1  0  0  0  0
 11 10  2  0  0  0  0
 13 14  1  0  0  0  0
 14 16  1  0  0  0  0
 16 15  1  6  0  0  0
 16 17  1  0  0  0  0
 17 18  1  0  0  0  0
 18 19  2  0  0  0  0
 20 18  1  0  0  0  0
 22 23  1  0  0  0  0
 22 21  1  0  0  0  0
 23 25  1  0  0  0  0
 25 27  1  0  0  0  0
 25 24  2  0  0  0  0
 26 27  2  0  0  0  0
 27 29  1  0  0  0  0
 29 28  1  6  0  0  0
 30 29  1  0  0  0  0
 30 31  1  0  0  0  0
 31 33  1  0  0  0  0
 32 31  2  0  0  0  0
 33 36  1  0  0  0  0
 35 36  2  0  0  0  0
 36 34  1  0  0  0  0
M  END
>  <MODEL>
6

>  <REMARK>
 VINA RESULT:      -5.7      2.331      7.543
  Name = 
  15 active torsions:
  status: ('A' for Active; 'I' for Inactive)
    1  A    between atoms: C_2  and  O_25
    2  A    between atoms: C_2  and  C_30
    3  A    between atoms: C_5  and  C_19
    4  A    between atoms: C_8  and  N_13
    5  A    between atoms: C_8  and  C_33
    6  A    between atoms: C_10  and  C_12
    7  A    between atoms: C_12  and  C_31
    8  A    between atoms: N_13  and  C_32
    9  A    between atoms: C_14  and  C_21
   10  A    between atoms: C_16  and  C_32
   11  A    between atoms: C_16  and  C_36
   12  A    between atoms: C_18  and  N_20
   13  A    between atoms: C_19  and  C_28
   14  A    between atoms: O_25  and  C_31
   15  A    between atoms: C_28  and  C_36
                            x       y       z     vdW  Elec       q    Type
                         _______ _______ _______ _____ _____    ______ ____

>  <TORSDO>
F 15

$$$$
=
 OpenBabel11072408473D

 36 37  0  0  1  0  0  0  0  0999 V2000
  190.9680  172.8910  141.2350 C   0  0  0  0  0  0  0  0  0  0  0  0
  189.6460  173.6750  139.3680 C   0  0  0  0  0  0  0  0  0  0  0  0
  190.7330  172.9260  139.8610 C   0  0  0  0  0  3  0  0  0  0  0  0
  190.6620  173.3350  143.6850 S   0  0  0  0  0  0  0  0  0  0  0  0
  188.8130  174.3740  140.2690 C   0  0  0  0  0  3  0  0  0  0  0  0
  190.1400  173.5840  142.1070 C   0  0  0  0  0  0  0  0  0  0  0  0
  191.9630  172.3520  143.2420 C   0  0  0  0  0  0  0  0  0  0  0  0
  189.0580  174.3390  141.6500 C   0  0  0  0  0  0  0  0  0  0  0  0
  191.9980  172.1840  141.8600 C   0  0  0  0  0  3  0  0  0  0  0  0
  189.3750  173.7210  137.9210 C   0  0  0  0  0  0  0  0  0  0  0  0
  190.1680  173.1760  137.1080 O   0  0  0  0  0  0  0  0  0  0  0  0
  188.2150  174.3810  137.4240 N   0  0  0  0  0  1  0  0  0  0  0  0
  192.8820  171.6840  144.2020 C   0  0  0  0  0  2  0  0  0  0  0  0
  194.2080  171.9410  143.8410 O   0  0  0  0  0  0  0  0  0  0  0  0
  195.0360  173.2750  145.5560 N   0  0  0  0  0  1  0  0  0  0  0  0
  194.4360  173.2610  144.2320 C   0  0  1  0  0  3  0  0  0  0  0  0
  195.3700  173.9320  143.2350 C   0  0  0  0  0  2  0  0  0  0  0  0
  194.9930  175.3640  143.0300 C   0  0  0  0  0  0  0  0  0  0  0  0
  195.5440  176.2860  143.7300 N   0  0  0  0  0  2  0  0  0  0  0  0
  194.0800  175.7300  141.9120 C   0  0  0  0  0  1  0  0  0  0  0  0
  188.1480  175.0470  142.5950 C   0  0  0  0  0  2  0  0  0  0  0  0
  187.4910  176.1430  141.9060 N   0  0  0  0  0  2  0  0  0  0  0  0
  186.2920  176.4580  142.6610 C   0  0  0  0  0  2  0  0  0  0  0  0
  186.6980  178.7790  142.3610 O   0  0  0  0  0  0  0  0  0  0  0  0
  186.3710  177.8620  143.1620 C   0  0  0  0  0  0  0  0  0  0  0  0
  185.7130  179.4060  144.9220 C   0  0  0  0  0  2  0  0  0  0  0  0
  186.0840  178.1730  144.5760 C   0  0  0  0  0  0  0  0  0  0  0  0
  185.0040  177.0040  146.5020 C   0  0  0  0  0  1  0  0  0  0  0  0
  186.2420  177.1060  145.6280 C   0  0  2  0  0  3  0  0  0  0  0  0
  187.4760  177.3350  146.4910 C   0  0  0  0  0  2  0  0  0  0  0  0
  188.6720  176.6960  145.8720 C   0  0  0  0  0  0  0  0  0  0  0  0
  188.8340  175.4530  145.9860 O   0  0  0  0  0  0  0  0  0  0  0  0
  189.5790  177.4980  145.1050 N   0  0  0  0  0  2  0  0  0  0  0  0
  191.0510  177.2750  143.0790 C   0  0  0  0  0  1  0  0  0  0  0  0
  192.0830  176.5670  145.4570 S   0  0  0  0  0  0  0  0  0  0  0  0
  190.8300  177.0850  144.5370 C   0  0  0  0  0  0  0  0  0  0  0  0
  1  9  1  0  0  0  0
  1  6  1  0  0  0  0
  2  3  1  0  0  0  0
  2  5  2  0  0  0  0
  3  1  2  0  0  0  0
  5  8  1  0  0  0  0
  6  4  1  0  0  0  0
  7  4  1  0  0  0  0
  7 13  1  0  0  0  0
  8  6  2  0  0  0  0
  8 21  1  0  0  0  0
  9  7  2  0  0  0  0
 10  2  1  0  0  0  0
 11 10  2  0  0  0  0
 12 10  1  0  0  0  0
 14 13  1  0  0  0  0
 14 16  1  0  0  0  0
 16 15  1  1  0  0  0
 17 16  1  0  0  0  0
 18 17  1  0  0  0  0
 18 19  2  0  0  0  0
 20 18  1  0  0  0  0
 22 21  1  0  0  0  0
 22 23  1  0  0  0  0
 23 25  1  0  0  0  0
 24 25  2  0  0  0  0
 25 27  1  0  0  0  0
 27 26  2  0  0  0  0
 27 29  1  0  0  0  0
 29 30  1  0  0  0  0
 29 28  1  1  0  0  0
 31 32  2  0  0  0  0
 31 30  1  0  0  0  0
 33 31  1  0  0  0  0
 34 36  1  0  0  0  0
 36 33  1  0  0  0  0
 36 35  2  0  0  0  0
M  END
>  <MODEL>
7

>  <REMARK>
 VINA RESULT:      -5.6      2.537      6.402
  Name = 
  15 active torsions:
  status: ('A' for Active; 'I' for Inactive)
    1  A    between atoms: C_2  and  O_25
    2  A    between atoms: C_2  and  C_30
    3  A    between atoms: C_5  and  C_19
    4  A    between atoms: C_8  and  N_13
    5  A    between atoms: C_8  and  C_33
    6  A    between atoms: C_10  and  C_12
    7  A    between atoms: C_12  and  C_31
    8  A    between atoms: N_13  and  C_32
    9  A    between atoms: C_14  and  C_21
   10  A    between atoms: C_16  and  C_32
   11  A    between atoms: C_16  and  C_36
   12  A    between atoms: C_18  and  N_20
   13  A    between atoms: C_19  and  C_28
   14  A    between atoms: O_25  and  C_31
   15  A    between atoms: C_28  and  C_36
                            x       y       z     vdW  Elec       q    Type
                         _______ _______ _______ _____ _____    ______ ____

>  <TORSDO>
F 15

$$$$
=
 OpenBabel11072408473D

 36 37  0  0  1  0  0  0  0  0999 V2000
  188.8780  174.5690  141.6210 C   0  0  0  0  0  0  0  0  0  0  0  0
  187.8640  176.6950  142.1670 C   0  0  0  0  0  0  0  0  0  0  0  0
  187.7430  175.3740  141.6910 C   0  0  0  0  0  3  0  0  0  0  0  0
  191.2760  173.8600  141.8370 S   0  0  0  0  0  0  0  0  0  0  0  0
  189.1280  177.1800  142.5670 C   0  0  0  0  0  3  0  0  0  0  0  0
  190.1140  175.0610  142.0180 C   0  0  0  0  0  0  0  0  0  0  0  0
  190.1910  172.7150  141.2310 C   0  0  0  0  0  0  0  0  0  0  0  0
  190.2680  176.3660  142.4900 C   0  0  0  0  0  0  0  0  0  0  0  0
  188.9020  173.2430  141.1800 C   0  0  0  0  0  3  0  0  0  0  0  0
  186.6760  177.5610  142.2550 C   0  0  0  0  0  0  0  0  0  0  0  0
  186.1620  177.8230  143.3760 O   0  0  0  0  0  0  0  0  0  0  0  0
  186.0940  178.1130  141.0790 N   0  0  0  0  0  1  0  0  0  0  0  0
  190.5460  171.3120  140.8900 C   0  0  0  0  0  2  0  0  0  0  0  0
  190.3530  170.4910  142.0050 O   0  0  0  0  0  0  0  0  0  0  0  0
  192.5090  170.2200  141.1760 N   0  0  0  0  0  1  0  0  0  0  0  0
  191.6200  169.9890  142.3030 C   0  0  1  0  0  3  0  0  0  0  0  0
  192.1650  170.6860  143.5420 C   0  0  0  0  0  2  0  0  0  0  0  0
  193.1790  169.8330  144.2340 C   0  0  0  0  0  0  0  0  0  0  0  0
  192.8850  168.6350  144.5850 N   0  0  0  0  0  2  0  0  0  0  0  0
  194.5740  170.3280  144.3870 C   0  0  0  0  0  1  0  0  0  0  0  0
  191.5900  176.8760  142.9530 C   0  0  0  0  0  2  0  0  0  0  0  0
  191.6960  176.7140  144.3910 N   0  0  0  0  0  2  0  0  0  0  0  0
  192.7530  175.7470  144.6310 C   0  0  0  0  0  2  0  0  0  0  0  0
  192.9710  173.6240  145.6730 O   0  0  0  0  0  0  0  0  0  0  0  0
  192.2020  174.5810  145.3820 C   0  0  0  0  0  0  0  0  0  0  0  0
  189.9590  173.6650  145.1830 C   0  0  0  0  0  2  0  0  0  0  0  0
  190.7780  174.5380  145.7670 C   0  0  0  0  0  0  0  0  0  0  0  0
  191.0500  175.4320  148.0850 C   0  0  0  0  0  1  0  0  0  0  0  0
  190.2490  175.5030  146.7960 C   0  0  2  0  0  3  0  0  0  0  0  0
  188.7710  175.2740  147.0840 C   0  0  0  0  0  2  0  0  0  0  0  0
  187.9820  176.5000  146.7760 C   0  0  0  0  0  0  0  0  0  0  0  0
  188.4180  177.3140  145.9200 O   0  0  0  0  0  0  0  0  0  0  0  0
  186.7130  176.6970  147.4120 N   0  0  0  0  0  2  0  0  0  0  0  0
  186.3300  179.1190  147.9690 C   0  0  0  0  0  1  0  0  0  0  0  0
  184.5150  177.8930  146.4120 S   0  0  0  0  0  0  0  0  0  0  0  0
  185.8740  177.8580  147.3270 C   0  0  0  0  0  0  0  0  0  0  0  0
  1  3  2  0  0  0  0
  1  6  1  0  0  0  0
  2 10  1  0  0  0  0
  2  5  2  0  0  0  0
  3  2  1  0  0  0  0
  4  6  1  0  0  0  0
  6  8  2  0  0  0  0
  7  4  1  0  0  0  0
  8  5  1  0  0  0  0
  8 21  1  0  0  0  0
  9  7  2  0  0  0  0
  9  1  1  0  0  0  0
 10 11  2  0  0  0  0
 12 10  1  0  0  0  0
 13  7  1  0  0  0  0
 13 14  1  0  0  0  0
 14 16  1  0  0  0  0
 16 15  1  6  0  0  0
 16 17  1  0  0  0  0
 17 18  1  0  0  0  0
 18 20  1  0  0  0  0
 18 19  2  0  0  0  0
 21 22  1  0  0  0  0
 22 23  1  0  0  0  0
 23 25  1  0  0  0  0
 25 24  2  0  0  0  0
 25 27  1  0  0  0  0
 26 27  2  0  0  0  0
 27 29  1  0  0  0  0
 29 30  1  0  0  0  0
 29 28  1  1  0  0  0
 31 30  1  0  0  0  0
 31 33  1  0  0  0  0
 32 31  2  0  0  0  0
 35 36  2  0  0  0  0
 36 33  1  0  0  0  0
 36 34  1  0  0  0  0
M  END
>  <MODEL>
8

>  <REMARK>
 VINA RESULT:      -5.6      2.575      6.494
  Name = 
  15 active torsions:
  status: ('A' for Active; 'I' for Inactive)
    1  A    between atoms: C_2  and  O_25
    2  A    between atoms: C_2  and  C_30
    3  A    between atoms: C_5  and  C_19
    4  A    between atoms: C_8  and  N_13
    5  A    between atoms: C_8  and  C_33
    6  A    between atoms: C_10  and  C_12
    7  A    between atoms: C_12  and  C_31
    8  A    between atoms: N_13  and  C_32
    9  A    between atoms: C_14  and  C_21
   10  A    between atoms: C_16  and  C_32
   11  A    between atoms: C_16  and  C_36
   12  A    between atoms: C_18  and  N_20
   13  A    between atoms: C_19  and  C_28
   14  A    between atoms: O_25  and  C_31
   15  A    between atoms: C_28  and  C_36
                            x       y       z     vdW  Elec       q    Type
                         _______ _______ _______ _____ _____    ______ ____

>  <TORSDO>
F 15

$$$$
=
 OpenBabel11072408473D

 36 37  0  0  1  0  0  0  0  0999 V2000
  188.9330  174.1820  142.0680 C   0  0  0  0  0  0  0  0  0  0  0  0
  187.8620  176.3480  141.9920 C   0  0  0  0  0  0  0  0  0  0  0  0
  187.7910  174.9490  141.8440 C   0  0  0  0  0  3  0  0  0  0  0  0
  191.3060  173.6120  142.6500 S   0  0  0  0  0  0  0  0  0  0  0  0
  189.0830  176.9500  142.3670 C   0  0  0  0  0  3  0  0  0  0  0  0
  190.1260  174.7900  142.4350 C   0  0  0  0  0  0  0  0  0  0  0  0
  190.2860  172.3260  142.2530 C   0  0  0  0  0  0  0  0  0  0  0  0
  190.2300  176.1740  142.5850 C   0  0  0  0  0  0  0  0  0  0  0  0
  189.0040  172.7900  141.9680 C   0  0  0  0  0  3  0  0  0  0  0  0
  186.6660  177.1780  141.7670 C   0  0  0  0  0  0  0  0  0  0  0  0
  186.6200  177.9790  140.7960 O   0  0  0  0  0  0  0  0  0  0  0  0
  185.5460  177.0860  142.6430 N   0  0  0  0  0  1  0  0  0  0  0  0
  190.6780  170.8920  142.2950 C   0  0  0  0  0  2  0  0  0  0  0  0
  190.4010  170.2900  141.0640 O   0  0  0  0  0  0  0  0  0  0  0  0
  192.4130  169.4080  140.3030 N   0  0  0  0  0  1  0  0  0  0  0  0
  191.5210  170.5550  140.2750 C   0  0  1  0  0  3  0  0  0  0  0  0
  191.0810  170.8330  138.8450 C   0  0  0  0  0  2  0  0  0  0  0  0
  191.4240  172.2310  138.4420 C   0  0  0  0  0  0  0  0  0  0  0  0
  192.5180  172.4750  137.8180 N   0  0  0  0  0  2  0  0  0  0  0  0
  190.4270  173.3180  138.6400 C   0  0  0  0  0  1  0  0  0  0  0  0
  191.5030  176.8160  143.0200 C   0  0  0  0  0  2  0  0  0  0  0  0
  191.3360  177.3750  144.3490 N   0  0  0  0  0  2  0  0  0  0  0  0
  192.4080  176.8410  145.1690 C   0  0  0  0  0  2  0  0  0  0  0  0
  192.4220  174.5790  145.8960 O   0  0  0  0  0  0  0  0  0  0  0  0
  191.8870  175.7160  146.0020 C   0  0  0  0  0  0  0  0  0  0  0  0
  190.9250  176.6580  148.0270 C   0  0  0  0  0  2  0  0  0  0  0  0
  190.7550  175.9260  146.9250 C   0  0  0  0  0  0  0  0  0  0  0  0
  189.5880  173.8770  146.1010 C   0  0  0  0  0  1  0  0  0  0  0  0
  189.4210  175.2880  146.6370 C   0  0  2  0  0  3  0  0  0  0  0  0
  188.5880  176.1210  145.6720 C   0  0  0  0  0  2  0  0  0  0  0  0
  187.4840  176.8120  146.3960 C   0  0  0  0  0  0  0  0  0  0  0  0
  187.0780  176.3430  147.4920 O   0  0  0  0  0  0  0  0  0  0  0  0
  186.9510  178.0310  145.8650 N   0  0  0  0  0  2  0  0  0  0  0  0
  185.9370  179.4630  147.6660 C   0  0  0  0  0  1  0  0  0  0  0  0
  184.4740  179.0120  145.4580 S   0  0  0  0  0  0  0  0  0  0  0  0
  185.8220  178.7690  146.3570 C   0  0  0  0  0  0  0  0  0  0  0  0
  1  6  1  0  0  0  0
  2  5  2  0  0  0  0
  3  2  1  0  0  0  0
  3  1  2  0  0  0  0
  5  8  1  0  0  0  0
  6  8  2  0  0  0  0
  6  4  1  0  0  0  0
  7 13  1  0  0  0  0
  7  4  1  0  0  0  0
  8 21  1  0  0  0  0
  9  1  1  0  0  0  0
  9  7  2  0  0  0  0
 10  2  1  0  0  0  0
 10 12  1  0  0  0  0
 11 10  2  0  0  0  0
 14 13  1  0  0  0  0
 16 15  1  6  0  0  0
 16 14  1  0  0  0  0
 17 16  1  0  0  0  0
 18 20  1  0  0  0  0
 18 17  1  0  0  0  0
 19 18  2  0  0  0  0
 21 22  1  0  0  0  0
 22 23  1  0  0  0  0
 23 25  1  0  0  0  0
 24 25  2  0  0  0  0
 25 27  1  0  0  0  0
 27 26  2  0  0  0  0
 29 28  1  6  0  0  0
 29 27  1  0  0  0  0
 30 31  1  0  0  0  0
 30 29  1  0  0  0  0
 31 32  2  0  0  0  0
 33 36  1  0  0  0  0
 33 31  1  0  0  0  0
 35 36  2  0  0  0  0
 36 34  1  0  0  0  0
M  END
>  <MODEL>
9

>  <REMARK>
 VINA RESULT:      -5.6      2.568      7.069
  Name = 
  15 active torsions:
  status: ('A' for Active; 'I' for Inactive)
    1  A    between atoms: C_2  and  O_25
    2  A    between atoms: C_2  and  C_30
    3  A    between atoms: C_5  and  C_19
    4  A    between atoms: C_8  and  N_13
    5  A    between atoms: C_8  and  C_33
    6  A    between atoms: C_10  and  C_12
    7  A    between atoms: C_12  and  C_31
    8  A    between atoms: N_13  and  C_32
    9  A    between atoms: C_14  and  C_21
   10  A    between atoms: C_16  and  C_32
   11  A    between atoms: C_16  and  C_36
   12  A    between atoms: C_18  and  N_20
   13  A    between atoms: C_19  and  C_28
   14  A    between atoms: O_25  and  C_31
   15  A    between atoms: C_28  and  C_36
                            x       y       z     vdW  Elec       q    Type
                         _______ _______ _______ _____ _____    ______ ____

>  <TORSDO>
F 15

$$$$
