=
 OpenBabel11072408423D

 36 40  0  0  1  0  0  0  0  0999 V2000
  188.8660  174.9750  143.0740 N   0  0  0  0  0  0  0  0  0  0  0  0
  190.0780  175.5740  144.8170 N   0  0  0  0  0  0  0  0  0  0  0  0
  190.8620  174.8470  144.0040 C   0  0  0  0  0  0  0  0  0  0  0  0
  190.1010  174.4670  142.9140 C   0  0  0  0  0  0  0  0  0  0  0  0
  188.8970  175.6380  144.2220 N   0  0  0  0  0  0  0  0  0  0  0  0
  187.7450  176.3150  144.8050 C   0  0  1  0  0  3  0  0  0  0  0  0
  186.4960  178.5260  144.9770 C   0  0  1  0  0  3  0  0  0  0  0  0
  187.8070  176.2560  146.3010 C   0  0  0  0  0  3  0  0  0  0  0  0
  184.2530  179.0120  144.0130 C   0  0  0  0  0  1  0  0  0  0  0  0
  187.6050  177.8400  142.9530 O   0  0  0  0  0  1  0  0  0  0  0  0
  183.8450  178.3720  146.6010 O   0  0  0  0  0  1  0  0  0  0  0  0
  187.1040  177.1140  147.0490 C   0  0  0  0  0  3  0  0  0  0  0  0
  186.2180  178.1870  146.4540 C   0  0  2  0  0  3  0  0  0  0  0  0
  184.8740  177.5960  146.0600 C   0  0  2  0  0  3  0  0  0  0  0  0
  187.6840  177.7720  144.3460 C   0  0  2  0  0  3  0  0  0  0  0  0
  185.1520  177.9260  144.5870 C   0  0  2  0  0  3  0  0  0  0  0  0
  190.5210  173.5240  139.5100 C   0  0  0  0  0  2  0  0  0  0  0  0
  190.8010  172.0110  139.4840 C   0  0  0  0  0  2  0  0  0  0  0  0
  189.6340  171.7390  142.9930 O   0  0  0  0  0  1  0  0  0  0  0  0
  190.3140  171.3050  140.7530 C   0  0  1  0  0  3  0  0  0  0  0  0
  190.9110  170.0500  140.8520 O   0  0  0  0  0  1  0  0  0  0  0  0
  190.5260  173.6300  141.7470 C   0  0  2  0  0  3  0  0  0  0  0  0
  189.7400  173.9040  140.6180 O   0  0  0  0  0  0  0  0  0  0  0  0
  190.5750  172.1130  142.0300 C   0  0  1  0  0  3  0  0  0  0  0  0
  193.6490  173.2690  145.6310 C   0  0  0  0  0  2  0  0  0  0  0  0
  194.7180  175.0440  144.2170 C   0  0  0  0  0  0  0  0  0  0  0  0
  193.2980  175.6370  144.0560 C   0  0  1  0  0  3  0  0  0  0  0  0
  194.9680  174.1960  143.1510 F   0  0  0  0  0  0  0  0  0  0  0  0
  194.8260  174.2410  145.5180 C   0  0  0  0  0  2  0  0  0  0  0  0
  195.6890  176.0290  144.2120 F   0  0  0  0  0  0  0  0  0  0  0  0
  192.4330  173.9750  145.6200 O   0  0  0  0  0  0  0  0  0  0  0  0
  192.2860  174.4970  144.3200 C   0  0  1  0  0  3  0  0  0  0  0  0
  192.1880  177.7620  144.2510 F   0  0  0  0  0  0  0  0  0  0  0  0
  194.2370  177.5880  145.1090 F   0  0  0  0  0  0  0  0  0  0  0  0
  193.0510  176.9050  144.9090 C   0  0  0  0  0  0  0  0  0  0  0  0
  192.5120  176.5730  146.1390 F   0  0  0  0  0  0  0  0  0  0  0  0
  1  5  1  0  0  0  0
  3 32  1  0  0  0  0
  3  2  2  0  0  0  0
  4  1  2  0  0  0  0
  4  3  1  0  0  0  0
  5  2  1  0  0  0  0
  6  5  1  6  0  0  0
  6  8  1  0  0  0  0
  7 13  1  0  0  0  0
  8 12  2  0  0  0  0
  9 16  1  0  0  0  0
 10 15  1  0  0  0  0
 13 12  1  0  0  0  0
 14 13  1  0  0  0  0
 14 11  1  0  0  0  0
 15  6  1  0  0  0  0
 15  7  1  0  0  0  0
 16  7  1  0  0  0  0
 16 14  1  0  0  0  0
 17 23  1  0  0  0  0
 18 17  1  0  0  0  0
 18 20  1  0  0  0  0
 20 21  1  0  0  0  0
 20 24  1  0  0  0  0
 22 24  1  0  0  0  0
 22  4  1  0  0  0  0
 23 22  1  0  0  0  0
 24 19  1  0  0  0  0
 26 29  1  0  0  0  0
 27 26  1  0  0  0  0
 27 32  1  0  0  0  0
 27 35  1  0  0  0  0
 28 26  1  0  0  0  0
 29 25  1  0  0  0  0
 30 26  1  0  0  0  0
 31 25  1  0  0  0  0
 32 31  1  0  0  0  0
 33 35  1  0  0  0  0
 35 34  1  0  0  0  0
 35 36  1  0  0  0  0
M  END
>  <MODEL>
1

>  <REMARK>
 VINA RESULT:      -8.8      0.000      0.000
  Name = 
  4 active torsions:
  status: ('A' for Active; 'I' for Inactive)
    1  A    between atoms: C_1  and  N_33
    2  A    between atoms: C_15  and  C_19
    3  A    between atoms: C_23  and  C_34
    4  A    between atoms: C_28  and  C_31
                            x       y       z     vdW  Elec       q    Type
                         _______ _______ _______ _____ _____    ______ ____

>  <TORSDO>
F 4

$$$$
=
 OpenBabel11072408423D

 36 40  0  0  1  0  0  0  0  0999 V2000
  188.7760  175.2430  143.2840 N   0  0  0  0  0  0  0  0  0  0  0  0
  190.0030  176.6080  144.5070 N   0  0  0  0  0  0  0  0  0  0  0  0
  190.8380  175.8060  143.8250 C   0  0  0  0  0  0  0  0  0  0  0  0
  190.0690  174.9470  143.0620 C   0  0  0  0  0  0  0  0  0  0  0  0
  188.7800  176.2480  144.1480 N   0  0  0  0  0  0  0  0  0  0  0  0
  187.5760  176.8580  144.6980 C   0  0  1  0  0  3  0  0  0  0  0  0
  186.0760  178.9140  144.6530 C   0  0  1  0  0  3  0  0  0  0  0  0
  187.6940  177.0000  146.1840 C   0  0  0  0  0  3  0  0  0  0  0  0
  183.7590  179.0090  143.7460 C   0  0  0  0  0  1  0  0  0  0  0  0
  187.1900  178.1030  142.6790 O   0  0  0  0  0  1  0  0  0  0  0  0
  183.5190  178.6660  146.4110 O   0  0  0  0  0  1  0  0  0  0  0  0
  186.9180  177.8610  146.8530 C   0  0  0  0  0  3  0  0  0  0  0  0
  185.8900  178.7380  146.1730 C   0  0  2  0  0  3  0  0  0  0  0  0
  184.6150  177.9500  145.9220 C   0  0  2  0  0  3  0  0  0  0  0  0
  187.3230  178.2260  144.0640 C   0  0  2  0  0  3  0  0  0  0  0  0
  184.8020  178.1170  144.4070 C   0  0  2  0  0  3  0  0  0  0  0  0
  190.7190  173.2610  139.9990 C   0  0  0  0  0  2  0  0  0  0  0  0
  190.9170  171.7710  140.3270 C   0  0  0  0  0  2  0  0  0  0  0  0
  189.4490  172.3210  143.6870 O   0  0  0  0  0  1  0  0  0  0  0  0
  190.2880  171.3800  141.6680 C   0  0  1  0  0  3  0  0  0  0  0  0
  190.8050  170.1580  142.0920 O   0  0  0  0  0  1  0  0  0  0  0  0
  190.5430  173.8580  142.1500 C   0  0  2  0  0  3  0  0  0  0  0  0
  189.8700  173.9030  140.9200 O   0  0  0  0  0  0  0  0  0  0  0  0
  190.4860  172.4400  142.7580 C   0  0  1  0  0  3  0  0  0  0  0  0
  194.3020  175.2850  143.0300 C   0  0  0  0  0  2  0  0  0  0  0  0
  194.3580  176.1140  145.3960 C   0  0  0  0  0  0  0  0  0  0  0  0
  192.8350  175.8390  145.4290 C   0  0  1  0  0  3  0  0  0  0  0  0
  194.5630  177.4370  145.0430 F   0  0  0  0  0  0  0  0  0  0  0  0
  195.0500  175.2170  144.3640 C   0  0  0  0  0  2  0  0  0  0  0  0
  194.9420  175.9110  146.6340 F   0  0  0  0  0  0  0  0  0  0  0  0
  192.9720  174.8610  143.1960 O   0  0  0  0  0  0  0  0  0  0  0  0
  192.3310  175.8520  143.9660 C   0  0  1  0  0  3  0  0  0  0  0  0
  192.3190  174.8530  147.5600 F   0  0  0  0  0  0  0  0  0  0  0  0
  193.4380  173.6050  146.0930 F   0  0  0  0  0  0  0  0  0  0  0  0
  192.4490  174.5630  146.2140 C   0  0  0  0  0  0  0  0  0  0  0  0
  191.2570  174.0390  145.7460 F   0  0  0  0  0  0  0  0  0  0  0  0
  1  5  1  0  0  0  0
  3 32  1  0  0  0  0
  3  2  2  0  0  0  0
  4  1  2  0  0  0  0
  4  3  1  0  0  0  0
  5  2  1  0  0  0  0
  6  5  1  6  0  0  0
  6  8  1  0  0  0  0
  7 13  1  0  0  0  0
  8 12  2  0  0  0  0
  9 16  1  0  0  0  0
 10 15  1  0  0  0  0
 13 12  1  0  0  0  0
 14 13  1  0  0  0  0
 14 11  1  0  0  0  0
 15  7  1  0  0  0  0
 15  6  1  0  0  0  0
 16  7  1  0  0  0  0
 16 14  1  0  0  0  0
 17 18  1  0  0  0  0
 17 23  1  0  0  0  0
 18 20  1  0  0  0  0
 20 21  1  0  0  0  0
 20 24  1  0  0  0  0
 22 24  1  0  0  0  0
 22  4  1  0  0  0  0
 23 22  1  0  0  0  0
 24 19  1  0  0  0  0
 25 31  1  0  0  0  0
 25 29  1  0  0  0  0
 26 27  1  0  0  0  0
 26 30  1  0  0  0  0
 27 35  1  0  0  0  0
 28 26  1  0  0  0  0
 29 26  1  0  0  0  0
 31 32  1  0  0  0  0
 32 27  1  0  0  0  0
 34 35  1  0  0  0  0
 35 33  1  0  0  0  0
 36 35  1  0  0  0  0
M  END
>  <MODEL>
2

>  <REMARK>
 VINA RESULT:      -8.7      1.271      1.772
  Name = 
  4 active torsions:
  status: ('A' for Active; 'I' for Inactive)
    1  A    between atoms: C_1  and  N_33
    2  A    between atoms: C_15  and  C_19
    3  A    between atoms: C_23  and  C_34
    4  A    between atoms: C_28  and  C_31
                            x       y       z     vdW  Elec       q    Type
                         _______ _______ _______ _____ _____    ______ ____

>  <TORSDO>
F 4

$$$$
=
 OpenBabel11072408423D

 36 40  0  0  1  0  0  0  0  0999 V2000
  190.0530  175.8530  144.7760 N   0  0  0  0  0  0  0  0  0  0  0  0
  188.7940  175.1170  143.1210 N   0  0  0  0  0  0  0  0  0  0  0  0
  190.0520  174.7010  142.8950 C   0  0  0  0  0  0  0  0  0  0  0  0
  190.8420  175.1680  143.9300 C   0  0  0  0  0  0  0  0  0  0  0  0
  188.8340  175.7930  144.2590 N   0  0  0  0  0  0  0  0  0  0  0  0
  187.6680  176.4460  144.8400 C   0  0  1  0  0  3  0  0  0  0  0  0
  186.3630  178.6260  144.9960 C   0  0  1  0  0  3  0  0  0  0  0  0
  187.7370  176.4030  146.3360 C   0  0  0  0  0  3  0  0  0  0  0  0
  184.1040  179.0440  144.0370 C   0  0  0  0  0  1  0  0  0  0  0  0
  187.4800  177.9470  142.9740 O   0  0  0  0  0  1  0  0  0  0  0  0
  183.7240  178.4200  146.6330 O   0  0  0  0  0  1  0  0  0  0  0  0
  187.0160  177.2510  147.0790 C   0  0  0  0  0  3  0  0  0  0  0  0
  186.1000  178.2940  146.4780 C   0  0  2  0  0  3  0  0  0  0  0  0
  184.7700  177.6650  146.0960 C   0  0  2  0  0  3  0  0  0  0  0  0
  187.5660  177.8960  144.3670 C   0  0  2  0  0  3  0  0  0  0  0  0
  185.0330  177.9870  144.6180 C   0  0  2  0  0  3  0  0  0  0  0  0
  193.8990  174.5140  145.6270 C   0  0  0  0  0  2  0  0  0  0  0  0
  195.0380  175.0630  144.7500 C   0  0  0  0  0  2  0  0  0  0  0  0
  192.5700  176.9870  142.7590 O   0  0  0  0  0  1  0  0  0  0  0  0
  194.5520  176.1280  143.7620 C   0  0  1  0  0  3  0  0  0  0  0  0
  195.5050  176.3130  142.7630 O   0  0  0  0  0  1  0  0  0  0  0  0
  192.3170  174.9790  144.1120 C   0  0  2  0  0  3  0  0  0  0  0  0
  192.6940  175.2190  145.4420 O   0  0  0  0  0  0  0  0  0  0  0  0
  193.1930  175.7930  143.1360 C   0  0  1  0  0  3  0  0  0  0  0  0
  190.0980  173.5880  139.4800 C   0  0  0  0  0  2  0  0  0  0  0  0
  191.5600  171.9280  140.6620 C   0  0  0  0  0  0  0  0  0  0  0  0
  190.9790  172.4960  141.9790 C   0  0  1  0  0  3  0  0  0  0  0  0
  192.7380  172.5960  140.3730 F   0  0  0  0  0  0  0  0  0  0  0  0
  190.5800  172.1360  139.5020 C   0  0  0  0  0  2  0  0  0  0  0  0
  191.8530  170.5800  140.7700 F   0  0  0  0  0  0  0  0  0  0  0  0
  189.4580  173.9070  140.6920 O   0  0  0  0  0  0  0  0  0  0  0  0
  190.4620  173.9240  141.6800 C   0  0  1  0  0  3  0  0  0  0  0  0
  190.0010  171.6870  144.0210 F   0  0  0  0  0  0  0  0  0  0  0  0
  190.1760  170.2530  142.3250 F   0  0  0  0  0  0  0  0  0  0  0  0
  189.9280  171.5760  142.6450 C   0  0  0  0  0  0  0  0  0  0  0  0
  188.6500  171.9060  142.2300 F   0  0  0  0  0  0  0  0  0  0  0  0
  2  5  1  0  0  0  0
  3  2  2  0  0  0  0
  3  4  1  0  0  0  0
  4 22  1  0  0  0  0
  4  1  2  0  0  0  0
  5  1  1  0  0  0  0
  6  5  1  6  0  0  0
  6  8  1  0  0  0  0
  7 13  1  0  0  0  0
  8 12  2  0  0  0  0
  9 16  1  0  0  0  0
 10 15  1  0  0  0  0
 13 12  1  0  0  0  0
 14 13  1  0  0  0  0
 14 11  1  0  0  0  0
 15  6  1  0  0  0  0
 15  7  1  0  0  0  0
 16  7  1  0  0  0  0
 16 14  1  0  0  0  0
 18 17  1  0  0  0  0
 19 24  1  0  0  0  0
 20 18  1  0  0  0  0
 21 20  1  0  0  0  0
 22 23  1  0  0  0  0
 23 17  1  0  0  0  0
 24 20  1  0  0  0  0
 24 22  1  0  0  0  0
 25 29  1  0  0  0  0
 25 31  1  0  0  0  0
 26 30  1  0  0  0  0
 26 27  1  0  0  0  0
 27 35  1  0  0  0  0
 28 26  1  0  0  0  0
 29 26  1  0  0  0  0
 31 32  1  0  0  0  0
 32 27  1  0  0  0  0
 32  3  1  0  0  0  0
 34 35  1  0  0  0  0
 35 33  1  0  0  0  0
 36 35  1  0  0  0  0
M  END
>  <MODEL>
3

>  <REMARK>
 VINA RESULT:      -8.6      2.453      4.792
  Name = 
  4 active torsions:
  status: ('A' for Active; 'I' for Inactive)
    1  A    between atoms: C_1  and  N_33
    2  A    between atoms: C_15  and  C_19
    3  A    between atoms: C_23  and  C_34
    4  A    between atoms: C_28  and  C_31
                            x       y       z     vdW  Elec       q    Type
                         _______ _______ _______ _____ _____    ______ ____

>  <TORSDO>
F 4

$$$$
=
 OpenBabel11072408423D

 36 40  0  0  1  0  0  0  0  0999 V2000
  190.1270  176.3680  144.1620 N   0  0  0  0  0  0  0  0  0  0  0  0
  188.7930  175.1600  142.8870 N   0  0  0  0  0  0  0  0  0  0  0  0
  190.0580  174.9190  142.5010 C   0  0  0  0  0  0  0  0  0  0  0  0
  190.8940  175.6810  143.2970 C   0  0  0  0  0  0  0  0  0  0  0  0
  188.8770  176.0220  143.8880 N   0  0  0  0  0  0  0  0  0  0  0  0
  187.7110  176.5710  144.5690 C   0  0  1  0  0  3  0  0  0  0  0  0
  186.3150  178.6640  144.9500 C   0  0  1  0  0  3  0  0  0  0  0  0
  187.8530  176.4190  146.0530 C   0  0  0  0  0  3  0  0  0  0  0  0
  183.9960  179.0400  144.1260 C   0  0  0  0  0  1  0  0  0  0  0  0
  187.3650  178.1970  142.8350 O   0  0  0  0  0  1  0  0  0  0  0  0
  183.7680  178.2040  146.6800 O   0  0  0  0  0  1  0  0  0  0  0  0
  187.1290  177.1710  146.8900 C   0  0  0  0  0  3  0  0  0  0  0  0
  186.1370  178.2090  146.4120 C   0  0  2  0  0  3  0  0  0  0  0  0
  184.8220  177.5450  146.0410 C   0  0  2  0  0  3  0  0  0  0  0  0
  187.5200  178.0460  144.2150 C   0  0  2  0  0  3  0  0  0  0  0  0
  185.0000  177.9900  144.5830 C   0  0  2  0  0  3  0  0  0  0  0  0
  194.1200  176.0380  141.8420 C   0  0  0  0  0  2  0  0  0  0  0  0
  195.1410  175.4790  142.8480 C   0  0  0  0  0  2  0  0  0  0  0  0
  192.3930  173.8410  144.7220 O   0  0  0  0  0  1  0  0  0  0  0  0
  194.5040  174.5120  143.8510 C   0  0  1  0  0  3  0  0  0  0  0  0
  195.3550  174.3350  144.9390 O   0  0  0  0  0  1  0  0  0  0  0  0
  192.3880  175.7680  143.2360 C   0  0  2  0  0  3  0  0  0  0  0  0
  192.8600  175.4210  141.9610 O   0  0  0  0  0  0  0  0  0  0  0  0
  193.1220  174.9680  144.3330 C   0  0  1  0  0  3  0  0  0  0  0  0
  189.9950  173.4850  139.2080 C   0  0  0  0  0  2  0  0  0  0  0  0
  191.4340  171.9000  140.5150 C   0  0  0  0  0  0  0  0  0  0  0  0
  190.8990  172.6090  141.7830 C   0  0  1  0  0  3  0  0  0  0  0  0
  192.6240  172.5000  140.1400 F   0  0  0  0  0  0  0  0  0  0  0  0
  190.4350  172.0270  139.3590 C   0  0  0  0  0  2  0  0  0  0  0  0
  191.6900  170.5600  140.7460 F   0  0  0  0  0  0  0  0  0  0  0  0
  189.3920  173.9370  140.3960 O   0  0  0  0  0  0  0  0  0  0  0  0
  190.4180  174.0170  141.3580 C   0  0  1  0  0  3  0  0  0  0  0  0
  189.9120  172.0650  143.9070 F   0  0  0  0  0  0  0  0  0  0  0  0
  190.0670  170.4340  142.3970 F   0  0  0  0  0  0  0  0  0  0  0  0
  189.8370  171.7890  142.5540 C   0  0  0  0  0  0  0  0  0  0  0  0
  188.5630  172.0830  142.1010 F   0  0  0  0  0  0  0  0  0  0  0  0
  2  5  1  0  0  0  0
  3  2  2  0  0  0  0
  3  4  1  0  0  0  0
  4  1  2  0  0  0  0
  5  1  1  0  0  0  0
  6  5  1  6  0  0  0
  6  8  1  0  0  0  0
  7 13  1  0  0  0  0
  8 12  2  0  0  0  0
  9 16  1  0  0  0  0
 10 15  1  0  0  0  0
 13 12  1  0  0  0  0
 14 13  1  0  0  0  0
 14 11  1  0  0  0  0
 15  6  1  0  0  0  0
 15  7  1  0  0  0  0
 16  7  1  0  0  0  0
 16 14  1  0  0  0  0
 17 23  1  0  0  0  0
 17 18  1  0  0  0  0
 18 20  1  0  0  0  0
 20 24  1  0  0  0  0
 20 21  1  0  0  0  0
 22  4  1  0  0  0  0
 22 24  1  0  0  0  0
 23 22  1  0  0  0  0
 24 19  1  0  0  0  0
 25 29  1  0  0  0  0
 25 31  1  0  0  0  0
 26 30  1  0  0  0  0
 26 27  1  0  0  0  0
 27 35  1  0  0  0  0
 28 26  1  0  0  0  0
 29 26  1  0  0  0  0
 31 32  1  0  0  0  0
 32 27  1  0  0  0  0
 32  3  1  0  0  0  0
 34 35  1  0  0  0  0
 35 33  1  0  0  0  0
 36 35  1  0  0  0  0
M  END
>  <MODEL>
4

>  <REMARK>
 VINA RESULT:      -8.3      2.512      4.528
  Name = 
  4 active torsions:
  status: ('A' for Active; 'I' for Inactive)
    1  A    between atoms: C_1  and  N_33
    2  A    between atoms: C_15  and  C_19
    3  A    between atoms: C_23  and  C_34
    4  A    between atoms: C_28  and  C_31
                            x       y       z     vdW  Elec       q    Type
                         _______ _______ _______ _____ _____    ______ ____

>  <TORSDO>
F 4

$$$$
=
 OpenBabel11072408423D

 36 40  0  0  1  0  0  0  0  0999 V2000
  189.4750  175.4740  142.4890 N   0  0  0  0  0  0  0  0  0  0  0  0
  190.5580  176.9210  143.7520 N   0  0  0  0  0  0  0  0  0  0  0  0
  191.4390  175.9900  143.3490 C   0  0  0  0  0  0  0  0  0  0  0  0
  190.7580  175.0790  142.5610 C   0  0  0  0  0  0  0  0  0  0  0  0
  189.3990  176.5840  143.2090 N   0  0  0  0  0  0  0  0  0  0  0  0
  188.1660  177.3280  143.4350 C   0  0  1  0  0  3  0  0  0  0  0  0
  185.8850  177.2860  144.5640 C   0  0  1  0  0  3  0  0  0  0  0  0
  187.4930  177.6320  142.1310 C   0  0  0  0  0  3  0  0  0  0  0  0
  185.1840  178.7010  146.4880 C   0  0  0  0  0  1  0  0  0  0  0  0
  187.8240  176.2700  145.5650 O   0  0  0  0  0  1  0  0  0  0  0  0
  184.2660  179.9280  144.2690 O   0  0  0  0  0  1  0  0  0  0  0  0
  186.1930  177.9450  142.0880 C   0  0  0  0  0  3  0  0  0  0  0  0
  185.3240  178.0110  143.3250 C   0  0  2  0  0  3  0  0  0  0  0  0
  185.5130  179.3460  144.0260 C   0  0  2  0  0  3  0  0  0  0  0  0
  187.2150  176.5410  144.3370 C   0  0  2  0  0  3  0  0  0  0  0  0
  186.0800  178.6270  145.2580 C   0  0  2  0  0  3  0  0  0  0  0  0
  191.8360  172.9660  139.9110 C   0  0  0  0  0  2  0  0  0  0  0  0
  191.8450  171.5240  140.4480 C   0  0  0  0  0  2  0  0  0  0  0  0
  189.8170  172.6010  143.3600 O   0  0  0  0  0  1  0  0  0  0  0  0
  190.9430  171.3520  141.6750 C   0  0  1  0  0  3  0  0  0  0  0  0
  191.2680  170.1700  142.3350 O   0  0  0  0  0  1  0  0  0  0  0  0
  191.3060  173.8530  141.8970 C   0  0  2  0  0  3  0  0  0  0  0  0
  190.8830  173.7730  140.5620 O   0  0  0  0  0  0  0  0  0  0  0  0
  191.0170  172.5350  142.6470 C   0  0  1  0  0  3  0  0  0  0  0  0
  194.9630  175.3040  143.2310 C   0  0  0  0  0  2  0  0  0  0  0  0
  194.6060  176.1640  145.5600 C   0  0  0  0  0  0  0  0  0  0  0  0
  193.0940  175.9580  145.3030 C   0  0  1  0  0  3  0  0  0  0  0  0
  194.9350  177.4720  145.2440 F   0  0  0  0  0  0  0  0  0  0  0  0
  195.4400  175.2230  144.6830 C   0  0  0  0  0  2  0  0  0  0  0  0
  194.9350  175.9540  146.8870 F   0  0  0  0  0  0  0  0  0  0  0  0
  193.6070  174.9420  143.1430 O   0  0  0  0  0  0  0  0  0  0  0  0
  192.8780  175.9720  143.7710 C   0  0  1  0  0  3  0  0  0  0  0  0
  191.2700  174.4000  145.4740 F   0  0  0  0  0  0  0  0  0  0  0  0
  192.3230  174.9630  147.3560 F   0  0  0  0  0  0  0  0  0  0  0  0
  192.5070  174.7110  146.0080 C   0  0  0  0  0  0  0  0  0  0  0  0
  193.3490  173.6230  145.8660 F   0  0  0  0  0  0  0  0  0  0  0  0
  1  4  2  0  0  0  0
  1  5  1  0  0  0  0
  3  2  2  0  0  0  0
  3 32  1  0  0  0  0
  4  3  1  0  0  0  0
  5  6  1  0  0  0  0
  5  2  1  0  0  0  0
  6  8  1  6  0  0  0
  6 15  1  0  0  0  0
  7 16  1  0  0  0  0
 12  8  2  0  0  0  0
 12 13  1  0  0  0  0
 13 14  1  0  0  0  0
 13  7  1  0  0  0  0
 14 11  1  0  0  0  0
 14 16  1  0  0  0  0
 15  7  1  0  0  0  0
 15 10  1  0  0  0  0
 16  9  1  0  0  0  0
 17 18  1  0  0  0  0
 17 23  1  0  0  0  0
 18 20  1  0  0  0  0
 20 21  1  0  0  0  0
 20 24  1  0  0  0  0
 22  4  1  0  0  0  0
 22 24  1  0  0  0  0
 23 22  1  0  0  0  0
 24 19  1  0  0  0  0
 25 29  1  0  0  0  0
 26 30  1  0  0  0  0
 27 26  1  0  0  0  0
 27 35  1  0  0  0  0
 28 26  1  0  0  0  0
 29 26  1  0  0  0  0
 31 25  1  0  0  0  0
 31 32  1  0  0  0  0
 32 27  1  0  0  0  0
 33 35  1  0  0  0  0
 35 34  1  0  0  0  0
 36 35  1  0  0  0  0
M  END
>  <MODEL>
5

>  <REMARK>
 VINA RESULT:      -8.2      1.691      2.447
  Name = 
  4 active torsions:
  status: ('A' for Active; 'I' for Inactive)
    1  A    between atoms: C_1  and  N_33
    2  A    between atoms: C_15  and  C_19
    3  A    between atoms: C_23  and  C_34
    4  A    between atoms: C_28  and  C_31
                            x       y       z     vdW  Elec       q    Type
                         _______ _______ _______ _____ _____    ______ ____

>  <TORSDO>
F 4

$$$$
=
 OpenBabel11072408423D

 36 40  0  0  1  0  0  0  0  0999 V2000
  189.7990  176.2170  144.2200 N   0  0  0  0  0  0  0  0  0  0  0  0
  189.1400  175.2090  142.3720 N   0  0  0  0  0  0  0  0  0  0  0  0
  190.3840  174.7830  142.6490 C   0  0  0  0  0  0  0  0  0  0  0  0
  190.7990  175.4190  143.8050 C   0  0  0  0  0  0  0  0  0  0  0  0
  188.8220  176.0550  143.3390 N   0  0  0  0  0  0  0  0  0  0  0  0
  187.5540  176.7730  143.3860 C   0  0  1  0  0  3  0  0  0  0  0  0
  186.1920  178.6660  142.3660 C   0  0  1  0  0  3  0  0  0  0  0  0
  187.3480  177.3800  144.7400 C   0  0  0  0  0  3  0  0  0  0  0  0
  184.1380  178.4040  140.9840 C   0  0  0  0  0  1  0  0  0  0  0  0
  187.6770  177.3060  141.0470 O   0  0  0  0  0  1  0  0  0  0  0  0
  183.3020  178.9130  143.4970 O   0  0  0  0  0  1  0  0  0  0  0  0
  186.4830  178.3860  144.9140 C   0  0  0  0  0  3  0  0  0  0  0  0
  185.6690  178.9740  143.7830 C   0  0  2  0  0  3  0  0  0  0  0  0
  184.4470  178.1110  143.5150 C   0  0  2  0  0  3  0  0  0  0  0  0
  187.5070  177.8640  142.3160 C   0  0  2  0  0  3  0  0  0  0  0  0
  184.9700  177.7960  142.1060 C   0  0  2  0  0  3  0  0  0  0  0  0
  193.0980  175.2410  146.5130 C   0  0  0  0  0  2  0  0  0  0  0  0
  194.4990  175.5370  145.9470 C   0  0  0  0  0  2  0  0  0  0  0  0
  192.9600  176.8600  142.8430 O   0  0  0  0  0  1  0  0  0  0  0  0
  194.4420  176.3000  144.6190 C   0  0  1  0  0  3  0  0  0  0  0  0
  195.6730  176.2110  143.9740 O   0  0  0  0  0  1  0  0  0  0  0  0
  192.1200  175.2860  144.4990 C   0  0  2  0  0  3  0  0  0  0  0  0
  192.0790  175.8720  145.7740 O   0  0  0  0  0  0  0  0  0  0  0  0
  193.3260  175.8100  143.6900 C   0  0  1  0  0  3  0  0  0  0  0  0
  191.7020  173.2900  139.6600 C   0  0  0  0  0  2  0  0  0  0  0  0
  192.2610  171.6230  141.4480 C   0  0  0  0  0  0  0  0  0  0  0  0
  191.2700  172.3990  142.3490 C   0  0  1  0  0  3  0  0  0  0  0  0
  193.5360  172.1190  141.6630 F   0  0  0  0  0  0  0  0  0  0  0  0
  191.9060  171.8050  139.9680 C   0  0  0  0  0  2  0  0  0  0  0  0
  192.2760  170.2720  141.7460 F   0  0  0  0  0  0  0  0  0  0  0  0
  190.6660  173.8140  140.4540 O   0  0  0  0  0  0  0  0  0  0  0  0
  191.1480  173.8320  141.7770 C   0  0  1  0  0  3  0  0  0  0  0  0
  190.0660  170.3180  142.3880 F   0  0  0  0  0  0  0  0  0  0  0  0
  189.0050  172.1050  141.5860 F   0  0  0  0  0  0  0  0  0  0  0  0
  189.9120  171.6830  142.5420 C   0  0  0  0  0  0  0  0  0  0  0  0
  189.3920  171.9420  143.7980 F   0  0  0  0  0  0  0  0  0  0  0  0
  2  3  2  0  0  0  0
  2  5  1  0  0  0  0
  3  4  1  0  0  0  0
  4  1  2  0  0  0  0
  4 22  1  0  0  0  0
  5  1  1  0  0  0  0
  6  5  1  1  0  0  0
  6  8  1  0  0  0  0
  7 13  1  0  0  0  0
  8 12  2  0  0  0  0
  9 16  1  0  0  0  0
 10 15  1  0  0  0  0
 11 14  1  0  0  0  0
 13 12  1  0  0  0  0
 14 13  1  0  0  0  0
 15  7  1  0  0  0  0
 15  6  1  0  0  0  0
 16  7  1  0  0  0  0
 16 14  1  0  0  0  0
 18 17  1  0  0  0  0
 19 24  1  0  0  0  0
 20 18  1  0  0  0  0
 21 20  1  0  0  0  0
 22 23  1  0  0  0  0
 23 17  1  0  0  0  0
 24 22  1  0  0  0  0
 24 20  1  0  0  0  0
 25 29  1  0  0  0  0
 25 31  1  0  0  0  0
 26 28  1  0  0  0  0
 26 30  1  0  0  0  0
 26 27  1  0  0  0  0
 27 35  1  0  0  0  0
 29 26  1  0  0  0  0
 31 32  1  0  0  0  0
 32 27  1  0  0  0  0
 32  3  1  0  0  0  0
 33 35  1  0  0  0  0
 34 35  1  0  0  0  0
 35 36  1  0  0  0  0
M  END
>  <MODEL>
6

>  <REMARK>
 VINA RESULT:      -8.1      2.675      4.962
  Name = 
  4 active torsions:
  status: ('A' for Active; 'I' for Inactive)
    1  A    between atoms: C_1  and  N_33
    2  A    between atoms: C_15  and  C_19
    3  A    between atoms: C_23  and  C_34
    4  A    between atoms: C_28  and  C_31
                            x       y       z     vdW  Elec       q    Type
                         _______ _______ _______ _____ _____    ______ ____

>  <TORSDO>
F 4

$$$$
=
 OpenBabel11072408423D

 36 40  0  0  1  0  0  0  0  0999 V2000
  190.2770  176.1540  145.3360 N   0  0  0  0  0  0  0  0  0  0  0  0
  189.1020  174.5490  144.3840 N   0  0  0  0  0  0  0  0  0  0  0  0
  190.3990  174.2070  144.3070 C   0  0  0  0  0  0  0  0  0  0  0  0
  191.1360  175.2160  144.8990 C   0  0  0  0  0  0  0  0  0  0  0  0
  189.0700  175.7120  145.0150 N   0  0  0  0  0  0  0  0  0  0  0  0
  187.8370  176.4480  145.2690 C   0  0  1  0  0  3  0  0  0  0  0  0
  186.5190  178.5560  144.7230 C   0  0  1  0  0  3  0  0  0  0  0  0
  187.7140  176.7720  146.7270 C   0  0  0  0  0  3  0  0  0  0  0  0
  184.4000  178.6530  143.4190 C   0  0  0  0  0  1  0  0  0  0  0  0
  187.8870  177.4440  143.0830 O   0  0  0  0  0  1  0  0  0  0  0  0
  183.6920  178.6660  146.0220 O   0  0  0  0  0  1  0  0  0  0  0  0
  186.9020  177.7510  147.1440 C   0  0  0  0  0  3  0  0  0  0  0  0
  186.0680  178.5850  146.1970 C   0  0  2  0  0  3  0  0  0  0  0  0
  184.8000  177.8380  145.8200 C   0  0  2  0  0  3  0  0  0  0  0  0
  187.7940  177.7360  144.4460 C   0  0  2  0  0  3  0  0  0  0  0  0
  185.2500  177.8000  144.3520 C   0  0  2  0  0  3  0  0  0  0  0  0
  194.2770  175.6490  146.5130 C   0  0  0  0  0  2  0  0  0  0  0  0
  195.3140  175.9640  145.4210 C   0  0  0  0  0  2  0  0  0  0  0  0
  192.5720  176.6590  143.0230 O   0  0  0  0  0  1  0  0  0  0  0  0
  194.6680  176.5040  144.1400 C   0  0  1  0  0  3  0  0  0  0  0  0
  195.5730  176.4150  143.0850 O   0  0  0  0  0  1  0  0  0  0  0  0
  192.6250  175.3000  145.0410 C   0  0  2  0  0  3  0  0  0  0  0  0
  192.9820  176.0710  146.1570 O   0  0  0  0  0  0  0  0  0  0  0  0
  193.3640  175.7870  143.7760 C   0  0  1  0  0  3  0  0  0  0  0  0
  192.5740  171.4720  143.4760 C   0  0  0  0  0  2  0  0  0  0  0  0
  190.7950  171.3690  141.7100 C   0  0  0  0  0  0  0  0  0  0  0  0
  190.3850  172.7880  142.1750 C   0  0  1  0  0  3  0  0  0  0  0  0
  190.0230  170.4400  142.3880 F   0  0  0  0  0  0  0  0  0  0  0  0
  192.2720  171.1010  142.0220 C   0  0  0  0  0  2  0  0  0  0  0  0
  190.5800  171.1920  140.3550 F   0  0  0  0  0  0  0  0  0  0  0  0
  192.2900  172.8310  143.7010 O   0  0  0  0  0  0  0  0  0  0  0  0
  190.8900  172.9640  143.6280 C   0  0  1  0  0  3  0  0  0  0  0  0
  192.2130  174.0400  141.2410 F   0  0  0  0  0  0  0  0  0  0  0  0
  190.3040  175.1270  141.6090 F   0  0  0  0  0  0  0  0  0  0  0  0
  190.8370  173.9130  141.2140 C   0  0  0  0  0  0  0  0  0  0  0  0
  190.4320  173.6470  139.9180 F   0  0  0  0  0  0  0  0  0  0  0  0
  2  5  1  0  0  0  0
  3  2  2  0  0  0  0
  3  4  1  0  0  0  0
  4 22  1  0  0  0  0
  4  1  2  0  0  0  0
  5  1  1  0  0  0  0
  6  5  1  1  0  0  0
  6  8  1  0  0  0  0
  7 13  1  0  0  0  0
  8 12  2  0  0  0  0
  9 16  1  0  0  0  0
 10 15  1  0  0  0  0
 13 12  1  0  0  0  0
 14 11  1  0  0  0  0
 14 13  1  0  0  0  0
 15  7  1  0  0  0  0
 15  6  1  0  0  0  0
 16  7  1  0  0  0  0
 16 14  1  0  0  0  0
 18 17  1  0  0  0  0
 19 24  1  0  0  0  0
 20 18  1  0  0  0  0
 21 20  1  0  0  0  0
 22 23  1  0  0  0  0
 23 17  1  0  0  0  0
 24 20  1  0  0  0  0
 24 22  1  0  0  0  0
 25 31  1  0  0  0  0
 26 29  1  0  0  0  0
 26 27  1  0  0  0  0
 26 28  1  0  0  0  0
 27 32  1  0  0  0  0
 29 25  1  0  0  0  0
 30 26  1  0  0  0  0
 32 31  1  0  0  0  0
 32  3  1  0  0  0  0
 35 33  1  0  0  0  0
 35 34  1  0  0  0  0
 35 27  1  0  0  0  0
 36 35  1  0  0  0  0
M  END
>  <MODEL>
7

>  <REMARK>
 VINA RESULT:      -8.1      2.436      4.556
  Name = 
  4 active torsions:
  status: ('A' for Active; 'I' for Inactive)
    1  A    between atoms: C_1  and  N_33
    2  A    between atoms: C_15  and  C_19
    3  A    between atoms: C_23  and  C_34
    4  A    between atoms: C_28  and  C_31
                            x       y       z     vdW  Elec       q    Type
                         _______ _______ _______ _____ _____    ______ ____

>  <TORSDO>
F 4

$$$$
=
 OpenBabel11072408423D

 36 40  0  0  1  0  0  0  0  0999 V2000
  190.5010  176.5170  144.1810 N   0  0  0  0  0  0  0  0  0  0  0  0
  189.5430  175.5590  142.4400 N   0  0  0  0  0  0  0  0  0  0  0  0
  190.7530  174.9980  142.6010 C   0  0  0  0  0  0  0  0  0  0  0  0
  191.3550  175.6030  143.6890 C   0  0  0  0  0  0  0  0  0  0  0  0
  189.4250  176.4540  143.4090 N   0  0  0  0  0  0  0  0  0  0  0  0
  188.2570  177.3130  143.5640 C   0  0  1  0  0  3  0  0  0  0  0  0
  185.8670  177.4430  144.4280 C   0  0  1  0  0  3  0  0  0  0  0  0
  187.7790  177.7910  142.2270 C   0  0  0  0  0  3  0  0  0  0  0  0
  185.0940  178.7750  146.3840 C   0  0  0  0  0  1  0  0  0  0  0  0
  187.5580  176.1390  145.5410 O   0  0  0  0  0  1  0  0  0  0  0  0
  184.5770  180.2660  144.1960 O   0  0  0  0  0  1  0  0  0  0  0  0
  186.5330  178.2520  142.0710 C   0  0  0  0  0  3  0  0  0  0  0  0
  185.5350  178.3200  143.2060 C   0  0  2  0  0  3  0  0  0  0  0  0
  185.7770  179.5670  144.0400 C   0  0  2  0  0  3  0  0  0  0  0  0
  187.1300  176.5710  144.2830 C   0  0  2  0  0  3  0  0  0  0  0  0
  186.1160  178.6950  145.2580 C   0  0  2  0  0  3  0  0  0  0  0  0
  193.9000  175.2500  146.1490 C   0  0  0  0  0  2  0  0  0  0  0  0
  195.2550  175.3360  145.4240 C   0  0  0  0  0  2  0  0  0  0  0  0
  193.5580  176.7060  142.4250 O   0  0  0  0  0  1  0  0  0  0  0  0
  195.1470  176.0380  144.0670 C   0  0  1  0  0  3  0  0  0  0  0  0
  196.2790  175.7620  143.3030 O   0  0  0  0  0  1  0  0  0  0  0  0
  192.7180  175.3310  144.2490 C   0  0  2  0  0  3  0  0  0  0  0  0
  192.8920  175.9730  145.4840 O   0  0  0  0  0  0  0  0  0  0  0  0
  193.8830  175.6560  143.2900 C   0  0  1  0  0  3  0  0  0  0  0  0
  191.5700  173.3080  139.5390 C   0  0  0  0  0  2  0  0  0  0  0  0
  192.1300  171.6230  141.3100 C   0  0  0  0  0  0  0  0  0  0  0  0
  191.3320  172.5230  142.2850 C   0  0  1  0  0  3  0  0  0  0  0  0
  193.4670  171.9750  141.3760 F   0  0  0  0  0  0  0  0  0  0  0  0
  191.6410  171.8160  139.8700 C   0  0  0  0  0  2  0  0  0  0  0  0
  192.0260  170.2850  141.6470 F   0  0  0  0  0  0  0  0  0  0  0  0
  190.6890  173.9610  140.4200 O   0  0  0  0  0  0  0  0  0  0  0  0
  191.3090  173.9500  141.6850 C   0  0  1  0  0  3  0  0  0  0  0  0
  189.9340  170.5890  142.5730 F   0  0  0  0  0  0  0  0  0  0  0  0
  188.9900  172.4250  141.7350 F   0  0  0  0  0  0  0  0  0  0  0  0
  189.9310  171.9700  142.6400 C   0  0  0  0  0  0  0  0  0  0  0  0
  189.5560  172.3610  143.9130 F   0  0  0  0  0  0  0  0  0  0  0  0
  2  3  2  0  0  0  0
  2  5  1  0  0  0  0
  3  4  1  0  0  0  0
  4  1  2  0  0  0  0
  4 22  1  0  0  0  0
  5  6  1  0  0  0  0
  5  1  1  0  0  0  0
  6  8  1  6  0  0  0
  6 15  1  0  0  0  0
  7 16  1  0  0  0  0
 12  8  2  0  0  0  0
 12 13  1  0  0  0  0
 13 14  1  0  0  0  0
 13  7  1  0  0  0  0
 14 11  1  0  0  0  0
 14 16  1  0  0  0  0
 15  7  1  0  0  0  0
 15 10  1  0  0  0  0
 16  9  1  0  0  0  0
 18 17  1  0  0  0  0
 19 24  1  0  0  0  0
 20 18  1  0  0  0  0
 21 20  1  0  0  0  0
 22 23  1  0  0  0  0
 23 17  1  0  0  0  0
 24 20  1  0  0  0  0
 24 22  1  0  0  0  0
 25 29  1  0  0  0  0
 25 31  1  0  0  0  0
 26 28  1  0  0  0  0
 26 30  1  0  0  0  0
 26 27  1  0  0  0  0
 27 35  1  0  0  0  0
 29 26  1  0  0  0  0
 31 32  1  0  0  0  0
 32 27  1  0  0  0  0
 32  3  1  0  0  0  0
 33 35  1  0  0  0  0
 34 35  1  0  0  0  0
 35 36  1  0  0  0  0
M  END
>  <MODEL>
8

>  <REMARK>
 VINA RESULT:      -7.9      2.660      5.042
  Name = 
  4 active torsions:
  status: ('A' for Active; 'I' for Inactive)
    1  A    between atoms: C_1  and  N_33
    2  A    between atoms: C_15  and  C_19
    3  A    between atoms: C_23  and  C_34
    4  A    between atoms: C_28  and  C_31
                            x       y       z     vdW  Elec       q    Type
                         _______ _______ _______ _____ _____    ______ ____

>  <TORSDO>
F 4

$$$$
=
 OpenBabel11072408423D

 36 40  0  0  1  0  0  0  0  0999 V2000
  189.3260  175.0850  142.6640 N   0  0  0  0  0  0  0  0  0  0  0  0
  190.1160  176.5800  144.0800 N   0  0  0  0  0  0  0  0  0  0  0  0
  191.1040  175.7100  143.8090 C   0  0  0  0  0  0  0  0  0  0  0  0
  190.6060  174.7690  142.9260 C   0  0  0  0  0  0  0  0  0  0  0  0
  189.0740  176.1790  143.3680 N   0  0  0  0  0  0  0  0  0  0  0  0
  187.7770  176.8430  143.4100 C   0  0  1  0  0  3  0  0  0  0  0  0
  186.3370  178.6670  142.3720 C   0  0  1  0  0  3  0  0  0  0  0  0
  187.5470  177.4550  144.7580 C   0  0  0  0  0  3  0  0  0  0  0  0
  184.2950  178.3060  140.9940 C   0  0  0  0  0  1  0  0  0  0  0  0
  187.8770  177.3580  141.0640 O   0  0  0  0  0  1  0  0  0  0  0  0
  183.4400  178.8040  143.5030 O   0  0  0  0  0  1  0  0  0  0  0  0
  186.6400  178.4250  144.9230 C   0  0  0  0  0  3  0  0  0  0  0  0
  185.8010  178.9670  143.7860 C   0  0  2  0  0  3  0  0  0  0  0  0
  184.6170  178.0510  143.5270 C   0  0  2  0  0  3  0  0  0  0  0  0
  187.6840  177.9200  142.3280 C   0  0  2  0  0  3  0  0  0  0  0  0
  185.1520  177.7440  142.1210 C   0  0  2  0  0  3  0  0  0  0  0  0
  193.2230  172.9430  141.3550 C   0  0  0  0  0  2  0  0  0  0  0  0
  192.6110  171.6410  140.8090 C   0  0  0  0  0  2  0  0  0  0  0  0
  189.2130  173.0570  141.2550 O   0  0  0  0  0  1  0  0  0  0  0  0
  191.0940  171.7430  140.6200 C   0  0  1  0  0  3  0  0  0  0  0  0
  190.5490  170.4670  140.4960 O   0  0  0  0  0  1  0  0  0  0  0  0
  191.3220  173.5870  142.3470 C   0  0  2  0  0  3  0  0  0  0  0  0
  192.2850  173.9920  141.4110 O   0  0  0  0  0  0  0  0  0  0  0  0
  190.3960  172.5040  141.7530 C   0  0  1  0  0  3  0  0  0  0  0  0
  194.3530  174.6350  144.9010 C   0  0  0  0  0  2  0  0  0  0  0  0
  194.0580  176.8580  146.0240 C   0  0  0  0  0  0  0  0  0  0  0  0
  192.5620  176.7470  145.6410 C   0  0  1  0  0  3  0  0  0  0  0  0
  194.7170  177.5680  145.0350 F   0  0  0  0  0  0  0  0  0  0  0  0
  194.6940  175.4680  146.1380 C   0  0  0  0  0  2  0  0  0  0  0  0
  194.2330  177.5340  147.2190 F   0  0  0  0  0  0  0  0  0  0  0  0
  192.9580  174.4990  144.7750 O   0  0  0  0  0  0  0  0  0  0  0  0
  192.4620  175.7750  144.4410 C   0  0  1  0  0  3  0  0  0  0  0  0
  191.2860  175.0410  146.7560 F   0  0  0  0  0  0  0  0  0  0  0  0
  190.4740  177.1160  146.7820 F   0  0  0  0  0  0  0  0  0  0  0  0
  191.6410  176.3750  146.8280 C   0  0  0  0  0  0  0  0  0  0  0  0
  192.2740  176.6120  148.0360 F   0  0  0  0  0  0  0  0  0  0  0  0
  1  4  2  0  0  0  0
  1  5  1  0  0  0  0
  3  2  2  0  0  0  0
  3 32  1  0  0  0  0
  4  3  1  0  0  0  0
  5  2  1  0  0  0  0
  6  5  1  1  0  0  0
  6  8  1  0  0  0  0
  7 13  1  0  0  0  0
  8 12  2  0  0  0  0
  9 16  1  0  0  0  0
 10 15  1  0  0  0  0
 11 14  1  0  0  0  0
 13 12  1  0  0  0  0
 14 13  1  0  0  0  0
 15  7  1  0  0  0  0
 15  6  1  0  0  0  0
 16  7  1  0  0  0  0
 16 14  1  0  0  0  0
 17 23  1  0  0  0  0
 18 17  1  0  0  0  0
 19 24  1  0  0  0  0
 20 18  1  0  0  0  0
 20 24  1  0  0  0  0
 21 20  1  0  0  0  0
 22  4  1  0  0  0  0
 23 22  1  0  0  0  0
 24 22  1  0  0  0  0
 25 29  1  0  0  0  0
 26 29  1  0  0  0  0
 26 30  1  0  0  0  0
 27 26  1  0  0  0  0
 27 35  1  0  0  0  0
 28 26  1  0  0  0  0
 31 25  1  0  0  0  0
 32 31  1  0  0  0  0
 32 27  1  0  0  0  0
 33 35  1  0  0  0  0
 34 35  1  0  0  0  0
 35 36  1  0  0  0  0
M  END
>  <MODEL>
9

>  <REMARK>
 VINA RESULT:      -7.8      1.708      2.305
  Name = 
  4 active torsions:
  status: ('A' for Active; 'I' for Inactive)
    1  A    between atoms: C_1  and  N_33
    2  A    between atoms: C_15  and  C_19
    3  A    between atoms: C_23  and  C_34
    4  A    between atoms: C_28  and  C_31
                            x       y       z     vdW  Elec       q    Type
                         _______ _______ _______ _____ _____    ______ ____

>  <TORSDO>
F 4

$$$$
