=
 OpenBabel11062422433D

 29 32  0  0  1  0  0  0  0  0999 V2000
  188.1110  175.6110  143.1880 C   0  0  2  0  0  3  0  0  0  0  0  0
  189.5460  176.9720  144.9100 S   0  0  0  0  0  0  0  0  0  0  0  0
  190.2470  174.5000  143.7830 C   0  0  0  0  0  0  0  0  0  0  0  0
  187.9890  177.6980  144.2610 C   0  0  1  0  0  3  0  0  0  0  0  0
  187.8010  174.7050  141.9830 C   0  0  0  0  0  2  0  0  0  0  0  0
  187.4410  176.9080  143.1520 N   0  0  0  0  0  0  0  0  0  0  0  0
  189.5620  175.8140  143.5270 C   0  0  1  0  0  3  0  0  0  0  0  0
  190.5030  173.6890  142.7500 C   0  0  0  0  0  3  0  0  0  0  0  0
  190.0820  174.0000  141.3670 C   0  0  0  0  0  3  0  0  0  0  0  0
  188.9230  174.5130  141.0590 N   0  0  0  0  0  0  0  0  0  0  0  0
  185.1020  178.2070  147.4000 C   0  0  0  0  0  3  0  0  0  0  0  0
  185.0300  178.9860  146.2410 C   0  0  0  0  0  3  0  0  0  0  0  0
  186.1140  177.2540  147.5400 C   0  0  0  0  0  3  0  0  0  0  0  0
  187.0530  177.0780  146.5200 C   0  0  0  0  0  3  0  0  0  0  0  0
  185.9700  178.8110  145.2210 C   0  0  0  0  0  3  0  0  0  0  0  0
  186.9820  177.8540  145.3550 C   0  0  0  0  0  0  0  0  0  0  0  0
  187.8060  177.5700  141.9670 N   0  0  0  0  0  2  0  0  0  0  0  0
  186.6680  178.3790  141.5660 C   0  0  0  0  0  2  0  0  0  0  0  0
  185.9610  177.7280  140.3910 C   0  0  0  0  0  2  0  0  0  0  0  0
  184.6500  178.1960  140.3100 O   0  0  0  0  0  1  0  0  0  0  0  0
  190.6680  174.0900  145.1570 C   0  0  0  0  0  2  0  0  0  0  0  0
  192.1340  173.6860  145.1690 C   0  0  0  0  0  2  0  0  0  0  0  0
  193.7610  176.6920  146.7920 C   0  0  0  0  0  3  0  0  0  0  0  0
  192.9490  175.5740  146.5830 C   0  0  0  0  0  3  0  0  0  0  0  0
  194.6740  176.4470  144.5620 C   0  0  0  0  0  3  0  0  0  0  0  0
  193.8650  175.3260  144.3500 C   0  0  0  0  0  0  0  0  0  0  0  0
  193.9340  174.6550  143.1350 O   0  0  0  0  0  1  0  0  0  0  0  0
  194.6230  177.1290  145.7810 C   0  0  0  0  0  3  0  0  0  0  0  0
  192.9920  174.8900  145.3620 C   0  0  0  0  0  0  0  0  0  0  0  0
  1  5  1  6  0  0  0
  1  7  1  0  0  0  0
  3 21  1  0  0  0  0
  4  2  1  0  0  0  0
  4 16  1  1  0  0  0
  6  1  1  0  0  0  0
  6  4  1  0  0  0  0
  7  3  1  1  0  0  0
  7  2  1  0  0  0  0
  8  3  2  0  0  0  0
  9  8  1  0  0  0  0
 10  9  2  0  0  0  0
 10  5  1  0  0  0  0
 11 13  1  0  0  0  0
 12 11  2  0  0  0  0
 14 13  2  0  0  0  0
 15 16  2  0  0  0  0
 15 12  1  0  0  0  0
 16 14  1  0  0  0  0
 17  6  1  0  0  0  0
 18 17  1  0  0  0  0
 19 18  1  0  0  0  0
 20 19  1  0  0  0  0
 21 22  1  0  0  0  0
 22 29  1  0  0  0  0
 24 23  1  0  0  0  0
 25 28  1  0  0  0  0
 26 25  2  0  0  0  0
 26 29  1  0  0  0  0
 27 26  1  0  0  0  0
 28 23  2  0  0  0  0
 29 24  2  0  0  0  0
M  END
>  <MODEL>
1

>  <REMARK>
 VINA RESULT:      -7.4      0.000      0.000
  Name = 
  7 active torsions:
  status: ('A' for Active; 'I' for Inactive)
    1  A    between atoms: C_8  and  C_17
    2  A    between atoms: C_8  and  C_28
    3  A    between atoms: N_9  and  C_13
    4  A    between atoms: N_9  and  N_20
    5  A    between atoms: C_12  and  C_28
    6  A    between atoms: C_13  and  C_24
    7  A    between atoms: C_14  and  C_27
                            x       y       z     vdW  Elec       q    Type
                         _______ _______ _______ _____ _____    ______ ____

>  <TORSDO>
F 7

$$$$
=
 OpenBabel11062422433D

 29 32  0  0  1  0  0  0  0  0999 V2000
  188.1870  175.4690  142.6180 C   0  0  2  0  0  3  0  0  0  0  0  0
  189.5430  177.6680  143.0650 S   0  0  0  0  0  0  0  0  0  0  0  0
  190.6220  175.2170  142.2310 C   0  0  0  0  0  0  0  0  0  0  0  0
  187.7110  177.7000  143.1830 C   0  0  1  0  0  3  0  0  0  0  0  0
  187.7880  174.1460  141.9390 C   0  0  0  0  0  2  0  0  0  0  0  0
  187.1110  176.4550  142.6850 N   0  0  0  0  0  0  0  0  0  0  0  0
  189.4380  176.1360  142.1180 C   0  0  1  0  0  3  0  0  0  0  0  0
  190.7240  174.1820  141.3880 C   0  0  0  0  0  3  0  0  0  0  0  0
  189.6840  173.8630  140.3870 C   0  0  0  0  0  3  0  0  0  0  0  0
  188.4030  173.9240  140.6260 N   0  0  0  0  0  0  0  0  0  0  0  0
  186.4680  178.4390  147.2270 C   0  0  0  0  0  3  0  0  0  0  0  0
  187.6170  177.6860  146.9680 C   0  0  0  0  0  3  0  0  0  0  0  0
  185.7190  178.9590  146.1680 C   0  0  0  0  0  3  0  0  0  0  0  0
  186.1200  178.7280  144.8500 C   0  0  0  0  0  3  0  0  0  0  0  0
  188.0190  177.4550  145.6490 C   0  0  0  0  0  3  0  0  0  0  0  0
  187.2750  177.9780  144.5860 C   0  0  0  0  0  0  0  0  0  0  0  0
  186.6610  176.7190  141.3800 N   0  0  0  0  0  2  0  0  0  0  0  0
  186.1380  178.0750  141.3790 C   0  0  0  0  0  2  0  0  0  0  0  0
  184.6260  178.0440  141.5020 C   0  0  0  0  0  2  0  0  0  0  0  0
  184.0460  178.4860  140.3130 O   0  0  0  0  0  1  0  0  0  0  0  0
  191.6980  175.4440  143.2430 C   0  0  0  0  0  2  0  0  0  0  0  0
  191.8250  174.2440  144.1670 C   0  0  0  0  0  2  0  0  0  0  0  0
  189.2410  174.4000  146.9260 C   0  0  0  0  0  3  0  0  0  0  0  0
  189.8550  174.1490  145.6960 C   0  0  0  0  0  3  0  0  0  0  0  0
  191.2760  175.4310  147.7360 C   0  0  0  0  0  3  0  0  0  0  0  0
  191.8970  175.1790  146.5080 C   0  0  0  0  0  0  0  0  0  0  0  0
  193.2180  175.5660  146.3190 O   0  0  0  0  0  1  0  0  0  0  0  0
  189.9500  175.0420  147.9460 C   0  0  0  0  0  3  0  0  0  0  0  0
  191.1820  174.5410  145.4790 C   0  0  0  0  0  0  0  0  0  0  0  0
  1  5  1  6  0  0  0
  1  6  1  0  0  0  0
  2  4  1  0  0  0  0
  3 21  1  0  0  0  0
  4 16  1  1  0  0  0
  6  4  1  0  0  0  0
  7  3  1  1  0  0  0
  7  1  1  0  0  0  0
  7  2  1  0  0  0  0
  8  3  2  0  0  0  0
  9 10  2  0  0  0  0
  9  8  1  0  0  0  0
 10  5  1  0  0  0  0
 12 11  1  0  0  0  0
 13 11  2  0  0  0  0
 14 13  1  0  0  0  0
 15 12  2  0  0  0  0
 16 14  2  0  0  0  0
 16 15  1  0  0  0  0
 17  6  1  0  0  0  0
 18 17  1  0  0  0  0
 18 19  1  0  0  0  0
 20 19  1  0  0  0  0
 21 22  1  0  0  0  0
 22 29  1  0  0  0  0
 23 28  1  0  0  0  0
 24 23  2  0  0  0  0
 25 28  2  0  0  0  0
 26 25  1  0  0  0  0
 27 26  1  0  0  0  0
 29 24  1  0  0  0  0
 29 26  2  0  0  0  0
M  END
>  <MODEL>
2

>  <REMARK>
 VINA RESULT:      -7.2      1.618      2.450
  Name = 
  7 active torsions:
  status: ('A' for Active; 'I' for Inactive)
    1  A    between atoms: C_8  and  C_17
    2  A    between atoms: C_8  and  C_28
    3  A    between atoms: N_9  and  C_13
    4  A    between atoms: N_9  and  N_20
    5  A    between atoms: C_12  and  C_28
    6  A    between atoms: C_13  and  C_24
    7  A    between atoms: C_14  and  C_27
                            x       y       z     vdW  Elec       q    Type
                         _______ _______ _______ _____ _____    ______ ____

>  <TORSDO>
F 7

$$$$
=
 OpenBabel11062422433D

 29 32  0  0  1  0  0  0  0  0999 V2000
  188.0060  175.6470  143.1610 C   0  0  2  0  0  3  0  0  0  0  0  0
  189.4680  176.9810  144.8810 S   0  0  0  0  0  0  0  0  0  0  0  0
  190.1310  174.5070  143.7360 C   0  0  0  0  0  0  0  0  0  0  0  0
  187.9170  177.7300  144.2460 C   0  0  1  0  0  3  0  0  0  0  0  0
  187.6770  174.7520  141.9530 C   0  0  0  0  0  2  0  0  0  0  0  0
  187.3510  176.9520  143.1360 N   0  0  0  0  0  0  0  0  0  0  0  0
  189.4620  175.8310  143.4920 C   0  0  1  0  0  3  0  0  0  0  0  0
  190.3720  173.6980  142.6970 C   0  0  0  0  0  3  0  0  0  0  0  0
  189.9460  174.0220  141.3180 C   0  0  0  0  0  3  0  0  0  0  0  0
  188.7910  174.5510  141.0210 N   0  0  0  0  0  0  0  0  0  0  0  0
  185.0530  178.2570  147.4040 C   0  0  0  0  0  3  0  0  0  0  0  0
  184.9520  179.0040  146.2260 C   0  0  0  0  0  3  0  0  0  0  0  0
  186.0870  177.3290  147.5560 C   0  0  0  0  0  3  0  0  0  0  0  0
  187.0190  177.1470  146.5310 C   0  0  0  0  0  3  0  0  0  0  0  0
  185.8840  178.8230  145.2010 C   0  0  0  0  0  3  0  0  0  0  0  0
  186.9180  177.8920  145.3470 C   0  0  0  0  0  0  0  0  0  0  0  0
  187.7170  177.6160  141.9520 N   0  0  0  0  0  2  0  0  0  0  0  0
  186.5620  178.3880  141.5250 C   0  0  0  0  0  2  0  0  0  0  0  0
  185.9560  177.7620  140.2830 C   0  0  0  0  0  2  0  0  0  0  0  0
  184.5890  178.0340  140.2360 O   0  0  0  0  0  1  0  0  0  0  0  0
  190.5560  174.0840  145.1060 C   0  0  0  0  0  2  0  0  0  0  0  0
  192.0150  173.6550  145.1040 C   0  0  0  0  0  2  0  0  0  0  0  0
  194.5460  176.3990  144.4870 C   0  0  0  0  0  3  0  0  0  0  0  0
  193.7300  175.2800  144.3000 C   0  0  0  0  0  3  0  0  0  0  0  0
  193.6900  176.6510  146.7380 C   0  0  0  0  0  3  0  0  0  0  0  0
  192.8690  175.5330  146.5550 C   0  0  0  0  0  0  0  0  0  0  0  0
  192.0380  175.1190  147.5890 O   0  0  0  0  0  1  0  0  0  0  0  0
  194.5270  177.0840  145.7060 C   0  0  0  0  0  3  0  0  0  0  0  0
  192.8940  174.8380  145.3330 C   0  0  0  0  0  0  0  0  0  0  0  0
  1  5  1  6  0  0  0
  1  7  1  0  0  0  0
  3 21  1  0  0  0  0
  4  2  1  0  0  0  0
  4 16  1  1  0  0  0
  6  1  1  0  0  0  0
  6  4  1  0  0  0  0
  7  3  1  1  0  0  0
  7  2  1  0  0  0  0
  8  3  2  0  0  0  0
  9  8  1  0  0  0  0
 10  9  2  0  0  0  0
 10  5  1  0  0  0  0
 11 13  1  0  0  0  0
 12 11  2  0  0  0  0
 14 13  2  0  0  0  0
 15 16  2  0  0  0  0
 15 12  1  0  0  0  0
 16 14  1  0  0  0  0
 17  6  1  0  0  0  0
 18 17  1  0  0  0  0
 19 18  1  0  0  0  0
 20 19  1  0  0  0  0
 22 21  1  0  0  0  0
 22 29  1  0  0  0  0
 23 28  1  0  0  0  0
 24 23  2  0  0  0  0
 24 29  1  0  0  0  0
 26 25  1  0  0  0  0
 26 27  1  0  0  0  0
 28 25  2  0  0  0  0
 29 26  2  0  0  0  0
M  END
>  <MODEL>
3

>  <REMARK>
 VINA RESULT:      -7.2      0.910      1.280
  Name = 
  7 active torsions:
  status: ('A' for Active; 'I' for Inactive)
    1  A    between atoms: C_8  and  C_17
    2  A    between atoms: C_8  and  C_28
    3  A    between atoms: N_9  and  C_13
    4  A    between atoms: N_9  and  N_20
    5  A    between atoms: C_12  and  C_28
    6  A    between atoms: C_13  and  C_24
    7  A    between atoms: C_14  and  C_27
                            x       y       z     vdW  Elec       q    Type
                         _______ _______ _______ _____ _____    ______ ____

>  <TORSDO>
F 7

$$$$
=
 OpenBabel11062422433D

 29 32  0  0  1  0  0  0  0  0999 V2000
  189.7770  173.7180  143.5150 C   0  0  2  0  0  3  0  0  0  0  0  0
  190.7840  175.9890  142.6760 S   0  0  0  0  0  0  0  0  0  0  0  0
  191.9380  174.2890  144.5870 C   0  0  0  0  0  0  0  0  0  0  0  0
  189.2480  175.3450  141.9040 C   0  0  1  0  0  3  0  0  0  0  0  0
  189.7480  172.2580  144.0030 C   0  0  0  0  0  2  0  0  0  0  0  0
  188.9570  173.9710  142.3330 N   0  0  0  0  0  0  0  0  0  0  0  0
  191.1320  174.3400  143.3190 C   0  0  1  0  0  3  0  0  0  0  0  0
  192.4320  173.1150  144.9970 C   0  0  0  0  0  3  0  0  0  0  0  0
  192.1620  171.8450  144.2890 C   0  0  0  0  0  3  0  0  0  0  0  0
  190.9980  171.5210  143.7970 N   0  0  0  0  0  0  0  0  0  0  0  0
  185.9670  177.9830  142.7550 C   0  0  0  0  0  3  0  0  0  0  0  0
  187.1560  178.4860  142.2200 C   0  0  0  0  0  3  0  0  0  0  0  0
  185.8390  176.6150  143.0120 C   0  0  0  0  0  3  0  0  0  0  0  0
  186.8990  175.7500  142.7320 C   0  0  0  0  0  3  0  0  0  0  0  0
  188.2180  177.6200  141.9400 C   0  0  0  0  0  3  0  0  0  0  0  0
  188.0920  176.2490  142.1900 C   0  0  0  0  0  0  0  0  0  0  0  0
  189.3890  173.1260  141.2960 N   0  0  0  0  0  2  0  0  0  0  0  0
  188.2240  172.8270  140.4810 C   0  0  0  0  0  2  0  0  0  0  0  0
  188.5640  173.0080  139.0130 C   0  0  0  0  0  2  0  0  0  0  0  0
  188.1590  174.2730  138.5860 O   0  0  0  0  0  1  0  0  0  0  0  0
  192.2220  175.5210  145.3850 C   0  0  0  0  0  2  0  0  0  0  0  0
  191.4320  175.5100  146.6840 C   0  0  0  0  0  2  0  0  0  0  0  0
  188.7670  177.9430  145.5450 C   0  0  0  0  0  3  0  0  0  0  0  0
  190.0110  177.3480  145.7720 C   0  0  0  0  0  3  0  0  0  0  0  0
  187.6800  176.1190  146.7110 C   0  0  0  0  0  3  0  0  0  0  0  0
  188.9230  175.5190  146.9380 C   0  0  0  0  0  0  0  0  0  0  0  0
  188.9830  174.3130  147.6250 O   0  0  0  0  0  1  0  0  0  0  0  0
  187.6020  177.3290  146.0150 C   0  0  0  0  0  3  0  0  0  0  0  0
  190.0960  176.1380  146.4730 C   0  0  0  0  0  0  0  0  0  0  0  0
  1  5  1  6  0  0  0
  3  8  2  0  0  0  0
  3 21  1  0  0  0  0
  4 16  1  1  0  0  0
  4  6  1  0  0  0  0
  4  2  1  0  0  0  0
  6  1  1  0  0  0  0
  7  2  1  1  0  0  0
  7  1  1  0  0  0  0
  7  3  1  0  0  0  0
  9  8  1  0  0  0  0
 10  5  1  0  0  0  0
 10  9  2  0  0  0  0
 11 13  1  0  0  0  0
 12 11  2  0  0  0  0
 14 13  2  0  0  0  0
 15 16  2  0  0  0  0
 15 12  1  0  0  0  0
 16 14  1  0  0  0  0
 17  6  1  0  0  0  0
 18 17  1  0  0  0  0
 19 18  1  0  0  0  0
 20 19  1  0  0  0  0
 21 22  1  0  0  0  0
 23 24  2  0  0  0  0
 23 28  1  0  0  0  0
 24 29  1  0  0  0  0
 25 26  1  0  0  0  0
 26 27  1  0  0  0  0
 28 25  2  0  0  0  0
 29 22  1  0  0  0  0
 29 26  2  0  0  0  0
M  END
>  <MODEL>
4

>  <REMARK>
 VINA RESULT:      -7.1      2.572      4.469
  Name = 
  7 active torsions:
  status: ('A' for Active; 'I' for Inactive)
    1  A    between atoms: C_8  and  C_17
    2  A    between atoms: C_8  and  C_28
    3  A    between atoms: N_9  and  C_13
    4  A    between atoms: N_9  and  N_20
    5  A    between atoms: C_12  and  C_28
    6  A    between atoms: C_13  and  C_24
    7  A    between atoms: C_14  and  C_27
                            x       y       z     vdW  Elec       q    Type
                         _______ _______ _______ _____ _____    ______ ____

>  <TORSDO>
F 7

$$$$
=
 OpenBabel11062422433D

 29 32  0  0  1  0  0  0  0  0999 V2000
  188.6400  175.3600  143.2910 C   0  0  2  0  0  3  0  0  0  0  0  0
  189.0820  177.9170  142.9150 S   0  0  0  0  0  0  0  0  0  0  0  0
  190.0060  176.3950  145.0830 C   0  0  0  0  0  0  0  0  0  0  0  0
  188.1900  176.9580  141.6280 C   0  0  1  0  0  3  0  0  0  0  0  0
  188.9210  173.9050  143.7080 C   0  0  0  0  0  2  0  0  0  0  0  0
  188.2320  175.5150  141.8970 N   0  0  0  0  0  0  0  0  0  0  0  0
  189.7040  176.3740  143.6100 C   0  0  1  0  0  3  0  0  0  0  0  0
  190.6830  175.3740  145.6220 C   0  0  0  0  0  3  0  0  0  0  0  0
  191.0930  174.1870  144.8420 C   0  0  0  0  0  3  0  0  0  0  0  0
  190.3340  173.6030  143.9560 N   0  0  0  0  0  0  0  0  0  0  0  0
  184.1220  178.2910  141.2870 C   0  0  0  0  0  3  0  0  0  0  0  0
  184.7330  178.2010  142.5420 C   0  0  0  0  0  3  0  0  0  0  0  0
  184.8360  177.9510  140.1360 C   0  0  0  0  0  3  0  0  0  0  0  0
  186.1620  177.5230  140.2370 C   0  0  0  0  0  3  0  0  0  0  0  0
  186.0590  177.7720  142.6440 C   0  0  0  0  0  3  0  0  0  0  0  0
  186.7800  177.4350  141.4930 C   0  0  0  0  0  0  0  0  0  0  0  0
  189.2360  174.9800  141.0720 N   0  0  0  0  0  2  0  0  0  0  0  0
  188.5700  174.1850  140.0550 C   0  0  0  0  0  2  0  0  0  0  0  0
  189.0810  172.7570  140.1020 C   0  0  0  0  0  2  0  0  0  0  0  0
  189.7180  172.4430  138.9010 O   0  0  0  0  0  1  0  0  0  0  0  0
  189.5910  177.5370  145.9520 C   0  0  0  0  0  2  0  0  0  0  0  0
  188.7870  177.0390  147.1420 C   0  0  0  0  0  2  0  0  0  0  0  0
  185.2250  176.7930  145.8880 C   0  0  0  0  0  3  0  0  0  0  0  0
  186.5870  176.5400  146.0740 C   0  0  0  0  0  3  0  0  0  0  0  0
  185.3550  178.6450  147.4430 C   0  0  0  0  0  3  0  0  0  0  0  0
  186.7170  178.3940  147.6350 C   0  0  0  0  0  0  0  0  0  0  0  0
  187.4420  179.1930  148.5100 O   0  0  0  0  0  1  0  0  0  0  0  0
  184.6090  177.8450  146.5720 C   0  0  0  0  0  3  0  0  0  0  0  0
  187.3400  177.3410  146.9420 C   0  0  0  0  0  0  0  0  0  0  0  0
  1  7  1  0  0  0  0
  1  5  1  6  0  0  0
  3  8  2  0  0  0  0
  3 21  1  0  0  0  0
  4 16  1  1  0  0  0
  4  6  1  0  0  0  0
  4  2  1  0  0  0  0
  5 10  1  0  0  0  0
  6  1  1  0  0  0  0
  7  2  1  1  0  0  0
  7  3  1  0  0  0  0
  9  8  1  0  0  0  0
 10  9  2  0  0  0  0
 11 12  1  0  0  0  0
 12 15  2  0  0  0  0
 13 14  1  0  0  0  0
 13 11  2  0  0  0  0
 14 16  2  0  0  0  0
 16 15  1  0  0  0  0
 17  6  1  0  0  0  0
 18 19  1  0  0  0  0
 18 17  1  0  0  0  0
 20 19  1  0  0  0  0
 21 22  1  0  0  0  0
 23 24  2  0  0  0  0
 23 28  1  0  0  0  0
 24 29  1  0  0  0  0
 25 26  1  0  0  0  0
 26 27  1  0  0  0  0
 28 25  2  0  0  0  0
 29 22  1  0  0  0  0
 29 26  2  0  0  0  0
M  END
>  <MODEL>
5

>  <REMARK>
 VINA RESULT:      -6.9      2.729      5.646
  Name = 
  7 active torsions:
  status: ('A' for Active; 'I' for Inactive)
    1  A    between atoms: C_8  and  C_17
    2  A    between atoms: C_8  and  C_28
    3  A    between atoms: N_9  and  C_13
    4  A    between atoms: N_9  and  N_20
    5  A    between atoms: C_12  and  C_28
    6  A    between atoms: C_13  and  C_24
    7  A    between atoms: C_14  and  C_27
                            x       y       z     vdW  Elec       q    Type
                         _______ _______ _______ _____ _____    ______ ____

>  <TORSDO>
F 7

$$$$
=
 OpenBabel11062422433D

 29 32  0  0  1  0  0  0  0  0999 V2000
  188.1970  175.6240  143.1420 C   0  0  2  0  0  3  0  0  0  0  0  0
  189.2540  177.5580  144.5630 S   0  0  0  0  0  0  0  0  0  0  0  0
  190.5160  175.1480  143.8770 C   0  0  0  0  0  0  0  0  0  0  0  0
  187.5860  177.7870  143.8300 C   0  0  1  0  0  3  0  0  0  0  0  0
  188.1220  174.4730  142.1240 C   0  0  0  0  0  2  0  0  0  0  0  0
  187.2510  176.7090  142.8910 N   0  0  0  0  0  0  0  0  0  0  0  0
  189.5570  176.2070  143.4070 C   0  0  1  0  0  3  0  0  0  0  0  0
  190.9690  174.2460  142.9990 C   0  0  0  0  0  3  0  0  0  0  0  0
  190.5150  174.2030  141.5920 C   0  0  0  0  0  3  0  0  0  0  0  0
  189.2760  174.3780  141.2240 N   0  0  0  0  0  0  0  0  0  0  0  0
  184.6160  178.1810  146.9080 C   0  0  0  0  0  3  0  0  0  0  0  0
  184.6150  179.0470  145.8100 C   0  0  0  0  0  3  0  0  0  0  0  0
  185.5840  177.1780  147.0060 C   0  0  0  0  0  3  0  0  0  0  0  0
  186.5490  177.0390  146.0060 C   0  0  0  0  0  3  0  0  0  0  0  0
  185.5810  178.9090  144.8100 C   0  0  0  0  0  3  0  0  0  0  0  0
  186.5490  177.9030  144.9010 C   0  0  0  0  0  0  0  0  0  0  0  0
  187.4790  177.2150  141.6000 N   0  0  0  0  0  2  0  0  0  0  0  0
  186.5860  178.3470  141.4250 C   0  0  0  0  0  2  0  0  0  0  0  0
  185.2800  177.8820  140.8080 C   0  0  0  0  0  2  0  0  0  0  0  0
  184.2200  178.1780  141.6650 O   0  0  0  0  0  1  0  0  0  0  0  0
  190.9930  175.0950  145.2920 C   0  0  0  0  0  2  0  0  0  0  0  0
  192.2600  175.9190  145.4610 C   0  0  0  0  0  2  0  0  0  0  0  0
  194.3400  172.7710  145.7460 C   0  0  0  0  0  3  0  0  0  0  0  0
  193.2440  173.6350  145.6710 C   0  0  0  0  0  3  0  0  0  0  0  0
  195.8450  174.6630  145.5950 C   0  0  0  0  0  3  0  0  0  0  0  0
  194.7520  175.5310  145.5170 C   0  0  0  0  0  0  0  0  0  0  0  0
  194.9720  176.8980  145.3970 O   0  0  0  0  0  1  0  0  0  0  0  0
  195.6410  173.2850  145.7090 C   0  0  0  0  0  3  0  0  0  0  0  0
  193.4440  175.0170  145.5620 C   0  0  0  0  0  0  0  0  0  0  0  0
  1  5  1  6  0  0  0
  1  7  1  0  0  0  0
  3 21  1  0  0  0  0
  4  2  1  0  0  0  0
  4 16  1  1  0  0  0
  6  1  1  0  0  0  0
  6  4  1  0  0  0  0
  7  3  1  1  0  0  0
  7  2  1  0  0  0  0
  8  3  2  0  0  0  0
  9  8  1  0  0  0  0
 10  9  2  0  0  0  0
 10  5  1  0  0  0  0
 11 13  1  0  0  0  0
 12 11  2  0  0  0  0
 14 13  2  0  0  0  0
 15 16  2  0  0  0  0
 15 12  1  0  0  0  0
 16 14  1  0  0  0  0
 17  6  1  0  0  0  0
 18 17  1  0  0  0  0
 19 18  1  0  0  0  0
 19 20  1  0  0  0  0
 21 22  1  0  0  0  0
 22 29  1  0  0  0  0
 24 23  2  0  0  0  0
 25 28  2  0  0  0  0
 26 29  2  0  0  0  0
 26 25  1  0  0  0  0
 27 26  1  0  0  0  0
 28 23  1  0  0  0  0
 29 24  1  0  0  0  0
M  END
>  <MODEL>
6

>  <REMARK>
 VINA RESULT:      -6.8      1.273      1.570
  Name = 
  7 active torsions:
  status: ('A' for Active; 'I' for Inactive)
    1  A    between atoms: C_8  and  C_17
    2  A    between atoms: C_8  and  C_28
    3  A    between atoms: N_9  and  C_13
    4  A    between atoms: N_9  and  N_20
    5  A    between atoms: C_12  and  C_28
    6  A    between atoms: C_13  and  C_24
    7  A    between atoms: C_14  and  C_27
                            x       y       z     vdW  Elec       q    Type
                         _______ _______ _______ _____ _____    ______ ____

>  <TORSDO>
F 7

$$$$
=
 OpenBabel11062422433D

 29 32  0  0  1  0  0  0  0  0999 V2000
  190.3080  174.6770  143.2280 C   0  0  2  0  0  3  0  0  0  0  0  0
  190.1730  175.1030  145.8120 S   0  0  0  0  0  0  0  0  0  0  0  0
  188.5430  176.2980  143.8660 C   0  0  0  0  0  0  0  0  0  0  0  0
  191.3400  173.8410  145.1670 C   0  0  1  0  0  3  0  0  0  0  0  0
  189.8170  174.4820  141.7820 C   0  0  0  0  0  2  0  0  0  0  0  0
  191.1230  173.5780  143.7380 N   0  0  0  0  0  0  0  0  0  0  0  0
  189.2680  175.0390  144.2530 C   0  0  1  0  0  3  0  0  0  0  0  0
  187.6680  176.2590  142.8540 C   0  0  0  0  0  3  0  0  0  0  0  0
  187.4300  175.0400  142.0510 C   0  0  0  0  0  3  0  0  0  0  0  0
  188.3770  174.2360  141.6540 N   0  0  0  0  0  0  0  0  0  0  0  0
  195.3960  175.0630  145.8770 C   0  0  0  0  0  3  0  0  0  0  0  0
  194.3390  175.9440  146.1270 C   0  0  0  0  0  3  0  0  0  0  0  0
  195.1360  173.7770  145.3980 C   0  0  0  0  0  3  0  0  0  0  0  0
  193.8190  173.3690  145.1710 C   0  0  0  0  0  3  0  0  0  0  0  0
  193.0210  175.5370  145.8990 C   0  0  0  0  0  3  0  0  0  0  0  0
  192.7560  174.2480  145.4240 C   0  0  0  0  0  0  0  0  0  0  0  0
  190.3760  172.3900  143.6580 N   0  0  0  0  0  2  0  0  0  0  0  0
  191.2290  171.3950  143.0290 C   0  0  0  0  0  2  0  0  0  0  0  0
  190.4310  170.6000  142.0130 C   0  0  0  0  0  2  0  0  0  0  0  0
  190.5720  171.1710  140.7490 O   0  0  0  0  0  1  0  0  0  0  0  0
  188.7570  177.5830  144.5990 C   0  0  0  0  0  2  0  0  0  0  0  0
  188.0580  177.5510  145.9490 C   0  0  0  0  0  2  0  0  0  0  0  0
  185.0500  179.4120  144.6060 C   0  0  0  0  0  3  0  0  0  0  0  0
  186.3550  178.9390  144.7640 C   0  0  0  0  0  3  0  0  0  0  0  0
  184.3470  178.1300  146.5370 C   0  0  0  0  0  3  0  0  0  0  0  0
  185.6520  177.6510  146.6980 C   0  0  0  0  0  0  0  0  0  0  0  0
  185.9330  176.7720  147.7360 O   0  0  0  0  0  1  0  0  0  0  0  0
  184.0460  179.0090  145.4920 C   0  0  0  0  0  3  0  0  0  0  0  0
  186.6640  178.0620  145.8120 C   0  0  0  0  0  0  0  0  0  0  0  0
  1  5  1  6  0  0  0
  1  6  1  0  0  0  0
  1  7  1  0  0  0  0
  3 21  1  0  0  0  0
  4 16  1  6  0  0  0
  4  2  1  0  0  0  0
  6  4  1  0  0  0  0
  7  3  1  6  0  0  0
  7  2  1  0  0  0  0
  8  3  2  0  0  0  0
  9  8  1  0  0  0  0
 10  5  1  0  0  0  0
 10  9  2  0  0  0  0
 11 12  1  0  0  0  0
 13 11  2  0  0  0  0
 14 13  1  0  0  0  0
 14 16  2  0  0  0  0
 15 12  2  0  0  0  0
 16 15  1  0  0  0  0
 17  6  1  0  0  0  0
 18 17  1  0  0  0  0
 19 18  1  0  0  0  0
 20 19  1  0  0  0  0
 21 22  1  0  0  0  0
 23 24  2  0  0  0  0
 23 28  1  0  0  0  0
 24 29  1  0  0  0  0
 25 26  1  0  0  0  0
 26 27  1  0  0  0  0
 28 25  2  0  0  0  0
 29 22  1  0  0  0  0
 29 26  2  0  0  0  0
M  END
>  <MODEL>
7

>  <REMARK>
 VINA RESULT:      -6.6      2.372      7.159
  Name = 
  7 active torsions:
  status: ('A' for Active; 'I' for Inactive)
    1  A    between atoms: C_8  and  C_17
    2  A    between atoms: C_8  and  C_28
    3  A    between atoms: N_9  and  C_13
    4  A    between atoms: N_9  and  N_20
    5  A    between atoms: C_12  and  C_28
    6  A    between atoms: C_13  and  C_24
    7  A    between atoms: C_14  and  C_27
                            x       y       z     vdW  Elec       q    Type
                         _______ _______ _______ _____ _____    ______ ____

>  <TORSDO>
F 7

$$$$
=
 OpenBabel11062422433D

 29 32  0  0  1  0  0  0  0  0999 V2000
  190.6480  174.1850  142.8230 C   0  0  2  0  0  3  0  0  0  0  0  0
  189.7680  174.5390  145.2680 S   0  0  0  0  0  0  0  0  0  0  0  0
  188.3180  175.0270  142.9160 C   0  0  0  0  0  0  0  0  0  0  0  0
  191.4310  173.8040  145.0060 C   0  0  1  0  0  3  0  0  0  0  0  0
  190.6150  173.8130  141.3300 C   0  0  0  0  0  2  0  0  0  0  0  0
  191.6640  173.4730  143.5950 N   0  0  0  0  0  0  0  0  0  0  0  0
  189.3400  174.1340  143.5630 C   0  0  1  0  0  3  0  0  0  0  0  0
  187.7800  174.6600  141.7480 C   0  0  0  0  0  3  0  0  0  0  0  0
  188.1960  173.4370  141.0270 C   0  0  0  0  0  3  0  0  0  0  0  0
  189.4350  173.0460  140.9180 N   0  0  0  0  0  0  0  0  0  0  0  0
  194.5340  176.3660  146.5080 C   0  0  0  0  0  3  0  0  0  0  0  0
  194.8460  175.3050  145.6520 C   0  0  0  0  0  3  0  0  0  0  0  0
  193.2070  176.6000  146.8750 C   0  0  0  0  0  3  0  0  0  0  0  0
  192.1910  175.7750  146.3860 C   0  0  0  0  0  3  0  0  0  0  0  0
  193.8310  174.4790  145.1630 C   0  0  0  0  0  3  0  0  0  0  0  0
  192.4990  174.7130  145.5240 C   0  0  0  0  0  0  0  0  0  0  0  0
  191.4420  172.0910  143.4640 N   0  0  0  0  0  2  0  0  0  0  0  0
  192.7300  171.4810  143.1800 C   0  0  0  0  0  2  0  0  0  0  0  0
  193.0540  170.4470  144.2420 C   0  0  0  0  0  2  0  0  0  0  0  0
  193.9280  170.9930  145.1820 O   0  0  0  0  0  1  0  0  0  0  0  0
  187.8730  176.3020  143.5580 C   0  0  0  0  0  2  0  0  0  0  0  0
  186.3590  176.4290  143.4990 C   0  0  0  0  0  2  0  0  0  0  0  0
  186.0270  177.4320  147.1320 C   0  0  0  0  0  3  0  0  0  0  0  0
  186.4700  176.8070  145.9640 C   0  0  0  0  0  3  0  0  0  0  0  0
  184.3540  178.6350  145.8590 C   0  0  0  0  0  3  0  0  0  0  0  0
  184.7970  178.0140  144.6850 C   0  0  0  0  0  0  0  0  0  0  0  0
  184.1800  178.3190  143.4780 O   0  0  0  0  0  1  0  0  0  0  0  0
  184.9690  178.3450  147.0810 C   0  0  0  0  0  3  0  0  0  0  0  0
  185.8550  177.0900  144.7370 C   0  0  0  0  0  0  0  0  0  0  0  0
  1  5  1  6  0  0  0
  1  7  1  0  0  0  0
  1  6  1  0  0  0  0
  3 21  1  0  0  0  0
  4  2  1  0  0  0  0
  4 16  1  6  0  0  0
  6  4  1  0  0  0  0
  7  3  1  6  0  0  0
  7  2  1  0  0  0  0
  8  3  2  0  0  0  0
  9  8  1  0  0  0  0
 10  9  2  0  0  0  0
 10  5  1  0  0  0  0
 11 13  1  0  0  0  0
 12 11  2  0  0  0  0
 14 13  2  0  0  0  0
 15 16  2  0  0  0  0
 15 12  1  0  0  0  0
 16 14  1  0  0  0  0
 17  6  1  0  0  0  0
 18 17  1  0  0  0  0
 18 19  1  0  0  0  0
 19 20  1  0  0  0  0
 22 21  1  0  0  0  0
 22 29  1  0  0  0  0
 24 23  2  0  0  0  0
 25 28  2  0  0  0  0
 26 29  2  0  0  0  0
 26 25  1  0  0  0  0
 27 26  1  0  0  0  0
 28 23  1  0  0  0  0
 29 24  1  0  0  0  0
M  END
>  <MODEL>
8

>  <REMARK>
 VINA RESULT:      -6.6      2.069      7.305
  Name = 
  7 active torsions:
  status: ('A' for Active; 'I' for Inactive)
    1  A    between atoms: C_8  and  C_17
    2  A    between atoms: C_8  and  C_28
    3  A    between atoms: N_9  and  C_13
    4  A    between atoms: N_9  and  N_20
    5  A    between atoms: C_12  and  C_28
    6  A    between atoms: C_13  and  C_24
    7  A    between atoms: C_14  and  C_27
                            x       y       z     vdW  Elec       q    Type
                         _______ _______ _______ _____ _____    ______ ____

>  <TORSDO>
F 7

$$$$
=
 OpenBabel11062422433D

 29 32  0  0  1  0  0  0  0  0999 V2000
  187.0510  176.6860  146.0230 C   0  0  2  0  0  3  0  0  0  0  0  0
  188.5070  177.8730  144.1940 S   0  0  0  0  0  0  0  0  0  0  0  0
  186.2520  178.9640  145.4580 C   0  0  0  0  0  0  0  0  0  0  0  0
  189.0210  176.2270  144.8260 C   0  0  1  0  0  3  0  0  0  0  0  0
  186.1870  176.5320  147.2880 C   0  0  0  0  0  2  0  0  0  0  0  0
  188.2270  175.8200  145.9920 N   0  0  0  0  0  0  0  0  0  0  0  0
  187.4560  178.0840  145.6450 C   0  0  1  0  0  3  0  0  0  0  0  0
  185.5580  179.3540  146.5340 C   0  0  0  0  0  3  0  0  0  0  0  0
  185.8870  178.9020  147.9030 C   0  0  0  0  0  3  0  0  0  0  0  0
  186.2310  177.6790  148.2000 N   0  0  0  0  0  0  0  0  0  0  0  0
  188.7450  173.2690  141.7250 C   0  0  0  0  0  3  0  0  0  0  0  0
  187.8880  174.3740  141.7250 C   0  0  0  0  0  3  0  0  0  0  0  0
  189.7010  173.1250  142.7340 C   0  0  0  0  0  3  0  0  0  0  0  0
  189.8010  174.0870  143.7430 C   0  0  0  0  0  3  0  0  0  0  0  0
  187.9880  175.3350  142.7340 C   0  0  0  0  0  3  0  0  0  0  0  0
  188.9460  175.1980  143.7440 C   0  0  0  0  0  0  0  0  0  0  0  0
  189.0120  176.0870  147.1270 N   0  0  0  0  0  2  0  0  0  0  0  0
  189.8430  174.9160  147.3520 C   0  0  0  0  0  2  0  0  0  0  0  0
  191.2680  175.3450  147.6470 C   0  0  0  0  0  2  0  0  0  0  0  0
  191.3130  176.7230  147.8590 O   0  0  0  0  0  1  0  0  0  0  0  0
  185.8260  179.4320  144.1040 C   0  0  0  0  0  2  0  0  0  0  0  0
  184.5220  178.7660  143.6940 C   0  0  0  0  0  2  0  0  0  0  0  0
  185.8980  177.6370  140.3550 C   0  0  0  0  0  3  0  0  0  0  0  0
  185.8210  178.0340  141.6930 C   0  0  0  0  0  3  0  0  0  0  0  0
  183.5000  177.8950  140.1380 C   0  0  0  0  0  3  0  0  0  0  0  0
  183.4170  178.2900  141.4770 C   0  0  0  0  0  0  0  0  0  0  0  0
  182.1780  178.6040  142.0210 O   0  0  0  0  0  1  0  0  0  0  0  0
  184.7380  177.5690  139.5770 C   0  0  0  0  0  3  0  0  0  0  0  0
  184.5840  178.3670  142.2580 C   0  0  0  0  0  0  0  0  0  0  0  0
  1  5  1  1  0  0  0
  2  4  1  0  0  0  0
  3  7  1  0  0  0  0
  3  8  2  0  0  0  0
  4 16  1  6  0  0  0
  4  6  1  0  0  0  0
  5 10  1  0  0  0  0
  6  1  1  0  0  0  0
  6 17  1  0  0  0  0
  7  2  1  6  0  0  0
  7  1  1  0  0  0  0
  8  9  1  0  0  0  0
  9 10  2  0  0  0  0
 11 13  1  0  0  0  0
 12 11  2  0  0  0  0
 12 15  1  0  0  0  0
 13 14  2  0  0  0  0
 14 16  1  0  0  0  0
 15 16  2  0  0  0  0
 17 18  1  0  0  0  0
 18 19  1  0  0  0  0
 19 20  1  0  0  0  0
 21  3  1  0  0  0  0
 22 21  1  0  0  0  0
 23 24  1  0  0  0  0
 24 29  2  0  0  0  0
 25 26  2  0  0  0  0
 26 27  1  0  0  0  0
 26 29  1  0  0  0  0
 28 25  1  0  0  0  0
 28 23  2  0  0  0  0
 29 22  1  0  0  0  0
M  END
>  <MODEL>
9

>  <REMARK>
 VINA RESULT:      -6.5      2.639      7.934
  Name = 
  7 active torsions:
  status: ('A' for Active; 'I' for Inactive)
    1  A    between atoms: C_8  and  C_17
    2  A    between atoms: C_8  and  C_28
    3  A    between atoms: N_9  and  C_13
    4  A    between atoms: N_9  and  N_20
    5  A    between atoms: C_12  and  C_28
    6  A    between atoms: C_13  and  C_24
    7  A    between atoms: C_14  and  C_27
                            x       y       z     vdW  Elec       q    Type
                         _______ _______ _______ _____ _____    ______ ____

>  <TORSDO>
F 7

$$$$
