=
 OpenBabel11062421083D

 27 30  0  0  1  0  0  0  0  0999 V2000
  188.5760  176.5860  144.0350 C   0  0  0  0  0  2  0  0  0  0  0  0
  185.7010  177.3870  143.4520 C   0  0  0  0  0  0  0  0  0  0  0  0
  184.0430  178.7310  144.2110 N   0  0  0  0  0  0  0  0  0  0  0  0
  186.7010  177.9600  146.9680 C   0  0  0  0  0  3  0  0  0  0  0  0
  188.1120  176.8610  145.3910 N   0  0  0  0  0  2  0  0  0  0  0  0
  187.5830  175.7280  143.2550 C   0  0  1  0  0  3  0  0  0  0  0  0
  185.5940  177.1470  144.9190 C   0  0  2  0  0  3  0  0  0  0  0  0
  184.5290  178.1350  145.2460 C   0  0  0  0  0  0  0  0  0  0  0  0
  184.3610  178.6300  146.6130 C   0  0  0  0  0  3  0  0  0  0  0  0
  186.5580  176.5970  142.5060 C   0  0  2  0  0  3  0  0  0  0  0  0
  184.7410  178.2270  143.0760 C   0  0  0  0  0  3  0  0  0  0  0  0
  186.8370  177.4130  145.7470 C   0  0  0  0  0  0  0  0  0  0  0  0
  185.4070  178.5170  147.4410 C   0  0  0  0  0  3  0  0  0  0  0  0
  187.1720  177.4670  141.4370 C   0  0  0  0  0  0  0  0  0  0  0  0
  188.0590  178.2610  141.7080 O   0  0  0  0  0  0  0  0  0  0  0  0
  186.5740  177.3470  139.7550 S   0  0  0  0  0  1  0  0  0  0  0  0
  188.3050  174.7880  142.2990 C   0  0  0  0  0  2  0  0  0  0  0  0
  190.2230  173.4430  143.5830 C   0  0  0  0  0  0  0  0  0  0  0  0
  189.3580  174.0510  143.0040 C   0  0  0  0  0  0  0  0  0  0  0  0
  191.2910  171.4610  144.1800 O   0  0  0  0  0  0  0  0  0  0  0  0
  191.2510  172.7170  144.2710 C   0  0  0  0  0  0  0  0  0  0  0  0
  192.1930  173.4200  145.0350 O   0  0  0  0  0  0  0  0  0  0  0  0
  193.5960  176.2730  146.5970 C   0  0  0  0  0  2  0  0  0  0  0  0
  191.4690  175.1430  146.6050 C   0  0  0  0  0  2  0  0  0  0  0  0
  192.1430  174.8260  145.2840 C   0  0  0  0  0  3  0  0  0  0  0  0
  193.5290  175.4490  145.3230 C   0  0  0  0  0  2  0  0  0  0  0  0
  192.1770  176.3750  147.1170 C   0  0  0  0  0  2  0  0  0  0  0  0
  1  5  1  0  0  0  0
  3  8  2  0  0  0  0
  4 13  1  0  0  0  0
  5 12  1  0  0  0  0
  6 17  1  6  0  0  0
  6  1  1  0  0  0  0
  7  2  1  6  0  0  0
  7  8  1  0  0  0  0
  7 12  1  0  0  0  0
  8  9  1  0  0  0  0
  9 13  2  0  0  0  0
 10 14  1  6  0  0  0
 10  6  1  0  0  0  0
 10  2  1  0  0  0  0
 11  2  2  0  0  0  0
 11  3  1  0  0  0  0
 12  4  2  0  0  0  0
 14 15  2  0  0  0  0
 16 14  1  0  0  0  0
 17 19  1  0  0  0  0
 18 21  1  0  0  0  0
 19 18  3  0  0  0  0
 20 21  2  0  0  0  0
 21 22  1  0  0  0  0
 22 25  1  0  0  0  0
 23 27  1  0  0  0  0
 24 27  1  0  0  0  0
 25 26  1  0  0  0  0
 25 24  1  0  0  0  0
 26 23  1  0  0  0  0
M  END
>  <MODEL>
1

>  <REMARK>
 VINA RESULT:      -7.3      0.000      0.000
  Name = 
  6 active torsions:
  status: ('A' for Active; 'I' for Inactive)
    1  A    between atoms: C_4  and  C_18
    2  A    between atoms: C_6  and  C_24
    3  A    between atoms: C_10  and  C_16
    4  A    between atoms: C_16  and  C_27
    5  A    between atoms: C_17  and  O_20
    6  A    between atoms: O_20  and  C_24
                            x       y       z     vdW  Elec       q    Type
                         _______ _______ _______ _____ _____    ______ ____

>  <TORSDO>
F 6

$$$$
=
 OpenBabel11062421083D

 27 30  0  0  1  0  0  0  0  0999 V2000
  187.9810  177.1050  146.8770 C   0  0  0  0  0  2  0  0  0  0  0  0
  187.8070  177.1840  143.8420 C   0  0  0  0  0  0  0  0  0  0  0  0
  186.7550  178.2630  142.1500 N   0  0  0  0  0  0  0  0  0  0  0  0
  184.7970  178.5290  145.5210 C   0  0  0  0  0  3  0  0  0  0  0  0
  186.5850  177.5000  146.7150 N   0  0  0  0  0  2  0  0  0  0  0  0
  188.3540  175.9420  145.9610 C   0  0  1  0  0  3  0  0  0  0  0  0
  186.3540  177.1750  144.1680 C   0  0  2  0  0  3  0  0  0  0  0  0
  185.8440  177.9610  143.0110 C   0  0  0  0  0  0  0  0  0  0  0  0
  184.5440  178.6310  143.0760 C   0  0  0  0  0  3  0  0  0  0  0  0
  188.8690  176.4420  144.6010 C   0  0  2  0  0  3  0  0  0  0  0  0
  187.9820  177.7320  142.6430 C   0  0  0  0  0  3  0  0  0  0  0  0
  185.9430  177.8270  145.4760 C   0  0  0  0  0  0  0  0  0  0  0  0
  184.0380  178.8780  144.2910 C   0  0  0  0  0  3  0  0  0  0  0  0
  190.1530  177.2300  144.6950 C   0  0  0  0  0  0  0  0  0  0  0  0
  190.1850  178.3120  145.2600 O   0  0  0  0  0  0  0  0  0  0  0  0
  191.6420  176.5780  143.9470 S   0  0  0  0  0  1  0  0  0  0  0  0
  189.3720  175.0260  146.6270 C   0  0  0  0  0  2  0  0  0  0  0  0
  190.0450  173.0310  144.9820 C   0  0  0  0  0  0  0  0  0  0  0  0
  189.7410  173.9300  145.7260 C   0  0  0  0  0  0  0  0  0  0  0  0
  191.5260  171.3980  144.2330 O   0  0  0  0  0  0  0  0  0  0  0  0
  190.4080  171.9620  144.0970 C   0  0  0  0  0  0  0  0  0  0  0  0
  189.5120  171.5660  143.0950 O   0  0  0  0  0  0  0  0  0  0  0  0
  189.6880  174.6480  141.3600 C   0  0  0  0  0  2  0  0  0  0  0  0
  187.9550  173.1220  142.0400 C   0  0  0  0  0  2  0  0  0  0  0  0
  189.2360  172.3220  141.9140 C   0  0  0  0  0  3  0  0  0  0  0  0
  190.3520  173.3020  141.5900 C   0  0  0  0  0  2  0  0  0  0  0  0
  188.2020  174.3810  141.2430 C   0  0  0  0  0  2  0  0  0  0  0  0
  2  7  1  0  0  0  0
  2 10  1  0  0  0  0
  3 11  1  0  0  0  0
  3  8  2  0  0  0  0
  5  1  1  0  0  0  0
  6 17  1  1  0  0  0
  6  1  1  0  0  0  0
  7  8  1  6  0  0  0
  7 12  1  0  0  0  0
  8  9  1  0  0  0  0
  9 13  2  0  0  0  0
 10 14  1  1  0  0  0
 10  6  1  0  0  0  0
 11  2  2  0  0  0  0
 12  4  2  0  0  0  0
 12  5  1  0  0  0  0
 13  4  1  0  0  0  0
 14 15  2  0  0  0  0
 16 14  1  0  0  0  0
 18 19  3  0  0  0  0
 19 17  1  0  0  0  0
 21 20  2  0  0  0  0
 21 18  1  0  0  0  0
 22 21  1  0  0  0  0
 23 26  1  0  0  0  0
 25 24  1  0  0  0  0
 25 22  1  0  0  0  0
 26 25  1  0  0  0  0
 27 23  1  0  0  0  0
 27 24  1  0  0  0  0
M  END
>  <MODEL>
2

>  <REMARK>
 VINA RESULT:      -7.3      2.446      3.922
  Name = 
  6 active torsions:
  status: ('A' for Active; 'I' for Inactive)
    1  A    between atoms: C_4  and  C_18
    2  A    between atoms: C_6  and  C_24
    3  A    between atoms: C_10  and  C_16
    4  A    between atoms: C_16  and  C_27
    5  A    between atoms: C_17  and  O_20
    6  A    between atoms: O_20  and  C_24
                            x       y       z     vdW  Elec       q    Type
                         _______ _______ _______ _____ _____    ______ ____

>  <TORSDO>
F 6

$$$$
=
 OpenBabel11062421083D

 27 30  0  0  1  0  0  0  0  0999 V2000
  188.4790  176.2810  143.9820 C   0  0  0  0  0  2  0  0  0  0  0  0
  185.6530  177.3630  143.6860 C   0  0  0  0  0  0  0  0  0  0  0  0
  184.1660  178.7470  144.6890 N   0  0  0  0  0  0  0  0  0  0  0  0
  186.9140  177.4840  147.1620 C   0  0  0  0  0  3  0  0  0  0  0  0
  188.1250  176.4490  145.3880 N   0  0  0  0  0  2  0  0  0  0  0  0
  187.3700  175.5900  143.1930 C   0  0  1  0  0  3  0  0  0  0  0  0
  185.6160  176.9800  145.1250 C   0  0  2  0  0  3  0  0  0  0  0  0
  184.6620  178.0090  145.6230 C   0  0  0  0  0  0  0  0  0  0  0  0
  184.6230  178.3690  147.0410 C   0  0  0  0  0  3  0  0  0  0  0  0
  186.3790  176.6110  142.6080 C   0  0  2  0  0  3  0  0  0  0  0  0
  184.7460  178.3110  143.4640 C   0  0  0  0  0  3  0  0  0  0  0  0
  186.9270  177.0590  145.8860 C   0  0  0  0  0  0  0  0  0  0  0  0
  185.7040  178.0890  147.7780 C   0  0  0  0  0  3  0  0  0  0  0  0
  186.9980  177.5380  141.5900 C   0  0  0  0  0  0  0  0  0  0  0  0
  187.8350  178.3620  141.9200 O   0  0  0  0  0  0  0  0  0  0  0  0
  186.4770  177.4390  139.8810 S   0  0  0  0  0  1  0  0  0  0  0  0
  187.9480  174.7020  142.1000 C   0  0  0  0  0  2  0  0  0  0  0  0
  190.6180  174.7820  142.1440 C   0  0  0  0  0  0  0  0  0  0  0  0
  189.4130  174.7470  142.1260 C   0  0  0  0  0  0  0  0  0  0  0  0
  192.6890  174.7570  141.0810 O   0  0  0  0  0  0  0  0  0  0  0  0
  192.0520  174.8230  142.1650 C   0  0  0  0  0  0  0  0  0  0  0  0
  192.7170  174.9330  143.3940 O   0  0  0  0  0  0  0  0  0  0  0  0
  193.2350  176.2940  146.6220 C   0  0  0  0  0  2  0  0  0  0  0  0
  191.8410  174.5900  145.6460 C   0  0  0  0  0  2  0  0  0  0  0  0
  192.1790  175.5800  144.5480 C   0  0  0  0  0  3  0  0  0  0  0  0
  193.1450  176.5950  145.1370 C   0  0  0  0  0  2  0  0  0  0  0  0
  192.1070  175.3320  146.9340 C   0  0  0  0  0  2  0  0  0  0  0  0
  1  5  1  0  0  0  0
  3  8  2  0  0  0  0
  4 13  1  0  0  0  0
  5 12  1  0  0  0  0
  6 17  1  6  0  0  0
  6  1  1  0  0  0  0
  7  2  1  6  0  0  0
  7  8  1  0  0  0  0
  7 12  1  0  0  0  0
  8  9  1  0  0  0  0
  9 13  2  0  0  0  0
 10 14  1  6  0  0  0
 10  6  1  0  0  0  0
 10  2  1  0  0  0  0
 11  2  2  0  0  0  0
 11  3  1  0  0  0  0
 12  4  2  0  0  0  0
 14 15  2  0  0  0  0
 16 14  1  0  0  0  0
 17 19  1  0  0  0  0
 18 21  1  0  0  0  0
 19 18  3  0  0  0  0
 20 21  2  0  0  0  0
 21 22  1  0  0  0  0
 22 25  1  0  0  0  0
 23 27  1  0  0  0  0
 24 27  1  0  0  0  0
 25 26  1  0  0  0  0
 25 24  1  0  0  0  0
 26 23  1  0  0  0  0
M  END
>  <MODEL>
3

>  <REMARK>
 VINA RESULT:      -7.2      1.225      1.365
  Name = 
  6 active torsions:
  status: ('A' for Active; 'I' for Inactive)
    1  A    between atoms: C_4  and  C_18
    2  A    between atoms: C_6  and  C_24
    3  A    between atoms: C_10  and  C_16
    4  A    between atoms: C_16  and  C_27
    5  A    between atoms: C_17  and  O_20
    6  A    between atoms: O_20  and  C_24
                            x       y       z     vdW  Elec       q    Type
                         _______ _______ _______ _____ _____    ______ ____

>  <TORSDO>
F 6

$$$$
=
 OpenBabel11062421083D

 27 30  0  0  1  0  0  0  0  0999 V2000
  188.2570  177.0000  146.8600 C   0  0  0  0  0  2  0  0  0  0  0  0
  187.6420  177.1190  143.8840 C   0  0  0  0  0  0  0  0  0  0  0  0
  186.3520  178.2150  142.3800 N   0  0  0  0  0  0  0  0  0  0  0  0
  184.9060  178.4270  146.0030 C   0  0  0  0  0  3  0  0  0  0  0  0
  186.8520  177.3900  146.9090 N   0  0  0  0  0  2  0  0  0  0  0  0
  188.4960  175.8500  145.8830 C   0  0  1  0  0  3  0  0  0  0  0  0
  186.2520  177.0990  144.4190 C   0  0  2  0  0  3  0  0  0  0  0  0
  185.5760  177.8980  143.3600 C   0  0  0  0  0  0  0  0  0  0  0  0
  184.2980  178.5610  143.6230 C   0  0  0  0  0  3  0  0  0  0  0  0
  188.8060  176.3720  144.4700 C   0  0  2  0  0  3  0  0  0  0  0  0
  187.6380  177.6840  142.6800 C   0  0  0  0  0  3  0  0  0  0  0  0
  186.0350  177.7310  145.7810 C   0  0  0  0  0  0  0  0  0  0  0  0
  183.9740  178.7880  144.9020 C   0  0  0  0  0  3  0  0  0  0  0  0
  190.0870  177.1650  144.3860 C   0  0  0  0  0  0  0  0  0  0  0  0
  190.1990  178.2370  144.9580 O   0  0  0  0  0  0  0  0  0  0  0  0
  191.4510  176.5320  143.4160 S   0  0  0  0  0  1  0  0  0  0  0  0
  189.6030  174.9300  146.3810 C   0  0  0  0  0  2  0  0  0  0  0  0
  190.0770  172.9980  144.5980 C   0  0  0  0  0  0  0  0  0  0  0  0
  189.8630  173.8690  145.4040 C   0  0  0  0  0  0  0  0  0  0  0  0
  191.3180  171.1960  143.8020 O   0  0  0  0  0  0  0  0  0  0  0  0
  190.3320  171.9630  143.6390 C   0  0  0  0  0  0  0  0  0  0  0  0
  189.4800  171.8260  142.5340 O   0  0  0  0  0  0  0  0  0  0  0  0
  188.2020  172.6720  139.3410 C   0  0  0  0  0  2  0  0  0  0  0  0
  190.1800  171.6060  140.2070 C   0  0  0  0  0  2  0  0  0  0  0  0
  189.6460  172.5170  141.2950 C   0  0  0  0  0  3  0  0  0  0  0  0
  188.3400  173.1070  140.7900 C   0  0  0  0  0  2  0  0  0  0  0  0
  189.5490  172.1110  138.9310 C   0  0  0  0  0  2  0  0  0  0  0  0
  1  5  1  0  0  0  0
  2  7  1  0  0  0  0
  2 10  1  0  0  0  0
  3 11  1  0  0  0  0
  3  8  2  0  0  0  0
  6 17  1  1  0  0  0
  6  1  1  0  0  0  0
  7  8  1  6  0  0  0
  7 12  1  0  0  0  0
  8  9  1  0  0  0  0
  9 13  2  0  0  0  0
 10 14  1  1  0  0  0
 10  6  1  0  0  0  0
 11  2  2  0  0  0  0
 12  4  2  0  0  0  0
 12  5  1  0  0  0  0
 13  4  1  0  0  0  0
 14 15  2  0  0  0  0
 16 14  1  0  0  0  0
 18 19  3  0  0  0  0
 19 17  1  0  0  0  0
 21 20  2  0  0  0  0
 21 18  1  0  0  0  0
 22 21  1  0  0  0  0
 23 26  1  0  0  0  0
 24 25  1  0  0  0  0
 25 22  1  0  0  0  0
 26 25  1  0  0  0  0
 27 23  1  0  0  0  0
 27 24  1  0  0  0  0
M  END
>  <MODEL>
4

>  <REMARK>
 VINA RESULT:      -6.8      2.420      4.369
  Name = 
  6 active torsions:
  status: ('A' for Active; 'I' for Inactive)
    1  A    between atoms: C_4  and  C_18
    2  A    between atoms: C_6  and  C_24
    3  A    between atoms: C_10  and  C_16
    4  A    between atoms: C_16  and  C_27
    5  A    between atoms: C_17  and  O_20
    6  A    between atoms: O_20  and  C_24
                            x       y       z     vdW  Elec       q    Type
                         _______ _______ _______ _____ _____    ______ ____

>  <TORSDO>
F 6

$$$$
=
 OpenBabel11062421083D

 27 30  0  0  1  0  0  0  0  0999 V2000
  188.9540  174.8400  142.1900 C   0  0  0  0  0  2  0  0  0  0  0  0
  189.7240  174.6780  145.1280 C   0  0  0  0  0  0  0  0  0  0  0  0
  188.8700  174.9640  147.2070 N   0  0  0  0  0  0  0  0  0  0  0  0
  186.8250  176.8860  144.4890 C   0  0  0  0  0  3  0  0  0  0  0  0
  188.0880  175.8810  142.7350 N   0  0  0  0  0  2  0  0  0  0  0  0
  190.3830  174.9540  142.7150 C   0  0  1  0  0  3  0  0  0  0  0  0
  189.0360  176.0000  145.1290 C   0  0  2  0  0  3  0  0  0  0  0  0
  188.4970  175.9870  146.5170 C   0  0  0  0  0  0  0  0  0  0  0  0
  187.3660  176.8390  146.8880 C   0  0  0  0  0  3  0  0  0  0  0  0
  190.5720  174.1450  144.0090 C   0  0  2  0  0  3  0  0  0  0  0  0
  189.6840  174.1640  146.3540 C   0  0  0  0  0  3  0  0  0  0  0  0
  187.9140  176.1870  144.1250 C   0  0  0  0  0  0  0  0  0  0  0  0
  186.5820  177.2870  145.9000 C   0  0  0  0  0  3  0  0  0  0  0  0
  190.3930  172.6580  143.8230 C   0  0  0  0  0  0  0  0  0  0  0  0
  189.2860  172.1780  143.6390 O   0  0  0  0  0  0  0  0  0  0  0  0
  191.8230  171.5850  143.8960 S   0  0  0  0  0  1  0  0  0  0  0  0
  191.3910  174.5310  141.6540 C   0  0  0  0  0  2  0  0  0  0  0  0
  193.8730  175.1290  142.4400 C   0  0  0  0  0  0  0  0  0  0  0  0
  192.7530  174.8580  142.0840 C   0  0  0  0  0  0  0  0  0  0  0  0
  196.1830  174.8530  142.3450 O   0  0  0  0  0  0  0  0  0  0  0  0
  195.2040  175.4510  142.8650 C   0  0  0  0  0  0  0  0  0  0  0  0
  195.3910  176.4260  143.8550 O   0  0  0  0  0  0  0  0  0  0  0  0
  193.4750  174.6640  146.2560 C   0  0  0  0  0  2  0  0  0  0  0  0
  193.5300  176.8990  145.3630 C   0  0  0  0  0  2  0  0  0  0  0  0
  194.9200  176.3130  145.1990 C   0  0  0  0  0  3  0  0  0  0  0  0
  194.8580  174.8670  145.6630 C   0  0  0  0  0  2  0  0  0  0  0  0
  192.8690  176.0430  146.4160 C   0  0  0  0  0  2  0  0  0  0  0  0
  1  6  1  0  0  0  0
  1  5  1  0  0  0  0
  2  7  1  0  0  0  0
  2 11  2  0  0  0  0
  4 13  1  0  0  0  0
  5 12  1  0  0  0  0
  6 17  1  6  0  0  0
  6 10  1  0  0  0  0
  7 12  1  6  0  0  0
  7  8  1  0  0  0  0
  8  9  1  0  0  0  0
  8  3  2  0  0  0  0
 10 14  1  6  0  0  0
 10  2  1  0  0  0  0
 11  3  1  0  0  0  0
 12  4  2  0  0  0  0
 13  9  2  0  0  0  0
 14 16  1  0  0  0  0
 15 14  2  0  0  0  0
 17 19  1  0  0  0  0
 18 21  1  0  0  0  0
 19 18  3  0  0  0  0
 20 21  2  0  0  0  0
 21 22  1  0  0  0  0
 22 25  1  0  0  0  0
 23 27  1  0  0  0  0
 24 27  1  0  0  0  0
 25 24  1  0  0  0  0
 25 26  1  0  0  0  0
 26 23  1  0  0  0  0
M  END
>  <MODEL>
5

>  <REMARK>
 VINA RESULT:      -6.8      2.922      4.500
  Name = 
  6 active torsions:
  status: ('A' for Active; 'I' for Inactive)
    1  A    between atoms: C_4  and  C_18
    2  A    between atoms: C_6  and  C_24
    3  A    between atoms: C_10  and  C_16
    4  A    between atoms: C_16  and  C_27
    5  A    between atoms: C_17  and  O_20
    6  A    between atoms: O_20  and  C_24
                            x       y       z     vdW  Elec       q    Type
                         _______ _______ _______ _____ _____    ______ ____

>  <TORSDO>
F 6

$$$$
=
 OpenBabel11062421083D

 27 30  0  0  1  0  0  0  0  0999 V2000
  189.5120  174.0660  144.5460 C   0  0  0  0  0  2  0  0  0  0  0  0
  191.8080  175.4250  143.0870 C   0  0  0  0  0  0  0  0  0  0  0  0
  193.9570  176.0810  143.3760 N   0  0  0  0  0  0  0  0  0  0  0  0
  192.0690  175.6530  146.7700 C   0  0  0  0  0  3  0  0  0  0  0  0
  190.1670  174.7280  145.6700 N   0  0  0  0  0  2  0  0  0  0  0  0
  189.3410  175.0040  143.3530 C   0  0  1  0  0  3  0  0  0  0  0  0
  191.8550  176.1810  144.3700 C   0  0  2  0  0  3  0  0  0  0  0  0
  193.3140  176.4690  144.4240 C   0  0  0  0  0  0  0  0  0  0  0  0
  193.9660  176.7920  145.6950 C   0  0  0  0  0  3  0  0  0  0  0  0
  190.5560  174.9410  142.4120 C   0  0  2  0  0  3  0  0  0  0  0  0
  193.0050  175.4710  142.5100 C   0  0  0  0  0  3  0  0  0  0  0  0
  191.4120  175.4370  145.6160 C   0  0  0  0  0  0  0  0  0  0  0  0
  193.3440  176.4160  146.8190 C   0  0  0  0  0  3  0  0  0  0  0  0
  190.7490  173.5920  141.7640 C   0  0  0  0  0  0  0  0  0  0  0  0
  191.1080  172.6270  142.4190 O   0  0  0  0  0  0  0  0  0  0  0  0
  190.4680  173.4140  140.0060 S   0  0  0  0  0  1  0  0  0  0  0  0
  188.0520  174.7020  142.6000 C   0  0  0  0  0  2  0  0  0  0  0  0
  186.5150  176.8830  142.4740 C   0  0  0  0  0  0  0  0  0  0  0  0
  187.2090  175.8990  142.5290 C   0  0  0  0  0  0  0  0  0  0  0  0
  184.6760  178.0590  141.6640 O   0  0  0  0  0  0  0  0  0  0  0  0
  185.6900  178.0550  142.4110 C   0  0  0  0  0  0  0  0  0  0  0  0
  186.0300  179.1760  143.1810 O   0  0  0  0  0  0  0  0  0  0  0  0
  185.4260  177.8780  146.4200 C   0  0  0  0  0  2  0  0  0  0  0  0
  184.1440  179.0010  144.7200 C   0  0  0  0  0  2  0  0  0  0  0  0
  185.5950  179.3950  144.5240 C   0  0  0  0  0  3  0  0  0  0  0  0
  186.4180  178.6030  145.5270 C   0  0  0  0  0  2  0  0  0  0  0  0
  184.0680  178.4860  146.1380 C   0  0  0  0  0  2  0  0  0  0  0  0
  1  5  1  0  0  0  0
  3  8  2  0  0  0  0
  4 13  1  0  0  0  0
  6 17  1  6  0  0  0
  6  1  1  0  0  0  0
  7  2  1  6  0  0  0
  7  8  1  0  0  0  0
  7 12  1  0  0  0  0
  8  9  1  0  0  0  0
  9 13  2  0  0  0  0
 10 14  1  1  0  0  0
 10  2  1  0  0  0  0
 10  6  1  0  0  0  0
 11  2  2  0  0  0  0
 11  3  1  0  0  0  0
 12  5  1  0  0  0  0
 12  4  2  0  0  0  0
 14 15  2  0  0  0  0
 16 14  1  0  0  0  0
 18 19  3  0  0  0  0
 19 17  1  0  0  0  0
 20 21  2  0  0  0  0
 21 18  1  0  0  0  0
 21 22  1  0  0  0  0
 22 25  1  0  0  0  0
 24 27  1  0  0  0  0
 25 24  1  0  0  0  0
 25 26  1  0  0  0  0
 26 23  1  0  0  0  0
 27 23  1  0  0  0  0
M  END
>  <MODEL>
6

>  <REMARK>
 VINA RESULT:      -6.7      2.327      6.967
  Name = 
  6 active torsions:
  status: ('A' for Active; 'I' for Inactive)
    1  A    between atoms: C_4  and  C_18
    2  A    between atoms: C_6  and  C_24
    3  A    between atoms: C_10  and  C_16
    4  A    between atoms: C_16  and  C_27
    5  A    between atoms: C_17  and  O_20
    6  A    between atoms: O_20  and  C_24
                            x       y       z     vdW  Elec       q    Type
                         _______ _______ _______ _____ _____    ______ ____

>  <TORSDO>
F 6

$$$$
=
 OpenBabel11062421083D

 27 30  0  0  1  0  0  0  0  0999 V2000
  189.6700  176.5440  146.4330 C   0  0  0  0  0  2  0  0  0  0  0  0
  187.4400  176.5020  144.3650 C   0  0  0  0  0  0  0  0  0  0  0  0
  185.5790  177.6310  143.7360 N   0  0  0  0  0  0  0  0  0  0  0  0
  186.5370  178.3150  147.4610 C   0  0  0  0  0  3  0  0  0  0  0  0
  188.5830  177.1140  147.2240 N   0  0  0  0  0  2  0  0  0  0  0  0
  189.2260  175.3000  145.6680 C   0  0  1  0  0  3  0  0  0  0  0  0
  186.6260  176.7030  145.5970 C   0  0  2  0  0  3  0  0  0  0  0  0
  185.5060  177.4940  145.0160 C   0  0  0  0  0  0  0  0  0  0  0  0
  184.6630  178.3340  145.8690 C   0  0  0  0  0  3  0  0  0  0  0  0
  188.6810  175.6620  144.2760 C   0  0  2  0  0  3  0  0  0  0  0  0
  186.7660  176.9650  143.3160 C   0  0  0  0  0  3  0  0  0  0  0  0
  187.2820  177.4650  146.7330 C   0  0  0  0  0  0  0  0  0  0  0  0
  185.1610  178.7030  147.0550 C   0  0  0  0  0  3  0  0  0  0  0  0
  189.7150  176.2750  143.3640 C   0  0  0  0  0  0  0  0  0  0  0  0
  190.1550  175.6560  142.4080 O   0  0  0  0  0  0  0  0  0  0  0  0
  190.3210  177.9240  143.7050 S   0  0  0  0  0  1  0  0  0  0  0  0
  190.3610  174.2880  145.5640 C   0  0  0  0  0  2  0  0  0  0  0  0
  192.6910  175.4410  146.1770 C   0  0  0  0  0  0  0  0  0  0  0  0
  191.6400  174.9190  145.9010 C   0  0  0  0  0  0  0  0  0  0  0  0
  193.9680  177.2920  146.7820 O   0  0  0  0  0  0  0  0  0  0  0  0
  193.9410  176.0630  146.5050 C   0  0  0  0  0  0  0  0  0  0  0  0
  195.1120  175.2910  146.5100 O   0  0  0  0  0  0  0  0  0  0  0  0
  197.9400  174.1640  144.7010 C   0  0  0  0  0  2  0  0  0  0  0  0
  196.0540  175.6010  144.2800 C   0  0  0  0  0  2  0  0  0  0  0  0
  195.6430  174.6240  145.3640 C   0  0  0  0  0  3  0  0  0  0  0  0
  196.8660  173.7880  145.7060 C   0  0  0  0  0  2  0  0  0  0  0  0
  197.2500  174.9630  143.6140 C   0  0  0  0  0  2  0  0  0  0  0  0
  1  5  1  0  0  0  0
  3  8  2  0  0  0  0
  6 17  1  6  0  0  0
  6  1  1  0  0  0  0
  7  2  1  6  0  0  0
  7 12  1  0  0  0  0
  8  7  1  0  0  0  0
  8  9  1  0  0  0  0
  9 13  2  0  0  0  0
 10 14  1  6  0  0  0
 10  2  1  0  0  0  0
 10  6  1  0  0  0  0
 11  3  1  0  0  0  0
 11  2  2  0  0  0  0
 12  5  1  0  0  0  0
 12  4  2  0  0  0  0
 13  4  1  0  0  0  0
 14 16  1  0  0  0  0
 15 14  2  0  0  0  0
 17 19  1  0  0  0  0
 18 21  1  0  0  0  0
 19 18  3  0  0  0  0
 21 22  1  0  0  0  0
 21 20  2  0  0  0  0
 23 26  1  0  0  0  0
 24 25  1  0  0  0  0
 25 26  1  0  0  0  0
 25 22  1  0  0  0  0
 27 24  1  0  0  0  0
 27 23  1  0  0  0  0
M  END
>  <MODEL>
7

>  <REMARK>
 VINA RESULT:      -6.7      2.526      3.614
  Name = 
  6 active torsions:
  status: ('A' for Active; 'I' for Inactive)
    1  A    between atoms: C_4  and  C_18
    2  A    between atoms: C_6  and  C_24
    3  A    between atoms: C_10  and  C_16
    4  A    between atoms: C_16  and  C_27
    5  A    between atoms: C_17  and  O_20
    6  A    between atoms: O_20  and  C_24
                            x       y       z     vdW  Elec       q    Type
                         _______ _______ _______ _____ _____    ______ ____

>  <TORSDO>
F 6

$$$$
=
 OpenBabel11062421083D

 27 30  0  0  1  0  0  0  0  0999 V2000
  189.5650  176.9070  143.3600 C   0  0  0  0  0  2  0  0  0  0  0  0
  189.8020  174.0630  144.4120 C   0  0  0  0  0  0  0  0  0  0  0  0
  190.3460  171.9650  143.7540 N   0  0  0  0  0  0  0  0  0  0  0  0
  189.3090  174.2370  140.7500 C   0  0  0  0  0  3  0  0  0  0  0  0
  189.2190  176.1620  142.1530 N   0  0  0  0  0  2  0  0  0  0  0  0
  188.8280  176.3770  144.5880 C   0  0  1  0  0  3  0  0  0  0  0  0
  189.0380  173.7960  143.1610 C   0  0  2  0  0  3  0  0  0  0  0  0
  189.5560  172.4360  142.8500 C   0  0  0  0  0  0  0  0  0  0  0  0
  189.4760  171.8980  141.4910 C   0  0  0  0  0  3  0  0  0  0  0  0
  189.6320  175.2690  145.2900 C   0  0  2  0  0  3  0  0  0  0  0  0
  190.4630  172.9630  144.7630 C   0  0  0  0  0  3  0  0  0  0  0  0
  189.2830  174.7380  141.9980 C   0  0  0  0  0  0  0  0  0  0  0  0
  189.3310  172.7740  140.4890 C   0  0  0  0  0  3  0  0  0  0  0  0
  190.9470  175.7460  145.8580 C   0  0  0  0  0  0  0  0  0  0  0  0
  191.8590  176.0910  145.1240 O   0  0  0  0  0  0  0  0  0  0  0  0
  191.1770  175.7820  147.6320 S   0  0  0  0  0  1  0  0  0  0  0  0
  188.4940  177.5060  145.5540 C   0  0  0  0  0  2  0  0  0  0  0  0
  185.9360  178.2280  145.2940 C   0  0  0  0  0  0  0  0  0  0  0  0
  187.0900  177.9010  145.4130 C   0  0  0  0  0  0  0  0  0  0  0  0
  183.8230  178.6660  146.1690 O   0  0  0  0  0  0  0  0  0  0  0  0
  184.5620  178.6160  145.1510 C   0  0  0  0  0  0  0  0  0  0  0  0
  184.0680  178.9320  143.8780 O   0  0  0  0  0  0  0  0  0  0  0  0
  184.8960  178.2910  140.4940 C   0  0  0  0  0  2  0  0  0  0  0  0
  182.8960  178.2900  141.8350 C   0  0  0  0  0  2  0  0  0  0  0  0
  184.0640  178.0330  142.7670 C   0  0  0  0  0  3  0  0  0  0  0  0
  185.3350  178.1400  141.9400 C   0  0  0  0  0  2  0  0  0  0  0  0
  183.4180  177.9600  140.4570 C   0  0  0  0  0  2  0  0  0  0  0  0
  1  6  1  0  0  0  0
  2 11  2  0  0  0  0
  2 10  1  0  0  0  0
  3 11  1  0  0  0  0
  4 12  2  0  0  0  0
  5  1  1  0  0  0  0
  6 10  1  0  0  0  0
  6 17  1  1  0  0  0
  7 12  1  6  0  0  0
  7  2  1  0  0  0  0
  8  7  1  0  0  0  0
  8  3  2  0  0  0  0
  9  8  1  0  0  0  0
 10 14  1  6  0  0  0
 12  5  1  0  0  0  0
 13  4  1  0  0  0  0
 13  9  2  0  0  0  0
 14 16  1  0  0  0  0
 15 14  2  0  0  0  0
 18 19  3  0  0  0  0
 19 17  1  0  0  0  0
 21 18  1  0  0  0  0
 21 20  2  0  0  0  0
 22 21  1  0  0  0  0
 23 26  1  0  0  0  0
 24 25  1  0  0  0  0
 25 22  1  0  0  0  0
 26 25  1  0  0  0  0
 27 23  1  0  0  0  0
 27 24  1  0  0  0  0
M  END
>  <MODEL>
8

>  <REMARK>
 VINA RESULT:      -6.5      3.072      7.770
  Name = 
  6 active torsions:
  status: ('A' for Active; 'I' for Inactive)
    1  A    between atoms: C_4  and  C_18
    2  A    between atoms: C_6  and  C_24
    3  A    between atoms: C_10  and  C_16
    4  A    between atoms: C_16  and  C_27
    5  A    between atoms: C_17  and  O_20
    6  A    between atoms: O_20  and  C_24
                            x       y       z     vdW  Elec       q    Type
                         _______ _______ _______ _____ _____    ______ ____

>  <TORSDO>
F 6

$$$$
=
 OpenBabel11062421083D

 27 30  0  0  1  0  0  0  0  0999 V2000
  188.0530  177.3820  146.8920 C   0  0  0  0  0  2  0  0  0  0  0  0
  187.5410  177.1870  143.9000 C   0  0  0  0  0  0  0  0  0  0  0  0
  186.3300  178.1390  142.2390 N   0  0  0  0  0  0  0  0  0  0  0  0
  184.7710  178.7820  145.7630 C   0  0  0  0  0  3  0  0  0  0  0  0
  186.6570  177.8080  146.8470 N   0  0  0  0  0  2  0  0  0  0  0  0
  188.2930  176.1280  146.0560 C   0  0  1  0  0  3  0  0  0  0  0  0
  186.1330  177.2570  144.3830 C   0  0  2  0  0  3  0  0  0  0  0  0
  185.5150  177.9490  143.2200 C   0  0  0  0  0  0  0  0  0  0  0  0
  184.2470  178.6660  143.3630 C   0  0  0  0  0  3  0  0  0  0  0  0
  188.6640  176.4830  144.6050 C   0  0  2  0  0  3  0  0  0  0  0  0
  187.5920  177.6150  142.6420 C   0  0  0  0  0  3  0  0  0  0  0  0
  185.8880  178.0400  145.6600 C   0  0  0  0  0  0  0  0  0  0  0  0
  183.8860  179.0400  144.5960 C   0  0  0  0  0  3  0  0  0  0  0  0
  189.9680  177.2320  144.4820 C   0  0  0  0  0  0  0  0  0  0  0  0
  190.1400  178.2910  145.0650 O   0  0  0  0  0  0  0  0  0  0  0  0
  191.2680  176.5700  143.4470 S   0  0  0  0  0  1  0  0  0  0  0  0
  189.3590  175.2430  146.6900 C   0  0  0  0  0  2  0  0  0  0  0  0
  190.0680  173.2860  145.0160 C   0  0  0  0  0  0  0  0  0  0  0  0
  189.7460  174.1690  145.7710 C   0  0  0  0  0  0  0  0  0  0  0  0
  189.5620  171.5860  143.5080 O   0  0  0  0  0  0  0  0  0  0  0  0
  190.4520  172.2350  144.1190 C   0  0  0  0  0  0  0  0  0  0  0  0
  191.8130  171.9470  143.9410 O   0  0  0  0  0  0  0  0  0  0  0  0
  195.2090  172.8750  143.5560 C   0  0  0  0  0  2  0  0  0  0  0  0
  193.7390  172.3420  145.3870 C   0  0  0  0  0  2  0  0  0  0  0  0
  192.8760  172.8510  144.2490 C   0  0  0  0  0  3  0  0  0  0  0  0
  193.7900  173.0850  143.0580 C   0  0  0  0  0  2  0  0  0  0  0  0
  195.1320  172.8320  145.0680 C   0  0  0  0  0  2  0  0  0  0  0  0
  2  7  1  0  0  0  0
  2 10  1  0  0  0  0
  3 11  1  0  0  0  0
  3  8  2  0  0  0  0
  5  1  1  0  0  0  0
  6 17  1  1  0  0  0
  6  1  1  0  0  0  0
  7  8  1  6  0  0  0
  7 12  1  0  0  0  0
  8  9  1  0  0  0  0
  9 13  2  0  0  0  0
 10 14  1  1  0  0  0
 10  6  1  0  0  0  0
 11  2  2  0  0  0  0
 12  4  2  0  0  0  0
 12  5  1  0  0  0  0
 13  4  1  0  0  0  0
 14 15  2  0  0  0  0
 16 14  1  0  0  0  0
 18 19  3  0  0  0  0
 19 17  1  0  0  0  0
 20 21  2  0  0  0  0
 21 18  1  0  0  0  0
 22 21  1  0  0  0  0
 22 25  1  0  0  0  0
 23 27  1  0  0  0  0
 25 24  1  0  0  0  0
 26 23  1  0  0  0  0
 26 25  1  0  0  0  0
 27 24  1  0  0  0  0
M  END
>  <MODEL>
9

>  <REMARK>
 VINA RESULT:      -6.5      2.338      3.189
  Name = 
  6 active torsions:
  status: ('A' for Active; 'I' for Inactive)
    1  A    between atoms: C_4  and  C_18
    2  A    between atoms: C_6  and  C_24
    3  A    between atoms: C_10  and  C_16
    4  A    between atoms: C_16  and  C_27
    5  A    between atoms: C_17  and  O_20
    6  A    between atoms: O_20  and  C_24
                            x       y       z     vdW  Elec       q    Type
                         _______ _______ _______ _____ _____    ______ ____

>  <TORSDO>
F 6

$$$$
