=
 OpenBabel11062420553D

 31 32  0  0  1  0  0  0  0  0999 V2000
  185.8370  178.2970  144.3660 C   0  0  2  0  0  3  0  0  0  0  0  0
  185.8700  177.2660  145.4870 C   0  0  2  0  0  3  0  0  0  0  0  0
  184.9340  177.6540  146.5590 N   0  0  0  0  0  0  0  0  0  0  0  0
  185.5910  178.3340  147.6710 C   0  0  0  0  0  1  0  0  0  0  0  0
  184.8310  179.3250  144.8370 C   0  0  0  0  0  2  0  0  0  0  0  0
  184.0550  178.6390  145.9470 C   0  0  0  0  0  2  0  0  0  0  0  0
  184.0390  178.2120  142.7100 N   0  0  0  0  0  2  0  0  0  0  0  0
  185.3370  177.6620  143.0640 C   0  0  1  0  0  3  0  0  0  0  0  0
  186.4820  177.9460  141.6710 S   0  0  0  0  0  0  0  0  0  0  0  0
  183.8130  177.8310  141.3250 C   0  0  2  0  0  3  0  0  0  0  0  0
  185.0770  178.1170  140.5400 C   0  0  0  0  0  2  0  0  0  0  0  0
  182.6550  178.6240  140.7350 C   0  0  0  0  0  2  0  0  0  0  0  0
  181.3370  178.2650  141.4060 C   0  0  0  0  0  2  0  0  0  0  0  0
  180.2070  178.2860  140.3940 C   0  0  0  0  0  2  0  0  0  0  0  0
  178.9780  178.2650  141.0530 O   0  0  0  0  0  0  0  0  0  0  0  0
  179.2690  178.7160  142.3400 C   0  0  0  0  0  1  0  0  0  0  0  0
  187.3940  176.0680  146.8270 O   0  0  0  0  0  0  0  0  0  0  0  0
  187.2640  176.8760  145.9210 C   0  0  0  0  0  0  0  0  0  0  0  0
  188.4800  177.5120  145.3040 C   0  0  0  0  0  2  0  0  0  0  0  0
  188.5690  175.6450  143.7760 N   0  0  0  0  0  0  0  0  0  0  0  0
  189.2300  176.5880  144.3950 C   0  0  0  0  0  0  0  0  0  0  0  0
  189.0460  174.5920  142.9240 C   0  0  0  0  0  0  0  0  0  0  0  0
  188.9810  174.7770  141.4500 C   0  0  0  0  0  1  0  0  0  0  0  0
  189.5160  173.5170  143.3840 O   0  0  0  0  0  0  0  0  0  0  0  0
  191.1110  177.9610  143.8880 O   0  0  0  0  0  1  0  0  0  0  0  0
  190.7310  176.7170  144.3960 C   0  0  1  0  0  3  0  0  0  0  0  0
  191.3850  176.4420  145.7540 C   0  0  0  0  0  3  0  0  0  0  0  0
  192.9030  176.5320  145.6220 C   0  0  0  0  0  2  0  0  0  0  0  0
  193.4870  176.6850  146.8800 O   0  0  0  0  0  1  0  0  0  0  0  0
  190.5280  175.1420  147.5760 O   0  0  0  0  0  1  0  0  0  0  0  0
  191.0000  175.0580  146.2660 C   0  0  0  0  0  2  0  0  0  0  0  0
  1  5  1  1  0  0  0
  1  2  1  0  0  0  0
  2 18  1  1  0  0  0
  2  3  1  0  0  0  0
  3  4  1  0  0  0  0
  5  6  1  0  0  0  0
  6  3  1  0  0  0  0
  7  8  1  0  0  0  0
  8  9  1  6  0  0  0
  8  1  1  0  0  0  0
 10 12  1  6  0  0  0
 10  7  1  0  0  0  0
 11 10  1  0  0  0  0
 11  9  1  0  0  0  0
 12 13  1  0  0  0  0
 14 15  1  0  0  0  0
 14 13  1  0  0  0  0
 15 16  1  0  0  0  0
 18 17  2  0  0  0  0
 19 18  1  0  0  0  0
 20 21  2  0  0  0  0
 21 26  1  0  0  0  0
 21 19  1  0  0  0  0
 22 24  2  0  0  0  0
 22 20  1  0  0  0  0
 23 22  1  0  0  0  0
 26 25  1  1  0  0  0
 26 27  1  0  0  0  0
 27 31  1  0  0  0  0
 28 27  1  0  0  0  0
 28 29  1  0  0  0  0
 31 30  1  0  0  0  0
M  END
>  <MODEL>
1

>  <REMARK>
 VINA RESULT:      -6.3      0.000      0.000
  Name = 
  13 active torsions:
  status: ('A' for Active; 'I' for Inactive)
    1  A    between atoms: C_1  and  O_11
    2  A    between atoms: C_1  and  C_15
    3  A    between atoms: C_2  and  N_13
    4  A    between atoms: C_4  and  C_14
    5  A    between atoms: C_5  and  C_15
    6  A    between atoms: C_5  and  C_20
    7  A    between atoms: C_6  and  C_30
    8  A    between atoms: C_7  and  C_17
    9  A    between atoms: C_17  and  C_31
   10  A    between atoms: C_19  and  C_22
   11  A    between atoms: C_19  and  C_31
   12  A    between atoms: C_22  and  C_30
   13  A    between atoms: C_29  and  C_30
                            x       y       z     vdW  Elec       q    Type
                         _______ _______ _______ _____ _____    ______ ____

>  <TORSDO>
F 13

$$$$
=
 OpenBabel11062420553D

 31 32  0  0  1  0  0  0  0  0999 V2000
  189.3870  176.9280  145.1950 C   0  0  2  0  0  3  0  0  0  0  0  0
  189.9760  175.5440  145.4350 C   0  0  2  0  0  3  0  0  0  0  0  0
  189.5590  175.0380  146.7570 N   0  0  0  0  0  0  0  0  0  0  0  0
  190.5710  175.2380  147.7880 C   0  0  0  0  0  1  0  0  0  0  0  0
  188.5990  177.2190  146.4540 C   0  0  0  0  0  2  0  0  0  0  0  0
  188.4280  175.8730  147.1340 C   0  0  0  0  0  2  0  0  0  0  0  0
  187.3570  177.8650  144.2030 N   0  0  0  0  0  2  0  0  0  0  0  0
  188.4320  176.9070  143.9970 C   0  0  1  0  0  3  0  0  0  0  0  0
  189.2750  177.3160  142.4320 S   0  0  0  0  0  0  0  0  0  0  0  0
  186.7220  178.0300  142.9050 C   0  0  2  0  0  3  0  0  0  0  0  0
  187.8060  178.2110  141.8630 C   0  0  0  0  0  2  0  0  0  0  0  0
  185.8090  179.2480  142.9090 C   0  0  0  0  0  2  0  0  0  0  0  0
  185.4430  179.6630  144.3280 C   0  0  0  0  0  2  0  0  0  0  0  0
  184.1600  178.9800  144.7620 C   0  0  0  0  0  2  0  0  0  0  0  0
  184.1360  178.8520  146.1500 O   0  0  0  0  0  0  0  0  0  0  0  0
  184.5150  177.5300  146.3820 C   0  0  0  0  0  1  0  0  0  0  0  0
  191.9630  174.3330  145.0610 O   0  0  0  0  0  0  0  0  0  0  0  0
  191.4480  175.4390  145.1100 C   0  0  0  0  0  0  0  0  0  0  0  0
  192.2930  176.6680  144.9110 C   0  0  0  0  0  2  0  0  0  0  0  0
  193.1370  176.2050  142.6960 N   0  0  0  0  0  0  0  0  0  0  0  0
  193.4200  176.4580  143.9470 C   0  0  0  0  0  0  0  0  0  0  0  0
  194.0070  175.8900  141.5990 C   0  0  0  0  0  0  0  0  0  0  0  0
  194.0460  174.4930  141.0920 C   0  0  0  0  0  1  0  0  0  0  0  0
  194.7390  176.7590  141.0520 O   0  0  0  0  0  0  0  0  0  0  0  0
  194.8200  176.9710  145.8060 O   0  0  0  0  0  1  0  0  0  0  0  0
  194.8050  176.3890  144.5370 C   0  0  1  0  0  3  0  0  0  0  0  0
  195.4100  174.9810  144.5590 C   0  0  0  0  0  3  0  0  0  0  0  0
  195.5300  174.4950  146.0010 C   0  0  0  0  0  2  0  0  0  0  0  0
  196.7830  173.9180  146.2110 O   0  0  0  0  0  1  0  0  0  0  0  0
  197.0670  176.2350  143.3660 O   0  0  0  0  0  1  0  0  0  0  0  0
  196.7870  174.9780  143.9040 C   0  0  0  0  0  2  0  0  0  0  0  0
  1  2  1  0  0  0  0
  1  5  1  1  0  0  0
  2 18  1  1  0  0  0
  2  3  1  0  0  0  0
  3  6  1  0  0  0  0
  3  4  1  0  0  0  0
  5  6  1  0  0  0  0
  8  9  1  6  0  0  0
  8  7  1  0  0  0  0
  8  1  1  0  0  0  0
 10 12  1  1  0  0  0
 10  7  1  0  0  0  0
 11  9  1  0  0  0  0
 11 10  1  0  0  0  0
 12 13  1  0  0  0  0
 13 14  1  0  0  0  0
 14 15  1  0  0  0  0
 15 16  1  0  0  0  0
 17 18  2  0  0  0  0
 19 18  1  0  0  0  0
 20 21  2  0  0  0  0
 21 26  1  0  0  0  0
 21 19  1  0  0  0  0
 22 20  1  0  0  0  0
 23 22  1  0  0  0  0
 24 22  2  0  0  0  0
 26 27  1  0  0  0  0
 26 25  1  1  0  0  0
 27 28  1  0  0  0  0
 28 29  1  0  0  0  0
 30 31  1  0  0  0  0
 31 27  1  0  0  0  0
M  END
>  <MODEL>
2

>  <REMARK>
 VINA RESULT:      -6.0      3.141      4.958
  Name = 
  13 active torsions:
  status: ('A' for Active; 'I' for Inactive)
    1  A    between atoms: C_1  and  O_11
    2  A    between atoms: C_1  and  C_15
    3  A    between atoms: C_2  and  N_13
    4  A    between atoms: C_4  and  C_14
    5  A    between atoms: C_5  and  C_15
    6  A    between atoms: C_5  and  C_20
    7  A    between atoms: C_6  and  C_30
    8  A    between atoms: C_7  and  C_17
    9  A    between atoms: C_17  and  C_31
   10  A    between atoms: C_19  and  C_22
   11  A    between atoms: C_19  and  C_31
   12  A    between atoms: C_22  and  C_30
   13  A    between atoms: C_29  and  C_30
                            x       y       z     vdW  Elec       q    Type
                         _______ _______ _______ _____ _____    ______ ____

>  <TORSDO>
F 13

$$$$
=
 OpenBabel11062420553D

 31 32  0  0  1  0  0  0  0  0999 V2000
  185.6990  178.3360  144.2720 C   0  0  2  0  0  3  0  0  0  0  0  0
  186.1560  177.2440  145.2310 C   0  0  2  0  0  3  0  0  0  0  0  0
  185.4020  177.3330  146.4950 N   0  0  0  0  0  0  0  0  0  0  0  0
  186.1290  178.0390  147.5440 C   0  0  0  0  0  1  0  0  0  0  0  0
  184.6330  179.0840  145.0420 C   0  0  0  0  0  2  0  0  0  0  0  0
  184.2450  178.1590  146.1810 C   0  0  0  0  0  2  0  0  0  0  0  0
  183.7810  178.3310  142.7550 N   0  0  0  0  0  2  0  0  0  0  0  0
  185.0760  177.7230  143.0140 C   0  0  1  0  0  3  0  0  0  0  0  0
  186.1250  177.9520  141.5380 S   0  0  0  0  0  0  0  0  0  0  0  0
  183.4350  177.9590  141.3920 C   0  0  2  0  0  3  0  0  0  0  0  0
  184.6490  178.1860  140.5140 C   0  0  0  0  0  2  0  0  0  0  0  0
  182.2740  178.8040  140.8870 C   0  0  0  0  0  2  0  0  0  0  0  0
  181.1530  178.8790  141.9140 C   0  0  0  0  0  2  0  0  0  0  0  0
  179.8500  179.2750  141.2450 C   0  0  0  0  0  2  0  0  0  0  0  0
  179.3720  178.2170  140.4720 O   0  0  0  0  0  0  0  0  0  0  0  0
  178.5830  177.4760  141.3510 C   0  0  0  0  0  1  0  0  0  0  0  0
  188.3630  177.9470  144.7940 O   0  0  0  0  0  0  0  0  0  0  0  0
  187.6570  177.1220  145.3520 C   0  0  0  0  0  0  0  0  0  0  0  0
  188.2900  175.9730  146.0890 C   0  0  0  0  0  2  0  0  0  0  0  0
  190.6380  176.5320  146.0180 N   0  0  0  0  0  0  0  0  0  0  0  0
  189.6970  175.6990  145.6570 C   0  0  0  0  0  0  0  0  0  0  0  0
  192.0330  176.5500  145.6800 C   0  0  0  0  0  0  0  0  0  0  0  0
  192.9880  175.7990  146.5370 C   0  0  0  0  0  1  0  0  0  0  0  0
  192.4740  177.1810  144.6830 O   0  0  0  0  0  0  0  0  0  0  0  0
  189.6390  173.3400  145.3170 O   0  0  0  0  0  1  0  0  0  0  0  0
  189.8930  174.5610  144.6880 C   0  0  1  0  0  3  0  0  0  0  0  0
  189.0940  174.6980  143.3870 C   0  0  0  0  0  3  0  0  0  0  0  0
  188.9780  173.3360  142.7080 C   0  0  0  0  0  2  0  0  0  0  0  0
  188.4250  173.4780  141.4360 O   0  0  0  0  0  1  0  0  0  0  0  0
  191.1130  175.3290  142.2600 O   0  0  0  0  0  1  0  0  0  0  0  0
  189.7750  175.6820  142.4410 C   0  0  0  0  0  2  0  0  0  0  0  0
  1  5  1  1  0  0  0
  1  2  1  0  0  0  0
  2 18  1  1  0  0  0
  2  3  1  0  0  0  0
  3  4  1  0  0  0  0
  5  6  1  0  0  0  0
  6  3  1  0  0  0  0
  7  8  1  0  0  0  0
  8  9  1  6  0  0  0
  8  1  1  0  0  0  0
 10 12  1  6  0  0  0
 10  7  1  0  0  0  0
 11 10  1  0  0  0  0
 11  9  1  0  0  0  0
 12 13  1  0  0  0  0
 14 13  1  0  0  0  0
 15 14  1  0  0  0  0
 15 16  1  0  0  0  0
 17 18  2  0  0  0  0
 18 19  1  0  0  0  0
 21 20  2  0  0  0  0
 21 19  1  0  0  0  0
 22 20  1  0  0  0  0
 22 23  1  0  0  0  0
 24 22  2  0  0  0  0
 26 25  1  1  0  0  0
 26 21  1  0  0  0  0
 27 26  1  0  0  0  0
 28 27  1  0  0  0  0
 29 28  1  0  0  0  0
 30 31  1  0  0  0  0
 31 27  1  0  0  0  0
M  END
>  <MODEL>
3

>  <REMARK>
 VINA RESULT:      -5.9      1.409      3.162
  Name = 
  13 active torsions:
  status: ('A' for Active; 'I' for Inactive)
    1  A    between atoms: C_1  and  O_11
    2  A    between atoms: C_1  and  C_15
    3  A    between atoms: C_2  and  N_13
    4  A    between atoms: C_4  and  C_14
    5  A    between atoms: C_5  and  C_15
    6  A    between atoms: C_5  and  C_20
    7  A    between atoms: C_6  and  C_30
    8  A    between atoms: C_7  and  C_17
    9  A    between atoms: C_17  and  C_31
   10  A    between atoms: C_19  and  C_22
   11  A    between atoms: C_19  and  C_31
   12  A    between atoms: C_22  and  C_30
   13  A    between atoms: C_29  and  C_30
                            x       y       z     vdW  Elec       q    Type
                         _______ _______ _______ _____ _____    ______ ____

>  <TORSDO>
F 13

$$$$
=
 OpenBabel11062420553D

 31 32  0  0  1  0  0  0  0  0999 V2000
  191.2460  174.6740  145.7830 C   0  0  2  0  0  3  0  0  0  0  0  0
  190.6630  176.0560  146.0430 C   0  0  2  0  0  3  0  0  0  0  0  0
  191.6140  176.8680  146.8260 N   0  0  0  0  0  0  0  0  0  0  0  0
  191.3110  176.8820  148.2530 C   0  0  0  0  0  1  0  0  0  0  0  0
  192.5980  174.7070  146.4620 C   0  0  0  0  0  2  0  0  0  0  0  0
  192.8890  176.1790  146.6910 C   0  0  0  0  0  2  0  0  0  0  0  0
  190.4350  173.5210  143.7840 N   0  0  0  0  0  2  0  0  0  0  0  0
  191.4430  174.4440  144.2810 C   0  0  1  0  0  3  0  0  0  0  0  0
  191.3270  175.9930  143.3220 S   0  0  0  0  0  0  0  0  0  0  0  0
  190.4750  173.6360  142.3350 C   0  0  2  0  0  3  0  0  0  0  0  0
  190.5020  175.1070  141.9740 C   0  0  0  0  0  2  0  0  0  0  0  0
  189.2500  172.9800  141.7140 C   0  0  0  0  0  2  0  0  0  0  0  0
  189.6250  172.1290  140.5090 C   0  0  0  0  0  2  0  0  0  0  0  0
  189.4300  172.9150  139.2260 C   0  0  0  0  0  2  0  0  0  0  0  0
  188.2900  173.7120  139.3270 O   0  0  0  0  0  0  0  0  0  0  0  0
  188.1520  174.2790  138.0600 C   0  0  0  0  0  1  0  0  0  0  0  0
  188.7730  174.9930  146.9670 O   0  0  0  0  0  0  0  0  0  0  0  0
  189.2340  176.0370  146.5340 C   0  0  0  0  0  0  0  0  0  0  0  0
  188.3600  177.2580  146.4380 C   0  0  0  0  0  2  0  0  0  0  0  0
  188.0190  177.3750  144.0500 N   0  0  0  0  0  0  0  0  0  0  0  0
  187.4720  177.2540  145.2310 C   0  0  0  0  0  0  0  0  0  0  0  0
  187.4050  177.4790  142.7560 C   0  0  0  0  0  0  0  0  0  0  0  0
  187.0030  176.2330  142.0510 C   0  0  0  0  0  1  0  0  0  0  0  0
  187.1980  178.5900  142.1990 O   0  0  0  0  0  0  0  0  0  0  0  0
  185.6670  176.4270  146.5500 O   0  0  0  0  0  1  0  0  0  0  0  0
  185.9880  177.2770  145.4890 C   0  0  1  0  0  3  0  0  0  0  0  0
  185.4080  178.6800  145.7000 C   0  0  0  0  0  3  0  0  0  0  0  0
  185.0930  178.8900  147.1790 C   0  0  0  0  0  2  0  0  0  0  0  0
  186.0940  179.6550  147.7800 O   0  0  0  0  0  1  0  0  0  0  0  0
  184.2330  178.1600  143.6780 O   0  0  0  0  0  1  0  0  0  0  0  0
  184.1370  178.8650  144.8780 C   0  0  0  0  0  2  0  0  0  0  0  0
  1  2  1  0  0  0  0
  1  5  1  1  0  0  0
  2 18  1  1  0  0  0
  2  3  1  0  0  0  0
  3  4  1  0  0  0  0
  5  6  1  0  0  0  0
  6  3  1  0  0  0  0
  7  8  1  0  0  0  0
  8  9  1  6  0  0  0
  8  1  1  0  0  0  0
 10 12  1  6  0  0  0
 10  7  1  0  0  0  0
 11 10  1  0  0  0  0
 11  9  1  0  0  0  0
 13 12  1  0  0  0  0
 14 15  1  0  0  0  0
 14 13  1  0  0  0  0
 16 15  1  0  0  0  0
 18 17  2  0  0  0  0
 19 18  1  0  0  0  0
 20 21  2  0  0  0  0
 21 26  1  0  0  0  0
 21 19  1  0  0  0  0
 22 20  1  0  0  0  0
 23 22  1  0  0  0  0
 24 22  2  0  0  0  0
 26 27  1  0  0  0  0
 26 25  1  1  0  0  0
 27 28  1  0  0  0  0
 28 29  1  0  0  0  0
 30 31  1  0  0  0  0
 31 27  1  0  0  0  0
M  END
>  <MODEL>
4

>  <REMARK>
 VINA RESULT:      -5.9      3.229      7.009
  Name = 
  13 active torsions:
  status: ('A' for Active; 'I' for Inactive)
    1  A    between atoms: C_1  and  O_11
    2  A    between atoms: C_1  and  C_15
    3  A    between atoms: C_2  and  N_13
    4  A    between atoms: C_4  and  C_14
    5  A    between atoms: C_5  and  C_15
    6  A    between atoms: C_5  and  C_20
    7  A    between atoms: C_6  and  C_30
    8  A    between atoms: C_7  and  C_17
    9  A    between atoms: C_17  and  C_31
   10  A    between atoms: C_19  and  C_22
   11  A    between atoms: C_19  and  C_31
   12  A    between atoms: C_22  and  C_30
   13  A    between atoms: C_29  and  C_30
                            x       y       z     vdW  Elec       q    Type
                         _______ _______ _______ _____ _____    ______ ____

>  <TORSDO>
F 13

$$$$
=
 OpenBabel11062420553D

 31 32  0  0  1  0  0  0  0  0999 V2000
  191.3740  174.0370  145.1230 C   0  0  2  0  0  3  0  0  0  0  0  0
  190.9010  175.4510  144.8130 C   0  0  2  0  0  3  0  0  0  0  0  0
  191.8810  176.1340  143.9480 N   0  0  0  0  0  0  0  0  0  0  0  0
  192.7890  177.0020  144.6900 C   0  0  0  0  0  1  0  0  0  0  0  0
  192.6970  173.9200  144.3980 C   0  0  0  0  0  2  0  0  0  0  0  0
  192.7030  175.0650  143.4010 C   0  0  0  0  0  2  0  0  0  0  0  0
  189.5420  173.6240  143.5550 N   0  0  0  0  0  2  0  0  0  0  0  0
  190.3950  173.0030  144.5560 C   0  0  1  0  0  3  0  0  0  0  0  0
  191.2510  171.5880  143.7850 S   0  0  0  0  0  0  0  0  0  0  0  0
  188.9100  172.5270  142.8400 C   0  0  2  0  0  3  0  0  0  0  0  0
  189.9740  171.5020  142.5030 C   0  0  0  0  0  2  0  0  0  0  0  0
  188.2610  173.0300  141.5580 C   0  0  0  0  0  2  0  0  0  0  0  0
  189.1400  174.0560  140.8560 C   0  0  0  0  0  2  0  0  0  0  0  0
  189.4340  173.6150  139.4340 C   0  0  0  0  0  2  0  0  0  0  0  0
  188.2430  173.3100  138.7760 O   0  0  0  0  0  0  0  0  0  0  0  0
  188.0000  174.4200  137.9680 C   0  0  0  0  0  1  0  0  0  0  0  0
  190.7350  175.8200  147.1340 O   0  0  0  0  0  0  0  0  0  0  0  0
  190.4240  176.2190  146.0230 C   0  0  0  0  0  0  0  0  0  0  0  0
  189.5260  177.4180  145.8830 C   0  0  0  0  0  2  0  0  0  0  0  0
  188.2420  177.3390  143.8390 N   0  0  0  0  0  0  0  0  0  0  0  0
  188.2650  177.1250  145.1290 C   0  0  0  0  0  0  0  0  0  0  0  0
  187.1580  177.2210  142.9050 C   0  0  0  0  0  0  0  0  0  0  0  0
  186.5230  178.4590  142.3830 C   0  0  0  0  0  1  0  0  0  0  0  0
  186.7280  176.1030  142.5140 O   0  0  0  0  0  0  0  0  0  0  0  0
  187.4440  176.0220  147.0760 O   0  0  0  0  0  1  0  0  0  0  0  0
  187.0590  176.7590  145.9540 C   0  0  1  0  0  3  0  0  0  0  0  0
  186.1780  177.9520  146.3420 C   0  0  0  0  0  3  0  0  0  0  0  0
  186.0880  178.0520  147.8630 C   0  0  0  0  0  2  0  0  0  0  0  0
  186.8820  179.1030  148.3230 O   0  0  0  0  0  1  0  0  0  0  0  0
  184.0920  179.0100  145.8210 O   0  0  0  0  0  1  0  0  0  0  0  0
  184.7770  177.7970  145.7590 C   0  0  0  0  0  2  0  0  0  0  0  0
  1  5  1  6  0  0  0
  2  1  1  0  0  0  0
  2 18  1  1  0  0  0
  3  4  1  0  0  0  0
  3  2  1  0  0  0  0
  6  3  1  0  0  0  0
  6  5  1  0  0  0  0
  8  7  1  6  0  0  0
  8  1  1  0  0  0  0
  9  8  1  0  0  0  0
 10 12  1  6  0  0  0
 10  7  1  0  0  0  0
 11 10  1  0  0  0  0
 11  9  1  0  0  0  0
 13 12  1  0  0  0  0
 14 13  1  0  0  0  0
 15 14  1  0  0  0  0
 16 15  1  0  0  0  0
 18 17  2  0  0  0  0
 19 18  1  0  0  0  0
 20 21  2  0  0  0  0
 21 19  1  0  0  0  0
 21 26  1  0  0  0  0
 22 20  1  0  0  0  0
 23 22  1  0  0  0  0
 24 22  2  0  0  0  0
 26 27  1  0  0  0  0
 26 25  1  1  0  0  0
 27 28  1  0  0  0  0
 28 29  1  0  0  0  0
 31 30  1  0  0  0  0
 31 27  1  0  0  0  0
M  END
>  <MODEL>
5

>  <REMARK>
 VINA RESULT:      -5.8      3.452      7.000
  Name = 
  13 active torsions:
  status: ('A' for Active; 'I' for Inactive)
    1  A    between atoms: C_1  and  O_11
    2  A    between atoms: C_1  and  C_15
    3  A    between atoms: C_2  and  N_13
    4  A    between atoms: C_4  and  C_14
    5  A    between atoms: C_5  and  C_15
    6  A    between atoms: C_5  and  C_20
    7  A    between atoms: C_6  and  C_30
    8  A    between atoms: C_7  and  C_17
    9  A    between atoms: C_17  and  C_31
   10  A    between atoms: C_19  and  C_22
   11  A    between atoms: C_19  and  C_31
   12  A    between atoms: C_22  and  C_30
   13  A    between atoms: C_29  and  C_30
                            x       y       z     vdW  Elec       q    Type
                         _______ _______ _______ _____ _____    ______ ____

>  <TORSDO>
F 13

$$$$
=
 OpenBabel11062420553D

 31 32  0  0  1  0  0  0  0  0999 V2000
  188.4820  174.5970  142.3220 C   0  0  2  0  0  3  0  0  0  0  0  0
  189.7140  174.4290  141.4430 C   0  0  2  0  0  3  0  0  0  0  0  0
  189.6020  173.1940  140.6440 N   0  0  0  0  0  0  0  0  0  0  0  0
  190.3260  172.0700  141.2280 C   0  0  0  0  0  1  0  0  0  0  0  0
  187.6320  173.3860  142.0050 C   0  0  0  0  0  2  0  0  0  0  0  0
  188.1920  172.8400  140.7040 C   0  0  0  0  0  2  0  0  0  0  0  0
  186.5240  175.9940  142.7650 N   0  0  0  0  0  2  0  0  0  0  0  0
  187.7150  175.8660  141.9400 C   0  0  1  0  0  3  0  0  0  0  0  0
  188.7210  177.3740  142.1440 S   0  0  0  0  0  0  0  0  0  0  0  0
  186.0650  177.3620  142.5850 C   0  0  2  0  0  3  0  0  0  0  0  0
  187.2590  178.2860  142.7040 C   0  0  0  0  0  2  0  0  0  0  0  0
  185.0340  177.7220  143.6470 C   0  0  0  0  0  2  0  0  0  0  0  0
  185.5870  178.7370  144.6380 C   0  0  0  0  0  2  0  0  0  0  0  0
  184.9040  178.5860  145.9840 C   0  0  0  0  0  2  0  0  0  0  0  0
  185.0770  177.2870  146.4620 O   0  0  0  0  0  0  0  0  0  0  0  0
  185.9400  177.4310  147.5480 C   0  0  0  0  0  1  0  0  0  0  0  0
  192.0180  174.9200  141.5220 O   0  0  0  0  0  0  0  0  0  0  0  0
  191.0220  174.6410  142.1700 C   0  0  0  0  0  0  0  0  0  0  0  0
  191.1260  174.4520  143.6600 C   0  0  0  0  0  2  0  0  0  0  0  0
  193.3900  175.0720  144.2260 N   0  0  0  0  0  0  0  0  0  0  0  0
  192.1200  175.3710  144.3020 C   0  0  0  0  0  0  0  0  0  0  0  0
  194.5270  175.7250  144.8110 C   0  0  0  0  0  0  0  0  0  0  0  0
  194.9940  175.2870  146.1530 C   0  0  0  0  0  1  0  0  0  0  0  0
  195.1400  176.6570  144.2250 O   0  0  0  0  0  0  0  0  0  0  0  0
  191.5440  177.6820  144.4040 O   0  0  0  0  0  1  0  0  0  0  0  0
  191.5560  176.4920  145.1360 C   0  0  1  0  0  3  0  0  0  0  0  0
  190.1810  176.1940  145.7440 C   0  0  0  0  0  3  0  0  0  0  0  0
  189.4050  177.4960  145.9230 C   0  0  0  0  0  2  0  0  0  0  0  0
  189.4400  177.8970  147.2590 O   0  0  0  0  0  1  0  0  0  0  0  0
  189.3220  174.5500  147.2610 O   0  0  0  0  0  1  0  0  0  0  0  0
  190.3300  175.5000  147.0940 C   0  0  0  0  0  2  0  0  0  0  0  0
  1  5  1  6  0  0  0
  2 18  1  1  0  0  0
  2  1  1  0  0  0  0
  3  6  1  0  0  0  0
  3  4  1  0  0  0  0
  3  2  1  0  0  0  0
  6  5  1  0  0  0  0
  8  9  1  1  0  0  0
  8  1  1  0  0  0  0
  8  7  1  0  0  0  0
  9 11  1  0  0  0  0
 10 11  1  0  0  0  0
 10  7  1  0  0  0  0
 10 12  1  1  0  0  0
 12 13  1  0  0  0  0
 13 14  1  0  0  0  0
 14 15  1  0  0  0  0
 15 16  1  0  0  0  0
 17 18  2  0  0  0  0
 18 19  1  0  0  0  0
 19 21  1  0  0  0  0
 20 21  2  0  0  0  0
 20 22  1  0  0  0  0
 21 26  1  0  0  0  0
 22 23  1  0  0  0  0
 24 22  2  0  0  0  0
 26 25  1  6  0  0  0
 26 27  1  0  0  0  0
 27 28  1  0  0  0  0
 27 31  1  0  0  0  0
 28 29  1  0  0  0  0
 31 30  1  0  0  0  0
M  END
>  <MODEL>
6

>  <REMARK>
 VINA RESULT:      -5.6      2.992      5.577
  Name = 
  13 active torsions:
  status: ('A' for Active; 'I' for Inactive)
    1  A    between atoms: C_1  and  O_11
    2  A    between atoms: C_1  and  C_15
    3  A    between atoms: C_2  and  N_13
    4  A    between atoms: C_4  and  C_14
    5  A    between atoms: C_5  and  C_15
    6  A    between atoms: C_5  and  C_20
    7  A    between atoms: C_6  and  C_30
    8  A    between atoms: C_7  and  C_17
    9  A    between atoms: C_17  and  C_31
   10  A    between atoms: C_19  and  C_22
   11  A    between atoms: C_19  and  C_31
   12  A    between atoms: C_22  and  C_30
   13  A    between atoms: C_29  and  C_30
                            x       y       z     vdW  Elec       q    Type
                         _______ _______ _______ _____ _____    ______ ____

>  <TORSDO>
F 13

$$$$
=
 OpenBabel11062420553D

 31 32  0  0  1  0  0  0  0  0999 V2000
  189.1080  176.7310  144.6550 C   0  0  2  0  0  3  0  0  0  0  0  0
  190.4190  176.5830  145.4170 C   0  0  2  0  0  3  0  0  0  0  0  0
  191.5160  177.2220  144.6650 N   0  0  0  0  0  0  0  0  0  0  0  0
  192.2970  176.2730  143.8800 C   0  0  0  0  0  1  0  0  0  0  0  0
  189.4900  177.4900  143.4030 C   0  0  0  0  0  2  0  0  0  0  0  0
  190.8520  178.0900  143.7040 C   0  0  0  0  0  2  0  0  0  0  0  0
  187.2060  178.2660  144.5630 N   0  0  0  0  0  2  0  0  0  0  0  0
  188.1060  177.5620  145.4630 C   0  0  1  0  0  3  0  0  0  0  0  0
  187.1040  176.5360  146.5910 S   0  0  0  0  0  0  0  0  0  0  0  0
  186.1030  178.7290  145.3900 C   0  0  2  0  0  3  0  0  0  0  0  0
  185.6600  177.5840  146.2780 C   0  0  0  0  0  2  0  0  0  0  0  0
  184.9380  179.1820  144.5210 C   0  0  0  0  0  2  0  0  0  0  0  0
  185.2440  178.9940  143.0410 C   0  0  0  0  0  2  0  0  0  0  0  0
  184.4410  177.8350  142.4800 C   0  0  0  0  0  2  0  0  0  0  0  0
  183.1900  178.2830  142.0590 O   0  0  0  0  0  0  0  0  0  0  0  0
  183.2640  178.2600  140.6670 C   0  0  0  0  0  1  0  0  0  0  0  0
  191.5740  175.0090  146.7370 O   0  0  0  0  0  0  0  0  0  0  0  0
  190.6800  175.1840  145.9250 C   0  0  0  0  0  0  0  0  0  0  0  0
  189.9030  174.0060  145.4010 C   0  0  0  0  0  2  0  0  0  0  0  0
  191.9580  172.8970  144.7860 N   0  0  0  0  0  0  0  0  0  0  0  0
  190.7060  173.1300  144.4900 C   0  0  0  0  0  0  0  0  0  0  0  0
  192.9580  172.1710  144.0560 C   0  0  0  0  0  0  0  0  0  0  0  0
  192.9600  170.6850  144.1260 C   0  0  0  0  0  1  0  0  0  0  0  0
  193.8340  172.7500  143.3600 O   0  0  0  0  0  0  0  0  0  0  0  0
  188.9430  171.8990  143.4610 O   0  0  0  0  0  1  0  0  0  0  0  0
  190.0450  172.7170  143.2000 C   0  0  1  0  0  3  0  0  0  0  0  0
  189.6690  173.8870  142.2830 C   0  0  0  0  0  3  0  0  0  0  0  0
  188.2340  173.7150  141.7910 C   0  0  0  0  0  2  0  0  0  0  0  0
  187.4240  174.7250  142.3110 O   0  0  0  0  0  1  0  0  0  0  0  0
  191.3610  172.7820  140.9960 O   0  0  0  0  0  1  0  0  0  0  0  0
  190.6130  173.9560  141.0870 C   0  0  0  0  0  2  0  0  0  0  0  0
  1  5  1  6  0  0  0
  1  2  1  0  0  0  0
  1  8  1  0  0  0  0
  2 18  1  6  0  0  0
  3  2  1  0  0  0  0
  4  3  1  0  0  0  0
  5  6  1  0  0  0  0
  6  3  1  0  0  0  0
  7 10  1  0  0  0  0
  8  7  1  6  0  0  0
  8  9  1  0  0  0  0
 10 12  1  6  0  0  0
 10 11  1  0  0  0  0
 11  9  1  0  0  0  0
 13 12  1  0  0  0  0
 14 13  1  0  0  0  0
 15 14  1  0  0  0  0
 16 15  1  0  0  0  0
 18 17  2  0  0  0  0
 19 18  1  0  0  0  0
 21 20  2  0  0  0  0
 21 19  1  0  0  0  0
 22 23  1  0  0  0  0
 22 20  1  0  0  0  0
 24 22  2  0  0  0  0
 26 25  1  1  0  0  0
 26 21  1  0  0  0  0
 27 26  1  0  0  0  0
 28 27  1  0  0  0  0
 28 29  1  0  0  0  0
 30 31  1  0  0  0  0
 31 27  1  0  0  0  0
M  END
>  <MODEL>
7

>  <REMARK>
 VINA RESULT:      -5.6      2.587      5.266
  Name = 
  13 active torsions:
  status: ('A' for Active; 'I' for Inactive)
    1  A    between atoms: C_1  and  O_11
    2  A    between atoms: C_1  and  C_15
    3  A    between atoms: C_2  and  N_13
    4  A    between atoms: C_4  and  C_14
    5  A    between atoms: C_5  and  C_15
    6  A    between atoms: C_5  and  C_20
    7  A    between atoms: C_6  and  C_30
    8  A    between atoms: C_7  and  C_17
    9  A    between atoms: C_17  and  C_31
   10  A    between atoms: C_19  and  C_22
   11  A    between atoms: C_19  and  C_31
   12  A    between atoms: C_22  and  C_30
   13  A    between atoms: C_29  and  C_30
                            x       y       z     vdW  Elec       q    Type
                         _______ _______ _______ _____ _____    ______ ____

>  <TORSDO>
F 13

$$$$
=
 OpenBabel11062420553D

 31 32  0  0  1  0  0  0  0  0999 V2000
  187.9620  177.8010  144.6770 C   0  0  2  0  0  3  0  0  0  0  0  0
  187.9050  176.5640  145.5630 C   0  0  2  0  0  3  0  0  0  0  0  0
  186.5370  176.3770  146.0840 N   0  0  0  0  0  0  0  0  0  0  0  0
  186.3660  176.8960  147.4370 C   0  0  0  0  0  1  0  0  0  0  0  0
  186.5490  178.3440  144.7050 C   0  0  0  0  0  2  0  0  0  0  0  0
  185.6970  177.2010  145.2270 C   0  0  0  0  0  2  0  0  0  0  0  0
  188.2530  175.9760  143.0750 N   0  0  0  0  0  2  0  0  0  0  0  0
  188.3260  177.4190  143.2390 C   0  0  1  0  0  3  0  0  0  0  0  0
  187.2180  178.1940  142.0130 S   0  0  0  0  0  0  0  0  0  0  0  0
  188.2640  175.7400  141.6410 C   0  0  2  0  0  3  0  0  0  0  0  0
  187.2870  176.6980  140.9920 C   0  0  0  0  0  2  0  0  0  0  0  0
  187.8540  174.3060  141.3330 C   0  0  0  0  0  2  0  0  0  0  0  0
  188.5950  173.7650  140.1170 C   0  0  0  0  0  2  0  0  0  0  0  0
  190.0930  173.7890  140.3590 C   0  0  0  0  0  2  0  0  0  0  0  0
  190.7710  173.5750  139.1600 O   0  0  0  0  0  0  0  0  0  0  0  0
  189.7660  173.5610  138.1930 C   0  0  0  0  0  1  0  0  0  0  0  0
  189.4740  177.5140  147.0430 O   0  0  0  0  0  0  0  0  0  0  0  0
  189.0250  176.4810  146.5740 C   0  0  0  0  0  0  0  0  0  0  0  0
  189.6310  175.1590  146.9590 C   0  0  0  0  0  2  0  0  0  0  0  0
  189.6790  173.2870  145.4340 N   0  0  0  0  0  0  0  0  0  0  0  0
  190.2200  174.4200  145.7970 C   0  0  0  0  0  0  0  0  0  0  0  0
  190.0860  172.3530  144.4230 C   0  0  0  0  0  0  0  0  0  0  0  0
  189.0950  171.9250  143.4010 C   0  0  0  0  0  1  0  0  0  0  0  0
  191.2550  171.8830  144.3740 O   0  0  0  0  0  0  0  0  0  0  0  0
  191.2890  176.2150  144.6480 O   0  0  0  0  0  1  0  0  0  0  0  0
  191.5080  174.9670  145.2370 C   0  0  1  0  0  3  0  0  0  0  0  0
  192.6610  175.0180  146.2450 C   0  0  0  0  0  3  0  0  0  0  0  0
  193.0980  176.4660  146.4540 C   0  0  0  0  0  2  0  0  0  0  0  0
  194.4880  176.5380  146.5540 O   0  0  0  0  0  1  0  0  0  0  0  0
  193.8140  174.0980  144.3570 O   0  0  0  0  0  1  0  0  0  0  0  0
  193.8450  174.1950  145.7480 C   0  0  0  0  0  2  0  0  0  0  0  0
  1  5  1  6  0  0  0
  1  2  1  0  0  0  0
  2  3  1  0  0  0  0
  2 18  1  1  0  0  0
  3  4  1  0  0  0  0
  5  6  1  0  0  0  0
  6  3  1  0  0  0  0
  7  8  1  0  0  0  0
  8  9  1  6  0  0  0
  8  1  1  0  0  0  0
 10 12  1  1  0  0  0
 10  7  1  0  0  0  0
 11 10  1  0  0  0  0
 11  9  1  0  0  0  0
 13 14  1  0  0  0  0
 13 12  1  0  0  0  0
 15 14  1  0  0  0  0
 16 15  1  0  0  0  0
 18 19  1  0  0  0  0
 18 17  2  0  0  0  0
 20 21  2  0  0  0  0
 21 19  1  0  0  0  0
 22 20  1  0  0  0  0
 23 22  1  0  0  0  0
 24 22  2  0  0  0  0
 26 25  1  1  0  0  0
 26 21  1  0  0  0  0
 26 27  1  0  0  0  0
 27 28  1  0  0  0  0
 28 29  1  0  0  0  0
 30 31  1  0  0  0  0
 31 27  1  0  0  0  0
M  END
>  <MODEL>
8

>  <REMARK>
 VINA RESULT:      -5.6      3.678      4.939
  Name = 
  13 active torsions:
  status: ('A' for Active; 'I' for Inactive)
    1  A    between atoms: C_1  and  O_11
    2  A    between atoms: C_1  and  C_15
    3  A    between atoms: C_2  and  N_13
    4  A    between atoms: C_4  and  C_14
    5  A    between atoms: C_5  and  C_15
    6  A    between atoms: C_5  and  C_20
    7  A    between atoms: C_6  and  C_30
    8  A    between atoms: C_7  and  C_17
    9  A    between atoms: C_17  and  C_31
   10  A    between atoms: C_19  and  C_22
   11  A    between atoms: C_19  and  C_31
   12  A    between atoms: C_22  and  C_30
   13  A    between atoms: C_29  and  C_30
                            x       y       z     vdW  Elec       q    Type
                         _______ _______ _______ _____ _____    ______ ____

>  <TORSDO>
F 13

$$$$
=
 OpenBabel11062420553D

 31 32  0  0  1  0  0  0  0  0999 V2000
  189.2250  176.4970  144.3750 C   0  0  2  0  0  3  0  0  0  0  0  0
  189.2030  175.1780  145.1350 C   0  0  2  0  0  3  0  0  0  0  0  0
  189.2590  175.4290  146.5870 N   0  0  0  0  0  0  0  0  0  0  0  0
  190.6030  175.2920  147.1370 C   0  0  0  0  0  1  0  0  0  0  0  0
  189.3050  177.5490  145.4600 C   0  0  0  0  0  2  0  0  0  0  0  0
  188.9030  176.8320  146.7360 C   0  0  0  0  0  2  0  0  0  0  0  0
  187.0560  177.6230  144.2760 N   0  0  0  0  0  2  0  0  0  0  0  0
  187.9280  176.6870  143.5840 C   0  0  1  0  0  3  0  0  0  0  0  0
  188.2290  177.3200  141.8990 S   0  0  0  0  0  0  0  0  0  0  0  0
  186.0390  178.0040  143.3090 C   0  0  2  0  0  3  0  0  0  0  0  0
  186.7250  178.3250  141.9970 C   0  0  0  0  0  2  0  0  0  0  0  0
  185.2720  179.2260  143.7970 C   0  0  0  0  0  2  0  0  0  0  0  0
  185.3750  179.3800  145.3080 C   0  0  0  0  0  2  0  0  0  0  0  0
  184.2080  178.6890  145.9890 C   0  0  0  0  0  2  0  0  0  0  0  0
  184.4470  178.5950  147.3600 O   0  0  0  0  0  0  0  0  0  0  0  0
  185.8270  178.7500  147.4810 C   0  0  0  0  0  1  0  0  0  0  0  0
  190.0820  172.9950  145.0070 O   0  0  0  0  0  0  0  0  0  0  0  0
  190.1610  174.1410  144.5950 C   0  0  0  0  0  0  0  0  0  0  0  0
  191.2420  174.5130  143.6160 C   0  0  0  0  0  2  0  0  0  0  0  0
  192.9030  176.0170  144.5160 N   0  0  0  0  0  0  0  0  0  0  0  0
  192.5630  174.7790  144.2700 C   0  0  0  0  0  0  0  0  0  0  0  0
  194.1240  176.5490  145.0530 C   0  0  0  0  0  0  0  0  0  0  0  0
  194.1940  176.8590  146.5050 C   0  0  0  0  0  1  0  0  0  0  0  0
  195.1360  176.7610  144.3330 O   0  0  0  0  0  0  0  0  0  0  0  0
  193.4080  173.1150  145.7530 O   0  0  0  0  0  1  0  0  0  0  0  0
  193.4770  173.5940  144.4430 C   0  0  1  0  0  3  0  0  0  0  0  0
  193.2520  172.4720  143.4240 C   0  0  0  0  0  3  0  0  0  0  0  0
  192.8970  171.1780  144.1520 C   0  0  0  0  0  2  0  0  0  0  0  0
  191.9490  170.4600  143.4230 O   0  0  0  0  0  1  0  0  0  0  0  0
  195.1900  173.4580  142.4170 O   0  0  0  0  0  1  0  0  0  0  0  0
  194.5040  172.2540  142.5800 C   0  0  0  0  0  2  0  0  0  0  0  0
  1  2  1  0  0  0  0
  1  5  1  1  0  0  0
  2 18  1  6  0  0  0
  2  3  1  0  0  0  0
  3  6  1  0  0  0  0
  3  4  1  0  0  0  0
  5  6  1  0  0  0  0
  8  9  1  6  0  0  0
  8  7  1  0  0  0  0
  8  1  1  0  0  0  0
  9 11  1  0  0  0  0
 10 12  1  1  0  0  0
 10  7  1  0  0  0  0
 11 10  1  0  0  0  0
 12 13  1  0  0  0  0
 13 14  1  0  0  0  0
 14 15  1  0  0  0  0
 15 16  1  0  0  0  0
 18 17  2  0  0  0  0
 19 21  1  0  0  0  0
 19 18  1  0  0  0  0
 20 22  1  0  0  0  0
 21 26  1  0  0  0  0
 21 20  2  0  0  0  0
 22 23  1  0  0  0  0
 24 22  2  0  0  0  0
 26 25  1  1  0  0  0
 27 28  1  0  0  0  0
 27 26  1  0  0  0  0
 29 28  1  0  0  0  0
 30 31  1  0  0  0  0
 31 27  1  0  0  0  0
M  END
>  <MODEL>
9

>  <REMARK>
 VINA RESULT:      -5.6      3.217      5.331
  Name = 
  13 active torsions:
  status: ('A' for Active; 'I' for Inactive)
    1  A    between atoms: C_1  and  O_11
    2  A    between atoms: C_1  and  C_15
    3  A    between atoms: C_2  and  N_13
    4  A    between atoms: C_4  and  C_14
    5  A    between atoms: C_5  and  C_15
    6  A    between atoms: C_5  and  C_20
    7  A    between atoms: C_6  and  C_30
    8  A    between atoms: C_7  and  C_17
    9  A    between atoms: C_17  and  C_31
   10  A    between atoms: C_19  and  C_22
   11  A    between atoms: C_19  and  C_31
   12  A    between atoms: C_22  and  C_30
   13  A    between atoms: C_29  and  C_30
                            x       y       z     vdW  Elec       q    Type
                         _______ _______ _______ _____ _____    ______ ____

>  <TORSDO>
F 13

$$$$
