=
 OpenBabel11062420413D

 60 67  0  0  1  0  0  0  0  0999 V2000
  189.6160  171.8630  142.7340 N   0  0  0  0  0  0  0  0  0  0  0  0
  190.2520  171.4280  143.8920 N   0  0  0  0  0  2  0  0  0  0  0  0
  192.1800  173.9730  143.2230 C   0  0  0  0  0  2  0  0  0  0  0  0
  189.9680  175.3500  141.4860 C   0  0  0  0  0  2  0  0  0  0  0  0
  194.1320  172.6420  143.0500 C   0  0  1  0  0  3  0  0  0  0  0  0
  187.7830  175.4870  142.5710 C   0  0  1  0  0  3  0  0  0  0  0  0
  188.7930  173.8360  138.9890 N   0  0  0  0  0  2  0  0  0  0  0  0
  193.0430  172.2710  137.0820 C   0  0  0  0  0  2  0  0  0  0  0  0
  194.3640  171.4700  139.0690 C   0  0  0  0  0  2  0  0  0  0  0  0
  194.2170  171.4190  137.5490 C   0  0  2  0  0  3  0  0  0  0  0  0
  189.5360  173.3440  140.1100 C   0  0  0  0  0  0  0  0  0  0  0  0
  195.0590  172.0320  141.9810 C   0  0  1  0  0  3  0  0  0  0  0  0
  189.9060  173.1000  142.5890 C   0  0  0  0  0  0  0  0  0  0  0  0
  192.6590  171.9210  135.6530 C   0  0  0  0  0  2  0  0  0  0  0  0
  189.3310  173.9650  141.4740 C   0  0  1  0  0  0  0  0  0  0  0  0
  190.9120  172.4110  144.5650 O   0  0  0  0  0  0  0  0  0  0  0  0
  190.3810  172.4210  139.9470 O   0  0  0  0  0  0  0  0  0  0  0  0
  187.8430  174.2540  141.6950 C   0  0  1  0  0  3  0  0  0  0  0  0
  188.8600  173.2340  137.6640 C   0  0  0  0  0  2  0  0  0  0  0  0
  190.2040  173.5190  137.0220 C   0  0  0  0  0  2  0  0  0  0  0  0
  187.1530  173.1890  142.2790 O   0  0  0  0  0  1  0  0  0  0  0  0
  193.3830  173.5260  139.8270 O   0  0  0  0  0  1  0  0  0  0  0  0
  195.5210  172.9250  140.8040 C   0  0  1  0  0  3  0  0  0  0  0  0
  195.3920  171.8610  136.9440 O   0  0  0  0  0  1  0  0  0  0  0  0
  190.2910  172.7880  135.6960 C   0  0  0  0  0  2  0  0  0  0  0  0
  194.5990  172.8910  139.5760 C   0  0  1  0  0  3  0  0  0  0  0  0
  191.6780  172.9460  135.0910 C   0  0  0  0  0  2  0  0  0  0  0  0
  189.0660  176.2600  142.3120 C   0  0  0  0  0  2  0  0  0  0  0  0
  192.8260  172.9120  142.4600 N   0  0  0  0  0  2  0  0  0  0  0  0
  190.7950  173.5360  143.7100 C   0  0  1  0  0  3  0  0  0  0  0  0
  197.1270  174.4900  142.1630 C   0  0  0  0  0  2  0  0  0  0  0  0
  196.0150  174.3450  141.1370 C   0  0  0  0  0  0  0  0  0  0  0  0
  197.4600  174.5250  140.6930 C   0  0  0  0  0  2  0  0  0  0  0  0
  195.2070  175.5790  140.7340 C   0  0  0  0  0  2  0  0  0  0  0  0
  193.3100  176.6030  141.7570 O   0  0  0  0  0  0  0  0  0  0  0  0
  194.4900  176.1920  141.8890 C   0  0  0  0  0  0  0  0  0  0  0  0
  195.1230  176.2970  143.1200 O   0  0  0  0  0  1  0  0  0  0  0  0
  186.5440  176.3300  142.2810 C   0  0  0  0  0  2  0  0  0  0  0  0
  186.1900  177.8250  144.1140 C   0  0  2  0  0  3  0  0  0  0  0  0
  185.7620  176.5590  143.4940 N   0  0  0  0  0  0  0  0  0  0  0  0
  184.9750  177.7900  143.2960 C   0  0  2  0  0  3  0  0  0  0  0  0
  185.8780  179.0020  143.2120 C   0  0  0  0  0  2  0  0  0  0  0  0
  196.0940  170.9870  142.4390 C   0  0  0  0  0  2  0  0  0  0  0  0
  194.5000  169.2130  141.6620 C   0  0  0  0  0  2  0  0  0  0  0  0
  195.8060  168.4250  139.9640 N   0  0  0  0  0  2  0  0  0  0  0  0
  196.6620  169.1920  140.7830 N   0  0  0  0  0  2  0  0  0  0  0  0
  195.9110  169.5330  141.9790 C   0  0  1  0  0  3  0  0  0  0  0  0
  194.6110  168.1700  140.6700 N   0  0  0  0  0  2  0  0  0  0  0  0
  193.9440  171.7090  144.2440 C   0  0  0  0  0  2  0  0  0  0  0  0
  194.6100  172.3090  145.4710 C   0  0  0  0  0  2  0  0  0  0  0  0
  194.3950  173.8090  145.5190 C   0  0  0  0  0  2  0  0  0  0  0  0
  193.3000  174.1780  146.5070 C   0  0  0  0  0  2  0  0  0  0  0  0
  194.2490  176.4210  146.4910 C   0  0  0  0  0  2  0  0  0  0  0  0
  193.1490  175.6670  146.5660 C   0  0  0  0  0  0  0  0  0  0  0  0
  191.7680  176.2700  146.7380 C   0  0  1  0  0  3  0  0  0  0  0  0
  191.5730  177.4280  144.5420 C   0  0  0  0  0  2  0  0  0  0  0  0
  190.3450  177.7700  145.3530 C   0  0  0  0  0  2  0  0  0  0  0  0
  190.9530  176.3820  145.4480 C   0  0  0  0  0  3  0  0  0  0  0  0
  190.9740  175.5900  147.8560 C   0  0  0  0  0  2  0  0  0  0  0  0
  189.7370  174.8690  147.3380 C   0  0  0  0  0  1  0  0  0  0  0  0
  1  2  1  0  0  0  0
  2 16  1  0  0  0  0
  4 28  1  0  0  0  0
  5 49  1  1  0  0  0
  6 38  1  6  0  0  0
  7 11  1  0  0  0  0
  8 10  1  0  0  0  0
  9 26  1  0  0  0  0
 10 24  1  6  0  0  0
 10  9  1  0  0  0  0
 11 15  1  0  0  0  0
 12 43  1  1  0  0  0
 12  5  1  0  0  0  0
 13  1  2  0  0  0  0
 13 30  1  0  0  0  0
 14  8  1  0  0  0  0
 15  4  1  1  0  0  0
 15 18  1  0  0  0  0
 15 13  1  0  0  0  0
 17 11  2  0  0  0  0
 18 21  1  1  0  0  0
 18  6  1  0  0  0  0
 19  7  1  0  0  0  0
 20 19  1  0  0  0  0
 23 32  1  1  0  0  0
 23 12  1  0  0  0  0
 25 20  1  0  0  0  0
 26 22  1  1  0  0  0
 26 23  1  0  0  0  0
 27 14  1  0  0  0  0
 27 25  1  0  0  0  0
 28  6  1  0  0  0  0
 29  5  1  0  0  0  0
 29  3  1  0  0  0  0
 30  3  1  6  0  0  0
 30 16  1  0  0  0  0
 32 31  1  0  0  0  0
 33 32  1  0  0  0  0
 33 31  1  0  0  0  0
 34 32  1  0  0  0  0
 34 36  1  0  0  0  0
 35 36  2  0  0  0  0
 36 37  1  0  0  0  0
 38 40  1  0  0  0  0
 39 42  1  6  0  0  0
 40 39  1  0  0  0  0
 41 42  1  6  0  0  0
 41 40  1  0  0  0  0
 41 39  1  0  0  0  0
 44 47  1  0  0  0  0
 45 48  1  0  0  0  0
 45 46  1  0  0  0  0
 46 47  1  0  0  0  0
 47 43  1  6  0  0  0
 48 44  1  0  0  0  0
 49 50  1  0  0  0  0
 50 51  1  0  0  0  0
 51 52  1  0  0  0  0
 52 54  1  0  0  0  0
 53 54  2  0  0  0  0
 54 55  1  0  0  0  0
 55 59  1  1  0  0  0
 56 57  1  0  0  0  0
 56 58  1  0  0  0  0
 57 58  1  0  0  0  0
 58 55  1  0  0  0  0
 60 59  1  0  0  0  0
M  END
>  <MODEL>
1

>  <REMARK>
 VINA RESULT:      -6.3      0.000      0.000
  Name = 
  15 active torsions:
  status: ('A' for Active; 'I' for Inactive)
    1  A    between atoms: C_9  and  C_56
    2  A    between atoms: C_10  and  C_31
    3  A    between atoms: C_10  and  C_45
    4  A    between atoms: C_11  and  C_13
    5  A    between atoms: C_13  and  N_20
    6  A    between atoms: C_14  and  C_30
    7  A    between atoms: C_14  and  C_42
    8  A    between atoms: C_14  and  C_57
    9  A    between atoms: C_22  and  C_33
   10  A    between atoms: C_31  and  C_42
   11  A    between atoms: C_33  and  C_52
   12  A    between atoms: C_34  and  C_35
   13  A    between atoms: C_34  and  C_36
   14  A    between atoms: C_35  and  C_48
   15  A    between atoms: C_45  and  C_56
                            x       y       z     vdW  Elec       q    Type
                         _______ _______ _______ _____ _____    ______ ____

>  <TORSDO>
F 15

$$$$
=
 OpenBabel11062420413D

 60 67  0  0  1  0  0  0  0  0999 V2000
  190.2980  170.9850  141.5320 N   0  0  0  0  0  0  0  0  0  0  0  0
  189.2880  171.7550  142.0990 N   0  0  0  0  0  2  0  0  0  0  0  0
  191.5040  174.1140  141.6890 C   0  0  0  0  0  2  0  0  0  0  0  0
  192.9980  172.4930  139.4650 C   0  0  0  0  0  2  0  0  0  0  0  0
  191.5950  174.6380  143.9970 C   0  0  1  0  0  3  0  0  0  0  0  0
  191.5380  171.6160  137.7130 C   0  0  1  0  0  3  0  0  0  0  0  0
  194.1500  169.6420  140.1340 N   0  0  0  0  0  2  0  0  0  0  0  0
  196.2430  170.7480  144.4400 C   0  0  0  0  0  2  0  0  0  0  0  0
  194.5480  172.1970  145.6070 C   0  0  0  0  0  2  0  0  0  0  0  0
  195.7870  171.3180  145.7770 C   0  0  2  0  0  3  0  0  0  0  0  0
  193.1740  170.4360  140.8200 C   0  0  0  0  0  0  0  0  0  0  0  0
  192.4920  174.4110  145.2290 C   0  0  1  0  0  3  0  0  0  0  0  0
  191.0450  171.7800  140.8650 C   0  0  0  0  0  0  0  0  0  0  0  0
  197.2080  169.5920  144.6480 C   0  0  0  0  0  2  0  0  0  0  0  0
  192.2260  171.3050  140.0260 C   0  0  1  0  0  0  0  0  0  0  0  0
  189.3240  173.0690  141.7400 O   0  0  0  0  0  0  0  0  0  0  0  0
  193.1360  170.4310  142.0810 O   0  0  0  0  0  0  0  0  0  0  0  0
  191.7600  170.5570  138.7720 C   0  0  1  0  0  3  0  0  0  0  0  0
  195.0360  168.7070  140.8140 C   0  0  0  0  0  2  0  0  0  0  0  0
  196.0760  169.4600  141.6230 C   0  0  0  0  0  2  0  0  0  0  0  0
  190.6040  169.8000  138.9770 O   0  0  0  0  0  1  0  0  0  0  0  0
  194.5390  173.0140  143.3500 O   0  0  0  0  0  1  0  0  0  0  0  0
  194.0180  174.6280  145.0850 C   0  0  1  0  0  3  0  0  0  0  0  0
  196.8170  172.0580  146.3530 O   0  0  0  0  0  1  0  0  0  0  0  0
  196.9120  168.4680  142.4100 C   0  0  0  0  0  2  0  0  0  0  0  0
  194.8040  173.3750  144.6710 C   0  0  1  0  0  3  0  0  0  0  0  0
  197.8750  169.2000  143.3330 C   0  0  0  0  0  2  0  0  0  0  0  0
  192.4480  172.7790  138.0720 C   0  0  0  0  0  2  0  0  0  0  0  0
  191.8650  173.6030  143.0070 N   0  0  0  0  0  2  0  0  0  0  0  0
  190.5200  173.1750  140.9860 C   0  0  1  0  0  3  0  0  0  0  0  0
  193.5600  177.0960  144.3290 C   0  0  0  0  0  2  0  0  0  0  0  0
  194.4920  175.8960  144.3510 C   0  0  0  0  0  0  0  0  0  0  0  0
  194.6810  177.0420  145.3360 C   0  0  0  0  0  2  0  0  0  0  0  0
  195.6800  175.8580  143.3910 C   0  0  0  0  0  2  0  0  0  0  0  0
  194.2070  175.7690  141.5150 O   0  0  0  0  0  1  0  0  0  0  0  0
  195.2910  176.1930  141.9900 C   0  0  0  0  0  0  0  0  0  0  0  0
  196.1210  176.9880  141.2120 O   0  0  0  0  0  0  0  0  0  0  0  0
  191.8220  171.0840  136.3110 C   0  0  0  0  0  2  0  0  0  0  0  0
  193.2470  169.2160  135.8640 C   0  0  2  0  0  3  0  0  0  0  0  0
  193.2130  170.6540  136.1790 N   0  0  0  0  0  0  0  0  0  0  0  0
  193.4130  170.1990  134.7900 C   0  0  2  0  0  3  0  0  0  0  0  0
  192.6160  168.9420  134.5130 C   0  0  0  0  0  2  0  0  0  0  0  0
  191.9200  174.7790  146.6120 C   0  0  0  0  0  2  0  0  0  0  0  0
  190.2840  176.5160  147.3850 C   0  0  0  0  0  2  0  0  0  0  0  0
  191.7150  177.6030  148.7930 N   0  0  0  0  0  2  0  0  0  0  0  0
  192.5270  176.8030  147.9610 N   0  0  0  0  0  2  0  0  0  0  0  0
  191.6680  176.2620  146.9230 C   0  0  1  0  0  3  0  0  0  0  0  0
  190.4240  177.6810  148.2270 N   0  0  0  0  0  2  0  0  0  0  0  0
  190.1110  174.5950  144.3550 C   0  0  0  0  0  2  0  0  0  0  0  0
  189.4340  175.8710  143.8800 C   0  0  0  0  0  2  0  0  0  0  0  0
  188.2020  176.1670  144.7130 C   0  0  0  0  0  2  0  0  0  0  0  0
  187.9560  177.6640  144.8200 C   0  0  0  0  0  2  0  0  0  0  0  0
  187.3910  178.6690  142.6750 C   0  0  0  0  0  2  0  0  0  0  0  0
  186.9510  178.0870  143.7940 C   0  0  0  0  0  0  0  0  0  0  0  0
  185.4740  177.8740  144.0650 C   0  0  1  0  0  3  0  0  0  0  0  0
  185.4750  179.2260  146.1560 C   0  0  0  0  0  2  0  0  0  0  0  0
  184.1650  178.4750  146.0940 C   0  0  0  0  0  2  0  0  0  0  0  0
  184.7890  179.0150  144.8210 C   0  0  0  0  0  3  0  0  0  0  0  0
  184.7030  177.4870  142.8000 C   0  0  0  0  0  2  0  0  0  0  0  0
  183.5650  178.4490  142.4910 C   0  0  0  0  0  1  0  0  0  0  0  0
  1  2  1  0  0  0  0
  3 29  1  0  0  0  0
  5 49  1  1  0  0  0
  5 12  1  0  0  0  0
  6 38  1  6  0  0  0
  6 28  1  0  0  0  0
  6 18  1  0  0  0  0
  7 19  1  0  0  0  0
  7 11  1  0  0  0  0
  8 14  1  0  0  0  0
  8 10  1  0  0  0  0
  9 10  1  0  0  0  0
 10 24  1  6  0  0  0
 11 17  2  0  0  0  0
 12 43  1  1  0  0  0
 13 30  1  0  0  0  0
 13  1  2  0  0  0  0
 15  4  1  6  0  0  0
 15 11  1  0  0  0  0
 15 13  1  0  0  0  0
 16  2  1  0  0  0  0
 18 21  1  1  0  0  0
 18 15  1  0  0  0  0
 19 20  1  0  0  0  0
 20 25  1  0  0  0  0
 23 32  1  6  0  0  0
 23 12  1  0  0  0  0
 25 27  1  0  0  0  0
 26 22  1  6  0  0  0
 26 23  1  0  0  0  0
 26  9  1  0  0  0  0
 27 14  1  0  0  0  0
 28  4  1  0  0  0  0
 29  5  1  0  0  0  0
 30  3  1  1  0  0  0
 30 16  1  0  0  0  0
 31 32  1  0  0  0  0
 31 33  1  0  0  0  0
 32 33  1  0  0  0  0
 34 32  1  0  0  0  0
 35 36  1  0  0  0  0
 36 34  1  0  0  0  0
 37 36  2  0  0  0  0
 39 42  1  6  0  0  0
 39 40  1  0  0  0  0
 40 38  1  0  0  0  0
 41 42  1  6  0  0  0
 41 39  1  0  0  0  0
 41 40  1  0  0  0  0
 44 48  1  0  0  0  0
 46 45  1  0  0  0  0
 47 43  1  1  0  0  0
 47 44  1  0  0  0  0
 47 46  1  0  0  0  0
 48 45  1  0  0  0  0
 50 49  1  0  0  0  0
 50 51  1  0  0  0  0
 51 52  1  0  0  0  0
 53 54  2  0  0  0  0
 54 55  1  0  0  0  0
 54 52  1  0  0  0  0
 55 59  1  6  0  0  0
 55 58  1  0  0  0  0
 57 56  1  0  0  0  0
 58 57  1  0  0  0  0
 58 56  1  0  0  0  0
 60 59  1  0  0  0  0
M  END
>  <MODEL>
2

>  <REMARK>
 VINA RESULT:      -6.0      2.619      7.543
  Name = 
  15 active torsions:
  status: ('A' for Active; 'I' for Inactive)
    1  A    between atoms: C_9  and  C_56
    2  A    between atoms: C_10  and  C_31
    3  A    between atoms: C_10  and  C_45
    4  A    between atoms: C_11  and  C_13
    5  A    between atoms: C_13  and  N_20
    6  A    between atoms: C_14  and  C_30
    7  A    between atoms: C_14  and  C_42
    8  A    between atoms: C_14  and  C_57
    9  A    between atoms: C_22  and  C_33
   10  A    between atoms: C_31  and  C_42
   11  A    between atoms: C_33  and  C_52
   12  A    between atoms: C_34  and  C_35
   13  A    between atoms: C_34  and  C_36
   14  A    between atoms: C_35  and  C_48
   15  A    between atoms: C_45  and  C_56
                            x       y       z     vdW  Elec       q    Type
                         _______ _______ _______ _____ _____    ______ ____

>  <TORSDO>
F 15

$$$$
=
 OpenBabel11062420413D

 60 67  0  0  1  0  0  0  0  0999 V2000
  187.8980  172.9860  142.1840 N   0  0  0  0  0  0  0  0  0  0  0  0
  188.5350  171.9400  142.8420 N   0  0  0  0  0  2  0  0  0  0  0  0
  191.1780  173.6940  142.0770 C   0  0  0  0  0  2  0  0  0  0  0  0
  189.4990  176.3200  141.7750 C   0  0  0  0  0  2  0  0  0  0  0  0
  192.1570  171.9470  140.8120 C   0  0  1  0  0  3  0  0  0  0  0  0
  188.0040  176.7750  143.6530 C   0  0  1  0  0  3  0  0  0  0  0  0
  187.1440  176.4220  139.6890 N   0  0  0  0  0  2  0  0  0  0  0  0
  189.4980  174.3520  135.9050 C   0  0  0  0  0  2  0  0  0  0  0  0
  190.7600  172.4300  136.9280 C   0  0  0  0  0  2  0  0  0  0  0  0
  190.2130  173.0340  135.6350 C   0  0  2  0  0  3  0  0  0  0  0  0
  187.8350  175.3030  140.2570 C   0  0  0  0  0  0  0  0  0  0  0  0
  192.3730  171.5230  139.3460 C   0  0  0  0  0  0  0  0  0  0  0  0
  188.6840  173.9940  142.2350 C   0  0  0  0  0  0  0  0  0  0  0  0
  188.6350  174.7500  134.7180 C   0  0  0  0  0  2  0  0  0  0  0  0
  188.3100  175.3690  141.6920 C   0  0  1  0  0  0  0  0  0  0  0  0
  189.7290  172.2820  143.4020 O   0  0  0  0  0  0  0  0  0  0  0  0
  188.0730  174.2870  139.5500 O   0  0  0  0  0  0  0  0  0  0  0  0
  187.2480  176.0490  142.5610 C   0  0  1  0  0  3  0  0  0  0  0  0
  186.5710  176.4060  138.3500 C   0  0  0  0  0  2  0  0  0  0  0  0
  187.6700  176.4310  137.3050 C   0  0  0  0  0  2  0  0  0  0  0  0
  186.3210  175.1540  143.1020 O   0  0  0  0  0  1  0  0  0  0  0  0
  191.0930  174.2250  138.4870 O   0  0  0  0  0  1  0  0  0  0  0  0
  192.8720  172.5820  138.3340 C   0  0  1  0  0  3  0  0  0  0  0  0
  191.2530  173.2360  134.7290 O   0  0  0  0  0  1  0  0  0  0  0  0
  187.0530  176.2980  135.9260 C   0  0  0  0  0  2  0  0  0  0  0  0
  191.7560  173.3580  137.6180 C   0  0  1  0  0  3  0  0  0  0  0  0
  188.1390  176.1850  134.8660 C   0  0  0  0  0  2  0  0  0  0  0  0
  189.3800  177.0860  143.0870 C   0  0  0  0  0  2  0  0  0  0  0  0
  191.0260  172.8640  140.8870 N   0  0  0  0  0  2  0  0  0  0  0  0
  189.9320  173.6150  142.9650 C   0  0  1  0  0  3  0  0  0  0  0  0
  195.3870  172.8340  139.0320 C   0  0  0  0  0  2  0  0  0  0  0  0
  194.0410  173.4880  138.7670 C   0  0  0  0  0  0  0  0  0  0  0  0
  195.1290  173.4980  137.7020 C   0  0  0  0  0  2  0  0  0  0  0  0
  193.7980  174.9170  139.2520 C   0  0  0  0  0  2  0  0  0  0  0  0
  194.2050  174.8800  141.6030 O   0  0  0  0  0  1  0  0  0  0  0  0
  194.5960  175.2490  140.4670 C   0  0  0  0  0  0  0  0  0  0  0  0
  195.7840  175.9550  140.3430 O   0  0  0  0  0  0  0  0  0  0  0  0
  187.2770  178.0390  144.1030 C   0  0  0  0  0  2  0  0  0  0  0  0
  184.9040  178.3070  143.9770 C   0  0  2  0  0  3  0  0  0  0  0  0
  186.1620  178.3540  143.2120 N   0  0  0  0  0  0  0  0  0  0  0  0
  185.5370  179.5990  143.6980 C   0  0  2  0  0  3  0  0  0  0  0  0
  184.8780  179.3840  145.0430 C   0  0  0  0  0  2  0  0  0  0  0  0
  192.8790  170.0920  139.0800 C   0  0  0  0  0  3  0  0  0  0  0  0
  194.6150  168.7940  137.8190 C   0  0  0  0  0  2  0  0  0  0  0  0
  193.2730  168.2090  136.0670 N   0  0  0  0  0  2  0  0  0  0  0  0
  192.6050  169.2620  136.7300 N   0  0  0  0  0  2  0  0  0  0  0  0
  193.5260  169.7930  137.7190 C   0  0  1  0  0  3  0  0  0  0  0  0
  194.6100  168.1660  136.5180 N   0  0  0  0  0  2  0  0  0  0  0  0
  191.8750  170.7500  141.7180 C   0  0  0  0  0  2  0  0  0  0  0  0
  193.0940  170.4620  142.5780 C   0  0  0  0  0  2  0  0  0  0  0  0
  192.7620  170.6140  144.0490 C   0  0  0  0  0  2  0  0  0  0  0  0
  193.0480  172.0260  144.5360 C   0  0  0  0  0  2  0  0  0  0  0  0
  194.9140  171.1630  145.8430 C   0  0  0  0  0  2  0  0  0  0  0  0
  194.4600  172.1180  145.0260 C   0  0  0  0  0  0  0  0  0  0  0  0
  195.3180  173.2980  144.6100 C   0  0  1  0  0  3  0  0  0  0  0  0
  194.2830  174.9710  146.1360 C   0  0  0  0  0  2  0  0  0  0  0  0
  195.2340  175.7080  145.2210 C   0  0  0  0  0  2  0  0  0  0  0  0
  195.5860  174.3180  145.7180 C   0  0  0  0  0  3  0  0  0  0  0  0
  196.6100  172.8580  143.9160 C   0  0  0  0  0  2  0  0  0  0  0  0
  196.3570  172.2540  142.5410 C   0  0  0  0  0  1  0  0  0  0  0  0
  1 13  2  0  0  0  0
  1  2  1  0  0  0  0
  2 16  1  0  0  0  0
  4 28  1  0  0  0  0
  5 29  1  0  0  0  0
  5 49  1  1  0  0  0
  6 38  1  6  0  0  0
  7 11  1  0  0  0  0
  9 26  1  0  0  0  0
 10 24  1  6  0  0  0
 10  8  1  0  0  0  0
 10  9  1  0  0  0  0
 11 15  1  0  0  0  0
 12  5  1  0  0  0  0
 13 30  1  0  0  0  0
 14 27  1  0  0  0  0
 14  8  1  0  0  0  0
 15  4  1  1  0  0  0
 15 13  1  0  0  0  0
 15 18  1  0  0  0  0
 17 11  2  0  0  0  0
 18 21  1  1  0  0  0
 18  6  1  0  0  0  0
 19  7  1  0  0  0  0
 20 19  1  0  0  0  0
 23 32  1  1  0  0  0
 23 12  1  0  0  0  0
 25 20  1  0  0  0  0
 26 23  1  0  0  0  0
 26 22  1  1  0  0  0
 27 25  1  0  0  0  0
 28  6  1  0  0  0  0
 29  3  1  0  0  0  0
 30  3  1  6  0  0  0
 30 16  1  0  0  0  0
 32 31  1  0  0  0  0
 32 34  1  0  0  0  0
 33 32  1  0  0  0  0
 33 31  1  0  0  0  0
 34 36  1  0  0  0  0
 36 35  1  0  0  0  0
 37 36  2  0  0  0  0
 39 42  1  1  0  0  0
 40 41  1  0  0  0  0
 40 39  1  0  0  0  0
 40 38  1  0  0  0  0
 41 39  1  0  0  0  0
 41 42  1  1  0  0  0
 43 12  2  0  0  0  0
 45 48  1  0  0  0  0
 45 46  1  0  0  0  0
 46 47  1  0  0  0  0
 47 44  1  0  0  0  0
 47 43  1  1  0  0  0
 48 44  1  0  0  0  0
 49 50  1  0  0  0  0
 50 51  1  0  0  0  0
 51 52  1  0  0  0  0
 52 54  1  0  0  0  0
 54 53  2  0  0  0  0
 55 59  1  1  0  0  0
 55 54  1  0  0  0  0
 55 58  1  0  0  0  0
 57 58  1  0  0  0  0
 57 56  1  0  0  0  0
 58 56  1  0  0  0  0
 60 59  1  0  0  0  0
M  END
>  <MODEL>
3

>  <REMARK>
 VINA RESULT:      -5.4      2.266      3.745
  Name = 
  15 active torsions:
  status: ('A' for Active; 'I' for Inactive)
    1  A    between atoms: C_9  and  C_56
    2  A    between atoms: C_10  and  C_31
    3  A    between atoms: C_10  and  C_45
    4  A    between atoms: C_11  and  C_13
    5  A    between atoms: C_13  and  N_20
    6  A    between atoms: C_14  and  C_30
    7  A    between atoms: C_14  and  C_42
    8  A    between atoms: C_14  and  C_57
    9  A    between atoms: C_22  and  C_33
   10  A    between atoms: C_31  and  C_42
   11  A    between atoms: C_33  and  C_52
   12  A    between atoms: C_34  and  C_35
   13  A    between atoms: C_34  and  C_36
   14  A    between atoms: C_35  and  C_48
   15  A    between atoms: C_45  and  C_56
                            x       y       z     vdW  Elec       q    Type
                         _______ _______ _______ _____ _____    ______ ____

>  <TORSDO>
F 15

$$$$
=
 OpenBabel11062420413D

 60 67  0  0  1  0  0  0  0  0999 V2000
  190.7090  170.0100  139.1530 N   0  0  0  0  0  0  0  0  0  0  0  0
  189.4690  170.6380  139.1820 N   0  0  0  0  0  2  0  0  0  0  0  0
  191.3450  173.2880  139.4950 C   0  0  0  0  0  2  0  0  0  0  0  0
  193.8200  171.8360  138.2400 C   0  0  0  0  0  2  0  0  0  0  0  0
  190.3980  173.9000  141.5790 C   0  0  1  0  0  3  0  0  0  0  0  0
  193.3450  170.6890  136.1350 C   0  0  1  0  0  3  0  0  0  0  0  0
  194.9260  169.2150  139.5860 N   0  0  0  0  0  2  0  0  0  0  0  0
  194.8730  170.7720  144.2460 C   0  0  0  0  0  2  0  0  0  0  0  0
  192.6820  171.9870  144.4760 C   0  0  0  0  0  2  0  0  0  0  0  0
  193.8330  171.3110  145.2200 C   0  0  2  0  0  3  0  0  0  0  0  0
  193.6640  169.8760  139.7350 C   0  0  0  0  0  0  0  0  0  0  0  0
  190.7170  173.8520  143.0850 C   0  0  1  0  0  3  0  0  0  0  0  0
  191.5640  170.8850  138.7790 C   0  0  0  0  0  0  0  0  0  0  0  0
  195.7970  169.7810  144.9390 C   0  0  0  0  0  2  0  0  0  0  0  0
  193.0350  170.5650  138.5440 C   0  0  1  0  0  0  0  0  0  0  0  0
  189.4900  171.9290  138.7480 O   0  0  0  0  0  0  0  0  0  0  0  0
  193.1020  169.9090  140.8640 O   0  0  0  0  0  0  0  0  0  0  0  0
  193.2330  169.7140  137.2860 C   0  0  1  0  0  3  0  0  0  0  0  0
  195.5540  168.4490  140.6530 C   0  0  0  0  0  2  0  0  0  0  0  0
  196.0590  169.3770  141.7420 C   0  0  0  0  0  2  0  0  0  0  0  0
  192.2000  168.7980  137.0700 O   0  0  0  0  0  1  0  0  0  0  0  0
  193.5180  172.7160  142.3470 O   0  0  0  0  0  1  0  0  0  0  0  0
  192.1240  174.2920  143.5580 C   0  0  1  0  0  3  0  0  0  0  0  0
  194.4290  172.2180  146.0950 O   0  0  0  0  0  1  0  0  0  0  0  0
  196.6040  168.5500  142.8920 C   0  0  0  0  0  2  0  0  0  0  0  0
  193.1590  173.1580  143.6210 C   0  0  1  0  0  3  0  0  0  0  0  0
  196.9950  169.4500  144.0550 C   0  0  0  0  0  2  0  0  0  0  0  0
  193.8720  171.9880  136.7230 C   0  0  0  0  0  2  0  0  0  0  0  0
  191.1820  172.8840  140.8870 N   0  0  0  0  0  2  0  0  0  0  0  0
  190.8690  172.1890  138.5420 C   0  0  1  0  0  3  0  0  0  0  0  0
  191.7750  176.7880  142.8370 C   0  0  0  0  0  2  0  0  0  0  0  0
  192.7030  175.5910  142.9670 C   0  0  0  0  0  0  0  0  0  0  0  0
  192.7110  176.6950  144.0160 C   0  0  0  0  0  2  0  0  0  0  0  0
  194.0360  175.5960  142.2200 C   0  0  0  0  0  2  0  0  0  0  0  0
  195.9860  176.8050  142.8770 O   0  0  0  0  0  0  0  0  0  0  0  0
  195.1930  175.8610  143.1230 C   0  0  0  0  0  0  0  0  0  0  0  0
  195.3880  175.0720  144.2480 O   0  0  0  0  0  1  0  0  0  0  0  0
  194.2530  170.1590  135.0280 C   0  0  0  0  0  2  0  0  0  0  0  0
  196.1800  168.8230  134.5560 C   0  0  2  0  0  3  0  0  0  0  0  0
  195.0740  169.0480  135.5030 N   0  0  0  0  0  0  0  0  0  0  0  0
  196.4210  169.5750  135.7910 C   0  0  2  0  0  3  0  0  0  0  0  0
  197.1110  170.0180  134.5190 C   0  0  0  0  0  2  0  0  0  0  0  0
  189.5790  174.1760  144.0710 C   0  0  0  0  0  2  0  0  0  0  0  0
  189.4700  176.0170  145.7720 C   0  0  0  0  0  2  0  0  0  0  0  0
  188.9410  174.6870  147.5510 N   0  0  0  0  0  2  0  0  0  0  0  0
  189.4170  173.8160  146.5480 N   0  0  0  0  0  2  0  0  0  0  0  0
  189.9550  174.6470  145.4850 C   0  0  1  0  0  3  0  0  0  0  0  0
  189.2890  176.0110  147.2050 N   0  0  0  0  0  2  0  0  0  0  0  0
  188.9180  173.6450  141.3000 C   0  0  0  0  0  2  0  0  0  0  0  0
  188.3420  174.8040  140.5020 C   0  0  0  0  0  2  0  0  0  0  0  0
  188.2450  176.0500  141.3590 C   0  0  0  0  0  2  0  0  0  0  0  0
  187.0440  175.9880  142.2890 C   0  0  0  0  0  2  0  0  0  0  0  0
  187.9910  178.0830  143.0930 C   0  0  0  0  0  2  0  0  0  0  0  0
  186.9360  177.2640  143.0660 C   0  0  0  0  0  0  0  0  0  0  0  0
  185.6550  177.5730  143.8170 C   0  0  1  0  0  3  0  0  0  0  0  0
  186.1590  177.8950  146.2340 C   0  0  0  0  0  2  0  0  0  0  0  0
  184.7390  178.3550  145.9940 C   0  0  0  0  0  2  0  0  0  0  0  0
  185.8020  178.6010  144.9400 C   0  0  0  0  0  3  0  0  0  0  0  0
  184.5010  177.9230  142.8730 C   0  0  0  0  0  2  0  0  0  0  0  0
  184.9820  178.3200  141.4850 C   0  0  0  0  0  1  0  0  0  0  0  0
  1  2  1  0  0  0  0
  3 29  1  0  0  0  0
  5 49  1  1  0  0  0
  5 12  1  0  0  0  0
  6 38  1  6  0  0  0
  6 28  1  0  0  0  0
  6 18  1  0  0  0  0
  7 11  1  0  0  0  0
  7 19  1  0  0  0  0
  8 14  1  0  0  0  0
  8 10  1  0  0  0  0
  9 10  1  0  0  0  0
 10 24  1  1  0  0  0
 11 17  2  0  0  0  0
 12 23  1  0  0  0  0
 12 43  1  1  0  0  0
 13  1  2  0  0  0  0
 15  4  1  6  0  0  0
 15 13  1  0  0  0  0
 15 11  1  0  0  0  0
 16  2  1  0  0  0  0
 18 21  1  6  0  0  0
 18 15  1  0  0  0  0
 19 20  1  0  0  0  0
 20 25  1  0  0  0  0
 23 32  1  6  0  0  0
 23 26  1  0  0  0  0
 25 27  1  0  0  0  0
 26 22  1  6  0  0  0
 26  9  1  0  0  0  0
 27 14  1  0  0  0  0
 28  4  1  0  0  0  0
 29  5  1  0  0  0  0
 30 16  1  0  0  0  0
 30 13  1  0  0  0  0
 30  3  1  1  0  0  0
 31 32  1  0  0  0  0
 31 33  1  0  0  0  0
 32 33  1  0  0  0  0
 34 32  1  0  0  0  0
 34 36  1  0  0  0  0
 35 36  2  0  0  0  0
 36 37  1  0  0  0  0
 38 40  1  0  0  0  0
 39 42  1  6  0  0  0
 39 40  1  0  0  0  0
 39 41  1  0  0  0  0
 40 41  1  0  0  0  0
 41 42  1  6  0  0  0
 44 48  1  0  0  0  0
 46 45  1  0  0  0  0
 47 43  1  6  0  0  0
 47 44  1  0  0  0  0
 47 46  1  0  0  0  0
 48 45  1  0  0  0  0
 50 49  1  0  0  0  0
 50 51  1  0  0  0  0
 51 52  1  0  0  0  0
 52 54  1  0  0  0  0
 54 53  2  0  0  0  0
 54 55  1  0  0  0  0
 55 59  1  6  0  0  0
 55 58  1  0  0  0  0
 57 56  1  0  0  0  0
 58 57  1  0  0  0  0
 58 56  1  0  0  0  0
 60 59  1  0  0  0  0
M  END
>  <MODEL>
4

>  <REMARK>
 VINA RESULT:      -5.1      2.385      8.090
  Name = 
  15 active torsions:
  status: ('A' for Active; 'I' for Inactive)
    1  A    between atoms: C_9  and  C_56
    2  A    between atoms: C_10  and  C_31
    3  A    between atoms: C_10  and  C_45
    4  A    between atoms: C_11  and  C_13
    5  A    between atoms: C_13  and  N_20
    6  A    between atoms: C_14  and  C_30
    7  A    between atoms: C_14  and  C_42
    8  A    between atoms: C_14  and  C_57
    9  A    between atoms: C_22  and  C_33
   10  A    between atoms: C_31  and  C_42
   11  A    between atoms: C_33  and  C_52
   12  A    between atoms: C_34  and  C_35
   13  A    between atoms: C_34  and  C_36
   14  A    between atoms: C_35  and  C_48
   15  A    between atoms: C_45  and  C_56
                            x       y       z     vdW  Elec       q    Type
                         _______ _______ _______ _____ _____    ______ ____

>  <TORSDO>
F 15

$$$$
=
 OpenBabel11062420413D

 60 67  0  0  1  0  0  0  0  0999 V2000
  190.1120  171.3480  139.6300 N   0  0  0  0  0  0  0  0  0  0  0  0
  189.5230  171.6260  140.8590 N   0  0  0  0  0  2  0  0  0  0  0  0
  191.9030  173.8550  140.9620 C   0  0  0  0  0  2  0  0  0  0  0  0
  192.2190  173.8420  137.8470 C   0  0  0  0  0  2  0  0  0  0  0  0
  192.8570  172.9660  142.9400 C   0  0  1  0  0  3  0  0  0  0  0  0
  190.1170  174.0850  136.6260 C   0  0  1  0  0  3  0  0  0  0  0  0
  192.9320  171.1540  136.3720 N   0  0  0  0  0  2  0  0  0  0  0  0
  196.5100  169.6540  139.3870 C   0  0  0  0  0  2  0  0  0  0  0  0
  195.6240  170.1250  141.6950 C   0  0  0  0  0  2  0  0  0  0  0  0
  196.6460  169.3420  140.8720 C   0  0  2  0  0  3  0  0  0  0  0  0
  192.4190  171.3850  137.6900 C   0  0  0  0  0  0  0  0  0  0  0  0
  194.0470  172.0990  143.3950 C   0  0  1  0  0  3  0  0  0  0  0  0
  190.7400  172.4020  139.2680 C   0  0  0  0  0  0  0  0  0  0  0  0
  197.2370  168.6130  138.5500 C   0  0  0  0  0  2  0  0  0  0  0  0
  191.4550  172.5260  137.9280 C   0  0  1  0  0  0  0  0  0  0  0  0
  189.7010  172.9090  141.2810 O   0  0  0  0  0  0  0  0  0  0  0  0
  192.8000  170.6580  138.6480 O   0  0  0  0  0  0  0  0  0  0  0  0
  190.4610  172.6180  136.7660 C   0  0  1  0  0  3  0  0  0  0  0  0
  193.7870  170.0240  136.0380 C   0  0  0  0  0  2  0  0  0  0  0  0
  195.1640  170.2060  136.6470 C   0  0  0  0  0  2  0  0  0  0  0  0
  189.3110  171.8480  136.9590 O   0  0  0  0  0  1  0  0  0  0  0  0
  195.0320  172.0880  140.4450 O   0  0  0  0  0  1  0  0  0  0  0  0
  195.4490  172.4020  142.8150 C   0  0  1  0  0  3  0  0  0  0  0  0
  197.9360  169.6480  141.3040 O   0  0  0  0  0  1  0  0  0  0  0  0
  195.9970  168.9660  136.3830 C   0  0  0  0  0  2  0  0  0  0  0  0
  195.7860  171.6340  141.5270 C   0  0  1  0  0  3  0  0  0  0  0  0
  197.3380  169.0640  137.0960 C   0  0  0  0  0  2  0  0  0  0  0  0
  191.3080  174.8590  137.1680 C   0  0  0  0  0  2  0  0  0  0  0  0
  192.5700  172.6920  141.5370 N   0  0  0  0  0  2  0  0  0  0  0  0
  190.5750  173.4610  140.3110 C   0  0  1  0  0  3  0  0  0  0  0  0
  195.3500  174.8230  143.8160 C   0  0  0  0  0  2  0  0  0  0  0  0
  195.8980  173.8740  142.7620 C   0  0  0  0  0  0  0  0  0  0  0  0
  196.7230  174.2230  143.9930 C   0  0  0  0  0  2  0  0  0  0  0  0
  196.5770  174.4510  141.5210 C   0  0  0  0  0  2  0  0  0  0  0  0
  196.3110  176.8080  141.2530 O   0  0  0  0  0  1  0  0  0  0  0  0
  195.8740  175.6570  140.9960 C   0  0  0  0  0  0  0  0  0  0  0  0
  194.7420  175.5110  140.2070 O   0  0  0  0  0  0  0  0  0  0  0  0
  189.8080  174.4610  135.1790 C   0  0  0  0  0  2  0  0  0  0  0  0
  187.8460  175.6210  135.9040 C   0  0  2  0  0  3  0  0  0  0  0  0
  188.3700  174.6130  134.9660 N   0  0  0  0  0  0  0  0  0  0  0  0
  188.1260  175.9960  134.5160 C   0  0  2  0  0  3  0  0  0  0  0  0
  188.4370  176.9870  135.6170 C   0  0  0  0  0  2  0  0  0  0  0  0
  194.0510  171.5930  144.8510 C   0  0  0  0  0  2  0  0  0  0  0  0
  196.0530  170.6410  146.0230 C   0  0  0  0  0  2  0  0  0  0  0  0
  194.9880  168.8300  146.9160 N   0  0  0  0  0  2  0  0  0  0  0  0
  194.1350  169.3190  145.9030 N   0  0  0  0  0  2  0  0  0  0  0  0
  194.8740  170.3380  145.1800 C   0  0  1  0  0  3  0  0  0  0  0  0
  196.2640  169.4130  146.7540 N   0  0  0  0  0  2  0  0  0  0  0  0
  191.5990  172.6850  143.7580 C   0  0  0  0  0  2  0  0  0  0  0  0
  191.3320  173.8470  144.7000 C   0  0  0  0  0  2  0  0  0  0  0  0
  190.2390  174.7430  144.1500 C   0  0  0  0  0  2  0  0  0  0  0  0
  190.6410  176.2080  144.2170 C   0  0  0  0  0  2  0  0  0  0  0  0
  189.9010  177.5540  146.1080 C   0  0  0  0  0  2  0  0  0  0  0  0
  189.5870  176.9920  144.9370 C   0  0  0  0  0  0  0  0  0  0  0  0
  188.1980  177.0990  144.3370 C   0  0  1  0  0  3  0  0  0  0  0  0
  186.6980  176.8780  146.3130 C   0  0  0  0  0  2  0  0  0  0  0  0
  185.8290  177.1190  145.0990 C   0  0  0  0  0  2  0  0  0  0  0  0
  187.1730  177.8140  145.2190 C   0  0  0  0  0  3  0  0  0  0  0  0
  188.2230  177.6680  142.9170 C   0  0  0  0  0  2  0  0  0  0  0  0
  187.8230  176.6390  141.8680 C   0  0  0  0  0  1  0  0  0  0  0  0
  1  2  1  0  0  0  0
  2 16  1  0  0  0  0
  3 29  1  0  0  0  0
  5 12  1  0  0  0  0
  5 49  1  1  0  0  0
  6 38  1  6  0  0  0
  6 18  1  0  0  0  0
  6 28  1  0  0  0  0
  7 11  1  0  0  0  0
  8 10  1  0  0  0  0
 10 24  1  1  0  0  0
 10  9  1  0  0  0  0
 11 15  1  0  0  0  0
 11 17  2  0  0  0  0
 12 43  1  1  0  0  0
 13  1  2  0  0  0  0
 13 30  1  0  0  0  0
 14  8  1  0  0  0  0
 15  4  1  1  0  0  0
 15 13  1  0  0  0  0
 18 21  1  1  0  0  0
 18 15  1  0  0  0  0
 19  7  1  0  0  0  0
 19 20  1  0  0  0  0
 23 32  1  6  0  0  0
 23 12  1  0  0  0  0
 25 20  1  0  0  0  0
 25 27  1  0  0  0  0
 26 22  1  6  0  0  0
 26  9  1  0  0  0  0
 26 23  1  0  0  0  0
 27 14  1  0  0  0  0
 28  4  1  0  0  0  0
 29  5  1  0  0  0  0
 30  3  1  1  0  0  0
 30 16  1  0  0  0  0
 31 33  1  0  0  0  0
 32 31  1  0  0  0  0
 32 33  1  0  0  0  0
 34 32  1  0  0  0  0
 36 35  1  0  0  0  0
 36 34  1  0  0  0  0
 37 36  2  0  0  0  0
 39 42  1  1  0  0  0
 40 38  1  0  0  0  0
 40 39  1  0  0  0  0
 41 40  1  0  0  0  0
 41 42  1  1  0  0  0
 41 39  1  0  0  0  0
 44 48  1  0  0  0  0
 46 45  1  0  0  0  0
 47 43  1  1  0  0  0
 47 46  1  0  0  0  0
 47 44  1  0  0  0  0
 48 45  1  0  0  0  0
 49 50  1  0  0  0  0
 51 52  1  0  0  0  0
 51 50  1  0  0  0  0
 52 54  1  0  0  0  0
 54 53  2  0  0  0  0
 55 59  1  6  0  0  0
 55 54  1  0  0  0  0
 55 58  1  0  0  0  0
 57 58  1  0  0  0  0
 57 56  1  0  0  0  0
 58 56  1  0  0  0  0
 60 59  1  0  0  0  0
M  END
>  <MODEL>
5

>  <REMARK>
 VINA RESULT:      -4.8      2.596      4.955
  Name = 
  15 active torsions:
  status: ('A' for Active; 'I' for Inactive)
    1  A    between atoms: C_9  and  C_56
    2  A    between atoms: C_10  and  C_31
    3  A    between atoms: C_10  and  C_45
    4  A    between atoms: C_11  and  C_13
    5  A    between atoms: C_13  and  N_20
    6  A    between atoms: C_14  and  C_30
    7  A    between atoms: C_14  and  C_42
    8  A    between atoms: C_14  and  C_57
    9  A    between atoms: C_22  and  C_33
   10  A    between atoms: C_31  and  C_42
   11  A    between atoms: C_33  and  C_52
   12  A    between atoms: C_34  and  C_35
   13  A    between atoms: C_34  and  C_36
   14  A    between atoms: C_35  and  C_48
   15  A    between atoms: C_45  and  C_56
                            x       y       z     vdW  Elec       q    Type
                         _______ _______ _______ _____ _____    ______ ____

>  <TORSDO>
F 15

$$$$
=
 OpenBabel11062420413D

 60 67  0  0  1  0  0  0  0  0999 V2000
  189.3920  171.6600  141.3160 N   0  0  0  0  0  0  0  0  0  0  0  0
  188.4620  172.4920  141.9300 N   0  0  0  0  0  2  0  0  0  0  0  0
  190.8930  174.6460  141.6280 C   0  0  0  0  0  2  0  0  0  0  0  0
  192.2190  173.0110  139.3100 C   0  0  0  0  0  2  0  0  0  0  0  0
  191.0400  175.0350  143.9600 C   0  0  1  0  0  3  0  0  0  0  0  0
  190.6770  172.3720  137.5260 C   0  0  1  0  0  3  0  0  0  0  0  0
  193.0940  170.0310  139.8190 N   0  0  0  0  0  2  0  0  0  0  0  0
  195.2950  170.7000  144.1610 C   0  0  0  0  0  2  0  0  0  0  0  0
  193.7490  172.2400  145.4150 C   0  0  0  0  0  2  0  0  0  0  0  0
  194.8980  171.2390  145.5290 C   0  0  2  0  0  3  0  0  0  0  0  0
  192.2010  170.8760  140.5530 C   0  0  0  0  0  0  0  0  0  0  0  0
  191.9140  174.6580  145.1720 C   0  0  1  0  0  3  0  0  0  0  0  0
  190.2110  172.4140  140.6860 C   0  0  0  0  0  0  0  0  0  0  0  0
  196.1450  169.4470  144.3000 C   0  0  0  0  0  2  0  0  0  0  0  0
  191.3380  171.8740  139.8130 C   0  0  1  0  0  0  0  0  0  0  0  0
  188.6230  173.8130  141.6410 O   0  0  0  0  0  0  0  0  0  0  0  0
  192.1650  170.8080  141.8120 O   0  0  0  0  0  0  0  0  0  0  0  0
  190.8000  171.2420  138.5250 C   0  0  1  0  0  3  0  0  0  0  0  0
  193.8880  168.9810  140.4410 C   0  0  0  0  0  2  0  0  0  0  0  0
  194.9970  169.5860  141.2810 C   0  0  0  0  0  2  0  0  0  0  0  0
  189.5760  170.5890  138.6980 O   0  0  0  0  0  1  0  0  0  0  0  0
  193.8130  173.1740  143.2050 O   0  0  0  0  0  1  0  0  0  0  0  0
  193.4530  174.7350  145.0270 C   0  0  1  0  0  3  0  0  0  0  0  0
  195.9970  171.8450  146.1360 O   0  0  0  0  0  1  0  0  0  0  0  0
  195.7360  168.4780  142.0080 C   0  0  0  0  0  2  0  0  0  0  0  0
  194.1150  173.4370  144.5410 C   0  0  1  0  0  3  0  0  0  0  0  0
  196.7670  169.0640  142.9610 C   0  0  0  0  0  2  0  0  0  0  0  0
  191.6960  173.4220  137.9380 C   0  0  0  0  0  2  0  0  0  0  0  0
  191.2070  174.0340  142.9140 N   0  0  0  0  0  2  0  0  0  0  0  0
  189.8220  173.8450  140.8840 C   0  0  1  0  0  3  0  0  0  0  0  0
  193.4240  177.3350  144.6920 C   0  0  0  0  0  2  0  0  0  0  0  0
  194.0460  175.9890  144.3580 C   0  0  0  0  0  0  0  0  0  0  0  0
  194.6820  176.8990  145.4010 C   0  0  0  0  0  2  0  0  0  0  0  0
  194.9780  175.8780  143.1520 C   0  0  0  0  0  2  0  0  0  0  0  0
  196.9980  177.1440  143.2720 O   0  0  0  0  0  0  0  0  0  0  0  0
  196.4110  176.0600  143.5210 C   0  0  0  0  0  0  0  0  0  0  0  0
  197.0980  175.0360  144.1570 O   0  0  0  0  0  1  0  0  0  0  0  0
  190.9050  171.8910  136.0950 C   0  0  0  0  0  2  0  0  0  0  0  0
  192.1010  170.3130  134.7540 C   0  0  2  0  0  3  0  0  0  0  0  0
  191.4900  170.5520  136.0730 N   0  0  0  0  0  0  0  0  0  0  0  0
  192.9460  170.7010  135.8860 C   0  0  2  0  0  3  0  0  0  0  0  0
  193.2610  171.2580  134.5140 C   0  0  0  0  0  2  0  0  0  0  0  0
  191.3830  175.0040  146.5760 C   0  0  0  0  0  2  0  0  0  0  0  0
  190.0900  176.9640  147.4570 C   0  0  0  0  0  2  0  0  0  0  0  0
  191.6280  177.6010  149.0190 N   0  0  0  0  0  2  0  0  0  0  0  0
  192.3090  176.7300  148.1420 N   0  0  0  0  0  2  0  0  0  0  0  0
  191.4190  176.4730  147.0240 C   0  0  1  0  0  3  0  0  0  0  0  0
  190.4140  177.9940  148.4160 N   0  0  0  0  0  2  0  0  0  0  0  0
  189.5600  175.1150  144.3260 C   0  0  0  0  0  2  0  0  0  0  0  0
  189.0890  176.5580  144.2390 C   0  0  0  0  0  2  0  0  0  0  0  0
  188.0040  176.7060  143.1910 C   0  0  0  0  0  2  0  0  0  0  0  0
  186.6650  176.2030  143.7080 C   0  0  0  0  0  2  0  0  0  0  0  0
  186.0600  176.4640  146.0530 C   0  0  0  0  0  2  0  0  0  0  0  0
  186.2170  177.0470  144.8620 C   0  0  0  0  0  0  0  0  0  0  0  0
  185.9280  178.5190  144.6400 C   0  0  1  0  0  3  0  0  0  0  0  0
  184.5790  177.7120  142.7100 C   0  0  0  0  0  2  0  0  0  0  0  0
  185.1890  179.0390  142.3220 C   0  0  0  0  0  2  0  0  0  0  0  0
  184.7200  178.8080  143.7470 C   0  0  0  0  0  3  0  0  0  0  0  0
  185.8650  179.3010  145.9540 C   0  0  0  0  0  2  0  0  0  0  0  0
  184.6800  178.8930  146.8200 C   0  0  0  0  0  1  0  0  0  0  0  0
  1  2  1  0  0  0  0
  3 29  1  0  0  0  0
  5 49  1  1  0  0  0
  5 12  1  0  0  0  0
  6 38  1  6  0  0  0
  6 28  1  0  0  0  0
  6 18  1  0  0  0  0
  7 19  1  0  0  0  0
  7 11  1  0  0  0  0
  8 14  1  0  0  0  0
  8 10  1  0  0  0  0
  9 10  1  0  0  0  0
 10 24  1  6  0  0  0
 11 17  2  0  0  0  0
 12 43  1  1  0  0  0
 13 30  1  0  0  0  0
 13  1  2  0  0  0  0
 15  4  1  6  0  0  0
 15 11  1  0  0  0  0
 15 13  1  0  0  0  0
 16  2  1  0  0  0  0
 18 21  1  1  0  0  0
 18 15  1  0  0  0  0
 19 20  1  0  0  0  0
 20 25  1  0  0  0  0
 23 32  1  6  0  0  0
 23 12  1  0  0  0  0
 25 27  1  0  0  0  0
 26 22  1  6  0  0  0
 26 23  1  0  0  0  0
 26  9  1  0  0  0  0
 27 14  1  0  0  0  0
 28  4  1  0  0  0  0
 29  5  1  0  0  0  0
 30  3  1  1  0  0  0
 30 16  1  0  0  0  0
 31 33  1  0  0  0  0
 32 31  1  0  0  0  0
 32 33  1  0  0  0  0
 34 36  1  0  0  0  0
 34 32  1  0  0  0  0
 35 36  2  0  0  0  0
 36 37  1  0  0  0  0
 39 42  1  6  0  0  0
 39 41  1  0  0  0  0
 39 40  1  0  0  0  0
 40 38  1  0  0  0  0
 41 42  1  6  0  0  0
 41 40  1  0  0  0  0
 44 48  1  0  0  0  0
 46 45  1  0  0  0  0
 47 43  1  1  0  0  0
 47 44  1  0  0  0  0
 47 46  1  0  0  0  0
 48 45  1  0  0  0  0
 50 49  1  0  0  0  0
 51 52  1  0  0  0  0
 51 50  1  0  0  0  0
 52 54  1  0  0  0  0
 54 53  2  0  0  0  0
 55 54  1  0  0  0  0
 55 59  1  1  0  0  0
 56 58  1  0  0  0  0
 57 56  1  0  0  0  0
 57 58  1  0  0  0  0
 58 55  1  0  0  0  0
 59 60  1  0  0  0  0
M  END
>  <MODEL>
6

>  <REMARK>
 VINA RESULT:      -4.7      2.583      7.291
  Name = 
  15 active torsions:
  status: ('A' for Active; 'I' for Inactive)
    1  A    between atoms: C_9  and  C_56
    2  A    between atoms: C_10  and  C_31
    3  A    between atoms: C_10  and  C_45
    4  A    between atoms: C_11  and  C_13
    5  A    between atoms: C_13  and  N_20
    6  A    between atoms: C_14  and  C_30
    7  A    between atoms: C_14  and  C_42
    8  A    between atoms: C_14  and  C_57
    9  A    between atoms: C_22  and  C_33
   10  A    between atoms: C_31  and  C_42
   11  A    between atoms: C_33  and  C_52
   12  A    between atoms: C_34  and  C_35
   13  A    between atoms: C_34  and  C_36
   14  A    between atoms: C_35  and  C_48
   15  A    between atoms: C_45  and  C_56
                            x       y       z     vdW  Elec       q    Type
                         _______ _______ _______ _____ _____    ______ ____

>  <TORSDO>
F 15

$$$$
=
 OpenBabel11062420413D

 60 67  0  0  1  0  0  0  0  0999 V2000
  188.1430  173.0030  142.5280 N   0  0  0  0  0  0  0  0  0  0  0  0
  188.8200  172.0240  143.2460 N   0  0  0  0  0  2  0  0  0  0  0  0
  191.3830  173.8750  142.4400 C   0  0  0  0  0  2  0  0  0  0  0  0
  189.5770  176.3920  141.9820 C   0  0  0  0  0  2  0  0  0  0  0  0
  192.4750  172.1240  141.2780 C   0  0  1  0  0  3  0  0  0  0  0  0
  188.0250  176.8570  143.8110 C   0  0  1  0  0  3  0  0  0  0  0  0
  187.2600  176.2710  139.8550 N   0  0  0  0  0  2  0  0  0  0  0  0
  189.7900  174.1480  136.2160 C   0  0  0  0  0  2  0  0  0  0  0  0
  191.1290  172.3460  137.3520 C   0  0  0  0  0  2  0  0  0  0  0  0
  190.5760  172.8580  136.0230 C   0  0  2  0  0  3  0  0  0  0  0  0
  187.9970  175.2180  140.4890 C   0  0  0  0  0  0  0  0  0  0  0  0
  192.7400  171.6420  139.8390 C   0  0  1  0  0  3  0  0  0  0  0  0
  188.8740  174.0520  142.5420 C   0  0  0  0  0  0  0  0  0  0  0  0
  188.9300  174.4420  134.9970 C   0  0  0  0  0  2  0  0  0  0  0  0
  188.4410  175.3770  141.9260 C   0  0  1  0  0  0  0  0  0  0  0  0
  189.9840  172.4540  143.8080 O   0  0  0  0  0  0  0  0  0  0  0  0
  188.3010  174.1830  139.8360 O   0  0  0  0  0  0  0  0  0  0  0  0
  187.3280  176.0410  142.7440 C   0  0  1  0  0  3  0  0  0  0  0  0
  186.7140  176.1610  138.5100 C   0  0  0  0  0  2  0  0  0  0  0  0
  187.8310  176.1930  137.4830 C   0  0  0  0  0  2  0  0  0  0  0  0
  186.4380  175.1260  143.3120 O   0  0  0  0  0  1  0  0  0  0  0  0
  191.3390  174.2280  138.8280 O   0  0  0  0  0  1  0  0  0  0  0  0
  193.2040  172.6760  138.7850 C   0  0  1  0  0  3  0  0  0  0  0  0
  191.6220  173.0710  135.1260 O   0  0  0  0  0  1  0  0  0  0  0  0
  187.2480  175.9620  136.1020 C   0  0  0  0  0  2  0  0  0  0  0  0
  192.0630  173.3570  138.0140 C   0  0  1  0  0  3  0  0  0  0  0  0
  188.3580  175.8550  135.0670 C   0  0  0  0  0  2  0  0  0  0  0  0
  189.3940  177.2130  143.2540 C   0  0  0  0  0  2  0  0  0  0  0  0
  191.2970  172.9830  141.2900 N   0  0  0  0  0  2  0  0  0  0  0  0
  190.1270  173.7740  143.3100 C   0  0  1  0  0  3  0  0  0  0  0  0
  195.7270  173.1190  139.3420 C   0  0  0  0  0  2  0  0  0  0  0  0
  194.3150  173.6610  139.1920 C   0  0  0  0  0  0  0  0  0  0  0  0
  195.3280  173.8160  138.0660 C   0  0  0  0  0  2  0  0  0  0  0  0
  193.9820  175.0400  139.7620 C   0  0  0  0  0  2  0  0  0  0  0  0
  194.7980  174.7520  141.9870 O   0  0  0  0  0  1  0  0  0  0  0  0
  194.8560  175.4050  140.9150 C   0  0  0  0  0  0  0  0  0  0  0  0
  195.7480  176.4620  140.7990 O   0  0  0  0  0  0  0  0  0  0  0  0
  187.2250  178.1020  144.1860 C   0  0  0  0  0  2  0  0  0  0  0  0
  184.8980  178.4740  143.7770 C   0  0  2  0  0  3  0  0  0  0  0  0
  186.2360  178.4260  143.1610 N   0  0  0  0  0  0  0  0  0  0  0  0
  185.6250  179.7200  143.5170 C   0  0  2  0  0  3  0  0  0  0  0  0
  184.8080  179.6020  144.7850 C   0  0  0  0  0  2  0  0  0  0  0  0
  193.3240  170.2280  139.6510 C   0  0  0  0  0  2  0  0  0  0  0  0
  195.5780  169.2620  139.1230 C   0  0  0  0  0  2  0  0  0  0  0  0
  195.0130  168.3990  137.0870 N   0  0  0  0  0  2  0  0  0  0  0  0
  193.9910  169.3170  137.4130 N   0  0  0  0  0  2  0  0  0  0  0  0
  194.4260  170.0320  138.5990 C   0  0  1  0  0  3  0  0  0  0  0  0
  196.1120  168.6200  137.9450 N   0  0  0  0  0  2  0  0  0  0  0  0
  192.2380  170.9580  142.2370 C   0  0  0  0  0  2  0  0  0  0  0  0
  193.5520  170.5520  142.8820 C   0  0  0  0  0  2  0  0  0  0  0  0
  194.1790  171.7260  143.6090 C   0  0  0  0  0  2  0  0  0  0  0  0
  194.1320  171.5310  145.1160 C   0  0  0  0  0  2  0  0  0  0  0  0
  196.0510  172.8540  145.8240 C   0  0  0  0  0  2  0  0  0  0  0  0
  195.5130  171.6390  145.6850 C   0  0  0  0  0  0  0  0  0  0  0  0
  196.2670  170.3760  146.0570 C   0  0  1  0  0  3  0  0  0  0  0  0
  194.6100  169.3290  147.5930 C   0  0  0  0  0  2  0  0  0  0  0  0
  195.8370  168.4470  147.5670 C   0  0  0  0  0  2  0  0  0  0  0  0
  195.3850  169.1510  146.3020 C   0  0  0  0  0  3  0  0  0  0  0  0
  197.4050  170.0730  145.0780 C   0  0  0  0  0  2  0  0  0  0  0  0
  196.9430  169.2510  143.8820 C   0  0  0  0  0  1  0  0  0  0  0  0
  1 13  2  0  0  0  0
  1  2  1  0  0  0  0
  2 16  1  0  0  0  0
  4 28  1  0  0  0  0
  5 29  1  0  0  0  0
  5 49  1  1  0  0  0
  6 38  1  6  0  0  0
  7 11  1  0  0  0  0
  9 26  1  0  0  0  0
 10 24  1  6  0  0  0
 10  8  1  0  0  0  0
 10  9  1  0  0  0  0
 11 15  1  0  0  0  0
 12 43  1  1  0  0  0
 12  5  1  0  0  0  0
 13 30  1  0  0  0  0
 14 27  1  0  0  0  0
 14  8  1  0  0  0  0
 15  4  1  1  0  0  0
 15 13  1  0  0  0  0
 15 18  1  0  0  0  0
 17 11  2  0  0  0  0
 18 21  1  1  0  0  0
 18  6  1  0  0  0  0
 19  7  1  0  0  0  0
 20 19  1  0  0  0  0
 23 32  1  1  0  0  0
 23 12  1  0  0  0  0
 25 20  1  0  0  0  0
 26 23  1  0  0  0  0
 26 22  1  1  0  0  0
 27 25  1  0  0  0  0
 28  6  1  0  0  0  0
 29  3  1  0  0  0  0
 30  3  1  6  0  0  0
 30 16  1  0  0  0  0
 32 31  1  0  0  0  0
 32 34  1  0  0  0  0
 33 32  1  0  0  0  0
 33 31  1  0  0  0  0
 34 36  1  0  0  0  0
 36 35  1  0  0  0  0
 37 36  2  0  0  0  0
 39 42  1  1  0  0  0
 40 41  1  0  0  0  0
 40 39  1  0  0  0  0
 40 38  1  0  0  0  0
 41 39  1  0  0  0  0
 41 42  1  1  0  0  0
 45 46  1  0  0  0  0
 45 48  1  0  0  0  0
 46 47  1  0  0  0  0
 47 44  1  0  0  0  0
 47 43  1  1  0  0  0
 48 44  1  0  0  0  0
 49 50  1  0  0  0  0
 50 51  1  0  0  0  0
 51 52  1  0  0  0  0
 52 54  1  0  0  0  0
 54 53  2  0  0  0  0
 54 55  1  0  0  0  0
 55 59  1  6  0  0  0
 55 58  1  0  0  0  0
 57 56  1  0  0  0  0
 58 57  1  0  0  0  0
 58 56  1  0  0  0  0
 60 59  1  0  0  0  0
M  END
>  <MODEL>
7

>  <REMARK>
 VINA RESULT:      -4.6      2.230      4.037
  Name = 
  15 active torsions:
  status: ('A' for Active; 'I' for Inactive)
    1  A    between atoms: C_9  and  C_56
    2  A    between atoms: C_10  and  C_31
    3  A    between atoms: C_10  and  C_45
    4  A    between atoms: C_11  and  C_13
    5  A    between atoms: C_13  and  N_20
    6  A    between atoms: C_14  and  C_30
    7  A    between atoms: C_14  and  C_42
    8  A    between atoms: C_14  and  C_57
    9  A    between atoms: C_22  and  C_33
   10  A    between atoms: C_31  and  C_42
   11  A    between atoms: C_33  and  C_52
   12  A    between atoms: C_34  and  C_35
   13  A    between atoms: C_34  and  C_36
   14  A    between atoms: C_35  and  C_48
   15  A    between atoms: C_45  and  C_56
                            x       y       z     vdW  Elec       q    Type
                         _______ _______ _______ _____ _____    ______ ____

>  <TORSDO>
F 15

$$$$
=
 OpenBabel11062420413D

 60 67  0  0  1  0  0  0  0  0999 V2000
  191.5010  170.8130  142.2590 N   0  0  0  0  0  0  0  0  0  0  0  0
  190.6450  170.6890  143.3480 N   0  0  0  0  0  2  0  0  0  0  0  0
  189.8530  173.7300  142.4710 C   0  0  0  0  0  2  0  0  0  0  0  0
  190.8940  173.2900  139.5500 C   0  0  0  0  0  2  0  0  0  0  0  0
  190.4810  174.6580  144.5570 C   0  0  1  0  0  3  0  0  0  0  0  0
  190.0590  171.2560  138.4850 C   0  0  1  0  0  3  0  0  0  0  0  0
  193.8980  172.4760  139.0820 N   0  0  0  0  0  2  0  0  0  0  0  0
  195.9640  175.7050  142.1550 C   0  0  0  0  0  2  0  0  0  0  0  0
  194.5030  175.6450  144.2020 C   0  0  0  0  0  2  0  0  0  0  0  0
  195.8680  176.0370  143.6390 C   0  0  2  0  0  3  0  0  0  0  0  0
  193.0920  172.4190  140.2660 C   0  0  0  0  0  0  0  0  0  0  0  0
  191.6320  175.4550  145.2010 C   0  0  1  0  0  3  0  0  0  0  0  0
  191.0120  171.7180  141.4990 C   0  0  0  0  0  0  0  0  0  0  0  0
  197.4120  175.7270  141.6920 C   0  0  0  0  0  2  0  0  0  0  0  0
  191.6200  172.0930  140.1520 C   0  0  1  0  0  0  0  0  0  0  0  0
  189.5320  171.4700  143.2710 O   0  0  0  0  0  0  0  0  0  0  0  0
  193.6070  172.6760  141.3880 O   0  0  0  0  0  0  0  0  0  0  0  0
  191.4100  170.9880  139.1120 C   0  0  1  0  0  3  0  0  0  0  0  0
  195.3380  172.6880  139.1100 C   0  0  0  0  0  2  0  0  0  0  0  0
  195.6530  174.1180  139.5080 C   0  0  0  0  0  2  0  0  0  0  0  0
  191.4670  169.7010  139.6530 O   0  0  0  0  0  1  0  0  0  0  0  0
  192.9360  175.6440  142.3830 O   0  0  0  0  0  1  0  0  0  0  0  0
  192.1940  176.6840  144.4470 C   0  0  1  0  0  3  0  0  0  0  0  0
  196.0890  177.3990  143.8350 O   0  0  0  0  0  1  0  0  0  0  0  0
  197.1550  174.2820  139.6410 C   0  0  0  0  0  2  0  0  0  0  0  0
  193.3600  176.3710  143.4960 C   0  0  1  0  0  3  0  0  0  0  0  0
  197.4940  175.6680  140.1690 C   0  0  0  0  0  2  0  0  0  0  0  0
  189.8110  172.7490  138.6240 C   0  0  0  0  0  2  0  0  0  0  0  0
  190.9750  173.9710  143.3700 N   0  0  0  0  0  2  0  0  0  0  0  0
  189.7500  172.2460  142.1040 C   0  0  1  0  0  3  0  0  0  0  0  0
  190.3880  178.5530  144.7900 C   0  0  0  0  0  2  0  0  0  0  0  0
  191.1830  177.6730  143.8390 C   0  0  0  0  0  0  0  0  0  0  0  0
  191.6140  179.1090  144.1100 C   0  0  0  0  0  2  0  0  0  0  0  0
  190.7300  177.5500  142.3850 C   0  0  0  0  0  2  0  0  0  0  0  0
  188.7590  178.6690  141.6370 O   0  0  0  0  0  0  0  0  0  0  0  0
  189.2510  177.6800  142.2360 C   0  0  0  0  0  0  0  0  0  0  0  0
  188.4150  176.6970  142.7460 O   0  0  0  0  0  1  0  0  0  0  0  0
  190.0110  170.8070  137.0270 C   0  0  0  0  0  2  0  0  0  0  0  0
  191.9350  170.6380  135.6160 C   0  0  2  0  0  3  0  0  0  0  0  0
  190.9550  171.5640  136.2070 N   0  0  0  0  0  0  0  0  0  0  0  0
  190.8040  171.1100  134.8120 C   0  0  2  0  0  3  0  0  0  0  0  0
  191.2610  169.6750  134.6590 C   0  0  0  0  0  2  0  0  0  0  0  0
  191.6460  175.5830  146.7360 C   0  0  0  0  0  2  0  0  0  0  0  0
  190.2520  177.4570  147.6510 C   0  0  0  0  0  2  0  0  0  0  0  0
  191.5660  177.8880  149.4670 N   0  0  0  0  0  2  0  0  0  0  0  0
  192.3560  177.1070  148.5960 N   0  0  0  0  0  2  0  0  0  0  0  0
  191.6250  176.9930  147.3470 C   0  0  1  0  0  3  0  0  0  0  0  0
  190.4460  178.3680  148.7550 N   0  0  0  0  0  2  0  0  0  0  0  0
  189.9000  173.6190  145.5140 C   0  0  0  0  0  2  0  0  0  0  0  0
  188.8920  174.2830  146.4380 C   0  0  0  0  0  2  0  0  0  0  0  0
  188.2040  175.4390  145.7390 C   0  0  0  0  0  2  0  0  0  0  0  0
  187.6110  176.4170  146.7420 C   0  0  0  0  0  2  0  0  0  0  0  0
  185.1870  176.3770  146.5150 C   0  0  0  0  0  2  0  0  0  0  0  0
  186.3350  176.9850  146.2040 C   0  0  0  0  0  0  0  0  0  0  0  0
  186.3830  178.2060  145.3050 C   0  0  1  0  0  3  0  0  0  0  0  0
  185.7280  179.3490  143.1920 C   0  0  0  0  0  2  0  0  0  0  0  0
  184.4640  179.0420  143.9610 C   0  0  0  0  0  2  0  0  0  0  0  0
  185.6220  178.0620  143.9860 C   0  0  0  0  0  3  0  0  0  0  0  0
  185.9970  179.4880  146.0480 C   0  0  0  0  0  2  0  0  0  0  0  0
  185.9410  179.2930  147.5570 C   0  0  0  0  0  1  0  0  0  0  0  0
  1  2  1  0  0  0  0
  3 29  1  0  0  0  0
  5 12  1  0  0  0  0
  5 49  1  1  0  0  0
  6 38  1  6  0  0  0
  6 28  1  0  0  0  0
  6 18  1  0  0  0  0
  7 19  1  0  0  0  0
  7 11  1  0  0  0  0
  8 10  1  0  0  0  0
 10 24  1  6  0  0  0
 10  9  1  0  0  0  0
 11 17  2  0  0  0  0
 12 43  1  1  0  0  0
 13 30  1  0  0  0  0
 13  1  2  0  0  0  0
 14  8  1  0  0  0  0
 15  4  1  6  0  0  0
 15 11  1  0  0  0  0
 15 13  1  0  0  0  0
 16  2  1  0  0  0  0
 18 21  1  1  0  0  0
 18 15  1  0  0  0  0
 19 20  1  0  0  0  0
 20 25  1  0  0  0  0
 23 32  1  6  0  0  0
 23 12  1  0  0  0  0
 25 27  1  0  0  0  0
 26 22  1  6  0  0  0
 26  9  1  0  0  0  0
 26 23  1  0  0  0  0
 27 14  1  0  0  0  0
 28  4  1  0  0  0  0
 29  5  1  0  0  0  0
 30  3  1  1  0  0  0
 30 16  1  0  0  0  0
 32 33  1  0  0  0  0
 32 31  1  0  0  0  0
 33 31  1  0  0  0  0
 34 32  1  0  0  0  0
 35 36  2  0  0  0  0
 36 34  1  0  0  0  0
 36 37  1  0  0  0  0
 39 42  1  1  0  0  0
 39 40  1  0  0  0  0
 40 38  1  0  0  0  0
 41 42  1  1  0  0  0
 41 39  1  0  0  0  0
 41 40  1  0  0  0  0
 44 48  1  0  0  0  0
 46 45  1  0  0  0  0
 47 43  1  1  0  0  0
 47 44  1  0  0  0  0
 47 46  1  0  0  0  0
 48 45  1  0  0  0  0
 49 50  1  0  0  0  0
 51 50  1  0  0  0  0
 51 52  1  0  0  0  0
 54 53  2  0  0  0  0
 54 52  1  0  0  0  0
 55 59  1  1  0  0  0
 55 54  1  0  0  0  0
 56 57  1  0  0  0  0
 56 58  1  0  0  0  0
 57 58  1  0  0  0  0
 58 55  1  0  0  0  0
 59 60  1  0  0  0  0
M  END
>  <MODEL>
8

>  <REMARK>
 VINA RESULT:      -4.5      2.697      7.263
  Name = 
  15 active torsions:
  status: ('A' for Active; 'I' for Inactive)
    1  A    between atoms: C_9  and  C_56
    2  A    between atoms: C_10  and  C_31
    3  A    between atoms: C_10  and  C_45
    4  A    between atoms: C_11  and  C_13
    5  A    between atoms: C_13  and  N_20
    6  A    between atoms: C_14  and  C_30
    7  A    between atoms: C_14  and  C_42
    8  A    between atoms: C_14  and  C_57
    9  A    between atoms: C_22  and  C_33
   10  A    between atoms: C_31  and  C_42
   11  A    between atoms: C_33  and  C_52
   12  A    between atoms: C_34  and  C_35
   13  A    between atoms: C_34  and  C_36
   14  A    between atoms: C_35  and  C_48
   15  A    between atoms: C_45  and  C_56
                            x       y       z     vdW  Elec       q    Type
                         _______ _______ _______ _____ _____    ______ ____

>  <TORSDO>
F 15

$$$$
=
 OpenBabel11062420413D

 60 67  0  0  1  0  0  0  0  0999 V2000
  189.4370  175.5530  141.5940 N   0  0  0  0  0  0  0  0  0  0  0  0
  188.6380  174.8430  140.7050 N   0  0  0  0  0  2  0  0  0  0  0  0
  189.8060  172.3180  142.4080 C   0  0  0  0  0  2  0  0  0  0  0  0
  190.4820  174.1320  144.8700 C   0  0  0  0  0  2  0  0  0  0  0  0
  190.7940  171.3000  140.5110 C   0  0  1  0  0  3  0  0  0  0  0  0
  188.6460  175.5800  145.5800 C   0  0  1  0  0  3  0  0  0  0  0  0
  192.4510  176.5620  144.5100 N   0  0  0  0  0  2  0  0  0  0  0  0
  195.9210  174.2450  141.9150 C   0  0  0  0  0  2  0  0  0  0  0  0
  194.6400  172.8560  140.2550 C   0  0  0  0  0  2  0  0  0  0  0  0
  195.9920  173.4770  140.6020 C   0  0  2  0  0  3  0  0  0  0  0  0
  191.7290  175.7970  143.5370 C   0  0  0  0  0  0  0  0  0  0  0  0
  192.1730  171.1160  139.8490 C   0  0  1  0  0  3  0  0  0  0  0  0
  189.5950  174.8160  142.6270 C   0  0  0  0  0  0  0  0  0  0  0  0
  197.1210  175.1680  142.0650 C   0  0  0  0  0  2  0  0  0  0  0  0
  190.3490  175.2750  143.8700 C   0  0  1  0  0  0  0  0  0  0  0  0
  188.1970  173.6480  141.1880 O   0  0  0  0  0  0  0  0  0  0  0  0
  192.2610  175.5350  142.4240 O   0  0  0  0  0  0  0  0  0  0  0  0
  189.5630  176.3380  144.6450 C   0  0  1  0  0  3  0  0  0  0  0  0
  193.7400  177.1800  144.2380 C   0  0  0  0  0  2  0  0  0  0  0  0
  194.8210  176.1210  144.1270 C   0  0  0  0  0  2  0  0  0  0  0  0
  188.8380  177.2010  143.8200 O   0  0  0  0  0  1  0  0  0  0  0  0
  193.4270  172.5560  142.3050 O   0  0  0  0  0  1  0  0  0  0  0  0
  193.3730  170.7040  140.7370 C   0  0  1  0  0  3  0  0  0  0  0  0
  196.9630  172.4810  140.6870 O   0  0  0  0  0  1  0  0  0  0  0  0
  196.1290  176.7800  143.7310 C   0  0  0  0  0  2  0  0  0  0  0  0
  194.1620  171.8820  141.3290 C   0  0  1  0  0  3  0  0  0  0  0  0
  197.2000  175.7280  143.4820 C   0  0  0  0  0  2  0  0  0  0  0  0
  189.3160  174.2410  145.8460 C   0  0  0  0  0  2  0  0  0  0  0  0
  190.8290  172.4700  141.3790 N   0  0  0  0  0  2  0  0  0  0  0  0
  188.8650  173.5250  142.4330 C   0  0  1  0  0  3  0  0  0  0  0  0
  191.7510  168.9950  141.8870 C   0  0  0  0  0  2  0  0  0  0  0  0
  193.1530  169.5670  141.7520 C   0  0  0  0  0  0  0  0  0  0  0  0
  192.7690  168.2800  141.0340 C   0  0  0  0  0  2  0  0  0  0  0  0
  194.1930  169.2530  142.8270 C   0  0  0  0  0  2  0  0  0  0  0  0
  194.8680  170.5880  144.6860 O   0  0  0  0  0  1  0  0  0  0  0  0
  193.9340  169.9850  144.1000 C   0  0  0  0  0  0  0  0  0  0  0  0
  192.6530  170.0140  144.6340 O   0  0  0  0  0  0  0  0  0  0  0  0
  188.3900  176.3520  146.8720 C   0  0  0  0  0  2  0  0  0  0  0  0
  186.4230  177.5060  147.5930 C   0  0  2  0  0  3  0  0  0  0  0  0
  187.0110  176.1820  147.3250 N   0  0  0  0  0  0  0  0  0  0  0  0
  186.1290  176.8220  146.3310 C   0  0  2  0  0  3  0  0  0  0  0  0
  186.3260  178.3220  146.3190 C   0  0  0  0  0  2  0  0  0  0  0  0
  192.2120  170.5500  138.4160 C   0  0  0  0  0  2  0  0  0  0  0  0
  194.4470  169.6980  137.6610 C   0  0  0  0  0  2  0  0  0  0  0  0
  194.1950  170.2430  135.4590 N   0  0  0  0  0  2  0  0  0  0  0  0
  193.2020  170.9680  136.1510 N   0  0  0  0  0  2  0  0  0  0  0  0
  193.4680  170.8060  137.5690 C   0  0  1  0  0  3  0  0  0  0  0  0
  195.1350  169.7570  136.3930 N   0  0  0  0  0  2  0  0  0  0  0  0
  189.6850  171.4910  139.4790 C   0  0  0  0  0  2  0  0  0  0  0  0
  189.7070  172.9210  138.9650 C   0  0  0  0  0  2  0  0  0  0  0  0
  190.3060  172.9820  137.5740 C   0  0  0  0  0  2  0  0  0  0  0  0
  191.4260  174.0080  137.4990 C   0  0  0  0  0  2  0  0  0  0  0  0
  191.0000  173.7760  135.1120 C   0  0  0  0  0  2  0  0  0  0  0  0
  191.8050  174.2440  136.0700 C   0  0  0  0  0  0  0  0  0  0  0  0
  193.0960  174.9740  135.7520 C   0  0  1  0  0  3  0  0  0  0  0  0
  192.0050  177.1280  135.1440 C   0  0  0  0  0  2  0  0  0  0  0  0
  193.4630  177.2250  134.7560 C   0  0  0  0  0  2  0  0  0  0  0  0
  193.0620  176.4810  136.0170 C   0  0  0  0  0  3  0  0  0  0  0  0
  194.3130  174.3090  136.4010 C   0  0  0  0  0  2  0  0  0  0  0  0
  195.0250  175.2280  137.3850 C   0  0  0  0  0  1  0  0  0  0  0  0
  1 13  2  0  0  0  0
  2 16  1  0  0  0  0
  2  1  1  0  0  0  0
  4 28  1  0  0  0  0
  5 49  1  6  0  0  0
  5 29  1  0  0  0  0
  6 28  1  0  0  0  0
  6 38  1  1  0  0  0
  8 14  1  0  0  0  0
  9 10  1  0  0  0  0
  9 26  1  0  0  0  0
 10 24  1  1  0  0  0
 10  8  1  0  0  0  0
 11 15  1  0  0  0  0
 11  7  1  0  0  0  0
 12 43  1  6  0  0  0
 12  5  1  0  0  0  0
 12 23  1  0  0  0  0
 13 15  1  0  0  0  0
 14 27  1  0  0  0  0
 15 18  1  0  0  0  0
 15  4  1  1  0  0  0
 16 30  1  0  0  0  0
 17 11  2  0  0  0  0
 18 21  1  6  0  0  0
 18  6  1  0  0  0  0
 19  7  1  0  0  0  0
 20 19  1  0  0  0  0
 23 26  1  0  0  0  0
 23 32  1  1  0  0  0
 25 20  1  0  0  0  0
 26 22  1  1  0  0  0
 27 25  1  0  0  0  0
 29  3  1  0  0  0  0
 30  3  1  6  0  0  0
 30 13  1  0  0  0  0
 32 31  1  0  0  0  0
 32 34  1  0  0  0  0
 33 32  1  0  0  0  0
 33 31  1  0  0  0  0
 34 36  1  0  0  0  0
 36 37  2  0  0  0  0
 36 35  1  0  0  0  0
 38 40  1  0  0  0  0
 39 42  1  6  0  0  0
 40 39  1  0  0  0  0
 41 42  1  6  0  0  0
 41 40  1  0  0  0  0
 41 39  1  0  0  0  0
 45 46  1  0  0  0  0
 45 48  1  0  0  0  0
 46 47  1  0  0  0  0
 47 44  1  0  0  0  0
 47 43  1  1  0  0  0
 48 44  1  0  0  0  0
 50 49  1  0  0  0  0
 51 50  1  0  0  0  0
 52 51  1  0  0  0  0
 53 54  2  0  0  0  0
 54 52  1  0  0  0  0
 55 58  1  0  0  0  0
 55 54  1  0  0  0  0
 55 59  1  1  0  0  0
 56 58  1  0  0  0  0
 57 56  1  0  0  0  0
 57 58  1  0  0  0  0
 59 60  1  0  0  0  0
M  END
>  <MODEL>
9

>  <REMARK>
 VINA RESULT:      -4.1      2.591      6.641
  Name = 
  15 active torsions:
  status: ('A' for Active; 'I' for Inactive)
    1  A    between atoms: C_9  and  C_56
    2  A    between atoms: C_10  and  C_31
    3  A    between atoms: C_10  and  C_45
    4  A    between atoms: C_11  and  C_13
    5  A    between atoms: C_13  and  N_20
    6  A    between atoms: C_14  and  C_30
    7  A    between atoms: C_14  and  C_42
    8  A    between atoms: C_14  and  C_57
    9  A    between atoms: C_22  and  C_33
   10  A    between atoms: C_31  and  C_42
   11  A    between atoms: C_33  and  C_52
   12  A    between atoms: C_34  and  C_35
   13  A    between atoms: C_34  and  C_36
   14  A    between atoms: C_35  and  C_48
   15  A    between atoms: C_45  and  C_56
                            x       y       z     vdW  Elec       q    Type
                         _______ _______ _______ _____ _____    ______ ____

>  <TORSDO>
F 15

$$$$
