=
 OpenBabel11062419543D

 28 31  0  0  1  0  0  0  0  0999 V2000
  187.2310  177.3000  143.0590 C   0  0  0  0  0  0  0  0  0  0  0  0
  185.6740  177.3310  141.2000 N   0  0  0  0  0  0  0  0  0  0  0  0
  183.5470  178.2060  141.4800 O   0  0  0  0  0  0  0  0  0  0  0  0
  185.8280  179.1270  147.5350 C   0  0  0  0  0  1  0  0  0  0  0  0
  187.8270  176.3900  140.7180 C   0  0  0  0  0  1  0  0  0  0  0  0
  186.2080  177.9400  143.9520 C   0  0  0  0  0  0  0  0  0  0  0  0
  185.5150  178.8280  146.1130 C   0  0  0  0  0  0  0  0  0  0  0  0
  184.6620  177.9440  142.0030 C   0  0  0  0  0  0  0  0  0  0  0  0
  182.7020  179.1920  143.7790 O   0  0  0  0  0  1  0  0  0  0  0  0
  184.9340  178.2600  143.4260 C   0  0  0  0  0  0  0  0  0  0  0  0
  188.4350  176.9700  143.4420 N   0  0  0  0  0  0  0  0  0  0  0  0
  183.9650  178.8640  144.2590 C   0  0  0  0  0  0  0  0  0  0  0  0
  184.2630  179.1420  145.5930 C   0  0  0  0  0  3  0  0  0  0  0  0
  186.4760  178.2330  145.2980 C   0  0  0  0  0  3  0  0  0  0  0  0
  186.8530  177.0260  141.6520 C   0  0  0  0  0  0  0  0  0  0  0  0
  190.0870  174.9870  144.1520 O   0  0  0  0  0  1  0  0  0  0  0  0
  190.5300  177.3900  144.6190 C   0  0  0  0  0  2  0  0  0  0  0  0
  189.0260  177.1450  144.7640 C   0  0  2  0  0  3  0  0  0  0  0  0
  190.0210  176.0430  145.0650 C   0  0  1  0  0  0  0  0  0  0  0  0
  190.1520  175.7210  146.4790 N   0  0  0  0  0  2  0  0  0  0  0  0
  191.3560  175.3940  147.1920 C   0  0  0  0  0  0  0  0  0  0  0  0
  191.2740  175.2410  148.4400 O   0  0  0  0  0  0  0  0  0  0  0  0
  194.3600  173.9250  145.3670 C   0  0  0  0  0  3  0  0  0  0  0  0
  193.0960  174.0410  145.9510 C   0  0  0  0  0  3  0  0  0  0  0  0
  192.6860  175.2440  146.5470 C   0  0  0  0  0  0  0  0  0  0  0  0
  194.8460  176.2150  145.9750 C   0  0  0  0  0  3  0  0  0  0  0  0
  193.5800  176.3260  146.5570 C   0  0  0  0  0  3  0  0  0  0  0  0
  195.2360  175.0140  145.3780 C   0  0  0  0  0  3  0  0  0  0  0  0
  1 11  2  0  0  0  0
  1  6  1  0  0  0  0
  2 15  2  0  0  0  0
  2  8  1  0  0  0  0
  3  8  2  0  0  0  0
  5 15  1  0  0  0  0
  6 14  1  0  0  0  0
  7  4  1  0  0  0  0
  8 10  1  0  0  0  0
  9 12  1  0  0  0  0
 10  6  2  0  0  0  0
 10 12  1  0  0  0  0
 12 13  2  0  0  0  0
 13  7  1  0  0  0  0
 14  7  2  0  0  0  0
 15  1  1  0  0  0  0
 17 18  1  0  0  0  0
 17 19  1  0  0  0  0
 18 11  1  6  0  0  0
 18 19  1  0  0  0  0
 19 16  1  6  0  0  0
 19 20  1  0  0  0  0
 20 21  1  0  0  0  0
 21 22  2  0  0  0  0
 23 28  2  0  0  0  0
 23 24  1  0  0  0  0
 24 25  2  0  0  0  0
 25 27  1  0  0  0  0
 25 21  1  0  0  0  0
 26 27  2  0  0  0  0
 28 26  1  0  0  0  0
M  END
>  <MODEL>
1

>  <REMARK>
 VINA RESULT:      -8.5      0.000      0.000
  Name = 
  3 active torsions:
  status: ('A' for Active; 'I' for Inactive)
    1  A    between atoms: N_2  and  C_28
    2  A    between atoms: C_6  and  C_19
    3  A    between atoms: N_17  and  C_27
                            x       y       z     vdW  Elec       q    Type
                         _______ _______ _______ _____ _____    ______ ____

>  <TORSDO>
F 3

$$$$
=
 OpenBabel11062419543D

 28 31  0  0  1  0  0  0  0  0999 V2000
  187.6620  176.7450  145.0370 C   0  0  0  0  0  0  0  0  0  0  0  0
  186.1980  178.4300  144.0900 N   0  0  0  0  0  0  0  0  0  0  0  0
  185.8550  178.5180  141.8000 O   0  0  0  0  0  0  0  0  0  0  0  0
  189.9690  173.4440  142.0170 C   0  0  0  0  0  1  0  0  0  0  0  0
  186.4270  178.4960  146.4760 C   0  0  0  0  0  1  0  0  0  0  0  0
  187.9460  176.1950  143.6700 C   0  0  0  0  0  0  0  0  0  0  0  0
  189.0560  174.6030  142.1960 C   0  0  0  0  0  0  0  0  0  0  0  0
  186.4300  177.9470  142.7640 C   0  0  0  0  0  0  0  0  0  0  0  0
  187.0100  176.8400  140.1200 O   0  0  0  0  0  1  0  0  0  0  0  0
  187.3330  176.7920  142.5430 C   0  0  0  0  0  0  0  0  0  0  0  0
  188.1710  176.2670  146.1400 N   0  0  0  0  0  0  0  0  0  0  0  0
  187.5930  176.2790  141.2510 C   0  0  0  0  0  0  0  0  0  0  0  0
  188.4510  175.1910  141.0890 C   0  0  0  0  0  3  0  0  0  0  0  0
  188.8040  175.1020  143.4720 C   0  0  0  0  0  3  0  0  0  0  0  0
  186.7450  177.9050  145.1440 C   0  0  0  0  0  0  0  0  0  0  0  0
  190.1910  176.7270  147.8350 O   0  0  0  0  0  1  0  0  0  0  0  0
  188.9690  174.5640  147.6950 C   0  0  0  0  0  2  0  0  0  0  0  0
  189.0860  175.1400  146.2810 C   0  0  2  0  0  3  0  0  0  0  0  0
  190.1480  175.4270  147.3230 C   0  0  1  0  0  0  0  0  0  0  0  0
  191.4160  174.7510  147.0910 N   0  0  0  0  0  2  0  0  0  0  0  0
  192.3450  174.9810  146.0180 C   0  0  0  0  0  0  0  0  0  0  0  0
  193.4400  174.3570  146.0480 O   0  0  0  0  0  0  0  0  0  0  0  0
  191.2400  178.0180  144.0010 C   0  0  0  0  0  3  0  0  0  0  0  0
  191.4770  177.1650  145.0820 C   0  0  0  0  0  3  0  0  0  0  0  0
  192.0950  175.9190  144.8930 C   0  0  0  0  0  0  0  0  0  0  0  0
  192.2210  176.3900  142.5060 C   0  0  0  0  0  3  0  0  0  0  0  0
  192.4570  175.5400  143.5910 C   0  0  0  0  0  3  0  0  0  0  0  0
  191.6130  177.6300  142.7120 C   0  0  0  0  0  3  0  0  0  0  0  0
  1 15  1  0  0  0  0
  1 11  2  0  0  0  0
  2 15  2  0  0  0  0
  3  8  2  0  0  0  0
  4  7  1  0  0  0  0
  6  1  1  0  0  0  0
  7 14  2  0  0  0  0
  8  2  1  0  0  0  0
  9 12  1  0  0  0  0
 10  8  1  0  0  0  0
 10  6  2  0  0  0  0
 12 10  1  0  0  0  0
 13 12  2  0  0  0  0
 13  7  1  0  0  0  0
 14  6  1  0  0  0  0
 15  5  1  0  0  0  0
 18 11  1  1  0  0  0
 18 19  1  0  0  0  0
 18 17  1  0  0  0  0
 19 17  1  0  0  0  0
 19 16  1  1  0  0  0
 20 19  1  0  0  0  0
 21 22  2  0  0  0  0
 21 20  1  0  0  0  0
 23 24  1  0  0  0  0
 25 24  2  0  0  0  0
 25 21  1  0  0  0  0
 26 28  1  0  0  0  0
 26 27  2  0  0  0  0
 27 25  1  0  0  0  0
 28 23  2  0  0  0  0
M  END
>  <MODEL>
2

>  <REMARK>
 VINA RESULT:      -7.7      2.124      4.348
  Name = 
  3 active torsions:
  status: ('A' for Active; 'I' for Inactive)
    1  A    between atoms: N_2  and  C_28
    2  A    between atoms: C_6  and  C_19
    3  A    between atoms: N_17  and  C_27
                            x       y       z     vdW  Elec       q    Type
                         _______ _______ _______ _____ _____    ______ ____

>  <TORSDO>
F 3

$$$$
=
 OpenBabel11062419543D

 28 31  0  0  1  0  0  0  0  0999 V2000
  191.7810  174.1590  142.6730 C   0  0  0  0  0  0  0  0  0  0  0  0
  194.1620  174.4390  142.3140 N   0  0  0  0  0  0  0  0  0  0  0  0
  195.5380  175.0580  144.0730 O   0  0  0  0  0  0  0  0  0  0  0  0
  189.8250  174.9380  147.2450 C   0  0  0  0  0  1  0  0  0  0  0  0
  192.9030  173.7950  140.3770 C   0  0  0  0  0  1  0  0  0  0  0  0
  191.9350  174.5230  144.1200 C   0  0  0  0  0  0  0  0  0  0  0  0
  191.0030  174.9030  146.3400 C   0  0  0  0  0  0  0  0  0  0  0  0
  194.3700  174.7910  143.6850 C   0  0  0  0  0  0  0  0  0  0  0  0
  194.6250  175.4920  146.5130 O   0  0  0  0  0  1  0  0  0  0  0  0
  193.2210  174.8350  144.6210 C   0  0  0  0  0  0  0  0  0  0  0  0
  190.6430  173.8500  142.1120 N   0  0  0  0  0  0  0  0  0  0  0  0
  193.3770  175.1780  145.9840 C   0  0  0  0  0  0  0  0  0  0  0  0
  192.2680  175.2090  146.8300 C   0  0  0  0  0  3  0  0  0  0  0  0
  190.8410  174.5640  144.9980 C   0  0  0  0  0  3  0  0  0  0  0  0
  192.9960  174.1470  141.8240 C   0  0  0  0  0  0  0  0  0  0  0  0
  188.6510  174.6710  140.5240 O   0  0  0  0  0  1  0  0  0  0  0  0
  188.4830  172.7170  142.0540 C   0  0  0  0  0  2  0  0  0  0  0  0
  189.3290  173.7920  142.7420 C   0  0  2  0  0  3  0  0  0  0  0  0
  188.2370  174.1760  141.7640 C   0  0  1  0  0  0  0  0  0  0  0  0
  187.0660  174.7850  142.3780 N   0  0  0  0  0  2  0  0  0  0  0  0
  187.0140  176.0030  143.1390 C   0  0  0  0  0  0  0  0  0  0  0  0
  185.8810  176.4160  143.5050 O   0  0  0  0  0  0  0  0  0  0  0  0
  190.2980  177.9210  142.9270 C   0  0  0  0  0  3  0  0  0  0  0  0
  189.1740  177.1810  142.5520 C   0  0  0  0  0  3  0  0  0  0  0  0
  188.2110  176.8060  143.5010 C   0  0  0  0  0  0  0  0  0  0  0  0
  189.5320  177.9180  145.2200 C   0  0  0  0  0  3  0  0  0  0  0  0
  188.4080  177.1780  144.8410 C   0  0  0  0  0  3  0  0  0  0  0  0
  190.4770  178.2910  144.2630 C   0  0  0  0  0  3  0  0  0  0  0  0
  1  6  1  0  0  0  0
  2  8  1  0  0  0  0
  5 15  1  0  0  0  0
  6 10  2  0  0  0  0
  6 14  1  0  0  0  0
  7 13  1  0  0  0  0
  7  4  1  0  0  0  0
  8  3  2  0  0  0  0
  8 10  1  0  0  0  0
 10 12  1  0  0  0  0
 11  1  2  0  0  0  0
 12  9  1  0  0  0  0
 12 13  2  0  0  0  0
 14  7  2  0  0  0  0
 15  2  2  0  0  0  0
 15  1  1  0  0  0  0
 17 18  1  0  0  0  0
 18 11  1  6  0  0  0
 19 16  1  6  0  0  0
 19 17  1  0  0  0  0
 19 20  1  0  0  0  0
 19 18  1  0  0  0  0
 20 21  1  0  0  0  0
 21 25  1  0  0  0  0
 21 22  2  0  0  0  0
 23 28  1  0  0  0  0
 24 23  2  0  0  0  0
 24 25  1  0  0  0  0
 25 27  2  0  0  0  0
 27 26  1  0  0  0  0
 28 26  2  0  0  0  0
M  END
>  <MODEL>
3

>  <REMARK>
 VINA RESULT:      -7.6      2.988      7.233
  Name = 
  3 active torsions:
  status: ('A' for Active; 'I' for Inactive)
    1  A    between atoms: N_2  and  C_28
    2  A    between atoms: C_6  and  C_19
    3  A    between atoms: N_17  and  C_27
                            x       y       z     vdW  Elec       q    Type
                         _______ _______ _______ _____ _____    ______ ____

>  <TORSDO>
F 3

$$$$
=
 OpenBabel11062419543D

 28 31  0  0  1  0  0  0  0  0999 V2000
  187.3540  177.3660  143.2020 C   0  0  0  0  0  0  0  0  0  0  0  0
  185.4360  177.5430  141.7300 N   0  0  0  0  0  0  0  0  0  0  0  0
  183.4110  178.3180  142.5480 O   0  0  0  0  0  0  0  0  0  0  0  0
  186.9280  178.6700  148.0450 C   0  0  0  0  0  1  0  0  0  0  0  0
  187.4430  176.7250  140.7030 C   0  0  0  0  0  1  0  0  0  0  0  0
  186.5420  177.8770  144.3550 C   0  0  0  0  0  0  0  0  0  0  0  0
  186.3210  178.5120  146.6980 C   0  0  0  0  0  0  0  0  0  0  0  0
  184.6140  178.0370  142.7910 C   0  0  0  0  0  0  0  0  0  0  0  0
  183.0700  179.0310  145.0670 O   0  0  0  0  0  1  0  0  0  0  0  0
  185.1830  178.2100  144.1500 C   0  0  0  0  0  0  0  0  0  0  0  0
  188.6150  177.0350  143.2820 N   0  0  0  0  0  0  0  0  0  0  0  0
  184.4090  178.6940  145.2300 C   0  0  0  0  0  0  0  0  0  0  0  0
  184.9840  178.8400  146.4930 C   0  0  0  0  0  3  0  0  0  0  0  0
  187.0890  178.0360  145.6380 C   0  0  0  0  0  3  0  0  0  0  0  0
  186.6860  177.2290  141.8860 C   0  0  0  0  0  0  0  0  0  0  0  0
  191.1900  176.5280  142.7590 O   0  0  0  0  0  1  0  0  0  0  0  0
  190.4220  178.2860  144.3430 C   0  0  0  0  0  2  0  0  0  0  0  0
  189.4740  177.0880  144.4600 C   0  0  2  0  0  3  0  0  0  0  0  0
  190.9280  176.8890  144.0830 C   0  0  1  0  0  0  0  0  0  0  0  0
  191.7400  176.2750  145.1240 N   0  0  0  0  0  2  0  0  0  0  0  0
  191.9430  174.8720  145.3580 C   0  0  0  0  0  0  0  0  0  0  0  0
  192.7660  174.5410  146.2550 O   0  0  0  0  0  0  0  0  0  0  0  0
  189.3980  172.2580  144.2630 C   0  0  0  0  0  3  0  0  0  0  0  0
  190.0120  173.2810  144.9900 C   0  0  0  0  0  3  0  0  0  0  0  0
  191.2560  173.7960  144.5970 C   0  0  0  0  0  0  0  0  0  0  0  0
  191.2710  172.2260  142.7340 C   0  0  0  0  0  3  0  0  0  0  0  0
  191.8810  173.2510  143.4640 C   0  0  0  0  0  3  0  0  0  0  0  0
  190.0290  171.7300  143.1330 C   0  0  0  0  0  3  0  0  0  0  0  0
  1 11  2  0  0  0  0
  1  6  1  0  0  0  0
  2 15  2  0  0  0  0
  2  8  1  0  0  0  0
  3  8  2  0  0  0  0
  5 15  1  0  0  0  0
  6 14  1  0  0  0  0
  7  4  1  0  0  0  0
  8 10  1  0  0  0  0
  9 12  1  0  0  0  0
 10  6  2  0  0  0  0
 10 12  1  0  0  0  0
 12 13  2  0  0  0  0
 13  7  1  0  0  0  0
 14  7  2  0  0  0  0
 15  1  1  0  0  0  0
 17 18  1  0  0  0  0
 18 11  1  6  0  0  0
 19 16  1  6  0  0  0
 19 17  1  0  0  0  0
 19 18  1  0  0  0  0
 19 20  1  0  0  0  0
 20 21  1  0  0  0  0
 21 22  2  0  0  0  0
 23 24  1  0  0  0  0
 25 24  2  0  0  0  0
 25 21  1  0  0  0  0
 26 28  1  0  0  0  0
 26 27  2  0  0  0  0
 27 25  1  0  0  0  0
 28 23  2  0  0  0  0
M  END
>  <MODEL>
4

>  <REMARK>
 VINA RESULT:      -7.5      1.954      2.593
  Name = 
  3 active torsions:
  status: ('A' for Active; 'I' for Inactive)
    1  A    between atoms: N_2  and  C_28
    2  A    between atoms: C_6  and  C_19
    3  A    between atoms: N_17  and  C_27
                            x       y       z     vdW  Elec       q    Type
                         _______ _______ _______ _____ _____    ______ ____

>  <TORSDO>
F 3

$$$$
=
 OpenBabel11062419543D

 28 31  0  0  1  0  0  0  0  0999 V2000
  186.7410  177.6520  141.6270 C   0  0  0  0  0  0  0  0  0  0  0  0
  184.9470  177.8850  140.0130 N   0  0  0  0  0  0  0  0  0  0  0  0
  182.8400  178.5590  140.7050 O   0  0  0  0  0  0  0  0  0  0  0  0
  185.8800  178.6230  146.4910 C   0  0  0  0  0  1  0  0  0  0  0  0
  187.0530  177.1800  139.1090 C   0  0  0  0  0  1  0  0  0  0  0  0
  185.8220  178.0680  142.7380 C   0  0  0  0  0  0  0  0  0  0  0  0
  185.3910  178.5420  145.0900 C   0  0  0  0  0  0  0  0  0  0  0  0
  184.0270  178.2890  141.0310 C   0  0  0  0  0  0  0  0  0  0  0  0
  182.2730  179.0970  143.2280 O   0  0  0  0  0  1  0  0  0  0  0  0
  184.4760  178.3850  142.4410 C   0  0  0  0  0  0  0  0  0  0  0  0
  187.9990  177.3440  141.7920 N   0  0  0  0  0  0  0  0  0  0  0  0
  183.6030  178.7780  143.4810 C   0  0  0  0  0  0  0  0  0  0  0  0
  184.0670  178.8530  144.7940 C   0  0  0  0  0  3  0  0  0  0  0  0
  186.2570  178.1530  144.0700 C   0  0  0  0  0  3  0  0  0  0  0  0
  186.1880  177.5880  140.2530 C   0  0  0  0  0  0  0  0  0  0  0  0
  188.2230  174.9190  142.9030 O   0  0  0  0  0  1  0  0  0  0  0  0
  190.0710  176.5820  142.8310 C   0  0  0  0  0  2  0  0  0  0  0  0
  188.7560  177.3380  143.0390 C   0  0  2  0  0  3  0  0  0  0  0  0
  188.9280  175.9280  143.5650 C   0  0  1  0  0  0  0  0  0  0  0  0
  189.0380  175.8360  145.0140 N   0  0  0  0  0  2  0  0  0  0  0  0
  189.8650  174.9360  145.7710 C   0  0  0  0  0  0  0  0  0  0  0  0
  189.8920  175.0800  147.0230 O   0  0  0  0  0  0  0  0  0  0  0  0
  190.9520  171.6680  144.1440 C   0  0  0  0  0  3  0  0  0  0  0  0
  190.1420  172.6640  144.6950 C   0  0  0  0  0  3  0  0  0  0  0  0
  190.6970  173.8650  145.1630 C   0  0  0  0  0  0  0  0  0  0  0  0
  192.9020  173.0460  144.5310 C   0  0  0  0  0  3  0  0  0  0  0  0
  192.0870  174.0400  145.0800 C   0  0  0  0  0  3  0  0  0  0  0  0
  192.3340  171.8600  144.0610 C   0  0  0  0  0  3  0  0  0  0  0  0
  1 11  2  0  0  0  0
  1  6  1  0  0  0  0
  2 15  2  0  0  0  0
  2  8  1  0  0  0  0
  3  8  2  0  0  0  0
  5 15  1  0  0  0  0
  6 14  1  0  0  0  0
  7  4  1  0  0  0  0
  8 10  1  0  0  0  0
  9 12  1  0  0  0  0
 10  6  2  0  0  0  0
 10 12  1  0  0  0  0
 12 13  2  0  0  0  0
 13  7  1  0  0  0  0
 14  7  2  0  0  0  0
 15  1  1  0  0  0  0
 17 18  1  0  0  0  0
 17 19  1  0  0  0  0
 18 11  1  6  0  0  0
 18 19  1  0  0  0  0
 19 16  1  6  0  0  0
 19 20  1  0  0  0  0
 20 21  1  0  0  0  0
 21 22  2  0  0  0  0
 23 24  1  0  0  0  0
 24 25  2  0  0  0  0
 25 21  1  0  0  0  0
 26 27  2  0  0  0  0
 27 25  1  0  0  0  0
 28 23  2  0  0  0  0
 28 26  1  0  0  0  0
M  END
>  <MODEL>
5

>  <REMARK>
 VINA RESULT:      -7.4      1.764      2.213
  Name = 
  3 active torsions:
  status: ('A' for Active; 'I' for Inactive)
    1  A    between atoms: N_2  and  C_28
    2  A    between atoms: C_6  and  C_19
    3  A    between atoms: N_17  and  C_27
                            x       y       z     vdW  Elec       q    Type
                         _______ _______ _______ _____ _____    ______ ____

>  <TORSDO>
F 3

$$$$
=
 OpenBabel11062419543D

 28 31  0  0  1  0  0  0  0  0999 V2000
  189.3180  176.8720  144.8350 C   0  0  0  0  0  0  0  0  0  0  0  0
  189.5050  176.9520  147.2510 N   0  0  0  0  0  0  0  0  0  0  0  0
  191.5810  176.7640  148.2630 O   0  0  0  0  0  0  0  0  0  0  0  0
  193.4470  176.2800  142.0180 C   0  0  0  0  0  1  0  0  0  0  0  0
  187.2780  177.1660  146.3880 C   0  0  0  0  0  1  0  0  0  0  0  0
  190.8020  176.6980  144.7050 C   0  0  0  0  0  0  0  0  0  0  0  0
  192.8110  176.4110  143.3550 C   0  0  0  0  0  0  0  0  0  0  0  0
  190.9250  176.7910  147.1890 C   0  0  0  0  0  0  0  0  0  0  0  0
  193.8140  176.4510  146.8880 O   0  0  0  0  0  1  0  0  0  0  0  0
  191.5990  176.6580  145.8740 C   0  0  0  0  0  0  0  0  0  0  0  0
  188.4950  176.9260  143.8220 N   0  0  0  0  0  0  0  0  0  0  0  0
  192.9990  176.4950  145.7630 C   0  0  0  0  0  0  0  0  0  0  0  0
  193.5910  176.3730  144.5060 C   0  0  0  0  0  3  0  0  0  0  0  0
  191.4310  176.5710  143.4560 C   0  0  0  0  0  3  0  0  0  0  0  0
  188.7470  176.9930  146.1970 C   0  0  0  0  0  0  0  0  0  0  0  0
  186.7090  175.5380  142.3920 O   0  0  0  0  0  1  0  0  0  0  0  0
  187.7960  177.6280  141.5930 C   0  0  0  0  0  2  0  0  0  0  0  0
  188.8230  176.8340  142.4040 C   0  0  2  0  0  3  0  0  0  0  0  0
  187.7290  176.1220  141.6360 C   0  0  1  0  0  0  0  0  0  0  0  0
  188.1910  175.4040  140.4570 N   0  0  0  0  0  2  0  0  0  0  0  0
  188.9200  174.1660  140.4190 C   0  0  0  0  0  0  0  0  0  0  0  0
  189.1440  173.6540  139.2890 O   0  0  0  0  0  0  0  0  0  0  0  0
  189.0460  171.9950  143.5460 C   0  0  0  0  0  3  0  0  0  0  0  0
  188.5650  172.6390  142.4040 C   0  0  0  0  0  3  0  0  0  0  0  0
  189.4060  173.4530  141.6280 C   0  0  0  0  0  0  0  0  0  0  0  0
  191.2250  172.9760  143.1770 C   0  0  0  0  0  3  0  0  0  0  0  0
  190.7400  173.6180  142.0330 C   0  0  0  0  0  3  0  0  0  0  0  0
  190.3790  172.1630  143.9330 C   0  0  0  0  0  3  0  0  0  0  0  0
  1 15  1  0  0  0  0
  4  7  1  0  0  0  0
  6  1  1  0  0  0  0
  6 10  1  0  0  0  0
  7 14  1  0  0  0  0
  7 13  2  0  0  0  0
  8  2  1  0  0  0  0
  8  3  2  0  0  0  0
 10  8  1  0  0  0  0
 11  1  2  0  0  0  0
 12 10  2  0  0  0  0
 12  9  1  0  0  0  0
 13 12  1  0  0  0  0
 14  6  2  0  0  0  0
 15  5  1  0  0  0  0
 15  2  2  0  0  0  0
 17 19  1  0  0  0  0
 17 18  1  0  0  0  0
 18 11  1  1  0  0  0
 19 16  1  1  0  0  0
 19 18  1  0  0  0  0
 20 19  1  0  0  0  0
 21 20  1  0  0  0  0
 21 25  1  0  0  0  0
 22 21  2  0  0  0  0
 23 28  1  0  0  0  0
 24 23  2  0  0  0  0
 25 27  2  0  0  0  0
 25 24  1  0  0  0  0
 26 28  2  0  0  0  0
 27 26  1  0  0  0  0
M  END
>  <MODEL>
6

>  <REMARK>
 VINA RESULT:      -7.4      2.761      6.920
  Name = 
  3 active torsions:
  status: ('A' for Active; 'I' for Inactive)
    1  A    between atoms: N_2  and  C_28
    2  A    between atoms: C_6  and  C_19
    3  A    between atoms: N_17  and  C_27
                            x       y       z     vdW  Elec       q    Type
                         _______ _______ _______ _____ _____    ______ ____

>  <TORSDO>
F 3

$$$$
=
 OpenBabel11062419543D

 28 31  0  0  1  0  0  0  0  0999 V2000
  186.7090  176.8980  145.4540 C   0  0  0  0  0  0  0  0  0  0  0  0
  184.8300  178.0020  146.5170 N   0  0  0  0  0  0  0  0  0  0  0  0
  183.1890  179.0060  145.2250 O   0  0  0  0  0  0  0  0  0  0  0  0
  187.0480  176.8020  140.4330 C   0  0  0  0  0  1  0  0  0  0  0  0
  186.4230  177.0200  148.0170 C   0  0  0  0  0  1  0  0  0  0  0  0
  186.1720  177.2470  144.0970 C   0  0  0  0  0  0  0  0  0  0  0  0
  186.3230  177.2090  141.6650 C   0  0  0  0  0  0  0  0  0  0  0  0
  184.2700  178.3600  145.2510 C   0  0  0  0  0  0  0  0  0  0  0  0
  183.2610  179.0170  142.5860 O   0  0  0  0  0  1  0  0  0  0  0  0
  184.9610  177.9720  143.9980 C   0  0  0  0  0  0  0  0  0  0  0  0
  187.8120  176.2290  145.6570 N   0  0  0  0  0  0  0  0  0  0  0  0
  184.4480  178.3050  142.7240 C   0  0  0  0  0  0  0  0  0  0  0  0
  185.1320  177.9210  141.5700 C   0  0  0  0  0  3  0  0  0  0  0  0
  186.8360  176.8770  142.9170 C   0  0  0  0  0  3  0  0  0  0  0  0
  185.9380  177.3370  146.6420 C   0  0  0  0  0  0  0  0  0  0  0  0
  190.1680  177.4970  145.5640 O   0  0  0  0  0  1  0  0  0  0  0  0
  189.9150  175.0310  145.3490 C   0  0  0  0  0  2  0  0  0  0  0  0
  188.7250  175.6970  144.6520 C   0  0  2  0  0  3  0  0  0  0  0  0
  190.0700  176.3910  144.7150 C   0  0  1  0  0  0  0  0  0  0  0  0
  190.7760  176.4520  143.4440 N   0  0  0  0  0  2  0  0  0  0  0  0
  192.1580  176.1460  143.1970 C   0  0  0  0  0  0  0  0  0  0  0  0
  192.5580  176.1660  142.0010 O   0  0  0  0  0  0  0  0  0  0  0  0
  194.5030  174.1760  145.4630 C   0  0  0  0  0  3  0  0  0  0  0  0
  193.6010  174.4820  144.4400 C   0  0  0  0  0  3  0  0  0  0  0  0
  193.1320  175.7920  144.2630 C   0  0  0  0  0  0  0  0  0  0  0  0
  194.4780  176.4890  146.1700 C   0  0  0  0  0  3  0  0  0  0  0  0
  193.5760  176.7900  145.1440 C   0  0  0  0  0  3  0  0  0  0  0  0
  194.9430  175.1820  146.3280 C   0  0  0  0  0  3  0  0  0  0  0  0
  1 11  2  0  0  0  0
  1 15  1  0  0  0  0
  2 15  2  0  0  0  0
  3  8  2  0  0  0  0
  4  7  1  0  0  0  0
  6  1  1  0  0  0  0
  7 14  1  0  0  0  0
  8  2  1  0  0  0  0
  9 12  1  0  0  0  0
 10  6  1  0  0  0  0
 10  8  1  0  0  0  0
 12 10  2  0  0  0  0
 13  7  2  0  0  0  0
 13 12  1  0  0  0  0
 14  6  2  0  0  0  0
 15  5  1  0  0  0  0
 18 19  1  0  0  0  0
 18 17  1  0  0  0  0
 18 11  1  1  0  0  0
 19 17  1  0  0  0  0
 19 16  1  1  0  0  0
 20 19  1  0  0  0  0
 21 20  1  0  0  0  0
 21 25  1  0  0  0  0
 22 21  2  0  0  0  0
 23 28  1  0  0  0  0
 24 23  2  0  0  0  0
 25 24  1  0  0  0  0
 25 27  2  0  0  0  0
 26 28  2  0  0  0  0
 27 26  1  0  0  0  0
M  END
>  <MODEL>
7

>  <REMARK>
 VINA RESULT:      -7.4      1.851      3.591
  Name = 
  3 active torsions:
  status: ('A' for Active; 'I' for Inactive)
    1  A    between atoms: N_2  and  C_28
    2  A    between atoms: C_6  and  C_19
    3  A    between atoms: N_17  and  C_27
                            x       y       z     vdW  Elec       q    Type
                         _______ _______ _______ _____ _____    ______ ____

>  <TORSDO>
F 3

$$$$
=
 OpenBabel11062419543D

 28 31  0  0  1  0  0  0  0  0999 V2000
  193.2160  175.9640  144.7020 C   0  0  0  0  0  0  0  0  0  0  0  0
  195.2810  175.2430  145.7490 N   0  0  0  0  0  0  0  0  0  0  0  0
  196.4900  173.4840  144.8450 O   0  0  0  0  0  0  0  0  0  0  0  0
  191.5480  173.6250  140.5700 C   0  0  0  0  0  1  0  0  0  0  0  0
  194.1740  177.0770  146.8260 C   0  0  0  0  0  1  0  0  0  0  0  0
  193.3610  174.9100  143.6440 C   0  0  0  0  0  0  0  0  0  0  0  0
  192.5660  173.7680  141.6440 C   0  0  0  0  0  0  0  0  0  0  0  0
  195.4720  174.2220  144.7660 C   0  0  0  0  0  0  0  0  0  0  0  0
  195.7130  172.1840  142.6820 O   0  0  0  0  0  1  0  0  0  0  0  0
  194.4810  174.0470  143.6770 C   0  0  0  0  0  0  0  0  0  0  0  0
  192.2260  176.8130  144.7620 N   0  0  0  0  0  0  0  0  0  0  0  0
  194.6260  173.0510  142.6830 C   0  0  0  0  0  0  0  0  0  0  0  0
  193.6690  172.9210  141.6770 C   0  0  0  0  0  3  0  0  0  0  0  0
  192.4150  174.7520  142.6190 C   0  0  0  0  0  3  0  0  0  0  0  0
  194.2650  176.0510  145.7470 C   0  0  0  0  0  0  0  0  0  0  0  0
  189.8970  176.0680  145.8520 O   0  0  0  0  0  1  0  0  0  0  0  0
  190.1510  178.0260  144.3390 C   0  0  0  0  0  2  0  0  0  0  0  0
  191.0910  176.9190  143.8520 C   0  0  2  0  0  3  0  0  0  0  0  0
  189.7940  176.5770  144.5550 C   0  0  1  0  0  0  0  0  0  0  0  0
  188.7710  176.0110  143.6880 N   0  0  0  0  0  2  0  0  0  0  0  0
  187.3610  176.2890  143.7040 C   0  0  0  0  0  0  0  0  0  0  0  0
  186.6510  175.7670  142.8020 O   0  0  0  0  0  0  0  0  0  0  0  0
  185.7290  177.5500  146.9060 C   0  0  0  0  0  3  0  0  0  0  0  0
  186.3660  176.7080  145.9910 C   0  0  0  0  0  3  0  0  0  0  0  0
  186.7010  177.1640  144.7070 C   0  0  0  0  0  0  0  0  0  0  0  0
  185.7320  179.3280  145.2680 C   0  0  0  0  0  3  0  0  0  0  0  0
  186.3700  178.4820  144.3550 C   0  0  0  0  0  3  0  0  0  0  0  0
  185.4130  178.8620  146.5440 C   0  0  0  0  0  3  0  0  0  0  0  0
  1 11  2  0  0  0  0
  1 15  1  0  0  0  0
  4  7  1  0  0  0  0
  6 10  1  0  0  0  0
  6  1  1  0  0  0  0
  7 13  2  0  0  0  0
  7 14  1  0  0  0  0
  8  3  2  0  0  0  0
  8  2  1  0  0  0  0
  9 12  1  0  0  0  0
 10  8  1  0  0  0  0
 12 10  2  0  0  0  0
 13 12  1  0  0  0  0
 14  6  2  0  0  0  0
 15  2  2  0  0  0  0
 15  5  1  0  0  0  0
 17 19  1  0  0  0  0
 18 17  1  0  0  0  0
 18 19  1  0  0  0  0
 18 11  1  1  0  0  0
 19 16  1  1  0  0  0
 20 21  1  0  0  0  0
 20 19  1  0  0  0  0
 21 25  1  0  0  0  0
 22 21  2  0  0  0  0
 24 23  2  0  0  0  0
 25 24  1  0  0  0  0
 26 28  2  0  0  0  0
 27 25  2  0  0  0  0
 27 26  1  0  0  0  0
 28 23  1  0  0  0  0
M  END
>  <MODEL>
8

>  <REMARK>
 VINA RESULT:      -7.4      2.926      8.787
  Name = 
  3 active torsions:
  status: ('A' for Active; 'I' for Inactive)
    1  A    between atoms: N_2  and  C_28
    2  A    between atoms: C_6  and  C_19
    3  A    between atoms: N_17  and  C_27
                            x       y       z     vdW  Elec       q    Type
                         _______ _______ _______ _____ _____    ______ ____

>  <TORSDO>
F 3

$$$$
=
 OpenBabel11062419543D

 28 31  0  0  1  0  0  0  0  0999 V2000
  192.4870  175.3600  144.8540 C   0  0  0  0  0  0  0  0  0  0  0  0
  194.3480  174.3190  146.0070 N   0  0  0  0  0  0  0  0  0  0  0  0
  194.7640  172.0550  145.7360 O   0  0  0  0  0  0  0  0  0  0  0  0
  189.5150  172.5930  141.8790 C   0  0  0  0  0  1  0  0  0  0  0  0
  194.0790  176.6680  146.4090 C   0  0  0  0  0  1  0  0  0  0  0  0
  192.1120  174.0470  144.2310 C   0  0  0  0  0  0  0  0  0  0  0  0
  190.6830  172.6950  142.7930 C   0  0  0  0  0  0  0  0  0  0  0  0
  194.0400  173.0420  145.4400 C   0  0  0  0  0  0  0  0  0  0  0  0
  193.2750  170.5060  144.2020 O   0  0  0  0  0  1  0  0  0  0  0  0
  192.8850  172.8980  144.5220 C   0  0  0  0  0  0  0  0  0  0  0  0
  191.8450  176.4790  144.6480 N   0  0  0  0  0  0  0  0  0  0  0  0
  192.5400  171.6570  143.9390 C   0  0  0  0  0  0  0  0  0  0  0  0
  191.4440  171.5670  143.0810 C   0  0  0  0  0  3  0  0  0  0  0  0
  191.0150  173.9210  143.3640 C   0  0  0  0  0  3  0  0  0  0  0  0
  193.6600  175.3920  145.7590 C   0  0  0  0  0  0  0  0  0  0  0  0
  189.5200  176.0570  145.9050 O   0  0  0  0  0  1  0  0  0  0  0  0
  189.9060  177.9170  144.2990 C   0  0  0  0  0  2  0  0  0  0  0  0
  190.6760  176.6900  143.8030 C   0  0  2  0  0  3  0  0  0  0  0  0
  189.3940  176.5300  144.5960 C   0  0  1  0  0  0  0  0  0  0  0  0
  188.2590  176.0610  143.8150 N   0  0  0  0  0  2  0  0  0  0  0  0
  186.8760  176.4160  143.9860 C   0  0  0  0  0  0  0  0  0  0  0  0
  186.0510  175.9760  143.1400 O   0  0  0  0  0  0  0  0  0  0  0  0
  185.6790  177.6230  147.3940 C   0  0  0  0  0  3  0  0  0  0  0  0
  186.1710  176.7910  146.3850 C   0  0  0  0  0  3  0  0  0  0  0  0
  186.3720  177.2790  145.0850 C   0  0  0  0  0  0  0  0  0  0  0  0
  185.5610  179.4550  145.8210 C   0  0  0  0  0  3  0  0  0  0  0  0
  186.0540  178.6190  144.8150 C   0  0  0  0  0  3  0  0  0  0  0  0
  185.3750  178.9570  147.1120 C   0  0  0  0  0  3  0  0  0  0  0  0
  1 15  1  0  0  0  0
  4  7  1  0  0  0  0
  6 10  1  0  0  0  0
  6  1  1  0  0  0  0
  7 13  2  0  0  0  0
  7 14  1  0  0  0  0
  8  3  2  0  0  0  0
  8  2  1  0  0  0  0
 10  8  1  0  0  0  0
 11  1  2  0  0  0  0
 12  9  1  0  0  0  0
 12 10  2  0  0  0  0
 13 12  1  0  0  0  0
 14  6  2  0  0  0  0
 15  2  2  0  0  0  0
 15  5  1  0  0  0  0
 17 19  1  0  0  0  0
 18 17  1  0  0  0  0
 18 19  1  0  0  0  0
 18 11  1  1  0  0  0
 19 16  1  1  0  0  0
 20 21  1  0  0  0  0
 20 19  1  0  0  0  0
 21 25  1  0  0  0  0
 22 21  2  0  0  0  0
 24 23  2  0  0  0  0
 25 24  1  0  0  0  0
 26 28  2  0  0  0  0
 27 25  2  0  0  0  0
 27 26  1  0  0  0  0
 28 23  1  0  0  0  0
M  END
>  <MODEL>
9

>  <REMARK>
 VINA RESULT:      -7.4      2.688      8.360
  Name = 
  3 active torsions:
  status: ('A' for Active; 'I' for Inactive)
    1  A    between atoms: N_2  and  C_28
    2  A    between atoms: C_6  and  C_19
    3  A    between atoms: N_17  and  C_27
                            x       y       z     vdW  Elec       q    Type
                         _______ _______ _______ _____ _____    ______ ____

>  <TORSDO>
F 3

$$$$
