=
 OpenBabel11062418353D

 55 62  0  0  1  0  0  0  0  0999 V2000
  192.6230  176.2440  145.9190 C   0  0  2  0  0  3  0  0  0  0  0  0
  189.9360  172.2920  144.1380 C   0  0  2  0  0  3  0  0  0  0  0  0
  192.5000  176.2550  144.3830 C   0  0  0  0  0  2  0  0  0  0  0  0
  193.9450  175.6140  146.3420 C   0  0  0  0  0  2  0  0  0  0  0  0
  192.6210  173.5560  143.6870 C   0  0  1  0  0  3  0  0  0  0  0  0
  191.2200  171.4570  144.0370 C   0  0  0  0  0  2  0  0  0  0  0  0
  189.2650  172.7020  142.8170 C   0  0  0  0  0  2  0  0  0  0  0  0
  192.4930  173.4160  142.2990 O   0  0  0  0  0  0  0  0  0  0  0  0
  191.4730  176.0040  148.1080 C   0  0  0  0  0  1  0  0  0  0  0  0
  189.8460  173.2930  145.2980 C   0  0  0  0  0  2  0  0  0  0  0  0
  190.0810  175.7360  145.9840 C   0  0  1  0  0  3  0  0  0  0  0  0
  191.4610  175.5430  146.6530 C   0  0  1  0  0  3  0  0  0  0  0  0
  192.5070  172.2050  144.3950 C   0  0  0  0  0  2  0  0  0  0  0  0
  193.6550  175.7530  143.7260 O   0  0  0  0  0  0  0  0  0  0  0  0
  190.7230  171.8620  141.0780 O   0  0  0  0  0  1  0  0  0  0  0  0
  193.8790  174.3910  144.0750 C   0  0  1  0  0  0  0  0  0  0  0  0
  196.4240  174.5550  143.7070 C   0  0  1  0  0  3  0  0  0  0  0  0
  190.1960  173.0260  141.6420 C   0  0  2  0  0  3  0  0  0  0  0  0
  191.2870  174.0470  141.9670 C   0  0  0  0  0  2  0  0  0  0  0  0
  189.8860  174.7500  144.8320 C   0  0  0  0  0  2  0  0  0  0  0  0
  194.1620  174.2830  145.6180 C   0  0  1  0  0  3  0  0  0  0  0  0
  195.5520  173.7460  145.9640 C   0  0  0  0  0  2  0  0  0  0  0  0
  196.6290  174.5410  145.2300 C   0  0  0  0  0  2  0  0  0  0  0  0
  195.1080  173.9050  143.2480 C   0  0  1  0  0  3  0  0  0  0  0  0
  188.8920  175.6410  146.9580 C   0  0  0  0  0  2  0  0  0  0  0  0
  187.0340  178.1730  144.9800 C   0  0  0  0  0  0  0  0  0  0  0  0
  187.5320  177.6590  146.3180 C   0  0  1  0  0  3  0  0  0  0  0  0
  186.5380  176.3950  147.4720 C   0  0  0  0  0  2  0  0  0  0  0  0
  186.4750  177.8590  147.3200 N   0  0  0  0  0  0  0  0  0  0  0  0
  187.5590  176.1700  146.4050 C   0  0  2  0  0  3  0  0  0  0  0  0
  185.9780  179.0090  144.9140 C   0  0  0  0  0  3  0  0  0  0  0  0
  185.1700  179.3780  146.1060 C   0  0  0  0  0  3  0  0  0  0  0  0
  185.4080  178.7950  147.2830 C   0  0  0  0  0  3  0  0  0  0  0  0
  187.7980  177.8600  143.7340 C   0  0  0  0  0  2  0  0  0  0  0  0
  186.0880  177.1700  140.4680 N   0  0  0  0  0  0  0  0  0  0  0  0
  187.0450  177.0090  141.4200 C   0  0  0  0  0  0  0  0  0  0  0  0
  184.1880  178.4080  140.1350 O   0  0  0  0  0  0  0  0  0  0  0  0
  188.1620  176.0400  141.2450 C   0  0  0  0  0  1  0  0  0  0  0  0
  185.5090  178.7590  142.3530 S   0  0  0  0  0  0  0  0  0  0  0  0
  186.8900  177.8110  142.5500 C   0  0  2  0  0  3  0  0  0  0  0  0
  185.1790  178.0960  140.8430 C   0  0  0  0  0  0  0  0  0  0  0  0
  195.2510  172.5090  143.2980 O   0  0  0  0  0  0  0  0  0  0  0  0
  196.1460  172.1840  142.2740 C   0  0  1  0  0  3  0  0  0  0  0  0
  196.3960  170.6790  142.2620 C   0  0  0  0  0  2  0  0  0  0  0  0
  197.2260  170.9700  139.9200 C   0  0  0  0  0  0  0  0  0  0  0  0
  196.5430  172.3110  139.8120 C   0  0  0  0  0  2  0  0  0  0  0  0
  197.2000  170.2640  141.0620 C   0  0  0  0  0  3  0  0  0  0  0  0
  195.5400  172.5760  140.9350 C   0  0  0  0  0  2  0  0  0  0  0  0
  197.3180  170.0940  137.5990 C   0  0  0  0  0  1  0  0  0  0  0  0
  197.9410  170.5140  138.8060 O   0  0  0  0  0  0  0  0  0  0  0  0
  196.5130  175.8630  143.2290 O   0  0  0  0  0  0  0  0  0  0  0  0
  197.4750  175.8090  142.2190 C   0  0  0  0  0  2  0  0  0  0  0  0
  196.8350  176.0570  140.8980 C   0  0  0  0  0  0  0  0  0  0  0  0
  195.6590  176.5030  140.8430 O   0  0  0  0  0  0  0  0  0  0  0  0
  197.5460  175.7740  139.6980 N   0  0  0  0  0  1  0  0  0  0  0  0
  1  3  1  6  0  0  0
  1  4  1  0  0  0  0
  1 12  1  0  0  0  0
  2  7  1  6  0  0  0
  2 10  1  0  0  0  0
  5 16  1  0  0  0  0
  5 13  1  1  0  0  0
  6  2  1  0  0  0  0
  6 13  1  0  0  0  0
  8  5  1  0  0  0  0
 11 12  1  0  0  0  0
 11 25  1  1  0  0  0
 12  9  1  1  0  0  0
 14  3  1  0  0  0  0
 16 14  1  6  0  0  0
 16 21  1  0  0  0  0
 17 51  1  1  0  0  0
 17 23  1  0  0  0  0
 18 15  1  1  0  0  0
 18 19  1  0  0  0  0
 18  7  1  0  0  0  0
 19  8  1  0  0  0  0
 20 10  1  0  0  0  0
 20 11  1  0  0  0  0
 21 22  1  6  0  0  0
 21  4  1  0  0  0  0
 23 22  1  0  0  0  0
 24 42  1  1  0  0  0
 24 17  1  0  0  0  0
 24 16  1  0  0  0  0
 27 26  1  6  0  0  0
 27 30  1  0  0  0  0
 27 29  1  0  0  0  0
 29 28  1  0  0  0  0
 30 25  1  1  0  0  0
 30 28  1  0  0  0  0
 31 26  2  0  0  0  0
 31 32  1  0  0  0  0
 32 33  2  0  0  0  0
 33 29  1  0  0  0  0
 34 26  1  0  0  0  0
 35 41  1  0  0  0  0
 35 36  2  0  0  0  0
 36 40  1  0  0  0  0
 37 41  2  0  0  0  0
 38 36  1  0  0  0  0
 39 40  1  0  0  0  0
 40 34  1  6  0  0  0
 41 39  1  0  0  0  0
 43 42  1  1  0  0  0
 44 43  1  0  0  0  0
 45 47  2  0  0  0  0
 46 45  1  0  0  0  0
 46 48  1  0  0  0  0
 47 44  1  0  0  0  0
 48 43  1  0  0  0  0
 49 50  1  0  0  0  0
 50 45  1  0  0  0  0
 52 51  1  0  0  0  0
 53 52  1  0  0  0  0
 54 53  2  0  0  0  0
 55 53  1  0  0  0  0
M  END
>  <MODEL>
1

>  <REMARK>
 VINA RESULT:      -9.3      0.000      0.000
  Name = 
  10 active torsions:
  status: ('A' for Active; 'I' for Inactive)
    1  A    between atoms: C_3  and  C_27
    2  A    between atoms: C_4  and  C_20
    3  A    between atoms: C_4  and  C_33
    4  A    between atoms: C_5  and  C_46
    5  A    between atoms: C_12  and  O_24
    6  A    between atoms: C_19  and  O_29
    7  A    between atoms: O_24  and  C_53
    8  A    between atoms: C_27  and  O_55
    9  A    between atoms: C_35  and  O_55
   10  A    between atoms: C_40  and  C_46
                            x       y       z     vdW  Elec       q    Type
                         _______ _______ _______ _____ _____    ______ ____

>  <TORSDO>
F 10

$$$$
=
 OpenBabel11062418353D

 55 62  0  0  1  0  0  0  0  0999 V2000
  193.7960  175.2570  145.1900 C   0  0  2  0  0  3  0  0  0  0  0  0
  192.7640  172.4320  141.0710 C   0  0  2  0  0  3  0  0  0  0  0  0
  192.6250  174.2810  145.4180 C   0  0  0  0  0  2  0  0  0  0  0  0
  193.2710  176.6390  144.8150 C   0  0  0  0  0  2  0  0  0  0  0  0
  191.3010  174.2460  142.9640 C   0  0  1  0  0  3  0  0  0  0  0  0
  191.7830  173.5050  140.5740 C   0  0  0  0  0  2  0  0  0  0  0  0
  192.1610  171.0930  141.5250 C   0  0  0  0  0  2  0  0  0  0  0  0
  190.2130  173.3650  143.0230 O   0  0  0  0  0  0  0  0  0  0  0  0
  196.1110  175.5870  144.3500 C   0  0  0  0  0  1  0  0  0  0  0  0
  194.0060  172.9220  141.8270 C   0  0  0  0  0  2  0  0  0  0  0  0
  195.0680  173.2680  144.1180 C   0  0  1  0  0  3  0  0  0  0  0  0
  194.8240  174.7940  144.1370 C   0  0  1  0  0  3  0  0  0  0  0  0
  191.5820  174.6860  141.5260 C   0  0  0  0  0  2  0  0  0  0  0  0
  191.3520  174.9000  145.3020 O   0  0  0  0  0  0  0  0  0  0  0  0
  189.7660  171.3760  141.3250 O   0  0  0  0  0  1  0  0  0  0  0  0
  191.1610  175.4130  143.9880 C   0  0  1  0  0  0  0  0  0  0  0  0
  189.5550  177.2660  144.7780 C   0  0  1  0  0  3  0  0  0  0  0  0
  190.8020  171.1530  142.2340 C   0  0  2  0  0  3  0  0  0  0  0  0
  190.7490  172.1300  143.4100 C   0  0  0  0  0  2  0  0  0  0  0  0
  193.9860  172.5490  143.3110 C   0  0  0  0  0  2  0  0  0  0  0  0
  192.2280  176.5330  143.7010 C   0  0  1  0  0  3  0  0  0  0  0  0
  191.6290  177.9170  143.4430 C   0  0  0  0  0  2  0  0  0  0  0  0
  190.6710  178.3010  144.5670 C   0  0  0  0  0  2  0  0  0  0  0  0
  189.7150  175.9930  143.9300 C   0  0  1  0  0  3  0  0  0  0  0  0
  196.4600  172.8600  143.6030 C   0  0  0  0  0  2  0  0  0  0  0  0
  197.3280  169.3520  144.4460 C   0  0  0  0  0  0  0  0  0  0  0  0
  196.4690  170.5820  144.6700 C   0  0  1  0  0  3  0  0  0  0  0  0
  196.8990  172.0320  145.9470 C   0  0  0  0  0  2  0  0  0  0  0  0
  196.2290  170.7310  146.1130 N   0  0  0  0  0  0  0  0  0  0  0  0
  197.2140  171.8630  144.4960 C   0  0  2  0  0  3  0  0  0  0  0  0
  197.4500  168.4130  145.4070 C   0  0  0  0  0  3  0  0  0  0  0  0
  196.8650  168.5730  146.7640 C   0  0  0  0  0  3  0  0  0  0  0  0
  196.2820  169.7210  147.1120 C   0  0  0  0  0  3  0  0  0  0  0  0
  197.9410  169.1090  143.1050 C   0  0  0  0  0  2  0  0  0  0  0  0
  195.8130  169.9690  140.1380 N   0  0  0  0  0  0  0  0  0  0  0  0
  196.8740  170.1020  140.9780 C   0  0  0  0  0  0  0  0  0  0  0  0
  193.9770  168.6200  139.8900 O   0  0  0  0  0  0  0  0  0  0  0  0
  197.9050  171.1570  140.7710 C   0  0  0  0  0  1  0  0  0  0  0  0
  195.5700  168.1690  141.9020 S   0  0  0  0  0  0  0  0  0  0  0  0
  196.9110  169.1820  142.0270 C   0  0  2  0  0  3  0  0  0  0  0  0
  195.0150  168.9500  140.5200 C   0  0  0  0  0  0  0  0  0  0  0  0
  189.3180  176.2740  142.6130 O   0  0  0  0  0  0  0  0  0  0  0  0
  188.0830  176.9190  142.7200 C   0  0  1  0  0  3  0  0  0  0  0  0
  187.8120  177.7350  141.4590 C   0  0  0  0  0  2  0  0  0  0  0  0
  185.4030  177.7300  142.1340 C   0  0  0  0  0  0  0  0  0  0  0  0
  185.6350  176.5690  143.0690 C   0  0  0  0  0  2  0  0  0  0  0  0
  186.4150  178.2900  141.4510 C   0  0  0  0  0  3  0  0  0  0  0  0
  186.9820  175.8780  142.8590 C   0  0  0  0  0  2  0  0  0  0  0  0
  183.3960  178.3770  140.8240 C   0  0  0  0  0  1  0  0  0  0  0  0
  184.1040  178.2470  142.0500 O   0  0  0  0  0  0  0  0  0  0  0  0
  189.4610  176.9400  146.1320 O   0  0  0  0  0  0  0  0  0  0  0  0
  188.2680  176.2250  146.2450 C   0  0  0  0  0  2  0  0  0  0  0  0
  187.1770  177.1280  146.7000 C   0  0  0  0  0  0  0  0  0  0  0  0
  185.9820  176.8800  146.3870 O   0  0  0  0  0  0  0  0  0  0  0  0
  187.4840  178.2820  147.4740 N   0  0  0  0  0  1  0  0  0  0  0  0
  1  4  1  6  0  0  0
  1  3  1  0  0  0  0
  2  6  1  1  0  0  0
  2  7  1  0  0  0  0
  2 10  1  0  0  0  0
  5 13  1  6  0  0  0
  5  8  1  0  0  0  0
  5 16  1  0  0  0  0
  6 13  1  0  0  0  0
  7 18  1  0  0  0  0
  8 19  1  0  0  0  0
 10 20  1  0  0  0  0
 11 25  1  6  0  0  0
 11 12  1  0  0  0  0
 12  9  1  1  0  0  0
 12  1  1  0  0  0  0
 14  3  1  0  0  0  0
 16 14  1  1  0  0  0
 17 51  1  1  0  0  0
 18 15  1  6  0  0  0
 18 19  1  0  0  0  0
 20 11  1  0  0  0  0
 21 22  1  1  0  0  0
 21 16  1  0  0  0  0
 21  4  1  0  0  0  0
 22 23  1  0  0  0  0
 23 17  1  0  0  0  0
 24 42  1  6  0  0  0
 24 16  1  0  0  0  0
 24 17  1  0  0  0  0
 26 31  2  0  0  0  0
 27 26  1  1  0  0  0
 27 29  1  0  0  0  0
 28 29  1  0  0  0  0
 29 33  1  0  0  0  0
 30 25  1  6  0  0  0
 30 27  1  0  0  0  0
 30 28  1  0  0  0  0
 31 32  1  0  0  0  0
 32 33  2  0  0  0  0
 34 26  1  0  0  0  0
 35 41  1  0  0  0  0
 35 36  2  0  0  0  0
 36 40  1  0  0  0  0
 37 41  2  0  0  0  0
 38 36  1  0  0  0  0
 39 40  1  0  0  0  0
 40 34  1  1  0  0  0
 41 39  1  0  0  0  0
 43 42  1  6  0  0  0
 43 48  1  0  0  0  0
 44 43  1  0  0  0  0
 45 46  1  0  0  0  0
 47 44  1  0  0  0  0
 47 45  2  0  0  0  0
 48 46  1  0  0  0  0
 49 50  1  0  0  0  0
 50 45  1  0  0  0  0
 51 52  1  0  0  0  0
 52 53  1  0  0  0  0
 53 55  1  0  0  0  0
 54 53  2  0  0  0  0
M  END
>  <MODEL>
2

>  <REMARK>
 VINA RESULT:      -8.4      3.370      9.781
  Name = 
  10 active torsions:
  status: ('A' for Active; 'I' for Inactive)
    1  A    between atoms: C_3  and  C_27
    2  A    between atoms: C_4  and  C_20
    3  A    between atoms: C_4  and  C_33
    4  A    between atoms: C_5  and  C_46
    5  A    between atoms: C_12  and  O_24
    6  A    between atoms: C_19  and  O_29
    7  A    between atoms: O_24  and  C_53
    8  A    between atoms: C_27  and  O_55
    9  A    between atoms: C_35  and  O_55
   10  A    between atoms: C_40  and  C_46
                            x       y       z     vdW  Elec       q    Type
                         _______ _______ _______ _____ _____    ______ ____

>  <TORSDO>
F 10

$$$$
=
 OpenBabel11062418353D

 55 62  0  0  1  0  0  0  0  0999 V2000
  192.6770  171.8870  141.3750 C   0  0  2  0  0  3  0  0  0  0  0  0
  194.8840  174.0360  145.4390 C   0  0  2  0  0  3  0  0  0  0  0  0
  192.8570  173.4090  141.2160 C   0  0  0  0  0  2  0  0  0  0  0  0
  191.2690  171.5660  141.8620 C   0  0  0  0  0  2  0  0  0  0  0  0
  192.4070  174.4030  143.7830 C   0  0  1  0  0  3  0  0  0  0  0  0
  193.5050  174.2580  146.0780 C   0  0  0  0  0  2  0  0  0  0  0  0
  195.6510  175.2880  144.9840 C   0  0  0  0  0  2  0  0  0  0  0  0
  192.5660  175.7950  143.7890 O   0  0  0  0  0  0  0  0  0  0  0  0
  193.7040  169.7130  142.0010 C   0  0  0  0  0  1  0  0  0  0  0  0
  195.0620  172.7700  144.5890 C   0  0  0  0  0  2  0  0  0  0  0  0
  195.1260  171.8220  142.2260 C   0  0  1  0  0  3  0  0  0  0  0  0
  193.7090  171.2100  142.3010 C   0  0  1  0  0  3  0  0  0  0  0  0
  192.3160  173.8480  145.2060 C   0  0  0  0  0  2  0  0  0  0  0  0
  191.6710  174.1430  141.4840 O   0  0  0  0  0  0  0  0  0  0  0  0
  194.1600  177.1420  145.4290 O   0  0  0  0  0  1  0  0  0  0  0  0
  191.2560  173.9520  142.8330 C   0  0  1  0  0  0  0  0  0  0  0  0
  188.7710  174.3560  142.2880 C   0  0  1  0  0  3  0  0  0  0  0  0
  194.8150  176.4410  144.4140 C   0  0  2  0  0  3  0  0  0  0  0  0
  193.8570  176.0280  143.2950 C   0  0  0  0  0  2  0  0  0  0  0  0
  195.2310  173.0720  143.0990 C   0  0  0  0  0  2  0  0  0  0  0  0
  190.9050  172.4380  143.0660 C   0  0  1  0  0  3  0  0  0  0  0  0
  189.4450  172.1850  143.4450 C   0  0  0  0  0  2  0  0  0  0  0  0
  188.5100  172.8490  142.4370 C   0  0  0  0  0  2  0  0  0  0  0  0
  190.0050  174.8550  143.0570 C   0  0  1  0  0  3  0  0  0  0  0  0
  196.2560  170.8390  142.5830 C   0  0  0  0  0  2  0  0  0  0  0  0
  197.5200  171.6220  139.1830 C   0  0  0  0  0  0  0  0  0  0  0  0
  196.6760  170.7610  140.1040 C   0  0  1  0  0  3  0  0  0  0  0  0
  197.3340  169.1500  141.0480 C   0  0  0  0  0  2  0  0  0  0  0  0
  196.8080  169.3570  139.6870 N   0  0  0  0  0  0  0  0  0  0  0  0
  197.2720  170.5850  141.4600 C   0  0  2  0  0  3  0  0  0  0  0  0
  197.9410  171.1480  137.9920 C   0  0  0  0  0  3  0  0  0  0  0  0
  197.7180  169.7420  137.5640 C   0  0  0  0  0  3  0  0  0  0  0  0
  197.1780  168.8620  138.4080 C   0  0  0  0  0  3  0  0  0  0  0  0
  197.7780  173.0510  139.5340 C   0  0  0  0  0  2  0  0  0  0  0  0
  195.0300  175.6040  139.5160 N   0  0  0  0  0  0  0  0  0  0  0  0
  196.1760  175.0250  139.9630 C   0  0  0  0  0  0  0  0  0  0  0  0
  193.4820  175.2900  137.8550 O   0  0  0  0  0  0  0  0  0  0  0  0
  196.9250  175.5770  141.1260 C   0  0  0  0  0  1  0  0  0  0  0  0
  195.4640  173.6060  138.0210 S   0  0  0  0  0  0  0  0  0  0  0  0
  196.5790  173.8950  139.2520 C   0  0  2  0  0  3  0  0  0  0  0  0
  194.5290  174.9350  138.4550 C   0  0  0  0  0  0  0  0  0  0  0  0
  189.6780  174.9640  144.4180 O   0  0  0  0  0  0  0  0  0  0  0  0
  188.5690  175.8130  144.4730 C   0  0  1  0  0  3  0  0  0  0  0  0
  188.1190  175.9870  145.9210 C   0  0  0  0  0  2  0  0  0  0  0  0
  186.9040  178.0360  145.1580 C   0  0  0  0  0  0  0  0  0  0  0  0
  187.7280  178.0920  143.8950 C   0  0  0  0  0  2  0  0  0  0  0  0
  187.0520  177.0380  146.0440 C   0  0  0  0  0  3  0  0  0  0  0  0
  188.9540  177.1790  143.9270 C   0  0  0  0  0  2  0  0  0  0  0  0
  184.7570  178.8300  146.1180 C   0  0  0  0  0  1  0  0  0  0  0  0
  185.9330  179.0280  145.3450 O   0  0  0  0  0  0  0  0  0  0  0  0
  188.8720  174.6880  140.9360 O   0  0  0  0  0  0  0  0  0  0  0  0
  188.5050  173.5260  140.2550 C   0  0  0  0  0  2  0  0  0  0  0  0
  188.9420  173.6120  138.8350 C   0  0  0  0  0  0  0  0  0  0  0  0
  188.1270  173.9750  137.9470 O   0  0  0  0  0  0  0  0  0  0  0  0
  190.2760  173.2680  138.4790 N   0  0  0  0  0  1  0  0  0  0  0  0
  1  3  1  1  0  0  0
  1  4  1  0  0  0  0
  1 12  1  0  0  0  0
  2 10  1  6  0  0  0
  2  6  1  0  0  0  0
  3 14  1  0  0  0  0
  5  8  1  0  0  0  0
  5 13  1  1  0  0  0
  7  2  1  0  0  0  0
 11 12  1  0  0  0  0
 11 25  1  1  0  0  0
 11 20  1  0  0  0  0
 12  9  1  6  0  0  0
 13  6  1  0  0  0  0
 16 14  1  6  0  0  0
 16 24  1  0  0  0  0
 16 21  1  0  0  0  0
 16  5  1  0  0  0  0
 17 51  1  6  0  0  0
 17 23  1  0  0  0  0
 17 24  1  0  0  0  0
 18  7  1  0  0  0  0
 18 15  1  1  0  0  0
 19  8  1  0  0  0  0
 19 18  1  0  0  0  0
 20 10  1  0  0  0  0
 21  4  1  6  0  0  0
 21 22  1  0  0  0  0
 23 22  1  0  0  0  0
 24 42  1  1  0  0  0
 26 34  1  0  0  0  0
 27 26  1  6  0  0  0
 27 30  1  0  0  0  0
 28 30  1  0  0  0  0
 29 27  1  0  0  0  0
 29 28  1  0  0  0  0
 30 25  1  1  0  0  0
 31 26  2  0  0  0  0
 32 31  1  0  0  0  0
 32 33  2  0  0  0  0
 33 29  1  0  0  0  0
 35 36  2  0  0  0  0
 36 38  1  0  0  0  0
 37 41  2  0  0  0  0
 39 41  1  0  0  0  0
 39 40  1  0  0  0  0
 40 34  1  1  0  0  0
 40 36  1  0  0  0  0
 41 35  1  0  0  0  0
 43 42  1  1  0  0  0
 43 44  1  0  0  0  0
 44 47  1  0  0  0  0
 45 50  1  0  0  0  0
 45 47  2  0  0  0  0
 46 48  1  0  0  0  0
 46 45  1  0  0  0  0
 48 43  1  0  0  0  0
 50 49  1  0  0  0  0
 52 51  1  0  0  0  0
 53 52  1  0  0  0  0
 54 53  2  0  0  0  0
 55 53  1  0  0  0  0
M  END
>  <MODEL>
3

>  <REMARK>
 VINA RESULT:      -8.3      3.126      9.841
  Name = 
  10 active torsions:
  status: ('A' for Active; 'I' for Inactive)
    1  A    between atoms: C_3  and  C_27
    2  A    between atoms: C_4  and  C_20
    3  A    between atoms: C_4  and  C_33
    4  A    between atoms: C_5  and  C_46
    5  A    between atoms: C_12  and  O_24
    6  A    between atoms: C_19  and  O_29
    7  A    between atoms: O_24  and  C_53
    8  A    between atoms: C_27  and  O_55
    9  A    between atoms: C_35  and  O_55
   10  A    between atoms: C_40  and  C_46
                            x       y       z     vdW  Elec       q    Type
                         _______ _______ _______ _____ _____    ______ ____

>  <TORSDO>
F 10

$$$$
=
 OpenBabel11062418353D

 55 62  0  0  1  0  0  0  0  0999 V2000
  192.5390  172.6630  140.8150 C   0  0  2  0  0  3  0  0  0  0  0  0
  195.2640  173.8490  144.9600 C   0  0  2  0  0  3  0  0  0  0  0  0
  192.7090  174.1840  140.9980 C   0  0  0  0  0  2  0  0  0  0  0  0
  191.2020  172.2050  141.3860 C   0  0  0  0  0  2  0  0  0  0  0  0
  192.5980  174.5380  143.7620 C   0  0  1  0  0  3  0  0  0  0  0  0
  193.9790  173.8830  145.8010 C   0  0  0  0  0  2  0  0  0  0  0  0
  195.9750  175.1910  144.7200 C   0  0  0  0  0  2  0  0  0  0  0  0
  192.7670  175.8920  144.0760 O   0  0  0  0  0  0  0  0  0  0  0  0
  193.6220  170.4270  140.7760 C   0  0  0  0  0  1  0  0  0  0  0  0
  195.3220  172.8230  143.8200 C   0  0  0  0  0  2  0  0  0  0  0  0
  195.0760  172.4580  141.3110 C   0  0  1  0  0  3  0  0  0  0  0  0
  193.6760  171.8120  141.4170 C   0  0  1  0  0  3  0  0  0  0  0  0
  192.6860  173.6620  145.0140 C   0  0  0  0  0  2  0  0  0  0  0  0
  191.5720  174.8070  141.5780 O   0  0  0  0  0  0  0  0  0  0  0  0
  194.5660  176.8530  145.7730 O   0  0  0  0  0  1  0  0  0  0  0  0
  191.3320  174.2960  142.8850 C   0  0  1  0  0  0  0  0  0  0  0  0
  188.8000  174.7590  142.7690 C   0  0  1  0  0  3  0  0  0  0  0  0
  195.0810  176.4250  144.5470 C   0  0  2  0  0  3  0  0  0  0  0  0
  193.9850  176.2650  143.4920 C   0  0  0  0  0  2  0  0  0  0  0  0
  195.3020  173.4700  142.4330 C   0  0  0  0  0  2  0  0  0  0  0  0
  191.0020  172.7610  142.7970 C   0  0  1  0  0  3  0  0  0  0  0  0
  189.6010  172.3930  143.2870 C   0  0  0  0  0  2  0  0  0  0  0  0
  188.5490  173.2530  142.5900 C   0  0  0  0  0  2  0  0  0  0  0  0
  190.1260  175.0920  143.4720 C   0  0  1  0  0  3  0  0  0  0  0  0
  196.2350  171.4440  141.2810 C   0  0  0  0  0  2  0  0  0  0  0  0
  196.8450  172.6850  137.8380 C   0  0  0  0  0  0  0  0  0  0  0  0
  196.4070  171.5760  138.7750 C   0  0  1  0  0  3  0  0  0  0  0  0
  197.6250  170.2270  139.5620 C   0  0  0  0  0  2  0  0  0  0  0  0
  196.9270  170.2980  138.2650 N   0  0  0  0  0  0  0  0  0  0  0  0
  197.1620  171.5570  140.0610 C   0  0  2  0  0  3  0  0  0  0  0  0
  197.2720  172.4040  136.5890 C   0  0  0  0  0  3  0  0  0  0  0  0
  197.4550  171.0120  136.0990 C   0  0  0  0  0  3  0  0  0  0  0  0
  197.3020  169.9820  136.9320 C   0  0  0  0  0  3  0  0  0  0  0  0
  196.6810  174.1120  138.2490 C   0  0  0  0  0  2  0  0  0  0  0  0
  194.7350  176.1660  135.7860 N   0  0  0  0  0  0  0  0  0  0  0  0
  195.8600  175.6660  136.3620 C   0  0  0  0  0  0  0  0  0  0  0  0
  192.4620  175.9930  136.0240 O   0  0  0  0  0  0  0  0  0  0  0  0
  197.2170  176.0410  135.8740 C   0  0  0  0  0  1  0  0  0  0  0  0
  193.9740  174.6350  137.6540 S   0  0  0  0  0  0  0  0  0  0  0  0
  195.6370  174.7890  137.4230 C   0  0  2  0  0  3  0  0  0  0  0  0
  193.6250  175.6880  136.3900 C   0  0  0  0  0  0  0  0  0  0  0  0
  189.9770  174.8710  144.8500 O   0  0  0  0  0  0  0  0  0  0  0  0
  188.8570  175.6150  145.2320 C   0  0  1  0  0  3  0  0  0  0  0  0
  188.5650  175.3900  146.7140 C   0  0  0  0  0  2  0  0  0  0  0  0
  187.2160  177.4950  146.6300 C   0  0  0  0  0  0  0  0  0  0  0  0
  187.8930  177.9150  145.3500 C   0  0  0  0  0  2  0  0  0  0  0  0
  187.4890  176.3140  147.2100 C   0  0  0  0  0  3  0  0  0  0  0  0
  189.1400  177.0940  145.0230 C   0  0  0  0  0  2  0  0  0  0  0  0
  185.0310  178.6660  146.4930 C   0  0  0  0  0  1  0  0  0  0  0  0
  186.2440  178.3510  147.1630 O   0  0  0  0  0  0  0  0  0  0  0  0
  188.7300  175.4000  141.5320 O   0  0  0  0  0  0  0  0  0  0  0  0
  187.4680  175.9960  141.5090 C   0  0  0  0  0  2  0  0  0  0  0  0
  187.6040  177.4740  141.6150 C   0  0  0  0  0  0  0  0  0  0  0  0
  188.7480  178.0010  141.6380 O   0  0  0  0  0  0  0  0  0  0  0  0
  186.4430  178.2920  141.7080 N   0  0  0  0  0  1  0  0  0  0  0  0
  1  3  1  1  0  0  0
  1  4  1  0  0  0  0
  1 12  1  0  0  0  0
  2 10  1  6  0  0  0
  2  6  1  0  0  0  0
  3 14  1  0  0  0  0
  5  8  1  0  0  0  0
  5 13  1  1  0  0  0
  7  2  1  0  0  0  0
 11 25  1  1  0  0  0
 11 12  1  0  0  0  0
 11 20  1  0  0  0  0
 12  9  1  6  0  0  0
 13  6  1  0  0  0  0
 16 14  1  6  0  0  0
 16 24  1  0  0  0  0
 16  5  1  0  0  0  0
 17 51  1  6  0  0  0
 17 24  1  0  0  0  0
 18  7  1  0  0  0  0
 18 15  1  1  0  0  0
 19  8  1  0  0  0  0
 19 18  1  0  0  0  0
 20 10  1  0  0  0  0
 21  4  1  6  0  0  0
 21 16  1  0  0  0  0
 21 22  1  0  0  0  0
 23 17  1  0  0  0  0
 23 22  1  0  0  0  0
 24 42  1  1  0  0  0
 26 34  1  0  0  0  0
 27 26  1  6  0  0  0
 27 30  1  0  0  0  0
 28 30  1  0  0  0  0
 29 27  1  0  0  0  0
 29 28  1  0  0  0  0
 30 25  1  1  0  0  0
 31 26  2  0  0  0  0
 32 31  1  0  0  0  0
 32 33  2  0  0  0  0
 33 29  1  0  0  0  0
 35 36  2  0  0  0  0
 35 41  1  0  0  0  0
 36 40  1  0  0  0  0
 37 41  2  0  0  0  0
 38 36  1  0  0  0  0
 40 39  1  0  0  0  0
 40 34  1  1  0  0  0
 41 39  1  0  0  0  0
 43 42  1  1  0  0  0
 43 44  1  0  0  0  0
 44 47  1  0  0  0  0
 45 50  1  0  0  0  0
 45 47  2  0  0  0  0
 46 45  1  0  0  0  0
 48 43  1  0  0  0  0
 48 46  1  0  0  0  0
 49 50  1  0  0  0  0
 52 51  1  0  0  0  0
 52 53  1  0  0  0  0
 53 54  2  0  0  0  0
 53 55  1  0  0  0  0
M  END
>  <MODEL>
4

>  <REMARK>
 VINA RESULT:      -8.2      3.001      9.950
  Name = 
  10 active torsions:
  status: ('A' for Active; 'I' for Inactive)
    1  A    between atoms: C_3  and  C_27
    2  A    between atoms: C_4  and  C_20
    3  A    between atoms: C_4  and  C_33
    4  A    between atoms: C_5  and  C_46
    5  A    between atoms: C_12  and  O_24
    6  A    between atoms: C_19  and  O_29
    7  A    between atoms: O_24  and  C_53
    8  A    between atoms: C_27  and  O_55
    9  A    between atoms: C_35  and  O_55
   10  A    between atoms: C_40  and  C_46
                            x       y       z     vdW  Elec       q    Type
                         _______ _______ _______ _____ _____    ______ ____

>  <TORSDO>
F 10

$$$$
=
 OpenBabel11062418353D

 55 62  0  0  1  0  0  0  0  0999 V2000
  194.0420  176.2520  143.6510 C   0  0  2  0  0  3  0  0  0  0  0  0
  191.6350  171.7840  144.1550 C   0  0  2  0  0  3  0  0  0  0  0  0
  193.5170  175.7070  142.3090 C   0  0  0  0  0  2  0  0  0  0  0  0
  195.5110  175.8880  143.8350 C   0  0  0  0  0  2  0  0  0  0  0  0
  193.8720  172.9490  142.5270 C   0  0  1  0  0  3  0  0  0  0  0  0
  192.9620  171.0390  143.9480 C   0  0  0  0  0  2  0  0  0  0  0  0
  190.5840  171.6570  143.0400 C   0  0  0  0  0  2  0  0  0  0  0  0
  193.4060  172.3150  141.3680 O   0  0  0  0  0  0  0  0  0  0  0  0
  193.5630  176.7480  146.0380 C   0  0  0  0  0  1  0  0  0  0  0  0
  191.6990  173.1270  144.8950 C   0  0  0  0  0  2  0  0  0  0  0  0
  191.7190  175.6620  144.6440 C   0  0  1  0  0  3  0  0  0  0  0  0
  193.2390  175.7970  144.8880 C   0  0  1  0  0  3  0  0  0  0  0  0
  194.1630  171.9350  143.6360 C   0  0  0  0  0  2  0  0  0  0  0  0
  194.5210  175.0680  141.5350 O   0  0  0  0  0  0  0  0  0  0  0  0
  191.6440  170.3320  141.3150 O   0  0  0  0  0  1  0  0  0  0  0  0
  195.0410  173.9350  142.2230 C   0  0  1  0  0  0  0  0  0  0  0  0
  197.3400  174.0950  141.0700 C   0  0  1  0  0  3  0  0  0  0  0  0
  191.1080  171.5900  141.6010 C   0  0  2  0  0  3  0  0  0  0  0  0
  192.0710  172.7180  141.2290 C   0  0  0  0  0  2  0  0  0  0  0  0
  191.3850  174.3210  143.9910 C   0  0  0  0  0  2  0  0  0  0  0  0
  195.7350  174.4010  143.5540 C   0  0  1  0  0  3  0  0  0  0  0  0
  197.2330  174.1000  143.6190 C   0  0  0  0  0  2  0  0  0  0  0  0
  197.9390  174.6380  142.3770 C   0  0  0  0  0  2  0  0  0  0  0  0
  196.0690  173.2530  141.2680 C   0  0  1  0  0  3  0  0  0  0  0  0
  190.8600  175.8570  145.9060 C   0  0  0  0  0  2  0  0  0  0  0  0
  187.7190  177.6850  145.1540 C   0  0  0  0  0  0  0  0  0  0  0  0
  188.6720  177.0710  146.1630 C   0  0  1  0  0  3  0  0  0  0  0  0
  188.5890  175.1930  146.7840 C   0  0  0  0  0  2  0  0  0  0  0  0
  187.8820  176.4130  147.2140 N   0  0  0  0  0  0  0  0  0  0  0  0
  189.3430  175.8350  145.6660 C   0  0  2  0  0  3  0  0  0  0  0  0
  186.4230  177.8900  145.4670 C   0  0  0  0  0  3  0  0  0  0  0  0
  185.8240  177.4280  146.7470 C   0  0  0  0  0  3  0  0  0  0  0  0
  186.5400  176.6860  147.5930 C   0  0  0  0  0  3  0  0  0  0  0  0
  188.2440  178.1890  143.8490 C   0  0  0  0  0  2  0  0  0  0  0  0
  186.2910  176.8730  140.9290 N   0  0  0  0  0  0  0  0  0  0  0  0
  187.2820  176.8600  141.8600 C   0  0  0  0  0  0  0  0  0  0  0  0
  184.5000  178.1790  140.3470 O   0  0  0  0  0  0  0  0  0  0  0  0
  188.2920  175.7660  141.9080 C   0  0  0  0  0  1  0  0  0  0  0  0
  185.9750  178.9430  142.3540 S   0  0  0  0  0  0  0  0  0  0  0  0
  187.2690  177.9360  142.7470 C   0  0  2  0  0  3  0  0  0  0  0  0
  185.4970  177.9550  141.0790 C   0  0  0  0  0  0  0  0  0  0  0  0
  196.4370  171.9780  141.7250 O   0  0  0  0  0  0  0  0  0  0  0  0
  197.0670  171.3570  140.6420 C   0  0  1  0  0  3  0  0  0  0  0  0
  197.1570  169.8530  140.8860 C   0  0  0  0  0  2  0  0  0  0  0  0
  197.5170  169.6100  138.4220 C   0  0  0  0  0  0  0  0  0  0  0  0
  196.9660  170.9920  138.1730 C   0  0  0  0  0  2  0  0  0  0  0  0
  197.6540  169.1260  139.6670 C   0  0  0  0  0  3  0  0  0  0  0  0
  196.2440  171.5860  139.3830 C   0  0  0  0  0  2  0  0  0  0  0  0
  197.3570  168.9980  136.0210 C   0  0  0  0  0  1  0  0  0  0  0  0
  197.9410  168.8700  137.3110 O   0  0  0  0  0  0  0  0  0  0  0  0
  197.0930  175.1490  140.1890 O   0  0  0  0  0  0  0  0  0  0  0  0
  197.8050  174.8230  139.0340 C   0  0  0  0  0  2  0  0  0  0  0  0
  197.0020  175.1690  137.8300 C   0  0  0  0  0  0  0  0  0  0  0  0
  197.5580  175.7050  136.8350 O   0  0  0  0  0  0  0  0  0  0  0  0
  195.6030  174.9100  137.8080 N   0  0  0  0  0  1  0  0  0  0  0  0
  1  3  1  6  0  0  0
  1  4  1  0  0  0  0
  1 12  1  0  0  0  0
  2  7  1  6  0  0  0
  2 10  1  0  0  0  0
  5 13  1  1  0  0  0
  6  2  1  0  0  0  0
  8  5  1  0  0  0  0
 11 12  1  0  0  0  0
 11 25  1  1  0  0  0
 12  9  1  1  0  0  0
 13  6  1  0  0  0  0
 14  3  1  0  0  0  0
 16 14  1  6  0  0  0
 16  5  1  0  0  0  0
 16 21  1  0  0  0  0
 17 51  1  6  0  0  0
 17 24  1  0  0  0  0
 17 23  1  0  0  0  0
 18 15  1  1  0  0  0
 18  7  1  0  0  0  0
 19  8  1  0  0  0  0
 19 18  1  0  0  0  0
 20 11  1  0  0  0  0
 20 10  1  0  0  0  0
 21 22  1  6  0  0  0
 21  4  1  0  0  0  0
 23 22  1  0  0  0  0
 24 42  1  1  0  0  0
 24 16  1  0  0  0  0
 26 31  2  0  0  0  0
 27 26  1  6  0  0  0
 27 29  1  0  0  0  0
 28 29  1  0  0  0  0
 29 33  1  0  0  0  0
 30 25  1  1  0  0  0
 30 27  1  0  0  0  0
 30 28  1  0  0  0  0
 31 32  1  0  0  0  0
 32 33  2  0  0  0  0
 34 26  1  0  0  0  0
 35 41  1  0  0  0  0
 35 36  2  0  0  0  0
 36 38  1  0  0  0  0
 36 40  1  0  0  0  0
 37 41  2  0  0  0  0
 39 40  1  0  0  0  0
 40 34  1  6  0  0  0
 41 39  1  0  0  0  0
 43 44  1  0  0  0  0
 43 42  1  1  0  0  0
 45 47  2  0  0  0  0
 46 45  1  0  0  0  0
 46 48  1  0  0  0  0
 47 44  1  0  0  0  0
 48 43  1  0  0  0  0
 49 50  1  0  0  0  0
 50 45  1  0  0  0  0
 52 51  1  0  0  0  0
 53 52  1  0  0  0  0
 54 53  2  0  0  0  0
 55 53  1  0  0  0  0
M  END
>  <MODEL>
5

>  <REMARK>
 VINA RESULT:      -7.6      1.565      2.165
  Name = 
  10 active torsions:
  status: ('A' for Active; 'I' for Inactive)
    1  A    between atoms: C_3  and  C_27
    2  A    between atoms: C_4  and  C_20
    3  A    between atoms: C_4  and  C_33
    4  A    between atoms: C_5  and  C_46
    5  A    between atoms: C_12  and  O_24
    6  A    between atoms: C_19  and  O_29
    7  A    between atoms: O_24  and  C_53
    8  A    between atoms: C_27  and  O_55
    9  A    between atoms: C_35  and  O_55
   10  A    between atoms: C_40  and  C_46
                            x       y       z     vdW  Elec       q    Type
                         _______ _______ _______ _____ _____    ______ ____

>  <TORSDO>
F 10

$$$$
=
 OpenBabel11062418353D

 55 62  0  0  1  0  0  0  0  0999 V2000
  193.0300  176.3320  144.6410 C   0  0  2  0  0  3  0  0  0  0  0  0
  190.3870  172.1650  143.3550 C   0  0  2  0  0  3  0  0  0  0  0  0
  193.2450  175.9240  143.1700 C   0  0  0  0  0  2  0  0  0  0  0  0
  194.1550  175.7850  145.5140 C   0  0  0  0  0  2  0  0  0  0  0  0
  193.2250  173.1360  143.2440 C   0  0  1  0  0  3  0  0  0  0  0  0
  191.5660  171.2780  143.7820 C   0  0  0  0  0  2  0  0  0  0  0  0
  190.0660  172.2230  141.8530 C   0  0  0  0  0  2  0  0  0  0  0  0
  193.3870  172.6240  141.9510 O   0  0  0  0  0  0  0  0  0  0  0  0
  191.4140  176.7570  146.4800 C   0  0  0  0  0  1  0  0  0  0  0  0
  190.1550  173.4500  144.1620 C   0  0  0  0  0  2  0  0  0  0  0  0
  190.4950  175.9740  144.2290 C   0  0  1  0  0  3  0  0  0  0  0  0
  191.6690  175.9130  145.2330 C   0  0  1  0  0  3  0  0  0  0  0  0
  192.8170  172.0380  144.2290 C   0  0  0  0  0  2  0  0  0  0  0  0
  194.4550  175.2100  142.9600 O   0  0  0  0  0  0  0  0  0  0  0  0
  191.7690  170.8720  140.7880 O   0  0  0  0  0  1  0  0  0  0  0  0
  194.4510  173.9890  143.6910 C   0  0  1  0  0  0  0  0  0  0  0  0
  197.0180  173.9320  143.9090 C   0  0  1  0  0  3  0  0  0  0  0  0
  191.2590  172.1690  140.8900 C   0  0  2  0  0  3  0  0  0  0  0  0
  192.3560  173.1910  141.1900 C   0  0  0  0  0  2  0  0  0  0  0  0
  190.4510  174.7190  143.3580 C   0  0  0  0  0  2  0  0  0  0  0  0
  194.3800  174.2990  145.2310 C   0  0  1  0  0  3  0  0  0  0  0  0
  195.5960  173.8170  146.0240 C   0  0  0  0  0  2  0  0  0  0  0  0
  196.8850  174.3300  145.3880 C   0  0  0  0  0  2  0  0  0  0  0  0
  195.7710  173.2400  143.3350 C   0  0  1  0  0  3  0  0  0  0  0  0
  189.1200  176.2050  144.8830 C   0  0  0  0  0  2  0  0  0  0  0  0
  185.8910  177.0800  143.2790 C   0  0  0  0  0  0  0  0  0  0  0  0
  187.3310  176.6180  143.1640 C   0  0  1  0  0  3  0  0  0  0  0  0
  188.8840  177.8310  142.9670 C   0  0  0  0  0  2  0  0  0  0  0  0
  187.9380  177.2640  141.9900 N   0  0  0  0  0  0  0  0  0  0  0  0
  188.2330  177.2400  144.1750 C   0  0  2  0  0  3  0  0  0  0  0  0
  185.2620  177.6450  142.2270 C   0  0  0  0  0  3  0  0  0  0  0  0
  185.9580  177.9610  140.9520 C   0  0  0  0  0  3  0  0  0  0  0  0
  187.2770  177.7880  140.8470 C   0  0  0  0  0  3  0  0  0  0  0  0
  185.1150  176.7890  144.5220 C   0  0  0  0  0  2  0  0  0  0  0  0
  185.9770  179.6310  146.8140 N   0  0  0  0  0  0  0  0  0  0  0  0
  185.4870  179.0630  145.6800 C   0  0  0  0  0  0  0  0  0  0  0  0
  186.9170  178.9710  148.7980 O   0  0  0  0  0  0  0  0  0  0  0  0
  184.9240  179.8880  144.5760 C   0  0  0  0  0  1  0  0  0  0  0  0
  186.2560  177.1280  147.0790 S   0  0  0  0  0  0  0  0  0  0  0  0
  185.5560  177.6700  145.6450 C   0  0  2  0  0  3  0  0  0  0  0  0
  186.4320  178.6920  147.6720 C   0  0  0  0  0  0  0  0  0  0  0  0
  195.7500  171.9070  143.7760 O   0  0  0  0  0  0  0  0  0  0  0  0
  196.5560  171.1990  142.8790 C   0  0  1  0  0  3  0  0  0  0  0  0
  196.3660  169.6990  143.0830 C   0  0  0  0  0  2  0  0  0  0  0  0
  197.3410  169.4000  140.7980 C   0  0  0  0  0  0  0  0  0  0  0  0
  197.0750  170.8470  140.4620 C   0  0  0  0  0  2  0  0  0  0  0  0
  197.0670  168.9050  142.0160 C   0  0  0  0  0  3  0  0  0  0  0  0
  196.1440  171.5420  141.4550 C   0  0  0  0  0  2  0  0  0  0  0  0
  197.5910  168.6700  138.4390 C   0  0  0  0  0  1  0  0  0  0  0  0
  197.9410  168.6040  139.8150 O   0  0  0  0  0  0  0  0  0  0  0  0
  197.3480  175.0520  143.1450 O   0  0  0  0  0  0  0  0  0  0  0  0
  197.9410  174.5360  141.9920 C   0  0  0  0  0  2  0  0  0  0  0  0
  197.3720  175.2020  140.7890 C   0  0  0  0  0  0  0  0  0  0  0  0
  197.5650  174.7080  139.6460 O   0  0  0  0  0  0  0  0  0  0  0  0
  196.6240  176.4050  140.9270 N   0  0  0  0  0  1  0  0  0  0  0  0
  1  3  1  6  0  0  0
  1 12  1  0  0  0  0
  1  4  1  0  0  0  0
  2  7  1  6  0  0  0
  2  6  1  0  0  0  0
  2 10  1  0  0  0  0
  5 16  1  0  0  0  0
  5 13  1  1  0  0  0
  6 13  1  0  0  0  0
  8  5  1  0  0  0  0
 11 25  1  1  0  0  0
 11 12  1  0  0  0  0
 12  9  1  1  0  0  0
 14  3  1  0  0  0  0
 16 14  1  6  0  0  0
 16 21  1  0  0  0  0
 17 51  1  6  0  0  0
 17 23  1  0  0  0  0
 18 15  1  1  0  0  0
 18 19  1  0  0  0  0
 18  7  1  0  0  0  0
 19  8  1  0  0  0  0
 20 10  1  0  0  0  0
 20 11  1  0  0  0  0
 21  4  1  6  0  0  0
 21 22  1  0  0  0  0
 23 22  1  0  0  0  0
 24 16  1  0  0  0  0
 24 42  1  1  0  0  0
 24 17  1  0  0  0  0
 26 34  1  0  0  0  0
 27 26  1  1  0  0  0
 27 30  1  0  0  0  0
 28 30  1  0  0  0  0
 29 28  1  0  0  0  0
 29 27  1  0  0  0  0
 30 25  1  6  0  0  0
 31 26  2  0  0  0  0
 32 31  1  0  0  0  0
 33 32  2  0  0  0  0
 33 29  1  0  0  0  0
 35 41  1  0  0  0  0
 36 35  2  0  0  0  0
 38 36  1  0  0  0  0
 39 41  1  0  0  0  0
 40 34  1  6  0  0  0
 40 36  1  0  0  0  0
 40 39  1  0  0  0  0
 41 37  2  0  0  0  0
 43 44  1  0  0  0  0
 43 42  1  1  0  0  0
 45 47  2  0  0  0  0
 46 45  1  0  0  0  0
 46 48  1  0  0  0  0
 47 44  1  0  0  0  0
 48 43  1  0  0  0  0
 49 50  1  0  0  0  0
 50 45  1  0  0  0  0
 52 51  1  0  0  0  0
 53 55  1  0  0  0  0
 53 52  1  0  0  0  0
 54 53  2  0  0  0  0
M  END
>  <MODEL>
6

>  <REMARK>
 VINA RESULT:      -7.6      1.947      3.096
  Name = 
  10 active torsions:
  status: ('A' for Active; 'I' for Inactive)
    1  A    between atoms: C_3  and  C_27
    2  A    between atoms: C_4  and  C_20
    3  A    between atoms: C_4  and  C_33
    4  A    between atoms: C_5  and  C_46
    5  A    between atoms: C_12  and  O_24
    6  A    between atoms: C_19  and  O_29
    7  A    between atoms: O_24  and  C_53
    8  A    between atoms: C_27  and  O_55
    9  A    between atoms: C_35  and  O_55
   10  A    between atoms: C_40  and  C_46
                            x       y       z     vdW  Elec       q    Type
                         _______ _______ _______ _____ _____    ______ ____

>  <TORSDO>
F 10

$$$$
=
 OpenBabel11062418353D

 55 62  0  0  1  0  0  0  0  0999 V2000
  194.4770  176.1320  142.9110 C   0  0  2  0  0  3  0  0  0  0  0  0
  194.8190  171.5160  145.0520 C   0  0  2  0  0  3  0  0  0  0  0  0
  193.7160  175.0520  142.1170 C   0  0  0  0  0  2  0  0  0  0  0  0
  195.8620  176.3520  142.3150 C   0  0  0  0  0  2  0  0  0  0  0  0
  195.3170  172.7830  142.3770 C   0  0  1  0  0  3  0  0  0  0  0  0
  196.0910  171.2280  144.2410 C   0  0  0  0  0  2  0  0  0  0  0  0
  193.5640  170.7060  144.6910 C   0  0  0  0  0  2  0  0  0  0  0  0
  194.7230  171.7020  141.7140 O   0  0  0  0  0  0  0  0  0  0  0  0
  194.9430  177.1620  145.1230 C   0  0  0  0  0  1  0  0  0  0  0  0
  194.5990  172.9640  145.5100 C   0  0  0  0  0  2  0  0  0  0  0  0
  193.3740  175.1490  145.0430 C   0  0  1  0  0  3  0  0  0  0  0  0
  194.6040  175.8490  144.4220 C   0  0  1  0  0  3  0  0  0  0  0  0
  196.4870  172.3250  143.2500 C   0  0  0  0  0  2  0  0  0  0  0  0
  194.4380  174.5730  140.9920 O   0  0  0  0  0  0  0  0  0  0  0  0
  194.2130  169.3370  142.8040 O   0  0  0  0  0  1  0  0  0  0  0  0
  195.6520  173.9520  141.4010 C   0  0  1  0  0  0  0  0  0  0  0  0
  196.8560  174.4960  139.1890 C   0  0  1  0  0  3  0  0  0  0  0  0
  193.3620  170.3690  143.2080 C   0  0  2  0  0  3  0  0  0  0  0  0
  193.4440  171.5760  142.2720 C   0  0  0  0  0  2  0  0  0  0  0  0
  193.4220  173.6400  144.8030 C   0  0  0  0  0  2  0  0  0  0  0  0
  196.5750  175.0150  142.1030 C   0  0  1  0  0  3  0  0  0  0  0  0
  197.9030  175.2630  141.3860 C   0  0  0  0  0  2  0  0  0  0  0  0
  197.6610  175.5860  139.9130 C   0  0  0  0  0  2  0  0  0  0  0  0
  196.3310  173.3870  140.1160 C   0  0  1  0  0  3  0  0  0  0  0  0
  193.1790  175.4330  146.5430 C   0  0  0  0  0  2  0  0  0  0  0  0
  189.5580  175.1980  145.7690 C   0  0  0  0  0  0  0  0  0  0  0  0
  190.7780  176.0360  146.1020 C   0  0  1  0  0  3  0  0  0  0  0  0
  191.3600  176.4870  147.9400 C   0  0  0  0  0  2  0  0  0  0  0  0
  190.3750  177.1020  147.0330 N   0  0  0  0  0  0  0  0  0  0  0  0
  191.7250  175.3580  147.0330 C   0  0  2  0  0  3  0  0  0  0  0  0
  188.3150  175.6670  146.0030 C   0  0  0  0  0  3  0  0  0  0  0  0
  188.0620  176.9560  146.7000 C   0  0  0  0  0  3  0  0  0  0  0  0
  189.0770  177.6480  147.2200 C   0  0  0  0  0  3  0  0  0  0  0  0
  189.7250  173.8960  145.0560 C   0  0  0  0  0  2  0  0  0  0  0  0
  188.9260  173.3720  141.4280 N   0  0  0  0  0  0  0  0  0  0  0  0
  189.3280  172.9970  142.6720 C   0  0  0  0  0  0  0  0  0  0  0  0
  188.1780  175.2570  140.3610 O   0  0  0  0  0  0  0  0  0  0  0  0
  189.7450  171.5980  142.9670 C   0  0  0  0  0  1  0  0  0  0  0  0
  188.7840  175.4360  142.8880 S   0  0  0  0  0  0  0  0  0  0  0  0
  189.3150  174.0150  143.6250 C   0  0  2  0  0  3  0  0  0  0  0  0
  188.5960  174.6810  141.3970 C   0  0  0  0  0  0  0  0  0  0  0  0
  197.3880  172.5170  140.4260 O   0  0  0  0  0  0  0  0  0  0  0  0
  197.4390  171.5960  139.3750 C   0  0  1  0  0  3  0  0  0  0  0  0
  197.9400  170.2490  139.8880 C   0  0  0  0  0  2  0  0  0  0  0  0
  196.9480  169.2430  137.8240 C   0  0  0  0  0  0  0  0  0  0  0  0
  196.0910  170.4650  137.6030 C   0  0  0  0  0  2  0  0  0  0  0  0
  197.8290  169.1820  138.8360 C   0  0  0  0  0  3  0  0  0  0  0  0
  196.0390  171.3990  138.8120 C   0  0  0  0  0  2  0  0  0  0  0  0
  196.7570  168.4030  135.4950 C   0  0  0  0  0  1  0  0  0  0  0  0
  196.8390  168.1970  136.9000 O   0  0  0  0  0  0  0  0  0  0  0  0
  195.8040  175.0760  138.4790 O   0  0  0  0  0  0  0  0  0  0  0  0
  196.2980  175.2470  137.1850 C   0  0  0  0  0  2  0  0  0  0  0  0
  195.7870  174.1630  136.3020 C   0  0  0  0  0  0  0  0  0  0  0  0
  194.6310  173.6960  136.4840 O   0  0  0  0  0  0  0  0  0  0  0  0
  196.6080  173.6450  135.2620 N   0  0  0  0  0  1  0  0  0  0  0  0
  1  3  1  6  0  0  0
  1 12  1  0  0  0  0
  2  6  1  6  0  0  0
  2 10  1  0  0  0  0
  4  1  1  0  0  0  0
  5 13  1  6  0  0  0
  7  2  1  0  0  0  0
  8 19  1  0  0  0  0
  8  5  1  0  0  0  0
 11 25  1  1  0  0  0
 12 11  1  0  0  0  0
 12  9  1  1  0  0  0
 13  6  1  0  0  0  0
 14  3  1  0  0  0  0
 16 14  1  6  0  0  0
 16 21  1  0  0  0  0
 16  5  1  0  0  0  0
 17 51  1  1  0  0  0
 17 23  1  0  0  0  0
 17 24  1  0  0  0  0
 18 15  1  6  0  0  0
 18  7  1  0  0  0  0
 19 18  1  0  0  0  0
 20 11  1  0  0  0  0
 20 10  1  0  0  0  0
 21 22  1  6  0  0  0
 21  4  1  0  0  0  0
 23 22  1  0  0  0  0
 24 42  1  1  0  0  0
 24 16  1  0  0  0  0
 26 31  2  0  0  0  0
 27 26  1  1  0  0  0
 27 30  1  0  0  0  0
 27 29  1  0  0  0  0
 29 33  1  0  0  0  0
 29 28  1  0  0  0  0
 30 25  1  6  0  0  0
 30 28  1  0  0  0  0
 31 32  1  0  0  0  0
 32 33  2  0  0  0  0
 34 26  1  0  0  0  0
 35 36  2  0  0  0  0
 36 38  1  0  0  0  0
 36 40  1  0  0  0  0
 37 41  2  0  0  0  0
 39 40  1  0  0  0  0
 40 34  1  6  0  0  0
 41 35  1  0  0  0  0
 41 39  1  0  0  0  0
 43 44  1  0  0  0  0
 43 42  1  1  0  0  0
 45 47  2  0  0  0  0
 46 45  1  0  0  0  0
 46 48  1  0  0  0  0
 47 44  1  0  0  0  0
 48 43  1  0  0  0  0
 49 50  1  0  0  0  0
 50 45  1  0  0  0  0
 52 51  1  0  0  0  0
 53 54  2  0  0  0  0
 53 52  1  0  0  0  0
 55 53  1  0  0  0  0
M  END
>  <MODEL>
7

>  <REMARK>
 VINA RESULT:      -7.4      2.460      4.188
  Name = 
  10 active torsions:
  status: ('A' for Active; 'I' for Inactive)
    1  A    between atoms: C_3  and  C_27
    2  A    between atoms: C_4  and  C_20
    3  A    between atoms: C_4  and  C_33
    4  A    between atoms: C_5  and  C_46
    5  A    between atoms: C_12  and  O_24
    6  A    between atoms: C_19  and  O_29
    7  A    between atoms: O_24  and  C_53
    8  A    between atoms: C_27  and  O_55
    9  A    between atoms: C_35  and  O_55
   10  A    between atoms: C_40  and  C_46
                            x       y       z     vdW  Elec       q    Type
                         _______ _______ _______ _____ _____    ______ ____

>  <TORSDO>
F 10

$$$$
=
 OpenBabel11062418353D

 55 62  0  0  1  0  0  0  0  0999 V2000
  192.1960  175.1340  146.5410 C   0  0  2  0  0  3  0  0  0  0  0  0
  192.6640  173.7090  141.6660 C   0  0  2  0  0  3  0  0  0  0  0  0
  191.1180  174.1180  146.1140 C   0  0  0  0  0  2  0  0  0  0  0  0
  191.6530  176.5560  146.4460 C   0  0  0  0  0  2  0  0  0  0  0  0
  190.5450  174.8240  143.4780 C   0  0  1  0  0  3  0  0  0  0  0  0
  191.7530  174.8680  141.2340 C   0  0  0  0  0  2  0  0  0  0  0  0
  192.1030  172.2860  141.5080 C   0  0  0  0  0  2  0  0  0  0  0  0
  189.5840  173.9530  142.9490 O   0  0  0  0  0  0  0  0  0  0  0  0
  194.6040  175.7430  146.5650 C   0  0  0  0  0  1  0  0  0  0  0  0
  193.5850  173.9590  142.8680 C   0  0  0  0  0  2  0  0  0  0  0  0
  193.9210  173.5940  145.3670 C   0  0  1  0  0  3  0  0  0  0  0  0
  193.5200  175.0350  145.7560 C   0  0  1  0  0  3  0  0  0  0  0  0
  191.1690  175.6930  142.3830 C   0  0  0  0  0  2  0  0  0  0  0  0
  189.8710  174.7220  145.8080 O   0  0  0  0  0  0  0  0  0  0  0  0
  189.8440  172.5810  140.6930 O   0  0  0  0  0  1  0  0  0  0  0  0
  190.0010  175.6150  144.7060 C   0  0  1  0  0  0  0  0  0  0  0  0
  188.0500  177.1070  145.4840 C   0  0  1  0  0  3  0  0  0  0  0  0
  190.6020  172.1030  141.7640 C   0  0  2  0  0  3  0  0  0  0  0  0
  190.1190  172.6660  143.1010 C   0  0  0  0  0  2  0  0  0  0  0  0
  193.1910  173.1440  144.1010 C   0  0  0  0  0  2  0  0  0  0  0  0
  190.9800  176.7840  145.0910 C   0  0  1  0  0  3  0  0  0  0  0  0
  190.3340  178.1710  145.0810 C   0  0  0  0  0  2  0  0  0  0  0  0
  189.0640  178.1740  145.9280 C   0  0  0  0  0  2  0  0  0  0  0  0
  188.5760  176.1620  144.3910 C   0  0  1  0  0  3  0  0  0  0  0  0
  195.4370  173.3870  145.1970 C   0  0  0  0  0  2  0  0  0  0  0  0
  194.6260  169.7710  145.0080 C   0  0  0  0  0  0  0  0  0  0  0  0
  195.2560  170.9390  145.7440 C   0  0  1  0  0  3  0  0  0  0  0  0
  197.1270  171.5380  145.5010 C   0  0  0  0  0  2  0  0  0  0  0  0
  196.5220  170.4890  146.3410 N   0  0  0  0  0  0  0  0  0  0  0  0
  195.8580  171.9550  144.8330 C   0  0  2  0  0  3  0  0  0  0  0  0
  195.0190  168.5050  145.2600 C   0  0  0  0  0  3  0  0  0  0  0  0
  196.1550  168.1830  146.1630 C   0  0  0  0  0  3  0  0  0  0  0  0
  196.9020  169.1610  146.6770 C   0  0  0  0  0  3  0  0  0  0  0  0
  193.4680  170.0080  144.0930 C   0  0  0  0  0  2  0  0  0  0  0  0
  193.5080  168.4110  140.6990 N   0  0  0  0  0  0  0  0  0  0  0  0
  192.9880  168.7060  141.9200 C   0  0  0  0  0  0  0  0  0  0  0  0
  195.3760  168.9020  139.4640 O   0  0  0  0  0  0  0  0  0  0  0  0
  191.6700  168.1660  142.3560 C   0  0  0  0  0  1  0  0  0  0  0  0
  195.1790  169.9240  141.8530 S   0  0  0  0  0  0  0  0  0  0  0  0
  193.7780  169.5420  142.7090 C   0  0  2  0  0  3  0  0  0  0  0  0
  194.7060  169.0110  140.5230 C   0  0  0  0  0  0  0  0  0  0  0  0
  188.5360  176.8310  143.1570 O   0  0  0  0  0  0  0  0  0  0  0  0
  187.1900  177.1380  142.9380 C   0  0  1  0  0  3  0  0  0  0  0  0
  186.9580  178.6320  143.1470 C   0  0  0  0  0  2  0  0  0  0  0  0
  184.8440  178.3510  141.8380 C   0  0  0  0  0  0  0  0  0  0  0  0
  185.3330  177.0410  141.2710 C   0  0  0  0  0  2  0  0  0  0  0  0
  185.5690  179.0370  142.7370 C   0  0  0  0  0  3  0  0  0  0  0  0
  186.8240  176.7960  141.5010 C   0  0  0  0  0  2  0  0  0  0  0  0
  182.7560  178.0940  140.5210 C   0  0  0  0  0  1  0  0  0  0  0  0
  183.5780  178.7990  141.4420 O   0  0  0  0  0  0  0  0  0  0  0  0
  187.6170  176.3770  146.5910 O   0  0  0  0  0  0  0  0  0  0  0  0
  186.9390  177.3020  147.3870 C   0  0  0  0  0  2  0  0  0  0  0  0
  185.5600  177.5050  146.8650 C   0  0  0  0  0  0  0  0  0  0  0  0
  184.8460  176.5100  146.5720 O   0  0  0  0  0  0  0  0  0  0  0  0
  185.0550  178.8220  146.6820 N   0  0  0  0  0  1  0  0  0  0  0  0
  1  3  1  6  0  0  0
  2  6  1  1  0  0  0
  2 10  1  0  0  0  0
  4  1  1  0  0  0  0
  5 13  1  6  0  0  0
  5 16  1  0  0  0  0
  6 13  1  0  0  0  0
  7  2  1  0  0  0  0
  7 18  1  0  0  0  0
  8 19  1  0  0  0  0
  8  5  1  0  0  0  0
 10 20  1  0  0  0  0
 11 25  1  6  0  0  0
 11 12  1  0  0  0  0
 12  1  1  0  0  0  0
 12  9  1  1  0  0  0
 14  3  1  0  0  0  0
 16 21  1  0  0  0  0
 16 14  1  1  0  0  0
 17 23  1  0  0  0  0
 17 51  1  1  0  0  0
 18 15  1  6  0  0  0
 18 19  1  0  0  0  0
 20 11  1  0  0  0  0
 21 22  1  1  0  0  0
 21  4  1  0  0  0  0
 22 23  1  0  0  0  0
 24 42  1  6  0  0  0
 24 16  1  0  0  0  0
 24 17  1  0  0  0  0
 26 31  2  0  0  0  0
 27 26  1  6  0  0  0
 27 29  1  0  0  0  0
 28 29  1  0  0  0  0
 29 33  1  0  0  0  0
 30 25  1  1  0  0  0
 30 28  1  0  0  0  0
 30 27  1  0  0  0  0
 31 32  1  0  0  0  0
 32 33  2  0  0  0  0
 34 26  1  0  0  0  0
 35 36  2  0  0  0  0
 36 38  1  0  0  0  0
 36 40  1  0  0  0  0
 37 41  2  0  0  0  0
 39 40  1  0  0  0  0
 40 34  1  1  0  0  0
 41 35  1  0  0  0  0
 41 39  1  0  0  0  0
 43 44  1  0  0  0  0
 43 42  1  6  0  0  0
 45 47  2  0  0  0  0
 46 48  1  0  0  0  0
 46 45  1  0  0  0  0
 47 44  1  0  0  0  0
 48 43  1  0  0  0  0
 49 50  1  0  0  0  0
 50 45  1  0  0  0  0
 51 52  1  0  0  0  0
 53 52  1  0  0  0  0
 54 53  2  0  0  0  0
 55 53  1  0  0  0  0
M  END
>  <MODEL>
8

>  <REMARK>
 VINA RESULT:      -7.3      3.516      9.732
  Name = 
  10 active torsions:
  status: ('A' for Active; 'I' for Inactive)
    1  A    between atoms: C_3  and  C_27
    2  A    between atoms: C_4  and  C_20
    3  A    between atoms: C_4  and  C_33
    4  A    between atoms: C_5  and  C_46
    5  A    between atoms: C_12  and  O_24
    6  A    between atoms: C_19  and  O_29
    7  A    between atoms: O_24  and  C_53
    8  A    between atoms: C_27  and  O_55
    9  A    between atoms: C_35  and  O_55
   10  A    between atoms: C_40  and  C_46
                            x       y       z     vdW  Elec       q    Type
                         _______ _______ _______ _____ _____    ______ ____

>  <TORSDO>
F 10

$$$$
=
 OpenBabel11062418353D

 55 62  0  0  1  0  0  0  0  0999 V2000
  191.2050  174.0440  145.6060 C   0  0  2  0  0  3  0  0  0  0  0  0
  191.0510  172.9490  140.6270 C   0  0  2  0  0  3  0  0  0  0  0  0
  189.8220  173.5370  145.1530 C   0  0  0  0  0  2  0  0  0  0  0  0
  191.2290  175.5680  145.6350 C   0  0  0  0  0  2  0  0  0  0  0  0
  189.5220  174.6180  142.5990 C   0  0  1  0  0  3  0  0  0  0  0  0
  190.6330  174.3940  140.3160 C   0  0  0  0  0  2  0  0  0  0  0  0
  190.0000  171.8530  140.3920 C   0  0  0  0  0  2  0  0  0  0  0  0
  188.3000  174.2100  142.0500 O   0  0  0  0  0  0  0  0  0  0  0  0
  193.6670  173.7140  145.5750 C   0  0  0  0  0  1  0  0  0  0  0  0
  192.0140  172.7410  141.8040 C   0  0  0  0  0  2  0  0  0  0  0  0
  192.2180  172.0760  144.2550 C   0  0  1  0  0  3  0  0  0  0  0  0
  192.3880  173.5260  144.7620 C   0  0  1  0  0  3  0  0  0  0  0  0
  190.4110  175.2800  141.5440 C   0  0  0  0  0  2  0  0  0  0  0  0
  188.8850  174.5840  144.9420 O   0  0  0  0  0  0  0  0  0  0  0  0
  188.0030  173.0280  139.6930 O   0  0  0  0  0  1  0  0  0  0  0  0
  189.3260  175.4510  143.9020 C   0  0  1  0  0  0  0  0  0  0  0  0
  188.0800  177.4910  144.8640 C   0  0  1  0  0  3  0  0  0  0  0  0
  188.5410  172.2180  140.6950 C   0  0  2  0  0  3  0  0  0  0  0  0
  188.3180  172.8090  142.0880 C   0  0  0  0  0  2  0  0  0  0  0  0
  191.3590  172.0330  142.9920 C   0  0  0  0  0  2  0  0  0  0  0  0
  190.6740  176.1390  144.3280 C   0  0  1  0  0  3  0  0  0  0  0  0
  190.5910  177.6620  144.4430 C   0  0  0  0  0  2  0  0  0  0  0  0
  189.4230  178.0660  145.3410 C   0  0  0  0  0  2  0  0  0  0  0  0
  188.2040  176.5110  143.6860 C   0  0  1  0  0  3  0  0  0  0  0  0
  193.5470  171.3370  144.0080 C   0  0  0  0  0  2  0  0  0  0  0  0
  196.7970  170.9490  145.7560 C   0  0  0  0  0  0  0  0  0  0  0  0
  195.6470  170.3450  144.9730 C   0  0  1  0  0  3  0  0  0  0  0  0
  194.0020  169.6060  145.7880 C   0  0  0  0  0  2  0  0  0  0  0  0
  195.3340  169.0260  145.5430 N   0  0  0  0  0  0  0  0  0  0  0  0
  194.3290  170.9720  145.2790 C   0  0  2  0  0  3  0  0  0  0  0  0
  197.5810  170.1770  146.5360 C   0  0  0  0  0  3  0  0  0  0  0  0
  197.3050  168.7360  146.7740 C   0  0  0  0  0  3  0  0  0  0  0  0
  196.1890  168.1800  146.2980 C   0  0  0  0  0  3  0  0  0  0  0  0
  197.1500  172.3890  145.5630 C   0  0  0  0  0  2  0  0  0  0  0  0
  197.2820  173.9670  142.1630 N   0  0  0  0  0  0  0  0  0  0  0  0
  197.0820  173.9430  143.5070 C   0  0  0  0  0  0  0  0  0  0  0  0
  197.9330  172.5320  140.4980 O   0  0  0  0  0  0  0  0  0  0  0  0
  196.6490  175.1590  144.2520 C   0  0  0  0  0  1  0  0  0  0  0  0
  197.7820  171.6050  142.9290 S   0  0  0  0  0  0  0  0  0  0  0  0
  197.3130  172.7090  144.1140 C   0  0  2  0  0  3  0  0  0  0  0  0
  197.6710  172.7560  141.7070 C   0  0  0  0  0  0  0  0  0  0  0  0
  188.4010  177.2450  142.5050 O   0  0  0  0  0  0  0  0  0  0  0  0
  187.1500  177.7760  142.1770 C   0  0  1  0  0  3  0  0  0  0  0  0
  186.9580  177.7570  140.6630 C   0  0  0  0  0  2  0  0  0  0  0  0
  184.5070  177.9890  141.1050 C   0  0  0  0  0  0  0  0  0  0  0  0
  184.6900  177.5390  142.5330 C   0  0  0  0  0  2  0  0  0  0  0  0
  185.5560  178.1410  140.2800 C   0  0  0  0  0  3  0  0  0  0  0  0
  186.0600  176.9200  142.8050 C   0  0  0  0  0  2  0  0  0  0  0  0
  182.0830  178.2870  141.5520 C   0  0  0  0  0  1  0  0  0  0  0  0
  183.2090  178.3050  140.6840 O   0  0  0  0  0  0  0  0  0  0  0  0
  187.4190  176.8850  145.9330 O   0  0  0  0  0  0  0  0  0  0  0  0
  186.9460  177.9460  146.7080 C   0  0  0  0  0  2  0  0  0  0  0  0
  185.6410  178.4210  146.1730 C   0  0  0  0  0  0  0  0  0  0  0  0
  185.5900  179.4680  145.4750 O   0  0  0  0  0  0  0  0  0  0  0  0
  184.4480  177.7010  146.4630 N   0  0  0  0  0  1  0  0  0  0  0  0
  1  3  1  6  0  0  0
  1  4  1  0  0  0  0
  2  6  1  1  0  0  0
  2 10  1  0  0  0  0
  5 13  1  6  0  0  0
  5 16  1  0  0  0  0
  6 13  1  0  0  0  0
  7  2  1  0  0  0  0
  7 18  1  0  0  0  0
  8 19  1  0  0  0  0
  8  5  1  0  0  0  0
 10 20  1  0  0  0  0
 11 25  1  6  0  0  0
 11 12  1  0  0  0  0
 12  9  1  1  0  0  0
 12  1  1  0  0  0  0
 14  3  1  0  0  0  0
 16 21  1  0  0  0  0
 16 14  1  1  0  0  0
 17 23  1  0  0  0  0
 17 51  1  1  0  0  0
 18 15  1  6  0  0  0
 18 19  1  0  0  0  0
 20 11  1  0  0  0  0
 21 22  1  1  0  0  0
 21  4  1  0  0  0  0
 22 23  1  0  0  0  0
 24 42  1  6  0  0  0
 24 16  1  0  0  0  0
 24 17  1  0  0  0  0
 26 31  2  0  0  0  0
 27 30  1  0  0  0  0
 27 29  1  0  0  0  0
 27 26  1  1  0  0  0
 29 28  1  0  0  0  0
 29 33  1  0  0  0  0
 30 25  1  6  0  0  0
 30 28  1  0  0  0  0
 31 32  1  0  0  0  0
 33 32  2  0  0  0  0
 34 26  1  0  0  0  0
 35 36  2  0  0  0  0
 36 40  1  0  0  0  0
 36 38  1  0  0  0  0
 37 41  2  0  0  0  0
 39 40  1  0  0  0  0
 40 34  1  6  0  0  0
 41 35  1  0  0  0  0
 41 39  1  0  0  0  0
 43 42  1  6  0  0  0
 43 48  1  0  0  0  0
 44 43  1  0  0  0  0
 45 46  1  0  0  0  0
 46 48  1  0  0  0  0
 47 44  1  0  0  0  0
 47 45  2  0  0  0  0
 50 45  1  0  0  0  0
 50 49  1  0  0  0  0
 51 52  1  0  0  0  0
 53 55  1  0  0  0  0
 53 52  1  0  0  0  0
 54 53  2  0  0  0  0
M  END
>  <MODEL>
9

>  <REMARK>
 VINA RESULT:      -7.2      3.400      9.960
  Name = 
  10 active torsions:
  status: ('A' for Active; 'I' for Inactive)
    1  A    between atoms: C_3  and  C_27
    2  A    between atoms: C_4  and  C_20
    3  A    between atoms: C_4  and  C_33
    4  A    between atoms: C_5  and  C_46
    5  A    between atoms: C_12  and  O_24
    6  A    between atoms: C_19  and  O_29
    7  A    between atoms: O_24  and  C_53
    8  A    between atoms: C_27  and  O_55
    9  A    between atoms: C_35  and  O_55
   10  A    between atoms: C_40  and  C_46
                            x       y       z     vdW  Elec       q    Type
                         _______ _______ _______ _____ _____    ______ ____

>  <TORSDO>
F 10

$$$$
