=
 OpenBabel11062419073D

 32 36  0  0  1  0  0  0  0  0999 V2000
  190.0540  177.5730  143.0590 C   0  0  0  0  0  3  0  0  0  0  0  0
  190.3560  176.3060  142.5550 C   0  0  0  0  0  3  0  0  0  0  0  0
  189.6790  175.3490  144.6640 C   0  0  0  0  0  3  0  0  0  0  0  0
  189.4090  176.6330  145.1470 C   0  0  0  0  0  0  0  0  0  0  0  0
  189.5850  177.7090  144.3300 N   0  0  0  0  0  0  0  0  0  0  0  0
  190.1620  175.1850  143.3630 C   0  0  0  0  0  0  0  0  0  0  0  0
  187.4920  176.5310  146.5480 N   0  0  0  0  0  0  0  0  0  0  0  0
  188.8680  174.4760  147.6360 O   0  0  0  0  0  0  0  0  0  0  0  0
  188.8640  176.7980  146.5350 C   0  0  1  0  0  3  0  0  0  0  0  0
  188.5450  175.5700  147.1050 C   0  0  0  0  0  0  0  0  0  0  0  0
  184.0210  178.6170  145.5670 N   0  0  0  0  0  0  0  0  0  0  0  0
  186.1220  176.8150  146.1520 C   0  0  1  0  0  3  0  0  0  0  0  0
  184.4300  178.4280  146.9300 C   0  0  0  0  0  3  0  0  0  0  0  0
  185.1660  178.0580  142.1090 C   0  0  0  0  0  2  0  0  0  0  0  0
  186.3780  176.5780  143.6740 C   0  0  0  0  0  3  0  0  0  0  0  0
  185.9520  176.8130  142.4230 C   0  0  0  0  0  3  0  0  0  0  0  0
  185.4440  177.6140  147.2280 C   0  0  0  0  0  3  0  0  0  0  0  0
  184.2860  178.3940  143.2260 N   0  0  0  0  0  2  0  0  0  0  0  0
  186.0850  177.5400  144.7980 C   0  0  1  0  0  3  0  0  0  0  0  0
  184.7380  178.1950  144.5690 C   0  0  0  0  0  0  0  0  0  0  0  0
  190.4680  173.8840  142.8580 N   0  0  0  0  0  2  0  0  0  0  0  0
  191.7940  173.4780  142.6550 N   0  0  0  0  0  2  0  0  0  0  0  0
  192.1490  172.6070  143.7630 C   0  0  0  0  0  2  0  0  0  0  0  0
  193.4640  173.0540  144.3800 C   0  0  1  0  0  3  0  0  0  0  0  0
  194.1790  174.0330  143.4790 C   0  0  0  0  0  2  0  0  0  0  0  0
  194.9820  174.9170  144.4080 C   0  0  0  0  0  2  0  0  0  0  0  0
  193.2040  173.8070  145.6640 C   0  0  0  0  0  2  0  0  0  0  0  0
  194.2800  174.8750  145.7550 C   0  0  2  0  0  3  0  0  0  0  0  0
  194.5790  177.3940  146.6720 O   0  0  0  0  0  0  0  0  0  0  0  0
  193.5410  176.4580  146.1180 S   0  0  0  0  0  0  0  0  0  0  0  0
  192.9630  177.0430  144.8610 O   0  0  0  0  0  0  0  0  0  0  0  0
  192.2810  176.2500  147.2810 N   0  0  0  0  0  1  0  0  0  0  0  0
  1  5  1  0  0  0  0
  2  1  2  0  0  0  0
  2  6  1  0  0  0  0
  3  4  1  0  0  0  0
  5  4  2  0  0  0  0
  6  3  2  0  0  0  0
  7 10  1  0  0  0  0
  9  4  1  6  0  0  0
  9  7  1  0  0  0  0
  9 10  1  0  0  0  0
 10  8  2  0  0  0  0
 11 13  1  0  0  0  0
 12  7  1  1  0  0  0
 12 17  1  0  0  0  0
 13 17  2  0  0  0  0
 14 16  1  0  0  0  0
 14 18  1  0  0  0  0
 16 15  2  0  0  0  0
 18 20  1  0  0  0  0
 19 15  1  6  0  0  0
 19 12  1  0  0  0  0
 20 19  1  0  0  0  0
 20 11  2  0  0  0  0
 21  6  1  0  0  0  0
 22 21  1  0  0  0  0
 22 23  1  0  0  0  0
 24 23  1  6  0  0  0
 24 27  1  0  0  0  0
 25 24  1  0  0  0  0
 25 26  1  0  0  0  0
 26 28  1  0  0  0  0
 27 28  1  0  0  0  0
 28 30  1  6  0  0  0
 30 29  2  0  0  0  0
 30 32  1  0  0  0  0
 31 30  2  0  0  0  0
M  END
>  <MODEL>
1

>  <REMARK>
 VINA RESULT:      -7.6      0.000      0.000
  Name = 
  7 active torsions:
  status: ('A' for Active; 'I' for Inactive)
    1  A    between atoms: C_1  and  N_8
    2  A    between atoms: C_1  and  C_12
    3  A    between atoms: N_3  and  C_9
    4  A    between atoms: CA_7  and  C_13
    5  A    between atoms: N_8  and  N_32
    6  A    between atoms: S_16  and  C_29
    7  A    between atoms: C_18  and  N_32
                            x       y       z     vdW  Elec       q    Type
                         _______ _______ _______ _____ _____    ______ ____

>  <TORSDO>
F 7

$$$$
=
 OpenBabel11062419073D

 32 36  0  0  1  0  0  0  0  0999 V2000
  190.1250  177.6860  144.6800 C   0  0  0  0  0  3  0  0  0  0  0  0
  188.8010  177.5030  145.0840 C   0  0  0  0  0  3  0  0  0  0  0  0
  189.5590  175.8740  146.6950 C   0  0  0  0  0  3  0  0  0  0  0  0
  190.8710  176.0620  146.2510 C   0  0  0  0  0  0  0  0  0  0  0  0
  191.1240  176.9740  145.2700 N   0  0  0  0  0  0  0  0  0  0  0  0
  188.5160  176.5930  146.1030 C   0  0  0  0  0  0  0  0  0  0  0  0
  192.7240  174.6060  145.9520 N   0  0  0  0  0  0  0  0  0  0  0  0
  194.0850  176.7860  146.7850 O   0  0  0  0  0  0  0  0  0  0  0  0
  191.9870  175.3070  146.9110 C   0  0  1  0  0  3  0  0  0  0  0  0
  193.2230  175.8820  146.6330 C   0  0  0  0  0  0  0  0  0  0  0  0
  192.7180  170.8980  144.0510 N   0  0  0  0  0  0  0  0  0  0  0  0
  192.8580  173.5850  144.9250 C   0  0  1  0  0  3  0  0  0  0  0  0
  193.7930  171.3050  144.9090 C   0  0  0  0  0  3  0  0  0  0  0  0
  189.3810  171.9620  142.9060 C   0  0  0  0  0  2  0  0  0  0  0  0
  190.6530  173.8910  143.7850 C   0  0  0  0  0  3  0  0  0  0  0  0
  189.6690  173.4380  142.9910 C   0  0  0  0  0  3  0  0  0  0  0  0
  193.8610  172.5570  145.3670 C   0  0  0  0  0  3  0  0  0  0  0  0
  190.6240  171.2000  142.9900 N   0  0  0  0  0  2  0  0  0  0  0  0
  191.4960  172.9500  144.6070 C   0  0  1  0  0  3  0  0  0  0  0  0
  191.6670  171.6400  143.8650 C   0  0  0  0  0  0  0  0  0  0  0  0
  187.1660  176.3980  146.5240 N   0  0  0  0  0  2  0  0  0  0  0  0
  186.3590  177.4820  146.8980 N   0  0  0  0  0  2  0  0  0  0  0  0
  185.0290  177.2280  146.3700 C   0  0  0  0  0  2  0  0  0  0  0  0
  184.6880  178.2470  145.2970 C   0  0  1  0  0  3  0  0  0  0  0  0
  185.7570  179.3110  145.2000 C   0  0  0  0  0  2  0  0  0  0  0  0
  185.7340  179.7700  143.7590 C   0  0  0  0  0  2  0  0  0  0  0  0
  184.6610  177.5820  143.9400 C   0  0  0  0  0  2  0  0  0  0  0  0
  185.1640  178.6180  142.9490 C   0  0  2  0  0  3  0  0  0  0  0  0
  186.0070  177.9850  140.4670 O   0  0  0  0  0  0  0  0  0  0  0  0
  186.4260  177.9070  141.9090 S   0  0  0  0  0  0  0  0  0  0  0  0
  187.7130  178.6580  142.0950 O   0  0  0  0  0  0  0  0  0  0  0  0
  186.6650  176.2530  142.3460 N   0  0  0  0  0  1  0  0  0  0  0  0
  1  2  2  0  0  0  0
  1  5  1  0  0  0  0
  2  6  1  0  0  0  0
  4  3  1  0  0  0  0
  5  4  2  0  0  0  0
  6 21  1  0  0  0  0
  6  3  2  0  0  0  0
  7 10  1  0  0  0  0
  7  9  1  0  0  0  0
  9  4  1  6  0  0  0
 10  8  2  0  0  0  0
 10  9  1  0  0  0  0
 11 13  1  0  0  0  0
 12 17  1  1  0  0  0
 12  7  1  0  0  0  0
 13 17  2  0  0  0  0
 14 18  1  0  0  0  0
 14 16  1  0  0  0  0
 16 15  2  0  0  0  0
 18 20  1  0  0  0  0
 19 15  1  6  0  0  0
 19 12  1  0  0  0  0
 20 11  2  0  0  0  0
 20 19  1  0  0  0  0
 21 22  1  0  0  0  0
 23 22  1  0  0  0  0
 24 23  1  1  0  0  0
 25 24  1  0  0  0  0
 26 25  1  0  0  0  0
 27 24  1  0  0  0  0
 28 30  1  6  0  0  0
 28 26  1  0  0  0  0
 28 27  1  0  0  0  0
 29 30  2  0  0  0  0
 30 31  2  0  0  0  0
 30 32  1  0  0  0  0
M  END
>  <MODEL>
2

>  <REMARK>
 VINA RESULT:      -7.5      2.875      7.654
  Name = 
  7 active torsions:
  status: ('A' for Active; 'I' for Inactive)
    1  A    between atoms: C_1  and  N_8
    2  A    between atoms: C_1  and  C_12
    3  A    between atoms: N_3  and  C_9
    4  A    between atoms: CA_7  and  C_13
    5  A    between atoms: N_8  and  N_32
    6  A    between atoms: S_16  and  C_29
    7  A    between atoms: C_18  and  N_32
                            x       y       z     vdW  Elec       q    Type
                         _______ _______ _______ _____ _____    ______ ____

>  <TORSDO>
F 7

$$$$
=
 OpenBabel11062419073D

 32 36  0  0  1  0  0  0  0  0999 V2000
  189.7210  177.5000  143.4610 C   0  0  0  0  0  3  0  0  0  0  0  0
  189.1070  177.6270  144.7090 C   0  0  0  0  0  3  0  0  0  0  0  0
  189.2450  175.2330  144.9760 C   0  0  0  0  0  3  0  0  0  0  0  0
  189.8350  175.1370  143.7130 C   0  0  0  0  0  0  0  0  0  0  0  0
  190.0740  176.2710  142.9950 N   0  0  0  0  0  0  0  0  0  0  0  0
  188.8720  176.4840  145.4750 C   0  0  0  0  0  0  0  0  0  0  0  0
  191.5310  173.4730  143.6750 N   0  0  0  0  0  0  0  0  0  0  0  0
  189.6410  172.0610  144.9920 O   0  0  0  0  0  0  0  0  0  0  0  0
  190.2570  173.7930  143.1960 C   0  0  1  0  0  3  0  0  0  0  0  0
  190.2440  172.8350  144.2050 C   0  0  0  0  0  0  0  0  0  0  0  0
  195.3330  175.0330  142.9870 N   0  0  0  0  0  0  0  0  0  0  0  0
  192.9630  173.7030  143.7750 C   0  0  1  0  0  3  0  0  0  0  0  0
  194.7450  174.0600  142.1120 C   0  0  0  0  0  3  0  0  0  0  0  0
  194.5410  177.1290  145.9140 C   0  0  0  0  0  2  0  0  0  0  0  0
  192.9720  175.2250  145.7610 C   0  0  0  0  0  3  0  0  0  0  0  0
  193.5690  176.1550  146.5240 C   0  0  0  0  0  3  0  0  0  0  0  0
  193.6070  173.4480  142.4420 C   0  0  0  0  0  3  0  0  0  0  0  0
  195.3190  176.4760  144.8640 N   0  0  0  0  0  2  0  0  0  0  0  0
  193.2520  175.1240  144.2820 C   0  0  1  0  0  3  0  0  0  0  0  0
  194.6900  175.5160  144.0090 C   0  0  0  0  0  0  0  0  0  0  0  0
  188.2460  176.6020  146.7530 N   0  0  0  0  0  2  0  0  0  0  0  0
  187.5660  177.7710  147.1220 N   0  0  0  0  0  2  0  0  0  0  0  0
  186.2320  177.3760  147.5420 C   0  0  0  0  0  2  0  0  0  0  0  0
  185.1860  178.0840  146.6980 C   0  0  1  0  0  3  0  0  0  0  0  0
  185.7210  179.3900  146.1560 C   0  0  0  0  0  2  0  0  0  0  0  0
  184.9890  179.6090  144.8500 C   0  0  0  0  0  2  0  0  0  0  0  0
  184.8530  177.2530  145.4810 C   0  0  0  0  0  2  0  0  0  0  0  0
  184.5600  178.2360  144.3610 C   0  0  2  0  0  3  0  0  0  0  0  0
  184.5610  177.7760  141.7040 O   0  0  0  0  0  0  0  0  0  0  0  0
  185.4750  177.7860  142.8980 S   0  0  0  0  0  0  0  0  0  0  0  0
  186.5800  178.7770  142.6710 O   0  0  0  0  0  0  0  0  0  0  0  0
  186.1550  176.2120  143.1080 N   0  0  0  0  0  1  0  0  0  0  0  0
  1  2  1  0  0  0  0
  2  6  2  0  0  0  0
  3  6  1  0  0  0  0
  4  3  2  0  0  0  0
  5  1  2  0  0  0  0
  5  4  1  0  0  0  0
  6 21  1  0  0  0  0
  7 12  1  0  0  0  0
  7 10  1  0  0  0  0
  9  7  1  0  0  0  0
  9  4  1  1  0  0  0
  9 10  1  0  0  0  0
 10  8  2  0  0  0  0
 11 20  2  0  0  0  0
 12 17  1  6  0  0  0
 12 19  1  0  0  0  0
 13 17  2  0  0  0  0
 13 11  1  0  0  0  0
 14 16  1  0  0  0  0
 15 16  2  0  0  0  0
 18 14  1  0  0  0  0
 19 15  1  1  0  0  0
 20 19  1  0  0  0  0
 20 18  1  0  0  0  0
 21 22  1  0  0  0  0
 22 23  1  0  0  0  0
 24 23  1  1  0  0  0
 25 24  1  0  0  0  0
 26 25  1  0  0  0  0
 27 24  1  0  0  0  0
 28 30  1  6  0  0  0
 28 26  1  0  0  0  0
 28 27  1  0  0  0  0
 29 30  2  0  0  0  0
 30 32  1  0  0  0  0
 31 30  2  0  0  0  0
M  END
>  <MODEL>
3

>  <REMARK>
 VINA RESULT:      -7.4      2.982      8.059
  Name = 
  7 active torsions:
  status: ('A' for Active; 'I' for Inactive)
    1  A    between atoms: C_1  and  N_8
    2  A    between atoms: C_1  and  C_12
    3  A    between atoms: N_3  and  C_9
    4  A    between atoms: CA_7  and  C_13
    5  A    between atoms: N_8  and  N_32
    6  A    between atoms: S_16  and  C_29
    7  A    between atoms: C_18  and  N_32
                            x       y       z     vdW  Elec       q    Type
                         _______ _______ _______ _____ _____    ______ ____

>  <TORSDO>
F 7

$$$$
=
 OpenBabel11062419073D

 32 36  0  0  1  0  0  0  0  0999 V2000
  190.2630  177.7980  143.2530 C   0  0  0  0  0  3  0  0  0  0  0  0
  190.7520  176.5710  142.7970 C   0  0  0  0  0  3  0  0  0  0  0  0
  189.9730  175.5480  144.8390 C   0  0  0  0  0  3  0  0  0  0  0  0
  189.5160  176.7940  145.2760 C   0  0  0  0  0  0  0  0  0  0  0  0
  189.6560  177.8820  144.4680 N   0  0  0  0  0  0  0  0  0  0  0  0
  190.6010  175.4360  143.5950 C   0  0  0  0  0  0  0  0  0  0  0  0
  187.4640  176.5870  146.4550 N   0  0  0  0  0  0  0  0  0  0  0  0
  188.7880  174.5480  147.6350 O   0  0  0  0  0  0  0  0  0  0  0  0
  188.8180  176.9000  146.6000 C   0  0  1  0  0  3  0  0  0  0  0  0
  188.4840  175.6460  147.1010 C   0  0  0  0  0  0  0  0  0  0  0  0
  184.0770  178.5840  145.0750 N   0  0  0  0  0  0  0  0  0  0  0  0
  186.1350  176.8350  145.9190 C   0  0  1  0  0  3  0  0  0  0  0  0
  184.3530  178.4430  146.4760 C   0  0  0  0  0  3  0  0  0  0  0  0
  185.5610  177.9360  141.7640 C   0  0  0  0  0  2  0  0  0  0  0  0
  186.6350  176.5250  143.4880 C   0  0  0  0  0  3  0  0  0  0  0  0
  186.3300  176.7150  142.1940 C   0  0  0  0  0  3  0  0  0  0  0  0
  185.3440  177.6560  146.8980 C   0  0  0  0  0  3  0  0  0  0  0  0
  184.5720  178.2920  142.7790 N   0  0  0  0  0  2  0  0  0  0  0  0
  186.2210  177.5170  144.5460 C   0  0  1  0  0  3  0  0  0  0  0  0
  184.8940  178.1420  144.1650 C   0  0  0  0  0  0  0  0  0  0  0  0
  191.0960  174.1770  143.1400 N   0  0  0  0  0  2  0  0  0  0  0  0
  192.4420  173.8230  143.3070 N   0  0  0  0  0  2  0  0  0  0  0  0
  192.5300  173.0380  144.5270 C   0  0  0  0  0  2  0  0  0  0  0  0
  193.6260  173.5870  145.4260 C   0  0  1  0  0  3  0  0  0  0  0  0
  194.8360  172.6810  145.4190 C   0  0  0  0  0  2  0  0  0  0  0  0
  196.0160  173.5920  145.6760 C   0  0  0  0  0  2  0  0  0  0  0  0
  194.1160  174.9140  144.8950 C   0  0  0  0  0  2  0  0  0  0  0  0
  195.5990  174.9780  145.2150 C   0  0  2  0  0  3  0  0  0  0  0  0
  196.4930  176.9460  143.6020 O   0  0  0  0  0  0  0  0  0  0  0  0
  196.5180  175.4510  143.7620 S   0  0  0  0  0  0  0  0  0  0  0  0
  197.9410  174.9890  143.8950 O   0  0  0  0  0  0  0  0  0  0  0  0
  195.8090  174.7160  142.3690 N   0  0  0  0  0  1  0  0  0  0  0  0
  1  5  1  0  0  0  0
  2  1  2  0  0  0  0
  2  6  1  0  0  0  0
  3  4  1  0  0  0  0
  5  4  2  0  0  0  0
  6  3  2  0  0  0  0
  7  9  1  0  0  0  0
  7 10  1  0  0  0  0
  9  4  1  6  0  0  0
  9 10  1  0  0  0  0
 10  8  2  0  0  0  0
 11 13  1  0  0  0  0
 12  7  1  1  0  0  0
 12 17  1  0  0  0  0
 13 17  2  0  0  0  0
 14 16  1  0  0  0  0
 14 18  1  0  0  0  0
 16 15  2  0  0  0  0
 18 20  1  0  0  0  0
 19 15  1  6  0  0  0
 19 12  1  0  0  0  0
 20 19  1  0  0  0  0
 20 11  2  0  0  0  0
 21 22  1  0  0  0  0
 21  6  1  0  0  0  0
 22 23  1  0  0  0  0
 24 23  1  6  0  0  0
 25 24  1  0  0  0  0
 25 26  1  0  0  0  0
 27 28  1  0  0  0  0
 27 24  1  0  0  0  0
 28 30  1  6  0  0  0
 28 26  1  0  0  0  0
 29 30  2  0  0  0  0
 30 31  2  0  0  0  0
 32 30  1  0  0  0  0
M  END
>  <MODEL>
4

>  <REMARK>
 VINA RESULT:      -7.4      1.641      1.932
  Name = 
  7 active torsions:
  status: ('A' for Active; 'I' for Inactive)
    1  A    between atoms: C_1  and  N_8
    2  A    between atoms: C_1  and  C_12
    3  A    between atoms: N_3  and  C_9
    4  A    between atoms: CA_7  and  C_13
    5  A    between atoms: N_8  and  N_32
    6  A    between atoms: S_16  and  C_29
    7  A    between atoms: C_18  and  N_32
                            x       y       z     vdW  Elec       q    Type
                         _______ _______ _______ _____ _____    ______ ____

>  <TORSDO>
F 7

$$$$
=
 OpenBabel11062419073D

 32 36  0  0  1  0  0  0  0  0999 V2000
  190.0370  177.7920  144.0750 C   0  0  0  0  0  3  0  0  0  0  0  0
  189.3390  177.8780  142.8680 C   0  0  0  0  0  3  0  0  0  0  0  0
  188.7830  175.5390  143.0680 C   0  0  0  0  0  3  0  0  0  0  0  0
  189.5090  175.4790  144.2600 C   0  0  0  0  0  0  0  0  0  0  0  0
  190.1020  176.6080  144.7430 N   0  0  0  0  0  0  0  0  0  0  0  0
  188.7030  176.7430  142.3630 C   0  0  0  0  0  0  0  0  0  0  0  0
  190.8700  173.9560  145.4740 N   0  0  0  0  0  0  0  0  0  0  0  0
  189.2940  174.7660  147.5140 O   0  0  0  0  0  0  0  0  0  0  0  0
  189.5670  174.1890  145.0240 C   0  0  1  0  0  3  0  0  0  0  0  0
  189.7310  174.4130  146.3880 C   0  0  0  0  0  0  0  0  0  0  0  0
  194.5760  173.6720  143.5900 N   0  0  0  0  0  0  0  0  0  0  0  0
  192.2830  173.6960  145.2470 C   0  0  1  0  0  3  0  0  0  0  0  0
  193.5470  172.6930  143.3850 C   0  0  0  0  0  3  0  0  0  0  0  0
  195.1810  176.9220  145.2210 C   0  0  0  0  0  2  0  0  0  0  0  0
  193.2240  175.7960  146.2290 C   0  0  0  0  0  3  0  0  0  0  0  0
  194.2200  176.6880  146.3560 C   0  0  0  0  0  3  0  0  0  0  0  0
  192.4380  172.7070  144.1260 C   0  0  0  0  0  3  0  0  0  0  0  0
  195.4460  175.6680  144.5180 N   0  0  0  0  0  2  0  0  0  0  0  0
  193.0370  175.0030  144.9600 C   0  0  1  0  0  3  0  0  0  0  0  0
  194.3870  174.7240  144.3300 C   0  0  0  0  0  0  0  0  0  0  0  0
  187.9860  176.8200  141.1300 N   0  0  0  0  0  2  0  0  0  0  0  0
  187.0150  177.8080  140.9170 N   0  0  0  0  0  2  0  0  0  0  0  0
  185.8380  177.4230  141.6770 C   0  0  0  0  0  2  0  0  0  0  0  0
  185.3070  178.6130  142.4600 C   0  0  1  0  0  3  0  0  0  0  0  0
  183.9180  178.3380  142.9870 C   0  0  0  0  0  2  0  0  0  0  0  0
  183.8050  179.1530  144.2560 C   0  0  0  0  0  2  0  0  0  0  0  0
  186.1610  178.8490  143.6850 C   0  0  0  0  0  2  0  0  0  0  0  0
  185.2220  179.3570  144.7650 C   0  0  2  0  0  3  0  0  0  0  0  0
  185.8370  179.3830  147.3910 O   0  0  0  0  0  0  0  0  0  0  0  0
  185.4750  178.4430  146.2750 S   0  0  0  0  0  0  0  0  0  0  0  0
  184.2170  177.7050  146.6340 O   0  0  0  0  0  0  0  0  0  0  0  0
  186.7570  177.3060  146.0500 N   0  0  0  0  0  1  0  0  0  0  0  0
  1  5  1  0  0  0  0
  2  1  2  0  0  0  0
  3  4  1  0  0  0  0
  4  5  2  0  0  0  0
  6  2  1  0  0  0  0
  6  3  2  0  0  0  0
  7 10  1  0  0  0  0
  9  4  1  6  0  0  0
  9  7  1  0  0  0  0
  9 10  1  0  0  0  0
 10  8  2  0  0  0  0
 11 20  2  0  0  0  0
 12 17  1  6  0  0  0
 12  7  1  0  0  0  0
 13 11  1  0  0  0  0
 13 17  2  0  0  0  0
 14 16  1  0  0  0  0
 15 16  2  0  0  0  0
 18 14  1  0  0  0  0
 19 12  1  0  0  0  0
 19 15  1  1  0  0  0
 20 18  1  0  0  0  0
 20 19  1  0  0  0  0
 21  6  1  0  0  0  0
 22 21  1  0  0  0  0
 22 23  1  0  0  0  0
 24 23  1  1  0  0  0
 24 25  1  0  0  0  0
 24 27  1  0  0  0  0
 25 26  1  0  0  0  0
 26 28  1  0  0  0  0
 27 28  1  0  0  0  0
 28 30  1  1  0  0  0
 30 31  2  0  0  0  0
 30 29  2  0  0  0  0
 32 30  1  0  0  0  0
M  END
>  <MODEL>
5

>  <REMARK>
 VINA RESULT:      -7.3      2.744      7.776
  Name = 
  7 active torsions:
  status: ('A' for Active; 'I' for Inactive)
    1  A    between atoms: C_1  and  N_8
    2  A    between atoms: C_1  and  C_12
    3  A    between atoms: N_3  and  C_9
    4  A    between atoms: CA_7  and  C_13
    5  A    between atoms: N_8  and  N_32
    6  A    between atoms: S_16  and  C_29
    7  A    between atoms: C_18  and  N_32
                            x       y       z     vdW  Elec       q    Type
                         _______ _______ _______ _____ _____    ______ ____

>  <TORSDO>
F 7

$$$$
=
 OpenBabel11062419073D

 32 36  0  0  1  0  0  0  0  0999 V2000
  190.4970  177.8950  142.7600 C   0  0  0  0  0  3  0  0  0  0  0  0
  191.3740  176.8080  142.7660 C   0  0  0  0  0  3  0  0  0  0  0  0
  189.5170  175.3580  142.2450 C   0  0  0  0  0  3  0  0  0  0  0  0
  188.6620  176.4630  142.2700 C   0  0  0  0  0  0  0  0  0  0  0  0
  189.1730  177.7030  142.5090 N   0  0  0  0  0  0  0  0  0  0  0  0
  190.8810  175.5300  142.5010 C   0  0  0  0  0  0  0  0  0  0  0  0
  186.4650  177.3430  142.4790 N   0  0  0  0  0  0  0  0  0  0  0  0
  186.7060  177.5570  139.7970 O   0  0  0  0  0  0  0  0  0  0  0  0
  187.2040  176.2740  141.9670 C   0  0  1  0  0  3  0  0  0  0  0  0
  186.7690  177.1640  140.9900 C   0  0  0  0  0  0  0  0  0  0  0  0
  184.0150  178.7560  145.5400 N   0  0  0  0  0  0  0  0  0  0  0  0
  185.9640  178.1520  143.5790 C   0  0  1  0  0  3  0  0  0  0  0  0
  183.7380  179.0350  144.1600 C   0  0  0  0  0  3  0  0  0  0  0  0
  186.2830  176.7980  147.6870 C   0  0  0  0  0  2  0  0  0  0  0  0
  187.2740  177.1210  145.4450 C   0  0  0  0  0  3  0  0  0  0  0  0
  187.4610  176.8760  146.7520 C   0  0  0  0  0  3  0  0  0  0  0  0
  184.6230  178.7230  143.2120 C   0  0  0  0  0  3  0  0  0  0  0  0
  185.2600  177.7640  147.2920 N   0  0  0  0  0  2  0  0  0  0  0  0
  185.8940  177.3270  144.8730 C   0  0  1  0  0  3  0  0  0  0  0  0
  185.0130  178.0050  145.9030 C   0  0  0  0  0  0  0  0  0  0  0  0
  191.7680  174.4110  142.5040 N   0  0  0  0  0  2  0  0  0  0  0  0
  192.2390  173.8630  143.7050 N   0  0  0  0  0  2  0  0  0  0  0  0
  193.6810  174.0480  143.7250 C   0  0  0  0  0  2  0  0  0  0  0  0
  194.1060  174.7060  145.0270 C   0  0  1  0  0  3  0  0  0  0  0  0
  194.1610  176.2100  144.8810 C   0  0  0  0  0  2  0  0  0  0  0  0
  193.8570  176.7550  146.2590 C   0  0  0  0  0  2  0  0  0  0  0  0
  193.0760  174.4450  146.1010 C   0  0  0  0  0  2  0  0  0  0  0  0
  193.0530  175.6850  146.9780 C   0  0  2  0  0  3  0  0  0  0  0  0
  190.9260  177.0570  146.0480 O   0  0  0  0  0  0  0  0  0  0  0  0
  191.3730  176.2310  147.2210 S   0  0  0  0  0  0  0  0  0  0  0  0
  190.4720  175.0380  147.3630 O   0  0  0  0  0  0  0  0  0  0  0  0
  191.2820  177.1850  148.6580 N   0  0  0  0  0  1  0  0  0  0  0  0
  1  2  1  0  0  0  0
  3  4  2  0  0  0  0
  3  6  1  0  0  0  0
  4  5  1  0  0  0  0
  5  1  2  0  0  0  0
  6 21  1  0  0  0  0
  6  2  2  0  0  0  0
  8 10  2  0  0  0  0
  9  4  1  1  0  0  0
  9  7  1  0  0  0  0
 10  9  1  0  0  0  0
 10  7  1  0  0  0  0
 11 20  2  0  0  0  0
 12  7  1  6  0  0  0
 12 19  1  0  0  0  0
 13 11  1  0  0  0  0
 15 16  2  0  0  0  0
 16 14  1  0  0  0  0
 17 12  1  0  0  0  0
 17 13  2  0  0  0  0
 18 14  1  0  0  0  0
 19 15  1  1  0  0  0
 19 20  1  0  0  0  0
 20 18  1  0  0  0  0
 21 22  1  0  0  0  0
 22 23  1  0  0  0  0
 24 23  1  6  0  0  0
 24 27  1  0  0  0  0
 25 24  1  0  0  0  0
 25 26  1  0  0  0  0
 26 28  1  0  0  0  0
 27 28  1  0  0  0  0
 28 30  1  6  0  0  0
 29 30  2  0  0  0  0
 30 31  2  0  0  0  0
 30 32  1  0  0  0  0
M  END
>  <MODEL>
6

>  <REMARK>
 VINA RESULT:      -7.2      2.073      3.386
  Name = 
  7 active torsions:
  status: ('A' for Active; 'I' for Inactive)
    1  A    between atoms: C_1  and  N_8
    2  A    between atoms: C_1  and  C_12
    3  A    between atoms: N_3  and  C_9
    4  A    between atoms: CA_7  and  C_13
    5  A    between atoms: N_8  and  N_32
    6  A    between atoms: S_16  and  C_29
    7  A    between atoms: C_18  and  N_32
                            x       y       z     vdW  Elec       q    Type
                         _______ _______ _______ _____ _____    ______ ____

>  <TORSDO>
F 7

$$$$
=
 OpenBabel11062419073D

 32 36  0  0  1  0  0  0  0  0999 V2000
  194.3530  176.1550  146.4030 C   0  0  0  0  0  3  0  0  0  0  0  0
  194.3410  174.9890  145.6330 C   0  0  0  0  0  3  0  0  0  0  0  0
  191.9660  174.8060  146.0180 C   0  0  0  0  0  3  0  0  0  0  0  0
  192.0150  175.9620  146.8030 C   0  0  0  0  0  0  0  0  0  0  0  0
  193.2010  176.6160  146.9620 N   0  0  0  0  0  0  0  0  0  0  0  0
  193.1370  174.3120  145.4350 C   0  0  0  0  0  0  0  0  0  0  0  0
  189.8500  176.8490  146.3910 N   0  0  0  0  0  0  0  0  0  0  0  0
  189.0960  174.5410  147.5760 O   0  0  0  0  0  0  0  0  0  0  0  0
  190.7500  176.5000  147.4030 C   0  0  1  0  0  3  0  0  0  0  0  0
  189.6980  175.6000  147.2630 C   0  0  0  0  0  0  0  0  0  0  0  0
  188.8290  177.9150  142.4950 N   0  0  0  0  0  0  0  0  0  0  0  0
  189.4520  177.6450  145.2410 C   0  0  1  0  0  3  0  0  0  0  0  0
  190.1950  177.7250  142.8930 C   0  0  0  0  0  3  0  0  0  0  0  0
  185.3820  177.5510  143.7470 C   0  0  0  0  0  2  0  0  0  0  0  0
  186.9810  177.6760  145.6290 C   0  0  0  0  0  3  0  0  0  0  0  0
  185.7250  177.8440  145.1840 C   0  0  0  0  0  3  0  0  0  0  0  0
  190.5110  177.5560  144.1790 C   0  0  0  0  0  3  0  0  0  0  0  0
  186.4930  177.9270  142.8760 N   0  0  0  0  0  2  0  0  0  0  0  0
  188.0810  177.1950  144.7160 C   0  0  1  0  0  3  0  0  0  0  0  0
  187.8390  177.7130  143.3130 C   0  0  0  0  0  0  0  0  0  0  0  0
  193.1120  173.1200  144.6500 N   0  0  0  0  0  2  0  0  0  0  0  0
  192.1270  172.9150  143.6740 N   0  0  0  0  0  2  0  0  0  0  0  0
  191.1530  171.9940  144.2360 C   0  0  0  0  0  2  0  0  0  0  0  0
  189.7470  172.4110  143.8370 C   0  0  1  0  0  3  0  0  0  0  0  0
  189.6490  173.9120  143.6900 C   0  0  0  0  0  2  0  0  0  0  0  0
  188.5710  174.1400  142.6530 C   0  0  0  0  0  2  0  0  0  0  0  0
  189.4070  171.8520  142.4750 C   0  0  0  0  0  2  0  0  0  0  0  0
  188.5180  172.8830  141.8020 C   0  0  2  0  0  3  0  0  0  0  0  0
  188.6730  172.1360  139.2150 O   0  0  0  0  0  0  0  0  0  0  0  0
  189.1140  173.2230  140.1560 S   0  0  0  0  0  0  0  0  0  0  0  0
  188.5670  174.5410  139.6860 O   0  0  0  0  0  0  0  0  0  0  0  0
  190.8390  173.2980  140.1740 N   0  0  0  0  0  1  0  0  0  0  0  0
  1  5  1  0  0  0  0
  2  1  2  0  0  0  0
  3  4  1  0  0  0  0
  4  5  2  0  0  0  0
  6  2  1  0  0  0  0
  6  3  2  0  0  0  0
  7 10  1  0  0  0  0
  7  9  1  0  0  0  0
  9  4  1  6  0  0  0
 10  9  1  0  0  0  0
 10  8  2  0  0  0  0
 11 13  1  0  0  0  0
 11 20  2  0  0  0  0
 12 17  1  6  0  0  0
 12  7  1  0  0  0  0
 13 17  2  0  0  0  0
 14 16  1  0  0  0  0
 16 15  2  0  0  0  0
 18 20  1  0  0  0  0
 18 14  1  0  0  0  0
 19 12  1  0  0  0  0
 19 15  1  1  0  0  0
 20 19  1  0  0  0  0
 21  6  1  0  0  0  0
 22 23  1  0  0  0  0
 22 21  1  0  0  0  0
 24 23  1  6  0  0  0
 25 24  1  0  0  0  0
 26 25  1  0  0  0  0
 27 24  1  0  0  0  0
 28 30  1  6  0  0  0
 28 27  1  0  0  0  0
 28 26  1  0  0  0  0
 29 30  2  0  0  0  0
 30 32  1  0  0  0  0
 31 30  2  0  0  0  0
M  END
>  <MODEL>
7

>  <REMARK>
 VINA RESULT:      -7.2      2.989      4.885
  Name = 
  7 active torsions:
  status: ('A' for Active; 'I' for Inactive)
    1  A    between atoms: C_1  and  N_8
    2  A    between atoms: C_1  and  C_12
    3  A    between atoms: N_3  and  C_9
    4  A    between atoms: CA_7  and  C_13
    5  A    between atoms: N_8  and  N_32
    6  A    between atoms: S_16  and  C_29
    7  A    between atoms: C_18  and  N_32
                            x       y       z     vdW  Elec       q    Type
                         _______ _______ _______ _____ _____    ______ ____

>  <TORSDO>
F 7

$$$$
=
 OpenBabel11062419073D

 32 36  0  0  1  0  0  0  0  0999 V2000
  190.6530  178.2910  143.1410 C   0  0  0  0  0  3  0  0  0  0  0  0
  191.8720  177.6120  143.0940 C   0  0  0  0  0  3  0  0  0  0  0  0
  190.6720  175.5690  142.6350 C   0  0  0  0  0  3  0  0  0  0  0  0
  189.4670  176.2730  142.7130 C   0  0  0  0  0  0  0  0  0  0  0  0
  189.4870  177.6160  142.9450 N   0  0  0  0  0  0  0  0  0  0  0  0
  191.8820  176.2400  142.8340 C   0  0  0  0  0  0  0  0  0  0  0  0
  187.1640  176.4650  142.1610 N   0  0  0  0  0  0  0  0  0  0  0  0
  187.9810  175.1660  139.9370 O   0  0  0  0  0  0  0  0  0  0  0  0
  188.1740  175.5500  142.4710 C   0  0  1  0  0  3  0  0  0  0  0  0
  187.8310  175.5600  141.1220 C   0  0  0  0  0  0  0  0  0  0  0  0
  183.7330  178.6660  143.0260 N   0  0  0  0  0  0  0  0  0  0  0  0
  186.2900  177.5790  142.4930 C   0  0  1  0  0  3  0  0  0  0  0  0
  184.0790  178.3030  141.6810 C   0  0  0  0  0  3  0  0  0  0  0  0
  184.7730  178.1200  146.5190 C   0  0  0  0  0  2  0  0  0  0  0  0
  186.6330  177.6150  144.9710 C   0  0  0  0  0  3  0  0  0  0  0  0
  186.2370  177.9650  146.2050 C   0  0  0  0  0  3  0  0  0  0  0  0
  185.2630  177.7520  141.4090 C   0  0  0  0  0  3  0  0  0  0  0  0
  184.0660  178.6790  145.3690 N   0  0  0  0  0  2  0  0  0  0  0  0
  185.6360  177.3680  143.8660 C   0  0  1  0  0  3  0  0  0  0  0  0
  184.4410  178.2830  144.0460 C   0  0  0  0  0  0  0  0  0  0  0  0
  193.1230  175.5360  142.7830 N   0  0  0  0  0  2  0  0  0  0  0  0
  193.4990  174.6550  143.8070 N   0  0  0  0  0  2  0  0  0  0  0  0
  194.4120  175.3770  144.6790 C   0  0  0  0  0  2  0  0  0  0  0  0
  193.8990  175.3540  146.1090 C   0  0  1  0  0  3  0  0  0  0  0  0
  193.3570  176.7060  146.5110 C   0  0  0  0  0  2  0  0  0  0  0  0
  192.2830  176.4160  147.5360 C   0  0  0  0  0  2  0  0  0  0  0  0
  192.7300  174.4040  146.2250 C   0  0  0  0  0  2  0  0  0  0  0  0
  191.7960  175.0030  147.2620 C   0  0  2  0  0  3  0  0  0  0  0  0
  190.0160  174.1540  145.4220 O   0  0  0  0  0  0  0  0  0  0  0  0
  190.1260  175.0340  146.6360 S   0  0  0  0  0  0  0  0  0  0  0  0
  189.1830  174.5410  147.6960 O   0  0  0  0  0  0  0  0  0  0  0  0
  189.7040  176.6530  146.2070 N   0  0  0  0  0  1  0  0  0  0  0  0
  2  1  1  0  0  0  0
  3  4  2  0  0  0  0
  3  6  1  0  0  0  0
  4  5  1  0  0  0  0
  5  1  2  0  0  0  0
  6  2  2  0  0  0  0
  7  9  1  0  0  0  0
  7 12  1  0  0  0  0
  8 10  2  0  0  0  0
  9  4  1  6  0  0  0
 10  7  1  0  0  0  0
 10  9  1  0  0  0  0
 11 20  2  0  0  0  0
 12 17  1  6  0  0  0
 12 19  1  0  0  0  0
 13 11  1  0  0  0  0
 15 16  2  0  0  0  0
 16 14  1  0  0  0  0
 17 13  2  0  0  0  0
 18 14  1  0  0  0  0
 19 20  1  0  0  0  0
 19 15  1  1  0  0  0
 20 18  1  0  0  0  0
 21  6  1  0  0  0  0
 21 22  1  0  0  0  0
 22 23  1  0  0  0  0
 24 23  1  6  0  0  0
 24 27  1  0  0  0  0
 24 25  1  0  0  0  0
 25 26  1  0  0  0  0
 27 28  1  0  0  0  0
 28 30  1  6  0  0  0
 28 26  1  0  0  0  0
 29 30  2  0  0  0  0
 30 31  2  0  0  0  0
 32 30  1  0  0  0  0
M  END
>  <MODEL>
8

>  <REMARK>
 VINA RESULT:      -7.2      2.195      3.752
  Name = 
  7 active torsions:
  status: ('A' for Active; 'I' for Inactive)
    1  A    between atoms: C_1  and  N_8
    2  A    between atoms: C_1  and  C_12
    3  A    between atoms: N_3  and  C_9
    4  A    between atoms: CA_7  and  C_13
    5  A    between atoms: N_8  and  N_32
    6  A    between atoms: S_16  and  C_29
    7  A    between atoms: C_18  and  N_32
                            x       y       z     vdW  Elec       q    Type
                         _______ _______ _______ _____ _____    ______ ____

>  <TORSDO>
F 7

$$$$
=
 OpenBabel11062419073D

 32 36  0  0  1  0  0  0  0  0999 V2000
  191.0190  178.1610  143.6060 C   0  0  0  0  0  3  0  0  0  0  0  0
  191.9870  177.1530  143.5820 C   0  0  0  0  0  3  0  0  0  0  0  0
  190.9890  176.2020  145.5630 C   0  0  0  0  0  3  0  0  0  0  0  0
  190.0490  177.2370  145.5730 C   0  0  0  0  0  0  0  0  0  0  0  0
  190.0760  178.1780  144.5870 N   0  0  0  0  0  0  0  0  0  0  0  0
  191.9680  176.1630  144.5660 C   0  0  0  0  0  0  0  0  0  0  0  0
  187.7320  177.0290  146.0530 N   0  0  0  0  0  0  0  0  0  0  0  0
  188.5900  174.8220  147.3550 O   0  0  0  0  0  0  0  0  0  0  0  0
  188.9850  177.2560  146.6300 C   0  0  1  0  0  3  0  0  0  0  0  0
  188.4870  175.9800  146.8720 C   0  0  0  0  0  0  0  0  0  0  0  0
  185.3180  179.2310  143.4670 N   0  0  0  0  0  0  0  0  0  0  0  0
  186.6350  177.3970  145.1730 C   0  0  1  0  0  3  0  0  0  0  0  0
  185.3040  179.4510  144.8850 C   0  0  0  0  0  3  0  0  0  0  0  0
  187.0970  177.3250  140.8620 C   0  0  0  0  0  2  0  0  0  0  0  0
  187.4290  176.2830  143.0790 C   0  0  0  0  0  3  0  0  0  0  0  0
  187.4110  176.1460  141.7430 C   0  0  0  0  0  3  0  0  0  0  0  0
  185.9510  178.6240  145.7080 C   0  0  0  0  0  3  0  0  0  0  0  0
  186.0900  178.1740  141.4950 N   0  0  0  0  0  2  0  0  0  0  0  0
  187.1370  177.6080  143.7370 C   0  0  1  0  0  3  0  0  0  0  0  0
  186.1200  178.3710  142.9120 C   0  0  0  0  0  0  0  0  0  0  0  0
  192.9520  175.1290  144.5510 N   0  0  0  0  0  2  0  0  0  0  0  0
  192.8210  174.0160  143.7080 N   0  0  0  0  0  2  0  0  0  0  0  0
  192.8550  172.8330  144.5520 C   0  0  0  0  0  2  0  0  0  0  0  0
  191.6510  171.9510  144.2650 C   0  0  1  0  0  3  0  0  0  0  0  0
  190.3640  172.6570  144.6250 C   0  0  0  0  0  2  0  0  0  0  0  0
  189.3230  172.0890  143.6860 C   0  0  0  0  0  2  0  0  0  0  0  0
  191.5540  171.6720  142.7830 C   0  0  0  0  0  2  0  0  0  0  0  0
  190.0720  171.5900  142.4620 C   0  0  2  0  0  3  0  0  0  0  0  0
  190.2140  171.9590  139.7940 O   0  0  0  0  0  0  0  0  0  0  0  0
  189.6950  172.6080  141.0470 S   0  0  0  0  0  0  0  0  0  0  0  0
  188.2080  172.7860  140.9370 O   0  0  0  0  0  0  0  0  0  0  0  0
  190.4400  174.1550  141.2380 N   0  0  0  0  0  1  0  0  0  0  0  0
  1  5  1  0  0  0  0
  2  1  2  0  0  0  0
  2  6  1  0  0  0  0
  3  4  1  0  0  0  0
  5  4  2  0  0  0  0
  6  3  2  0  0  0  0
  7  9  1  0  0  0  0
  7 10  1  0  0  0  0
  9  4  1  6  0  0  0
  9 10  1  0  0  0  0
 10  8  2  0  0  0  0
 11 13  1  0  0  0  0
 12 17  1  1  0  0  0
 12  7  1  0  0  0  0
 13 17  2  0  0  0  0
 14 18  1  0  0  0  0
 14 16  1  0  0  0  0
 16 15  2  0  0  0  0
 18 20  1  0  0  0  0
 19 15  1  6  0  0  0
 19 12  1  0  0  0  0
 20 11  2  0  0  0  0
 20 19  1  0  0  0  0
 21  6  1  0  0  0  0
 22 21  1  0  0  0  0
 22 23  1  0  0  0  0
 24 23  1  6  0  0  0
 24 25  1  0  0  0  0
 26 25  1  0  0  0  0
 27 24  1  0  0  0  0
 28 30  1  6  0  0  0
 28 27  1  0  0  0  0
 28 26  1  0  0  0  0
 29 30  2  0  0  0  0
 30 32  1  0  0  0  0
 31 30  2  0  0  0  0
M  END
>  <MODEL>
9

>  <REMARK>
 VINA RESULT:      -7.1      2.737      3.719
  Name = 
  7 active torsions:
  status: ('A' for Active; 'I' for Inactive)
    1  A    between atoms: C_1  and  N_8
    2  A    between atoms: C_1  and  C_12
    3  A    between atoms: N_3  and  C_9
    4  A    between atoms: CA_7  and  C_13
    5  A    between atoms: N_8  and  N_32
    6  A    between atoms: S_16  and  C_29
    7  A    between atoms: C_18  and  N_32
                            x       y       z     vdW  Elec       q    Type
                         _______ _______ _______ _____ _____    ______ ____

>  <TORSDO>
F 7

$$$$
