=
 OpenBabel11072408293D

 56 61  0  0  1  0  0  0  0  0999 V2000
  185.7500  178.2970  147.0800 N   0  0  0  0  0  2  0  0  0  0  0  0
  188.7930  176.5940  144.8960 C   0  0  0  0  0  0  0  0  0  0  0  0
  187.7430  177.0460  145.5270 C   0  0  0  0  0  0  0  0  0  0  0  0
  185.8460  178.6290  145.6920 C   0  0  0  0  0  0  0  0  0  0  0  0
  185.1940  179.6040  145.2390 O   0  0  0  0  0  0  0  0  0  0  0  0
  189.8370  176.1480  144.2530 C   0  0  0  0  0  3  0  0  0  0  0  0
  186.6710  177.7830  144.7650 C   0  0  2  0  0  3  0  0  0  0  0  0
  186.5980  177.3000  147.6660 C   0  0  0  0  0  3  0  0  0  0  0  0
  187.5560  176.7100  146.9480 C   0  0  0  0  0  3  0  0  0  0  0  0
  185.7470  176.7950  144.0560 C   0  0  0  0  0  2  0  0  0  0  0  0
  185.4970  177.2070  142.6110 C   0  0  0  0  0  2  0  0  0  0  0  0
  186.5010  178.2530  142.1490 C   0  0  0  0  0  2  0  0  0  0  0  0
  187.2600  177.7740  140.9230 C   0  0  2  0  0  3  0  0  0  0  0  0
  186.3490  177.2610  140.0000 O   0  0  0  0  0  1  0  0  0  0  0  0
  188.2530  176.6870  141.3120 C   0  0  0  0  0  2  0  0  0  0  0  0
  187.9550  175.3750  140.5960 C   0  0  0  0  0  2  0  0  0  0  0  0
  188.3250  174.1620  141.4400 C   0  0  0  0  0  2  0  0  0  0  0  0
  189.4020  173.3140  140.7620 C   0  0  2  0  0  3  0  0  0  0  0  0
  189.8110  172.1040  141.5930 C   0  0  0  0  0  2  0  0  0  0  0  0
  189.0160  172.1500  143.2250 S   0  0  0  0  0  1  0  0  0  0  0  0
  190.5040  174.0800  140.3220 O   0  0  0  0  0  0  0  0  0  0  0  0
  193.3080  173.5140  140.7460 O   0  0  0  0  0  0  0  0  0  0  0  0
  191.1230  173.0900  138.1290 C   0  0  2  0  0  0  0  0  0  0  0  0
  193.3550  172.9740  138.3770 C   0  0  2  0  0  3  0  0  0  0  0  0
  192.3230  172.8760  137.4090 O   0  0  0  0  0  0  0  0  0  0  0  0
  189.8700  172.4100  137.6360 C   0  0  1  0  0  3  0  0  0  0  0  0
  190.0580  173.9130  137.4470 C   0  0  2  0  0  3  0  0  0  0  0  0
  192.6980  173.2710  139.6730 C   0  0  0  0  0  0  0  0  0  0  0  0
  191.3010  173.2810  139.5540 N   0  0  0  0  0  0  0  0  0  0  0  0
  189.4260  173.0800  136.3470 C   0  0  0  0  0  2  0  0  0  0  0  0
  193.9300  175.0790  137.3730 O   0  0  0  0  0  0  0  0  0  0  0  0
  194.3190  174.0620  138.0080 C   0  0  0  0  0  0  0  0  0  0  0  0
  195.6430  173.9740  138.4180 O   0  0  0  0  0  1  0  0  0  0  0  0
  191.2140  176.5510  144.6560 C   0  0  0  0  0  2  0  0  0  0  0  0
  192.6310  175.2840  146.2640 C   0  0  0  0  0  3  0  0  0  0  0  0
  191.5410  176.0190  146.0190 C   0  0  0  0  0  3  0  0  0  0  0  0
  193.6310  174.9120  145.2040 C   0  0  2  0  0  3  0  0  0  0  0  0
  193.6870  173.3900  144.9930 C   0  0  1  0  0  3  0  0  0  0  0  0
  193.6400  172.7140  146.2140 O   0  0  0  0  0  1  0  0  0  0  0  0
  192.6640  172.8340  143.9930 C   0  0  0  0  0  2  0  0  0  0  0  0
  192.6410  171.3130  143.9260 C   0  0  0  0  0  2  0  0  0  0  0  0
  193.7550  170.8040  143.0320 C   0  0  0  0  0  2  0  0  0  0  0  0
  194.0830  169.4990  143.3950 O   0  0  0  0  0  0  0  0  0  0  0  0
  194.3910  169.5800  144.7520 C   0  0  0  0  0  2  0  0  0  0  0  0
  194.0620  168.2630  145.4220 C   0  0  0  0  0  1  0  0  0  0  0  0
  195.0040  175.5090  145.5070 C   0  0  0  0  0  2  0  0  0  0  0  0
  194.1440  176.1430  142.9510 O   0  0  0  0  0  1  0  0  0  0  0  0
  197.6330  176.6380  143.0990 O   0  0  0  0  0  1  0  0  0  0  0  0
  195.4580  175.6770  142.9240 C   0  0  1  0  0  3  0  0  0  0  0  0
  196.3550  176.6690  143.6610 C   0  0  1  0  0  3  0  0  0  0  0  0
  195.9670  175.3460  144.3300 C   0  0  1  0  0  0  0  0  0  0  0  0
  196.7160  173.1770  143.5560 C   0  0  0  0  0  2  0  0  0  0  0  0
  197.1320  173.7200  145.8130 C   0  0  0  0  0  2  0  0  0  0  0  0
  196.9930  174.2840  144.4670 N   0  0  0  0  0  0  0  0  0  0  0  0
  197.2000  171.9170  144.2310 C   0  0  0  0  0  2  0  0  0  0  0  0
  197.0710  172.2120  145.7010 C   0  0  0  0  0  2  0  0  0  0  0  0
  1  8  1  0  0  0  0
  2  3  2  0  0  0  0
  3  9  1  0  0  0  0
  4  1  1  0  0  0  0
  5  4  2  0  0  0  0
  6 34  1  0  0  0  0
  6  2  2  0  0  0  0
  7 10  1  1  0  0  0
  7  3  1  0  0  0  0
  7  4  1  0  0  0  0
  9  8  2  0  0  0  0
 11 10  1  0  0  0  0
 12 11  1  0  0  0  0
 13 14  1  6  0  0  0
 13 15  1  0  0  0  0
 13 12  1  0  0  0  0
 16 15  1  0  0  0  0
 16 17  1  0  0  0  0
 18 17  1  1  0  0  0
 18 19  1  0  0  0  0
 19 20  1  0  0  0  0
 21 18  1  0  0  0  0
 23 25  1  6  0  0  0
 23 29  1  0  0  0  0
 24 32  1  6  0  0  0
 24 28  1  0  0  0  0
 25 24  1  0  0  0  0
 26 30  1  6  0  0  0
 26 23  1  0  0  0  0
 27 30  1  6  0  0  0
 27 26  1  0  0  0  0
 27 23  1  0  0  0  0
 28 22  2  0  0  0  0
 29 28  1  0  0  0  0
 29 21  1  0  0  0  0
 31 32  2  0  0  0  0
 32 33  1  0  0  0  0
 34 36  1  0  0  0  0
 36 35  2  0  0  0  0
 37 46  1  1  0  0  0
 37 35  1  0  0  0  0
 38 37  1  0  0  0  0
 38 39  1  1  0  0  0
 40 38  1  0  0  0  0
 41 40  1  0  0  0  0
 42 43  1  0  0  0  0
 42 41  1  0  0  0  0
 43 44  1  0  0  0  0
 44 45  1  0  0  0  0
 49 47  1  1  0  0  0
 49 50  1  0  0  0  0
 49 51  1  0  0  0  0
 50 48  1  6  0  0  0
 50 51  1  0  0  0  0
 51 54  1  0  0  0  0
 51 46  1  1  0  0  0
 52 55  1  0  0  0  0
 52 54  1  0  0  0  0
 54 53  1  0  0  0  0
 55 56  1  0  0  0  0
 56 53  1  0  0  0  0
M  END
>  <MODEL>
1

>  <REMARK>
 VINA RESULT:      -5.8      0.000      0.000
  Name = 
  24 active torsions:
  status: ('A' for Active; 'I' for Inactive)
    1  A    between atoms: C_6  and  C_16
    2  A    between atoms: C_6  and  C_34
    3  A    between atoms: C_7  and  C_36
    4  A    between atoms: C_7  and  C_49
    5  A    between atoms: C_8  and  C_9
    6  A    between atoms: C_8  and  C_45
    7  A    between atoms: C_9  and  C_27
    8  A    between atoms: C_10  and  C_14
    9  A    between atoms: C_10  and  O_15
   10  A    between atoms: C_10  and  C_37
   11  A    between atoms: O_11  and  C_19
   12  A    between atoms: O_11  and  C_28
   13  A    between atoms: O_15  and  N_38
   14  A    between atoms: C_16  and  C_53
   15  A    between atoms: C_20  and  C_26
   16  A    between atoms: C_22  and  C_39
   17  A    between atoms: C_22  and  C_50
   18  A    between atoms: C_27  and  C_44
   19  A    between atoms: C_27  and  C_48
   20  A    between atoms: C_28  and  C_45
   21  A    between atoms: C_34  and  C_50
   22  A    between atoms: C_37  and  C_53
   23  A    between atoms: C_44  and  C_47
   24  A    between atoms: C_47  and  N_52
                            x       y       z     vdW  Elec       q    Type
                         _______ _______ _______ _____ _____    ______ ____

>  <TORSDO>
F 24

$$$$
=
 OpenBabel11072408293D

 56 61  0  0  1  0  0  0  0  0999 V2000
  188.4040  175.3340  136.3200 N   0  0  0  0  0  0  0  0  0  0  0  0
  189.3310  173.1250  139.6650 C   0  0  0  0  0  0  0  0  0  0  0  0
  188.9970  173.7090  138.5450 C   0  0  0  0  0  0  0  0  0  0  0  0
  189.5900  174.5340  136.2880 C   0  0  0  0  0  0  0  0  0  0  0  0
  190.4410  174.7200  135.3810 O   0  0  0  0  0  0  0  0  0  0  0  0
  189.6770  172.5360  140.7780 C   0  0  0  0  0  3  0  0  0  0  0  0
  189.7930  173.4380  137.2940 C   0  0  2  0  0  3  0  0  0  0  0  0
  187.4930  175.2660  137.4240 C   0  0  0  0  0  3  0  0  0  0  0  0
  187.7660  174.5140  138.4910 C   0  0  0  0  0  2  0  0  0  0  0  0
  189.3640  172.1150  136.6650 C   0  0  0  0  0  2  0  0  0  0  0  0
  190.5230  171.1290  136.5960 C   0  0  0  0  0  2  0  0  0  0  0  0
  190.0870  169.7290  137.0060 C   0  0  0  0  0  2  0  0  0  0  0  0
  190.9240  169.2160  138.1650 C   0  0  2  0  0  3  0  0  0  0  0  0
  190.0800  168.6190  139.1020 O   0  0  0  0  0  1  0  0  0  0  0  0
  191.6740  170.3680  138.8210 C   0  0  0  0  0  2  0  0  0  0  0  0
  192.9140  169.8800  139.5610 C   0  0  0  0  0  2  0  0  0  0  0  0
  192.7300  169.9080  141.0730 C   0  0  0  0  0  2  0  0  0  0  0  0
  193.7180  170.8650  141.7410 C   0  0  2  0  0  3  0  0  0  0  0  0
  194.0110  170.4960  143.1890 C   0  0  0  0  0  2  0  0  0  0  0  0
  192.4890  170.5380  144.1800 S   0  0  0  0  0  1  0  0  0  0  0  0
  193.3600  172.2220  141.5780 O   0  0  0  0  0  0  0  0  0  0  0  0
  195.4330  173.5010  143.1360 O   0  0  0  0  0  0  0  0  0  0  0  0
  194.4540  173.6270  139.8450 C   0  0  2  0  0  0  0  0  0  0  0  0
  195.8260  174.8420  141.1480 C   0  0  2  0  0  3  0  0  0  0  0  0
  195.2880  174.7700  139.8370 O   0  0  0  0  0  0  0  0  0  0  0  0
  194.2830  172.8640  138.5550 C   0  0  1  0  0  3  0  0  0  0  0  0
  193.1490  173.7320  139.0950 C   0  0  2  0  0  3  0  0  0  0  0  0
  195.2510  173.7060  141.9080 C   0  0  0  0  0  0  0  0  0  0  0  0
  194.4440  172.8960  141.0970 N   0  0  0  0  0  0  0  0  0  0  0  0
  193.4380  173.6950  137.6050 C   0  0  0  0  0  2  0  0  0  0  0  0
  194.3160  176.6410  141.6510 O   0  0  0  0  0  0  0  0  0  0  0  0
  195.4680  176.1490  141.7910 C   0  0  0  0  0  0  0  0  0  0  0  0
  196.3980  176.7960  142.5950 O   0  0  0  0  0  1  0  0  0  0  0  0
  189.9970  173.3310  141.9970 C   0  0  0  0  0  2  0  0  0  0  0  0
  190.6640  175.7210  142.2050 C   0  0  0  0  0  3  0  0  0  0  0  0
  190.8400  174.5190  141.6440 C   0  0  0  0  0  3  0  0  0  0  0  0
  189.6030  176.0050  143.2330 C   0  0  2  0  0  3  0  0  0  0  0  0
  188.3090  176.5150  142.5790 C   0  0  1  0  0  3  0  0  0  0  0  0
  187.2750  175.5870  142.7250 O   0  0  0  0  0  1  0  0  0  0  0  0
  187.8750  177.9240  143.0080 C   0  0  0  0  0  2  0  0  0  0  0  0
  186.7130  178.4780  142.1960 C   0  0  0  0  0  2  0  0  0  0  0  0
  185.4460  178.5010  143.0280 C   0  0  0  0  0  2  0  0  0  0  0  0
  185.4850  179.5820  143.9070 O   0  0  0  0  0  0  0  0  0  0  0  0
  184.3700  179.4090  144.7250 C   0  0  0  0  0  2  0  0  0  0  0  0
  184.6420  178.3020  145.7200 C   0  0  0  0  0  1  0  0  0  0  0  0
  190.1230  176.9510  144.3140 C   0  0  0  0  0  2  0  0  0  0  0  0
  188.5260  177.5070  146.5080 O   0  0  0  0  0  1  0  0  0  0  0  0
  189.6860  174.1890  146.7960 O   0  0  0  0  0  1  0  0  0  0  0  0
  189.5010  176.5650  146.8380 C   0  0  1  0  0  3  0  0  0  0  0  0
  189.2410  175.2830  146.0510 C   0  0  1  0  0  3  0  0  0  0  0  0
  190.3800  176.2200  145.6320 C   0  0  1  0  0  0  0  0  0  0  0  0
  192.2950  176.4400  147.0980 C   0  0  0  0  0  2  0  0  0  0  0  0
  192.7250  176.0940  144.8050 C   0  0  0  0  0  2  0  0  0  0  0  0
  191.7810  175.8050  145.8890 N   0  0  0  0  0  0  0  0  0  0  0  0
  193.7740  176.6580  146.8880 C   0  0  0  0  0  2  0  0  0  0  0  0
  193.9170  176.8130  145.3980 C   0  0  0  0  0  2  0  0  0  0  0  0
  1  8  2  0  0  0  0
  2  6  2  0  0  0  0
  3  2  2  0  0  0  0
  4  1  1  0  0  0  0
  4  7  1  0  0  0  0
  5  4  2  0  0  0  0
  6 34  1  0  0  0  0
  7 10  1  6  0  0  0
  7  3  1  0  0  0  0
  8  9  1  0  0  0  0
  9  3  1  0  0  0  0
 11 10  1  0  0  0  0
 11 12  1  0  0  0  0
 12 13  1  0  0  0  0
 13 15  1  0  0  0  0
 13 14  1  1  0  0  0
 15 16  1  0  0  0  0
 16 17  1  0  0  0  0
 18 17  1  1  0  0  0
 18 19  1  0  0  0  0
 19 20  1  0  0  0  0
 21 18  1  0  0  0  0
 23 25  1  6  0  0  0
 23 29  1  0  0  0  0
 24 32  1  1  0  0  0
 24 28  1  0  0  0  0
 25 24  1  0  0  0  0
 26 30  1  6  0  0  0
 26 27  1  0  0  0  0
 26 23  1  0  0  0  0
 27 30  1  6  0  0  0
 27 23  1  0  0  0  0
 28 22  2  0  0  0  0
 29 21  1  0  0  0  0
 29 28  1  0  0  0  0
 31 32  2  0  0  0  0
 32 33  1  0  0  0  0
 36 34  1  0  0  0  0
 36 35  2  0  0  0  0
 37 35  1  6  0  0  0
 37 46  1  0  0  0  0
 38 39  1  1  0  0  0
 38 40  1  0  0  0  0
 38 37  1  0  0  0  0
 41 40  1  0  0  0  0
 41 42  1  0  0  0  0
 42 43  1  0  0  0  0
 43 44  1  0  0  0  0
 44 45  1  0  0  0  0
 49 47  1  6  0  0  0
 50 48  1  1  0  0  0
 50 49  1  0  0  0  0
 51 46  1  6  0  0  0
 51 54  1  0  0  0  0
 51 50  1  0  0  0  0
 51 49  1  0  0  0  0
 53 56  1  0  0  0  0
 53 54  1  0  0  0  0
 54 52  1  0  0  0  0
 55 52  1  0  0  0  0
 56 55  1  0  0  0  0
M  END
>  <MODEL>
2

>  <REMARK>
 VINA RESULT:      -5.5      2.453      7.561
  Name = 
  24 active torsions:
  status: ('A' for Active; 'I' for Inactive)
    1  A    between atoms: C_6  and  C_16
    2  A    between atoms: C_6  and  C_34
    3  A    between atoms: C_7  and  C_36
    4  A    between atoms: C_7  and  C_49
    5  A    between atoms: C_8  and  C_9
    6  A    between atoms: C_8  and  C_45
    7  A    between atoms: C_9  and  C_27
    8  A    between atoms: C_10  and  C_14
    9  A    between atoms: C_10  and  O_15
   10  A    between atoms: C_10  and  C_37
   11  A    between atoms: O_11  and  C_19
   12  A    between atoms: O_11  and  C_28
   13  A    between atoms: O_15  and  N_38
   14  A    between atoms: C_16  and  C_53
   15  A    between atoms: C_20  and  C_26
   16  A    between atoms: C_22  and  C_39
   17  A    between atoms: C_22  and  C_50
   18  A    between atoms: C_27  and  C_44
   19  A    between atoms: C_27  and  C_48
   20  A    between atoms: C_28  and  C_45
   21  A    between atoms: C_34  and  C_50
   22  A    between atoms: C_37  and  C_53
   23  A    between atoms: C_44  and  C_47
   24  A    between atoms: C_47  and  N_52
                            x       y       z     vdW  Elec       q    Type
                         _______ _______ _______ _____ _____    ______ ____

>  <TORSDO>
F 24

$$$$
=
 OpenBabel11072408293D

 56 61  0  0  1  0  0  0  0  0999 V2000
  189.0530  174.1980  136.7930 N   0  0  0  0  0  0  0  0  0  0  0  0
  189.9590  172.1670  140.2550 C   0  0  0  0  0  0  0  0  0  0  0  0
  189.6160  172.6960  139.1100 C   0  0  0  0  0  0  0  0  0  0  0  0
  190.1480  173.2790  136.7630 C   0  0  0  0  0  0  0  0  0  0  0  0
  190.9560  173.3040  135.8000 O   0  0  0  0  0  0  0  0  0  0  0  0
  190.3110  171.6320  141.3920 C   0  0  0  0  0  3  0  0  0  0  0  0
  190.3020  172.2470  137.8440 C   0  0  2  0  0  3  0  0  0  0  0  0
  188.2090  174.3120  137.9460 C   0  0  0  0  0  3  0  0  0  0  0  0
  188.4710  173.6190  139.0550 C   0  0  0  0  0  2  0  0  0  0  0  0
  189.7040  170.9330  137.3510 C   0  0  0  0  0  2  0  0  0  0  0  0
  190.7290  169.8070  137.3880 C   0  0  0  0  0  2  0  0  0  0  0  0
  190.3460  168.7410  138.4050 C   0  0  0  0  0  2  0  0  0  0  0  0
  191.4990  168.4540  139.3530 C   0  0  2  0  0  3  0  0  0  0  0  0
  190.9980  168.3300  140.6490 O   0  0  0  0  0  1  0  0  0  0  0  0
  192.5100  169.5920  139.3070 C   0  0  0  0  0  2  0  0  0  0  0  0
  193.4900  169.5170  140.4730 C   0  0  0  0  0  2  0  0  0  0  0  0
  194.0020  170.8920  140.8830 C   0  0  0  0  0  2  0  0  0  0  0  0
  195.5080  171.0220  140.6520 C   0  0  2  0  0  3  0  0  0  0  0  0
  196.3040  171.0500  141.9500 C   0  0  0  0  0  2  0  0  0  0  0  0
  195.1910  171.1310  143.3830 S   0  0  0  0  0  1  0  0  0  0  0  0
  195.8380  172.0820  139.7790 O   0  0  0  0  0  0  0  0  0  0  0  0
  193.7410  172.3020  137.7990 O   0  0  0  0  0  0  0  0  0  0  0  0
  194.8840  174.3060  140.3450 C   0  0  2  0  0  0  0  0  0  0  0  0
  193.4980  174.5840  138.5970 C   0  0  2  0  0  3  0  0  0  0  0  0
  194.0960  175.2750  139.6810 O   0  0  0  0  0  0  0  0  0  0  0  0
  195.0880  174.4540  141.8320 C   0  0  1  0  0  3  0  0  0  0  0  0
  196.2270  174.7590  140.8620 C   0  0  2  0  0  3  0  0  0  0  0  0
  193.9910  173.1870  138.6570 C   0  0  0  0  0  0  0  0  0  0  0  0
  194.8050  172.9740  139.7790 N   0  0  0  0  0  0  0  0  0  0  0  0
  196.0100  175.6350  142.0830 C   0  0  0  0  0  2  0  0  0  0  0  0
  194.9930  174.9930  136.7620 O   0  0  0  0  0  1  0  0  0  0  0  0
  193.8740  175.2250  137.2940 C   0  0  0  0  0  0  0  0  0  0  0  0
  192.9590  176.0400  136.6400 O   0  0  0  0  0  0  0  0  0  0  0  0
  190.7840  172.4800  142.5220 C   0  0  0  0  0  2  0  0  0  0  0  0
  191.4610  174.8680  142.3220 C   0  0  0  0  0  3  0  0  0  0  0  0
  191.6690  173.5810  142.0200 C   0  0  0  0  0  3  0  0  0  0  0  0
  190.3220  175.3410  143.1830 C   0  0  2  0  0  3  0  0  0  0  0  0
  189.1480  175.8520  142.3320 C   0  0  1  0  0  3  0  0  0  0  0  0
  187.9570  175.2150  142.6870 O   0  0  0  0  0  1  0  0  0  0  0  0
  188.9890  177.3790  142.2940 C   0  0  0  0  0  2  0  0  0  0  0  0
  187.5400  177.8390  142.2330 C   0  0  0  0  0  2  0  0  0  0  0  0
  187.0190  177.7680  140.8100 C   0  0  0  0  0  2  0  0  0  0  0  0
  185.7310  178.2970  140.7580 O   0  0  0  0  0  0  0  0  0  0  0  0
  185.1270  177.8660  141.9380 C   0  0  0  0  0  2  0  0  0  0  0  0
  183.6470  178.1810  141.8920 C   0  0  0  0  0  1  0  0  0  0  0  0
  190.7950  176.3740  144.2040 C   0  0  0  0  0  2  0  0  0  0  0  0
  188.8580  177.5320  145.8110 O   0  0  0  0  0  1  0  0  0  0  0  0
  189.3400  174.2050  146.8810 O   0  0  0  0  0  1  0  0  0  0  0  0
  189.5570  176.5510  146.5160 C   0  0  1  0  0  3  0  0  0  0  0  0
  189.2690  175.1880  145.8910 C   0  0  1  0  0  3  0  0  0  0  0  0
  190.6160  175.8760  145.6390 C   0  0  1  0  0  0  0  0  0  0  0  0
  192.7970  176.4050  146.5500 C   0  0  0  0  0  2  0  0  0  0  0  0
  192.5240  174.2780  145.5690 C   0  0  0  0  0  2  0  0  0  0  0  0
  191.8300  175.3400  146.3030 N   0  0  0  0  0  0  0  0  0  0  0  0
  194.1700  175.7890  146.4440 C   0  0  0  0  0  2  0  0  0  0  0  0
  193.9890  174.6460  145.4820 C   0  0  0  0  0  2  0  0  0  0  0  0
  1  8  2  0  0  0  0
  2  6  2  0  0  0  0
  3  2  2  0  0  0  0
  4  1  1  0  0  0  0
  4  7  1  0  0  0  0
  5  4  2  0  0  0  0
  6 34  1  0  0  0  0
  7 10  1  6  0  0  0
  7  3  1  0  0  0  0
  8  9  1  0  0  0  0
  9  3  1  0  0  0  0
 10 11  1  0  0  0  0
 11 12  1  0  0  0  0
 12 13  1  0  0  0  0
 13 14  1  1  0  0  0
 15 13  1  0  0  0  0
 15 16  1  0  0  0  0
 16 17  1  0  0  0  0
 18 17  1  1  0  0  0
 18 19  1  0  0  0  0
 19 20  1  0  0  0  0
 21 18  1  0  0  0  0
 22 28  2  0  0  0  0
 23 25  1  6  0  0  0
 23 27  1  0  0  0  0
 23 26  1  0  0  0  0
 24 32  1  6  0  0  0
 24 28  1  0  0  0  0
 24 25  1  0  0  0  0
 26 30  1  6  0  0  0
 27 26  1  0  0  0  0
 27 30  1  6  0  0  0
 28 29  1  0  0  0  0
 29 21  1  0  0  0  0
 29 23  1  0  0  0  0
 31 32  1  0  0  0  0
 33 32  2  0  0  0  0
 36 35  2  0  0  0  0
 36 34  1  0  0  0  0
 37 35  1  6  0  0  0
 37 46  1  0  0  0  0
 38 39  1  1  0  0  0
 38 37  1  0  0  0  0
 40 38  1  0  0  0  0
 41 40  1  0  0  0  0
 42 41  1  0  0  0  0
 43 42  1  0  0  0  0
 43 44  1  0  0  0  0
 45 44  1  0  0  0  0
 49 47  1  6  0  0  0
 50 49  1  0  0  0  0
 50 48  1  1  0  0  0
 51 46  1  6  0  0  0
 51 50  1  0  0  0  0
 51 54  1  0  0  0  0
 51 49  1  0  0  0  0
 53 54  1  0  0  0  0
 54 52  1  0  0  0  0
 55 52  1  0  0  0  0
 56 53  1  0  0  0  0
 56 55  1  0  0  0  0
M  END
>  <MODEL>
3

>  <REMARK>
 VINA RESULT:      -5.5      2.793      7.655
  Name = 
  24 active torsions:
  status: ('A' for Active; 'I' for Inactive)
    1  A    between atoms: C_6  and  C_16
    2  A    between atoms: C_6  and  C_34
    3  A    between atoms: C_7  and  C_36
    4  A    between atoms: C_7  and  C_49
    5  A    between atoms: C_8  and  C_9
    6  A    between atoms: C_8  and  C_45
    7  A    between atoms: C_9  and  C_27
    8  A    between atoms: C_10  and  C_14
    9  A    between atoms: C_10  and  O_15
   10  A    between atoms: C_10  and  C_37
   11  A    between atoms: O_11  and  C_19
   12  A    between atoms: O_11  and  C_28
   13  A    between atoms: O_15  and  N_38
   14  A    between atoms: C_16  and  C_53
   15  A    between atoms: C_20  and  C_26
   16  A    between atoms: C_22  and  C_39
   17  A    between atoms: C_22  and  C_50
   18  A    between atoms: C_27  and  C_44
   19  A    between atoms: C_27  and  C_48
   20  A    between atoms: C_28  and  C_45
   21  A    between atoms: C_34  and  C_50
   22  A    between atoms: C_37  and  C_53
   23  A    between atoms: C_44  and  C_47
   24  A    between atoms: C_47  and  N_52
                            x       y       z     vdW  Elec       q    Type
                         _______ _______ _______ _____ _____    ______ ____

>  <TORSDO>
F 24

$$$$
=
 OpenBabel11072408293D

 56 61  0  0  1  0  0  0  0  0999 V2000
  194.2070  173.0560  141.2960 N   0  0  0  0  0  0  0  0  0  0  0  0
  194.3700  175.6410  144.4940 C   0  0  0  0  0  0  0  0  0  0  0  0
  194.4480  174.8550  143.4530 C   0  0  0  0  0  0  0  0  0  0  0  0
  194.1550  174.4600  141.0270 C   0  0  0  0  0  0  0  0  0  0  0  0
  193.8010  174.8620  139.8890 O   0  0  0  0  0  0  0  0  0  0  0  0
  194.2910  176.4380  145.5240 C   0  0  0  0  0  3  0  0  0  0  0  0
  194.5780  175.4500  142.0740 C   0  0  2  0  0  3  0  0  0  0  0  0
  194.4460  172.5630  142.6210 C   0  0  0  0  0  3  0  0  0  0  0  0
  194.5470  173.4000  143.6550 C   0  0  0  0  0  2  0  0  0  0  0  0
  196.0240  175.8560  141.8030 C   0  0  0  0  0  2  0  0  0  0  0  0
  196.6990  174.8970  140.8310 C   0  0  0  0  0  2  0  0  0  0  0  0
  197.3810  175.6470  139.6950 C   0  0  0  0  0  2  0  0  0  0  0  0
  197.7550  174.7010  138.5660 C   0  0  2  0  0  3  0  0  0  0  0  0
  197.9410  175.4420  137.3990 O   0  0  0  0  0  1  0  0  0  0  0  0
  196.6450  173.6820  138.3460 C   0  0  0  0  0  2  0  0  0  0  0  0
  196.1090  173.7370  136.9200 C   0  0  0  0  0  2  0  0  0  0  0  0
  194.5860  173.7680  136.8790 C   0  0  0  0  0  2  0  0  0  0  0  0
  193.9990  172.3600  136.7910 C   0  0  2  0  0  3  0  0  0  0  0  0
  193.6400  171.9570  135.3660 C   0  0  0  0  0  2  0  0  0  0  0  0
  194.7280  170.6240  134.7850 S   0  0  0  0  0  1  0  0  0  0  0  0
  192.9430  172.1500  137.7060 O   0  0  0  0  0  0  0  0  0  0  0  0
  191.1750  174.3250  136.9950 O   0  0  0  0  0  0  0  0  0  0  0  0
  190.9060  170.9000  137.0250 C   0  0  2  0  0  0  0  0  0  0  0  0
  189.4640  172.6100  136.8030 C   0  0  2  0  0  3  0  0  0  0  0  0
  189.5300  171.1960  136.8790 O   0  0  0  0  0  0  0  0  0  0  0  0
  191.4140  169.5940  136.4650 C   0  0  1  0  0  3  0  0  0  0  0  0
  191.2650  169.7820  137.9730 C   0  0  2  0  0  3  0  0  0  0  0  0
  190.8540  173.1100  136.9300 C   0  0  0  0  0  0  0  0  0  0  0  0
  191.7780  172.0580  137.0020 N   0  0  0  0  0  0  0  0  0  0  0  0
  190.8960  168.4580  137.3290 C   0  0  0  0  0  2  0  0  0  0  0  0
  188.1580  174.3350  137.8470 O   0  0  0  0  0  0  0  0  0  0  0  0
  188.6000  173.1560  137.9010 C   0  0  0  0  0  0  0  0  0  0  0  0
  188.2400  172.3350  138.9620 O   0  0  0  0  0  1  0  0  0  0  0  0
  193.1350  176.3650  146.4610 C   0  0  0  0  0  2  0  0  0  0  0  0
  191.4500  174.5330  146.3820 C   0  0  0  0  0  3  0  0  0  0  0  0
  192.6950  174.9440  146.6460 C   0  0  0  0  0  3  0  0  0  0  0  0
  190.3660  175.4510  145.8840 C   0  0  2  0  0  3  0  0  0  0  0  0
  189.5860  176.0830  147.0480 C   0  0  1  0  0  3  0  0  0  0  0  0
  190.0250  177.3860  147.2960 O   0  0  0  0  0  1  0  0  0  0  0  0
  188.0580  176.0110  146.9220 C   0  0  0  0  0  2  0  0  0  0  0  0
  187.3820  177.3750  146.9090 C   0  0  0  0  0  2  0  0  0  0  0  0
  186.0380  177.3080  147.6090 C   0  0  0  0  0  2  0  0  0  0  0  0
  185.0170  177.3300  146.6600 O   0  0  0  0  0  0  0  0  0  0  0  0
  185.3450  178.3910  145.8170 C   0  0  0  0  0  2  0  0  0  0  0  0
  184.1000  178.8680  145.1010 C   0  0  0  0  0  1  0  0  0  0  0  0
  189.4530  174.7360  144.8900 C   0  0  0  0  0  2  0  0  0  0  0  0
  191.1320  172.8530  143.7460 O   0  0  0  0  0  1  0  0  0  0  0  0
  189.2370  174.3530  141.1770 O   0  0  0  0  0  1  0  0  0  0  0  0
  190.8730  173.8880  142.8470 C   0  0  1  0  0  3  0  0  0  0  0  0
  189.3920  173.8680  142.4770 C   0  0  1  0  0  3  0  0  0  0  0  0
  189.9230  174.9290  143.4480 C   0  0  1  0  0  0  0  0  0  0  0  0
  191.4150  176.8100  143.1270 C   0  0  0  0  0  2  0  0  0  0  0  0
  189.1700  177.2920  143.6610 C   0  0  0  0  0  2  0  0  0  0  0  0
  190.0430  176.3320  142.9810 N   0  0  0  0  0  0  0  0  0  0  0  0
  191.3390  178.2880  143.4210 C   0  0  0  0  0  2  0  0  0  0  0  0
  190.0170  178.4580  144.1200 C   0  0  0  0  0  2  0  0  0  0  0  0
  1  8  2  0  0  0  0
  2  6  2  0  0  0  0
  3  9  1  0  0  0  0
  3  2  2  0  0  0  0
  4  1  1  0  0  0  0
  4  7  1  0  0  0  0
  5  4  2  0  0  0  0
  6 34  1  0  0  0  0
  7 10  1  6  0  0  0
  7  3  1  0  0  0  0
  8  9  1  0  0  0  0
 11 10  1  0  0  0  0
 12 11  1  0  0  0  0
 13 14  1  6  0  0  0
 13 12  1  0  0  0  0
 15 13  1  0  0  0  0
 16 15  1  0  0  0  0
 17 16  1  0  0  0  0
 18 19  1  6  0  0  0
 18 17  1  0  0  0  0
 18 21  1  0  0  0  0
 20 19  1  0  0  0  0
 23 25  1  6  0  0  0
 23 27  1  0  0  0  0
 24 25  1  0  0  0  0
 24 28  1  0  0  0  0
 24 32  1  1  0  0  0
 26 23  1  0  0  0  0
 26 30  1  6  0  0  0
 26 27  1  0  0  0  0
 27 30  1  6  0  0  0
 28 22  2  0  0  0  0
 28 29  1  0  0  0  0
 29 23  1  0  0  0  0
 29 21  1  0  0  0  0
 31 32  2  0  0  0  0
 32 33  1  0  0  0  0
 34 36  1  0  0  0  0
 35 36  2  0  0  0  0
 37 46  1  6  0  0  0
 37 35  1  0  0  0  0
 37 38  1  0  0  0  0
 38 39  1  6  0  0  0
 40 38  1  0  0  0  0
 41 40  1  0  0  0  0
 41 42  1  0  0  0  0
 43 42  1  0  0  0  0
 44 43  1  0  0  0  0
 45 44  1  0  0  0  0
 49 51  1  0  0  0  0
 49 47  1  1  0  0  0
 50 48  1  6  0  0  0
 50 49  1  0  0  0  0
 50 51  1  0  0  0  0
 51 46  1  1  0  0  0
 52 55  1  0  0  0  0
 53 56  1  0  0  0  0
 54 52  1  0  0  0  0
 54 51  1  0  0  0  0
 54 53  1  0  0  0  0
 55 56  1  0  0  0  0
M  END
>  <MODEL>
4

>  <REMARK>
 VINA RESULT:      -5.1      2.944      7.927
  Name = 
  24 active torsions:
  status: ('A' for Active; 'I' for Inactive)
    1  A    between atoms: C_6  and  C_16
    2  A    between atoms: C_6  and  C_34
    3  A    between atoms: C_7  and  C_36
    4  A    between atoms: C_7  and  C_49
    5  A    between atoms: C_8  and  C_9
    6  A    between atoms: C_8  and  C_45
    7  A    between atoms: C_9  and  C_27
    8  A    between atoms: C_10  and  C_14
    9  A    between atoms: C_10  and  O_15
   10  A    between atoms: C_10  and  C_37
   11  A    between atoms: O_11  and  C_19
   12  A    between atoms: O_11  and  C_28
   13  A    between atoms: O_15  and  N_38
   14  A    between atoms: C_16  and  C_53
   15  A    between atoms: C_20  and  C_26
   16  A    between atoms: C_22  and  C_39
   17  A    between atoms: C_22  and  C_50
   18  A    between atoms: C_27  and  C_44
   19  A    between atoms: C_27  and  C_48
   20  A    between atoms: C_28  and  C_45
   21  A    between atoms: C_34  and  C_50
   22  A    between atoms: C_37  and  C_53
   23  A    between atoms: C_44  and  C_47
   24  A    between atoms: C_47  and  N_52
                            x       y       z     vdW  Elec       q    Type
                         _______ _______ _______ _____ _____    ______ ____

>  <TORSDO>
F 24

$$$$
=
 OpenBabel11072408293D

 56 61  0  0  1  0  0  0  0  0999 V2000
  195.0500  174.9790  146.1660 N   0  0  0  0  0  2  0  0  0  0  0  0
  192.4190  176.7810  143.5660 C   0  0  0  0  0  0  0  0  0  0  0  0
  193.3550  176.2550  144.3110 C   0  0  0  0  0  0  0  0  0  0  0  0
  194.8120  174.3450  144.9060 C   0  0  0  0  0  0  0  0  0  0  0  0
  195.1840  173.1570  144.7280 O   0  0  0  0  0  0  0  0  0  0  0  0
  191.4870  177.2960  142.8110 C   0  0  0  0  0  3  0  0  0  0  0  0
  194.1780  175.1090  143.7800 C   0  0  2  0  0  3  0  0  0  0  0  0
  194.5000  176.2680  146.4640 C   0  0  0  0  0  3  0  0  0  0  0  0
  193.6840  176.8790  145.6030 C   0  0  0  0  0  3  0  0  0  0  0  0
  195.2820  175.6270  142.8610 C   0  0  0  0  0  2  0  0  0  0  0  0
  195.1550  175.0460  141.4580 C   0  0  0  0  0  2  0  0  0  0  0  0
  196.4100  174.2820  141.0580 C   0  0  0  0  0  2  0  0  0  0  0  0
  196.2830  172.8080  141.4040 C   0  0  2  0  0  3  0  0  0  0  0  0
  197.0410  172.0650  140.4990 O   0  0  0  0  0  1  0  0  0  0  0  0
  194.8260  172.3740  141.3190 C   0  0  0  0  0  2  0  0  0  0  0  0
  194.6720  171.0830  140.5220 C   0  0  0  0  0  2  0  0  0  0  0  0
  193.2240  170.6120  140.4630 C   0  0  0  0  0  2  0  0  0  0  0  0
  192.6880  170.2730  141.8540 C   0  0  2  0  0  3  0  0  0  0  0  0
  193.6090  169.3410  142.6320 C   0  0  0  0  0  2  0  0  0  0  0  0
  193.5090  169.6820  144.4130 S   0  0  0  0  0  1  0  0  0  0  0  0
  191.3460  169.8290  141.8300 O   0  0  0  0  0  0  0  0  0  0  0  0
  190.2330  170.5750  139.2670 O   0  0  0  0  0  0  0  0  0  0  0  0
  190.6090  172.1560  142.2940 C   0  0  2  0  0  0  0  0  0  0  0  0
  190.0610  172.8070  140.2130 C   0  0  2  0  0  3  0  0  0  0  0  0
  190.2970  173.3000  141.5220 O   0  0  0  0  0  0  0  0  0  0  0  0
  190.2460  172.1690  143.7590 C   0  0  1  0  0  3  0  0  0  0  0  0
  191.7030  172.3070  143.3220 C   0  0  2  0  0  3  0  0  0  0  0  0
  190.2690  171.3400  140.2660 C   0  0  0  0  0  0  0  0  0  0  0  0
  190.5450  170.9030  141.5690 N   0  0  0  0  0  0  0  0  0  0  0  0
  191.1730  173.1310  144.4820 C   0  0  0  0  0  2  0  0  0  0  0  0
  190.6530  173.6460  138.0410 O   0  0  0  0  0  0  0  0  0  0  0  0
  191.0040  173.4430  139.2340 C   0  0  0  0  0  0  0  0  0  0  0  0
  192.2580  173.8610  139.6620 O   0  0  0  0  0  1  0  0  0  0  0  0
  190.0740  177.3610  143.2790 C   0  0  0  0  0  2  0  0  0  0  0  0
  188.0940  175.8510  143.2380 C   0  0  0  0  0  3  0  0  0  0  0  0
  189.4200  176.0170  143.1690 C   0  0  0  0  0  3  0  0  0  0  0  0
  187.1300  176.9880  143.4410 C   0  0  2  0  0  3  0  0  0  0  0  0
  186.7830  177.6760  142.1110 C   0  0  1  0  0  3  0  0  0  0  0  0
  186.6080  176.7370  141.0920 O   0  0  0  0  0  1  0  0  0  0  0  0
  185.6160  178.6700  142.1780 C   0  0  0  0  0  2  0  0  0  0  0  0
  184.2610  178.0070  142.3850 C   0  0  0  0  0  2  0  0  0  0  0  0
  183.3280  178.3340  141.2350 C   0  0  0  0  0  2  0  0  0  0  0  0
  182.0480  177.8660  141.5270 O   0  0  0  0  0  0  0  0  0  0  0  0
  181.2710  178.2710  140.4430 C   0  0  0  0  0  2  0  0  0  0  0  0
  180.5710  179.5690  140.7810 C   0  0  0  0  0  1  0  0  0  0  0  0
  187.6520  177.9710  144.4880 C   0  0  0  0  0  2  0  0  0  0  0  0
  185.6310  179.6430  145.3810 O   0  0  0  0  0  1  0  0  0  0  0  0
  185.1820  176.4750  146.8640 O   0  0  0  0  0  1  0  0  0  0  0  0
  185.9290  178.6780  146.3430 C   0  0  1  0  0  3  0  0  0  0  0  0
  185.5520  177.3010  145.8010 C   0  0  1  0  0  3  0  0  0  0  0  0
  187.0250  177.7230  145.8610 C   0  0  1  0  0  0  0  0  0  0  0  0
  189.1960  177.7860  146.9320 C   0  0  0  0  0  2  0  0  0  0  0  0
  188.1730  175.6760  146.6900 C   0  0  0  0  0  2  0  0  0  0  0  0
  187.9060  177.1040  146.8810 N   0  0  0  0  0  0  0  0  0  0  0  0
  190.2300  176.7500  147.2990 C   0  0  0  0  0  2  0  0  0  0  0  0
  189.6700  175.4620  146.7610 C   0  0  0  0  0  2  0  0  0  0  0  0
  1  8  1  0  0  0  0
  2  3  2  0  0  0  0
  3  9  1  0  0  0  0
  4  1  1  0  0  0  0
  5  4  2  0  0  0  0
  6 34  1  0  0  0  0
  6  2  2  0  0  0  0
  7 10  1  6  0  0  0
  7  3  1  0  0  0  0
  7  4  1  0  0  0  0
  9  8  2  0  0  0  0
 11 10  1  0  0  0  0
 12 13  1  0  0  0  0
 12 11  1  0  0  0  0
 13 14  1  6  0  0  0
 15 13  1  0  0  0  0
 16 15  1  0  0  0  0
 17 16  1  0  0  0  0
 18 17  1  6  0  0  0
 18 19  1  0  0  0  0
 19 20  1  0  0  0  0
 21 18  1  0  0  0  0
 22 28  2  0  0  0  0
 23 25  1  6  0  0  0
 23 27  1  0  0  0  0
 23 26  1  0  0  0  0
 24 32  1  6  0  0  0
 24 28  1  0  0  0  0
 24 25  1  0  0  0  0
 26 30  1  6  0  0  0
 27 26  1  0  0  0  0
 27 30  1  6  0  0  0
 28 29  1  0  0  0  0
 29 21  1  0  0  0  0
 29 23  1  0  0  0  0
 31 32  2  0  0  0  0
 32 33  1  0  0  0  0
 36 35  2  0  0  0  0
 36 34  1  0  0  0  0
 37 35  1  6  0  0  0
 37 46  1  0  0  0  0
 38 39  1  6  0  0  0
 38 40  1  0  0  0  0
 38 37  1  0  0  0  0
 40 41  1  0  0  0  0
 42 43  1  0  0  0  0
 42 41  1  0  0  0  0
 44 45  1  0  0  0  0
 44 43  1  0  0  0  0
 49 47  1  6  0  0  0
 50 51  1  0  0  0  0
 50 49  1  0  0  0  0
 50 48  1  1  0  0  0
 51 46  1  6  0  0  0
 51 49  1  0  0  0  0
 51 54  1  0  0  0  0
 52 55  1  0  0  0  0
 53 56  1  0  0  0  0
 53 54  1  0  0  0  0
 54 52  1  0  0  0  0
 56 55  1  0  0  0  0
M  END
>  <MODEL>
5

>  <REMARK>
 VINA RESULT:      -5.0      2.326      8.626
  Name = 
  24 active torsions:
  status: ('A' for Active; 'I' for Inactive)
    1  A    between atoms: C_6  and  C_16
    2  A    between atoms: C_6  and  C_34
    3  A    between atoms: C_7  and  C_36
    4  A    between atoms: C_7  and  C_49
    5  A    between atoms: C_8  and  C_9
    6  A    between atoms: C_8  and  C_45
    7  A    between atoms: C_9  and  C_27
    8  A    between atoms: C_10  and  C_14
    9  A    between atoms: C_10  and  O_15
   10  A    between atoms: C_10  and  C_37
   11  A    between atoms: O_11  and  C_19
   12  A    between atoms: O_11  and  C_28
   13  A    between atoms: O_15  and  N_38
   14  A    between atoms: C_16  and  C_53
   15  A    between atoms: C_20  and  C_26
   16  A    between atoms: C_22  and  C_39
   17  A    between atoms: C_22  and  C_50
   18  A    between atoms: C_27  and  C_44
   19  A    between atoms: C_27  and  C_48
   20  A    between atoms: C_28  and  C_45
   21  A    between atoms: C_34  and  C_50
   22  A    between atoms: C_37  and  C_53
   23  A    between atoms: C_44  and  C_47
   24  A    between atoms: C_47  and  N_52
                            x       y       z     vdW  Elec       q    Type
                         _______ _______ _______ _____ _____    ______ ____

>  <TORSDO>
F 24

$$$$
=
 OpenBabel11072408293D

 56 61  0  0  1  0  0  0  0  0999 V2000
  189.0590  172.1730  139.7620 N   0  0  0  0  0  2  0  0  0  0  0  0
  191.8860  174.5750  141.5430 C   0  0  0  0  0  0  0  0  0  0  0  0
  190.9310  173.9270  140.9300 C   0  0  0  0  0  0  0  0  0  0  0  0
  188.6800  172.8970  140.9350 C   0  0  0  0  0  0  0  0  0  0  0  0
  187.6180  172.5940  141.5370 O   0  0  0  0  0  0  0  0  0  0  0  0
  192.8290  175.2270  142.1660 C   0  0  0  0  0  3  0  0  0  0  0  0
  189.5090  174.0550  141.4140 C   0  0  2  0  0  3  0  0  0  0  0  0
  190.3360  172.3770  139.1430 C   0  0  0  0  0  3  0  0  0  0  0  0
  191.2390  173.1930  139.6920 C   0  0  0  0  0  3  0  0  0  0  0  0
  188.8840  175.3480  140.8970 C   0  0  0  0  0  2  0  0  0  0  0  0
  187.3760  175.3610  141.1100 C   0  0  0  0  0  2  0  0  0  0  0  0
  187.0070  176.0320  142.4260 C   0  0  0  0  0  2  0  0  0  0  0  0
  186.0220  177.1660  142.2010 C   0  0  2  0  0  3  0  0  0  0  0  0
  185.7300  177.2470  140.8400 O   0  0  0  0  0  1  0  0  0  0  0  0
  186.6240  178.4840  142.6690 C   0  0  0  0  0  2  0  0  0  0  0  0
  186.5110  178.6450  144.1810 C   0  0  0  0  0  2  0  0  0  0  0  0
  185.8760  177.4290  144.8440 C   0  0  0  0  0  2  0  0  0  0  0  0
  186.7330  176.9080  145.9980 C   0  0  2  0  0  3  0  0  0  0  0  0
  186.0400  177.0260  147.3490 C   0  0  0  0  0  2  0  0  0  0  0  0
  186.4440  178.6110  148.1390 S   0  0  0  0  0  1  0  0  0  0  0  0
  188.0380  177.4500  145.9980 O   0  0  0  0  0  0  0  0  0  0  0  0
  188.6900  174.9570  147.3100 O   0  0  0  0  0  0  0  0  0  0  0  0
  190.0680  176.7680  144.7360 C   0  0  2  0  0  0  0  0  0  0  0  0
  190.7290  175.0220  145.9880 C   0  0  2  0  0  3  0  0  0  0  0  0
  191.1580  175.8930  144.9550 O   0  0  0  0  0  0  0  0  0  0  0  0
  189.8740  177.3270  143.3480 C   0  0  1  0  0  3  0  0  0  0  0  0
  190.4000  178.2170  144.4720 C   0  0  2  0  0  3  0  0  0  0  0  0
  189.3580  175.4460  146.3620 C   0  0  0  0  0  0  0  0  0  0  0  0
  188.9000  176.4910  145.5480 N   0  0  0  0  0  0  0  0  0  0  0  0
  190.9720  178.3380  143.0710 C   0  0  0  0  0  2  0  0  0  0  0  0
  192.8380  174.6870  147.0880 O   0  0  0  0  0  0  0  0  0  0  0  0
  191.6530  175.1090  147.1670 C   0  0  0  0  0  0  0  0  0  0  0  0
  191.2140  175.7100  148.3390 O   0  0  0  0  0  1  0  0  0  0  0  0
  194.0040  174.5110  142.7370 C   0  0  0  0  0  2  0  0  0  0  0  0
  196.1990  175.2790  143.6280 C   0  0  0  0  0  3  0  0  0  0  0  0
  194.8800  175.4590  143.5000 C   0  0  0  0  0  3  0  0  0  0  0  0
  196.9340  174.1090  143.0330 C   0  0  2  0  0  3  0  0  0  0  0  0
  197.5800  173.2370  144.1210 C   0  0  1  0  0  3  0  0  0  0  0  0
  197.6430  173.9210  145.3380 O   0  0  0  0  0  1  0  0  0  0  0  0
  196.9680  171.8390  144.2840 C   0  0  0  0  0  2  0  0  0  0  0  0
  195.4690  171.7950  144.0230 C   0  0  0  0  0  2  0  0  0  0  0  0
  194.6990  171.8910  145.3260 C   0  0  0  0  0  2  0  0  0  0  0  0
  193.5280  171.1420  145.2320 O   0  0  0  0  0  0  0  0  0  0  0  0
  192.6300  171.9780  144.5690 C   0  0  0  0  0  2  0  0  0  0  0  0
  191.9960  171.2250  143.4200 C   0  0  0  0  0  1  0  0  0  0  0  0
  197.9410  174.5690  141.9800 C   0  0  0  0  0  2  0  0  0  0  0  0
  196.4950  176.7930  141.1810 O   0  0  0  0  0  1  0  0  0  0  0  0
  197.8990  175.2960  138.3120 O   0  0  0  0  0  1  0  0  0  0  0  0
  196.5070  175.8280  140.1730 C   0  0  1  0  0  3  0  0  0  0  0  0
  197.9350  175.6620  139.6590 C   0  0  1  0  0  3  0  0  0  0  0  0
  197.3250  174.6000  140.5810 C   0  0  1  0  0  0  0  0  0  0  0  0
  195.6070  172.8980  140.4490 C   0  0  0  0  0  2  0  0  0  0  0  0
  197.8480  172.1790  140.3220 C   0  0  0  0  0  2  0  0  0  0  0  0
  196.9420  173.2870  140.0060 N   0  0  0  0  0  0  0  0  0  0  0  0
  195.5930  171.3920  140.5450 C   0  0  0  0  0  2  0  0  0  0  0  0
  197.0200  171.0290  140.8510 C   0  0  0  0  0  2  0  0  0  0  0  0
  1  4  1  0  0  0  0
  2  6  2  0  0  0  0
  3  7  1  0  0  0  0
  3  2  2  0  0  0  0
  4  7  1  0  0  0  0
  4  5  2  0  0  0  0
  6 34  1  0  0  0  0
  7 10  1  6  0  0  0
  8  9  2  0  0  0  0
  8  1  1  0  0  0  0
  9  3  1  0  0  0  0
 10 11  1  0  0  0  0
 11 12  1  0  0  0  0
 13 14  1  6  0  0  0
 13 12  1  0  0  0  0
 13 15  1  0  0  0  0
 15 16  1  0  0  0  0
 16 17  1  0  0  0  0
 18 17  1  6  0  0  0
 18 19  1  0  0  0  0
 19 20  1  0  0  0  0
 21 18  1  0  0  0  0
 23 25  1  1  0  0  0
 23 29  1  0  0  0  0
 24 28  1  0  0  0  0
 24 32  1  1  0  0  0
 25 24  1  0  0  0  0
 26 30  1  6  0  0  0
 26 27  1  0  0  0  0
 26 23  1  0  0  0  0
 27 30  1  6  0  0  0
 27 23  1  0  0  0  0
 28 22  2  0  0  0  0
 29 21  1  0  0  0  0
 29 28  1  0  0  0  0
 31 32  2  0  0  0  0
 32 33  1  0  0  0  0
 34 36  1  0  0  0  0
 36 35  2  0  0  0  0
 37 46  1  6  0  0  0
 37 35  1  0  0  0  0
 37 38  1  0  0  0  0
 38 40  1  0  0  0  0
 38 39  1  1  0  0  0
 41 40  1  0  0  0  0
 41 42  1  0  0  0  0
 43 42  1  0  0  0  0
 44 43  1  0  0  0  0
 45 44  1  0  0  0  0
 49 51  1  0  0  0  0
 49 47  1  1  0  0  0
 50 48  1  6  0  0  0
 50 49  1  0  0  0  0
 50 51  1  0  0  0  0
 51 46  1  1  0  0  0
 52 55  1  0  0  0  0
 53 56  1  0  0  0  0
 54 53  1  0  0  0  0
 54 52  1  0  0  0  0
 54 51  1  0  0  0  0
 55 56  1  0  0  0  0
M  END
>  <MODEL>
6

>  <REMARK>
 VINA RESULT:      -4.9      2.635      6.184
  Name = 
  24 active torsions:
  status: ('A' for Active; 'I' for Inactive)
    1  A    between atoms: C_6  and  C_16
    2  A    between atoms: C_6  and  C_34
    3  A    between atoms: C_7  and  C_36
    4  A    between atoms: C_7  and  C_49
    5  A    between atoms: C_8  and  C_9
    6  A    between atoms: C_8  and  C_45
    7  A    between atoms: C_9  and  C_27
    8  A    between atoms: C_10  and  C_14
    9  A    between atoms: C_10  and  O_15
   10  A    between atoms: C_10  and  C_37
   11  A    between atoms: O_11  and  C_19
   12  A    between atoms: O_11  and  C_28
   13  A    between atoms: O_15  and  N_38
   14  A    between atoms: C_16  and  C_53
   15  A    between atoms: C_20  and  C_26
   16  A    between atoms: C_22  and  C_39
   17  A    between atoms: C_22  and  C_50
   18  A    between atoms: C_27  and  C_44
   19  A    between atoms: C_27  and  C_48
   20  A    between atoms: C_28  and  C_45
   21  A    between atoms: C_34  and  C_50
   22  A    between atoms: C_37  and  C_53
   23  A    between atoms: C_44  and  C_47
   24  A    between atoms: C_47  and  N_52
                            x       y       z     vdW  Elec       q    Type
                         _______ _______ _______ _____ _____    ______ ____

>  <TORSDO>
F 24

$$$$
=
 OpenBabel11072408293D

 56 61  0  0  1  0  0  0  0  0999 V2000
  188.2590  172.4480  139.5280 N   0  0  0  0  0  2  0  0  0  0  0  0
  191.9270  173.2060  141.2310 C   0  0  0  0  0  0  0  0  0  0  0  0
  190.7390  173.1000  140.6980 C   0  0  0  0  0  0  0  0  0  0  0  0
  188.3010  172.7390  140.9280 C   0  0  0  0  0  0  0  0  0  0  0  0
  187.2940  172.5010  141.6430 O   0  0  0  0  0  0  0  0  0  0  0  0
  193.1080  173.3140  141.7770 C   0  0  0  0  0  3  0  0  0  0  0  0
  189.5160  173.3810  141.5340 C   0  0  2  0  0  3  0  0  0  0  0  0
  189.4330  172.5510  138.7130 C   0  0  0  0  0  3  0  0  0  0  0  0
  190.6180  172.8430  139.2540 C   0  0  0  0  0  3  0  0  0  0  0  0
  189.2730  174.8840  141.6350 C   0  0  0  0  0  2  0  0  0  0  0  0
  187.9320  175.2730  141.0260 C   0  0  0  0  0  2  0  0  0  0  0  0
  187.0590  176.0110  142.0320 C   0  0  0  0  0  2  0  0  0  0  0  0
  186.3640  177.1960  141.3830 C   0  0  2  0  0  3  0  0  0  0  0  0
  186.6120  177.1690  140.0100 O   0  0  0  0  0  1  0  0  0  0  0  0
  186.8940  178.4980  141.9680 C   0  0  0  0  0  2  0  0  0  0  0  0
  186.1470  178.8870  143.2380 C   0  0  0  0  0  2  0  0  0  0  0  0
  185.9910  177.7110  144.1960 C   0  0  0  0  0  2  0  0  0  0  0  0
  186.6030  178.0160  145.5630 C   0  0  2  0  0  3  0  0  0  0  0  0
  185.7910  179.0290  146.3610 C   0  0  0  0  0  2  0  0  0  0  0  0
  184.0800  178.4550  146.5700 S   0  0  0  0  0  1  0  0  0  0  0  0
  187.9750  178.3460  145.4870 O   0  0  0  0  0  0  0  0  0  0  0  0
  187.9320  176.2330  147.4610 O   0  0  0  0  0  0  0  0  0  0  0  0
  190.0000  177.0570  144.8440 C   0  0  2  0  0  0  0  0  0  0  0  0
  190.1180  175.6370  146.5830 C   0  0  2  0  0  3  0  0  0  0  0  0
  190.8560  176.1230  145.4740 O   0  0  0  0  0  0  0  0  0  0  0  0
  190.1260  177.2410  143.3520 C   0  0  1  0  0  3  0  0  0  0  0  0
  190.6400  178.3140  144.3080 C   0  0  2  0  0  3  0  0  0  0  0  0
  188.8140  176.3440  146.5710 C   0  0  0  0  0  0  0  0  0  0  0  0
  188.6920  177.1850  145.4570 N   0  0  0  0  0  0  0  0  0  0  0  0
  191.4270  177.9670  143.0580 C   0  0  0  0  0  2  0  0  0  0  0  0
  191.0900  177.0830  148.2360 O   0  0  0  0  0  0  0  0  0  0  0  0
  190.8560  175.9030  147.8620 C   0  0  0  0  0  0  0  0  0  0  0  0
  191.2360  174.8380  148.6680 O   0  0  0  0  0  1  0  0  0  0  0  0
  194.0590  172.1670  141.7760 C   0  0  0  0  0  2  0  0  0  0  0  0
  195.1450  172.1220  144.0160 C   0  0  0  0  0  3  0  0  0  0  0  0
  194.2380  171.6300  143.1640 C   0  0  0  0  0  3  0  0  0  0  0  0
  196.0770  173.2510  143.6700 C   0  0  2  0  0  3  0  0  0  0  0  0
  197.4160  172.7280  143.1260 C   0  0  1  0  0  3  0  0  0  0  0  0
  197.4940  171.3380  143.2400 O   0  0  0  0  0  1  0  0  0  0  0  0
  197.7740  173.2050  141.7110 C   0  0  0  0  0  2  0  0  0  0  0  0
  197.9190  172.0720  140.7040 C   0  0  0  0  0  2  0  0  0  0  0  0
  196.9400  172.2500  139.5590 C   0  0  0  0  0  2  0  0  0  0  0  0
  196.7290  173.6090  139.3350 O   0  0  0  0  0  0  0  0  0  0  0  0
  197.6260  173.9410  138.3200 C   0  0  0  0  0  2  0  0  0  0  0  0
  197.1850  175.2290  137.6600 C   0  0  0  0  0  1  0  0  0  0  0  0
  196.2580  174.1980  144.8550 C   0  0  0  0  0  2  0  0  0  0  0  0
  193.6390  174.0220  145.7390 O   0  0  0  0  0  1  0  0  0  0  0  0
  194.6930  177.3720  146.0620 O   0  0  0  0  0  1  0  0  0  0  0  0
  193.8950  175.2910  145.2180 C   0  0  1  0  0  3  0  0  0  0  0  0
  194.9210  175.9950  146.1040 C   0  0  1  0  0  3  0  0  0  0  0  0
  195.3470  175.4210  144.7480 C   0  0  1  0  0  0  0  0  0  0  0  0
  194.7960  176.0570  142.4770 C   0  0  0  0  0  2  0  0  0  0  0  0
  197.0270  176.3680  143.1730 C   0  0  0  0  0  2  0  0  0  0  0  0
  195.6350  176.3560  143.6330 N   0  0  0  0  0  0  0  0  0  0  0  0
  195.5980  176.4030  141.2460 C   0  0  0  0  0  2  0  0  0  0  0  0
  197.0280  176.2040  141.6690 C   0  0  0  0  0  2  0  0  0  0  0  0
  1  4  1  0  0  0  0
  2  6  2  0  0  0  0
  3  2  2  0  0  0  0
  3  7  1  0  0  0  0
  4  7  1  0  0  0  0
  4  5  2  0  0  0  0
  7 10  1  6  0  0  0
  8  9  2  0  0  0  0
  8  1  1  0  0  0  0
  9  3  1  0  0  0  0
 11 10  1  0  0  0  0
 11 12  1  0  0  0  0
 13 14  1  6  0  0  0
 13 15  1  0  0  0  0
 13 12  1  0  0  0  0
 15 16  1  0  0  0  0
 16 17  1  0  0  0  0
 18 17  1  6  0  0  0
 18 19  1  0  0  0  0
 19 20  1  0  0  0  0
 21 18  1  0  0  0  0
 23 29  1  0  0  0  0
 23 25  1  1  0  0  0
 24 32  1  1  0  0  0
 25 24  1  0  0  0  0
 26 30  1  1  0  0  0
 26 27  1  0  0  0  0
 26 23  1  0  0  0  0
 27 30  1  1  0  0  0
 27 23  1  0  0  0  0
 28 24  1  0  0  0  0
 28 22  2  0  0  0  0
 29 21  1  0  0  0  0
 29 28  1  0  0  0  0
 32 31  2  0  0  0  0
 32 33  1  0  0  0  0
 34  6  1  0  0  0  0
 34 36  1  0  0  0  0
 36 35  2  0  0  0  0
 37 35  1  1  0  0  0
 37 46  1  0  0  0  0
 38 39  1  6  0  0  0
 38 37  1  0  0  0  0
 40 38  1  0  0  0  0
 41 40  1  0  0  0  0
 42 41  1  0  0  0  0
 43 42  1  0  0  0  0
 44 43  1  0  0  0  0
 45 44  1  0  0  0  0
 49 47  1  1  0  0  0
 49 50  1  0  0  0  0
 50 48  1  6  0  0  0
 51 46  1  1  0  0  0
 51 49  1  0  0  0  0
 51 50  1  0  0  0  0
 52 54  1  0  0  0  0
 53 54  1  0  0  0  0
 54 51  1  0  0  0  0
 55 56  1  0  0  0  0
 55 52  1  0  0  0  0
 56 53  1  0  0  0  0
M  END
>  <MODEL>
7

>  <REMARK>
 VINA RESULT:      -4.8      2.537      6.745
  Name = 
  24 active torsions:
  status: ('A' for Active; 'I' for Inactive)
    1  A    between atoms: C_6  and  C_16
    2  A    between atoms: C_6  and  C_34
    3  A    between atoms: C_7  and  C_36
    4  A    between atoms: C_7  and  C_49
    5  A    between atoms: C_8  and  C_9
    6  A    between atoms: C_8  and  C_45
    7  A    between atoms: C_9  and  C_27
    8  A    between atoms: C_10  and  C_14
    9  A    between atoms: C_10  and  O_15
   10  A    between atoms: C_10  and  C_37
   11  A    between atoms: O_11  and  C_19
   12  A    between atoms: O_11  and  C_28
   13  A    between atoms: O_15  and  N_38
   14  A    between atoms: C_16  and  C_53
   15  A    between atoms: C_20  and  C_26
   16  A    between atoms: C_22  and  C_39
   17  A    between atoms: C_22  and  C_50
   18  A    between atoms: C_27  and  C_44
   19  A    between atoms: C_27  and  C_48
   20  A    between atoms: C_28  and  C_45
   21  A    between atoms: C_34  and  C_50
   22  A    between atoms: C_37  and  C_53
   23  A    between atoms: C_44  and  C_47
   24  A    between atoms: C_47  and  N_52
                            x       y       z     vdW  Elec       q    Type
                         _______ _______ _______ _____ _____    ______ ____

>  <TORSDO>
F 24

$$$$
=
 OpenBabel11072408293D

 56 61  0  0  1  0  0  0  0  0999 V2000
  194.8500  175.3980  139.3220 N   0  0  0  0  0  0  0  0  0  0  0  0
  192.7750  172.9780  141.9240 C   0  0  0  0  0  0  0  0  0  0  0  0
  193.5270  173.6470  141.0910 C   0  0  0  0  0  0  0  0  0  0  0  0
  195.3410  175.2750  140.6600 C   0  0  0  0  0  0  0  0  0  0  0  0
  196.2060  176.0850  141.0820 O   0  0  0  0  0  0  0  0  0  0  0  0
  192.0330  172.3130  142.7670 C   0  0  0  0  0  3  0  0  0  0  0  0
  194.8760  174.1500  141.5390 C   0  0  2  0  0  3  0  0  0  0  0  0
  193.7530  174.6010  138.8580 C   0  0  0  0  0  3  0  0  0  0  0  0
  193.1060  173.7790  139.6870 C   0  0  0  0  0  2  0  0  0  0  0  0
  195.9090  173.0280  141.4810 C   0  0  0  0  0  2  0  0  0  0  0  0
  196.9620  173.2950  140.4120 C   0  0  0  0  0  2  0  0  0  0  0  0
  196.7970  172.3590  139.2240 C   0  0  0  0  0  2  0  0  0  0  0  0
  196.6600  170.9160  139.6810 C   0  0  2  0  0  3  0  0  0  0  0  0
  197.9060  170.2950  139.5940 O   0  0  0  0  0  1  0  0  0  0  0  0
  195.6640  170.1790  138.7970 C   0  0  0  0  0  2  0  0  0  0  0  0
  195.0840  171.0930  137.7240 C   0  0  0  0  0  2  0  0  0  0  0  0
  194.5040  170.3100  136.5530 C   0  0  0  0  0  2  0  0  0  0  0  0
  193.0530  170.7070  136.2760 C   0  0  2  0  0  3  0  0  0  0  0  0
  192.8310  171.1740  134.8440 C   0  0  0  0  0  2  0  0  0  0  0  0
  192.9620  172.9820  134.7330 S   0  0  0  0  0  1  0  0  0  0  0  0
  192.5410  171.6070  137.2370 O   0  0  0  0  0  0  0  0  0  0  0  0
  189.9370  172.7970  136.8230 O   0  0  0  0  0  0  0  0  0  0  0  0
  191.1790  170.3540  138.8950 C   0  0  2  0  0  0  0  0  0  0  0  0
  189.2630  171.5240  138.7800 C   0  0  2  0  0  3  0  0  0  0  0  0
  189.9420  170.5490  139.5530 O   0  0  0  0  0  0  0  0  0  0  0  0
  191.8260  168.9940  138.9880 C   0  0  1  0  0  3  0  0  0  0  0  0
  192.3950  170.1750  139.7710 C   0  0  2  0  0  3  0  0  0  0  0  0
  190.1690  171.8920  137.6650 C   0  0  0  0  0  0  0  0  0  0  0  0
  191.3430  171.1250  137.6790 N   0  0  0  0  0  0  0  0  0  0  0  0
  192.3440  168.7960  140.4020 C   0  0  0  0  0  2  0  0  0  0  0  0
  187.8240  172.8180  140.2030 O   0  0  0  0  0  1  0  0  0  0  0  0
  188.9360  172.7250  139.6180 C   0  0  0  0  0  0  0  0  0  0  0  0
  189.8910  173.7180  139.7940 O   0  0  0  0  0  0  0  0  0  0  0  0
  190.6530  172.7670  143.0950 C   0  0  0  0  0  2  0  0  0  0  0  0
  190.6140  174.2140  145.1220 C   0  0  0  0  0  3  0  0  0  0  0  0
  190.5110  173.0000  144.5690 C   0  0  0  0  0  3  0  0  0  0  0  0
  190.8900  175.4610  144.3270 C   0  0  2  0  0  3  0  0  0  0  0  0
  192.3880  175.8040  144.3190 C   0  0  1  0  0  3  0  0  0  0  0  0
  192.7200  176.5720  143.2000 O   0  0  0  0  0  1  0  0  0  0  0  0
  192.9190  176.4290  145.6170 C   0  0  0  0  0  2  0  0  0  0  0  0
  194.1950  175.7760  146.1300 C   0  0  0  0  0  2  0  0  0  0  0  0
  194.8700  174.9860  145.0250 C   0  0  0  0  0  2  0  0  0  0  0  0
  196.0480  175.6260  144.6470 O   0  0  0  0  0  0  0  0  0  0  0  0
  196.9980  174.6080  144.5920 C   0  0  0  0  0  2  0  0  0  0  0  0
  197.0000  173.8500  145.9020 C   0  0  0  0  0  1  0  0  0  0  0  0
  190.0270  176.6250  144.8140 C   0  0  0  0  0  2  0  0  0  0  0  0
  189.6200  178.1510  142.5380 O   0  0  0  0  0  1  0  0  0  0  0  0
  187.4100  175.4040  142.4380 O   0  0  0  0  0  1  0  0  0  0  0  0
  188.4430  177.5010  142.9080 C   0  0  1  0  0  3  0  0  0  0  0  0
  188.6360  175.9940  142.7540 C   0  0  1  0  0  3  0  0  0  0  0  0
  188.6500  176.6270  144.1490 C   0  0  1  0  0  0  0  0  0  0  0  0
  186.4350  177.3800  144.7770 C   0  0  0  0  0  2  0  0  0  0  0  0
  187.7890  176.4740  146.4810 C   0  0  0  0  0  2  0  0  0  0  0  0
  187.4890  176.4080  145.0470 N   0  0  0  0  0  0  0  0  0  0  0  0
  185.7370  177.6520  146.0870 C   0  0  0  0  0  2  0  0  0  0  0  0
  186.7980  177.4170  147.1270 C   0  0  0  0  0  2  0  0  0  0  0  0
  1  4  1  0  0  0  0
  2  6  2  0  0  0  0
  3  7  1  0  0  0  0
  3  2  2  0  0  0  0
  4  5  2  0  0  0  0
  4  7  1  0  0  0  0
  6 34  1  0  0  0  0
  7 10  1  6  0  0  0
  8  1  2  0  0  0  0
  8  9  1  0  0  0  0
  9  3  1  0  0  0  0
 11 10  1  0  0  0  0
 12 13  1  0  0  0  0
 12 11  1  0  0  0  0
 13 14  1  6  0  0  0
 15 13  1  0  0  0  0
 16 15  1  0  0  0  0
 17 16  1  0  0  0  0
 18 19  1  6  0  0  0
 18 17  1  0  0  0  0
 18 21  1  0  0  0  0
 20 19  1  0  0  0  0
 21 29  1  0  0  0  0
 22 28  2  0  0  0  0
 23 26  1  0  0  0  0
 23 25  1  1  0  0  0
 23 27  1  0  0  0  0
 24 25  1  0  0  0  0
 24 32  1  1  0  0  0
 26 27  1  0  0  0  0
 26 30  1  1  0  0  0
 27 30  1  1  0  0  0
 28 29  1  0  0  0  0
 28 24  1  0  0  0  0
 29 23  1  0  0  0  0
 32 33  2  0  0  0  0
 32 31  1  0  0  0  0
 34 36  1  0  0  0  0
 36 35  2  0  0  0  0
 37 46  1  1  0  0  0
 37 35  1  0  0  0  0
 38 39  1  6  0  0  0
 38 37  1  0  0  0  0
 38 40  1  0  0  0  0
 40 41  1  0  0  0  0
 42 41  1  0  0  0  0
 43 42  1  0  0  0  0
 44 43  1  0  0  0  0
 44 45  1  0  0  0  0
 49 47  1  6  0  0  0
 49 51  1  0  0  0  0
 50 48  1  1  0  0  0
 50 49  1  0  0  0  0
 50 51  1  0  0  0  0
 51 46  1  1  0  0  0
 51 54  1  0  0  0  0
 52 54  1  0  0  0  0
 52 55  1  0  0  0  0
 53 56  1  0  0  0  0
 54 53  1  0  0  0  0
 55 56  1  0  0  0  0
M  END
>  <MODEL>
8

>  <REMARK>
 VINA RESULT:      -4.6      2.746      7.990
  Name = 
  24 active torsions:
  status: ('A' for Active; 'I' for Inactive)
    1  A    between atoms: C_6  and  C_16
    2  A    between atoms: C_6  and  C_34
    3  A    between atoms: C_7  and  C_36
    4  A    between atoms: C_7  and  C_49
    5  A    between atoms: C_8  and  C_9
    6  A    between atoms: C_8  and  C_45
    7  A    between atoms: C_9  and  C_27
    8  A    between atoms: C_10  and  C_14
    9  A    between atoms: C_10  and  O_15
   10  A    between atoms: C_10  and  C_37
   11  A    between atoms: O_11  and  C_19
   12  A    between atoms: O_11  and  C_28
   13  A    between atoms: O_15  and  N_38
   14  A    between atoms: C_16  and  C_53
   15  A    between atoms: C_20  and  C_26
   16  A    between atoms: C_22  and  C_39
   17  A    between atoms: C_22  and  C_50
   18  A    between atoms: C_27  and  C_44
   19  A    between atoms: C_27  and  C_48
   20  A    between atoms: C_28  and  C_45
   21  A    between atoms: C_34  and  C_50
   22  A    between atoms: C_37  and  C_53
   23  A    between atoms: C_44  and  C_47
   24  A    between atoms: C_47  and  N_52
                            x       y       z     vdW  Elec       q    Type
                         _______ _______ _______ _____ _____    ______ ____

>  <TORSDO>
F 24

$$$$
=
 OpenBabel11072408293D

 56 61  0  0  1  0  0  0  0  0999 V2000
  194.1850  171.9670  144.6380 N   0  0  0  0  0  0  0  0  0  0  0  0
  192.7720  175.5560  143.2040 C   0  0  0  0  0  0  0  0  0  0  0  0
  193.3460  174.4690  143.6460 C   0  0  0  0  0  0  0  0  0  0  0  0
  194.3170  172.2290  143.2380 C   0  0  0  0  0  0  0  0  0  0  0  0
  194.6030  171.2880  142.4550 O   0  0  0  0  0  0  0  0  0  0  0  0
  192.2030  176.6390  142.7480 C   0  0  0  0  0  3  0  0  0  0  0  0
  194.1770  173.6280  142.7110 C   0  0  2  0  0  3  0  0  0  0  0  0
  193.7020  172.9730  145.5390 C   0  0  0  0  0  3  0  0  0  0  0  0
  193.2870  174.1560  145.0830 C   0  0  0  0  0  2  0  0  0  0  0  0
  195.5710  174.2290  142.5500 C   0  0  0  0  0  2  0  0  0  0  0  0
  195.5050  175.7320  142.3140 C   0  0  0  0  0  2  0  0  0  0  0  0
  195.3000  176.0550  140.8410 C   0  0  0  0  0  2  0  0  0  0  0  0
  196.2530  175.2540  139.9700 C   0  0  2  0  0  3  0  0  0  0  0  0
  197.4520  175.9550  139.8500 O   0  0  0  0  0  1  0  0  0  0  0  0
  195.6480  175.0450  138.5880 C   0  0  0  0  0  2  0  0  0  0  0  0
  195.8330  173.6090  138.1080 C   0  0  0  0  0  2  0  0  0  0  0  0
  194.5130  172.8500  138.0440 C   0  0  0  0  0  2  0  0  0  0  0  0
  194.4310  171.7760  139.1290 C   0  0  2  0  0  3  0  0  0  0  0  0
  195.1260  170.4800  138.7320 C   0  0  0  0  0  2  0  0  0  0  0  0
  196.7410  170.3430  139.5510 S   0  0  0  0  0  1  0  0  0  0  0  0
  193.1140  171.5750  139.6000 O   0  0  0  0  0  0  0  0  0  0  0  0
  191.9750  174.1970  140.0330 O   0  0  0  0  0  0  0  0  0  0  0  0
  191.2950  171.5850  137.9080 C   0  0  2  0  0  0  0  0  0  0  0  0
  190.2360  173.4790  138.4950 C   0  0  2  0  0  3  0  0  0  0  0  0
  190.0990  172.3110  137.7020 O   0  0  0  0  0  0  0  0  0  0  0  0
  191.8000  170.7160  136.7820 C   0  0  1  0  0  3  0  0  0  0  0  0
  191.1700  170.0850  138.0210 C   0  0  2  0  0  3  0  0  0  0  0  0
  191.5500  173.3800  139.1760 C   0  0  0  0  0  0  0  0  0  0  0  0
  192.2570  172.2390  138.7720 N   0  0  0  0  0  0  0  0  0  0  0  0
  190.8830  169.5140  136.6440 C   0  0  0  0  0  2  0  0  0  0  0  0
  188.2020  174.4160  139.3630 O   0  0  0  0  0  0  0  0  0  0  0  0
  189.1230  173.5670  139.4970 C   0  0  0  0  0  0  0  0  0  0  0  0
  189.0790  172.6660  140.5540 O   0  0  0  0  0  1  0  0  0  0  0  0
  190.7290  176.8310  142.8550 C   0  0  0  0  0  2  0  0  0  0  0  0
  188.7160  175.3670  142.9130 C   0  0  0  0  0  3  0  0  0  0  0  0
  190.0110  175.5360  142.6230 C   0  0  0  0  0  3  0  0  0  0  0  0
  187.8550  176.4490  143.5060 C   0  0  2  0  0  3  0  0  0  0  0  0
  187.9210  176.4410  145.0420 C   0  0  1  0  0  3  0  0  0  0  0  0
  188.2630  175.1750  145.5220 O   0  0  0  0  0  1  0  0  0  0  0  0
  188.7950  177.5410  145.6610 C   0  0  0  0  0  2  0  0  0  0  0  0
  188.3890  177.9160  147.0790 C   0  0  0  0  0  2  0  0  0  0  0  0
  189.5600  177.7500  148.0290 C   0  0  0  0  0  2  0  0  0  0  0  0
  190.7240  177.5200  147.2970 O   0  0  0  0  0  0  0  0  0  0  0  0
  191.5130  176.7320  148.1330 C   0  0  0  0  0  2  0  0  0  0  0  0
  191.2120  175.2710  147.8800 C   0  0  0  0  0  1  0  0  0  0  0  0
  186.4220  176.3610  142.9830 C   0  0  0  0  0  2  0  0  0  0  0  0
  187.8180  177.5360  140.8990 O   0  0  0  0  0  1  0  0  0  0  0  0
  184.4480  178.5560  140.6870 O   0  0  0  0  0  1  0  0  0  0  0  0
  186.7460  178.3410  141.2850 C   0  0  1  0  0  3  0  0  0  0  0  0
  185.4400  177.6140  140.9730 C   0  0  1  0  0  3  0  0  0  0  0  0
  185.9410  177.6980  142.4190 C   0  0  1  0  0  0  0  0  0  0  0  0
  186.1800  179.5190  143.9980 C   0  0  0  0  0  2  0  0  0  0  0  0
  184.5080  177.9170  144.4430 C   0  0  0  0  0  2  0  0  0  0  0  0
  185.2400  178.5960  143.3690 N   0  0  0  0  0  0  0  0  0  0  0  0
  185.6690  179.7900  145.3920 C   0  0  0  0  0  2  0  0  0  0  0  0
  184.9170  178.5400  145.7600 C   0  0  0  0  0  2  0  0  0  0  0  0
  1  8  2  0  0  0  0
  2  3  2  0  0  0  0
  3  9  1  0  0  0  0
  4  1  1  0  0  0  0
  5  4  2  0  0  0  0
  6 34  1  0  0  0  0
  6  2  2  0  0  0  0
  7 10  1  1  0  0  0
  7  4  1  0  0  0  0
  7  3  1  0  0  0  0
  9  8  1  0  0  0  0
 11 10  1  0  0  0  0
 12 11  1  0  0  0  0
 13 14  1  6  0  0  0
 13 12  1  0  0  0  0
 15 13  1  0  0  0  0
 16 15  1  0  0  0  0
 17 16  1  0  0  0  0
 18 17  1  6  0  0  0
 18 21  1  0  0  0  0
 19 18  1  0  0  0  0
 19 20  1  0  0  0  0
 23 25  1  6  0  0  0
 23 27  1  0  0  0  0
 23 29  1  0  0  0  0
 24 28  1  0  0  0  0
 24 32  1  1  0  0  0
 25 24  1  0  0  0  0
 26 30  1  6  0  0  0
 26 23  1  0  0  0  0
 26 27  1  0  0  0  0
 27 30  1  6  0  0  0
 28 22  2  0  0  0  0
 29 28  1  0  0  0  0
 29 21  1  0  0  0  0
 31 32  2  0  0  0  0
 32 33  1  0  0  0  0
 36 34  1  0  0  0  0
 36 35  2  0  0  0  0
 37 35  1  6  0  0  0
 37 38  1  0  0  0  0
 38 39  1  6  0  0  0
 38 40  1  0  0  0  0
 40 41  1  0  0  0  0
 41 42  1  0  0  0  0
 43 42  1  0  0  0  0
 43 44  1  0  0  0  0
 45 44  1  0  0  0  0
 46 37  1  0  0  0  0
 49 47  1  6  0  0  0
 49 51  1  0  0  0  0
 50 48  1  1  0  0  0
 50 49  1  0  0  0  0
 50 51  1  0  0  0  0
 51 46  1  1  0  0  0
 51 54  1  0  0  0  0
 52 55  1  0  0  0  0
 53 56  1  0  0  0  0
 54 52  1  0  0  0  0
 54 53  1  0  0  0  0
 55 56  1  0  0  0  0
M  END
>  <MODEL>
9

>  <REMARK>
 VINA RESULT:      -4.6      2.572      8.226
  Name = 
  24 active torsions:
  status: ('A' for Active; 'I' for Inactive)
    1  A    between atoms: C_6  and  C_16
    2  A    between atoms: C_6  and  C_34
    3  A    between atoms: C_7  and  C_36
    4  A    between atoms: C_7  and  C_49
    5  A    between atoms: C_8  and  C_9
    6  A    between atoms: C_8  and  C_45
    7  A    between atoms: C_9  and  C_27
    8  A    between atoms: C_10  and  C_14
    9  A    between atoms: C_10  and  O_15
   10  A    between atoms: C_10  and  C_37
   11  A    between atoms: O_11  and  C_19
   12  A    between atoms: O_11  and  C_28
   13  A    between atoms: O_15  and  N_38
   14  A    between atoms: C_16  and  C_53
   15  A    between atoms: C_20  and  C_26
   16  A    between atoms: C_22  and  C_39
   17  A    between atoms: C_22  and  C_50
   18  A    between atoms: C_27  and  C_44
   19  A    between atoms: C_27  and  C_48
   20  A    between atoms: C_28  and  C_45
   21  A    between atoms: C_34  and  C_50
   22  A    between atoms: C_37  and  C_53
   23  A    between atoms: C_44  and  C_47
   24  A    between atoms: C_47  and  N_52
                            x       y       z     vdW  Elec       q    Type
                         _______ _______ _______ _____ _____    ______ ____

>  <TORSDO>
F 24

$$$$
