=
 OpenBabel11062422513D

 46 52  0  0  1  0  0  0  0  0999 V2000
  192.8590  175.6420  143.8160 C   0  0  1  0  0  3  0  0  0  0  0  0
  188.6280  172.6500  139.1960 C   0  0  2  0  0  3  0  0  0  0  0  0
  188.7860  172.3490  142.5300 C   0  0  0  0  0  2  0  0  0  0  0  0
  190.7270  173.6860  138.6170 F   0  0  0  0  0  0  0  0  0  0  0  0
  187.8210  172.6520  140.3530 O   0  0  0  0  0  0  0  0  0  0  0  0
  192.0110  175.1120  141.8900 C   0  0  0  0  0  2  0  0  0  0  0  0
  189.8650  173.7940  140.8300 C   0  0  1  0  0  3  0  0  0  0  0  0
  190.0550  172.9660  139.5920 C   0  0  0  0  0  0  0  0  0  0  0  0
  190.0140  172.8020  143.3000 C   0  0  0  0  0  2  0  0  0  0  0  0
  187.7980  174.4060  141.8300 O   0  0  0  0  0  1  0  0  0  0  0  0
  188.5360  173.3140  141.3740 C   0  0  2  0  0  0  0  0  0  0  0  0
  190.7210  171.7790  139.8450 F   0  0  0  0  0  0  0  0  0  0  0  0
  191.1430  173.5370  142.0930 P   0  0  1  0  0  4  0  0  0  0  0  0
  188.1390  173.5960  138.2930 O   0  0  0  0  0  1  0  0  0  0  0  0
  192.4850  174.3020  144.3390 C   0  0  2  0  0  0  0  0  0  0  0  0
  191.5770  174.9870  143.2520 C   0  0  2  0  0  0  0  0  0  0  0  0
  191.8590  174.2730  145.6060 O   0  0  0  0  0  0  0  0  0  0  0  0
  192.8120  174.6080  146.5810 C   0  0  0  0  0  1  0  0  0  0  0  0
  193.6170  177.5080  145.0960 O   0  0  0  0  0  1  0  0  0  0  0  0
  192.4710  176.8100  144.7150 C   0  0  1  0  0  3  0  0  0  0  0  0
  191.5340  177.7500  143.9760 C   0  0  0  0  0  2  0  0  0  0  0  0
  187.8000  177.5080  143.7350 C   0  0  0  0  0  3  0  0  0  0  0  0
  187.5830  176.9250  146.1280 C   0  0  0  0  0  0  0  0  0  0  0  0
  189.0350  178.0090  143.6500 C   0  0  0  0  0  3  0  0  0  0  0  0
  190.1620  177.6550  144.5410 C   0  0  0  0  0  0  0  0  0  0  0  0
  188.7780  177.2710  146.6150 C   0  0  0  0  0  3  0  0  0  0  0  0
  187.4250  176.4470  144.7140 C   0  0  0  0  0  2  0  0  0  0  0  0
  190.0360  177.3640  145.8440 C   0  0  0  0  0  3  0  0  0  0  0  0
  186.4850  176.9650  146.9920 O   0  0  0  0  0  0  0  0  0  0  0  0
  185.1340  176.9080  146.5400 C   0  0  0  0  0  2  0  0  0  0  0  0
  184.4760  178.2740  146.6370 C   0  0  0  0  0  2  0  0  0  0  0  0
  184.3560  178.8980  145.2650 C   0  0  0  0  0  1  0  0  0  0  0  0
  193.5680  173.2140  144.0450 C   0  0  1  0  0  3  0  0  0  0  0  0
  194.9460  173.8120  143.7930 C   0  0  0  0  0  2  0  0  0  0  0  0
  195.3700  173.5420  142.4210 N   0  0  0  0  0  2  0  0  0  0  0  0
  195.6630  175.2740  140.6700 C   0  0  0  0  0  2  0  0  0  0  0  0
  196.1760  175.7790  142.6600 O   0  0  0  0  0  0  0  0  0  0  0  0
  195.6600  176.4910  141.5580 C   0  0  0  0  0  2  0  0  0  0  0  0
  196.2420  174.6040  141.8910 C   0  0  1  0  0  3  0  0  0  0  0  0
  193.6420  172.2380  145.0460 O   0  0  0  0  0  0  0  0  0  0  0  0
  193.2450  171.0520  144.4240 C   0  0  2  0  0  3  0  0  0  0  0  0
  193.9280  169.8730  145.0030 C   0  0  1  0  0  0  0  0  0  0  0  0
  193.3360  168.6330  144.7710 O   0  0  0  0  0  1  0  0  0  0  0  0
  194.3640  170.4550  143.8050 O   0  0  0  0  0  0  0  0  0  0  0  0
  194.9670  169.9850  146.1070 C   0  0  0  0  0  2  0  0  0  0  0  0
  194.7450  168.8970  147.1380 C   0  0  0  0  0  1  0  0  0  0  0  0
  1 15  1  0  0  0  0
  1 20  1  1  0  0  0
  2 14  1  6  0  0  0
  2  8  1  0  0  0  0
  2  5  1  0  0  0  0
  3  9  1  0  0  0  0
  4  8  1  0  0  0  0
  5 11  1  0  0  0  0
  7  8  1  6  0  0  0
  7 11  1  0  0  0  0
  7 13  1  0  0  0  0
  8 12  1  0  0  0  0
 11 10  1  1  0  0  0
 11  3  1  0  0  0  0
 13  6  1  6  0  0  0
 13 16  1  0  0  0  0
 13  9  1  0  0  0  0
 15 17  1  1  0  0  0
 16  6  1  6  0  0  0
 16  1  1  0  0  0  0
 16 15  1  0  0  0  0
 17 18  1  0  0  0  0
 20 19  1  6  0  0  0
 21 25  1  0  0  0  0
 21 20  1  0  0  0  0
 22 27  1  0  0  0  0
 23 26  2  0  0  0  0
 23 29  1  0  0  0  0
 24 22  2  0  0  0  0
 24 25  1  0  0  0  0
 25 28  2  0  0  0  0
 27 23  1  0  0  0  0
 28 26  1  0  0  0  0
 30 31  1  0  0  0  0
 30 29  1  0  0  0  0
 32 31  1  0  0  0  0
 33 34  1  1  0  0  0
 33 15  1  0  0  0  0
 33 40  1  0  0  0  0
 35 34  1  0  0  0  0
 36 38  1  0  0  0  0
 36 39  1  0  0  0  0
 38 37  1  0  0  0  0
 39 35  1  1  0  0  0
 39 37  1  0  0  0  0
 41 42  1  0  0  0  0
 41 40  1  1  0  0  0
 42 43  1  6  0  0  0
 42 45  1  0  0  0  0
 44 41  1  0  0  0  0
 44 42  1  0  0  0  0
 45 46  1  0  0  0  0
M  END
>  <MODEL>
1

>  <REMARK>
 VINA RESULT:      -7.1      0.000      0.000
  Name = 
  14 active torsions:
  status: ('A' for Active; 'I' for Inactive)
    1  A    between atoms: C_1  and  C_5
    2  A    between atoms: C_2  and  C_31
    3  A    between atoms: C_3  and  C_45
    4  A    between atoms: C_4  and  O_19
    5  A    between atoms: O_6  and  C_23
    6  A    between atoms: O_6  and  C_31
    7  A    between atoms: O_7  and  C_44
    8  A    between atoms: C_9  and  C_11
    9  A    between atoms: C_9  and  N_18
   10  A    between atoms: C_11  and  O_19
   11  A    between atoms: C_11  and  C_44
   12  A    between atoms: N_18  and  C_40
   13  A    between atoms: C_30  and  C_42
   14  A    between atoms: C_42  and  C_45
                            x       y       z     vdW  Elec       q    Type
                         _______ _______ _______ _____ _____    ______ ____

>  <TORSDO>
F 14

$$$$
=
 OpenBabel11062422513D

 46 52  0  0  1  0  0  0  0  0999 V2000
  192.7890  175.7220  143.8670 C   0  0  1  0  0  3  0  0  0  0  0  0
  188.6650  172.6220  139.2200 C   0  0  2  0  0  3  0  0  0  0  0  0
  188.7820  172.3570  142.5590 C   0  0  0  0  0  2  0  0  0  0  0  0
  190.7560  173.6840  138.6590 F   0  0  0  0  0  0  0  0  0  0  0  0
  187.8430  172.6240  140.3670 O   0  0  0  0  0  0  0  0  0  0  0  0
  191.9750  175.1600  141.9350 C   0  0  0  0  0  2  0  0  0  0  0  0
  189.8630  173.8010  140.8590 C   0  0  1  0  0  3  0  0  0  0  0  0
  190.0820  172.9640  139.6320 C   0  0  0  0  0  0  0  0  0  0  0  0
  189.9920  172.8350  143.3410 C   0  0  0  0  0  2  0  0  0  0  0  0
  187.7740  174.3920  141.8250 O   0  0  0  0  0  1  0  0  0  0  0  0
  188.5340  173.3070  141.3900 C   0  0  2  0  0  0  0  0  0  0  0  0
  190.7610  171.7890  139.9060 F   0  0  0  0  0  0  0  0  0  0  0  0
  191.1270  173.5760  142.1420 P   0  0  1  0  0  4  0  0  0  0  0  0
  188.1740  173.5520  138.3010 O   0  0  0  0  0  1  0  0  0  0  0  0
  192.4280  174.3820  144.3980 C   0  0  2  0  0  0  0  0  0  0  0  0
  191.5240  175.0430  143.2920 C   0  0  2  0  0  0  0  0  0  0  0  0
  191.7850  174.3560  145.6570 O   0  0  0  0  0  0  0  0  0  0  0  0
  192.7650  174.4400  146.6590 C   0  0  0  0  0  1  0  0  0  0  0  0
  193.5010  177.6180  145.1270 O   0  0  0  0  0  1  0  0  0  0  0  0
  192.3720  176.8920  144.7480 C   0  0  1  0  0  3  0  0  0  0  0  0
  191.4200  177.8040  143.9930 C   0  0  0  0  0  2  0  0  0  0  0  0
  187.6900  177.5160  143.7430 C   0  0  0  0  0  3  0  0  0  0  0  0
  187.4750  176.9300  146.1350 C   0  0  0  0  0  0  0  0  0  0  0  0
  188.9190  178.0320  143.6610 C   0  0  0  0  0  3  0  0  0  0  0  0
  190.0480  177.6920  144.5540 C   0  0  0  0  0  0  0  0  0  0  0  0
  188.6640  177.2910  146.6260 C   0  0  0  0  0  3  0  0  0  0  0  0
  187.3260  176.4500  144.7210 C   0  0  0  0  0  2  0  0  0  0  0  0
  189.9220  177.4000  145.8570 C   0  0  0  0  0  3  0  0  0  0  0  0
  186.3740  176.9560  146.9970 O   0  0  0  0  0  0  0  0  0  0  0  0
  185.0270  177.0370  146.5390 C   0  0  0  0  0  2  0  0  0  0  0  0
  184.5630  178.4830  146.4820 C   0  0  0  0  0  2  0  0  0  0  0  0
  184.2080  178.8660  145.0630 C   0  0  0  0  0  1  0  0  0  0  0  0
  193.5300  173.3070  144.1300 C   0  0  1  0  0  3  0  0  0  0  0  0
  192.9770  171.8870  144.1370 C   0  0  0  0  0  2  0  0  0  0  0  0
  194.0580  170.9260  144.3440 N   0  0  0  0  0  2  0  0  0  0  0  0
  194.7900  169.5340  146.2630 C   0  0  0  0  0  2  0  0  0  0  0  0
  195.8970  171.2850  145.8280 O   0  0  0  0  0  0  0  0  0  0  0  0
  196.2140  170.0170  146.3570 C   0  0  0  0  0  2  0  0  0  0  0  0
  194.5400  170.9260  145.7360 C   0  0  1  0  0  3  0  0  0  0  0  0
  194.2410  173.5410  142.9470 O   0  0  0  0  0  0  0  0  0  0  0  0
  195.5710  173.6870  143.3490 C   0  0  2  0  0  3  0  0  0  0  0  0
  196.2980  174.6550  142.4970 C   0  0  1  0  0  0  0  0  0  0  0  0
  197.4710  175.1920  143.0240 O   0  0  0  0  0  1  0  0  0  0  0  0
  196.4210  173.2730  142.3010 O   0  0  0  0  0  0  0  0  0  0  0  0
  195.6540  175.3490  141.3070 C   0  0  0  0  0  2  0  0  0  0  0  0
  196.0000  176.8240  141.3200 C   0  0  0  0  0  1  0  0  0  0  0  0
  1 15  1  0  0  0  0
  1 20  1  1  0  0  0
  2 14  1  6  0  0  0
  2  8  1  0  0  0  0
  2  5  1  0  0  0  0
  3  9  1  0  0  0  0
  4  8  1  0  0  0  0
  5 11  1  0  0  0  0
  7  8  1  6  0  0  0
  7 11  1  0  0  0  0
  7 13  1  0  0  0  0
  8 12  1  0  0  0  0
 11 10  1  1  0  0  0
 11  3  1  0  0  0  0
 13  6  1  6  0  0  0
 13 16  1  0  0  0  0
 13  9  1  0  0  0  0
 15 17  1  1  0  0  0
 16  6  1  6  0  0  0
 16  1  1  0  0  0  0
 16 15  1  0  0  0  0
 17 18  1  0  0  0  0
 20 19  1  6  0  0  0
 21 25  1  0  0  0  0
 21 20  1  0  0  0  0
 22 27  1  0  0  0  0
 23 26  2  0  0  0  0
 23 29  1  0  0  0  0
 24 22  2  0  0  0  0
 24 25  1  0  0  0  0
 25 28  2  0  0  0  0
 27 23  1  0  0  0  0
 28 26  1  0  0  0  0
 30 29  1  0  0  0  0
 31 30  1  0  0  0  0
 32 31  1  0  0  0  0
 33 34  1  6  0  0  0
 33 15  1  0  0  0  0
 34 35  1  0  0  0  0
 36 38  1  0  0  0  0
 37 38  1  0  0  0  0
 39 35  1  6  0  0  0
 39 37  1  0  0  0  0
 39 36  1  0  0  0  0
 40 33  1  0  0  0  0
 41 40  1  6  0  0  0
 42 43  1  1  0  0  0
 42 41  1  0  0  0  0
 44 42  1  0  0  0  0
 44 41  1  0  0  0  0
 45 46  1  0  0  0  0
 45 42  1  0  0  0  0
M  END
>  <MODEL>
2

>  <REMARK>
 VINA RESULT:      -6.2      1.034      3.281
  Name = 
  14 active torsions:
  status: ('A' for Active; 'I' for Inactive)
    1  A    between atoms: C_1  and  C_5
    2  A    between atoms: C_2  and  C_31
    3  A    between atoms: C_3  and  C_45
    4  A    between atoms: C_4  and  O_19
    5  A    between atoms: O_6  and  C_23
    6  A    between atoms: O_6  and  C_31
    7  A    between atoms: O_7  and  C_44
    8  A    between atoms: C_9  and  C_11
    9  A    between atoms: C_9  and  N_18
   10  A    between atoms: C_11  and  O_19
   11  A    between atoms: C_11  and  C_44
   12  A    between atoms: N_18  and  C_40
   13  A    between atoms: C_30  and  C_42
   14  A    between atoms: C_42  and  C_45
                            x       y       z     vdW  Elec       q    Type
                         _______ _______ _______ _____ _____    ______ ____

>  <TORSDO>
F 14

$$$$
=
 OpenBabel11062422513D

 46 52  0  0  1  0  0  0  0  0999 V2000
  193.5170  175.1940  143.4610 C   0  0  1  0  0  3  0  0  0  0  0  0
  191.0490  171.2570  138.3030 C   0  0  2  0  0  3  0  0  0  0  0  0
  190.9860  170.8010  141.6230 C   0  0  0  0  0  2  0  0  0  0  0  0
  192.6990  172.9870  137.9960 F   0  0  0  0  0  0  0  0  0  0  0  0
  190.1870  170.9030  139.3620 O   0  0  0  0  0  0  0  0  0  0  0  0
  193.0920  174.5390  141.4360 C   0  0  0  0  0  2  0  0  0  0  0  0
  191.6490  172.6410  140.1010 C   0  0  1  0  0  3  0  0  0  0  0  0
  192.2320  172.0160  138.8660 C   0  0  0  0  0  0  0  0  0  0  0  0
  191.9010  171.5930  142.5390 C   0  0  0  0  0  2  0  0  0  0  0  0
  189.4150  172.4370  140.8810 O   0  0  0  0  0  1  0  0  0  0  0  0
  190.5270  171.6980  140.4770 C   0  0  2  0  0  0  0  0  0  0  0  0
  193.2430  171.1140  139.1540 F   0  0  0  0  0  0  0  0  0  0  0  0
  192.8120  172.7520  141.4900 P   0  0  1  0  0  4  0  0  0  0  0  0
  190.3480  172.0370  137.3810 O   0  0  0  0  0  1  0  0  0  0  0  0
  193.5860  173.7750  143.8960 C   0  0  2  0  0  0  0  0  0  0  0  0
  192.6020  174.1800  142.7360 C   0  0  2  0  0  0  0  0  0  0  0  0
  192.8930  173.4460  145.0830 O   0  0  0  0  0  0  0  0  0  0  0  0
  193.5920  173.9910  146.1720 C   0  0  0  0  0  1  0  0  0  0  0  0
  193.4320  177.1630  144.8060 O   0  0  0  0  0  1  0  0  0  0  0  0
  192.6640  176.0930  144.3470 C   0  0  1  0  0  3  0  0  0  0  0  0
  191.4780  176.6290  143.5620 C   0  0  0  0  0  2  0  0  0  0  0  0
  189.2890  174.8870  146.0590 C   0  0  0  0  0  3  0  0  0  0  0  0
  187.6710  176.7560  146.0950 C   0  0  0  0  0  0  0  0  0  0  0  0
  189.9960  175.1120  144.9480 C   0  0  0  0  0  3  0  0  0  0  0  0
  190.2230  176.4400  144.3370 C   0  0  0  0  0  0  0  0  0  0  0  0
  188.0040  177.4430  144.9980 C   0  0  0  0  0  3  0  0  0  0  0  0
  188.6960  175.9850  146.8750 C   0  0  0  0  0  2  0  0  0  0  0  0
  189.3280  177.4390  144.3410 C   0  0  0  0  0  3  0  0  0  0  0  0
  186.3450  176.8210  146.5330 O   0  0  0  0  0  0  0  0  0  0  0  0
  185.2430  177.0340  145.6550 C   0  0  0  0  0  2  0  0  0  0  0  0
  184.4330  178.2440  146.0890 C   0  0  0  0  0  2  0  0  0  0  0  0
  184.8330  178.6710  147.4830 C   0  0  0  0  0  1  0  0  0  0  0  0
  195.0020  173.1470  143.6910 C   0  0  1  0  0  3  0  0  0  0  0  0
  196.1060  174.1960  143.6410 C   0  0  0  0  0  2  0  0  0  0  0  0
  196.8300  174.1060  142.3760 N   0  0  0  0  0  2  0  0  0  0  0  0
  196.7220  175.7750  140.5440 C   0  0  0  0  0  2  0  0  0  0  0  0
  196.6030  176.4800  142.5360 O   0  0  0  0  0  0  0  0  0  0  0  0
  196.0610  176.8960  141.3040 C   0  0  0  0  0  2  0  0  0  0  0  0
  197.2820  175.4250  141.9000 C   0  0  1  0  0  3  0  0  0  0  0  0
  195.3070  172.1710  144.6480 O   0  0  0  0  0  0  0  0  0  0  0  0
  195.3390  170.9680  143.9390 C   0  0  2  0  0  3  0  0  0  0  0  0
  195.6490  169.8200  144.8210 C   0  0  1  0  0  0  0  0  0  0  0  0
  195.3110  168.5560  144.3410 O   0  0  0  0  0  1  0  0  0  0  0  0
  196.6350  170.4150  144.0220 O   0  0  0  0  0  0  0  0  0  0  0  0
  195.9390  169.9780  146.3050 C   0  0  0  0  0  2  0  0  0  0  0  0
  195.1380  168.9660  147.0990 C   0  0  0  0  0  1  0  0  0  0  0  0
  1 15  1  0  0  0  0
  1 20  1  1  0  0  0
  2 14  1  6  0  0  0
  2  8  1  0  0  0  0
  2  5  1  0  0  0  0
  3  9  1  0  0  0  0
  4  8  1  0  0  0  0
  5 11  1  0  0  0  0
  7  8  1  6  0  0  0
  7 11  1  0  0  0  0
  7 13  1  0  0  0  0
  8 12  1  0  0  0  0
 11 10  1  1  0  0  0
 11  3  1  0  0  0  0
 13  6  1  6  0  0  0
 13  9  1  0  0  0  0
 13 16  1  0  0  0  0
 15 17  1  1  0  0  0
 16  6  1  6  0  0  0
 16  1  1  0  0  0  0
 16 15  1  0  0  0  0
 17 18  1  0  0  0  0
 20 19  1  6  0  0  0
 21 25  1  0  0  0  0
 21 20  1  0  0  0  0
 22 27  1  0  0  0  0
 23 29  1  0  0  0  0
 23 27  1  0  0  0  0
 24 22  2  0  0  0  0
 25 28  2  0  0  0  0
 25 24  1  0  0  0  0
 26 23  2  0  0  0  0
 28 26  1  0  0  0  0
 30 31  1  0  0  0  0
 30 29  1  0  0  0  0
 31 32  1  0  0  0  0
 33 34  1  1  0  0  0
 33 15  1  0  0  0  0
 33 40  1  0  0  0  0
 35 34  1  0  0  0  0
 36 38  1  0  0  0  0
 36 39  1  0  0  0  0
 38 37  1  0  0  0  0
 39 35  1  1  0  0  0
 39 37  1  0  0  0  0
 41 44  1  0  0  0  0
 41 40  1  1  0  0  0
 41 42  1  0  0  0  0
 42 43  1  6  0  0  0
 42 45  1  0  0  0  0
 44 42  1  0  0  0  0
 45 46  1  0  0  0  0
M  END
>  <MODEL>
3

>  <REMARK>
 VINA RESULT:      -5.9      1.650      1.928
  Name = 
  14 active torsions:
  status: ('A' for Active; 'I' for Inactive)
    1  A    between atoms: C_1  and  C_5
    2  A    between atoms: C_2  and  C_31
    3  A    between atoms: C_3  and  C_45
    4  A    between atoms: C_4  and  O_19
    5  A    between atoms: O_6  and  C_23
    6  A    between atoms: O_6  and  C_31
    7  A    between atoms: O_7  and  C_44
    8  A    between atoms: C_9  and  C_11
    9  A    between atoms: C_9  and  N_18
   10  A    between atoms: C_11  and  O_19
   11  A    between atoms: C_11  and  C_44
   12  A    between atoms: N_18  and  C_40
   13  A    between atoms: C_30  and  C_42
   14  A    between atoms: C_42  and  C_45
                            x       y       z     vdW  Elec       q    Type
                         _______ _______ _______ _____ _____    ______ ____

>  <TORSDO>
F 14

$$$$
=
 OpenBabel11062422513D

 46 52  0  0  1  0  0  0  0  0999 V2000
  192.9650  174.9860  143.4320 C   0  0  1  0  0  3  0  0  0  0  0  0
  196.4330  169.5000  145.8980 C   0  0  2  0  0  3  0  0  0  0  0  0
  197.5070  172.1810  144.1980 C   0  0  0  0  0  2  0  0  0  0  0  0
  194.0430  169.5420  145.5770 F   0  0  0  0  0  0  0  0  0  0  0  0
  197.4380  170.4900  145.9000 O   0  0  0  0  0  0  0  0  0  0  0  0
  193.3110  173.0720  144.3940 C   0  0  0  0  0  2  0  0  0  0  0  0
  195.3690  171.4860  145.2410 C   0  0  1  0  0  3  0  0  0  0  0  0
  195.2560  169.9970  145.0850 C   0  0  0  0  0  0  0  0  0  0  0  0
  196.5370  173.0690  143.4410 C   0  0  0  0  0  2  0  0  0  0  0  0
  197.0150  172.6670  146.4820 O   0  0  0  0  0  1  0  0  0  0  0  0
  196.8460  171.7030  145.4880 C   0  0  2  0  0  0  0  0  0  0  0  0
  195.4160  169.5870  143.7720 F   0  0  0  0  0  0  0  0  0  0  0  0
  194.8780  172.4220  143.7650 P   0  0  1  0  0  4  0  0  0  0  0  0
  196.0520  169.2280  147.2140 O   0  0  0  0  0  1  0  0  0  0  0  0
  194.1180  174.7300  142.5300 C   0  0  2  0  0  0  0  0  0  0  0  0
  194.1480  174.1670  143.9990 C   0  0  2  0  0  0  0  0  0  0  0  0
  195.0300  175.7970  142.3560 O   0  0  0  0  0  0  0  0  0  0  0  0
  194.6160  176.5600  141.2530 C   0  0  0  0  0  1  0  0  0  0  0  0
  191.9860  177.1610  143.4700 O   0  0  0  0  0  1  0  0  0  0  0  0
  192.9550  176.3650  144.0800 C   0  0  1  0  0  3  0  0  0  0  0  0
  192.6430  176.2450  145.5620 C   0  0  0  0  0  2  0  0  0  0  0  0
  189.5180  174.2630  146.1650 C   0  0  0  0  0  3  0  0  0  0  0  0
  188.2090  176.2950  146.6810 C   0  0  0  0  0  0  0  0  0  0  0  0
  190.6040  174.7420  145.5530 C   0  0  0  0  0  3  0  0  0  0  0  0
  191.1780  176.0880  145.7670 C   0  0  0  0  0  0  0  0  0  0  0  0
  188.9920  177.2680  146.2070 C   0  0  0  0  0  3  0  0  0  0  0  0
  188.7860  175.0200  147.2220 C   0  0  0  0  0  2  0  0  0  0  0  0
  190.4560  177.1890  146.0220 C   0  0  0  0  0  3  0  0  0  0  0  0
  186.8290  176.5210  146.7150 O   0  0  0  0  0  0  0  0  0  0  0  0
  186.0640  176.8520  145.5590 C   0  0  0  0  0  2  0  0  0  0  0  0
  184.8860  177.7380  145.9270 C   0  0  0  0  0  2  0  0  0  0  0  0
  185.1400  178.4290  147.2470 C   0  0  0  0  0  1  0  0  0  0  0  0
  193.7240  173.9060  141.2620 C   0  0  1  0  0  3  0  0  0  0  0  0
  192.2690  174.1130  140.8580 C   0  0  0  0  0  2  0  0  0  0  0  0
  191.5310  172.8570  140.9720 N   0  0  0  0  0  2  0  0  0  0  0  0
  189.8540  174.4640  141.8430 C   0  0  0  0  0  2  0  0  0  0  0  0
  189.1480  172.6840  140.9430 O   0  0  0  0  0  0  0  0  0  0  0  0
  188.6660  174.0050  141.0360 C   0  0  0  0  0  2  0  0  0  0  0  0
  190.2710  173.0200  141.7180 C   0  0  1  0  0  3  0  0  0  0  0  0
  194.5660  174.1500  140.1710 O   0  0  0  0  0  0  0  0  0  0  0  0
  195.2180  172.9360  139.9400 C   0  0  2  0  0  3  0  0  0  0  0  0
  196.6710  173.1270  139.7260 C   0  0  1  0  0  0  0  0  0  0  0  0
  197.4780  172.0030  139.8960 O   0  0  0  0  0  1  0  0  0  0  0  0
  195.7910  172.9550  138.6500 O   0  0  0  0  0  0  0  0  0  0  0  0
  197.3290  174.4970  139.7190 C   0  0  0  0  0  2  0  0  0  0  0  0
  197.7130  174.8780  138.3040 C   0  0  0  0  0  1  0  0  0  0  0  0
  1 16  1  0  0  0  0
  1 20  1  1  0  0  0
  2  5  1  0  0  0  0
  2 14  1  1  0  0  0
  3 11  1  0  0  0  0
  7  8  1  6  0  0  0
  7 11  1  0  0  0  0
  8  4  1  0  0  0  0
  8  2  1  0  0  0  0
  9  3  1  0  0  0  0
 11  5  1  0  0  0  0
 11 10  1  1  0  0  0
 12  8  1  0  0  0  0
 13  9  1  6  0  0  0
 13 16  1  0  0  0  0
 13  6  1  0  0  0  0
 13  7  1  0  0  0  0
 15 17  1  6  0  0  0
 15  1  1  0  0  0  0
 15 16  1  0  0  0  0
 16  6  1  6  0  0  0
 18 17  1  0  0  0  0
 20 19  1  6  0  0  0
 20 21  1  0  0  0  0
 21 25  1  0  0  0  0
 22 27  1  0  0  0  0
 23 29  1  0  0  0  0
 23 27  1  0  0  0  0
 24 25  1  0  0  0  0
 24 22  2  0  0  0  0
 25 28  2  0  0  0  0
 26 23  2  0  0  0  0
 28 26  1  0  0  0  0
 30 31  1  0  0  0  0
 30 29  1  0  0  0  0
 31 32  1  0  0  0  0
 33 34  1  6  0  0  0
 33 15  1  0  0  0  0
 34 35  1  0  0  0  0
 37 38  1  0  0  0  0
 37 39  1  0  0  0  0
 38 36  1  0  0  0  0
 39 35  1  6  0  0  0
 39 36  1  0  0  0  0
 40 33  1  0  0  0  0
 41 40  1  6  0  0  0
 42 43  1  1  0  0  0
 42 41  1  0  0  0  0
 44 42  1  0  0  0  0
 44 41  1  0  0  0  0
 45 42  1  0  0  0  0
 46 45  1  0  0  0  0
M  END
>  <MODEL>
4

>  <REMARK>
 VINA RESULT:      -5.9      2.703      6.171
  Name = 
  14 active torsions:
  status: ('A' for Active; 'I' for Inactive)
    1  A    between atoms: C_1  and  C_5
    2  A    between atoms: C_2  and  C_31
    3  A    between atoms: C_3  and  C_45
    4  A    between atoms: C_4  and  O_19
    5  A    between atoms: O_6  and  C_23
    6  A    between atoms: O_6  and  C_31
    7  A    between atoms: O_7  and  C_44
    8  A    between atoms: C_9  and  C_11
    9  A    between atoms: C_9  and  N_18
   10  A    between atoms: C_11  and  O_19
   11  A    between atoms: C_11  and  C_44
   12  A    between atoms: N_18  and  C_40
   13  A    between atoms: C_30  and  C_42
   14  A    between atoms: C_42  and  C_45
                            x       y       z     vdW  Elec       q    Type
                         _______ _______ _______ _____ _____    ______ ____

>  <TORSDO>
F 14

$$$$
=
 OpenBabel11062422513D

 46 52  0  0  1  0  0  0  0  0999 V2000
  192.4650  175.9380  143.5240 C   0  0  1  0  0  3  0  0  0  0  0  0
  191.3780  170.7320  139.0620 C   0  0  2  0  0  3  0  0  0  0  0  0
  191.0410  170.8610  142.3940 C   0  0  0  0  0  2  0  0  0  0  0  0
  192.6890  172.6880  138.5450 F   0  0  0  0  0  0  0  0  0  0  0  0
  190.4890  170.3960  140.1050 O   0  0  0  0  0  0  0  0  0  0  0  0
  192.3980  174.8640  141.6400 C   0  0  0  0  0  2  0  0  0  0  0  0
  191.5010  172.5030  140.5960 C   0  0  1  0  0  3  0  0  0  0  0  0
  192.3240  171.8070  139.5510 C   0  0  0  0  0  0  0  0  0  0  0  0
  191.6810  171.9740  143.2040 C   0  0  0  0  0  2  0  0  0  0  0  0
  189.2760  171.9770  141.2400 O   0  0  0  0  0  1  0  0  0  0  0  0
  190.5460  171.4280  141.0670 C   0  0  2  0  0  0  0  0  0  0  0  0
  193.4520  171.2020  140.0800 F   0  0  0  0  0  0  0  0  0  0  0  0
  192.4620  173.0970  142.0180 P   0  0  1  0  0  4  0  0  0  0  0  0
  190.6450  171.1750  137.9590 O   0  0  0  0  0  1  0  0  0  0  0  0
  192.7570  174.6630  144.2290 C   0  0  2  0  0  0  0  0  0  0  0  0
  191.8470  174.6440  142.9460 C   0  0  2  0  0  0  0  0  0  0  0  0
  192.0140  174.4090  145.4050 O   0  0  0  0  0  0  0  0  0  0  0  0
  192.8530  174.6080  146.5130 C   0  0  0  0  0  1  0  0  0  0  0  0
  191.8590  177.4250  145.2890 O   0  0  0  0  0  1  0  0  0  0  0  0
  191.3630  176.7800  144.1560 C   0  0  1  0  0  3  0  0  0  0  0  0
  190.8640  177.8180  143.1660 C   0  0  0  0  0  2  0  0  0  0  0  0
  187.4210  177.3510  144.5750 C   0  0  0  0  0  3  0  0  0  0  0  0
  186.3580  178.3240  142.5670 C   0  0  0  0  0  0  0  0  0  0  0  0
  188.6590  177.0680  144.1630 C   0  0  0  0  0  3  0  0  0  0  0  0
  189.3800  177.7750  143.0820 C   0  0  0  0  0  0  0  0  0  0  0  0
  187.3510  178.2910  141.6730 C   0  0  0  0  0  3  0  0  0  0  0  0
  186.6300  178.4940  144.0320 C   0  0  0  0  0  2  0  0  0  0  0  0
  188.7960  178.2770  141.9830 C   0  0  0  0  0  3  0  0  0  0  0  0
  185.0450  178.2540  142.0910 O   0  0  0  0  0  0  0  0  0  0  0  0
  184.7180  178.2280  140.7040 C   0  0  0  0  0  2  0  0  0  0  0  0
  183.2110  178.2300  140.5050 C   0  0  0  0  0  2  0  0  0  0  0  0
  182.5050  178.3060  141.8400 C   0  0  0  0  0  1  0  0  0  0  0  0
  194.2810  174.3190  144.2520 C   0  0  1  0  0  3  0  0  0  0  0  0
  195.1420  175.5020  144.6760 C   0  0  0  0  0  2  0  0  0  0  0  0
  196.2480  175.6830  143.7390 N   0  0  0  0  0  2  0  0  0  0  0  0
  195.9240  176.6900  141.4950 C   0  0  0  0  0  2  0  0  0  0  0  0
  196.8290  174.7800  141.6040 O   0  0  0  0  0  0  0  0  0  0  0  0
  196.9530  175.8880  140.7410 C   0  0  0  0  0  2  0  0  0  0  0  0
  195.8370  175.4470  142.3440 C   0  0  1  0  0  3  0  0  0  0  0  0
  194.5750  173.2010  145.0430 O   0  0  0  0  0  0  0  0  0  0  0  0
  195.5190  172.4790  144.3110 C   0  0  2  0  0  3  0  0  0  0  0  0
  195.4920  171.0380  144.6510 C   0  0  1  0  0  0  0  0  0  0  0  0
  196.0690  170.1680  143.7280 O   0  0  0  0  0  1  0  0  0  0  0  0
  196.4510  171.9000  145.1990 O   0  0  0  0  0  0  0  0  0  0  0  0
  194.5660  170.4610  145.7110 C   0  0  0  0  0  2  0  0  0  0  0  0
  193.7810  169.3010  145.1340 C   0  0  0  0  0  1  0  0  0  0  0  0
  1 20  1  1  0  0  0
  1 15  1  0  0  0  0
  2 14  1  6  0  0  0
  2  8  1  0  0  0  0
  2  5  1  0  0  0  0
  3  9  1  0  0  0  0
  4  8  1  0  0  0  0
  5 11  1  0  0  0  0
  7  8  1  6  0  0  0
  7 11  1  0  0  0  0
  7 13  1  0  0  0  0
  8 12  1  0  0  0  0
 11 10  1  1  0  0  0
 11  3  1  0  0  0  0
 13  6  1  6  0  0  0
 13 16  1  0  0  0  0
 13  9  1  0  0  0  0
 15 33  1  0  0  0  0
 15 17  1  1  0  0  0
 16  6  1  6  0  0  0
 16  1  1  0  0  0  0
 16 15  1  0  0  0  0
 17 18  1  0  0  0  0
 20 19  1  1  0  0  0
 21 20  1  0  0  0  0
 23 27  1  0  0  0  0
 24 22  2  0  0  0  0
 25 21  1  0  0  0  0
 25 24  1  0  0  0  0
 26 28  1  0  0  0  0
 26 23  2  0  0  0  0
 27 22  1  0  0  0  0
 28 25  2  0  0  0  0
 29 23  1  0  0  0  0
 30 29  1  0  0  0  0
 31 30  1  0  0  0  0
 31 32  1  0  0  0  0
 33 34  1  1  0  0  0
 33 40  1  0  0  0  0
 35 34  1  0  0  0  0
 36 39  1  0  0  0  0
 37 39  1  0  0  0  0
 38 36  1  0  0  0  0
 38 37  1  0  0  0  0
 39 35  1  1  0  0  0
 41 42  1  0  0  0  0
 41 40  1  1  0  0  0
 41 44  1  0  0  0  0
 42 43  1  6  0  0  0
 42 44  1  0  0  0  0
 42 45  1  0  0  0  0
 46 45  1  0  0  0  0
M  END
>  <MODEL>
5

>  <REMARK>
 VINA RESULT:      -5.6      2.163      2.736
  Name = 
  14 active torsions:
  status: ('A' for Active; 'I' for Inactive)
    1  A    between atoms: C_1  and  C_5
    2  A    between atoms: C_2  and  C_31
    3  A    between atoms: C_3  and  C_45
    4  A    between atoms: C_4  and  O_19
    5  A    between atoms: O_6  and  C_23
    6  A    between atoms: O_6  and  C_31
    7  A    between atoms: O_7  and  C_44
    8  A    between atoms: C_9  and  C_11
    9  A    between atoms: C_9  and  N_18
   10  A    between atoms: C_11  and  O_19
   11  A    between atoms: C_11  and  C_44
   12  A    between atoms: N_18  and  C_40
   13  A    between atoms: C_30  and  C_42
   14  A    between atoms: C_42  and  C_45
                            x       y       z     vdW  Elec       q    Type
                         _______ _______ _______ _____ _____    ______ ____

>  <TORSDO>
F 14

$$$$
=
 OpenBabel11062422513D

 46 52  0  0  1  0  0  0  0  0999 V2000
  192.0870  175.4390  142.8790 C   0  0  1  0  0  3  0  0  0  0  0  0
  191.7330  170.3090  138.2150 C   0  0  2  0  0  3  0  0  0  0  0  0
  190.3630  170.5920  141.2610 C   0  0  0  0  0  2  0  0  0  0  0  0
  193.4170  172.0340  138.1840 F   0  0  0  0  0  0  0  0  0  0  0  0
  190.5160  170.1400  138.9090 O   0  0  0  0  0  0  0  0  0  0  0  0
  192.4710  174.3270  141.0560 C   0  0  0  0  0  2  0  0  0  0  0  0
  191.6170  172.0910  139.7370 C   0  0  1  0  0  3  0  0  0  0  0  0
  192.6200  171.2490  139.0030 C   0  0  0  0  0  0  0  0  0  0  0  0
  190.8660  171.6250  142.2530 C   0  0  0  0  0  2  0  0  0  0  0  0
  189.2510  171.9170  139.6170 O   0  0  0  0  0  1  0  0  0  0  0  0
  190.4130  171.1830  139.8540 C   0  0  2  0  0  0  0  0  0  0  0  0
  193.4130  170.5020  139.8570 F   0  0  0  0  0  0  0  0  0  0  0  0
  192.1460  172.5820  141.4030 P   0  0  1  0  0  4  0  0  0  0  0  0
  191.4700  170.8190  136.9420 O   0  0  0  0  0  1  0  0  0  0  0  0
  191.9420  174.1580  143.6180 C   0  0  2  0  0  0  0  0  0  0  0  0
  191.5030  174.2320  142.1090 C   0  0  2  0  0  0  0  0  0  0  0  0
  190.8310  174.0540  144.4860 O   0  0  0  0  0  0  0  0  0  0  0  0
  191.1790  174.6160  145.7240 C   0  0  0  0  0  1  0  0  0  0  0  0
  191.4350  177.7340  142.8250 O   0  0  0  0  0  1  0  0  0  0  0  0
  190.9790  176.4530  143.1350 C   0  0  1  0  0  3  0  0  0  0  0  0
  189.7670  176.1320  142.2770 C   0  0  0  0  0  2  0  0  0  0  0  0
  186.7160  178.1840  141.5430 C   0  0  0  0  0  3  0  0  0  0  0  0
  186.1320  178.3570  143.9390 C   0  0  0  0  0  0  0  0  0  0  0  0
  187.9930  177.7940  141.5630 C   0  0  0  0  0  3  0  0  0  0  0  0
  188.6280  177.0140  142.6480 C   0  0  0  0  0  0  0  0  0  0  0  0
  187.2690  177.9880  144.5370 C   0  0  0  0  0  3  0  0  0  0  0  0
  185.7370  177.8020  142.6020 C   0  0  0  0  0  2  0  0  0  0  0  0
  188.3210  177.1330  143.9480 C   0  0  0  0  0  3  0  0  0  0  0  0
  185.2850  179.2350  144.6220 O   0  0  0  0  0  0  0  0  0  0  0  0
  184.0980  178.8140  145.2890 C   0  0  0  0  0  2  0  0  0  0  0  0
  184.3850  178.4840  146.7440 C   0  0  0  0  0  2  0  0  0  0  0  0
  184.7750  177.0300  146.8870 C   0  0  0  0  0  1  0  0  0  0  0  0
  193.3080  173.5950  144.1270 C   0  0  1  0  0  3  0  0  0  0  0  0
  194.1390  174.6440  144.8560 C   0  0  0  0  0  2  0  0  0  0  0  0
  195.4410  174.7940  144.2100 N   0  0  0  0  0  2  0  0  0  0  0  0
  196.8630  176.6070  143.2890 C   0  0  0  0  0  2  0  0  0  0  0  0
  195.5240  175.6310  141.9730 O   0  0  0  0  0  0  0  0  0  0  0  0
  196.7940  176.2250  141.8330 C   0  0  0  0  0  2  0  0  0  0  0  0
  195.4920  175.9780  143.3350 C   0  0  1  0  0  3  0  0  0  0  0  0
  193.1630  172.4550  144.9270 O   0  0  0  0  0  0  0  0  0  0  0  0
  194.4670  172.0280  145.1870 C   0  0  2  0  0  3  0  0  0  0  0  0
  194.6840  170.6320  144.7420 C   0  0  1  0  0  0  0  0  0  0  0  0
  196.0080  170.2340  144.5640 O   0  0  0  0  0  1  0  0  0  0  0  0
  194.4280  170.9390  146.0850 O   0  0  0  0  0  0  0  0  0  0  0  0
  193.5830  169.7840  144.1260 C   0  0  0  0  0  2  0  0  0  0  0  0
  193.3910  168.5190  144.9380 C   0  0  0  0  0  1  0  0  0  0  0  0
  1 20  1  1  0  0  0
  1 15  1  0  0  0  0
  2 14  1  6  0  0  0
  2  5  1  0  0  0  0
  2  8  1  0  0  0  0
  3  9  1  0  0  0  0
  4  8  1  0  0  0  0
  5 11  1  0  0  0  0
  7  8  1  1  0  0  0
  7 11  1  0  0  0  0
  7 13  1  0  0  0  0
  8 12  1  0  0  0  0
 11 10  1  6  0  0  0
 11  3  1  0  0  0  0
 13  6  1  1  0  0  0
 13 16  1  0  0  0  0
 13  9  1  0  0  0  0
 15 33  1  0  0  0  0
 15 17  1  1  0  0  0
 16  6  1  1  0  0  0
 16  1  1  0  0  0  0
 16 15  1  0  0  0  0
 17 18  1  0  0  0  0
 20 19  1  6  0  0  0
 21 25  1  0  0  0  0
 21 20  1  0  0  0  0
 22 24  2  0  0  0  0
 22 27  1  0  0  0  0
 23 26  2  0  0  0  0
 23 29  1  0  0  0  0
 24 25  1  0  0  0  0
 25 28  2  0  0  0  0
 27 23  1  0  0  0  0
 28 26  1  0  0  0  0
 29 30  1  0  0  0  0
 30 31  1  0  0  0  0
 31 32  1  0  0  0  0
 33 34  1  1  0  0  0
 33 40  1  0  0  0  0
 35 34  1  0  0  0  0
 36 39  1  0  0  0  0
 37 39  1  0  0  0  0
 38 37  1  0  0  0  0
 38 36  1  0  0  0  0
 39 35  1  1  0  0  0
 41 40  1  6  0  0  0
 41 44  1  0  0  0  0
 42 43  1  6  0  0  0
 42 41  1  0  0  0  0
 42 44  1  0  0  0  0
 45 42  1  0  0  0  0
 45 46  1  0  0  0  0
M  END
>  <MODEL>
6

>  <REMARK>
 VINA RESULT:      -5.5      2.064      2.517
  Name = 
  14 active torsions:
  status: ('A' for Active; 'I' for Inactive)
    1  A    between atoms: C_1  and  C_5
    2  A    between atoms: C_2  and  C_31
    3  A    between atoms: C_3  and  C_45
    4  A    between atoms: C_4  and  O_19
    5  A    between atoms: O_6  and  C_23
    6  A    between atoms: O_6  and  C_31
    7  A    between atoms: O_7  and  C_44
    8  A    between atoms: C_9  and  C_11
    9  A    between atoms: C_9  and  N_18
   10  A    between atoms: C_11  and  O_19
   11  A    between atoms: C_11  and  C_44
   12  A    between atoms: N_18  and  C_40
   13  A    between atoms: C_30  and  C_42
   14  A    between atoms: C_42  and  C_45
                            x       y       z     vdW  Elec       q    Type
                         _______ _______ _______ _____ _____    ______ ____

>  <TORSDO>
F 14

$$$$
=
 OpenBabel11062422513D

 46 52  0  0  1  0  0  0  0  0999 V2000
  192.6660  173.9660  143.5810 C   0  0  1  0  0  3  0  0  0  0  0  0
  196.4960  168.9030  146.3900 C   0  0  2  0  0  3  0  0  0  0  0  0
  196.5310  170.2150  143.3060 C   0  0  0  0  0  2  0  0  0  0  0  0
  194.4050  169.6710  147.3130 F   0  0  0  0  0  0  0  0  0  0  0  0
  197.3720  169.4000  145.4010 O   0  0  0  0  0  0  0  0  0  0  0  0
  193.3750  172.5420  145.0570 C   0  0  0  0  0  2  0  0  0  0  0  0
  195.4040  170.7540  145.4470 C   0  0  1  0  0  3  0  0  0  0  0  0
  195.1090  169.4540  146.1390 C   0  0  0  0  0  0  0  0  0  0  0  0
  195.3700  171.0500  142.7970 C   0  0  0  0  0  2  0  0  0  0  0  0
  197.5480  171.6370  144.9310 O   0  0  0  0  0  1  0  0  0  0  0  0
  196.7440  170.5060  144.7890 C   0  0  2  0  0  0  0  0  0  0  0  0
  194.4170  168.5680  145.3310 F   0  0  0  0  0  0  0  0  0  0  0  0
  194.1960  171.1990  144.1660 P   0  0  1  0  0  4  0  0  0  0  0  0
  196.9640  169.2820  147.6500 O   0  0  0  0  0  1  0  0  0  0  0  0
  193.0220  173.0090  142.5010 C   0  0  2  0  0  0  0  0  0  0  0  0
  193.8870  173.0460  143.8150 C   0  0  2  0  0  0  0  0  0  0  0  0
  193.7220  173.5410  141.3940 O   0  0  0  0  0  0  0  0  0  0  0  0
  192.7870  173.9420  140.4270 C   0  0  0  0  0  1  0  0  0  0  0  0
  192.1920  176.1020  142.6300 O   0  0  0  0  0  1  0  0  0  0  0  0
  193.1500  175.3930  143.3550 C   0  0  1  0  0  3  0  0  0  0  0  0
  193.3820  176.0840  144.6880 C   0  0  0  0  0  2  0  0  0  0  0  0
  191.0850  175.7200  147.6290 C   0  0  0  0  0  3  0  0  0  0  0  0
  189.4560  177.3190  146.6810 C   0  0  0  0  0  0  0  0  0  0  0  0
  191.8450  175.3950  146.5790 C   0  0  0  0  0  3  0  0  0  0  0  0
  192.0920  176.2610  145.4060 C   0  0  0  0  0  0  0  0  0  0  0  0
  189.8370  177.3920  145.4030 C   0  0  0  0  0  3  0  0  0  0  0  0
  190.4460  177.0600  147.7790 C   0  0  0  0  0  2  0  0  0  0  0  0
  191.1910  177.1070  144.8850 C   0  0  0  0  0  3  0  0  0  0  0  0
  188.1090  177.5510  146.9790 O   0  0  0  0  0  0  0  0  0  0  0  0
  187.0430  177.1790  146.1090 C   0  0  0  0  0  2  0  0  0  0  0  0
  185.7180  177.1690  146.8540 C   0  0  0  0  0  2  0  0  0  0  0  0
  184.7060  178.0350  146.1390 C   0  0  0  0  0  1  0  0  0  0  0  0
  191.8850  171.9780  142.2050 C   0  0  1  0  0  3  0  0  0  0  0  0
  190.5220  172.4540  142.6950 C   0  0  0  0  0  2  0  0  0  0  0  0
  189.6770  172.8150  141.5590 N   0  0  0  0  0  2  0  0  0  0  0  0
  188.9510  174.6350  143.0810 C   0  0  0  0  0  2  0  0  0  0  0  0
  188.3990  174.7670  141.0420 O   0  0  0  0  0  0  0  0  0  0  0  0
  188.7090  175.7050  142.0470 C   0  0  0  0  0  2  0  0  0  0  0  0
  188.5730  173.7090  141.9520 C   0  0  1  0  0  3  0  0  0  0  0  0
  191.8130  171.6200  140.8540 O   0  0  0  0  0  0  0  0  0  0  0  0
  192.0450  170.2430  140.8330 C   0  0  2  0  0  3  0  0  0  0  0  0
  191.6280  169.6370  139.5470 C   0  0  1  0  0  0  0  0  0  0  0  0
  192.1690  168.3890  139.2430 O   0  0  0  0  0  1  0  0  0  0  0  0
  190.8150  169.5670  140.6860 O   0  0  0  0  0  0  0  0  0  0  0  0
  190.9850  170.4410  138.4290 C   0  0  0  0  0  2  0  0  0  0  0  0
  189.7790  169.7000  137.8880 C   0  0  0  0  0  1  0  0  0  0  0  0
  1 20  1  6  0  0  0
  1 16  1  0  0  0  0
  2 14  1  1  0  0  0
  3 11  1  0  0  0  0
  5  2  1  0  0  0  0
  7  8  1  6  0  0  0
  8  2  1  0  0  0  0
  8  4  1  0  0  0  0
  9  3  1  0  0  0  0
 11 10  1  1  0  0  0
 11  5  1  0  0  0  0
 11  7  1  0  0  0  0
 12  8  1  0  0  0  0
 13  9  1  6  0  0  0
 13  6  1  0  0  0  0
 13  7  1  0  0  0  0
 15 17  1  6  0  0  0
 15  1  1  0  0  0  0
 15 16  1  0  0  0  0
 16 13  1  0  0  0  0
 16  6  1  1  0  0  0
 18 17  1  0  0  0  0
 20 19  1  6  0  0  0
 20 21  1  0  0  0  0
 21 25  1  0  0  0  0
 22 27  1  0  0  0  0
 23 29  1  0  0  0  0
 23 27  1  0  0  0  0
 24 22  2  0  0  0  0
 25 24  1  0  0  0  0
 26 23  2  0  0  0  0
 28 26  1  0  0  0  0
 28 25  2  0  0  0  0
 30 31  1  0  0  0  0
 30 29  1  0  0  0  0
 32 31  1  0  0  0  0
 33 15  1  0  0  0  0
 33 34  1  6  0  0  0
 35 34  1  0  0  0  0
 37 39  1  0  0  0  0
 37 38  1  0  0  0  0
 38 36  1  0  0  0  0
 39 35  1  6  0  0  0
 39 36  1  0  0  0  0
 40 33  1  0  0  0  0
 41 40  1  6  0  0  0
 42 43  1  6  0  0  0
 42 44  1  0  0  0  0
 42 41  1  0  0  0  0
 44 41  1  0  0  0  0
 45 42  1  0  0  0  0
 46 45  1  0  0  0  0
M  END
>  <MODEL>
7

>  <REMARK>
 VINA RESULT:      -5.5      3.083      6.379
  Name = 
  14 active torsions:
  status: ('A' for Active; 'I' for Inactive)
    1  A    between atoms: C_1  and  C_5
    2  A    between atoms: C_2  and  C_31
    3  A    between atoms: C_3  and  C_45
    4  A    between atoms: C_4  and  O_19
    5  A    between atoms: O_6  and  C_23
    6  A    between atoms: O_6  and  C_31
    7  A    between atoms: O_7  and  C_44
    8  A    between atoms: C_9  and  C_11
    9  A    between atoms: C_9  and  N_18
   10  A    between atoms: C_11  and  O_19
   11  A    between atoms: C_11  and  C_44
   12  A    between atoms: N_18  and  C_40
   13  A    between atoms: C_30  and  C_42
   14  A    between atoms: C_42  and  C_45
                            x       y       z     vdW  Elec       q    Type
                         _______ _______ _______ _____ _____    ______ ____

>  <TORSDO>
F 14

$$$$
=
 OpenBabel11062422513D

 46 52  0  0  1  0  0  0  0  0999 V2000
  193.8830  174.8400  143.0910 C   0  0  1  0  0  3  0  0  0  0  0  0
  188.5790  172.9370  139.0360 C   0  0  2  0  0  3  0  0  0  0  0  0
  189.4620  171.9140  142.1030 C   0  0  0  0  0  2  0  0  0  0  0  0
  190.5460  174.0730  138.2260 F   0  0  0  0  0  0  0  0  0  0  0  0
  188.0530  172.6870  140.3210 O   0  0  0  0  0  0  0  0  0  0  0  0
  192.6000  174.7450  141.3440 C   0  0  0  0  0  2  0  0  0  0  0  0
  190.2070  173.6950  140.5480 C   0  0  1  0  0  3  0  0  0  0  0  0
  190.0730  173.1580  139.1520 C   0  0  0  0  0  0  0  0  0  0  0  0
  190.8520  172.1850  142.6490 C   0  0  0  0  0  2  0  0  0  0  0  0
  188.4500  174.0750  142.1020 O   0  0  0  0  0  1  0  0  0  0  0  0
  189.0110  173.1090  141.2670 C   0  0  2  0  0  0  0  0  0  0  0  0
  190.7160  171.9430  138.9870 F   0  0  0  0  0  0  0  0  0  0  0  0
  191.7200  173.1660  141.4000 P   0  0  1  0  0  4  0  0  0  0  0  0
  187.9500  174.0590  138.4920 O   0  0  0  0  0  1  0  0  0  0  0  0
  193.5670  173.4180  143.3880 C   0  0  2  0  0  0  0  0  0  0  0  0
  192.4760  174.3260  142.7100 C   0  0  2  0  0  0  0  0  0  0  0  0
  193.2400  173.1130  144.7290 O   0  0  0  0  0  0  0  0  0  0  0  0
  193.3600  171.7260  144.9120 C   0  0  0  0  0  1  0  0  0  0  0  0
  195.0270  176.2820  144.6090 O   0  0  0  0  0  1  0  0  0  0  0  0
  193.7670  175.7820  144.2830 C   0  0  1  0  0  3  0  0  0  0  0  0
  192.8410  176.9390  143.9460 C   0  0  0  0  0  2  0  0  0  0  0  0
  190.9590  176.2220  147.1080 C   0  0  0  0  0  3  0  0  0  0  0  0
  188.9560  177.4310  146.3090 C   0  0  0  0  0  0  0  0  0  0  0  0
  191.6640  176.0210  145.9920 C   0  0  0  0  0  3  0  0  0  0  0  0
  191.6170  176.8780  144.7880 C   0  0  0  0  0  0  0  0  0  0  0  0
  189.1900  177.5360  144.9980 C   0  0  0  0  0  3  0  0  0  0  0  0
  190.0790  177.4110  147.3040 C   0  0  0  0  0  2  0  0  0  0  0  0
  190.5180  177.5100  144.3490 C   0  0  0  0  0  3  0  0  0  0  0  0
  187.6250  177.3990  146.7380 O   0  0  0  0  0  0  0  0  0  0  0  0
  186.5240  177.7090  145.8880 C   0  0  0  0  0  2  0  0  0  0  0  0
  185.2250  177.1850  146.4760 C   0  0  0  0  0  2  0  0  0  0  0  0
  184.2870  178.3310  146.7820 C   0  0  0  0  0  1  0  0  0  0  0  0
  194.5000  172.4190  142.6300 C   0  0  1  0  0  3  0  0  0  0  0  0
  195.9760  172.6610  142.9190 C   0  0  0  0  0  2  0  0  0  0  0  0
  196.6510  173.1500  141.7190 N   0  0  0  0  0  2  0  0  0  0  0  0
  197.9070  175.2720  141.4440 C   0  0  0  0  0  2  0  0  0  0  0  0
  197.8900  174.3700  143.3590 O   0  0  0  0  0  0  0  0  0  0  0  0
  197.9410  175.6980  142.8890 C   0  0  0  0  0  2  0  0  0  0  0  0
  197.8870  173.8860  142.0390 C   0  0  1  0  0  3  0  0  0  0  0  0
  194.1740  171.0790  142.8740 O   0  0  0  0  0  0  0  0  0  0  0  0
  194.4720  170.4130  141.6840 C   0  0  2  0  0  3  0  0  0  0  0  0
  193.5600  169.2690  141.4530 C   0  0  1  0  0  0  0  0  0  0  0  0
  193.4780  168.7910  140.1460 O   0  0  0  0  0  1  0  0  0  0  0  0
  194.8460  169.0840  141.9770 O   0  0  0  0  0  0  0  0  0  0  0  0
  192.4740  168.8710  142.4400 C   0  0  0  0  0  2  0  0  0  0  0  0
  191.1910  168.5580  141.6980 C   0  0  0  0  0  1  0  0  0  0  0  0
  1 15  1  0  0  0  0
  1 20  1  1  0  0  0
  2 14  1  1  0  0  0
  2  8  1  0  0  0  0
  2  5  1  0  0  0  0
  3  9  1  0  0  0  0
  4  8  1  0  0  0  0
  5 11  1  0  0  0  0
  7  8  1  6  0  0  0
  7 11  1  0  0  0  0
  7 13  1  0  0  0  0
 11 10  1  1  0  0  0
 11  3  1  0  0  0  0
 12  8  1  0  0  0  0
 13  6  1  6  0  0  0
 13  9  1  0  0  0  0
 13 16  1  0  0  0  0
 15 17  1  1  0  0  0
 16  6  1  6  0  0  0
 16  1  1  0  0  0  0
 16 15  1  0  0  0  0
 17 18  1  0  0  0  0
 20 19  1  6  0  0  0
 21 20  1  0  0  0  0
 21 25  1  0  0  0  0
 22 27  1  0  0  0  0
 23 29  1  0  0  0  0
 23 27  1  0  0  0  0
 24 22  2  0  0  0  0
 25 24  1  0  0  0  0
 26 23  2  0  0  0  0
 28 25  2  0  0  0  0
 28 26  1  0  0  0  0
 30 31  1  0  0  0  0
 30 29  1  0  0  0  0
 31 32  1  0  0  0  0
 33 40  1  0  0  0  0
 33 34  1  1  0  0  0
 33 15  1  0  0  0  0
 35 34  1  0  0  0  0
 36 39  1  0  0  0  0
 36 38  1  0  0  0  0
 38 37  1  0  0  0  0
 39 35  1  6  0  0  0
 39 37  1  0  0  0  0
 41 44  1  0  0  0  0
 41 40  1  1  0  0  0
 42 43  1  6  0  0  0
 42 41  1  0  0  0  0
 42 44  1  0  0  0  0
 42 45  1  0  0  0  0
 46 45  1  0  0  0  0
M  END
>  <MODEL>
8

>  <REMARK>
 VINA RESULT:      -5.4      1.690      2.383
  Name = 
  14 active torsions:
  status: ('A' for Active; 'I' for Inactive)
    1  A    between atoms: C_1  and  C_5
    2  A    between atoms: C_2  and  C_31
    3  A    between atoms: C_3  and  C_45
    4  A    between atoms: C_4  and  O_19
    5  A    between atoms: O_6  and  C_23
    6  A    between atoms: O_6  and  C_31
    7  A    between atoms: O_7  and  C_44
    8  A    between atoms: C_9  and  C_11
    9  A    between atoms: C_9  and  N_18
   10  A    between atoms: C_11  and  O_19
   11  A    between atoms: C_11  and  C_44
   12  A    between atoms: N_18  and  C_40
   13  A    between atoms: C_30  and  C_42
   14  A    between atoms: C_42  and  C_45
                            x       y       z     vdW  Elec       q    Type
                         _______ _______ _______ _____ _____    ______ ____

>  <TORSDO>
F 14

$$$$
=
 OpenBabel11062422513D

 46 52  0  0  1  0  0  0  0  0999 V2000
  191.2690  174.4580  142.0790 C   0  0  1  0  0  3  0  0  0  0  0  0
  191.9190  170.1680  136.6600 C   0  0  2  0  0  3  0  0  0  0  0  0
  191.1100  169.5490  139.8530 C   0  0  0  0  0  2  0  0  0  0  0  0
  192.8490  172.3910  136.7280 F   0  0  0  0  0  0  0  0  0  0  0  0
  190.9860  169.4720  137.4570 O   0  0  0  0  0  0  0  0  0  0  0  0
  191.6870  173.7990  140.0540 C   0  0  0  0  0  2  0  0  0  0  0  0
  191.4570  171.5800  138.4760 C   0  0  1  0  0  3  0  0  0  0  0  0
  192.5430  171.2730  137.4860 C   0  0  0  0  0  0  0  0  0  0  0  0
  191.3860  170.5690  140.9420 C   0  0  0  0  0  2  0  0  0  0  0  0
  189.3250  170.5420  138.6200 O   0  0  0  0  0  1  0  0  0  0  0  0
  190.6930  170.2770  138.5780 C   0  0  2  0  0  0  0  0  0  0  0  0
  193.6890  170.7840  138.0900 F   0  0  0  0  0  0  0  0  0  0  0  0
  192.0680  172.0320  140.1250 P   0  0  1  0  0  4  0  0  0  0  0  0
  191.2680  170.6890  135.5390 O   0  0  0  0  0  1  0  0  0  0  0  0
  191.7230  173.1390  142.5920 C   0  0  2  0  0  0  0  0  0  0  0  0
  191.0210  173.2210  141.1850 C   0  0  2  0  0  0  0  0  0  0  0  0
  190.8960  172.5210  143.5580 O   0  0  0  0  0  0  0  0  0  0  0  0
  191.2250  173.0370  144.8210 C   0  0  0  0  0  1  0  0  0  0  0  0
  190.1670  175.9640  143.5660 O   0  0  0  0  0  1  0  0  0  0  0  0
  189.9400  174.9410  142.6460 C   0  0  1  0  0  3  0  0  0  0  0  0
  189.0520  175.4610  141.5280 C   0  0  0  0  0  2  0  0  0  0  0  0
  187.1290  178.6650  141.8360 C   0  0  0  0  0  3  0  0  0  0  0  0
  185.3120  177.5690  143.1060 C   0  0  0  0  0  0  0  0  0  0  0  0
  188.1340  177.7900  141.9180 C   0  0  0  0  0  3  0  0  0  0  0  0
  187.9800  176.3280  142.0850 C   0  0  0  0  0  0  0  0  0  0  0  0
  185.8790  176.4180  143.4790 C   0  0  0  0  0  3  0  0  0  0  0  0
  185.6960  178.2500  141.8240 C   0  0  0  0  0  2  0  0  0  0  0  0
  187.0040  175.7450  142.7980 C   0  0  0  0  0  3  0  0  0  0  0  0
  184.3040  178.0980  143.9180 O   0  0  0  0  0  0  0  0  0  0  0  0
  184.4300  179.3370  144.6110 C   0  0  0  0  0  2  0  0  0  0  0  0
  185.5580  179.2730  145.6280 C   0  0  0  0  0  2  0  0  0  0  0  0
  185.0740  178.6330  146.9100 C   0  0  0  0  0  1  0  0  0  0  0  0
  193.2680  173.0770  142.8200 C   0  0  1  0  0  3  0  0  0  0  0  0
  193.8930  174.4580  142.9720 C   0  0  0  0  0  2  0  0  0  0  0  0
  194.2960  174.6790  144.3590 N   0  0  0  0  0  2  0  0  0  0  0  0
  193.6440  175.8740  146.4330 C   0  0  0  0  0  2  0  0  0  0  0  0
  194.5670  176.9930  144.8920 O   0  0  0  0  0  0  0  0  0  0  0  0
  194.5570  177.0650  146.3000 C   0  0  0  0  0  2  0  0  0  0  0  0
  193.6880  175.8960  144.9250 C   0  0  1  0  0  3  0  0  0  0  0  0
  193.6250  172.2650  143.9040 O   0  0  0  0  0  0  0  0  0  0  0  0
  194.3560  171.2160  143.3420 C   0  0  2  0  0  3  0  0  0  0  0  0
  195.3390  170.6590  144.2990 C   0  0  1  0  0  0  0  0  0  0  0  0
  195.8250  169.3820  144.0220 O   0  0  0  0  0  1  0  0  0  0  0  0
  195.7220  171.5690  143.3050 O   0  0  0  0  0  0  0  0  0  0  0  0
  195.5330  171.2200  145.6990 C   0  0  0  0  0  2  0  0  0  0  0  0
  196.8240  172.0110  145.7640 C   0  0  0  0  0  1  0  0  0  0  0  0
  1 15  1  0  0  0  0
  1 20  1  1  0  0  0
  2 14  1  6  0  0  0
  2  5  1  0  0  0  0
  2  8  1  0  0  0  0
  3  9  1  0  0  0  0
  4  8  1  0  0  0  0
  5 11  1  0  0  0  0
  7  8  1  6  0  0  0
  7 11  1  0  0  0  0
  7 13  1  0  0  0  0
  8 12  1  0  0  0  0
 11 10  1  1  0  0  0
 11  3  1  0  0  0  0
 13  6  1  1  0  0  0
 13  9  1  0  0  0  0
 13 16  1  0  0  0  0
 15 33  1  0  0  0  0
 15 17  1  1  0  0  0
 16  6  1  6  0  0  0
 16  1  1  0  0  0  0
 16 15  1  0  0  0  0
 17 18  1  0  0  0  0
 20 19  1  1  0  0  0
 21 25  1  0  0  0  0
 21 20  1  0  0  0  0
 22 24  2  0  0  0  0
 23 26  2  0  0  0  0
 23 29  1  0  0  0  0
 24 25  1  0  0  0  0
 25 28  2  0  0  0  0
 27 22  1  0  0  0  0
 27 23  1  0  0  0  0
 28 26  1  0  0  0  0
 29 30  1  0  0  0  0
 30 31  1  0  0  0  0
 31 32  1  0  0  0  0
 33 34  1  1  0  0  0
 33 40  1  0  0  0  0
 34 35  1  0  0  0  0
 37 39  1  0  0  0  0
 37 38  1  0  0  0  0
 38 36  1  0  0  0  0
 39 35  1  1  0  0  0
 39 36  1  0  0  0  0
 41 40  1  1  0  0  0
 41 42  1  0  0  0  0
 42 43  1  6  0  0  0
 42 45  1  0  0  0  0
 44 41  1  0  0  0  0
 44 42  1  0  0  0  0
 45 46  1  0  0  0  0
M  END
>  <MODEL>
9

>  <REMARK>
 VINA RESULT:      -5.4      2.551      3.496
  Name = 
  14 active torsions:
  status: ('A' for Active; 'I' for Inactive)
    1  A    between atoms: C_1  and  C_5
    2  A    between atoms: C_2  and  C_31
    3  A    between atoms: C_3  and  C_45
    4  A    between atoms: C_4  and  O_19
    5  A    between atoms: O_6  and  C_23
    6  A    between atoms: O_6  and  C_31
    7  A    between atoms: O_7  and  C_44
    8  A    between atoms: C_9  and  C_11
    9  A    between atoms: C_9  and  N_18
   10  A    between atoms: C_11  and  O_19
   11  A    between atoms: C_11  and  C_44
   12  A    between atoms: N_18  and  C_40
   13  A    between atoms: C_30  and  C_42
   14  A    between atoms: C_42  and  C_45
                            x       y       z     vdW  Elec       q    Type
                         _______ _______ _______ _____ _____    ______ ____

>  <TORSDO>
F 14

$$$$
