=
 OpenBabel11062420503D

 50 56  0  0  1  0  0  0  0  0999 V2000
  190.6600  170.1030  141.8190 N   0  0  0  0  0  0  0  0  0  0  0  0
  191.0830  172.2430  141.5540 C   0  0  0  0  0  0  0  0  0  0  0  0
  190.3070  171.2600  142.2160 N   0  0  0  0  0  2  0  0  0  0  0  0
  191.7380  170.1800  140.8370 C   0  0  0  0  0  3  0  0  0  0  0  0
  191.9400  171.6540  140.7420 C   0  0  0  0  0  0  0  0  0  0  0  0
  187.5680  176.1900  140.8000 C   0  0  0  0  0  3  0  0  0  0  0  0
  190.9840  173.9190  143.3620 C   0  0  0  0  0  2  0  0  0  0  0  0
  188.5560  176.2990  141.9220 C   0  0  1  0  0  3  0  0  0  0  0  0
  188.7310  176.0610  145.0850 C   0  0  2  0  0  3  0  0  0  0  0  0
  184.4100  178.8300  142.0660 C   0  0  0  0  0  1  0  0  0  0  0  0
  185.8460  179.0470  143.9470 O   0  0  0  0  0  0  0  0  0  0  0  0
  189.9900  175.0270  143.5480 C   0  0  2  0  0  3  0  0  0  0  0  0
  187.8030  177.1220  143.0020 C   0  0  1  0  0  3  0  0  0  0  0  0
  186.5730  177.5200  142.3350 N   0  0  0  0  0  0  0  0  0  0  0  0
  186.4880  176.9020  141.0610 C   0  0  0  0  0  3  0  0  0  0  0  0
  187.4640  176.3670  144.2910 C   0  0  0  0  0  2  0  0  0  0  0  0
  189.2490  174.8060  144.7130 O   0  0  0  0  0  0  0  0  0  0  0  0
  189.8700  174.3310  141.2540 N   0  0  0  0  0  2  0  0  0  0  0  0
  191.0430  173.7060  141.8640 C   0  0  2  0  0  3  0  0  0  0  0  0
  185.6370  178.4810  142.8410 C   0  0  0  0  0  0  0  0  0  0  0  0
  189.0870  174.9200  142.3360 C   0  0  2  0  0  3  0  0  0  0  0  0
  188.4510  176.1130  146.5240 N   0  0  0  0  0  0  0  0  0  0  0  0
  188.3100  177.5160  146.8910 C   0  0  0  0  0  2  0  0  0  0  0  0
  186.2420  176.6040  147.6640 O   0  0  0  0  0  1  0  0  0  0  0  0
  186.8900  177.7990  147.3430 C   0  0  0  0  0  2  0  0  0  0  0  0
  189.5240  175.6210  147.1990 O   0  0  0  0  0  0  0  0  0  0  0  0
  191.4560  176.4600  148.2960 C   0  0  0  0  0  2  0  0  0  0  0  0
  190.4790  176.6420  147.1510 C   0  0  0  0  0  3  0  0  0  0  0  0
  191.8410  176.0300  146.8970 C   0  0  0  0  0  2  0  0  0  0  0  0
  192.9550  172.3250  139.9860 N   0  0  0  0  0  2  0  0  0  0  0  0
  194.2560  171.7280  139.7290 C   0  0  0  0  0  2  0  0  0  0  0  0
  195.0590  171.6750  141.0210 C   0  0  0  0  0  2  0  0  0  0  0  0
  196.8220  173.7920  140.4160 O   0  0  0  0  0  0  0  0  0  0  0  0
  195.0450  172.9720  141.6870 N   0  0  0  0  0  0  0  0  0  0  0  0
  195.8220  174.0520  141.1450 C   0  0  0  0  0  0  0  0  0  0  0  0
  195.4760  175.4690  141.3880 C   0  0  0  0  0  0  0  0  0  0  0  0
  194.2640  175.8190  141.3590 O   0  0  0  0  0  0  0  0  0  0  0  0
  196.5230  176.5060  141.6930 C   0  0  2  0  0  3  0  0  0  0  0  0
  197.5590  175.9340  142.4570 O   0  0  0  0  0  0  0  0  0  0  0  0
  196.7300  176.8420  143.1420 C   0  0  2  0  0  3  0  0  0  0  0  0
  194.7090  176.4650  144.3520 O   0  0  0  0  0  0  0  0  0  0  0  0
  196.4060  174.9200  144.8420 C   0  0  0  0  0  1  0  0  0  0  0  0
  195.8620  176.1150  144.1390 C   0  0  0  0  0  0  0  0  0  0  0  0
  194.4430  173.0810  143.0130 C   0  0  0  0  0  2  0  0  0  0  0  0
  194.1200  171.8100  143.4980 O   0  0  0  0  0  0  0  0  0  0  0  0
  193.8680  172.0050  144.8580 C   0  0  0  0  0  2  0  0  0  0  0  0
  194.4750  170.8700  145.6720 C   0  0  0  0  0  2  0  0  0  0  0  0
  196.6890  170.0550  146.3960 C   0  0  0  0  0  2  0  0  0  0  0  0
  196.8480  171.4950  145.9670 C   0  0  0  0  0  2  0  0  0  0  0  0
  195.8960  170.5890  145.2220 C   0  0  0  0  0  3  0  0  0  0  0  0
  1  3  1  0  0  0  0
  2  3  1  0  0  0  0
  4  1  2  0  0  0  0
  5  4  1  0  0  0  0
  5  2  2  0  0  0  0
  6 15  2  0  0  0  0
  8  6  1  6  0  0  0
  8 21  1  0  0  0  0
  8 13  1  0  0  0  0
  9 22  1  1  0  0  0
 10 20  1  0  0  0  0
 12  7  1  6  0  0  0
 12 17  1  0  0  0  0
 13 16  1  1  0  0  0
 14 20  1  0  0  0  0
 14 13  1  0  0  0  0
 15 14  1  0  0  0  0
 16  9  1  0  0  0  0
 17  9  1  0  0  0  0
 18 19  1  0  0  0  0
 19  2  1  1  0  0  0
 19  7  1  0  0  0  0
 20 11  2  0  0  0  0
 21 18  1  6  0  0  0
 21 12  1  0  0  0  0
 22 23  1  0  0  0  0
 22 26  1  0  0  0  0
 23 25  1  0  0  0  0
 25 24  1  0  0  0  0
 28 26  1  0  0  0  0
 28 27  1  0  0  0  0
 29 28  1  0  0  0  0
 29 27  1  0  0  0  0
 30  5  1  0  0  0  0
 31 30  1  0  0  0  0
 31 32  1  0  0  0  0
 32 34  1  0  0  0  0
 33 35  2  0  0  0  0
 34 44  1  0  0  0  0
 35 36  1  0  0  0  0
 35 34  1  0  0  0  0
 37 36  2  0  0  0  0
 38 36  1  1  0  0  0
 38 39  1  0  0  0  0
 38 40  1  0  0  0  0
 39 40  1  0  0  0  0
 40 43  1  1  0  0  0
 43 41  2  0  0  0  0
 43 42  1  0  0  0  0
 44 45  1  0  0  0  0
 45 46  1  0  0  0  0
 46 47  1  0  0  0  0
 49 48  1  0  0  0  0
 50 47  1  0  0  0  0
 50 49  1  0  0  0  0
 50 48  1  0  0  0  0
M  END
>  <MODEL>
1

>  <REMARK>
 VINA RESULT:      -6.1      0.000      0.000
  Name = 
  18 active torsions:
  status: ('A' for Active; 'I' for Inactive)
    1  A    between atoms: C_1  and  C_37
    2  A    between atoms: C_1  and  O_42
    3  A    between atoms: C_9  and  C_44
    4  A    between atoms: C_12  and  N_17
    5  A    between atoms: N_13  and  C_18
    6  A    between atoms: N_13  and  C_49
    7  A    between atoms: C_14  and  C_27
    8  A    between atoms: C_15  and  C_24
    9  A    between atoms: O_16  and  N_17
   10  A    between atoms: O_16  and  C_20
   11  A    between atoms: N_17  and  C_27
   12  A    between atoms: C_18  and  O_42
   13  A    between atoms: C_24  and  C_43
   14  A    between atoms: C_28  and  C_35
   15  A    between atoms: C_33  and  N_45
   16  A    between atoms: C_36  and  C_37
   17  A    between atoms: N_45  and  C_47
   18  A    between atoms: C_47  and  C_49
                            x       y       z     vdW  Elec       q    Type
                         _______ _______ _______ _____ _____    ______ ____

>  <TORSDO>
F 18

$$$$
=
 OpenBabel11062420503D

 50 56  0  0  1  0  0  0  0  0999 V2000
  190.4800  173.7970  137.1800 N   0  0  0  0  0  0  0  0  0  0  0  0
  190.3100  173.4090  139.3360 C   0  0  0  0  0  0  0  0  0  0  0  0
  189.6640  173.8540  138.1550 N   0  0  0  0  0  2  0  0  0  0  0  0
  191.7820  173.2890  137.6000 C   0  0  0  0  0  3  0  0  0  0  0  0
  191.5510  173.0600  139.0540 C   0  0  0  0  0  0  0  0  0  0  0  0
  191.4090  174.6460  144.4120 C   0  0  0  0  0  3  0  0  0  0  0  0
  188.3580  174.0330  140.7110 C   0  0  0  0  0  2  0  0  0  0  0  0
  189.9800  174.4690  143.9990 C   0  0  1  0  0  3  0  0  0  0  0  0
  187.3660  176.1650  143.3760 C   0  0  2  0  0  3  0  0  0  0  0  0
  191.0760  177.0920  147.9400 C   0  0  0  0  0  1  0  0  0  0  0  0
  188.7730  176.9600  147.3660 O   0  0  0  0  0  0  0  0  0  0  0  0
  188.3430  174.6070  142.0960 C   0  0  2  0  0  3  0  0  0  0  0  0
  189.2010  175.4340  144.9340 C   0  0  1  0  0  3  0  0  0  0  0  0
  190.2180  175.9130  145.8560 N   0  0  0  0  0  0  0  0  0  0  0  0
  191.4950  175.4390  145.4630 C   0  0  0  0  0  3  0  0  0  0  0  0
  188.5330  176.6270  144.2440 C   0  0  0  0  0  2  0  0  0  0  0  0
  187.8080  175.8990  142.0660 O   0  0  0  0  0  0  0  0  0  0  0  0
  190.5000  173.6130  141.7540 N   0  0  0  0  0  2  0  0  0  0  0  0
  189.6270  173.2100  140.6530 C   0  0  2  0  0  3  0  0  0  0  0  0
  189.9570  176.6610  147.0510 C   0  0  0  0  0  0  0  0  0  0  0  0
  189.8050  174.6670  142.4870 C   0  0  2  0  0  3  0  0  0  0  0  0
  186.3010  177.1730  143.3820 N   0  0  0  0  0  0  0  0  0  0  0  0
  186.5670  178.0960  142.2860 C   0  0  0  0  0  2  0  0  0  0  0  0
  184.1950  177.8680  142.1200 O   0  0  0  0  0  1  0  0  0  0  0  0
  185.3380  178.2340  141.4070 C   0  0  0  0  0  2  0  0  0  0  0  0
  186.3750  177.8830  144.5390 O   0  0  0  0  0  0  0  0  0  0  0  0
  185.3520  178.1050  146.6700 C   0  0  0  0  0  2  0  0  0  0  0  0
  185.3390  177.3870  145.3360 C   0  0  0  0  0  3  0  0  0  0  0  0
  184.3490  178.5000  145.6070 C   0  0  0  0  0  2  0  0  0  0  0  0
  192.4700  172.4670  139.9790 N   0  0  0  0  0  2  0  0  0  0  0  0
  193.7690  173.0550  140.2680 C   0  0  0  0  0  2  0  0  0  0  0  0
  194.7250  171.9720  140.7460 C   0  0  0  0  0  2  0  0  0  0  0  0
  197.2500  173.1250  140.2450 O   0  0  0  0  0  0  0  0  0  0  0  0
  195.6120  172.4910  141.7810 N   0  0  0  0  0  0  0  0  0  0  0  0
  196.7610  173.2650  141.4030 C   0  0  0  0  0  0  0  0  0  0  0  0
  197.3790  174.2510  142.3160 C   0  0  0  0  0  0  0  0  0  0  0  0
  197.8350  173.8610  143.4250 O   0  0  0  0  0  0  0  0  0  0  0  0
  197.5050  175.7060  141.9520 C   0  0  2  0  0  3  0  0  0  0  0  0
  197.6050  176.4880  143.1200 O   0  0  0  0  0  0  0  0  0  0  0  0
  196.3960  176.6090  142.4100 C   0  0  2  0  0  3  0  0  0  0  0  0
  194.2800  175.5250  142.6020 O   0  0  0  0  0  0  0  0  0  0  0  0
  195.3810  175.8190  144.6540 C   0  0  0  0  0  1  0  0  0  0  0  0
  195.2680  175.9640  143.1760 C   0  0  0  0  0  0  0  0  0  0  0  0
  195.4550  172.0140  143.1520 C   0  0  0  0  0  2  0  0  0  0  0  0
  194.2850  172.5380  143.7110 O   0  0  0  0  0  0  0  0  0  0  0  0
  193.6670  171.4460  144.3250 C   0  0  0  0  0  2  0  0  0  0  0  0
  194.4280  171.0540  145.5840 C   0  0  0  0  0  2  0  0  0  0  0  0
  195.1410  169.1940  147.0430 C   0  0  0  0  0  2  0  0  0  0  0  0
  195.9690  169.1310  145.7810 C   0  0  0  0  0  2  0  0  0  0  0  0
  194.5180  169.5440  145.7070 C   0  0  0  0  0  3  0  0  0  0  0  0
  1  4  2  0  0  0  0
  1  3  1  0  0  0  0
  3  2  1  0  0  0  0
  4  5  1  0  0  0  0
  5  2  2  0  0  0  0
  5 30  1  0  0  0  0
  6 15  2  0  0  0  0
  8  6  1  6  0  0  0
  8 13  1  0  0  0  0
  9 22  1  6  0  0  0
  9 16  1  0  0  0  0
 12  7  1  6  0  0  0
 12 21  1  0  0  0  0
 13 16  1  6  0  0  0
 13 14  1  0  0  0  0
 14 20  1  0  0  0  0
 15 14  1  0  0  0  0
 17 12  1  0  0  0  0
 17  9  1  0  0  0  0
 19  2  1  6  0  0  0
 19  7  1  0  0  0  0
 19 18  1  0  0  0  0
 20 11  2  0  0  0  0
 20 10  1  0  0  0  0
 21 18  1  6  0  0  0
 21  8  1  0  0  0  0
 22 26  1  0  0  0  0
 23 22  1  0  0  0  0
 25 24  1  0  0  0  0
 25 23  1  0  0  0  0
 26 28  1  0  0  0  0
 28 29  1  0  0  0  0
 28 27  1  0  0  0  0
 29 27  1  0  0  0  0
 30 31  1  0  0  0  0
 31 32  1  0  0  0  0
 32 34  1  0  0  0  0
 33 35  2  0  0  0  0
 34 44  1  0  0  0  0
 35 34  1  0  0  0  0
 35 36  1  0  0  0  0
 36 37  2  0  0  0  0
 38 36  1  1  0  0  0
 38 40  1  0  0  0  0
 38 39  1  0  0  0  0
 40 39  1  0  0  0  0
 40 43  1  1  0  0  0
 41 43  2  0  0  0  0
 43 42  1  0  0  0  0
 44 45  1  0  0  0  0
 45 46  1  0  0  0  0
 46 47  1  0  0  0  0
 47 50  1  0  0  0  0
 49 48  1  0  0  0  0
 50 49  1  0  0  0  0
 50 48  1  0  0  0  0
M  END
>  <MODEL>
2

>  <REMARK>
 VINA RESULT:      -5.9      1.730      3.832
  Name = 
  18 active torsions:
  status: ('A' for Active; 'I' for Inactive)
    1  A    between atoms: C_1  and  C_37
    2  A    between atoms: C_1  and  O_42
    3  A    between atoms: C_9  and  C_44
    4  A    between atoms: C_12  and  N_17
    5  A    between atoms: N_13  and  C_18
    6  A    between atoms: N_13  and  C_49
    7  A    between atoms: C_14  and  C_27
    8  A    between atoms: C_15  and  C_24
    9  A    between atoms: O_16  and  N_17
   10  A    between atoms: O_16  and  C_20
   11  A    between atoms: N_17  and  C_27
   12  A    between atoms: C_18  and  O_42
   13  A    between atoms: C_24  and  C_43
   14  A    between atoms: C_28  and  C_35
   15  A    between atoms: C_33  and  N_45
   16  A    between atoms: C_36  and  C_37
   17  A    between atoms: N_45  and  C_47
   18  A    between atoms: C_47  and  C_49
                            x       y       z     vdW  Elec       q    Type
                         _______ _______ _______ _____ _____    ______ ____

>  <TORSDO>
F 18

$$$$
=
 OpenBabel11062420503D

 50 56  0  0  1  0  0  0  0  0999 V2000
  190.6110  170.5590  141.0070 N   0  0  0  0  0  0  0  0  0  0  0  0
  191.3130  172.5830  141.4960 C   0  0  0  0  0  0  0  0  0  0  0  0
  190.2160  171.7630  141.1300 N   0  0  0  0  0  0  0  0  0  0  0  0
  192.0370  170.4310  141.2910 C   0  0  0  0  0  2  0  0  0  0  0  0
  192.3990  171.8420  141.6090 C   0  0  0  0  0  0  0  0  0  0  0  0
  187.5970  176.3740  140.9260 C   0  0  0  0  0  3  0  0  0  0  0  0
  191.1540  174.1870  143.3650 C   0  0  0  0  0  2  0  0  0  0  0  0
  188.5940  176.4930  142.0400 C   0  0  1  0  0  3  0  0  0  0  0  0
  188.8220  176.1500  145.1900 C   0  0  2  0  0  3  0  0  0  0  0  0
  184.3300  178.8070  142.3230 C   0  0  0  0  0  1  0  0  0  0  0  0
  185.7780  179.0280  144.1940 O   0  0  0  0  0  0  0  0  0  0  0  0
  190.1100  175.2360  143.6020 C   0  0  2  0  0  3  0  0  0  0  0  0
  187.8150  177.2380  143.1580 C   0  0  1  0  0  3  0  0  0  0  0  0
  186.5590  177.5970  142.5190 N   0  0  0  0  0  0  0  0  0  0  0  0
  186.4870  177.0220  141.2250 C   0  0  0  0  0  3  0  0  0  0  0  0
  187.5310  176.4210  144.4220 C   0  0  0  0  0  2  0  0  0  0  0  0
  189.3960  174.9370  144.7660 O   0  0  0  0  0  0  0  0  0  0  0  0
  189.9940  174.6180  141.2860 N   0  0  0  0  0  2  0  0  0  0  0  0
  191.2040  174.0310  141.8600 C   0  0  2  0  0  3  0  0  0  0  0  0
  185.5830  178.4920  143.0700 C   0  0  0  0  0  0  0  0  0  0  0  0
  189.1970  175.1280  142.3980 C   0  0  2  0  0  3  0  0  0  0  0  0
  188.5580  176.1370  146.6330 N   0  0  0  0  0  0  0  0  0  0  0  0
  187.1510  176.4660  146.8230 C   0  0  0  0  0  2  0  0  0  0  0  0
  186.1210  177.9580  148.3780 O   0  0  0  0  0  1  0  0  0  0  0  0
  187.0090  177.8980  147.3030 C   0  0  0  0  0  2  0  0  0  0  0  0
  189.2890  177.1200  147.2220 O   0  0  0  0  0  0  0  0  0  0  0  0
  191.4040  177.0560  148.2990 C   0  0  0  0  0  2  0  0  0  0  0  0
  190.6220  176.7390  147.0400 C   0  0  0  0  0  3  0  0  0  0  0  0
  190.9580  175.6360  148.0230 C   0  0  0  0  0  2  0  0  0  0  0  0
  193.6730  172.3120  142.0620 N   0  0  0  0  0  2  0  0  0  0  0  0
  194.1930  171.9950  143.3830 C   0  0  0  0  0  2  0  0  0  0  0  0
  195.6390  171.5360  143.2680 C   0  0  0  0  0  2  0  0  0  0  0  0
  196.9360  171.8020  140.7780 O   0  0  0  0  0  0  0  0  0  0  0  0
  196.5050  172.6530  142.9070 N   0  0  0  0  0  0  0  0  0  0  0  0
  196.9220  172.8100  141.5420 C   0  0  0  0  0  0  0  0  0  0  0  0
  197.3110  174.1230  140.9850 C   0  0  0  0  0  0  0  0  0  0  0  0
  197.1410  175.1620  141.6810 O   0  0  0  0  0  0  0  0  0  0  0  0
  197.9280  174.2600  139.6190 C   0  0  2  0  0  3  0  0  0  0  0  0
  197.6270  175.5260  139.0790 O   0  0  0  0  0  0  0  0  0  0  0  0
  196.9780  174.4370  138.4700 C   0  0  2  0  0  3  0  0  0  0  0  0
  194.9590  175.4540  139.2330 O   0  0  0  0  0  0  0  0  0  0  0  0
  194.6960  173.2240  138.5520 C   0  0  0  0  0  1  0  0  0  0  0  0
  195.5060  174.4480  138.8010 C   0  0  0  0  0  0  0  0  0  0  0  0
  197.1230  173.4410  143.9700 C   0  0  0  0  0  2  0  0  0  0  0  0
  196.9550  172.8000  145.2010 O   0  0  0  0  0  0  0  0  0  0  0  0
  196.6180  173.8250  146.0890 C   0  0  0  0  0  2  0  0  0  0  0  0
  195.8450  174.9160  145.3610 C   0  0  0  0  0  2  0  0  0  0  0  0
  193.6530  176.0410  145.2010 C   0  0  0  0  0  2  0  0  0  0  0  0
  194.4720  176.7760  146.2360 C   0  0  0  0  0  2  0  0  0  0  0  0
  194.5810  175.2740  146.1200 C   0  0  0  0  0  3  0  0  0  0  0  0
  1  3  2  0  0  0  0
  1  4  1  0  0  0  0
  2  5  2  0  0  0  0
  3  2  1  0  0  0  0
  4  5  1  0  0  0  0
  5 30  1  0  0  0  0
  6 15  2  0  0  0  0
  8  6  1  6  0  0  0
  8 21  1  0  0  0  0
  8 13  1  0  0  0  0
  9 22  1  1  0  0  0
 10 20  1  0  0  0  0
 12  7  1  6  0  0  0
 12 17  1  0  0  0  0
 13 16  1  1  0  0  0
 14 20  1  0  0  0  0
 14 13  1  0  0  0  0
 15 14  1  0  0  0  0
 16  9  1  0  0  0  0
 17  9  1  0  0  0  0
 18 19  1  0  0  0  0
 19  2  1  1  0  0  0
 19  7  1  0  0  0  0
 20 11  2  0  0  0  0
 21 18  1  6  0  0  0
 21 12  1  0  0  0  0
 22 23  1  0  0  0  0
 22 26  1  0  0  0  0
 23 25  1  0  0  0  0
 25 24  1  0  0  0  0
 28 26  1  0  0  0  0
 28 29  1  0  0  0  0
 28 27  1  0  0  0  0
 29 27  1  0  0  0  0
 30 31  1  0  0  0  0
 32 31  1  0  0  0  0
 33 35  2  0  0  0  0
 34 32  1  0  0  0  0
 34 44  1  0  0  0  0
 35 34  1  0  0  0  0
 36 35  1  0  0  0  0
 36 37  2  0  0  0  0
 38 36  1  1  0  0  0
 39 38  1  0  0  0  0
 40 43  1  1  0  0  0
 40 39  1  0  0  0  0
 40 38  1  0  0  0  0
 42 43  1  0  0  0  0
 43 41  2  0  0  0  0
 44 45  1  0  0  0  0
 45 46  1  0  0  0  0
 47 46  1  0  0  0  0
 47 50  1  0  0  0  0
 48 50  1  0  0  0  0
 48 49  1  0  0  0  0
 50 49  1  0  0  0  0
M  END
>  <MODEL>
3

>  <REMARK>
 VINA RESULT:      -5.7      1.598      2.732
  Name = 
  18 active torsions:
  status: ('A' for Active; 'I' for Inactive)
    1  A    between atoms: C_1  and  C_37
    2  A    between atoms: C_1  and  O_42
    3  A    between atoms: C_9  and  C_44
    4  A    between atoms: C_12  and  N_17
    5  A    between atoms: N_13  and  C_18
    6  A    between atoms: N_13  and  C_49
    7  A    between atoms: C_14  and  C_27
    8  A    between atoms: C_15  and  C_24
    9  A    between atoms: O_16  and  N_17
   10  A    between atoms: O_16  and  C_20
   11  A    between atoms: N_17  and  C_27
   12  A    between atoms: C_18  and  O_42
   13  A    between atoms: C_24  and  C_43
   14  A    between atoms: C_28  and  C_35
   15  A    between atoms: C_33  and  N_45
   16  A    between atoms: C_36  and  C_37
   17  A    between atoms: N_45  and  C_47
   18  A    between atoms: C_47  and  C_49
                            x       y       z     vdW  Elec       q    Type
                         _______ _______ _______ _____ _____    ______ ____

>  <TORSDO>
F 18

$$$$
=
 OpenBabel11062420503D

 50 56  0  0  1  0  0  0  0  0999 V2000
  190.5790  170.0290  142.0210 N   0  0  0  0  0  0  0  0  0  0  0  0
  191.3460  172.0880  142.0120 C   0  0  0  0  0  0  0  0  0  0  0  0
  190.2060  171.2450  141.9970 N   0  0  0  0  0  0  0  0  0  0  0  0
  192.0330  169.9150  142.0670 C   0  0  0  0  0  2  0  0  0  0  0  0
  192.4380  171.3490  142.0610 C   0  0  0  0  0  0  0  0  0  0  0  0
  187.8360  175.8860  140.6880 C   0  0  0  0  0  3  0  0  0  0  0  0
  191.2110  173.9860  143.5840 C   0  0  0  0  0  2  0  0  0  0  0  0
  188.8040  176.1460  141.8020 C   0  0  1  0  0  3  0  0  0  0  0  0
  188.9240  176.3240  144.9720 C   0  0  2  0  0  3  0  0  0  0  0  0
  184.6510  178.6550  141.5420 C   0  0  0  0  0  1  0  0  0  0  0  0
  186.0520  179.1230  143.4030 O   0  0  0  0  0  0  0  0  0  0  0  0
  190.2120  175.1040  143.6050 C   0  0  2  0  0  3  0  0  0  0  0  0
  188.0300  177.1000  142.7520 C   0  0  1  0  0  3  0  0  0  0  0  0
  186.8120  177.4010  142.0170 N   0  0  0  0  0  0  0  0  0  0  0  0
  186.7510  176.6210  140.8340 C   0  0  0  0  0  3  0  0  0  0  0  0
  187.6700  176.5180  144.1230 C   0  0  0  0  0  2  0  0  0  0  0  0
  189.4510  175.0340  144.7760 O   0  0  0  0  0  0  0  0  0  0  0  0
  190.1340  174.1130  141.4200 N   0  0  0  0  0  2  0  0  0  0  0  0
  191.2970  173.5790  142.1280 C   0  0  2  0  0  3  0  0  0  0  0  0
  185.8640  178.4160  142.3770 C   0  0  0  0  0  0  0  0  0  0  0  0
  189.3300  174.8350  142.4030 C   0  0  2  0  0  3  0  0  0  0  0  0
  188.6180  176.5630  146.3870 N   0  0  0  0  0  0  0  0  0  0  0  0
  189.2970  175.5320  147.1610 C   0  0  0  0  0  2  0  0  0  0  0  0
  191.5470  174.9880  147.7490 O   0  0  0  0  0  1  0  0  0  0  0  0
  190.6390  176.0430  147.6500 C   0  0  0  0  0  2  0  0  0  0  0  0
  187.2810  176.4020  146.5800 O   0  0  0  0  0  0  0  0  0  0  0  0
  185.2670  177.6520  146.7200 C   0  0  0  0  0  2  0  0  0  0  0  0
  186.7820  177.6970  146.7490 C   0  0  0  0  0  3  0  0  0  0  0  0
  185.9970  177.7580  148.0420 C   0  0  0  0  0  2  0  0  0  0  0  0
  193.7710  171.8570  142.1920 N   0  0  0  0  0  2  0  0  0  0  0  0
  194.9090  171.2280  141.5410 C   0  0  0  0  0  2  0  0  0  0  0  0
  196.1950  171.6500  142.2370 C   0  0  0  0  0  2  0  0  0  0  0  0
  197.8080  172.6170  140.1360 O   0  0  0  0  0  0  0  0  0  0  0  0
  196.4700  173.0620  141.9950 N   0  0  0  0  0  0  0  0  0  0  0  0
  197.1050  173.4560  140.7680 C   0  0  0  0  0  0  0  0  0  0  0  0
  196.9400  174.8110  140.1980 C   0  0  0  0  0  0  0  0  0  0  0  0
  197.9410  175.5750  140.1260 O   0  0  0  0  0  0  0  0  0  0  0  0
  195.6160  175.3010  139.6780 C   0  0  2  0  0  3  0  0  0  0  0  0
  194.9050  174.2370  139.0900 O   0  0  0  0  0  0  0  0  0  0  0  0
  195.4010  175.2030  138.1950 C   0  0  2  0  0  3  0  0  0  0  0  0
  196.6610  173.4270  137.2200 O   0  0  0  0  0  0  0  0  0  0  0  0
  197.4970  175.5620  136.7230 C   0  0  0  0  0  1  0  0  0  0  0  0
  196.5370  174.6340  137.3810 C   0  0  0  0  0  0  0  0  0  0  0  0
  196.3210  174.0110  143.0940 C   0  0  0  0  0  2  0  0  0  0  0  0
  196.0490  173.3280  144.2830 O   0  0  0  0  0  0  0  0  0  0  0  0
  194.9080  173.9510  144.7950 C   0  0  0  0  0  2  0  0  0  0  0  0
  195.2900  174.8960  145.9260 C   0  0  0  0  0  2  0  0  0  0  0  0
  194.1800  176.9960  146.5980 C   0  0  0  0  0  2  0  0  0  0  0  0
  193.5490  176.5380  145.3040 C   0  0  0  0  0  2  0  0  0  0  0  0
  195.0290  176.3380  145.5300 C   0  0  0  0  0  3  0  0  0  0  0  0
  1  4  1  0  0  0  0
  2  5  2  0  0  0  0
  3  2  1  0  0  0  0
  3  1  2  0  0  0  0
  5  4  1  0  0  0  0
  5 30  1  0  0  0  0
  6 15  2  0  0  0  0
  8  6  1  6  0  0  0
  8 21  1  0  0  0  0
  8 13  1  0  0  0  0
  9 22  1  1  0  0  0
 10 20  1  0  0  0  0
 12  7  1  1  0  0  0
 12 17  1  0  0  0  0
 13 16  1  1  0  0  0
 14 20  1  0  0  0  0
 14 13  1  0  0  0  0
 15 14  1  0  0  0  0
 16  9  1  0  0  0  0
 17  9  1  0  0  0  0
 18 19  1  0  0  0  0
 19  2  1  1  0  0  0
 19  7  1  0  0  0  0
 20 11  2  0  0  0  0
 21 18  1  6  0  0  0
 21 12  1  0  0  0  0
 22 26  1  0  0  0  0
 22 23  1  0  0  0  0
 23 25  1  0  0  0  0
 25 24  1  0  0  0  0
 26 28  1  0  0  0  0
 27 28  1  0  0  0  0
 27 29  1  0  0  0  0
 28 29  1  0  0  0  0
 31 30  1  0  0  0  0
 31 32  1  0  0  0  0
 33 35  2  0  0  0  0
 34 32  1  0  0  0  0
 34 44  1  0  0  0  0
 35 34  1  0  0  0  0
 36 35  1  0  0  0  0
 37 36  2  0  0  0  0
 38 36  1  6  0  0  0
 39 38  1  0  0  0  0
 40 43  1  6  0  0  0
 40 39  1  0  0  0  0
 40 38  1  0  0  0  0
 41 43  2  0  0  0  0
 42 43  1  0  0  0  0
 44 45  1  0  0  0  0
 45 46  1  0  0  0  0
 46 47  1  0  0  0  0
 49 50  1  0  0  0  0
 49 48  1  0  0  0  0
 50 47  1  0  0  0  0
 50 48  1  0  0  0  0
M  END
>  <MODEL>
4

>  <REMARK>
 VINA RESULT:      -5.7      1.744      3.447
  Name = 
  18 active torsions:
  status: ('A' for Active; 'I' for Inactive)
    1  A    between atoms: C_1  and  C_37
    2  A    between atoms: C_1  and  O_42
    3  A    between atoms: C_9  and  C_44
    4  A    between atoms: C_12  and  N_17
    5  A    between atoms: N_13  and  C_18
    6  A    between atoms: N_13  and  C_49
    7  A    between atoms: C_14  and  C_27
    8  A    between atoms: C_15  and  C_24
    9  A    between atoms: O_16  and  N_17
   10  A    between atoms: O_16  and  C_20
   11  A    between atoms: N_17  and  C_27
   12  A    between atoms: C_18  and  O_42
   13  A    between atoms: C_24  and  C_43
   14  A    between atoms: C_28  and  C_35
   15  A    between atoms: C_33  and  N_45
   16  A    between atoms: C_36  and  C_37
   17  A    between atoms: N_45  and  C_47
   18  A    between atoms: C_47  and  C_49
                            x       y       z     vdW  Elec       q    Type
                         _______ _______ _______ _____ _____    ______ ____

>  <TORSDO>
F 18

$$$$
=
 OpenBabel11062420503D

 50 56  0  0  1  0  0  0  0  0999 V2000
  196.5450  176.7390  143.5260 N   0  0  0  0  0  0  0  0  0  0  0  0
  195.0770  175.2100  144.1060 C   0  0  0  0  0  0  0  0  0  0  0  0
  195.3120  176.5730  143.7950 N   0  0  0  0  0  2  0  0  0  0  0  0
  197.2860  175.4840  143.6160 C   0  0  0  0  0  3  0  0  0  0  0  0
  196.2060  174.5340  144.0050 C   0  0  0  0  0  0  0  0  0  0  0  0
  190.7920  176.5480  146.9960 C   0  0  0  0  0  3  0  0  0  0  0  0
  192.9020  174.6710  143.0710 C   0  0  0  0  0  2  0  0  0  0  0  0
  190.6120  175.6890  145.7820 C   0  0  1  0  0  3  0  0  0  0  0  0
  189.5590  175.8420  142.7880 C   0  0  2  0  0  3  0  0  0  0  0  0
  186.8830  178.2770  147.5170 C   0  0  0  0  0  1  0  0  0  0  0  0
  186.4680  177.0200  145.5440 O   0  0  0  0  0  0  0  0  0  0  0  0
  191.5320  175.0780  143.5240 C   0  0  2  0  0  3  0  0  0  0  0  0
  189.1960  176.0650  145.2670 C   0  0  1  0  0  3  0  0  0  0  0  0
  188.6770  176.9440  146.3030 N   0  0  0  0  0  0  0  0  0  0  0  0
  189.6850  177.2130  147.2640 C   0  0  0  0  0  3  0  0  0  0  0  0
  189.1540  176.7870  143.9160 C   0  0  0  0  0  2  0  0  0  0  0  0
  190.9480  175.9140  142.5670 O   0  0  0  0  0  0  0  0  0  0  0  0
  193.0150  175.3470  145.3920 N   0  0  0  0  0  2  0  0  0  0  0  0
  193.7240  174.6160  144.3420 C   0  0  2  0  0  3  0  0  0  0  0  0
  187.3160  177.3860  146.4010 C   0  0  0  0  0  0  0  0  0  0  0  0
  191.7800  175.8540  144.8010 C   0  0  2  0  0  3  0  0  0  0  0  0
  188.8110  176.1630  141.5670 N   0  0  0  0  0  0  0  0  0  0  0  0
  187.9230  177.2750  141.8790 C   0  0  0  0  0  2  0  0  0  0  0  0
  185.5520  177.2930  142.1730 O   0  0  0  0  0  1  0  0  0  0  0  0
  186.5640  177.0540  141.2410 C   0  0  0  0  0  2  0  0  0  0  0  0
  188.0310  175.0990  141.2380 O   0  0  0  0  0  0  0  0  0  0  0  0
  188.1160  172.9640  140.2020 C   0  0  0  0  0  2  0  0  0  0  0  0
  188.9030  174.1810  140.6430 C   0  0  0  0  0  3  0  0  0  0  0  0
  188.5200  174.0120  139.1880 C   0  0  0  0  0  2  0  0  0  0  0  0
  196.3310  173.1150  144.1470 N   0  0  0  0  0  2  0  0  0  0  0  0
  195.8140  172.1870  143.1530 C   0  0  0  0  0  2  0  0  0  0  0  0
  196.5760  172.3570  141.8480 C   0  0  0  0  0  2  0  0  0  0  0  0
  195.3730  170.6950  139.9140 O   0  0  0  0  0  0  0  0  0  0  0  0
  195.6890  172.8330  140.7930 N   0  0  0  0  0  0  0  0  0  0  0  0
  194.9480  171.8810  140.0120 C   0  0  0  0  0  0  0  0  0  0  0  0
  193.6800  172.2350  139.3380 C   0  0  0  0  0  0  0  0  0  0  0  0
  193.6520  172.3100  138.0790 O   0  0  0  0  0  0  0  0  0  0  0  0
  192.4110  172.4870  140.1070 C   0  0  2  0  0  3  0  0  0  0  0  0
  192.3690  171.6630  141.2500 O   0  0  0  0  0  0  0  0  0  0  0  0
  191.4610  171.3300  140.2270 C   0  0  2  0  0  3  0  0  0  0  0  0
  192.5700  169.2200  140.1340 O   0  0  0  0  0  0  0  0  0  0  0  0
  191.3750  169.7470  138.1850 C   0  0  0  0  0  1  0  0  0  0  0  0
  191.8700  170.0420  139.5570 C   0  0  0  0  0  0  0  0  0  0  0  0
  195.7540  174.2350  140.3910 C   0  0  0  0  0  2  0  0  0  0  0  0
  196.8260  174.4330  139.5150 O   0  0  0  0  0  0  0  0  0  0  0  0
  196.2900  175.1850  138.4670 C   0  0  0  0  0  2  0  0  0  0  0  0
  197.3450  175.4130  137.3930 C   0  0  0  0  0  2  0  0  0  0  0  0
  197.7780  175.6980  134.9800 C   0  0  0  0  0  2  0  0  0  0  0  0
  196.7540  176.7320  135.3870 C   0  0  0  0  0  2  0  0  0  0  0  0
  196.7220  175.3570  136.0100 C   0  0  0  0  0  3  0  0  0  0  0  0
  1  4  2  0  0  0  0
  1  3  1  0  0  0  0
  3  2  1  0  0  0  0
  4  5  1  0  0  0  0
  5  2  2  0  0  0  0
  5 30  1  0  0  0  0
  6 15  2  0  0  0  0
  7 19  1  0  0  0  0
  8  6  1  1  0  0  0
  9 22  1  6  0  0  0
  9 16  1  0  0  0  0
 11 20  2  0  0  0  0
 12  7  1  6  0  0  0
 12 21  1  0  0  0  0
 13 16  1  6  0  0  0
 13  8  1  0  0  0  0
 13 14  1  0  0  0  0
 14 20  1  0  0  0  0
 14 15  1  0  0  0  0
 17  9  1  0  0  0  0
 17 12  1  0  0  0  0
 19  2  1  6  0  0  0
 19 18  1  0  0  0  0
 20 10  1  0  0  0  0
 21 18  1  1  0  0  0
 21  8  1  0  0  0  0
 22 23  1  0  0  0  0
 25 23  1  0  0  0  0
 25 24  1  0  0  0  0
 26 22  1  0  0  0  0
 27 28  1  0  0  0  0
 28 26  1  0  0  0  0
 29 27  1  0  0  0  0
 29 28  1  0  0  0  0
 31 30  1  0  0  0  0
 32 31  1  0  0  0  0
 33 35  2  0  0  0  0
 34 32  1  0  0  0  0
 35 34  1  0  0  0  0
 36 35  1  0  0  0  0
 37 36  2  0  0  0  0
 38 36  1  6  0  0  0
 38 40  1  0  0  0  0
 38 39  1  0  0  0  0
 40 43  1  6  0  0  0
 40 39  1  0  0  0  0
 42 43  1  0  0  0  0
 43 41  2  0  0  0  0
 44 34  1  0  0  0  0
 45 44  1  0  0  0  0
 46 45  1  0  0  0  0
 47 46  1  0  0  0  0
 48 49  1  0  0  0  0
 48 50  1  0  0  0  0
 49 50  1  0  0  0  0
 50 47  1  0  0  0  0
M  END
>  <MODEL>
5

>  <REMARK>
 VINA RESULT:      -5.6      2.746      6.384
  Name = 
  18 active torsions:
  status: ('A' for Active; 'I' for Inactive)
    1  A    between atoms: C_1  and  C_37
    2  A    between atoms: C_1  and  O_42
    3  A    between atoms: C_9  and  C_44
    4  A    between atoms: C_12  and  N_17
    5  A    between atoms: N_13  and  C_18
    6  A    between atoms: N_13  and  C_49
    7  A    between atoms: C_14  and  C_27
    8  A    between atoms: C_15  and  C_24
    9  A    between atoms: O_16  and  N_17
   10  A    between atoms: O_16  and  C_20
   11  A    between atoms: N_17  and  C_27
   12  A    between atoms: C_18  and  O_42
   13  A    between atoms: C_24  and  C_43
   14  A    between atoms: C_28  and  C_35
   15  A    between atoms: C_33  and  N_45
   16  A    between atoms: C_36  and  C_37
   17  A    between atoms: N_45  and  C_47
   18  A    between atoms: C_47  and  C_49
                            x       y       z     vdW  Elec       q    Type
                         _______ _______ _______ _____ _____    ______ ____

>  <TORSDO>
F 18

$$$$
=
 OpenBabel11062420503D

 50 56  0  0  1  0  0  0  0  0999 V2000
  196.0800  176.7890  144.0570 N   0  0  0  0  0  0  0  0  0  0  0  0
  194.6670  175.2410  144.7200 C   0  0  0  0  0  0  0  0  0  0  0  0
  194.9240  176.6270  144.5640 N   0  0  0  0  0  2  0  0  0  0  0  0
  196.7360  175.5100  143.8000 C   0  0  0  0  0  3  0  0  0  0  0  0
  195.7010  174.5500  144.2770 C   0  0  0  0  0  0  0  0  0  0  0  0
  190.4540  177.0420  147.4590 C   0  0  0  0  0  3  0  0  0  0  0  0
  192.4790  174.3930  143.9560 C   0  0  0  0  0  2  0  0  0  0  0  0
  190.2630  175.9190  146.4850 C   0  0  1  0  0  3  0  0  0  0  0  0
  189.0720  175.3370  143.5970 C   0  0  2  0  0  3  0  0  0  0  0  0
  186.4900  178.6910  147.7850 C   0  0  0  0  0  1  0  0  0  0  0  0
  186.0510  176.9970  146.1770 O   0  0  0  0  0  0  0  0  0  0  0  0
  191.1120  174.8400  144.3790 C   0  0  2  0  0  3  0  0  0  0  0  0
  188.8090  176.1120  145.9760 C   0  0  1  0  0  3  0  0  0  0  0  0
  188.2930  177.1850  146.8110 N   0  0  0  0  0  0  0  0  0  0  0  0
  189.3280  177.7070  147.6290 C   0  0  0  0  0  3  0  0  0  0  0  0
  188.6700  176.5000  144.5010 C   0  0  0  0  0  2  0  0  0  0  0  0
  190.4440  175.4090  143.2900 O   0  0  0  0  0  0  0  0  0  0  0  0
  192.6610  175.5900  146.0520 N   0  0  0  0  0  2  0  0  0  0  0  0
  193.3580  174.6650  145.1590 C   0  0  2  0  0  3  0  0  0  0  0  0
  186.9170  177.5840  146.8800 C   0  0  0  0  0  0  0  0  0  0  0  0
  191.3770  175.8990  145.4290 C   0  0  2  0  0  3  0  0  0  0  0  0
  188.2550  175.3380  142.3790 N   0  0  0  0  0  0  0  0  0  0  0  0
  188.9900  174.6020  141.3590 C   0  0  0  0  0  2  0  0  0  0  0  0
  187.4860  172.8640  142.0090 O   0  0  0  0  0  1  0  0  0  0  0  0
  188.2040  173.3780  140.9280 C   0  0  0  0  0  2  0  0  0  0  0  0
  188.1230  176.6180  141.9410 O   0  0  0  0  0  0  0  0  0  0  0  0
  186.3950  178.2280  141.6900 C   0  0  0  0  0  2  0  0  0  0  0  0
  186.7640  176.7590  141.6400 C   0  0  0  0  0  3  0  0  0  0  0  0
  186.6230  177.5500  140.3560 C   0  0  0  0  0  2  0  0  0  0  0  0
  195.7570  173.1220  144.1810 N   0  0  0  0  0  2  0  0  0  0  0  0
  196.7350  172.4370  143.3500 C   0  0  0  0  0  2  0  0  0  0  0  0
  196.0780  171.9860  142.0540 C   0  0  0  0  0  2  0  0  0  0  0  0
  193.2810  171.8670  141.7140 O   0  0  0  0  0  0  0  0  0  0  0  0
  195.2740  170.7900  142.2740 N   0  0  0  0  0  0  0  0  0  0  0  0
  193.9020  170.7740  141.8480 C   0  0  0  0  0  0  0  0  0  0  0  0
  193.1940  169.5160  141.5280 C   0  0  0  0  0  0  0  0  0  0  0  0
  192.1100  169.2530  142.1180 O   0  0  0  0  0  0  0  0  0  0  0  0
  193.7130  168.5470  140.5010 C   0  0  2  0  0  3  0  0  0  0  0  0
  194.2060  169.2470  139.3830 O   0  0  0  0  0  0  0  0  0  0  0  0
  193.0090  168.5360  139.1750 C   0  0  2  0  0  3  0  0  0  0  0  0
  192.0320  170.6740  138.7750 O   0  0  0  0  0  0  0  0  0  0  0  0
  190.4600  168.9620  139.0980 C   0  0  0  0  0  1  0  0  0  0  0  0
  191.8510  169.4880  139.0130 C   0  0  0  0  0  0  0  0  0  0  0  0
  195.7990  169.7320  143.1330 C   0  0  0  0  0  2  0  0  0  0  0  0
  194.9810  169.5780  144.2560 O   0  0  0  0  0  0  0  0  0  0  0  0
  195.1820  168.2550  144.6600 C   0  0  0  0  0  2  0  0  0  0  0  0
  196.3950  168.1660  145.5750 C   0  0  0  0  0  2  0  0  0  0  0  0
  196.7250  168.1740  148.0220 C   0  0  0  0  0  2  0  0  0  0  0  0
  195.2370  168.1790  147.7590 C   0  0  0  0  0  2  0  0  0  0  0  0
  196.1630  168.9540  146.8510 C   0  0  0  0  0  3  0  0  0  0  0  0
  1  3  1  0  0  0  0
  3  2  1  0  0  0  0
  4  1  2  0  0  0  0
  4  5  1  0  0  0  0
  5  2  2  0  0  0  0
  6 15  2  0  0  0  0
  7 19  1  0  0  0  0
  8  6  1  1  0  0  0
  9 22  1  6  0  0  0
  9 16  1  0  0  0  0
 11 20  2  0  0  0  0
 12  7  1  6  0  0  0
 12 21  1  0  0  0  0
 13 16  1  6  0  0  0
 13  8  1  0  0  0  0
 13 14  1  0  0  0  0
 14 20  1  0  0  0  0
 14 15  1  0  0  0  0
 17  9  1  0  0  0  0
 17 12  1  0  0  0  0
 19  2  1  6  0  0  0
 19 18  1  0  0  0  0
 20 10  1  0  0  0  0
 21 18  1  1  0  0  0
 21  8  1  0  0  0  0
 23 22  1  0  0  0  0
 25 23  1  0  0  0  0
 25 24  1  0  0  0  0
 26 22  1  0  0  0  0
 28 27  1  0  0  0  0
 28 26  1  0  0  0  0
 29 28  1  0  0  0  0
 29 27  1  0  0  0  0
 30  5  1  0  0  0  0
 31 30  1  0  0  0  0
 32 34  1  0  0  0  0
 32 31  1  0  0  0  0
 33 35  2  0  0  0  0
 34 44  1  0  0  0  0
 35 34  1  0  0  0  0
 36 35  1  0  0  0  0
 36 37  2  0  0  0  0
 38 36  1  1  0  0  0
 39 38  1  0  0  0  0
 40 43  1  1  0  0  0
 40 39  1  0  0  0  0
 40 38  1  0  0  0  0
 41 43  2  0  0  0  0
 43 42  1  0  0  0  0
 44 45  1  0  0  0  0
 45 46  1  0  0  0  0
 46 47  1  0  0  0  0
 47 50  1  0  0  0  0
 49 48  1  0  0  0  0
 50 49  1  0  0  0  0
 50 48  1  0  0  0  0
M  END
>  <MODEL>
6

>  <REMARK>
 VINA RESULT:      -5.5      2.514      5.840
  Name = 
  18 active torsions:
  status: ('A' for Active; 'I' for Inactive)
    1  A    between atoms: C_1  and  C_37
    2  A    between atoms: C_1  and  O_42
    3  A    between atoms: C_9  and  C_44
    4  A    between atoms: C_12  and  N_17
    5  A    between atoms: N_13  and  C_18
    6  A    between atoms: N_13  and  C_49
    7  A    between atoms: C_14  and  C_27
    8  A    between atoms: C_15  and  C_24
    9  A    between atoms: O_16  and  N_17
   10  A    between atoms: O_16  and  C_20
   11  A    between atoms: N_17  and  C_27
   12  A    between atoms: C_18  and  O_42
   13  A    between atoms: C_24  and  C_43
   14  A    between atoms: C_28  and  C_35
   15  A    between atoms: C_33  and  N_45
   16  A    between atoms: C_36  and  C_37
   17  A    between atoms: N_45  and  C_47
   18  A    between atoms: C_47  and  C_49
                            x       y       z     vdW  Elec       q    Type
                         _______ _______ _______ _____ _____    ______ ____

>  <TORSDO>
F 18

$$$$
=
 OpenBabel11062420503D

 50 56  0  0  1  0  0  0  0  0999 V2000
  190.6230  176.3730  148.0290 N   0  0  0  0  0  0  0  0  0  0  0  0
  191.4810  176.4560  146.0080 C   0  0  0  0  0  0  0  0  0  0  0  0
  190.3060  176.3780  146.7960 N   0  0  0  0  0  0  0  0  0  0  0  0
  192.0690  176.4600  148.2110 C   0  0  0  0  0  2  0  0  0  0  0  0
  192.5370  176.5140  146.7970 C   0  0  0  0  0  0  0  0  0  0  0  0
  191.1370  173.1610  141.8220 C   0  0  0  0  0  3  0  0  0  0  0  0
  190.2510  177.3520  144.0650 C   0  0  0  0  0  2  0  0  0  0  0  0
  190.7160  174.5900  141.6600 C   0  0  1  0  0  3  0  0  0  0  0  0
  188.1000  176.3760  141.4100 C   0  0  2  0  0  3  0  0  0  0  0  0
  189.0150  171.1860  138.6370 C   0  0  0  0  0  1  0  0  0  0  0  0
  188.2030  173.3950  138.3050 O   0  0  0  0  0  0  0  0  0  0  0  0
  189.8180  176.6270  142.8260 C   0  0  2  0  0  3  0  0  0  0  0  0
  189.5960  174.5280  140.5860 C   0  0  1  0  0  3  0  0  0  0  0  0
  189.6160  173.1410  140.1490 N   0  0  0  0  0  0  0  0  0  0  0  0
  190.5180  172.3920  140.9470 C   0  0  0  0  0  3  0  0  0  0  0  0
  188.1900  174.8890  141.0770 C   0  0  0  0  0  2  0  0  0  0  0  0
  188.4210  176.5930  142.7630 O   0  0  0  0  0  0  0  0  0  0  0  0
  191.5430  175.3160  143.8580 N   0  0  0  0  0  2  0  0  0  0  0  0
  191.4950  176.6200  144.5200 C   0  0  2  0  0  3  0  0  0  0  0  0
  188.9130  172.6280  139.0100 C   0  0  0  0  0  0  0  0  0  0  0  0
  190.3580  175.2240  143.0100 C   0  0  2  0  0  3  0  0  0  0  0  0
  186.7610  176.8840  141.0940 N   0  0  0  0  0  0  0  0  0  0  0  0
  186.8350  177.5300  139.7900 C   0  0  0  0  0  2  0  0  0  0  0  0
  186.7170  176.2170  137.7980 O   0  0  0  0  0  1  0  0  0  0  0  0
  185.9430  176.8090  138.7970 C   0  0  0  0  0  2  0  0  0  0  0  0
  186.4290  177.8400  142.0020 O   0  0  0  0  0  0  0  0  0  0  0  0
  184.5960  178.5700  143.3240 C   0  0  0  0  0  2  0  0  0  0  0  0
  185.1950  177.4330  142.5200 C   0  0  0  0  0  3  0  0  0  0  0  0
  184.1020  178.2920  141.9200 C   0  0  0  0  0  2  0  0  0  0  0  0
  193.8870  176.7040  146.3550 N   0  0  0  0  0  2  0  0  0  0  0  0
  194.6840  175.6170  145.8070 C   0  0  0  0  0  2  0  0  0  0  0  0
  195.5410  176.1380  144.6630 C   0  0  0  0  0  2  0  0  0  0  0  0
  194.5080  174.7190  142.4560 O   0  0  0  0  0  0  0  0  0  0  0  0
  196.2310  175.0400  143.9970 N   0  0  0  0  0  0  0  0  0  0  0  0
  195.7260  174.5460  142.7450 C   0  0  0  0  0  0  0  0  0  0  0  0
  196.5950  173.8630  141.7630 C   0  0  0  0  0  0  0  0  0  0  0  0
  196.4010  172.6410  141.5140 O   0  0  0  0  0  0  0  0  0  0  0  0
  197.6920  174.5860  141.0290 C   0  0  2  0  0  3  0  0  0  0  0  0
  197.3280  175.9320  140.8220 O   0  0  0  0  0  0  0  0  0  0  0  0
  197.3470  175.1240  139.6700 C   0  0  2  0  0  3  0  0  0  0  0  0
  195.0270  175.6350  139.4580 O   0  0  0  0  0  0  0  0  0  0  0  0
  195.6800  173.7060  138.2940 C   0  0  0  0  0  1  0  0  0  0  0  0
  195.9430  174.8750  139.1770 C   0  0  0  0  0  0  0  0  0  0  0  0
  197.2640  174.3080  144.7230 C   0  0  0  0  0  2  0  0  0  0  0  0
  196.7050  173.1970  145.3630 O   0  0  0  0  0  0  0  0  0  0  0  0
  197.5350  172.1310  145.0070 C   0  0  0  0  0  2  0  0  0  0  0  0
  196.9800  170.8270  145.5640 C   0  0  0  0  0  2  0  0  0  0  0  0
  194.9970  169.7090  146.5180 C   0  0  0  0  0  2  0  0  0  0  0  0
  194.8150  169.7640  145.0190 C   0  0  0  0  0  2  0  0  0  0  0  0
  195.4760  170.9160  145.7400 C   0  0  0  0  0  3  0  0  0  0  0  0
  1  4  1  0  0  0  0
  2  3  1  0  0  0  0
  2  5  2  0  0  0  0
  3  1  2  0  0  0  0
  5  4  1  0  0  0  0
  7 19  1  0  0  0  0
  8  6  1  1  0  0  0
  8 21  1  0  0  0  0
  9 22  1  1  0  0  0
  9 17  1  0  0  0  0
 10 20  1  0  0  0  0
 11 20  2  0  0  0  0
 12 21  1  0  0  0  0
 12  7  1  1  0  0  0
 13 16  1  1  0  0  0
 13  8  1  0  0  0  0
 14 13  1  0  0  0  0
 14 15  1  0  0  0  0
 15  6  2  0  0  0  0
 16  9  1  0  0  0  0
 17 12  1  0  0  0  0
 18 19  1  0  0  0  0
 19  2  1  1  0  0  0
 20 14  1  0  0  0  0
 21 18  1  1  0  0  0
 22 26  1  0  0  0  0
 23 22  1  0  0  0  0
 24 25  1  0  0  0  0
 25 23  1  0  0  0  0
 26 28  1  0  0  0  0
 28 27  1  0  0  0  0
 29 28  1  0  0  0  0
 29 27  1  0  0  0  0
 30  5  1  0  0  0  0
 31 30  1  0  0  0  0
 32 31  1  0  0  0  0
 33 35  2  0  0  0  0
 34 32  1  0  0  0  0
 34 44  1  0  0  0  0
 35 34  1  0  0  0  0
 36 35  1  0  0  0  0
 37 36  2  0  0  0  0
 38 36  1  1  0  0  0
 39 38  1  0  0  0  0
 40 43  1  1  0  0  0
 40 39  1  0  0  0  0
 40 38  1  0  0  0  0
 42 43  1  0  0  0  0
 43 41  2  0  0  0  0
 44 45  1  0  0  0  0
 46 45  1  0  0  0  0
 46 47  1  0  0  0  0
 47 50  1  0  0  0  0
 49 50  1  0  0  0  0
 49 48  1  0  0  0  0
 50 48  1  0  0  0  0
M  END
>  <MODEL>
7

>  <REMARK>
 VINA RESULT:      -5.5      2.421      5.680
  Name = 
  18 active torsions:
  status: ('A' for Active; 'I' for Inactive)
    1  A    between atoms: C_1  and  C_37
    2  A    between atoms: C_1  and  O_42
    3  A    between atoms: C_9  and  C_44
    4  A    between atoms: C_12  and  N_17
    5  A    between atoms: N_13  and  C_18
    6  A    between atoms: N_13  and  C_49
    7  A    between atoms: C_14  and  C_27
    8  A    between atoms: C_15  and  C_24
    9  A    between atoms: O_16  and  N_17
   10  A    between atoms: O_16  and  C_20
   11  A    between atoms: N_17  and  C_27
   12  A    between atoms: C_18  and  O_42
   13  A    between atoms: C_24  and  C_43
   14  A    between atoms: C_28  and  C_35
   15  A    between atoms: C_33  and  N_45
   16  A    between atoms: C_36  and  C_37
   17  A    between atoms: N_45  and  C_47
   18  A    between atoms: C_47  and  C_49
                            x       y       z     vdW  Elec       q    Type
                         _______ _______ _______ _____ _____    ______ ____

>  <TORSDO>
F 18

$$$$
=
 OpenBabel11062420503D

 50 56  0  0  1  0  0  0  0  0999 V2000
  188.6160  174.3800  136.6510 N   0  0  0  0  0  0  0  0  0  0  0  0
  189.5970  173.6900  138.4920 C   0  0  0  0  0  0  0  0  0  0  0  0
  189.5920  173.6820  137.0750 N   0  0  0  0  0  0  0  0  0  0  0  0
  187.8490  174.9540  137.7520 C   0  0  0  0  0  2  0  0  0  0  0  0
  188.5970  174.4310  138.9310 C   0  0  0  0  0  0  0  0  0  0  0  0
  194.3870  175.2800  140.2320 C   0  0  0  0  0  3  0  0  0  0  0  0
  190.1900  172.9380  140.7660 C   0  0  0  0  0  2  0  0  0  0  0  0
  193.6310  174.2530  141.0180 C   0  0  1  0  0  3  0  0  0  0  0  0
  191.9390  173.9460  143.6910 C   0  0  2  0  0  3  0  0  0  0  0  0
  197.0630  176.9350  143.1720 C   0  0  0  0  0  1  0  0  0  0  0  0
  195.8980  175.3980  144.5600 O   0  0  0  0  0  0  0  0  0  0  0  0
  191.3570  173.3600  141.6090 C   0  0  2  0  0  3  0  0  0  0  0  0
  194.0760  174.5060  142.4850 C   0  0  1  0  0  3  0  0  0  0  0  0
  195.1250  175.5040  142.3580 N   0  0  0  0  0  0  0  0  0  0  0  0
  195.2230  175.9390  141.0110 C   0  0  0  0  0  3  0  0  0  0  0  0
  192.9840  175.0270  143.4260 C   0  0  0  0  0  2  0  0  0  0  0  0
  190.8990  174.0320  142.7470 O   0  0  0  0  0  0  0  0  0  0  0  0
  191.8660  173.9390  139.3360 N   0  0  0  0  0  2  0  0  0  0  0  0
  190.6740  173.0910  139.3400 C   0  0  2  0  0  3  0  0  0  0  0  0
  196.0060  175.9100  143.4140 C   0  0  0  0  0  0  0  0  0  0  0  0
  192.1270  174.3160  140.7220 C   0  0  2  0  0  3  0  0  0  0  0  0
  191.4250  174.0660  145.0590 N   0  0  0  0  0  0  0  0  0  0  0  0
  190.0140  173.7030  145.0290 C   0  0  0  0  0  2  0  0  0  0  0  0
  188.9450  171.8610  143.9470 O   0  0  0  0  0  1  0  0  0  0  0  0
  189.8630  172.1960  144.9440 C   0  0  0  0  0  2  0  0  0  0  0  0
  191.5020  175.3670  145.4450 O   0  0  0  0  0  0  0  0  0  0  0  0
  190.6220  176.7570  147.1570 C   0  0  0  0  0  2  0  0  0  0  0  0
  190.3710  175.5770  146.2390 C   0  0  0  0  0  3  0  0  0  0  0  0
  189.7820  176.9330  145.9100 C   0  0  0  0  0  2  0  0  0  0  0  0
  188.3500  174.7520  140.3050 N   0  0  0  0  0  2  0  0  0  0  0  0
  187.2820  175.6510  140.7130 C   0  0  0  0  0  2  0  0  0  0  0  0
  187.8570  176.7780  141.5590 C   0  0  0  0  0  2  0  0  0  0  0  0
  186.7100  176.0270  144.0230 O   0  0  0  0  0  0  0  0  0  0  0  0
  186.7900  177.5140  142.2260 N   0  0  0  0  0  0  0  0  0  0  0  0
  186.4450  177.1810  143.5810 C   0  0  0  0  0  0  0  0  0  0  0  0
  185.8110  178.1590  144.4920 C   0  0  0  0  0  0  0  0  0  0  0  0
  186.3560  179.2830  144.6640 O   0  0  0  0  0  0  0  0  0  0  0  0
  184.5190  177.8630  145.2050 C   0  0  2  0  0  3  0  0  0  0  0  0
  184.3000  178.8150  146.2210 O   0  0  0  0  0  0  0  0  0  0  0  0
  184.6230  177.5190  146.6630 C   0  0  2  0  0  3  0  0  0  0  0  0
  186.7300  176.5110  147.1470 O   0  0  0  0  0  0  0  0  0  0  0  0
  186.5230  178.7050  147.9540 C   0  0  0  0  0  1  0  0  0  0  0  0
  186.0080  177.4940  147.2590 C   0  0  0  0  0  0  0  0  0  0  0  0
  185.9380  178.3980  141.4370 C   0  0  0  0  0  2  0  0  0  0  0  0
  185.0020  177.6470  140.7210 O   0  0  0  0  0  0  0  0  0  0  0  0
  183.9580  178.5390  140.4620 C   0  0  0  0  0  2  0  0  0  0  0  0
  182.8570  178.3730  141.5000 C   0  0  0  0  0  2  0  0  0  0  0  0
  180.5630  179.0230  142.1390 C   0  0  0  0  0  2  0  0  0  0  0  0
  180.4580  177.9160  141.1150 C   0  0  0  0  0  2  0  0  0  0  0  0
  181.5500  178.9520  140.9920 C   0  0  0  0  0  3  0  0  0  0  0  0
  1  3  2  0  0  0  0
  1  4  1  0  0  0  0
  2  5  2  0  0  0  0
  3  2  1  0  0  0  0
  4  5  1  0  0  0  0
  5 30  1  0  0  0  0
  6 15  2  0  0  0  0
  8  6  1  6  0  0  0
  8 13  1  0  0  0  0
  9 22  1  1  0  0  0
 10 20  1  0  0  0  0
 12  7  1  6  0  0  0
 12 17  1  0  0  0  0
 13 16  1  1  0  0  0
 14 13  1  0  0  0  0
 14 20  1  0  0  0  0
 15 14  1  0  0  0  0
 16  9  1  0  0  0  0
 17  9  1  0  0  0  0
 18 19  1  0  0  0  0
 19  2  1  6  0  0  0
 19  7  1  0  0  0  0
 20 11  2  0  0  0  0
 21 18  1  6  0  0  0
 21  8  1  0  0  0  0
 21 12  1  0  0  0  0
 22 26  1  0  0  0  0
 23 22  1  0  0  0  0
 24 25  1  0  0  0  0
 25 23  1  0  0  0  0
 26 28  1  0  0  0  0
 28 27  1  0  0  0  0
 29 28  1  0  0  0  0
 29 27  1  0  0  0  0
 30 31  1  0  0  0  0
 31 32  1  0  0  0  0
 32 34  1  0  0  0  0
 34 35  1  0  0  0  0
 35 33  2  0  0  0  0
 35 36  1  0  0  0  0
 36 37  2  0  0  0  0
 38 36  1  6  0  0  0
 38 39  1  0  0  0  0
 38 40  1  0  0  0  0
 39 40  1  0  0  0  0
 40 43  1  6  0  0  0
 41 43  2  0  0  0  0
 43 42  1  0  0  0  0
 44 34  1  0  0  0  0
 45 44  1  0  0  0  0
 46 45  1  0  0  0  0
 46 47  1  0  0  0  0
 49 48  1  0  0  0  0
 50 49  1  0  0  0  0
 50 47  1  0  0  0  0
 50 48  1  0  0  0  0
M  END
>  <MODEL>
8

>  <REMARK>
 VINA RESULT:      -5.5      2.634      9.123
  Name = 
  18 active torsions:
  status: ('A' for Active; 'I' for Inactive)
    1  A    between atoms: C_1  and  C_37
    2  A    between atoms: C_1  and  O_42
    3  A    between atoms: C_9  and  C_44
    4  A    between atoms: C_12  and  N_17
    5  A    between atoms: N_13  and  C_18
    6  A    between atoms: N_13  and  C_49
    7  A    between atoms: C_14  and  C_27
    8  A    between atoms: C_15  and  C_24
    9  A    between atoms: O_16  and  N_17
   10  A    between atoms: O_16  and  C_20
   11  A    between atoms: N_17  and  C_27
   12  A    between atoms: C_18  and  O_42
   13  A    between atoms: C_24  and  C_43
   14  A    between atoms: C_28  and  C_35
   15  A    between atoms: C_33  and  N_45
   16  A    between atoms: C_36  and  C_37
   17  A    between atoms: N_45  and  C_47
   18  A    between atoms: C_47  and  C_49
                            x       y       z     vdW  Elec       q    Type
                         _______ _______ _______ _____ _____    ______ ____

>  <TORSDO>
F 18

$$$$
=
 OpenBabel11062420503D

 50 56  0  0  1  0  0  0  0  0999 V2000
  196.3460  176.7310  143.6400 N   0  0  0  0  0  0  0  0  0  0  0  0
  194.7870  175.1850  143.7410 C   0  0  0  0  0  0  0  0  0  0  0  0
  195.2650  176.4240  144.2370 N   0  0  0  0  0  2  0  0  0  0  0  0
  196.7160  175.7230  142.6510 C   0  0  0  0  0  3  0  0  0  0  0  0
  195.6040  174.7430  142.8030 C   0  0  0  0  0  0  0  0  0  0  0  0
  190.6450  176.6370  146.7780 C   0  0  0  0  0  3  0  0  0  0  0  0
  192.5730  174.4980  142.8940 C   0  0  0  0  0  2  0  0  0  0  0  0
  190.4200  175.6740  145.6530 C   0  0  1  0  0  3  0  0  0  0  0  0
  189.1810  175.5450  142.7290 C   0  0  2  0  0  3  0  0  0  0  0  0
  186.7180  178.2900  147.4030 C   0  0  0  0  0  1  0  0  0  0  0  0
  186.2260  176.8600  145.5710 O   0  0  0  0  0  0  0  0  0  0  0  0
  191.2200  174.9020  143.3980 C   0  0  2  0  0  3  0  0  0  0  0  0
  188.9630  175.9650  145.2000 C   0  0  1  0  0  3  0  0  0  0  0  0
  188.4790  176.9120  146.1910 N   0  0  0  0  0  0  0  0  0  0  0  0
  189.5340  177.2900  147.0610 C   0  0  0  0  0  3  0  0  0  0  0  0
  188.8140  176.5690  143.8000 C   0  0  0  0  0  2  0  0  0  0  0  0
  190.5500  175.6370  142.4150 O   0  0  0  0  0  0  0  0  0  0  0  0
  192.8050  175.3690  145.1400 N   0  0  0  0  0  2  0  0  0  0  0  0
  193.4720  174.5740  144.1100 C   0  0  2  0  0  3  0  0  0  0  0  0
  187.1120  177.3220  146.3390 C   0  0  0  0  0  0  0  0  0  0  0  0
  191.5190  175.7900  144.5890 C   0  0  2  0  0  3  0  0  0  0  0  0
  188.3500  175.7400  141.5370 N   0  0  0  0  0  0  0  0  0  0  0  0
  187.1240  176.4030  141.9630 C   0  0  0  0  0  2  0  0  0  0  0  0
  186.1950  177.1720  139.9010 O   0  0  0  0  0  1  0  0  0  0  0  0
  186.8350  177.5940  141.0680 C   0  0  0  0  0  2  0  0  0  0  0  0
  188.0020  174.5230  141.0400 O   0  0  0  0  0  0  0  0  0  0  0  0
  189.5620  173.3020  139.7310 C   0  0  0  0  0  2  0  0  0  0  0  0
  188.5920  174.4660  139.7740 C   0  0  0  0  0  3  0  0  0  0  0  0
  188.1920  173.1700  139.1010 C   0  0  0  0  0  2  0  0  0  0  0  0
  195.3860  173.5730  142.0060 N   0  0  0  0  0  2  0  0  0  0  0  0
  196.2220  172.3890  142.1190 C   0  0  0  0  0  2  0  0  0  0  0  0
  195.7990  171.3610  141.0800 C   0  0  0  0  0  2  0  0  0  0  0  0
  193.4040  171.9650  139.7200 O   0  0  0  0  0  0  0  0  0  0  0  0
  194.4980  170.7960  141.4170 N   0  0  0  0  0  0  0  0  0  0  0  0
  193.3920  170.9860  140.5190 C   0  0  0  0  0  0  0  0  0  0  0  0
  192.2460  170.0520  140.4750 C   0  0  0  0  0  0  0  0  0  0  0  0
  191.1340  170.4220  140.9410 O   0  0  0  0  0  0  0  0  0  0  0  0
  192.3580  168.6790  139.8700 C   0  0  2  0  0  3  0  0  0  0  0  0
  193.1720  168.7250  138.7200 O   0  0  0  0  0  0  0  0  0  0  0  0
  191.8010  168.5110  138.4850 C   0  0  2  0  0  3  0  0  0  0  0  0
  191.8640  170.5740  137.2890 O   0  0  0  0  0  0  0  0  0  0  0  0
  189.6980  169.8820  137.8690 C   0  0  0  0  0  1  0  0  0  0  0  0
  191.1790  169.7290  137.8510 C   0  0  0  0  0  0  0  0  0  0  0  0
  194.2830  170.2640  142.7600 C   0  0  0  0  0  2  0  0  0  0  0  0
  195.0690  169.1250  142.9550 O   0  0  0  0  0  0  0  0  0  0  0  0
  195.1500  168.9850  144.3430 C   0  0  0  0  0  2  0  0  0  0  0  0
  194.8350  170.3120  145.0210 C   0  0  0  0  0  2  0  0  0  0  0  0
  196.6500  171.8130  145.7580 C   0  0  0  0  0  2  0  0  0  0  0  0
  197.2360  170.4290  145.6000 C   0  0  0  0  0  2  0  0  0  0  0  0
  195.8310  170.5950  146.1300 C   0  0  0  0  0  3  0  0  0  0  0  0
  1  3  1  0  0  0  0
  2  3  1  0  0  0  0
  4  5  1  0  0  0  0
  4  1  2  0  0  0  0
  5  2  2  0  0  0  0
  6 15  2  0  0  0  0
  7 19  1  0  0  0  0
  8  6  1  1  0  0  0
  9 22  1  6  0  0  0
  9 16  1  0  0  0  0
 11 20  2  0  0  0  0
 12  7  1  6  0  0  0
 12 21  1  0  0  0  0
 13 16  1  6  0  0  0
 13  8  1  0  0  0  0
 13 14  1  0  0  0  0
 14 20  1  0  0  0  0
 14 15  1  0  0  0  0
 17  9  1  0  0  0  0
 17 12  1  0  0  0  0
 19  2  1  6  0  0  0
 19 18  1  0  0  0  0
 20 10  1  0  0  0  0
 21 18  1  1  0  0  0
 21  8  1  0  0  0  0
 22 23  1  0  0  0  0
 24 25  1  0  0  0  0
 25 23  1  0  0  0  0
 26 22  1  0  0  0  0
 27 28  1  0  0  0  0
 28 26  1  0  0  0  0
 29 27  1  0  0  0  0
 29 28  1  0  0  0  0
 30 31  1  0  0  0  0
 30  5  1  0  0  0  0
 32 34  1  0  0  0  0
 32 31  1  0  0  0  0
 33 35  2  0  0  0  0
 34 44  1  0  0  0  0
 35 34  1  0  0  0  0
 36 35  1  0  0  0  0
 36 37  2  0  0  0  0
 38 36  1  6  0  0  0
 39 38  1  0  0  0  0
 40 43  1  6  0  0  0
 40 39  1  0  0  0  0
 40 38  1  0  0  0  0
 41 43  2  0  0  0  0
 43 42  1  0  0  0  0
 44 45  1  0  0  0  0
 45 46  1  0  0  0  0
 46 47  1  0  0  0  0
 47 50  1  0  0  0  0
 48 50  1  0  0  0  0
 49 48  1  0  0  0  0
 49 50  1  0  0  0  0
M  END
>  <MODEL>
9

>  <REMARK>
 VINA RESULT:      -5.4      2.618      5.836
  Name = 
  18 active torsions:
  status: ('A' for Active; 'I' for Inactive)
    1  A    between atoms: C_1  and  C_37
    2  A    between atoms: C_1  and  O_42
    3  A    between atoms: C_9  and  C_44
    4  A    between atoms: C_12  and  N_17
    5  A    between atoms: N_13  and  C_18
    6  A    between atoms: N_13  and  C_49
    7  A    between atoms: C_14  and  C_27
    8  A    between atoms: C_15  and  C_24
    9  A    between atoms: O_16  and  N_17
   10  A    between atoms: O_16  and  C_20
   11  A    between atoms: N_17  and  C_27
   12  A    between atoms: C_18  and  O_42
   13  A    between atoms: C_24  and  C_43
   14  A    between atoms: C_28  and  C_35
   15  A    between atoms: C_33  and  N_45
   16  A    between atoms: C_36  and  C_37
   17  A    between atoms: N_45  and  C_47
   18  A    between atoms: C_47  and  C_49
                            x       y       z     vdW  Elec       q    Type
                         _______ _______ _______ _____ _____    ______ ____

>  <TORSDO>
F 18

$$$$
