=
 OpenBabel11062418493D

 37 42  0  0  1  0  0  0  0  0999 V2000
  190.9900  172.8130  141.6300 N   0  0  0  0  0  0  0  0  0  0  0  0
  189.2490  175.2030  143.7430 C   0  0  1  0  0  3  0  0  0  0  0  0
  189.0830  175.1950  146.3890 C   0  0  1  0  0  3  0  0  0  0  0  0
  187.7880  174.8820  143.3630 C   0  0  0  0  0  2  0  0  0  0  0  0
  191.1170  173.6800  142.6570 C   0  0  0  0  0  0  0  0  0  0  0  0
  189.2260  174.0540  141.6870 C   0  0  1  0  0  3  0  0  0  0  0  0
  191.9640  173.7750  145.1160 C   0  0  1  0  0  3  0  0  0  0  0  0
  189.6400  174.6140  145.0880 C   0  0  2  0  0  3  0  0  0  0  0  0
  191.0740  174.9810  145.3910 C   0  0  1  0  0  3  0  0  0  0  0  0
  192.1250  173.5390  143.6740 N   0  0  0  0  0  2  0  0  0  0  0  0
  190.0040  174.5050  142.6770 C   0  0  1  0  0  3  0  0  0  0  0  0
  189.8060  173.0140  141.0580 N   0  0  0  0  0  2  0  0  0  0  0  0
  187.7910  174.2770  141.9390 C   0  0  0  0  0  2  0  0  0  0  0  0
  190.7650  175.3780  147.1880 P   0  0  0  0  0  2  0  0  0  0  0  0
  189.1390  177.7170  146.8940 C   0  0  0  0  0  2  0  0  0  0  0  0
  189.1750  177.5220  145.3820 C   0  0  0  0  0  2  0  0  0  0  0  0
  188.3950  176.5620  146.2550 C   0  0  0  0  0  0  0  0  0  0  0  0
  186.8610  176.6520  146.1280 C   0  0  0  0  0  2  0  0  0  0  0  0
  185.8020  178.7700  146.9200 C   0  0  0  0  0  1  0  0  0  0  0  0
  186.3150  178.0170  145.7060 C   0  0  2  0  0  3  0  0  0  0  0  0
  185.2610  177.8820  144.7030 N   0  0  0  0  0  2  0  0  0  0  0  0
  185.4700  177.8150  143.2830 C   0  0  0  0  0  0  0  0  0  0  0  0
  186.6750  177.8610  142.8000 N   0  0  0  0  0  0  0  0  0  0  0  0
  184.3740  177.7010  142.4220 O   0  0  0  0  0  0  0  0  0  0  0  0
  183.2160  178.5080  142.5730 C   0  0  0  0  0  1  0  0  0  0  0  0
  187.1600  177.7570  140.2880 N   0  0  0  0  0  0  0  0  0  0  0  0
  186.9400  177.8040  141.4230 C   0  0  0  0  0  0  0  0  0  0  0  0
  194.0420  172.6980  145.6530 O   0  0  0  0  0  1  0  0  0  0  0  0
  193.3350  173.8940  145.7950 C   0  0  1  0  0  3  0  0  0  0  0  0
  194.5070  176.0010  146.2010 C   0  0  0  0  0  2  0  0  0  0  0  0
  194.1440  175.0780  145.3100 C   0  0  0  0  0  0  0  0  0  0  0  0
  194.2470  176.1010  143.0960 N   0  0  0  0  0  2  0  0  0  0  0  0
  195.5430  176.3260  143.7520 C   0  0  1  0  0  3  0  0  0  0  0  0
  194.8280  175.0680  143.9690 C   0  0  1  0  0  3  0  0  0  0  0  0
  196.6090  176.1120  142.7920 N   0  0  0  0  0  2  0  0  0  0  0  0
  197.2990  176.1480  140.5750 O   0  0  0  0  0  0  0  0  0  0  0  0
  196.3740  176.3330  141.4080 C   0  0  0  0  0  3  0  0  0  0  0  0
  1  5  2  0  0  0  0
  2  4  1  6  0  0  0
  2  8  1  0  0  0  0
  3 17  1  6  0  0  0
  3 14  1  0  0  0  0
  5 11  1  0  0  0  0
  5 10  1  0  0  0  0
  6 13  1  1  0  0  0
  6 11  1  0  0  0  0
  7  9  1  0  0  0  0
  7 29  1  6  0  0  0
  8  9  1  0  0  0  0
  8  3  1  0  0  0  0
  9 14  1  0  0  0  0
 10  7  1  0  0  0  0
 11  2  1  0  0  0  0
 12  1  1  0  0  0  0
 12  6  1  0  0  0  0
 13  4  1  0  0  0  0
 16 17  1  0  0  0  0
 16 15  1  0  0  0  0
 17 15  1  0  0  0  0
 18 17  1  0  0  0  0
 20 18  1  0  0  0  0
 20 19  1  0  0  0  0
 21 20  1  0  0  0  0
 22 21  1  0  0  0  0
 23 22  2  0  0  0  0
 24 25  1  0  0  0  0
 24 22  1  0  0  0  0
 26 27  3  0  0  0  0
 27 23  1  0  0  0  0
 28 29  1  0  0  0  0
 31 29  1  0  0  0  0
 31 30  2  0  0  0  0
 32 33  1  0  0  0  0
 32 34  1  0  0  0  0
 33 34  1  0  0  0  0
 34 31  1  0  0  0  0
 35 33  1  0  0  0  0
 36 37  2  0  0  0  0
 37 35  1  0  0  0  0
M  END
>  <MODEL>
1

>  <REMARK>
 VINA RESULT:      -6.9      0.000      0.000
  Name = 
  10 active torsions:
  status: ('A' for Active; 'I' for Inactive)
    1  A    between atoms: N_3  and  C_10
    2  A    between atoms: O_4  and  C_15
    3  A    between atoms: C_8  and  C_29
    4  A    between atoms: N_11  and  C_31
    5  A    between atoms: C_13  and  C_29
    6  A    between atoms: C_13  and  C_31
    7  A    between atoms: C_16  and  C_21
    8  A    between atoms: C_16  and  C_34
    9  A    between atoms: C_19  and  N_27
   10  A    between atoms: C_23  and  C_34
                            x       y       z     vdW  Elec       q    Type
                         _______ _______ _______ _____ _____    ______ ____

>  <TORSDO>
F 10

$$$$
=
 OpenBabel11062418493D

 37 42  0  0  1  0  0  0  0  0999 V2000
  187.4390  176.1390  141.0960 N   0  0  0  0  0  0  0  0  0  0  0  0
  189.6160  176.4470  143.9910 C   0  0  1  0  0  3  0  0  0  0  0  0
  190.5530  174.4930  145.5180 C   0  0  1  0  0  3  0  0  0  0  0  0
  188.6530  177.1450  144.9760 C   0  0  0  0  0  2  0  0  0  0  0  0
  188.6110  175.7540  141.6460 C   0  0  0  0  0  0  0  0  0  0  0  0
  187.8520  177.4290  142.7760 C   0  0  1  0  0  3  0  0  0  0  0  0
  189.9430  173.5990  142.2380 C   0  0  1  0  0  3  0  0  0  0  0  0
  189.7750  174.9660  144.2890 C   0  0  2  0  0  3  0  0  0  0  0  0
  190.7360  174.3610  143.2920 C   0  0  1  0  0  3  0  0  0  0  0  0
  189.2540  174.5110  141.3140 N   0  0  0  0  0  2  0  0  0  0  0  0
  188.9010  176.6020  142.7030 C   0  0  1  0  0  3  0  0  0  0  0  0
  186.9500  177.1430  141.8180 N   0  0  0  0  0  2  0  0  0  0  0  0
  187.6010  177.9160  144.1450 C   0  0  0  0  0  2  0  0  0  0  0  0
  191.6400  173.3180  144.5490 P   0  0  0  0  0  2  0  0  0  0  0  0
  190.7290  176.2630  147.3780 C   0  0  0  0  0  2  0  0  0  0  0  0
  191.7840  175.1900  147.6240 C   0  0  0  0  0  2  0  0  0  0  0  0
  191.4020  175.5710  146.2100 C   0  0  0  0  0  0  0  0  0  0  0  0
  192.4810  176.3380  145.4200 C   0  0  0  0  0  2  0  0  0  0  0  0
  194.4260  177.3900  146.5800 C   0  0  0  0  0  1  0  0  0  0  0  0
  193.9190  176.1320  145.8990 C   0  0  2  0  0  3  0  0  0  0  0  0
  194.7990  175.7560  144.7940 N   0  0  0  0  0  2  0  0  0  0  0  0
  195.6190  174.5780  144.7510 C   0  0  0  0  0  0  0  0  0  0  0  0
  195.6060  173.7390  145.7410 N   0  0  0  0  0  0  0  0  0  0  0  0
  196.4340  174.3370  143.6400 O   0  0  0  0  0  0  0  0  0  0  0  0
  197.5680  175.1420  143.3530 C   0  0  0  0  0  1  0  0  0  0  0  0
  197.0340  171.6140  145.7710 N   0  0  0  0  0  0  0  0  0  0  0  0
  196.3890  172.5740  145.7570 C   0  0  0  0  0  0  0  0  0  0  0  0
  190.0040  171.6690  140.8100 O   0  0  0  0  0  1  0  0  0  0  0  0
  190.8140  172.6040  141.4580 C   0  0  1  0  0  3  0  0  0  0  0  0
  191.3840  173.4290  139.2280 C   0  0  0  0  0  2  0  0  0  0  0  0
  191.7710  173.2720  140.4940 C   0  0  0  0  0  0  0  0  0  0  0  0
  194.0380  173.1380  141.3890 N   0  0  0  0  0  2  0  0  0  0  0  0
  194.1080  173.8400  140.1000 C   0  0  1  0  0  3  0  0  0  0  0  0
  192.9600  174.0550  140.9820 C   0  0  1  0  0  3  0  0  0  0  0  0
  195.0190  174.9620  140.2160 N   0  0  0  0  0  2  0  0  0  0  0  0
  195.4990  177.0180  141.1850 O   0  0  0  0  0  0  0  0  0  0  0  0
  194.7090  176.0430  141.0850 C   0  0  0  0  0  3  0  0  0  0  0  0
  1  5  2  0  0  0  0
  1 12  1  0  0  0  0
  2  8  1  0  0  0  0
  2  4  1  1  0  0  0
  3 17  1  6  0  0  0
  5 11  1  0  0  0  0
  6 13  1  1  0  0  0
  7 29  1  6  0  0  0
  7  9  1  0  0  0  0
  8  3  1  0  0  0  0
  9  8  1  0  0  0  0
  9 14  1  0  0  0  0
 10  5  1  0  0  0  0
 10  7  1  0  0  0  0
 11  6  1  0  0  0  0
 11  2  1  0  0  0  0
 12  6  1  0  0  0  0
 13  4  1  0  0  0  0
 14  3  1  0  0  0  0
 15 16  1  0  0  0  0
 17 15  1  0  0  0  0
 17 16  1  0  0  0  0
 18 20  1  0  0  0  0
 18 17  1  0  0  0  0
 20 19  1  0  0  0  0
 21 20  1  0  0  0  0
 22 21  1  0  0  0  0
 22 23  2  0  0  0  0
 23 27  1  0  0  0  0
 24 22  1  0  0  0  0
 25 24  1  0  0  0  0
 27 26  3  0  0  0  0
 28 29  1  0  0  0  0
 30 31  2  0  0  0  0
 31 34  1  0  0  0  0
 31 29  1  0  0  0  0
 33 35  1  0  0  0  0
 33 34  1  0  0  0  0
 33 32  1  0  0  0  0
 34 32  1  0  0  0  0
 35 37  1  0  0  0  0
 37 36  2  0  0  0  0
M  END
>  <MODEL>
2

>  <REMARK>
 VINA RESULT:      -6.7      2.543      6.541
  Name = 
  10 active torsions:
  status: ('A' for Active; 'I' for Inactive)
    1  A    between atoms: N_3  and  C_10
    2  A    between atoms: O_4  and  C_15
    3  A    between atoms: C_8  and  C_29
    4  A    between atoms: N_11  and  C_31
    5  A    between atoms: C_13  and  C_29
    6  A    between atoms: C_13  and  C_31
    7  A    between atoms: C_16  and  C_21
    8  A    between atoms: C_16  and  C_34
    9  A    between atoms: C_19  and  N_27
   10  A    between atoms: C_23  and  C_34
                            x       y       z     vdW  Elec       q    Type
                         _______ _______ _______ _____ _____    ______ ____

>  <TORSDO>
F 10

$$$$
=
 OpenBabel11062418493D

 37 42  0  0  1  0  0  0  0  0999 V2000
  188.6520  173.1460  141.0570 N   0  0  0  0  0  0  0  0  0  0  0  0
  190.0970  174.0860  144.2560 C   0  0  1  0  0  3  0  0  0  0  0  0
  191.3050  176.3640  144.8730 C   0  0  1  0  0  3  0  0  0  0  0  0
  191.2890  173.1060  144.3090 C   0  0  0  0  0  2  0  0  0  0  0  0
  188.6430  174.0620  142.0490 C   0  0  0  0  0  0  0  0  0  0  0  0
  189.7060  172.3190  142.7480 C   0  0  1  0  0  3  0  0  0  0  0  0
  188.8870  176.6260  142.4190 C   0  0  1  0  0  3  0  0  0  0  0  0
  190.5240  175.4960  143.8840 C   0  0  2  0  0  3  0  0  0  0  0  0
  189.3080  176.3920  143.8650 C   0  0  1  0  0  3  0  0  0  0  0  0
  188.2580  175.4320  141.8380 N   0  0  0  0  0  2  0  0  0  0  0  0
  189.2880  173.5240  143.1510 C   0  0  1  0  0  3  0  0  0  0  0  0
  189.3430  172.0880  141.4720 N   0  0  0  0  0  2  0  0  0  0  0  0
  190.9330  171.8790  143.4370 C   0  0  0  0  0  2  0  0  0  0  0  0
  190.1470  177.8260  144.7160 P   0  0  0  0  0  2  0  0  0  0  0  0
  190.6600  176.7500  147.3330 C   0  0  0  0  0  2  0  0  0  0  0  0
  189.9560  175.4920  146.8360 C   0  0  0  0  0  2  0  0  0  0  0  0
  191.3330  175.8480  146.3190 C   0  0  0  0  0  0  0  0  0  0  0  0
  192.4740  174.9250  146.7940 C   0  0  0  0  0  2  0  0  0  0  0  0
  194.0030  176.8870  146.5660 C   0  0  0  0  0  1  0  0  0  0  0  0
  193.8860  175.3800  146.4220 C   0  0  2  0  0  3  0  0  0  0  0  0
  194.2380  174.9650  145.0650 N   0  0  0  0  0  2  0  0  0  0  0  0
  195.1800  173.9340  144.7310 C   0  0  0  0  0  0  0  0  0  0  0  0
  195.7870  173.2770  145.6730 N   0  0  0  0  0  0  0  0  0  0  0  0
  195.4440  173.6390  143.3900 O   0  0  0  0  0  0  0  0  0  0  0  0
  195.9310  174.6220  142.4890 C   0  0  0  0  0  1  0  0  0  0  0  0
  197.4880  171.4260  145.1880 N   0  0  0  0  0  0  0  0  0  0  0  0
  196.7200  172.2620  145.4080 C   0  0  0  0  0  0  0  0  0  0  0  0
  187.7940  178.1480  140.9170 O   0  0  0  0  0  1  0  0  0  0  0  0
  187.9650  177.8440  142.2690 C   0  0  1  0  0  3  0  0  0  0  0  0
  185.8990  176.6050  142.6880 C   0  0  0  0  0  2  0  0  0  0  0  0
  186.6350  177.6790  142.9730 C   0  0  0  0  0  0  0  0  0  0  0  0
  185.6440  179.7440  143.8180 N   0  0  0  0  0  2  0  0  0  0  0  0
  184.8400  178.6230  144.3250 C   0  0  1  0  0  3  0  0  0  0  0  0
  186.2910  178.4780  144.2010 C   0  0  1  0  0  3  0  0  0  0  0  0
  184.4990  178.8680  145.7130 N   0  0  0  0  0  2  0  0  0  0  0  0
  185.0760  178.6450  147.9520 O   0  0  0  0  0  0  0  0  0  0  0  0
  185.3710  178.4330  146.7480 C   0  0  0  0  0  3  0  0  0  0  0  0
  1 12  1  0  0  0  0
  1  5  2  0  0  0  0
  2  4  1  6  0  0  0
  3 17  1  1  0  0  0
  5 11  1  0  0  0  0
  6 11  1  0  0  0  0
  6 13  1  6  0  0  0
  7 29  1  1  0  0  0
  7  9  1  0  0  0  0
  8  2  1  0  0  0  0
  8  3  1  0  0  0  0
  9  8  1  0  0  0  0
  9 14  1  0  0  0  0
 10  5  1  0  0  0  0
 10  7  1  0  0  0  0
 11  2  1  0  0  0  0
 12  6  1  0  0  0  0
 13  4  1  0  0  0  0
 14  3  1  0  0  0  0
 16 15  1  0  0  0  0
 17 18  1  0  0  0  0
 17 16  1  0  0  0  0
 17 15  1  0  0  0  0
 20 19  1  0  0  0  0
 20 18  1  0  0  0  0
 21 20  1  0  0  0  0
 22 21  1  0  0  0  0
 22 23  2  0  0  0  0
 24 22  1  0  0  0  0
 25 24  1  0  0  0  0
 26 27  3  0  0  0  0
 27 23  1  0  0  0  0
 28 29  1  0  0  0  0
 29 31  1  0  0  0  0
 30 31  2  0  0  0  0
 31 34  1  0  0  0  0
 32 34  1  0  0  0  0
 32 33  1  0  0  0  0
 33 35  1  0  0  0  0
 34 33  1  0  0  0  0
 35 37  1  0  0  0  0
 37 36  2  0  0  0  0
M  END
>  <MODEL>
3

>  <REMARK>
 VINA RESULT:      -6.7      2.309      8.037
  Name = 
  10 active torsions:
  status: ('A' for Active; 'I' for Inactive)
    1  A    between atoms: N_3  and  C_10
    2  A    between atoms: O_4  and  C_15
    3  A    between atoms: C_8  and  C_29
    4  A    between atoms: N_11  and  C_31
    5  A    between atoms: C_13  and  C_29
    6  A    between atoms: C_13  and  C_31
    7  A    between atoms: C_16  and  C_21
    8  A    between atoms: C_16  and  C_34
    9  A    between atoms: C_19  and  N_27
   10  A    between atoms: C_23  and  C_34
                            x       y       z     vdW  Elec       q    Type
                         _______ _______ _______ _____ _____    ______ ____

>  <TORSDO>
F 10

$$$$
=
 OpenBabel11062418493D

 37 42  0  0  1  0  0  0  0  0999 V2000
  187.1370  176.2770  141.3620 N   0  0  0  0  0  0  0  0  0  0  0  0
  189.4730  176.5660  144.1310 C   0  0  1  0  0  3  0  0  0  0  0  0
  190.4810  174.6040  145.6030 C   0  0  1  0  0  3  0  0  0  0  0  0
  188.5720  177.2690  145.1690 C   0  0  0  0  0  2  0  0  0  0  0  0
  188.3360  175.8830  141.8450 C   0  0  0  0  0  0  0  0  0  0  0  0
  187.6520  177.5610  143.0170 C   0  0  1  0  0  3  0  0  0  0  0  0
  189.6830  173.7180  142.3600 C   0  0  1  0  0  3  0  0  0  0  0  0
  189.6390  175.0830  144.4190 C   0  0  2  0  0  3  0  0  0  0  0  0
  190.5390  174.4730  143.3690 C   0  0  1  0  0  3  0  0  0  0  0  0
  188.9510  174.6360  141.4770 N   0  0  0  0  0  2  0  0  0  0  0  0
  188.6890  176.7270  142.8850 C   0  0  1  0  0  3  0  0  0  0  0  0
  186.6960  177.2840  142.1100 N   0  0  0  0  0  2  0  0  0  0  0  0
  187.4810  178.0490  144.3980 C   0  0  0  0  0  2  0  0  0  0  0  0
  191.5040  173.4230  144.5730 P   0  0  0  0  0  2  0  0  0  0  0  0
  190.7730  176.3670  147.4530 C   0  0  0  0  0  2  0  0  0  0  0  0
  191.8340  175.2880  147.6360 C   0  0  0  0  0  2  0  0  0  0  0  0
  191.3740  175.6740  146.2470 C   0  0  0  0  0  0  0  0  0  0  0  0
  192.4100  176.4370  145.3980 C   0  0  0  0  0  2  0  0  0  0  0  0
  194.5180  177.4460  146.2790 C   0  0  0  0  0  1  0  0  0  0  0  0
  193.8740  176.1750  145.7550 C   0  0  2  0  0  3  0  0  0  0  0  0
  194.6180  175.6590  144.6070 N   0  0  0  0  0  2  0  0  0  0  0  0
  195.4430  174.4830  144.6140 C   0  0  0  0  0  0  0  0  0  0  0  0
  195.5640  173.7790  145.6980 N   0  0  0  0  0  0  0  0  0  0  0  0
  196.1190  174.1000  143.4510 O   0  0  0  0  0  0  0  0  0  0  0  0
  195.4250  173.7170  142.2730 C   0  0  0  0  0  1  0  0  0  0  0  0
  197.0140  171.6730  145.8220 N   0  0  0  0  0  0  0  0  0  0  0  0
  196.3590  172.6240  145.7670 C   0  0  0  0  0  0  0  0  0  0  0  0
  189.7890  171.5270  141.3810 O   0  0  0  0  0  1  0  0  0  0  0  0
  190.5020  172.7180  141.5320 C   0  0  1  0  0  3  0  0  0  0  0  0
  192.0970  173.9470  140.1440 C   0  0  0  0  0  2  0  0  0  0  0  0
  190.9480  173.2700  140.1950 C   0  0  0  0  0  0  0  0  0  0  0  0
  189.4220  173.8180  138.3700 N   0  0  0  0  0  2  0  0  0  0  0  0
  190.7640  173.6490  137.7940 C   0  0  1  0  0  3  0  0  0  0  0  0
  190.3380  172.7960  138.9040 C   0  0  1  0  0  3  0  0  0  0  0  0
  190.6620  172.9080  136.5520 N   0  0  0  0  0  2  0  0  0  0  0  0
  189.4060  171.5040  135.1940 O   0  0  0  0  0  0  0  0  0  0  0  0
  189.4940  172.1480  136.2710 C   0  0  0  0  0  3  0  0  0  0  0  0
  1  5  2  0  0  0  0
  1 12  1  0  0  0  0
  2  8  1  0  0  0  0
  2  4  1  1  0  0  0
  3 17  1  6  0  0  0
  5 11  1  0  0  0  0
  6 13  1  1  0  0  0
  7 29  1  6  0  0  0
  7  9  1  0  0  0  0
  8  3  1  0  0  0  0
  9  8  1  0  0  0  0
  9 14  1  0  0  0  0
 10  5  1  0  0  0  0
 10  7  1  0  0  0  0
 11  6  1  0  0  0  0
 11  2  1  0  0  0  0
 12  6  1  0  0  0  0
 13  4  1  0  0  0  0
 14  3  1  0  0  0  0
 15 16  1  0  0  0  0
 17 15  1  0  0  0  0
 17 16  1  0  0  0  0
 18 20  1  0  0  0  0
 18 17  1  0  0  0  0
 20 19  1  0  0  0  0
 21 22  1  0  0  0  0
 21 20  1  0  0  0  0
 22 23  2  0  0  0  0
 23 27  1  0  0  0  0
 24 22  1  0  0  0  0
 25 24  1  0  0  0  0
 27 26  3  0  0  0  0
 28 29  1  0  0  0  0
 30 31  2  0  0  0  0
 31 29  1  0  0  0  0
 32 34  1  0  0  0  0
 33 32  1  0  0  0  0
 33 34  1  0  0  0  0
 34 31  1  0  0  0  0
 35 33  1  0  0  0  0
 36 37  2  0  0  0  0
 37 35  1  0  0  0  0
M  END
>  <MODEL>
4

>  <REMARK>
 VINA RESULT:      -6.6      3.227      7.192
  Name = 
  10 active torsions:
  status: ('A' for Active; 'I' for Inactive)
    1  A    between atoms: N_3  and  C_10
    2  A    between atoms: O_4  and  C_15
    3  A    between atoms: C_8  and  C_29
    4  A    between atoms: N_11  and  C_31
    5  A    between atoms: C_13  and  C_29
    6  A    between atoms: C_13  and  C_31
    7  A    between atoms: C_16  and  C_21
    8  A    between atoms: C_16  and  C_34
    9  A    between atoms: C_19  and  N_27
   10  A    between atoms: C_23  and  C_34
                            x       y       z     vdW  Elec       q    Type
                         _______ _______ _______ _____ _____    ______ ____

>  <TORSDO>
F 10

$$$$
=
 OpenBabel11062418493D

 37 42  0  0  1  0  0  0  0  0999 V2000
  186.0080  178.1670  148.1230 N   0  0  0  0  0  0  0  0  0  0  0  0
  186.1560  177.3780  144.5790 C   0  0  1  0  0  3  0  0  0  0  0  0
  188.1200  177.9290  142.8850 C   0  0  1  0  0  3  0  0  0  0  0  0
  185.0490  178.3160  144.0490 C   0  0  0  0  0  2  0  0  0  0  0  0
  186.7170  177.5460  147.1560 C   0  0  0  0  0  0  0  0  0  0  0  0
  184.7610  178.0070  146.3700 C   0  0  1  0  0  3  0  0  0  0  0  0
  189.1190  177.4700  146.1600 C   0  0  1  0  0  3  0  0  0  0  0  0
  187.5500  177.9160  144.3050 C   0  0  2  0  0  3  0  0  0  0  0  0
  188.5710  176.9400  144.8410 C   0  0  1  0  0  3  0  0  0  0  0  0
  188.1380  177.3390  147.2460 N   0  0  0  0  0  2  0  0  0  0  0  0
  185.9090  177.4080  146.0390 C   0  0  1  0  0  3  0  0  0  0  0  0
  184.8170  178.4890  147.6260 N   0  0  0  0  0  2  0  0  0  0  0  0
  184.0580  178.5800  145.2070 C   0  0  0  0  0  2  0  0  0  0  0  0
  189.7110  177.0710  143.3690 P   0  0  0  0  0  2  0  0  0  0  0  0
  186.1380  177.7800  141.2510 C   0  0  0  0  0  2  0  0  0  0  0  0
  187.4340  177.6550  140.4580 C   0  0  0  0  0  2  0  0  0  0  0  0
  187.3420  177.0910  141.8590 C   0  0  0  0  0  0  0  0  0  0  0  0
  187.3440  175.5520  141.9510 C   0  0  0  0  0  2  0  0  0  0  0  0
  188.0750  174.5040  139.8050 C   0  0  0  0  0  1  0  0  0  0  0  0
  188.4910  174.8500  141.2240 C   0  0  2  0  0  3  0  0  0  0  0  0
  188.9210  173.6500  141.9400 N   0  0  0  0  0  2  0  0  0  0  0  0
  190.2850  173.2670  142.1730 C   0  0  0  0  0  0  0  0  0  0  0  0
  191.2550  174.0170  141.7450 N   0  0  0  0  0  0  0  0  0  0  0  0
  190.5680  172.0820  142.8600 O   0  0  0  0  0  0  0  0  0  0  0  0
  190.5130  170.8150  142.2220 C   0  0  0  0  0  1  0  0  0  0  0  0
  193.7200  173.4260  142.0990 N   0  0  0  0  0  0  0  0  0  0  0  0
  192.6060  173.6920  141.9390 C   0  0  0  0  0  0  0  0  0  0  0  0
  190.8250  177.2140  147.8310 O   0  0  0  0  0  1  0  0  0  0  0  0
  190.4440  176.8010  146.5530 C   0  0  1  0  0  3  0  0  0  0  0  0
  189.3160  174.6550  146.8670 C   0  0  0  0  0  2  0  0  0  0  0  0
  190.4080  175.2920  146.4440 C   0  0  0  0  0  0  0  0  0  0  0  0
  192.4440  175.4490  145.1060 N   0  0  0  0  0  2  0  0  0  0  0  0
  192.7080  174.5170  146.2100 C   0  0  1  0  0  3  0  0  0  0  0  0
  191.3870  174.5420  145.5810 C   0  0  1  0  0  3  0  0  0  0  0  0
  193.4570  173.3810  145.7090 N   0  0  0  0  0  2  0  0  0  0  0  0
  195.4850  172.5370  144.9540 O   0  0  0  0  0  0  0  0  0  0  0  0
  194.8350  173.5230  145.3890 C   0  0  0  0  0  3  0  0  0  0  0  0
  2  4  1  6  0  0  0
  2 11  1  0  0  0  0
  3 17  1  6  0  0  0
  3 14  1  0  0  0  0
  3  8  1  0  0  0  0
  4 13  1  0  0  0  0
  5 10  1  0  0  0  0
  5  1  2  0  0  0  0
  6 13  1  6  0  0  0
  6 12  1  0  0  0  0
  7 29  1  1  0  0  0
  7 10  1  0  0  0  0
  8  2  1  0  0  0  0
  8  9  1  0  0  0  0
  9  7  1  0  0  0  0
 11  6  1  0  0  0  0
 11  5  1  0  0  0  0
 12  1  1  0  0  0  0
 14  9  1  0  0  0  0
 15 17  1  0  0  0  0
 16 15  1  0  0  0  0
 16 17  1  0  0  0  0
 17 18  1  0  0  0  0
 19 20  1  0  0  0  0
 20 21  1  0  0  0  0
 20 18  1  0  0  0  0
 21 22  1  0  0  0  0
 22 24  1  0  0  0  0
 23 27  1  0  0  0  0
 23 22  2  0  0  0  0
 25 24  1  0  0  0  0
 27 26  3  0  0  0  0
 29 28  1  0  0  0  0
 31 29  1  0  0  0  0
 31 30  2  0  0  0  0
 32 34  1  0  0  0  0
 32 33  1  0  0  0  0
 34 33  1  0  0  0  0
 34 31  1  0  0  0  0
 35 33  1  0  0  0  0
 36 37  2  0  0  0  0
 37 35  1  0  0  0  0
M  END
>  <MODEL>
5

>  <REMARK>
 VINA RESULT:      -6.6      2.804      6.175
  Name = 
  10 active torsions:
  status: ('A' for Active; 'I' for Inactive)
    1  A    between atoms: N_3  and  C_10
    2  A    between atoms: O_4  and  C_15
    3  A    between atoms: C_8  and  C_29
    4  A    between atoms: N_11  and  C_31
    5  A    between atoms: C_13  and  C_29
    6  A    between atoms: C_13  and  C_31
    7  A    between atoms: C_16  and  C_21
    8  A    between atoms: C_16  and  C_34
    9  A    between atoms: C_19  and  N_27
   10  A    between atoms: C_23  and  C_34
                            x       y       z     vdW  Elec       q    Type
                         _______ _______ _______ _____ _____    ______ ____

>  <TORSDO>
F 10

$$$$
=
 OpenBabel11062418493D

 37 42  0  0  1  0  0  0  0  0999 V2000
  187.4400  176.2320  141.2510 N   0  0  0  0  0  0  0  0  0  0  0  0
  189.6460  176.4690  144.1290 C   0  0  1  0  0  3  0  0  0  0  0  0
  190.5590  174.4820  145.6290 C   0  0  1  0  0  3  0  0  0  0  0  0
  188.7060  177.1740  145.1300 C   0  0  0  0  0  2  0  0  0  0  0  0
  188.6090  175.8200  141.7860 C   0  0  0  0  0  0  0  0  0  0  0  0
  187.8920  177.4960  142.9400 C   0  0  1  0  0  3  0  0  0  0  0  0
  189.9050  173.6340  142.3450 C   0  0  1  0  0  3  0  0  0  0  0  0
  189.7800  174.9820  144.4110 C   0  0  2  0  0  3  0  0  0  0  0  0
  190.7210  174.3690  143.4000 C   0  0  1  0  0  3  0  0  0  0  0  0
  189.2260  174.5680  141.4360 N   0  0  0  0  0  2  0  0  0  0  0  0
  188.9230  176.6510  142.8490 C   0  0  1  0  0  3  0  0  0  0  0  0
  186.9760  177.2380  141.9870 N   0  0  0  0  0  2  0  0  0  0  0  0
  187.6610  177.9740  144.3160 C   0  0  0  0  0  2  0  0  0  0  0  0
  191.6160  173.2970  144.6380 P   0  0  0  0  0  2  0  0  0  0  0  0
  190.7000  176.4350  147.2980 C   0  0  0  0  0  2  0  0  0  0  0  0
  191.5660  175.2920  147.8120 C   0  0  0  0  0  2  0  0  0  0  0  0
  191.4340  175.5360  146.3240 C   0  0  0  0  0  0  0  0  0  0  0  0
  192.7000  176.0770  145.6300 C   0  0  0  0  0  2  0  0  0  0  0  0
  194.5200  177.5410  146.5140 C   0  0  0  0  0  1  0  0  0  0  0  0
  193.9560  176.1320  146.5010 C   0  0  2  0  0  3  0  0  0  0  0  0
  194.9650  175.1790  146.0410 N   0  0  0  0  0  2  0  0  0  0  0  0
  195.6640  175.2510  144.7890 C   0  0  0  0  0  0  0  0  0  0  0  0
  195.4280  176.2280  143.9670 N   0  0  0  0  0  0  0  0  0  0  0  0
  196.5990  174.2660  144.4550 O   0  0  0  0  0  0  0  0  0  0  0  0
  197.1780  173.4200  145.4370 C   0  0  0  0  0  1  0  0  0  0  0  0
  196.6110  176.4490  141.7070 N   0  0  0  0  0  0  0  0  0  0  0  0
  196.0770  176.3490  142.7280 C   0  0  0  0  0  0  0  0  0  0  0  0
  190.0690  171.4170  141.4360 O   0  0  0  0  0  1  0  0  0  0  0  0
  190.7500  172.6310  141.5480 C   0  0  1  0  0  3  0  0  0  0  0  0
  192.2960  173.8780  140.1220 C   0  0  0  0  0  2  0  0  0  0  0  0
  191.1800  173.1520  140.1930 C   0  0  0  0  0  0  0  0  0  0  0  0
  189.3970  173.3600  138.5390 N   0  0  0  0  0  2  0  0  0  0  0  0
  190.6720  173.6020  137.8520 C   0  0  1  0  0  3  0  0  0  0  0  0
  190.6010  172.6020  138.9180 C   0  0  1  0  0  3  0  0  0  0  0  0
  190.6580  172.9340  136.5650 N   0  0  0  0  0  2  0  0  0  0  0  0
  189.8830  171.1670  135.2720 O   0  0  0  0  0  0  0  0  0  0  0  0
  189.8960  171.7470  136.3880 C   0  0  0  0  0  3  0  0  0  0  0  0
  1  5  2  0  0  0  0
  1 12  1  0  0  0  0
  2  8  1  0  0  0  0
  2  4  1  1  0  0  0
  3 17  1  6  0  0  0
  5 11  1  0  0  0  0
  6 13  1  1  0  0  0
  7 29  1  6  0  0  0
  7  9  1  0  0  0  0
  8  3  1  0  0  0  0
  9  8  1  0  0  0  0
  9 14  1  0  0  0  0
 10  5  1  0  0  0  0
 10  7  1  0  0  0  0
 11  6  1  0  0  0  0
 11  2  1  0  0  0  0
 12  6  1  0  0  0  0
 13  4  1  0  0  0  0
 14  3  1  0  0  0  0
 15 16  1  0  0  0  0
 17 15  1  0  0  0  0
 17 16  1  0  0  0  0
 18 17  1  0  0  0  0
 18 20  1  0  0  0  0
 20 19  1  0  0  0  0
 21 20  1  0  0  0  0
 22 21  1  0  0  0  0
 23 22  2  0  0  0  0
 24 22  1  0  0  0  0
 24 25  1  0  0  0  0
 26 27  3  0  0  0  0
 27 23  1  0  0  0  0
 28 29  1  0  0  0  0
 30 31  2  0  0  0  0
 31 29  1  0  0  0  0
 32 34  1  0  0  0  0
 33 32  1  0  0  0  0
 33 34  1  0  0  0  0
 34 31  1  0  0  0  0
 35 33  1  0  0  0  0
 36 37  2  0  0  0  0
 37 35  1  0  0  0  0
M  END
>  <MODEL>
6

>  <REMARK>
 VINA RESULT:      -6.4      3.041      7.037
  Name = 
  10 active torsions:
  status: ('A' for Active; 'I' for Inactive)
    1  A    between atoms: N_3  and  C_10
    2  A    between atoms: O_4  and  C_15
    3  A    between atoms: C_8  and  C_29
    4  A    between atoms: N_11  and  C_31
    5  A    between atoms: C_13  and  C_29
    6  A    between atoms: C_13  and  C_31
    7  A    between atoms: C_16  and  C_21
    8  A    between atoms: C_16  and  C_34
    9  A    between atoms: C_19  and  N_27
   10  A    between atoms: C_23  and  C_34
                            x       y       z     vdW  Elec       q    Type
                         _______ _______ _______ _____ _____    ______ ____

>  <TORSDO>
F 10

$$$$
=
 OpenBabel11062418493D

 37 42  0  0  1  0  0  0  0  0999 V2000
  192.3910  176.4830  147.6170 N   0  0  0  0  0  0  0  0  0  0  0  0
  190.7450  174.2490  145.2700 C   0  0  1  0  0  3  0  0  0  0  0  0
  191.2240  173.9990  142.6750 C   0  0  1  0  0  3  0  0  0  0  0  0
  189.3360  174.8810  145.2430 C   0  0  0  0  0  2  0  0  0  0  0  0
  192.5750  175.5000  146.7100 C   0  0  0  0  0  0  0  0  0  0  0  0
  190.4710  175.5990  147.1810 C   0  0  1  0  0  3  0  0  0  0  0  0
  193.9470  174.9780  144.5620 C   0  0  1  0  0  3  0  0  0  0  0  0
  191.5620  174.6030  144.0400 C   0  0  2  0  0  3  0  0  0  0  0  0
  192.9160  173.9400  144.1380 C   0  0  1  0  0  3  0  0  0  0  0  0
  193.8030  175.3360  145.9800 N   0  0  0  0  0  2  0  0  0  0  0  0
  191.3510  174.9040  146.4530 C   0  0  1  0  0  3  0  0  0  0  0  0
  191.0890  176.5730  147.8770 N   0  0  0  0  0  2  0  0  0  0  0  0
  189.1240  175.6260  146.5820 C   0  0  0  0  0  2  0  0  0  0  0  0
  192.9710  173.4150  142.3470 P   0  0  0  0  0  2  0  0  0  0  0  0
  190.8290  171.4990  142.2130 C   0  0  0  0  0  2  0  0  0  0  0  0
  190.6620  171.7510  143.7070 C   0  0  0  0  0  2  0  0  0  0  0  0
  190.2520  172.8100  142.7070 C   0  0  0  0  0  0  0  0  0  0  0  0
  188.7330  173.0430  142.5780 C   0  0  0  0  0  2  0  0  0  0  0  0
  188.8640  173.3500  140.1030 C   0  0  0  0  0  1  0  0  0  0  0  0
  188.2980  173.9090  141.3950 C   0  0  2  0  0  3  0  0  0  0  0  0
  188.7080  175.3010  141.5750 N   0  0  0  0  0  2  0  0  0  0  0  0
  187.8900  176.3410  142.1330 C   0  0  0  0  0  0  0  0  0  0  0  0
  186.6850  176.0760  142.5380 N   0  0  0  0  0  0  0  0  0  0  0  0
  188.3940  177.6420  142.2390 O   0  0  0  0  0  0  0  0  0  0  0  0
  189.6870  177.9050  142.7620 C   0  0  0  0  0  1  0  0  0  0  0  0
  185.1410  177.8550  143.5400 N   0  0  0  0  0  0  0  0  0  0  0  0
  185.8390  177.0520  143.0870 C   0  0  0  0  0  0  0  0  0  0  0  0
  196.2360  175.6350  144.2540 O   0  0  0  0  0  1  0  0  0  0  0  0
  195.3840  174.5290  144.2660 C   0  0  1  0  0  3  0  0  0  0  0  0
  196.7900  173.7930  146.1270 C   0  0  0  0  0  2  0  0  0  0  0  0
  195.8830  173.4550  145.2100 C   0  0  0  0  0  0  0  0  0  0  0  0
  195.4410  171.2630  144.2310 N   0  0  0  0  0  2  0  0  0  0  0  0
  196.1060  171.0480  145.5230 C   0  0  1  0  0  3  0  0  0  0  0  0
  195.1540  172.1490  145.3710 C   0  0  1  0  0  3  0  0  0  0  0  0
  195.4630  169.9490  146.2160 N   0  0  0  0  0  2  0  0  0  0  0  0
  195.5880  168.3150  147.8620 O   0  0  0  0  0  0  0  0  0  0  0  0
  196.1460  169.2690  147.2610 C   0  0  0  0  0  3  0  0  0  0  0  0
  1 12  1  0  0  0  0
  2  4  1  6  0  0  0
  2 11  1  0  0  0  0
  3 17  1  1  0  0  0
  3  8  1  0  0  0  0
  4 13  1  0  0  0  0
  5  1  2  0  0  0  0
  6 13  1  6  0  0  0
  6 12  1  0  0  0  0
  7 29  1  1  0  0  0
  7 10  1  0  0  0  0
  8  9  1  0  0  0  0
  8  2  1  0  0  0  0
  9  7  1  0  0  0  0
 10  5  1  0  0  0  0
 11  5  1  0  0  0  0
 11  6  1  0  0  0  0
 14  3  1  0  0  0  0
 14  9  1  0  0  0  0
 15 17  1  0  0  0  0
 15 16  1  0  0  0  0
 17 16  1  0  0  0  0
 18 17  1  0  0  0  0
 19 20  1  0  0  0  0
 20 21  1  0  0  0  0
 20 18  1  0  0  0  0
 21 22  1  0  0  0  0
 22 24  1  0  0  0  0
 22 23  2  0  0  0  0
 23 27  1  0  0  0  0
 24 25  1  0  0  0  0
 27 26  3  0  0  0  0
 28 29  1  0  0  0  0
 29 31  1  0  0  0  0
 31 34  1  0  0  0  0
 31 30  2  0  0  0  0
 32 34  1  0  0  0  0
 32 33  1  0  0  0  0
 33 35  1  0  0  0  0
 34 33  1  0  0  0  0
 35 37  1  0  0  0  0
 37 36  2  0  0  0  0
M  END
>  <MODEL>
7

>  <REMARK>
 VINA RESULT:      -6.3      2.945      5.362
  Name = 
  10 active torsions:
  status: ('A' for Active; 'I' for Inactive)
    1  A    between atoms: N_3  and  C_10
    2  A    between atoms: O_4  and  C_15
    3  A    between atoms: C_8  and  C_29
    4  A    between atoms: N_11  and  C_31
    5  A    between atoms: C_13  and  C_29
    6  A    between atoms: C_13  and  C_31
    7  A    between atoms: C_16  and  C_21
    8  A    between atoms: C_16  and  C_34
    9  A    between atoms: C_19  and  N_27
   10  A    between atoms: C_23  and  C_34
                            x       y       z     vdW  Elec       q    Type
                         _______ _______ _______ _____ _____    ______ ____

>  <TORSDO>
F 10

$$$$
=
 OpenBabel11062418493D

 37 42  0  0  1  0  0  0  0  0999 V2000
  188.7000  172.9170  142.1410 N   0  0  0  0  0  0  0  0  0  0  0  0
  191.6270  173.4400  144.2310 C   0  0  1  0  0  3  0  0  0  0  0  0
  193.3620  175.4400  144.1050 C   0  0  1  0  0  3  0  0  0  0  0  0
  192.5080  172.2640  143.7550 C   0  0  0  0  0  2  0  0  0  0  0  0
  189.3230  173.7740  142.9790 C   0  0  0  0  0  0  0  0  0  0  0  0
  190.2650  171.8410  143.1640 C   0  0  1  0  0  3  0  0  0  0  0  0
  190.1600  176.2350  143.0800 C   0  0  1  0  0  3  0  0  0  0  0  0
  192.0680  174.7690  143.6420 C   0  0  2  0  0  3  0  0  0  0  0  0
  191.1660  175.8640  144.1630 C   0  0  1  0  0  3  0  0  0  0  0  0
  189.1320  175.1980  142.9180 N   0  0  0  0  0  2  0  0  0  0  0  0
  190.3060  173.0800  143.6660 C   0  0  1  0  0  3  0  0  0  0  0  0
  189.3060  171.7370  142.2240 N   0  0  0  0  0  2  0  0  0  0  0  0
  191.5720  171.1610  143.2090 C   0  0  0  0  0  2  0  0  0  0  0  0
  192.5460  177.0870  144.4530 P   0  0  0  0  0  2  0  0  0  0  0  0
  194.3950  175.8880  146.4180 C   0  0  0  0  0  2  0  0  0  0  0  0
  193.1120  175.0870  146.6040 C   0  0  0  0  0  2  0  0  0  0  0  0
  193.9800  174.8590  145.3860 C   0  0  0  0  0  0  0  0  0  0  0  0
  194.7220  173.5090  145.3490 C   0  0  0  0  0  2  0  0  0  0  0  0
  197.0000  173.7680  146.3390 C   0  0  0  0  0  1  0  0  0  0  0  0
  196.2200  173.5890  145.0500 C   0  0  2  0  0  3  0  0  0  0  0  0
  196.5190  174.6730  144.1150 N   0  0  0  0  0  2  0  0  0  0  0  0
  196.6890  174.5220  142.6970 C   0  0  0  0  0  0  0  0  0  0  0  0
  196.5660  173.3520  142.1470 N   0  0  0  0  0  0  0  0  0  0  0  0
  196.9890  175.6370  141.9080 O   0  0  0  0  0  0  0  0  0  0  0  0
  196.1510  176.7830  141.8820 C   0  0  0  0  0  1  0  0  0  0  0  0
  196.8570  172.9710  139.6320 N   0  0  0  0  0  0  0  0  0  0  0  0
  196.7260  173.1420  140.7680 C   0  0  0  0  0  0  0  0  0  0  0  0
  189.0460  178.1380  142.1290 O   0  0  0  0  0  1  0  0  0  0  0  0
  189.5080  177.6010  143.3330 C   0  0  1  0  0  3  0  0  0  0  0  0
  188.7680  177.5740  145.6630 C   0  0  0  0  0  2  0  0  0  0  0  0
  188.4140  177.5590  144.3780 C   0  0  0  0  0  0  0  0  0  0  0  0
  186.3070  176.6120  143.5870 N   0  0  0  0  0  2  0  0  0  0  0  0
  186.0790  177.1390  144.9390 C   0  0  1  0  0  3  0  0  0  0  0  0
  186.9790  177.8460  144.0270 C   0  0  1  0  0  3  0  0  0  0  0  0
  184.8000  177.8230  144.9770 N   0  0  0  0  0  2  0  0  0  0  0  0
  183.2820  179.2210  143.9120 O   0  0  0  0  0  0  0  0  0  0  0  0
  184.3920  178.6280  143.8790 C   0  0  0  0  0  3  0  0  0  0  0  0
  1 12  1  0  0  0  0
  1  5  2  0  0  0  0
  2  4  1  6  0  0  0
  3 14  1  0  0  0  0
  3 17  1  1  0  0  0
  5 11  1  0  0  0  0
  6 13  1  6  0  0  0
  6 11  1  0  0  0  0
  7 29  1  1  0  0  0
  7  9  1  0  0  0  0
  8  3  1  0  0  0  0
  8  9  1  0  0  0  0
  8  2  1  0  0  0  0
  9 14  1  0  0  0  0
 10  5  1  0  0  0  0
 10  7  1  0  0  0  0
 11  2  1  0  0  0  0
 12  6  1  0  0  0  0
 13  4  1  0  0  0  0
 15 16  1  0  0  0  0
 17 15  1  0  0  0  0
 17 16  1  0  0  0  0
 18 17  1  0  0  0  0
 20 18  1  0  0  0  0
 20 19  1  0  0  0  0
 21 20  1  0  0  0  0
 22 21  1  0  0  0  0
 23 22  2  0  0  0  0
 24 22  1  0  0  0  0
 25 24  1  0  0  0  0
 26 27  3  0  0  0  0
 27 23  1  0  0  0  0
 28 29  1  0  0  0  0
 29 31  1  0  0  0  0
 31 30  2  0  0  0  0
 32 34  1  0  0  0  0
 32 33  1  0  0  0  0
 33 35  1  0  0  0  0
 34 31  1  0  0  0  0
 34 33  1  0  0  0  0
 37 36  2  0  0  0  0
 37 35  1  0  0  0  0
M  END
>  <MODEL>
8

>  <REMARK>
 VINA RESULT:      -6.3      2.153      8.177
  Name = 
  10 active torsions:
  status: ('A' for Active; 'I' for Inactive)
    1  A    between atoms: N_3  and  C_10
    2  A    between atoms: O_4  and  C_15
    3  A    between atoms: C_8  and  C_29
    4  A    between atoms: N_11  and  C_31
    5  A    between atoms: C_13  and  C_29
    6  A    between atoms: C_13  and  C_31
    7  A    between atoms: C_16  and  C_21
    8  A    between atoms: C_16  and  C_34
    9  A    between atoms: C_19  and  N_27
   10  A    between atoms: C_23  and  C_34
                            x       y       z     vdW  Elec       q    Type
                         _______ _______ _______ _____ _____    ______ ____

>  <TORSDO>
F 10

$$$$
=
 OpenBabel11062418493D

 37 42  0  0  1  0  0  0  0  0999 V2000
  188.8800  177.5690  146.6570 N   0  0  0  0  0  0  0  0  0  0  0  0
  191.6500  175.4980  145.5410 C   0  0  1  0  0  3  0  0  0  0  0  0
  191.5210  173.2470  144.1460 C   0  0  1  0  0  3  0  0  0  0  0  0
  192.1500  174.9640  146.9010 C   0  0  0  0  0  2  0  0  0  0  0  0
  189.4780  177.0040  145.5870 C   0  0  0  0  0  0  0  0  0  0  0  0
  190.8390  176.8920  147.2580 C   0  0  1  0  0  3  0  0  0  0  0  0
  188.9350  175.4630  143.5620 C   0  0  1  0  0  3  0  0  0  0  0  0
  190.8420  174.4650  144.7760 C   0  0  2  0  0  3  0  0  0  0  0  0
  190.4000  175.0580  143.4580 C   0  0  1  0  0  3  0  0  0  0  0  0
  188.7630  176.6680  144.3840 N   0  0  0  0  0  2  0  0  0  0  0  0
  190.7510  176.5990  145.9560 C   0  0  1  0  0  3  0  0  0  0  0  0
  189.7020  177.4630  147.6980 N   0  0  0  0  0  2  0  0  0  0  0  0
  191.7430  175.9850  147.9890 C   0  0  0  0  0  2  0  0  0  0  0  0
  190.7580  173.5220  142.4600 P   0  0  0  0  0  2  0  0  0  0  0  0
  193.7870  172.6450  145.2060 C   0  0  0  0  0  2  0  0  0  0  0  0
  193.6900  171.9660  143.8440 C   0  0  0  0  0  2  0  0  0  0  0  0
  193.0530  173.3210  144.0650 C   0  0  0  0  0  0  0  0  0  0  0  0
  193.7380  174.4970  143.3410 C   0  0  0  0  0  2  0  0  0  0  0  0
  195.1710  176.0070  144.7210 C   0  0  0  0  0  1  0  0  0  0  0  0
  195.1670  174.8060  143.7930 C   0  0  2  0  0  3  0  0  0  0  0  0
  196.0480  175.0370  142.6490 N   0  0  0  0  0  2  0  0  0  0  0  0
  196.7790  174.0200  141.9470 C   0  0  0  0  0  0  0  0  0  0  0  0
  196.6750  172.7760  142.3080 N   0  0  0  0  0  0  0  0  0  0  0  0
  197.6050  174.3710  140.8740 O   0  0  0  0  0  0  0  0  0  0  0  0
  197.4570  175.6040  140.1870 C   0  0  0  0  0  1  0  0  0  0  0  0
  197.9390  170.8860  141.1310 N   0  0  0  0  0  0  0  0  0  0  0  0
  197.3680  171.7400  141.6620 C   0  0  0  0  0  0  0  0  0  0  0  0
  187.4800  174.5570  141.8800 O   0  0  0  0  0  1  0  0  0  0  0  0
  188.2850  175.6570  142.1860 C   0  0  1  0  0  3  0  0  0  0  0  0
  188.1580  178.0220  141.5810 C   0  0  0  0  0  2  0  0  0  0  0  0
  187.5180  176.9560  142.0620 C   0  0  0  0  0  0  0  0  0  0  0  0
  185.5680  176.8560  143.5280 N   0  0  0  0  0  2  0  0  0  0  0  0
  185.5680  178.1720  142.8750 C   0  0  1  0  0  3  0  0  0  0  0  0
  186.0150  176.9930  142.1320 C   0  0  1  0  0  3  0  0  0  0  0  0
  184.2150  178.5070  142.4740 N   0  0  0  0  0  2  0  0  0  0  0  0
  182.5470  178.3690  140.8640 O   0  0  0  0  0  0  0  0  0  0  0  0
  183.7200  178.0780  141.2120 C   0  0  0  0  0  3  0  0  0  0  0  0
  1 12  1  0  0  0  0
  2 11  1  0  0  0  0
  2  4  1  1  0  0  0
  3 17  1  6  0  0  0
  3  8  1  0  0  0  0
  4 13  1  0  0  0  0
  5 11  1  0  0  0  0
  5  1  2  0  0  0  0
  6 12  1  0  0  0  0
  6 13  1  1  0  0  0
  7 29  1  6  0  0  0
  7 10  1  0  0  0  0
  8  2  1  0  0  0  0
  9  7  1  0  0  0  0
  9  8  1  0  0  0  0
 10  5  1  0  0  0  0
 11  6  1  0  0  0  0
 14  9  1  0  0  0  0
 14  3  1  0  0  0  0
 16 17  1  0  0  0  0
 16 15  1  0  0  0  0
 17 15  1  0  0  0  0
 18 20  1  0  0  0  0
 18 17  1  0  0  0  0
 20 19  1  0  0  0  0
 21 20  1  0  0  0  0
 22 23  2  0  0  0  0
 22 21  1  0  0  0  0
 24 22  1  0  0  0  0
 25 24  1  0  0  0  0
 26 27  3  0  0  0  0
 27 23  1  0  0  0  0
 28 29  1  0  0  0  0
 30 31  2  0  0  0  0
 31 34  1  0  0  0  0
 31 29  1  0  0  0  0
 33 32  1  0  0  0  0
 34 33  1  0  0  0  0
 34 32  1  0  0  0  0
 35 33  1  0  0  0  0
 36 37  2  0  0  0  0
 37 35  1  0  0  0  0
M  END
>  <MODEL>
9

>  <REMARK>
 VINA RESULT:      -6.3      2.560      8.879
  Name = 
  10 active torsions:
  status: ('A' for Active; 'I' for Inactive)
    1  A    between atoms: N_3  and  C_10
    2  A    between atoms: O_4  and  C_15
    3  A    between atoms: C_8  and  C_29
    4  A    between atoms: N_11  and  C_31
    5  A    between atoms: C_13  and  C_29
    6  A    between atoms: C_13  and  C_31
    7  A    between atoms: C_16  and  C_21
    8  A    between atoms: C_16  and  C_34
    9  A    between atoms: C_19  and  N_27
   10  A    between atoms: C_23  and  C_34
                            x       y       z     vdW  Elec       q    Type
                         _______ _______ _______ _____ _____    ______ ____

>  <TORSDO>
F 10

$$$$
