=
 OpenBabel11062422553D

 29 32  0  0  1  0  0  0  0  0999 V2000
  184.4830  177.9170  142.0070 S   0  0  0  0  0  0  0  0  0  0  0  0
  183.4890  179.3040  143.9790 O   0  0  0  0  0  0  0  0  0  0  0  0
  189.7680  174.4550  141.4070 C   0  0  0  0  0  2  0  0  0  0  0  0
  188.4320  176.2650  143.1150 C   0  0  0  0  0  0  0  0  0  0  0  0
  188.1060  177.1970  145.3730 N   0  0  0  0  0  2  0  0  0  0  0  0
  188.5610  175.1840  141.0090 N   0  0  0  0  0  0  0  0  0  0  0  0
  186.6980  177.3280  147.3820 C   0  0  0  0  0  2  0  0  0  0  0  0
  185.5340  178.2860  144.2970 N   0  0  0  0  0  0  0  0  0  0  0  0
  186.4020  177.4940  143.5970 C   0  0  0  0  0  0  0  0  0  0  0  0
  185.7490  178.8240  145.6370 C   0  0  0  0  0  2  0  0  0  0  0  0
  187.9120  175.9670  141.8230 C   0  0  0  0  0  0  0  0  0  0  0  0
  189.6760  175.8800  143.4380 C   0  0  0  0  0  3  0  0  0  0  0  0
  185.4250  177.7780  146.6870 C   0  0  0  0  0  2  0  0  0  0  0  0
  185.9780  177.2140  142.3070 C   0  0  0  0  0  0  0  0  0  0  0  0
  186.7050  176.4680  141.4410 N   0  0  0  0  0  0  0  0  0  0  0  0
  184.4360  178.5870  143.5580 C   0  0  0  0  0  0  0  0  0  0  0  0
  190.5830  175.2630  142.4130 C   0  0  0  0  0  2  0  0  0  0  0  0
  187.6430  176.9900  144.0360 C   0  0  0  0  0  0  0  0  0  0  0  0
  187.5370  176.4350  146.4760 C   0  0  2  0  0  3  0  0  0  0  0  0
  188.6380  175.7320  147.2630 C   0  0  0  0  0  2  0  0  0  0  0  0
  189.2110  174.5390  146.5110 C   0  0  0  0  0  2  0  0  0  0  0  0
  190.7190  174.5460  146.6320 C   0  0  0  0  0  2  0  0  0  0  0  0
  191.1690  175.8600  147.1840 C   0  0  0  0  0  3  0  0  0  0  0  0
  192.3450  176.4160  146.8670 C   0  0  0  0  0  3  0  0  0  0  0  0
  193.3280  175.7910  145.9210 C   0  0  2  0  0  3  0  0  0  0  0  0
  194.6550  175.8260  146.5100 N   0  0  0  0  0  1  0  0  0  0  0  0
  192.6120  177.5240  144.4500 O   0  0  0  0  0  1  0  0  0  0  0  0
  194.1500  176.0680  143.5730 O   0  0  0  0  0  0  0  0  0  0  0  0
  193.3410  176.5100  144.6130 C   0  0  0  0  0  0  0  0  0  0  0  0
  1 14  1  0  0  0  0
  1 16  1  0  0  0  0
  3 17  1  0  0  0  0
  4 12  2  0  0  0  0
  4 18  1  0  0  0  0
  5 19  1  0  0  0  0
  6  3  1  0  0  0  0
  6 11  2  0  0  0  0
  8 10  1  0  0  0  0
  9 18  2  0  0  0  0
  9  8  1  0  0  0  0
 10 13  1  0  0  0  0
 11  4  1  0  0  0  0
 13  7  1  0  0  0  0
 14  9  1  0  0  0  0
 15 11  1  0  0  0  0
 15 14  2  0  0  0  0
 16  2  2  0  0  0  0
 16  8  1  0  0  0  0
 17 12  1  0  0  0  0
 18  5  1  0  0  0  0
 19 20  1  1  0  0  0
 19  7  1  0  0  0  0
 21 22  1  0  0  0  0
 21 20  1  0  0  0  0
 22 23  1  0  0  0  0
 24 23  2  0  0  0  0
 25 26  1  1  0  0  0
 25 24  1  0  0  0  0
 27 29  1  0  0  0  0
 28 29  2  0  0  0  0
 29 25  1  0  0  0  0
M  END
>  <MODEL>
1

>  <REMARK>
 VINA RESULT:      -7.1      0.000      0.000
  Name = 
  6 active torsions:
  status: ('A' for Active; 'I' for Inactive)
    1  A    between atoms: C_1  and  C_18
    2  A    between atoms: C_9  and  CA_14
    3  A    between atoms: C_13  and  C_18
    4  A    between atoms: C_13  and  C_24
    5  A    between atoms: CA_14  and  C_15
    6  A    between atoms: C_24  and  C_29
                            x       y       z     vdW  Elec       q    Type
                         _______ _______ _______ _____ _____    ______ ____

>  <TORSDO>
F 6

$$$$
=
 OpenBabel11062422553D

 29 32  0  0  1  0  0  0  0  0999 V2000
  184.5530  177.9000  142.1300 S   0  0  0  0  0  0  0  0  0  0  0  0
  183.6440  179.2430  144.1720 O   0  0  0  0  0  0  0  0  0  0  0  0
  189.7640  174.3830  141.2600 C   0  0  0  0  0  2  0  0  0  0  0  0
  188.5100  176.1610  143.0610 C   0  0  0  0  0  0  0  0  0  0  0  0
  188.2710  177.0320  145.3550 N   0  0  0  0  0  2  0  0  0  0  0  0
  188.5550  175.1400  140.9230 N   0  0  0  0  0  0  0  0  0  0  0  0
  186.9300  177.1250  147.4110 C   0  0  0  0  0  2  0  0  0  0  0  0
  185.6820  178.1870  144.3940 N   0  0  0  0  0  0  0  0  0  0  0  0
  186.5150  177.4040  143.6440 C   0  0  0  0  0  0  0  0  0  0  0  0
  185.9480  178.6840  145.7410 C   0  0  0  0  0  2  0  0  0  0  0  0
  187.9440  175.9080  141.7790 C   0  0  0  0  0  0  0  0  0  0  0  0
  189.7580  175.7500  143.3320 C   0  0  0  0  0  3  0  0  0  0  0  0
  185.6420  177.6120  146.7710 C   0  0  0  0  0  2  0  0  0  0  0  0
  186.0460  177.1670  142.3610 C   0  0  0  0  0  0  0  0  0  0  0  0
  186.7330  176.4370  141.4510 N   0  0  0  0  0  0  0  0  0  0  0  0
  184.5660  178.5250  143.7000 C   0  0  0  0  0  0  0  0  0  0  0  0
  190.6220  175.1500  142.2610 C   0  0  0  0  0  2  0  0  0  0  0  0
  187.7620  176.8700  144.0280 C   0  0  0  0  0  0  0  0  0  0  0  0
  187.7260  176.2460  146.4530 C   0  0  2  0  0  3  0  0  0  0  0  0
  188.8410  175.5050  147.1830 C   0  0  0  0  0  2  0  0  0  0  0  0
  190.1140  176.3320  147.2800 C   0  0  0  0  0  2  0  0  0  0  0  0
  191.2770  175.4270  147.6240 C   0  0  0  0  0  2  0  0  0  0  0  0
  191.6340  174.6000  146.4320 C   0  0  0  0  0  3  0  0  0  0  0  0
  192.5840  174.9570  145.5580 C   0  0  0  0  0  3  0  0  0  0  0  0
  193.3950  176.2130  145.6850 C   0  0  2  0  0  3  0  0  0  0  0  0
  192.8980  177.2060  144.7490 N   0  0  0  0  0  1  0  0  0  0  0  0
  195.4380  176.5960  144.5170 O   0  0  0  0  0  0  0  0  0  0  0  0
  195.5250  174.9780  146.1390 O   0  0  0  0  0  1  0  0  0  0  0  0
  194.8380  175.9440  145.4120 C   0  0  0  0  0  0  0  0  0  0  0  0
  1 14  1  0  0  0  0
  1 16  1  0  0  0  0
  3 17  1  0  0  0  0
  4 12  2  0  0  0  0
  4 18  1  0  0  0  0
  5 19  1  0  0  0  0
  6  3  1  0  0  0  0
  6 11  2  0  0  0  0
  8 10  1  0  0  0  0
  9 18  2  0  0  0  0
  9  8  1  0  0  0  0
 10 13  1  0  0  0  0
 11  4  1  0  0  0  0
 13  7  1  0  0  0  0
 14  9  1  0  0  0  0
 15 11  1  0  0  0  0
 15 14  2  0  0  0  0
 16  2  2  0  0  0  0
 16  8  1  0  0  0  0
 17 12  1  0  0  0  0
 18  5  1  0  0  0  0
 19 20  1  1  0  0  0
 19  7  1  0  0  0  0
 20 21  1  0  0  0  0
 21 22  1  0  0  0  0
 23 22  1  0  0  0  0
 24 25  1  0  0  0  0
 24 23  2  0  0  0  0
 25 26  1  6  0  0  0
 27 29  2  0  0  0  0
 29 25  1  0  0  0  0
 29 28  1  0  0  0  0
M  END
>  <MODEL>
2

>  <REMARK>
 VINA RESULT:      -7.1      0.987      1.230
  Name = 
  6 active torsions:
  status: ('A' for Active; 'I' for Inactive)
    1  A    between atoms: C_1  and  C_18
    2  A    between atoms: C_9  and  CA_14
    3  A    between atoms: C_13  and  C_18
    4  A    between atoms: C_13  and  C_24
    5  A    between atoms: CA_14  and  C_15
    6  A    between atoms: C_24  and  C_29
                            x       y       z     vdW  Elec       q    Type
                         _______ _______ _______ _____ _____    ______ ____

>  <TORSDO>
F 6

$$$$
=
 OpenBabel11062422553D

 29 32  0  0  1  0  0  0  0  0999 V2000
  194.3700  175.9160  142.2060 S   0  0  0  0  0  0  0  0  0  0  0  0
  195.7000  176.4680  144.3800 O   0  0  0  0  0  0  0  0  0  0  0  0
  188.6820  173.2930  141.1830 C   0  0  0  0  0  2  0  0  0  0  0  0
  190.5940  173.8370  143.1900 C   0  0  0  0  0  0  0  0  0  0  0  0
  191.1260  174.1540  145.5760 N   0  0  0  0  0  2  0  0  0  0  0  0
  190.0260  173.7960  140.8890 N   0  0  0  0  0  0  0  0  0  0  0  0
  191.6800  175.7150  147.3900 C   0  0  0  0  0  2  0  0  0  0  0  0
  193.6600  175.4170  144.6000 N   0  0  0  0  0  0  0  0  0  0  0  0
  192.6530  174.9590  143.7950 C   0  0  0  0  0  0  0  0  0  0  0  0
  193.7310  175.2800  146.0510 C   0  0  0  0  0  2  0  0  0  0  0  0
  190.8810  174.1070  141.8220 C   0  0  0  0  0  0  0  0  0  0  0  0
  189.5170  173.1040  143.5140 C   0  0  0  0  0  3  0  0  0  0  0  0
  192.8920  176.3480  146.7270 C   0  0  0  0  0  2  0  0  0  0  0  0
  192.8990  175.1410  142.4430 C   0  0  0  0  0  0  0  0  0  0  0  0
  192.0390  174.7350  141.4790 N   0  0  0  0  0  0  0  0  0  0  0  0
  194.6590  175.9740  143.8700 C   0  0  0  0  0  0  0  0  0  0  0  0
  188.6860  172.4450  142.4520 C   0  0  0  0  0  2  0  0  0  0  0  0
  191.4620  174.3190  144.1960 C   0  0  0  0  0  0  0  0  0  0  0  0
  190.6460  175.2860  146.3570 C   0  0  2  0  0  3  0  0  0  0  0  0
  189.3140  174.9490  147.0190 C   0  0  0  0  0  2  0  0  0  0  0  0
  188.2470  175.9950  146.7310 C   0  0  0  0  0  2  0  0  0  0  0  0
  188.0920  176.1550  145.2350 C   0  0  0  0  0  2  0  0  0  0  0  0
  188.0200  177.6090  144.8940 C   0  0  0  0  0  3  0  0  0  0  0  0
  186.8810  178.2160  144.5400 C   0  0  0  0  0  3  0  0  0  0  0  0
  185.5590  177.5120  144.4560 C   0  0  2  0  0  3  0  0  0  0  0  0
  184.8340  177.9820  143.2890 N   0  0  0  0  0  1  0  0  0  0  0  0
  184.8020  176.9460  146.6440 O   0  0  0  0  0  1  0  0  0  0  0  0
  183.9280  178.8780  145.7760 O   0  0  0  0  0  0  0  0  0  0  0  0
  184.7460  177.7590  145.6850 C   0  0  0  0  0  0  0  0  0  0  0  0
  1 14  1  0  0  0  0
  1 16  1  0  0  0  0
  3 17  1  0  0  0  0
  4 12  2  0  0  0  0
  4 18  1  0  0  0  0
  5 19  1  0  0  0  0
  6  3  1  0  0  0  0
  6 11  2  0  0  0  0
  8 10  1  0  0  0  0
  9 18  2  0  0  0  0
  9  8  1  0  0  0  0
 10 13  1  0  0  0  0
 11  4  1  0  0  0  0
 13  7  1  0  0  0  0
 14  9  1  0  0  0  0
 15 11  1  0  0  0  0
 15 14  2  0  0  0  0
 16  2  2  0  0  0  0
 16  8  1  0  0  0  0
 17 12  1  0  0  0  0
 18  5  1  0  0  0  0
 19 20  1  1  0  0  0
 19  7  1  0  0  0  0
 21 20  1  0  0  0  0
 22 21  1  0  0  0  0
 23 22  1  0  0  0  0
 24 23  2  0  0  0  0
 25 26  1  6  0  0  0
 25 24  1  0  0  0  0
 25 29  1  0  0  0  0
 29 28  2  0  0  0  0
 29 27  1  0  0  0  0
M  END
>  <MODEL>
3

>  <REMARK>
 VINA RESULT:      -7.1      2.680      6.810
  Name = 
  6 active torsions:
  status: ('A' for Active; 'I' for Inactive)
    1  A    between atoms: C_1  and  C_18
    2  A    between atoms: C_9  and  CA_14
    3  A    between atoms: C_13  and  C_18
    4  A    between atoms: C_13  and  C_24
    5  A    between atoms: CA_14  and  C_15
    6  A    between atoms: C_24  and  C_29
                            x       y       z     vdW  Elec       q    Type
                         _______ _______ _______ _____ _____    ______ ____

>  <TORSDO>
F 6

$$$$
=
 OpenBabel11062422553D

 29 32  0  0  1  0  0  0  0  0999 V2000
  184.4240  178.5420  146.3410 S   0  0  0  0  0  0  0  0  0  0  0  0
  185.9990  178.1210  148.3760 O   0  0  0  0  0  0  0  0  0  0  0  0
  185.1090  177.6240  140.0990 C   0  0  0  0  0  2  0  0  0  0  0  0
  186.5040  177.5980  142.5560 C   0  0  0  0  0  0  0  0  0  0  0  0
  188.4260  176.8240  143.8900 N   0  0  0  0  0  2  0  0  0  0  0  0
  184.5290  178.1170  141.3510 N   0  0  0  0  0  0  0  0  0  0  0  0
  189.2630  175.3390  145.6580 C   0  0  0  0  0  2  0  0  0  0  0  0
  186.8140  177.6670  146.2680 N   0  0  0  0  0  0  0  0  0  0  0  0
  186.3820  177.7190  144.9710 C   0  0  0  0  0  0  0  0  0  0  0  0
  188.1540  177.2990  146.7140 C   0  0  0  0  0  2  0  0  0  0  0  0
  185.1520  178.0420  142.4930 C   0  0  0  0  0  0  0  0  0  0  0  0
  187.2000  177.4180  141.4220 C   0  0  0  0  0  3  0  0  0  0  0  0
  188.3050  175.7890  146.7480 C   0  0  0  0  0  2  0  0  0  0  0  0
  185.0880  178.2000  144.8380 C   0  0  0  0  0  0  0  0  0  0  0  0
  184.4820  178.3540  143.6360 N   0  0  0  0  0  0  0  0  0  0  0  0
  185.8460  178.0770  147.1260 C   0  0  0  0  0  0  0  0  0  0  0  0
  186.6240  177.8110  140.0930 C   0  0  0  0  0  2  0  0  0  0  0  0
  187.1100  177.3790  143.8130 C   0  0  0  0  0  0  0  0  0  0  0  0
  188.6180  175.4350  144.2810 C   0  0  2  0  0  3  0  0  0  0  0  0
  189.4450  174.6960  143.2340 C   0  0  0  0  0  2  0  0  0  0  0  0
  190.2620  175.6460  142.3700 C   0  0  0  0  0  2  0  0  0  0  0  0
  191.6950  175.6580  142.8550 C   0  0  0  0  0  2  0  0  0  0  0  0
  192.0090  176.9920  143.4500 C   0  0  0  0  0  3  0  0  0  0  0  0
  192.6740  177.1350  144.6030 C   0  0  0  0  0  3  0  0  0  0  0  0
  193.1830  175.9790  145.4140 C   0  0  2  0  0  3  0  0  0  0  0  0
  192.7080  176.0990  146.7800 N   0  0  0  0  0  1  0  0  0  0  0  0
  195.3200  176.7870  144.7340 O   0  0  0  0  0  0  0  0  0  0  0  0
  195.3590  174.9660  146.1250 O   0  0  0  0  0  1  0  0  0  0  0  0
  194.6760  175.9370  145.4030 C   0  0  0  0  0  0  0  0  0  0  0  0
  1 16  1  0  0  0  0
  3  6  1  0  0  0  0
  4 18  1  0  0  0  0
  5 19  1  0  0  0  0
  6 11  2  0  0  0  0
  7 13  1  0  0  0  0
  8 10  1  0  0  0  0
  8 16  1  0  0  0  0
  9  8  1  0  0  0  0
 10 13  1  0  0  0  0
 11  4  1  0  0  0  0
 11 15  1  0  0  0  0
 12  4  2  0  0  0  0
 14  9  1  0  0  0  0
 14  1  1  0  0  0  0
 15 14  2  0  0  0  0
 16  2  2  0  0  0  0
 17  3  1  0  0  0  0
 17 12  1  0  0  0  0
 18  5  1  0  0  0  0
 18  9  2  0  0  0  0
 19 20  1  6  0  0  0
 19  7  1  0  0  0  0
 21 22  1  0  0  0  0
 21 20  1  0  0  0  0
 22 23  1  0  0  0  0
 23 24  2  0  0  0  0
 24 25  1  0  0  0  0
 25 26  1  1  0  0  0
 27 29  2  0  0  0  0
 29 25  1  0  0  0  0
 29 28  1  0  0  0  0
M  END
>  <MODEL>
4

>  <REMARK>
 VINA RESULT:      -7.0      2.006      3.483
  Name = 
  6 active torsions:
  status: ('A' for Active; 'I' for Inactive)
    1  A    between atoms: C_1  and  C_18
    2  A    between atoms: C_9  and  CA_14
    3  A    between atoms: C_13  and  C_18
    4  A    between atoms: C_13  and  C_24
    5  A    between atoms: CA_14  and  C_15
    6  A    between atoms: C_24  and  C_29
                            x       y       z     vdW  Elec       q    Type
                         _______ _______ _______ _____ _____    ______ ____

>  <TORSDO>
F 6

$$$$
=
 OpenBabel11062422553D

 29 32  0  0  1  0  0  0  0  0999 V2000
  184.2210  178.2900  141.6640 S   0  0  0  0  0  0  0  0  0  0  0  0
  185.8650  177.6850  139.7320 O   0  0  0  0  0  0  0  0  0  0  0  0
  184.8170  178.3090  147.9830 C   0  0  0  0  0  2  0  0  0  0  0  0
  186.1060  177.5330  145.5910 C   0  0  0  0  0  0  0  0  0  0  0  0
  188.1820  176.9480  144.4000 N   0  0  0  0  0  2  0  0  0  0  0  0
  184.1620  178.3520  146.6730 N   0  0  0  0  0  0  0  0  0  0  0  0
  189.9150  177.6210  142.7940 C   0  0  0  0  0  2  0  0  0  0  0  0
  186.6050  177.4280  141.9010 N   0  0  0  0  0  0  0  0  0  0  0  0
  186.1340  177.6130  143.1720 C   0  0  0  0  0  0  0  0  0  0  0  0
  187.9040  176.8700  141.5380 C   0  0  0  0  0  2  0  0  0  0  0  0
  184.7820  178.0560  145.5660 C   0  0  0  0  0  0  0  0  0  0  0  0
  186.6610  177.1810  146.7610 C   0  0  0  0  0  3  0  0  0  0  0  0
  188.9830  177.9330  141.6350 C   0  0  0  0  0  2  0  0  0  0  0  0
  184.8250  178.0680  143.2150 C   0  0  0  0  0  0  0  0  0  0  0  0
  184.1630  178.2910  144.3760 N   0  0  0  0  0  0  0  0  0  0  0  0
  185.6720  177.7670  140.9750 C   0  0  0  0  0  0  0  0  0  0  0  0
  185.8600  177.1960  148.0310 C   0  0  0  0  0  2  0  0  0  0  0  0
  186.8140  177.3630  144.3800 C   0  0  0  0  0  0  0  0  0  0  0  0
  189.2460  177.9060  144.1330 C   0  0  2  0  0  3  0  0  0  0  0  0
  190.2640  177.9020  145.2690 C   0  0  0  0  0  2  0  0  0  0  0  0
  189.6880  177.3320  146.5560 C   0  0  0  0  0  2  0  0  0  0  0  0
  190.5230  176.1500  147.0000 C   0  0  0  0  0  2  0  0  0  0  0  0
  189.6880  174.9110  146.9710 C   0  0  0  0  0  3  0  0  0  0  0  0
  189.6910  174.0580  145.9390 C   0  0  0  0  0  3  0  0  0  0  0  0
  190.5350  174.2450  144.7120 C   0  0  2  0  0  3  0  0  0  0  0  0
  189.7260  174.0130  143.5290 N   0  0  0  0  0  1  0  0  0  0  0  0
  192.8540  173.7500  144.9510 O   0  0  0  0  0  1  0  0  0  0  0  0
  191.5140  171.9550  144.4660 O   0  0  0  0  0  0  0  0  0  0  0  0
  191.6980  173.3090  144.7180 C   0  0  0  0  0  0  0  0  0  0  0  0
  1 14  1  0  0  0  0
  2 16  2  0  0  0  0
  3 17  1  0  0  0  0
  4 12  2  0  0  0  0
  6  3  1  0  0  0  0
  7 19  1  0  0  0  0
  8  9  1  0  0  0  0
  9 14  1  0  0  0  0
  9 18  2  0  0  0  0
 10 13  1  0  0  0  0
 10  8  1  0  0  0  0
 11  4  1  0  0  0  0
 11  6  2  0  0  0  0
 12 17  1  0  0  0  0
 13  7  1  0  0  0  0
 14 15  2  0  0  0  0
 15 11  1  0  0  0  0
 16  1  1  0  0  0  0
 16  8  1  0  0  0  0
 18  5  1  0  0  0  0
 18  4  1  0  0  0  0
 19  5  1  0  0  0  0
 19 20  1  1  0  0  0
 20 21  1  0  0  0  0
 21 22  1  0  0  0  0
 23 22  1  0  0  0  0
 24 23  2  0  0  0  0
 25 26  1  6  0  0  0
 25 29  1  0  0  0  0
 25 24  1  0  0  0  0
 28 29  2  0  0  0  0
 29 27  1  0  0  0  0
M  END
>  <MODEL>
5

>  <REMARK>
 VINA RESULT:      -6.9      2.343      4.457
  Name = 
  6 active torsions:
  status: ('A' for Active; 'I' for Inactive)
    1  A    between atoms: C_1  and  C_18
    2  A    between atoms: C_9  and  CA_14
    3  A    between atoms: C_13  and  C_18
    4  A    between atoms: C_13  and  C_24
    5  A    between atoms: CA_14  and  C_15
    6  A    between atoms: C_24  and  C_29
                            x       y       z     vdW  Elec       q    Type
                         _______ _______ _______ _____ _____    ______ ____

>  <TORSDO>
F 6

$$$$
=
 OpenBabel11062422553D

 29 32  0  0  1  0  0  0  0  0999 V2000
  184.8890  178.2910  141.3080 S   0  0  0  0  0  0  0  0  0  0  0  0
  186.6900  177.3520  139.6720 O   0  0  0  0  0  0  0  0  0  0  0  0
  184.5660  178.6140  147.6380 C   0  0  0  0  0  2  0  0  0  0  0  0
  186.0610  177.5270  145.5020 C   0  0  0  0  0  0  0  0  0  0  0  0
  188.1830  176.5950  144.6620 N   0  0  0  0  0  2  0  0  0  0  0  0
  184.1190  178.6650  146.2430 N   0  0  0  0  0  0  0  0  0  0  0  0
  190.2060  176.9290  143.3100 C   0  0  0  0  0  2  0  0  0  0  0  0
  187.0660  177.1300  141.9360 N   0  0  0  0  0  0  0  0  0  0  0  0
  186.4480  177.4540  143.1130 C   0  0  0  0  0  0  0  0  0  0  0  0
  188.3110  176.3810  141.7960 C   0  0  0  0  0  2  0  0  0  0  0  0
  184.8430  178.2210  145.2550 C   0  0  0  0  0  0  0  0  0  0  0  0
  186.3860  177.1740  146.7550 C   0  0  0  0  0  3  0  0  0  0  0  0
  189.5050  177.2920  142.0130 C   0  0  0  0  0  2  0  0  0  0  0  0
  185.2250  178.0840  142.9400 C   0  0  0  0  0  0  0  0  0  0  0  0
  184.4420  178.4640  143.9770 N   0  0  0  0  0  0  0  0  0  0  0  0
  186.3350  177.5350  140.8680 C   0  0  0  0  0  0  0  0  0  0  0  0
  185.4210  177.3750  147.8880 C   0  0  0  0  0  2  0  0  0  0  0  0
  186.9050  177.1890  144.4190 C   0  0  0  0  0  0  0  0  0  0  0  0
  189.4000  177.3830  144.5210 C   0  0  2  0  0  3  0  0  0  0  0  0
  190.2320  177.3100  145.7960 C   0  0  0  0  0  2  0  0  0  0  0  0
  190.1520  175.9430  146.4590 C   0  0  0  0  0  2  0  0  0  0  0  0
  191.5410  175.3510  146.5590 C   0  0  0  0  0  2  0  0  0  0  0  0
  192.5090  176.4150  146.9630 C   0  0  0  0  0  3  0  0  0  0  0  0
  193.7690  176.4600  146.5130 C   0  0  0  0  0  3  0  0  0  0  0  0
  194.3410  175.4580  145.5530 C   0  0  2  0  0  3  0  0  0  0  0  0
  195.5350  174.8640  146.1280 N   0  0  0  0  0  1  0  0  0  0  0  0
  195.8650  176.4510  144.0130 O   0  0  0  0  0  1  0  0  0  0  0  0
  193.6930  176.3240  143.2950 O   0  0  0  0  0  0  0  0  0  0  0  0
  194.6790  176.1040  144.2500 C   0  0  0  0  0  0  0  0  0  0  0  0
  1 14  1  0  0  0  0
  2 16  2  0  0  0  0
  3 17  1  0  0  0  0
  4 12  2  0  0  0  0
  6  3  1  0  0  0  0
  7 19  1  0  0  0  0
  8  9  1  0  0  0  0
  9 18  2  0  0  0  0
 10  8  1  0  0  0  0
 10 13  1  0  0  0  0
 11  4  1  0  0  0  0
 11  6  2  0  0  0  0
 12 17  1  0  0  0  0
 13  7  1  0  0  0  0
 14  9  1  0  0  0  0
 14 15  2  0  0  0  0
 15 11  1  0  0  0  0
 16  1  1  0  0  0  0
 16  8  1  0  0  0  0
 18  5  1  0  0  0  0
 18  4  1  0  0  0  0
 19  5  1  0  0  0  0
 19 20  1  1  0  0  0
 20 21  1  0  0  0  0
 21 22  1  0  0  0  0
 22 23  1  0  0  0  0
 24 23  2  0  0  0  0
 25 26  1  1  0  0  0
 25 24  1  0  0  0  0
 27 29  1  0  0  0  0
 28 29  2  0  0  0  0
 29 25  1  0  0  0  0
M  END
>  <MODEL>
6

>  <REMARK>
 VINA RESULT:      -6.9      1.681      4.053
  Name = 
  6 active torsions:
  status: ('A' for Active; 'I' for Inactive)
    1  A    between atoms: C_1  and  C_18
    2  A    between atoms: C_9  and  CA_14
    3  A    between atoms: C_13  and  C_18
    4  A    between atoms: C_13  and  C_24
    5  A    between atoms: CA_14  and  C_15
    6  A    between atoms: C_24  and  C_29
                            x       y       z     vdW  Elec       q    Type
                         _______ _______ _______ _____ _____    ______ ____

>  <TORSDO>
F 6

$$$$
=
 OpenBabel11062422553D

 29 32  0  0  1  0  0  0  0  0999 V2000
  185.0040  177.9130  142.3560 S   0  0  0  0  0  0  0  0  0  0  0  0
  184.3380  179.1970  144.5260 O   0  0  0  0  0  0  0  0  0  0  0  0
  189.8020  173.9960  140.9690 C   0  0  0  0  0  2  0  0  0  0  0  0
  188.8210  175.7600  142.9450 C   0  0  0  0  0  0  0  0  0  0  0  0
  188.7880  176.4970  145.2970 N   0  0  0  0  0  2  0  0  0  0  0  0
  188.6540  174.8820  140.7500 N   0  0  0  0  0  0  0  0  0  0  0  0
  187.5740  176.5770  147.4310 C   0  0  0  0  0  2  0  0  0  0  0  0
  186.2740  177.9460  144.5630 N   0  0  0  0  0  0  0  0  0  0  0  0
  186.9880  177.1400  143.7190 C   0  0  0  0  0  0  0  0  0  0  0  0
  186.6580  178.3260  145.9190 C   0  0  0  0  0  2  0  0  0  0  0  0
  188.1660  175.6450  141.6860 C   0  0  0  0  0  0  0  0  0  0  0  0
  190.0370  175.2190  143.1170 C   0  0  0  0  0  3  0  0  0  0  0  0
  186.3060  177.2220  146.8990 C   0  0  0  0  0  2  0  0  0  0  0  0
  186.4310  177.0330  142.4540 C   0  0  0  0  0  0  0  0  0  0  0  0
  186.9960  176.3030  141.4620 N   0  0  0  0  0  0  0  0  0  0  0  0
  185.1600  178.4300  143.9570 C   0  0  0  0  0  0  0  0  0  0  0  0
  190.7810  174.6140  141.9630 C   0  0  0  0  0  2  0  0  0  0  0  0
  188.1960  176.4700  143.9960 C   0  0  0  0  0  0  0  0  0  0  0  0
  188.2300  175.6940  146.3760 C   0  0  2  0  0  3  0  0  0  0  0  0
  189.3060  174.8070  146.9930 C   0  0  0  0  0  2  0  0  0  0  0  0
  190.4400  175.6180  147.6030 C   0  0  0  0  0  2  0  0  0  0  0  0
  191.7340  175.2880  146.8900 C   0  0  0  0  0  2  0  0  0  0  0  0
  192.7180  176.3910  147.1070 C   0  0  0  0  0  3  0  0  0  0  0  0
  193.8900  176.4560  146.4630 C   0  0  0  0  0  3  0  0  0  0  0  0
  194.3370  175.4400  145.4540 C   0  0  2  0  0  3  0  0  0  0  0  0
  195.5410  174.7830  145.9290 N   0  0  0  0  0  1  0  0  0  0  0  0
  195.7750  176.4290  143.8310 O   0  0  0  0  0  1  0  0  0  0  0  0
  193.5660  176.3040  143.2340 O   0  0  0  0  0  0  0  0  0  0  0  0
  194.6030  176.0830  144.1330 C   0  0  0  0  0  0  0  0  0  0  0  0
  1 14  1  0  0  0  0
  1 16  1  0  0  0  0
  3 17  1  0  0  0  0
  4 12  2  0  0  0  0
  4 18  1  0  0  0  0
  5 19  1  0  0  0  0
  6  3  1  0  0  0  0
  6 11  2  0  0  0  0
  8 10  1  0  0  0  0
  9 18  2  0  0  0  0
  9  8  1  0  0  0  0
 10 13  1  0  0  0  0
 11  4  1  0  0  0  0
 13  7  1  0  0  0  0
 14  9  1  0  0  0  0
 15 11  1  0  0  0  0
 15 14  2  0  0  0  0
 16  2  2  0  0  0  0
 16  8  1  0  0  0  0
 17 12  1  0  0  0  0
 18  5  1  0  0  0  0
 19 20  1  1  0  0  0
 19  7  1  0  0  0  0
 20 21  1  0  0  0  0
 22 23  1  0  0  0  0
 22 21  1  0  0  0  0
 24 23  2  0  0  0  0
 25 26  1  1  0  0  0
 25 24  1  0  0  0  0
 27 29  1  0  0  0  0
 28 29  2  0  0  0  0
 29 25  1  0  0  0  0
M  END
>  <MODEL>
7

>  <REMARK>
 VINA RESULT:      -6.9      0.926      1.207
  Name = 
  6 active torsions:
  status: ('A' for Active; 'I' for Inactive)
    1  A    between atoms: C_1  and  C_18
    2  A    between atoms: C_9  and  CA_14
    3  A    between atoms: C_13  and  C_18
    4  A    between atoms: C_13  and  C_24
    5  A    between atoms: CA_14  and  C_15
    6  A    between atoms: C_24  and  C_29
                            x       y       z     vdW  Elec       q    Type
                         _______ _______ _______ _____ _____    ______ ____

>  <TORSDO>
F 6

$$$$
=
 OpenBabel11062422553D

 29 32  0  0  1  0  0  0  0  0999 V2000
  183.5430  178.4350  141.9860 S   0  0  0  0  0  0  0  0  0  0  0  0
  184.7880  177.7660  139.7940 O   0  0  0  0  0  0  0  0  0  0  0  0
  185.2730  178.4500  148.0920 C   0  0  0  0  0  2  0  0  0  0  0  0
  186.0800  177.6220  145.5140 C   0  0  0  0  0  0  0  0  0  0  0  0
  187.8850  176.9590  143.9730 N   0  0  0  0  0  2  0  0  0  0  0  0
  184.3930  178.5140  146.9210 N   0  0  0  0  0  0  0  0  0  0  0  0
  189.3200  177.5650  142.0740 C   0  0  0  0  0  2  0  0  0  0  0  0
  185.8990  177.4880  141.7950 N   0  0  0  0  0  0  0  0  0  0  0  0
  185.6720  177.6940  143.1290 C   0  0  0  0  0  0  0  0  0  0  0  0
  187.0910  176.8830  141.2090 C   0  0  0  0  0  2  0  0  0  0  0  0
  184.7920  178.1920  145.7240 C   0  0  0  0  0  0  0  0  0  0  0  0
  186.8250  177.2530  146.5680 C   0  0  0  0  0  3  0  0  0  0  0  0
  188.2060  177.9060  141.1000 C   0  0  0  0  0  2  0  0  0  0  0  0
  184.4090  178.1960  143.4040 C   0  0  0  0  0  0  0  0  0  0  0  0
  183.9770  178.4450  144.6630 N   0  0  0  0  0  0  0  0  0  0  0  0
  184.8260  177.8580  141.0510 C   0  0  0  0  0  0  0  0  0  0  0  0
  186.2680  177.3010  147.9610 C   0  0  0  0  0  2  0  0  0  0  0  0
  186.5500  177.4230  144.1970 C   0  0  0  0  0  0  0  0  0  0  0  0
  188.9150  177.8780  143.5090 C   0  0  2  0  0  3  0  0  0  0  0  0
  190.1210  177.8400  144.4420 C   0  0  0  0  0  2  0  0  0  0  0  0
  191.2900  177.0720  143.8420 C   0  0  0  0  0  2  0  0  0  0  0  0
  192.4140  176.9970  144.8520 C   0  0  0  0  0  2  0  0  0  0  0  0
  192.7330  175.5660  145.1380 C   0  0  0  0  0  3  0  0  0  0  0  0
  192.0990  174.8550  146.0790 C   0  0  0  0  0  3  0  0  0  0  0  0
  191.0010  175.4110  146.9370 C   0  0  2  0  0  3  0  0  0  0  0  0
  191.3510  175.2480  148.3370 N   0  0  0  0  0  1  0  0  0  0  0  0
  189.4410  174.3360  145.4910 O   0  0  0  0  0  0  0  0  0  0  0  0
  188.7930  174.4960  147.6830 O   0  0  0  0  0  1  0  0  0  0  0  0
  189.7070  174.7190  146.6600 C   0  0  0  0  0  0  0  0  0  0  0  0
  1 14  1  0  0  0  0
  2 16  2  0  0  0  0
  4 11  1  0  0  0  0
  4 12  2  0  0  0  0
  5 18  1  0  0  0  0
  6  3  1  0  0  0  0
  7 19  1  0  0  0  0
  8  9  1  0  0  0  0
  9 14  1  0  0  0  0
  9 18  2  0  0  0  0
 10  8  1  0  0  0  0
 11  6  2  0  0  0  0
 12 17  1  0  0  0  0
 13 10  1  0  0  0  0
 13  7  1  0  0  0  0
 14 15  2  0  0  0  0
 15 11  1  0  0  0  0
 16  8  1  0  0  0  0
 16  1  1  0  0  0  0
 17  3  1  0  0  0  0
 18  4  1  0  0  0  0
 19  5  1  0  0  0  0
 19 20  1  1  0  0  0
 21 20  1  0  0  0  0
 21 22  1  0  0  0  0
 22 23  1  0  0  0  0
 23 24  2  0  0  0  0
 24 25  1  0  0  0  0
 25 26  1  1  0  0  0
 27 29  2  0  0  0  0
 29 25  1  0  0  0  0
 29 28  1  0  0  0  0
M  END
>  <MODEL>
8

>  <REMARK>
 VINA RESULT:      -6.9      2.259      4.570
  Name = 
  6 active torsions:
  status: ('A' for Active; 'I' for Inactive)
    1  A    between atoms: C_1  and  C_18
    2  A    between atoms: C_9  and  CA_14
    3  A    between atoms: C_13  and  C_18
    4  A    between atoms: C_13  and  C_24
    5  A    between atoms: CA_14  and  C_15
    6  A    between atoms: C_24  and  C_29
                            x       y       z     vdW  Elec       q    Type
                         _______ _______ _______ _____ _____    ______ ____

>  <TORSDO>
F 6

$$$$
=
 OpenBabel11062422553D

 29 32  0  0  1  0  0  0  0  0999 V2000
  186.7400  177.2210  141.2650 S   0  0  0  0  0  0  0  0  0  0  0  0
  188.1890  175.2910  140.2770 O   0  0  0  0  0  0  0  0  0  0  0  0
  185.9290  179.4150  147.1640 C   0  0  0  0  0  2  0  0  0  0  0  0
  187.0900  177.3170  145.6710 C   0  0  0  0  0  0  0  0  0  0  0  0
  188.7540  175.5070  145.5050 N   0  0  0  0  0  2  0  0  0  0  0  0
  185.6810  179.2220  145.7330 N   0  0  0  0  0  0  0  0  0  0  0  0
  190.8740  174.7160  144.5480 C   0  0  0  0  0  2  0  0  0  0  0  0
  188.2170  175.6020  142.5610 N   0  0  0  0  0  0  0  0  0  0  0  0
  187.6590  176.4410  143.4860 C   0  0  0  0  0  0  0  0  0  0  0  0
  189.0790  174.4590  142.8450 C   0  0  0  0  0  2  0  0  0  0  0  0
  186.2700  178.2930  145.0360 C   0  0  0  0  0  0  0  0  0  0  0  0
  187.1230  177.2440  147.0110 C   0  0  0  0  0  3  0  0  0  0  0  0
  190.5050  174.9180  143.0880 C   0  0  0  0  0  2  0  0  0  0  0  0
  186.8020  177.3810  142.9350 C   0  0  0  0  0  0  0  0  0  0  0  0
  186.1280  178.2880  143.6820 N   0  0  0  0  0  0  0  0  0  0  0  0
  187.8140  175.9170  141.3040 C   0  0  0  0  0  0  0  0  0  0  0  0
  186.2040  178.0810  147.8520 C   0  0  0  0  0  2  0  0  0  0  0  0
  187.8400  176.4150  144.8830 C   0  0  0  0  0  0  0  0  0  0  0  0
  190.1890  175.7460  145.4380 C   0  0  2  0  0  3  0  0  0  0  0  0
  190.7940  175.7520  146.8380 C   0  0  0  0  0  2  0  0  0  0  0  0
  192.2420  175.2850  146.8410 C   0  0  0  0  0  2  0  0  0  0  0  0
  193.1420  176.4340  146.4420 C   0  0  0  0  0  2  0  0  0  0  0  0
  194.5660  175.9850  146.4680 C   0  0  0  0  0  3  0  0  0  0  0  0
  195.2640  175.7170  145.3570 C   0  0  0  0  0  3  0  0  0  0  0  0
  194.6990  175.8480  143.9730 C   0  0  2  0  0  3  0  0  0  0  0  0
  194.2730  174.5430  143.4990 N   0  0  0  0  0  1  0  0  0  0  0  0
  195.6010  176.2160  141.7980 O   0  0  0  0  0  0  0  0  0  0  0  0
  196.7790  177.1650  143.5190 O   0  0  0  0  0  1  0  0  0  0  0  0
  195.7120  176.4170  143.0350 C   0  0  0  0  0  0  0  0  0  0  0  0
  1 16  1  0  0  0  0
  1 14  1  0  0  0  0
  2 16  2  0  0  0  0
  3 17  1  0  0  0  0
  4 12  2  0  0  0  0
  6  3  1  0  0  0  0
  7 19  1  0  0  0  0
  8 10  1  0  0  0  0
  8  9  1  0  0  0  0
  9 18  2  0  0  0  0
 10 13  1  0  0  0  0
 11  4  1  0  0  0  0
 11  6  2  0  0  0  0
 12 17  1  0  0  0  0
 13  7  1  0  0  0  0
 14  9  1  0  0  0  0
 14 15  2  0  0  0  0
 15 11  1  0  0  0  0
 16  8  1  0  0  0  0
 18  5  1  0  0  0  0
 18  4  1  0  0  0  0
 19  5  1  0  0  0  0
 19 20  1  1  0  0  0
 20 21  1  0  0  0  0
 22 23  1  0  0  0  0
 22 21  1  0  0  0  0
 24 23  2  0  0  0  0
 25 26  1  6  0  0  0
 25 24  1  0  0  0  0
 27 29  2  0  0  0  0
 29 28  1  0  0  0  0
 29 25  1  0  0  0  0
M  END
>  <MODEL>
9

>  <REMARK>
 VINA RESULT:      -6.8      2.160      4.413
  Name = 
  6 active torsions:
  status: ('A' for Active; 'I' for Inactive)
    1  A    between atoms: C_1  and  C_18
    2  A    between atoms: C_9  and  CA_14
    3  A    between atoms: C_13  and  C_18
    4  A    between atoms: C_13  and  C_24
    5  A    between atoms: CA_14  and  C_15
    6  A    between atoms: C_24  and  C_29
                            x       y       z     vdW  Elec       q    Type
                         _______ _______ _______ _____ _____    ______ ____

>  <TORSDO>
F 6

$$$$
