=
 OpenBabel11062420433D

 45 49  0  0  1  0  0  0  0  0999 V2000
  188.4810  177.3240  143.7530 C   0  0  0  0  0  2  0  0  0  0  0  0
  190.7920  177.0920  145.1770 O   0  0  0  0  0  1  0  0  0  0  0  0
  186.4260  178.2610  144.7110 C   0  0  0  0  0  3  0  0  0  0  0  0
  189.1460  176.5700  146.7140 O   0  0  0  0  0  0  0  0  0  0  0  0
  187.6360  177.6020  144.9520 C   0  0  0  0  0  0  0  0  0  0  0  0
  184.3380  179.2260  145.5150 N   0  0  0  0  0  1  0  0  0  0  0  0
  189.7110  174.9080  145.0410 C   0  0  1  0  0  3  0  0  0  0  0  0
  190.2340  176.0580  145.9370 C   0  0  1  0  0  0  0  0  0  0  0  0
  190.2850  174.9000  143.6220 C   0  0  0  0  0  2  0  0  0  0  0  0
  185.5670  178.5550  145.7650 C   0  0  0  0  0  0  0  0  0  0  0  0
  187.0660  177.5570  147.3040 C   0  0  0  0  0  3  0  0  0  0  0  0
  189.2300  175.2350  142.5540 C   0  0  2  0  0  3  0  0  0  0  0  0
  188.0320  176.0360  143.0800 C   0  0  0  0  0  2  0  0  0  0  0  0
  187.9730  177.2320  146.2890 C   0  0  0  0  0  0  0  0  0  0  0  0
  185.9020  178.2000  147.0300 N   0  0  0  0  0  0  0  0  0  0  0  0
  189.8200  172.4480  144.9330 C   0  0  0  0  0  2  0  0  0  0  0  0
  189.6810  173.5450  145.6720 C   0  0  0  0  0  3  0  0  0  0  0  0
  191.3240  175.5430  146.8890 C   0  0  0  0  0  2  0  0  0  0  0  0
  192.6200  175.2670  146.1960 C   0  0  0  0  0  0  0  0  0  0  0  0
  194.2360  173.7300  145.3090 C   0  0  0  0  0  0  0  0  0  0  0  0
  195.0100  174.7650  144.8760 C   0  0  0  0  0  0  0  0  0  0  0  0
  196.1460  172.7940  144.3620 C   0  0  0  0  0  2  0  0  0  0  0  0
  193.4170  176.3400  145.7440 C   0  0  0  0  0  3  0  0  0  0  0  0
  194.8610  172.4950  144.9980 N   0  0  0  0  0  0  0  0  0  0  0  0
  194.6300  176.0950  145.0780 C   0  0  0  0  0  0  0  0  0  0  0  0
  196.1860  174.2560  144.2580 N   0  0  0  0  0  0  0  0  0  0  0  0
  194.4700  171.1940  145.5100 C   0  0  0  0  0  1  0  0  0  0  0  0
  197.3750  175.0170  143.9200 C   0  0  0  0  0  1  0  0  0  0  0  0
  193.0310  173.9380  145.9800 C   0  0  0  0  0  3  0  0  0  0  0  0
  195.4160  177.1520  144.6370 O   0  0  0  0  0  1  0  0  0  0  0  0
  188.7580  173.9450  141.8960 C   0  0  0  0  0  2  0  0  0  0  0  0
  188.7490  174.0680  140.3780 C   0  0  0  0  0  2  0  0  0  0  0  0
  189.9690  173.2210  138.3560 C   0  0  0  0  0  1  0  0  0  0  0  0
  190.1070  173.7050  139.7910 C   0  0  2  0  0  3  0  0  0  0  0  0
  192.1890  170.6860  142.1430 C   0  0  1  0  0  3  0  0  0  0  0  0
  192.5690  172.1540  142.3510 C   0  0  0  0  0  2  0  0  0  0  0  0
  192.5590  174.1570  141.0650 O   0  0  0  0  0  0  0  0  0  0  0  0
  190.3180  171.3100  140.5790 C   0  0  0  0  0  2  0  0  0  0  0  0
  191.9970  173.0520  141.2930 C   0  0  0  0  0  0  0  0  0  0  0  0
  190.7780  172.7020  140.6150 N   0  0  0  0  0  0  0  0  0  0  0  0
  190.6890  170.5670  141.8600 C   0  0  0  0  0  2  0  0  0  0  0  0
  193.0430  170.0180  141.0570 C   0  0  2  0  0  3  0  0  0  0  0  0
  192.8260  168.6380  141.0420 O   0  0  0  0  0  1  0  0  0  0  0  0
  195.0240  169.5870  142.3470 O   0  0  0  0  0  1  0  0  0  0  0  0
  194.5290  170.2990  141.2530 C   0  0  0  0  0  2  0  0  0  0  0  0
  1  5  1  0  0  0  0
  3  5  2  0  0  0  0
  3 10  1  0  0  0  0
  5 14  1  0  0  0  0
  6 10  1  0  0  0  0
  7 17  1  1  0  0  0
  7  8  1  0  0  0  0
  8  2  1  6  0  0  0
  8  4  1  0  0  0  0
  8 18  1  0  0  0  0
  9  7  1  0  0  0  0
 10 15  2  0  0  0  0
 12 31  1  1  0  0  0
 12 13  1  0  0  0  0
 12  9  1  0  0  0  0
 13  1  1  0  0  0  0
 14  4  1  0  0  0  0
 14 11  2  0  0  0  0
 15 11  1  0  0  0  0
 16 17  2  0  0  0  0
 19 18  1  0  0  0  0
 20 29  2  0  0  0  0
 21 25  2  0  0  0  0
 21 20  1  0  0  0  0
 22 24  1  0  0  0  0
 23 19  2  0  0  0  0
 24 20  1  0  0  0  0
 24 27  1  0  0  0  0
 25 23  1  0  0  0  0
 26 22  1  0  0  0  0
 26 21  1  0  0  0  0
 28 26  1  0  0  0  0
 29 19  1  0  0  0  0
 30 25  1  0  0  0  0
 32 31  1  0  0  0  0
 34 33  1  6  0  0  0
 34 32  1  0  0  0  0
 34 40  1  0  0  0  0
 35 42  1  6  0  0  0
 35 36  1  0  0  0  0
 37 39  2  0  0  0  0
 38 40  1  0  0  0  0
 38 41  1  0  0  0  0
 39 36  1  0  0  0  0
 40 39  1  0  0  0  0
 41 35  1  0  0  0  0
 42 43  1  1  0  0  0
 42 45  1  0  0  0  0
 45 44  1  0  0  0  0
M  END
>  <MODEL>
1

>  <REMARK>
 VINA RESULT:      -7.7      0.000      0.000
  Name = 
  9 active torsions:
  status: ('A' for Active; 'I' for Inactive)
    1  A    between atoms: C_1  and  C_13
    2  A    between atoms: C_2  and  C_3
    3  A    between atoms: C_2  and  C_29
    4  A    between atoms: C_11  and  C_21
    5  A    between atoms: C_11  and  C_35
    6  A    between atoms: C_13  and  C_36
    7  A    between atoms: C_21  and  C_37
    8  A    between atoms: C_23  and  C_44
    9  A    between atoms: N_32  and  C_35
                            x       y       z     vdW  Elec       q    Type
                         _______ _______ _______ _____ _____    ______ ____

>  <TORSDO>
F 9

$$$$
=
 OpenBabel11062420433D

 45 49  0  0  1  0  0  0  0  0999 V2000
  188.4850  177.3140  143.7290 C   0  0  0  0  0  2  0  0  0  0  0  0
  190.7840  177.1120  145.1770 O   0  0  0  0  0  1  0  0  0  0  0  0
  186.4060  178.2130  144.6680 C   0  0  0  0  0  3  0  0  0  0  0  0
  189.1300  176.5560  146.6940 O   0  0  0  0  0  0  0  0  0  0  0  0
  187.6230  177.5730  144.9200 C   0  0  0  0  0  0  0  0  0  0  0  0
  184.2930  179.1400  145.4540 N   0  0  0  0  0  1  0  0  0  0  0  0
  189.7390  174.9110  145.0190 C   0  0  1  0  0  3  0  0  0  0  0  0
  190.2340  176.0650  145.9270 C   0  0  1  0  0  0  0  0  0  0  0  0
  190.3300  174.9190  143.6070 C   0  0  0  0  0  2  0  0  0  0  0  0
  185.5300  178.4880  145.7150 C   0  0  0  0  0  0  0  0  0  0  0  0
  187.0280  177.5070  147.2660 C   0  0  0  0  0  3  0  0  0  0  0  0
  189.2810  175.2430  142.5290 C   0  0  2  0  0  3  0  0  0  0  0  0
  188.0650  176.0230  143.0450 C   0  0  0  0  0  2  0  0  0  0  0  0
  187.9510  177.2010  146.2590 C   0  0  0  0  0  0  0  0  0  0  0  0
  185.8560  178.1320  146.9820 N   0  0  0  0  0  0  0  0  0  0  0  0
  189.7930  172.4500  144.8900 C   0  0  0  0  0  2  0  0  0  0  0  0
  189.7240  173.5450  145.6430 C   0  0  0  0  0  3  0  0  0  0  0  0
  191.3220  175.5620  146.8880 C   0  0  0  0  0  2  0  0  0  0  0  0
  192.6170  175.2710  146.2010 C   0  0  0  0  0  0  0  0  0  0  0  0
  194.2170  173.7150  145.3160 C   0  0  0  0  0  0  0  0  0  0  0  0
  195.0080  174.7410  144.8920 C   0  0  0  0  0  0  0  0  0  0  0  0
  196.1180  172.7550  144.3760 C   0  0  0  0  0  2  0  0  0  0  0  0
  193.4330  176.3350  145.7580 C   0  0  0  0  0  3  0  0  0  0  0  0
  194.8250  172.4730  145.0040 N   0  0  0  0  0  0  0  0  0  0  0  0
  194.6460  176.0750  145.0990 C   0  0  0  0  0  0  0  0  0  0  0  0
  196.1800  174.2180  144.2790 N   0  0  0  0  0  0  0  0  0  0  0  0
  194.4130  171.1760  145.5080 C   0  0  0  0  0  1  0  0  0  0  0  0
  197.3810  174.9630  143.9510 C   0  0  0  0  0  1  0  0  0  0  0  0
  193.0100  173.9370  145.9810 C   0  0  0  0  0  3  0  0  0  0  0  0
  195.4490  177.1220  144.6660 O   0  0  0  0  0  1  0  0  0  0  0  0
  188.8370  173.9490  141.8590 C   0  0  0  0  0  2  0  0  0  0  0  0
  189.3190  173.8780  140.4160 C   0  0  0  0  0  2  0  0  0  0  0  0
  190.1590  171.6870  141.3020 C   0  0  0  0  0  1  0  0  0  0  0  0
  190.3270  172.7510  140.2300 C   0  0  2  0  0  3  0  0  0  0  0  0
  194.4420  174.1840  140.1690 C   0  0  1  0  0  3  0  0  0  0  0  0
  193.5280  174.5540  138.9970 C   0  0  0  0  0  2  0  0  0  0  0  0
  191.6240  173.6300  137.9090 O   0  0  0  0  0  0  0  0  0  0  0  0
  192.5400  173.0950  141.4070 C   0  0  0  0  0  2  0  0  0  0  0  0
  192.2480  173.7730  138.9950 C   0  0  0  0  0  0  0  0  0  0  0  0
  191.6920  173.2730  140.2240 N   0  0  0  0  0  0  0  0  0  0  0  0
  193.6380  174.1530  141.4710 C   0  0  0  0  0  2  0  0  0  0  0  0
  195.1950  172.8700  139.9170 C   0  0  2  0  0  3  0  0  0  0  0  0
  196.1420  172.6490  140.9210 O   0  0  0  0  0  1  0  0  0  0  0  0
  196.9490  173.7690  138.5410 O   0  0  0  0  0  1  0  0  0  0  0  0
  195.8850  172.8650  138.5570 C   0  0  0  0  0  2  0  0  0  0  0  0
  1  5  1  0  0  0  0
  3  5  2  0  0  0  0
  3 10  1  0  0  0  0
  5 14  1  0  0  0  0
  6 10  1  0  0  0  0
  7 17  1  1  0  0  0
  7  8  1  0  0  0  0
  8  2  1  6  0  0  0
  8  4  1  0  0  0  0
  8 18  1  0  0  0  0
  9  7  1  0  0  0  0
 10 15  2  0  0  0  0
 12 31  1  1  0  0  0
 12 13  1  0  0  0  0
 12  9  1  0  0  0  0
 13  1  1  0  0  0  0
 14  4  1  0  0  0  0
 14 11  2  0  0  0  0
 15 11  1  0  0  0  0
 16 17  2  0  0  0  0
 19 18  1  0  0  0  0
 20 29  2  0  0  0  0
 21 25  2  0  0  0  0
 21 20  1  0  0  0  0
 22 24  1  0  0  0  0
 23 19  2  0  0  0  0
 24 20  1  0  0  0  0
 24 27  1  0  0  0  0
 25 23  1  0  0  0  0
 26 22  1  0  0  0  0
 26 21  1  0  0  0  0
 28 26  1  0  0  0  0
 29 19  1  0  0  0  0
 30 25  1  0  0  0  0
 32 31  1  0  0  0  0
 34 32  1  0  0  0  0
 34 33  1  1  0  0  0
 35 42  1  6  0  0  0
 35 41  1  0  0  0  0
 36 35  1  0  0  0  0
 37 39  2  0  0  0  0
 38 41  1  0  0  0  0
 39 36  1  0  0  0  0
 39 40  1  0  0  0  0
 40 34  1  0  0  0  0
 40 38  1  0  0  0  0
 42 43  1  1  0  0  0
 44 45  1  0  0  0  0
 45 42  1  0  0  0  0
M  END
>  <MODEL>
2

>  <REMARK>
 VINA RESULT:      -7.7      1.532      2.072
  Name = 
  9 active torsions:
  status: ('A' for Active; 'I' for Inactive)
    1  A    between atoms: C_1  and  C_13
    2  A    between atoms: C_2  and  C_3
    3  A    between atoms: C_2  and  C_29
    4  A    between atoms: C_11  and  C_21
    5  A    between atoms: C_11  and  C_35
    6  A    between atoms: C_13  and  C_36
    7  A    between atoms: C_21  and  C_37
    8  A    between atoms: C_23  and  C_44
    9  A    between atoms: N_32  and  C_35
                            x       y       z     vdW  Elec       q    Type
                         _______ _______ _______ _____ _____    ______ ____

>  <TORSDO>
F 9

$$$$
=
 OpenBabel11062420433D

 45 49  0  0  1  0  0  0  0  0999 V2000
  192.2280  174.4610  145.7910 C   0  0  0  0  0  2  0  0  0  0  0  0
  190.8040  176.7450  145.3640 O   0  0  0  0  0  1  0  0  0  0  0  0
  194.6650  174.3570  145.5390 C   0  0  0  0  0  3  0  0  0  0  0  0
  192.4260  176.7940  143.7180 O   0  0  0  0  0  0  0  0  0  0  0  0
  193.4750  174.9850  145.1600 C   0  0  0  0  0  0  0  0  0  0  0  0
  197.0860  174.1270  145.3860 N   0  0  0  0  0  1  0  0  0  0  0  0
  190.5590  175.2740  143.4320 C   0  0  1  0  0  3  0  0  0  0  0  0
  191.0290  176.6420  143.9860 C   0  0  1  0  0  0  0  0  0  0  0  0
  189.5760  174.5270  144.3370 C   0  0  0  0  0  2  0  0  0  0  0  0
  195.8790  174.7690  144.9960 C   0  0  0  0  0  0  0  0  0  0  0  0
  194.7730  176.4170  143.7020 C   0  0  0  0  0  3  0  0  0  0  0  0
  190.1820  173.2510  144.9450 C   0  0  2  0  0  3  0  0  0  0  0  0
  191.7150  173.2550  145.0210 C   0  0  0  0  0  2  0  0  0  0  0  0
  193.5220  176.0490  144.2080 C   0  0  0  0  0  0  0  0  0  0  0  0
  195.9080  175.7830  144.0960 N   0  0  0  0  0  0  0  0  0  0  0  0
  189.0180  174.6870  141.6000 C   0  0  0  0  0  2  0  0  0  0  0  0
  190.1580  175.2540  141.9840 C   0  0  0  0  0  3  0  0  0  0  0  0
  190.2650  177.7870  143.3050 C   0  0  0  0  0  2  0  0  0  0  0  0
  188.8400  177.8810  143.7490 C   0  0  0  0  0  0  0  0  0  0  0  0
  186.4970  178.0330  143.2520 C   0  0  0  0  0  0  0  0  0  0  0  0
  186.1950  178.0200  144.5810 C   0  0  0  0  0  0  0  0  0  0  0  0
  184.1850  178.2590  143.4220 C   0  0  0  0  0  2  0  0  0  0  0  0
  188.5300  177.8630  145.1260 C   0  0  0  0  0  3  0  0  0  0  0  0
  185.3080  178.1470  142.4870 N   0  0  0  0  0  0  0  0  0  0  0  0
  187.1940  177.9370  145.5560 C   0  0  0  0  0  0  0  0  0  0  0  0
  184.7870  178.1270  144.7530 N   0  0  0  0  0  0  0  0  0  0  0  0
  185.2380  178.4390  141.0670 C   0  0  0  0  0  1  0  0  0  0  0  0
  184.0950  178.4230  145.9940 C   0  0  0  0  0  1  0  0  0  0  0  0
  187.8120  177.9690  142.7910 C   0  0  0  0  0  3  0  0  0  0  0  0
  186.8900  177.9220  146.9110 O   0  0  0  0  0  1  0  0  0  0  0  0
  189.6930  172.0410  144.1590 C   0  0  0  0  0  2  0  0  0  0  0  0
  190.8520  171.2940  143.5140 C   0  0  0  0  0  2  0  0  0  0  0  0
  190.8220  169.6290  141.6380 C   0  0  0  0  0  1  0  0  0  0  0  0
  190.6080  171.0840  142.0250 C   0  0  2  0  0  3  0  0  0  0  0  0
  193.2050  173.5980  139.5930 C   0  0  1  0  0  3  0  0  0  0  0  0
  191.7510  173.4160  139.1490 C   0  0  0  0  0  2  0  0  0  0  0  0
  190.0560  171.7590  139.3650 O   0  0  0  0  0  0  0  0  0  0  0  0
  192.7990  172.3100  141.7170 C   0  0  0  0  0  2  0  0  0  0  0  0
  191.0550  172.3160  139.8950 C   0  0  0  0  0  0  0  0  0  0  0  0
  191.4600  171.9640  141.2290 N   0  0  0  0  0  0  0  0  0  0  0  0
  193.2870  173.6280  141.1210 C   0  0  0  0  0  2  0  0  0  0  0  0
  194.1310  172.5400  138.9790 C   0  0  2  0  0  3  0  0  0  0  0  0
  195.4360  172.6970  139.4530 O   0  0  0  0  0  1  0  0  0  0  0  0
  194.5550  173.8580  137.0150 O   0  0  0  0  0  1  0  0  0  0  0  0
  194.1310  172.6030  137.4560 C   0  0  0  0  0  2  0  0  0  0  0  0
  4  8  1  0  0  0  0
  4 14  1  0  0  0  0
  5  3  1  0  0  0  0
  5  1  1  0  0  0  0
  7 17  1  6  0  0  0
  7  8  1  0  0  0  0
  7  9  1  0  0  0  0
  8  2  1  1  0  0  0
  9 12  1  0  0  0  0
 10  6  1  0  0  0  0
 10  3  2  0  0  0  0
 11 15  2  0  0  0  0
 11 14  1  0  0  0  0
 12 31  1  6  0  0  0
 12 13  1  0  0  0  0
 13  1  1  0  0  0  0
 14  5  2  0  0  0  0
 15 10  1  0  0  0  0
 16 17  2  0  0  0  0
 18 19  1  0  0  0  0
 18  8  1  0  0  0  0
 19 23  1  0  0  0  0
 20 21  2  0  0  0  0
 21 26  1  0  0  0  0
 21 25  1  0  0  0  0
 22 26  1  0  0  0  0
 23 25  2  0  0  0  0
 24 20  1  0  0  0  0
 24 22  1  0  0  0  0
 25 30  1  0  0  0  0
 26 28  1  0  0  0  0
 27 24  1  0  0  0  0
 29 20  1  0  0  0  0
 29 19  2  0  0  0  0
 32 31  1  0  0  0  0
 34 33  1  6  0  0  0
 34 32  1  0  0  0  0
 35 42  1  1  0  0  0
 35 41  1  0  0  0  0
 36 35  1  0  0  0  0
 36 39  1  0  0  0  0
 37 39  2  0  0  0  0
 39 40  1  0  0  0  0
 40 38  1  0  0  0  0
 40 34  1  0  0  0  0
 41 38  1  0  0  0  0
 42 43  1  1  0  0  0
 44 45  1  0  0  0  0
 45 42  1  0  0  0  0
M  END
>  <MODEL>
3

>  <REMARK>
 VINA RESULT:      -7.5      1.989      7.092
  Name = 
  9 active torsions:
  status: ('A' for Active; 'I' for Inactive)
    1  A    between atoms: C_1  and  C_13
    2  A    between atoms: C_2  and  C_3
    3  A    between atoms: C_2  and  C_29
    4  A    between atoms: C_11  and  C_21
    5  A    between atoms: C_11  and  C_35
    6  A    between atoms: C_13  and  C_36
    7  A    between atoms: C_21  and  C_37
    8  A    between atoms: C_23  and  C_44
    9  A    between atoms: N_32  and  C_35
                            x       y       z     vdW  Elec       q    Type
                         _______ _______ _______ _____ _____    ______ ____

>  <TORSDO>
F 9

$$$$
=
 OpenBabel11062420433D

 45 49  0  0  1  0  0  0  0  0999 V2000
  188.5580  177.2590  143.6790 C   0  0  0  0  0  2  0  0  0  0  0  0
  190.8750  176.9890  145.0870 O   0  0  0  0  0  1  0  0  0  0  0  0
  186.5370  178.2640  144.6390 C   0  0  0  0  0  3  0  0  0  0  0  0
  189.2290  176.5340  146.6460 O   0  0  0  0  0  0  0  0  0  0  0  0
  187.7310  177.5780  144.8810 C   0  0  0  0  0  0  0  0  0  0  0  0
  184.4810  179.2950  145.4440 N   0  0  0  0  0  1  0  0  0  0  0  0
  189.7360  174.8320  144.9950 C   0  0  1  0  0  3  0  0  0  0  0  0
  190.2960  175.9820  145.8690 C   0  0  1  0  0  0  0  0  0  0  0  0
  190.2980  174.7860  143.5720 C   0  0  0  0  0  2  0  0  0  0  0  0
  185.6950  178.5970  145.6950 C   0  0  0  0  0  0  0  0  0  0  0  0
  187.1810  177.5850  147.2380 C   0  0  0  0  0  3  0  0  0  0  0  0
  189.2430  175.1320  142.5070 C   0  0  2  0  0  3  0  0  0  0  0  0
  188.0700  175.9730  143.0310 C   0  0  0  0  0  2  0  0  0  0  0  0
  188.0700  177.2200  146.2210 C   0  0  0  0  0  0  0  0  0  0  0  0
  186.0310  178.2530  146.9630 N   0  0  0  0  0  0  0  0  0  0  0  0
  189.7070  172.3690  144.9190 C   0  0  0  0  0  2  0  0  0  0  0  0
  189.6760  173.4810  145.6480 C   0  0  0  0  0  3  0  0  0  0  0  0
  191.3810  175.4540  146.8200 C   0  0  0  0  0  2  0  0  0  0  0  0
  192.6850  175.2000  146.1330 C   0  0  0  0  0  0  0  0  0  0  0  0
  194.3190  173.6910  145.2310 C   0  0  0  0  0  0  0  0  0  0  0  0
  195.0900  174.7390  144.8240 C   0  0  0  0  0  0  0  0  0  0  0  0
  196.2440  172.7850  144.2830 C   0  0  0  0  0  2  0  0  0  0  0  0
  193.4790  176.2870  145.7080 C   0  0  0  0  0  3  0  0  0  0  0  0
  194.9550  172.4660  144.9030 N   0  0  0  0  0  0  0  0  0  0  0  0
  194.6990  176.0620  145.0490 C   0  0  0  0  0  0  0  0  0  0  0  0
  196.2740  174.2490  144.2080 N   0  0  0  0  0  0  0  0  0  0  0  0
  194.5690  171.1530  145.3870 C   0  0  0  0  0  1  0  0  0  0  0  0
  197.4610  175.0250  143.8940 C   0  0  0  0  0  1  0  0  0  0  0  0
  193.1070  173.8780  145.8950 C   0  0  0  0  0  3  0  0  0  0  0  0
  195.4820  177.1320  144.6340 O   0  0  0  0  0  1  0  0  0  0  0  0
  188.7310  173.8450  141.8740 C   0  0  0  0  0  2  0  0  0  0  0  0
  189.1440  173.7450  140.4120 C   0  0  0  0  0  2  0  0  0  0  0  0
  191.6020  173.2440  140.4320 C   0  0  0  0  0  1  0  0  0  0  0  0
  190.2100  172.6730  140.2150 C   0  0  2  0  0  3  0  0  0  0  0  0
  190.0110  170.8580  136.2600 C   0  0  1  0  0  3  0  0  0  0  0  0
  189.8250  169.9540  137.4810 C   0  0  0  0  0  2  0  0  0  0  0  0
  190.5250  169.9300  139.7560 O   0  0  0  0  0  0  0  0  0  0  0  0
  190.0870  172.9210  137.7010 C   0  0  0  0  0  2  0  0  0  0  0  0
  190.1980  170.6360  138.7650 C   0  0  0  0  0  0  0  0  0  0  0  0
  190.0970  172.0660  138.8920 N   0  0  0  0  0  0  0  0  0  0  0  0
  189.3950  172.2340  136.5260 C   0  0  0  0  0  2  0  0  0  0  0  0
  191.4810  170.9510  135.8310 C   0  0  2  0  0  3  0  0  0  0  0  0
  191.6070  171.7290  134.6770 O   0  0  0  0  0  1  0  0  0  0  0  0
  191.4040  168.9110  134.5620 O   0  0  0  0  0  1  0  0  0  0  0  0
  192.0860  169.5730  135.5840 C   0  0  0  0  0  2  0  0  0  0  0  0
  1  5  1  0  0  0  0
  3  5  2  0  0  0  0
  3 10  1  0  0  0  0
  5 14  1  0  0  0  0
  6 10  1  0  0  0  0
  7 17  1  1  0  0  0
  7  8  1  0  0  0  0
  8  2  1  6  0  0  0
  8  4  1  0  0  0  0
  8 18  1  0  0  0  0
  9  7  1  0  0  0  0
 10 15  2  0  0  0  0
 12 31  1  1  0  0  0
 12 13  1  0  0  0  0
 12  9  1  0  0  0  0
 13  1  1  0  0  0  0
 14  4  1  0  0  0  0
 14 11  2  0  0  0  0
 15 11  1  0  0  0  0
 16 17  2  0  0  0  0
 19 18  1  0  0  0  0
 20 29  2  0  0  0  0
 21 25  2  0  0  0  0
 21 20  1  0  0  0  0
 22 24  1  0  0  0  0
 23 19  2  0  0  0  0
 24 20  1  0  0  0  0
 24 27  1  0  0  0  0
 25 23  1  0  0  0  0
 26 22  1  0  0  0  0
 26 21  1  0  0  0  0
 28 26  1  0  0  0  0
 29 19  1  0  0  0  0
 30 25  1  0  0  0  0
 32 31  1  0  0  0  0
 34 32  1  0  0  0  0
 34 33  1  6  0  0  0
 35 42  1  1  0  0  0
 35 41  1  0  0  0  0
 35 36  1  0  0  0  0
 36 39  1  0  0  0  0
 38 40  1  0  0  0  0
 39 40  1  0  0  0  0
 39 37  2  0  0  0  0
 40 34  1  0  0  0  0
 41 38  1  0  0  0  0
 42 43  1  6  0  0  0
 44 45  1  0  0  0  0
 45 42  1  0  0  0  0
M  END
>  <MODEL>
4

>  <REMARK>
 VINA RESULT:      -7.4      1.982      2.853
  Name = 
  9 active torsions:
  status: ('A' for Active; 'I' for Inactive)
    1  A    between atoms: C_1  and  C_13
    2  A    between atoms: C_2  and  C_3
    3  A    between atoms: C_2  and  C_29
    4  A    between atoms: C_11  and  C_21
    5  A    between atoms: C_11  and  C_35
    6  A    between atoms: C_13  and  C_36
    7  A    between atoms: C_21  and  C_37
    8  A    between atoms: C_23  and  C_44
    9  A    between atoms: N_32  and  C_35
                            x       y       z     vdW  Elec       q    Type
                         _______ _______ _______ _____ _____    ______ ____

>  <TORSDO>
F 9

$$$$
=
 OpenBabel11062420433D

 45 49  0  0  1  0  0  0  0  0999 V2000
  191.6900  175.4280  142.5680 C   0  0  0  0  0  2  0  0  0  0  0  0
  190.1600  177.5920  143.2010 O   0  0  0  0  0  1  0  0  0  0  0  0
  190.7810  173.4540  141.4310 C   0  0  0  0  0  3  0  0  0  0  0  0
  188.7610  175.7960  143.6010 O   0  0  0  0  0  0  0  0  0  0  0  0
  190.5220  174.5500  142.2600 C   0  0  0  0  0  0  0  0  0  0  0  0
  190.0240  171.4600  140.2520 N   0  0  0  0  0  1  0  0  0  0  0  0
  190.5200  176.2490  145.2070 C   0  0  1  0  0  3  0  0  0  0  0  0
  189.5120  176.8560  144.2000 C   0  0  1  0  0  0  0  0  0  0  0  0
  191.9010  176.9090  145.1970 C   0  0  0  0  0  2  0  0  0  0  0  0
  189.7570  172.5730  141.0960 C   0  0  0  0  0  0  0  0  0  0  0  0
  188.2150  173.8270  142.3860 C   0  0  0  0  0  3  0  0  0  0  0  0
  192.9990  175.9780  144.6530 C   0  0  2  0  0  3  0  0  0  0  0  0
  192.4810  174.8620  143.7360 C   0  0  0  0  0  2  0  0  0  0  0  0
  189.2000  174.7480  142.7610 C   0  0  0  0  0  0  0  0  0  0  0  0
  188.5050  172.7750  141.5770 N   0  0  0  0  0  0  0  0  0  0  0  0
  189.5260  174.8070  146.9420 C   0  0  0  0  0  2  0  0  0  0  0  0
  189.9960  176.0010  146.5930 C   0  0  0  0  0  3  0  0  0  0  0  0
  188.5420  177.8060  144.9200 C   0  0  0  0  0  2  0  0  0  0  0  0
  187.2240  177.9300  144.2240 C   0  0  0  0  0  0  0  0  0  0  0  0
  185.8840  177.8090  142.2360 C   0  0  0  0  0  0  0  0  0  0  0  0
  184.7660  178.1260  142.9480 C   0  0  0  0  0  0  0  0  0  0  0  0
  184.1280  177.9370  140.7120 C   0  0  0  0  0  2  0  0  0  0  0  0
  186.0670  178.2540  144.9640 C   0  0  0  0  0  3  0  0  0  0  0  0
  185.5570  177.6500  140.8660 N   0  0  0  0  0  0  0  0  0  0  0  0
  184.8190  178.3590  144.3250 C   0  0  0  0  0  0  0  0  0  0  0  0
  183.6460  178.1920  142.0740 N   0  0  0  0  0  0  0  0  0  0  0  0
  186.5060  177.5560  139.7720 C   0  0  0  0  0  1  0  0  0  0  0  0
  182.3480  178.7610  142.3860 C   0  0  0  0  0  1  0  0  0  0  0  0
  187.1390  177.7040  142.8370 C   0  0  0  0  0  3  0  0  0  0  0  0
  183.6810  178.6810  145.0540 O   0  0  0  0  0  1  0  0  0  0  0  0
  193.7770  175.3870  145.8210 C   0  0  0  0  0  2  0  0  0  0  0  0
  195.2530  175.2290  145.4800 C   0  0  0  0  0  2  0  0  0  0  0  0
  197.1760  173.7950  146.2150 C   0  0  0  0  0  1  0  0  0  0  0  0
  195.7280  173.8070  145.7500 C   0  0  2  0  0  3  0  0  0  0  0  0
  195.2890  171.2090  142.2790 C   0  0  1  0  0  3  0  0  0  0  0  0
  194.1190  171.3080  143.2630 C   0  0  0  0  0  2  0  0  0  0  0  0
  193.8230  171.7630  145.5800 O   0  0  0  0  0  0  0  0  0  0  0  0
  196.5750  172.9880  143.5110 C   0  0  0  0  0  2  0  0  0  0  0  0
  194.4990  171.9940  144.5420 C   0  0  0  0  0  0  0  0  0  0  0  0
  195.5570  172.9690  144.5650 N   0  0  0  0  0  0  0  0  0  0  0  0
  195.9940  172.5630  142.1650 C   0  0  0  0  0  2  0  0  0  0  0  0
  196.2570  170.0770  142.6480 C   0  0  2  0  0  3  0  0  0  0  0  0
  197.1150  169.7990  141.5810 O   0  0  0  0  0  1  0  0  0  0  0  0
  195.8510  168.4310  144.3520 O   0  0  0  0  0  1  0  0  0  0  0  0
  195.5150  168.8060  143.0500 C   0  0  0  0  0  2  0  0  0  0  0  0
  1 13  1  0  0  0  0
  3  5  1  0  0  0  0
  4  8  1  0  0  0  0
  5  1  1  0  0  0  0
  5 14  2  0  0  0  0
  6 10  1  0  0  0  0
  7 17  1  1  0  0  0
  8  2  1  6  0  0  0
  8 18  1  0  0  0  0
  8  7  1  0  0  0  0
  9  7  1  0  0  0  0
 10  3  2  0  0  0  0
 10 15  1  0  0  0  0
 11 14  1  0  0  0  0
 12  9  1  0  0  0  0
 12 31  1  1  0  0  0
 13 12  1  0  0  0  0
 14  4  1  0  0  0  0
 15 11  2  0  0  0  0
 17 16  2  0  0  0  0
 19 18  1  0  0  0  0
 19 23  1  0  0  0  0
 20 29  1  0  0  0  0
 20 21  2  0  0  0  0
 21 25  1  0  0  0  0
 22 24  1  0  0  0  0
 22 26  1  0  0  0  0
 24 20  1  0  0  0  0
 25 23  2  0  0  0  0
 25 30  1  0  0  0  0
 26 28  1  0  0  0  0
 26 21  1  0  0  0  0
 27 24  1  0  0  0  0
 29 19  2  0  0  0  0
 32 34  1  0  0  0  0
 32 31  1  0  0  0  0
 34 33  1  6  0  0  0
 35 42  1  1  0  0  0
 35 36  1  0  0  0  0
 36 39  1  0  0  0  0
 38 40  1  0  0  0  0
 39 40  1  0  0  0  0
 39 37  2  0  0  0  0
 40 34  1  0  0  0  0
 41 35  1  0  0  0  0
 41 38  1  0  0  0  0
 42 43  1  6  0  0  0
 42 45  1  0  0  0  0
 45 44  1  0  0  0  0
M  END
>  <MODEL>
5

>  <REMARK>
 VINA RESULT:      -7.2      2.422      7.490
  Name = 
  9 active torsions:
  status: ('A' for Active; 'I' for Inactive)
    1  A    between atoms: C_1  and  C_13
    2  A    between atoms: C_2  and  C_3
    3  A    between atoms: C_2  and  C_29
    4  A    between atoms: C_11  and  C_21
    5  A    between atoms: C_11  and  C_35
    6  A    between atoms: C_13  and  C_36
    7  A    between atoms: C_21  and  C_37
    8  A    between atoms: C_23  and  C_44
    9  A    between atoms: N_32  and  C_35
                            x       y       z     vdW  Elec       q    Type
                         _______ _______ _______ _____ _____    ______ ____

>  <TORSDO>
F 9

$$$$
=
 OpenBabel11062420433D

 45 49  0  0  1  0  0  0  0  0999 V2000
  190.2050  173.1940  144.8850 C   0  0  0  0  0  2  0  0  0  0  0  0
  192.8630  172.8820  145.3940 O   0  0  0  0  0  1  0  0  0  0  0  0
  189.2530  172.9600  142.6370 C   0  0  0  0  0  3  0  0  0  0  0  0
  192.8190  173.9760  143.3570 O   0  0  0  0  0  0  0  0  0  0  0  0
  190.3810  173.2680  143.4040 C   0  0  0  0  0  0  0  0  0  0  0  0
  188.1670  172.6970  140.4710 N   0  0  0  0  0  1  0  0  0  0  0  0
  192.3290  175.2630  145.3520 C   0  0  1  0  0  3  0  0  0  0  0  0
  193.1410  174.0920  144.7470 C   0  0  1  0  0  0  0  0  0  0  0  0
  191.7690  174.9900  146.7510 C   0  0  0  0  0  2  0  0  0  0  0  0
  189.3170  173.0120  141.2470 C   0  0  0  0  0  0  0  0  0  0  0  0
  191.5900  173.6700  141.3460 C   0  0  0  0  0  3  0  0  0  0  0  0
  190.2350  174.8780  146.7640 C   0  0  2  0  0  3  0  0  0  0  0  0
  189.6190  174.4950  145.4110 C   0  0  0  0  0  2  0  0  0  0  0  0
  191.5920  173.6400  142.7450 C   0  0  0  0  0  0  0  0  0  0  0  0
  190.4750  173.3630  140.6350 N   0  0  0  0  0  0  0  0  0  0  0  0
  192.4790  177.5040  144.3350 C   0  0  0  0  0  2  0  0  0  0  0  0
  192.9440  176.6270  145.2220 C   0  0  0  0  0  3  0  0  0  0  0  0
  194.6480  174.3570  144.8870 C   0  0  0  0  0  2  0  0  0  0  0  0
  195.3420  174.4880  143.5680 C   0  0  0  0  0  0  0  0  0  0  0  0
  196.3460  173.5050  141.6220 C   0  0  0  0  0  0  0  0  0  0  0  0
  196.5960  174.7410  141.1040 C   0  0  0  0  0  0  0  0  0  0  0  0
  197.4790  173.1790  139.6140 C   0  0  0  0  0  2  0  0  0  0  0  0
  195.5960  175.7690  143.0320 C   0  0  0  0  0  3  0  0  0  0  0  0
  196.8340  172.5040  140.7440 N   0  0  0  0  0  0  0  0  0  0  0  0
  196.2340  175.9060  141.7870 C   0  0  0  0  0  0  0  0  0  0  0  0
  197.2650  174.6090  139.8560 N   0  0  0  0  0  0  0  0  0  0  0  0
  196.9750  171.0940  141.0590 C   0  0  0  0  0  1  0  0  0  0  0  0
  197.9410  175.6690  139.1300 C   0  0  0  0  0  1  0  0  0  0  0  0
  195.7220  173.3330  142.8580 C   0  0  0  0  0  3  0  0  0  0  0  0
  196.4860  177.1660  141.2620 O   0  0  0  0  0  1  0  0  0  0  0  0
  189.6420  176.1880  147.2640 C   0  0  0  0  0  2  0  0  0  0  0  0
  188.1200  176.1510  147.2470 C   0  0  0  0  0  2  0  0  0  0  0  0
  186.3090  177.8850  147.3320 C   0  0  0  0  0  1  0  0  0  0  0  0
  187.5480  177.4030  146.5940 C   0  0  2  0  0  3  0  0  0  0  0  0
  186.6200  176.8200  142.3770 C   0  0  1  0  0  3  0  0  0  0  0  0
  188.0700  177.1230  142.7640 C   0  0  0  0  0  2  0  0  0  0  0  0
  189.2060  178.2720  144.5120 O   0  0  0  0  0  0  0  0  0  0  0  0
  185.9200  176.6950  144.7920 C   0  0  0  0  0  2  0  0  0  0  0  0
  188.2030  177.5820  144.1870 C   0  0  0  0  0  0  0  0  0  0  0  0
  187.2530  177.1640  145.1830 N   0  0  0  0  0  0  0  0  0  0  0  0
  185.9580  175.9590  143.4560 C   0  0  0  0  0  2  0  0  0  0  0  0
  185.8240  178.0990  142.0830 C   0  0  2  0  0  3  0  0  0  0  0  0
  184.6050  178.0860  142.7660 O   0  0  0  0  0  1  0  0  0  0  0  0
  186.3370  177.3730  139.8490 O   0  0  0  0  0  1  0  0  0  0  0  0
  185.5700  178.2760  140.5890 C   0  0  0  0  0  2  0  0  0  0  0  0
  1 13  1  0  0  0  0
  3  5  1  0  0  0  0
  4  8  1  0  0  0  0
  5  1  1  0  0  0  0
  6 10  1  0  0  0  0
  7 17  1  1  0  0  0
  7  9  1  0  0  0  0
  8 18  1  0  0  0  0
  8  7  1  0  0  0  0
  8  2  1  1  0  0  0
  9 12  1  0  0  0  0
 10  3  2  0  0  0  0
 11 14  1  0  0  0  0
 12 31  1  6  0  0  0
 13 12  1  0  0  0  0
 14  4  1  0  0  0  0
 14  5  2  0  0  0  0
 15 10  1  0  0  0  0
 15 11  2  0  0  0  0
 16 17  2  0  0  0  0
 19 18  1  0  0  0  0
 20 29  1  0  0  0  0
 21 20  2  0  0  0  0
 21 25  1  0  0  0  0
 22 26  1  0  0  0  0
 22 24  1  0  0  0  0
 23 19  1  0  0  0  0
 24 27  1  0  0  0  0
 24 20  1  0  0  0  0
 25 23  2  0  0  0  0
 26 21  1  0  0  0  0
 28 26  1  0  0  0  0
 29 19  2  0  0  0  0
 30 25  1  0  0  0  0
 32 31  1  0  0  0  0
 34 32  1  0  0  0  0
 34 33  1  1  0  0  0
 35 42  1  1  0  0  0
 35 36  1  0  0  0  0
 35 41  1  0  0  0  0
 36 39  1  0  0  0  0
 38 40  1  0  0  0  0
 39 37  2  0  0  0  0
 39 40  1  0  0  0  0
 40 34  1  0  0  0  0
 41 38  1  0  0  0  0
 42 43  1  1  0  0  0
 44 45  1  0  0  0  0
 45 42  1  0  0  0  0
M  END
>  <MODEL>
6

>  <REMARK>
 VINA RESULT:      -7.2      2.682      6.742
  Name = 
  9 active torsions:
  status: ('A' for Active; 'I' for Inactive)
    1  A    between atoms: C_1  and  C_13
    2  A    between atoms: C_2  and  C_3
    3  A    between atoms: C_2  and  C_29
    4  A    between atoms: C_11  and  C_21
    5  A    between atoms: C_11  and  C_35
    6  A    between atoms: C_13  and  C_36
    7  A    between atoms: C_21  and  C_37
    8  A    between atoms: C_23  and  C_44
    9  A    between atoms: N_32  and  C_35
                            x       y       z     vdW  Elec       q    Type
                         _______ _______ _______ _____ _____    ______ ____

>  <TORSDO>
F 9

$$$$
=
 OpenBabel11062420433D

 45 49  0  0  1  0  0  0  0  0999 V2000
  191.7310  175.4820  142.6060 C   0  0  0  0  0  2  0  0  0  0  0  0
  190.2270  177.6280  143.3520 O   0  0  0  0  0  1  0  0  0  0  0  0
  190.8290  173.6400  141.2600 C   0  0  0  0  0  3  0  0  0  0  0  0
  188.7650  175.8460  143.5270 O   0  0  0  0  0  0  0  0  0  0  0  0
  190.5580  174.6680  142.1680 C   0  0  0  0  0  0  0  0  0  0  0  0
  190.0830  171.7780  139.8770 N   0  0  0  0  0  1  0  0  0  0  0  0
  190.4520  176.1070  145.2480 C   0  0  1  0  0  3  0  0  0  0  0  0
  189.5110  176.8290  144.2510 C   0  0  1  0  0  0  0  0  0  0  0  0
  191.8480  176.7240  145.3620 C   0  0  0  0  0  2  0  0  0  0  0  0
  189.8020  172.8210  140.8020 C   0  0  0  0  0  0  0  0  0  0  0  0
  188.2300  174.0050  142.1210 C   0  0  0  0  0  3  0  0  0  0  0  0
  192.9470  175.8110  144.7910 C   0  0  2  0  0  3  0  0  0  0  0  0
  192.4480  174.7940  143.7570 C   0  0  0  0  0  2  0  0  0  0  0  0
  189.2180  174.8610  142.6210 C   0  0  0  0  0  0  0  0  0  0  0  0
  188.5330  173.0190  141.2370 N   0  0  0  0  0  0  0  0  0  0  0  0
  189.3310  174.5540  146.8000 C   0  0  0  0  0  2  0  0  0  0  0  0
  189.8530  175.7580  146.5810 C   0  0  0  0  0  3  0  0  0  0  0  0
  188.5310  177.7410  145.0040 C   0  0  0  0  0  2  0  0  0  0  0  0
  187.2230  177.9020  144.2960 C   0  0  0  0  0  0  0  0  0  0  0  0
  185.9000  177.8190  142.2960 C   0  0  0  0  0  0  0  0  0  0  0  0
  184.7840  178.1670  142.9970 C   0  0  0  0  0  0  0  0  0  0  0  0
  184.1620  177.9960  140.7550 C   0  0  0  0  0  2  0  0  0  0  0  0
  186.0680  178.2570  145.0260 C   0  0  0  0  0  3  0  0  0  0  0  0
  185.5810  177.6700  140.9220 N   0  0  0  0  0  0  0  0  0  0  0  0
  184.8310  178.3970  144.3750 C   0  0  0  0  0  0  0  0  0  0  0  0
  183.6740  178.2640  142.1130 N   0  0  0  0  0  0  0  0  0  0  0  0
  186.5370  177.5500  139.8370 C   0  0  0  0  0  1  0  0  0  0  0  0
  182.3890  178.8670  142.4130 C   0  0  0  0  0  1  0  0  0  0  0  0
  187.1450  177.6800  142.9080 C   0  0  0  0  0  3  0  0  0  0  0  0
  183.6950  178.7490  145.0930 O   0  0  0  0  0  1  0  0  0  0  0  0
  193.6510  175.0990  145.9390 C   0  0  0  0  0  2  0  0  0  0  0  0
  195.1640  175.2350  145.8300 C   0  0  0  0  0  2  0  0  0  0  0  0
  197.1560  173.7730  146.2640 C   0  0  0  0  0  1  0  0  0  0  0  0
  195.8160  173.8860  145.5540 C   0  0  2  0  0  3  0  0  0  0  0  0
  196.1650  173.3190  141.2480 C   0  0  1  0  0  3  0  0  0  0  0  0
  197.1170  174.3070  141.9280 C   0  0  0  0  0  2  0  0  0  0  0  0
  197.0970  175.7050  143.8550 O   0  0  0  0  0  0  0  0  0  0  0  0
  195.2040  172.6020  143.4620 C   0  0  0  0  0  2  0  0  0  0  0  0
  196.7100  174.6230  143.3370 C   0  0  0  0  0  0  0  0  0  0  0  0
  195.9690  173.6680  144.1180 N   0  0  0  0  0  0  0  0  0  0  0  0
  195.8850  172.1360  142.1780 C   0  0  0  0  0  2  0  0  0  0  0  0
  194.8770  174.0000  140.7670 C   0  0  2  0  0  3  0  0  0  0  0  0
  194.1620  173.1520  139.9180 O   0  0  0  0  0  1  0  0  0  0  0  0
  194.5630  176.3830  140.7170 O   0  0  0  0  0  1  0  0  0  0  0  0
  195.1660  175.3150  140.0490 C   0  0  0  0  0  2  0  0  0  0  0  0
  1 13  1  0  0  0  0
  3  5  1  0  0  0  0
  4  8  1  0  0  0  0
  5  1  1  0  0  0  0
  5 14  2  0  0  0  0
  6 10  1  0  0  0  0
  7  9  1  0  0  0  0
  7 17  1  1  0  0  0
  8  2  1  6  0  0  0
  8 18  1  0  0  0  0
  8  7  1  0  0  0  0
 10 15  1  0  0  0  0
 10  3  2  0  0  0  0
 11 14  1  0  0  0  0
 12  9  1  0  0  0  0
 12 31  1  1  0  0  0
 13 12  1  0  0  0  0
 14  4  1  0  0  0  0
 15 11  2  0  0  0  0
 17 16  2  0  0  0  0
 19 18  1  0  0  0  0
 19 23  1  0  0  0  0
 20 29  1  0  0  0  0
 20 21  2  0  0  0  0
 21 25  1  0  0  0  0
 22 24  1  0  0  0  0
 22 26  1  0  0  0  0
 24 20  1  0  0  0  0
 25 23  2  0  0  0  0
 25 30  1  0  0  0  0
 26 28  1  0  0  0  0
 26 21  1  0  0  0  0
 27 24  1  0  0  0  0
 29 19  2  0  0  0  0
 32 31  1  0  0  0  0
 34 32  1  0  0  0  0
 34 33  1  1  0  0  0
 35 42  1  1  0  0  0
 35 36  1  0  0  0  0
 35 41  1  0  0  0  0
 36 39  1  0  0  0  0
 38 40  1  0  0  0  0
 39 37  2  0  0  0  0
 39 40  1  0  0  0  0
 40 34  1  0  0  0  0
 41 38  1  0  0  0  0
 42 43  1  6  0  0  0
 45 44  1  0  0  0  0
 45 42  1  0  0  0  0
M  END
>  <MODEL>
7

>  <REMARK>
 VINA RESULT:      -7.2      2.463      7.635
  Name = 
  9 active torsions:
  status: ('A' for Active; 'I' for Inactive)
    1  A    between atoms: C_1  and  C_13
    2  A    between atoms: C_2  and  C_3
    3  A    between atoms: C_2  and  C_29
    4  A    between atoms: C_11  and  C_21
    5  A    between atoms: C_11  and  C_35
    6  A    between atoms: C_13  and  C_36
    7  A    between atoms: C_21  and  C_37
    8  A    between atoms: C_23  and  C_44
    9  A    between atoms: N_32  and  C_35
                            x       y       z     vdW  Elec       q    Type
                         _______ _______ _______ _____ _____    ______ ____

>  <TORSDO>
F 9

$$$$
=
 OpenBabel11062420433D

 45 49  0  0  1  0  0  0  0  0999 V2000
  192.7500  176.0180  143.4240 C   0  0  0  0  0  2  0  0  0  0  0  0
  190.8490  175.0320  141.7410 O   0  0  0  0  0  1  0  0  0  0  0  0
  195.1520  175.7510  143.0070 C   0  0  0  0  0  3  0  0  0  0  0  0
  192.4840  173.3970  141.7400 O   0  0  0  0  0  0  0  0  0  0  0  0
  193.8650  175.2440  142.8020 C   0  0  0  0  0  0  0  0  0  0  0  0
  197.5640  175.6130  142.6850 N   0  0  0  0  0  1  0  0  0  0  0  0
  191.0410  173.5640  143.6820 C   0  0  1  0  0  3  0  0  0  0  0  0
  191.1510  173.7260  142.1450 C   0  0  1  0  0  0  0  0  0  0  0  0
  190.2230  174.6550  144.3770 C   0  0  0  0  0  2  0  0  0  0  0  0
  196.2570  175.0930  142.4750 C   0  0  0  0  0  0  0  0  0  0  0  0
  194.8520  173.4320  141.5370 C   0  0  0  0  0  3  0  0  0  0  0  0
  191.0860  175.5670  145.2660 C   0  0  2  0  0  3  0  0  0  0  0  0
  192.5700  175.6060  144.8770 C   0  0  0  0  0  2  0  0  0  0  0  0
  193.7010  174.0440  142.0470 C   0  0  0  0  0  0  0  0  0  0  0  0
  196.0860  173.9560  141.7560 N   0  0  0  0  0  0  0  0  0  0  0  0
  189.6900  171.9720  144.9910 C   0  0  0  0  0  2  0  0  0  0  0  0
  190.7190  172.1820  144.1750 C   0  0  0  0  0  3  0  0  0  0  0  0
  190.1690  172.7820  141.4350 C   0  0  0  0  0  2  0  0  0  0  0  0
  189.9500  173.1410  140.0000 C   0  0  0  0  0  0  0  0  0  0  0  0
  190.6250  173.0780  137.6980 C   0  0  0  0  0  0  0  0  0  0  0  0
  189.5160  173.7810  137.3340 C   0  0  0  0  0  0  0  0  0  0  0  0
  190.7740  173.4310  135.4010 C   0  0  0  0  0  2  0  0  0  0  0  0
  188.7980  173.8650  139.6250 C   0  0  0  0  0  3  0  0  0  0  0  0
  191.4220  172.8060  136.5570 N   0  0  0  0  0  0  0  0  0  0  0  0
  188.5730  174.1970  138.2780 C   0  0  0  0  0  0  0  0  0  0  0  0
  189.5320  174.0060  135.9290 N   0  0  0  0  0  0  0  0  0  0  0  0
  192.7830  172.3010  136.5720 C   0  0  0  0  0  1  0  0  0  0  0  0
  188.6900  174.9360  135.2000 C   0  0  0  0  0  1  0  0  0  0  0  0
  190.8840  172.7390  139.0260 C   0  0  0  0  0  3  0  0  0  0  0  0
  187.4410  174.9120  137.9100 O   0  0  0  0  0  1  0  0  0  0  0  0
  190.9300  175.1400  146.7200 C   0  0  0  0  0  2  0  0  0  0  0  0
  189.6700  175.7320  147.3380 C   0  0  0  0  0  2  0  0  0  0  0  0
  189.5950  178.1860  147.8510 C   0  0  0  0  0  1  0  0  0  0  0  0
  189.3880  177.1230  146.7840 C   0  0  2  0  0  3  0  0  0  0  0  0
  185.3650  177.4820  145.1520 C   0  0  1  0  0  3  0  0  0  0  0  0
  186.5360  177.3670  144.1730 C   0  0  0  0  0  2  0  0  0  0  0  0
  188.8520  177.9110  144.1520 O   0  0  0  0  0  0  0  0  0  0  0  0
  186.8820  177.1260  147.1290 C   0  0  0  0  0  2  0  0  0  0  0  0
  187.8670  177.5390  144.8430 C   0  0  0  0  0  0  0  0  0  0  0  0
  188.0380  177.1980  146.2300 N   0  0  0  0  0  0  0  0  0  0  0  0
  185.6360  176.6330  146.3970 C   0  0  0  0  0  2  0  0  0  0  0  0
  185.0470  178.9430  145.5000 C   0  0  2  0  0  3  0  0  0  0  0  0
  184.0660  179.0080  146.4940 O   0  0  0  0  0  1  0  0  0  0  0  0
  183.5720  179.0410  143.6050 O   0  0  0  0  0  1  0  0  0  0  0  0
  184.5850  179.7280  144.2770 C   0  0  0  0  0  2  0  0  0  0  0  0
  1 13  1  0  0  0  0
  4 14  1  0  0  0  0
  4  8  1  0  0  0  0
  5  3  1  0  0  0  0
  5  1  1  0  0  0  0
  7 17  1  6  0  0  0
  7  9  1  0  0  0  0
  8  2  1  6  0  0  0
  8  7  1  0  0  0  0
  9 12  1  0  0  0  0
 10  6  1  0  0  0  0
 10  3  2  0  0  0  0
 11 15  2  0  0  0  0
 11 14  1  0  0  0  0
 12 31  1  1  0  0  0
 13 12  1  0  0  0  0
 14  5  2  0  0  0  0
 15 10  1  0  0  0  0
 17 16  2  0  0  0  0
 18  8  1  0  0  0  0
 19 18  1  0  0  0  0
 20 29  1  0  0  0  0
 21 20  2  0  0  0  0
 21 25  1  0  0  0  0
 22 26  1  0  0  0  0
 22 24  1  0  0  0  0
 23 19  1  0  0  0  0
 24 27  1  0  0  0  0
 24 20  1  0  0  0  0
 25 23  2  0  0  0  0
 26 21  1  0  0  0  0
 28 26  1  0  0  0  0
 29 19  2  0  0  0  0
 30 25  1  0  0  0  0
 31 32  1  0  0  0  0
 34 32  1  0  0  0  0
 34 33  1  1  0  0  0
 35 42  1  1  0  0  0
 35 41  1  0  0  0  0
 36 39  1  0  0  0  0
 36 35  1  0  0  0  0
 37 39  2  0  0  0  0
 39 40  1  0  0  0  0
 40 34  1  0  0  0  0
 40 38  1  0  0  0  0
 41 38  1  0  0  0  0
 42 43  1  1  0  0  0
 44 45  1  0  0  0  0
 45 42  1  0  0  0  0
M  END
>  <MODEL>
8

>  <REMARK>
 VINA RESULT:      -7.1      2.572      8.930
  Name = 
  9 active torsions:
  status: ('A' for Active; 'I' for Inactive)
    1  A    between atoms: C_1  and  C_13
    2  A    between atoms: C_2  and  C_3
    3  A    between atoms: C_2  and  C_29
    4  A    between atoms: C_11  and  C_21
    5  A    between atoms: C_11  and  C_35
    6  A    between atoms: C_13  and  C_36
    7  A    between atoms: C_21  and  C_37
    8  A    between atoms: C_23  and  C_44
    9  A    between atoms: N_32  and  C_35
                            x       y       z     vdW  Elec       q    Type
                         _______ _______ _______ _____ _____    ______ ____

>  <TORSDO>
F 9

$$$$
=
 OpenBabel11062420433D

 45 49  0  0  1  0  0  0  0  0999 V2000
  195.3280  174.6360  145.8830 C   0  0  0  0  0  2  0  0  0  0  0  0
  195.2910  176.3700  143.7820 O   0  0  0  0  0  1  0  0  0  0  0  0
  196.4160  172.4410  145.7670 C   0  0  0  0  0  3  0  0  0  0  0  0
  195.0190  174.2990  142.7890 O   0  0  0  0  0  0  0  0  0  0  0  0
  195.7900  173.4750  145.0650 C   0  0  0  0  0  0  0  0  0  0  0  0
  197.5080  170.2630  145.8090 N   0  0  0  0  0  1  0  0  0  0  0  0
  193.1210  175.2650  143.9480 C   0  0  1  0  0  3  0  0  0  0  0  0
  194.3880  175.5450  143.1020 C   0  0  1  0  0  0  0  0  0  0  0  0
  192.8960  176.2530  145.0960 C   0  0  0  0  0  2  0  0  0  0  0  0
  196.8710  171.3120  145.0910 C   0  0  0  0  0  0  0  0  0  0  0  0
  196.1020  172.1970  143.0320 C   0  0  0  0  0  3  0  0  0  0  0  0
  193.0770  175.6050  146.4800 C   0  0  2  0  0  3  0  0  0  0  0  0
  193.9580  174.3490  146.4770 C   0  0  0  0  0  2  0  0  0  0  0  0
  195.6200  173.3560  143.6520 C   0  0  0  0  0  0  0  0  0  0  0  0
  196.7070  171.2140  143.7480 N   0  0  0  0  0  0  0  0  0  0  0  0
  191.2790  173.7740  143.2690 C   0  0  0  0  0  2  0  0  0  0  0  0
  191.8680  174.9640  143.1770 C   0  0  0  0  0  3  0  0  0  0  0  0
  194.0100  176.2530  141.7910 C   0  0  0  0  0  2  0  0  0  0  0  0
  194.6390  175.6250  140.5880 C   0  0  0  0  0  0  0  0  0  0  0  0
  194.4900  174.2700  138.6130 C   0  0  0  0  0  0  0  0  0  0  0  0
  195.8060  174.4930  138.3370 C   0  0  0  0  0  0  0  0  0  0  0  0
  194.9960  173.0440  136.6990 C   0  0  0  0  0  2  0  0  0  0  0  0
  196.0010  175.8610  140.3030 C   0  0  0  0  0  3  0  0  0  0  0  0
  193.9270  173.4150  137.6310 N   0  0  0  0  0  0  0  0  0  0  0  0
  196.6000  175.2890  139.1680 C   0  0  0  0  0  0  0  0  0  0  0  0
  196.1720  173.7900  137.1570 N   0  0  0  0  0  0  0  0  0  0  0  0
  192.6360  172.7590  137.7150 C   0  0  0  0  0  1  0  0  0  0  0  0
  197.5250  173.5470  136.6890 C   0  0  0  0  0  1  0  0  0  0  0  0
  193.8650  174.8160  139.7350 C   0  0  0  0  0  3  0  0  0  0  0  0
  197.9410  175.5190  138.8890 O   0  0  0  0  0  1  0  0  0  0  0  0
  191.7070  175.2910  147.0670 C   0  0  0  0  0  2  0  0  0  0  0  0
  190.7210  176.4230  146.8110 C   0  0  0  0  0  2  0  0  0  0  0  0
  189.3160  174.4300  146.2240 C   0  0  0  0  0  1  0  0  0  0  0  0
  189.3030  175.8890  146.6500 C   0  0  2  0  0  3  0  0  0  0  0  0
  186.9630  178.2070  143.7990 C   0  0  1  0  0  3  0  0  0  0  0  0
  186.7220  178.4410  145.2930 C   0  0  0  0  0  2  0  0  0  0  0  0
  186.9120  177.1880  147.3070 O   0  0  0  0  0  0  0  0  0  0  0  0
  188.8760  176.6400  144.2730 C   0  0  0  0  0  2  0  0  0  0  0  0
  187.3690  177.3940  146.1510 C   0  0  0  0  0  0  0  0  0  0  0  0
  188.5470  176.7020  145.7010 N   0  0  0  0  0  0  0  0  0  0  0  0
  188.4440  177.9110  143.5460 C   0  0  0  0  0  2  0  0  0  0  0  0
  186.0450  177.1160  143.2320 C   0  0  2  0  0  3  0  0  0  0  0  0
  186.6210  176.5290  142.1020 O   0  0  0  0  0  1  0  0  0  0  0  0
  184.4760  177.6540  141.4920 O   0  0  0  0  0  1  0  0  0  0  0  0
  184.6670  177.6650  142.8750 C   0  0  0  0  0  2  0  0  0  0  0  0
  1 13  1  0  0  0  0
  4  8  1  0  0  0  0
  4 14  1  0  0  0  0
  5  3  2  0  0  0  0
  5  1  1  0  0  0  0
  7 17  1  6  0  0  0
  7  9  1  0  0  0  0
  8  2  1  1  0  0  0
  8  7  1  0  0  0  0
  9 12  1  0  0  0  0
 10  3  1  0  0  0  0
 10  6  1  0  0  0  0
 11 14  2  0  0  0  0
 11 15  1  0  0  0  0
 12 31  1  6  0  0  0
 13 12  1  0  0  0  0
 14  5  1  0  0  0  0
 15 10  2  0  0  0  0
 17 16  2  0  0  0  0
 18  8  1  0  0  0  0
 19 18  1  0  0  0  0
 20 29  1  0  0  0  0
 21 20  2  0  0  0  0
 21 25  1  0  0  0  0
 22 26  1  0  0  0  0
 22 24  1  0  0  0  0
 23 19  1  0  0  0  0
 24 27  1  0  0  0  0
 24 20  1  0  0  0  0
 25 23  2  0  0  0  0
 26 21  1  0  0  0  0
 28 26  1  0  0  0  0
 29 19  2  0  0  0  0
 30 25  1  0  0  0  0
 32 31  1  0  0  0  0
 34 33  1  6  0  0  0
 34 32  1  0  0  0  0
 35 42  1  1  0  0  0
 35 36  1  0  0  0  0
 36 39  1  0  0  0  0
 38 40  1  0  0  0  0
 39 37  2  0  0  0  0
 40 39  1  0  0  0  0
 40 34  1  0  0  0  0
 41 35  1  0  0  0  0
 41 38  1  0  0  0  0
 42 43  1  6  0  0  0
 44 45  1  0  0  0  0
 45 42  1  0  0  0  0
M  END
>  <MODEL>
9

>  <REMARK>
 VINA RESULT:      -7.1      3.180      8.347
  Name = 
  9 active torsions:
  status: ('A' for Active; 'I' for Inactive)
    1  A    between atoms: C_1  and  C_13
    2  A    between atoms: C_2  and  C_3
    3  A    between atoms: C_2  and  C_29
    4  A    between atoms: C_11  and  C_21
    5  A    between atoms: C_11  and  C_35
    6  A    between atoms: C_13  and  C_36
    7  A    between atoms: C_21  and  C_37
    8  A    between atoms: C_23  and  C_44
    9  A    between atoms: N_32  and  C_35
                            x       y       z     vdW  Elec       q    Type
                         _______ _______ _______ _____ _____    ______ ____

>  <TORSDO>
F 9

$$$$
