=
 OpenBabel11062421523D

 37 40  0  0  1  0  0  0  0  0999 V2000
  194.5260  173.3430  146.1310 F   0  0  0  0  0  0  0  0  0  0  0  0
  195.1660  175.4670  146.2700 F   0  0  0  0  0  0  0  0  0  0  0  0
  193.5730  174.9420  144.5090 C   0  0  1  0  0  0  0  0  0  0  0  0
  192.0960  174.8300  147.0690 F   0  0  0  0  0  0  0  0  0  0  0  0
  191.6820  175.7890  146.1570 C   0  0  0  0  0  0  0  0  0  0  0  0
  190.5480  175.2840  143.8700 C   0  0  2  0  0  3  0  0  0  0  0  0
  195.6340  173.4910  143.4430 C   0  0  0  0  0  2  0  0  0  0  0  0
  194.8570  176.6330  143.3490 F   0  0  0  0  0  0  0  0  0  0  0  0
  194.1110  175.4800  143.1620 C   0  0  1  0  0  3  0  0  0  0  0  0
  192.2470  172.9790  145.2510 F   0  0  0  0  0  0  0  0  0  0  0  0
  191.3700  174.1080  143.3310 C   0  0  0  0  0  2  0  0  0  0  0  0
  194.9800  174.4410  142.4400 C   0  0  0  0  0  2  0  0  0  0  0  0
  195.9840  174.2030  144.6040 O   0  0  0  0  0  0  0  0  0  0  0  0
  190.3930  175.3610  145.4060 C   0  0  1  0  0  3  0  0  0  0  0  0
  194.8190  174.4670  145.3750 C   0  0  0  0  0  0  0  0  0  0  0  0
  192.8430  176.1250  145.2080 C   0  0  0  0  0  2  0  0  0  0  0  0
  192.6100  173.7560  144.1660 C   0  0  1  0  0  3  0  0  0  0  0  0
  191.3800  176.9340  146.8670 F   0  0  0  0  0  0  0  0  0  0  0  0
  189.6980  174.1420  146.0110 C   0  0  0  0  0  2  0  0  0  0  0  0
  188.9790  174.5180  147.1470 O   0  0  0  0  0  1  0  0  0  0  0  0
  189.4120  175.0750  141.7460 O   0  0  0  0  0  1  0  0  0  0  0  0
  189.2740  175.5380  143.0570 C   0  0  2  0  0  3  0  0  0  0  0  0
  188.7250  177.5290  141.8030 O   0  0  0  0  0  1  0  0  0  0  0  0
  188.7780  176.9870  143.0930 C   0  0  1  0  0  3  0  0  0  0  0  0
  186.8720  178.4590  144.1330 C   0  0  2  0  0  3  0  0  0  0  0  0
  185.4850  177.5380  146.9250 C   0  0  1  0  0  3  0  0  0  0  0  0
  184.5480  177.7540  144.7230 O   0  0  0  0  0  0  0  0  0  0  0  0
  187.4190  177.0760  143.7980 C   0  0  2  0  0  0  0  0  0  0  0  0
  187.4540  177.5530  145.2530 C   0  0  2  0  0  3  0  0  0  0  0  0
  186.4750  176.0830  143.5020 O   0  0  0  0  0  1  0  0  0  0  0  0
  185.3380  178.6560  144.0010 C   0  0  2  0  0  3  0  0  0  0  0  0
  184.5100  178.2820  146.0190 C   0  0  0  0  0  2  0  0  0  0  0  0
  186.5100  176.7180  146.1340 C   0  0  0  0  0  2  0  0  0  0  0  0
  183.9860  177.9880  142.1850 O   0  0  0  0  0  0  0  0  0  0  0  0
  184.9150  178.6840  142.5650 C   0  0  0  0  0  3  0  0  0  0  0  0
  186.1400  178.4900  147.8760 C   0  0  0  0  0  3  0  0  0  0  0  0
  185.9020  179.6850  147.8140 O   0  0  0  0  0  0  0  0  0  0  0  0
  3 16  1  1  0  0  0
  3 15  1  0  0  0  0
  5 18  1  0  0  0  0
  5  4  1  0  0  0  0
  6 22  1  6  0  0  0
  6 14  1  0  0  0  0
  7 13  1  0  0  0  0
  9  8  1  1  0  0  0
  9  3  1  0  0  0  0
 11  6  1  0  0  0  0
 11 17  1  0  0  0  0
 12  9  1  0  0  0  0
 12  7  1  0  0  0  0
 13 15  1  0  0  0  0
 14 19  1  1  0  0  0
 14  5  1  0  0  0  0
 15  1  1  0  0  0  0
 15  2  1  0  0  0  0
 16  5  1  0  0  0  0
 17  3  1  0  0  0  0
 17 10  1  1  0  0  0
 19 20  1  0  0  0  0
 22 21  1  6  0  0  0
 22 24  1  0  0  0  0
 24 23  1  6  0  0  0
 24 28  1  0  0  0  0
 25 29  1  0  0  0  0
 26 36  1  0  0  0  0
 27 32  1  0  0  0  0
 28 25  1  0  0  0  0
 28 29  1  0  0  0  0
 29 33  1  0  0  0  0
 30 28  1  0  0  0  0
 31 25  1  0  0  0  0
 31 27  1  0  0  0  0
 32 26  1  0  0  0  0
 33 26  1  0  0  0  0
 34 35  2  0  0  0  0
 35 31  1  0  0  0  0
 37 36  2  0  0  0  0
M  END
>  <MODEL>
1

>  <REMARK>
 VINA RESULT:      -8.7      0.000      0.000
  Name = 
  6 active torsions:
  status: ('A' for Active; 'I' for Inactive)
    1  A    between atoms: C_4  and  C_25
    2  A    between atoms: C_5  and  C_28
    3  A    between atoms: C_8  and  C_33
    4  A    between atoms: C_12  and  C_31
    5  A    between atoms: C_21  and  C_32
    6  A    between atoms: C_31  and  C_33
                            x       y       z     vdW  Elec       q    Type
                         _______ _______ _______ _____ _____    ______ ____

>  <TORSDO>
F 6

$$$$
=
 OpenBabel11062421523D

 37 40  0  0  1  0  0  0  0  0999 V2000
  195.1760  174.7320  146.2450 F   0  0  0  0  0  0  0  0  0  0  0  0
  195.7990  175.9100  144.4670 F   0  0  0  0  0  0  0  0  0  0  0  0
  193.7250  174.6580  144.2490 C   0  0  1  0  0  0  0  0  0  0  0  0
  193.1670  176.9470  146.0350 F   0  0  0  0  0  0  0  0  0  0  0  0
  192.4660  176.9100  144.8400 C   0  0  0  0  0  0  0  0  0  0  0  0
  190.6530  175.1460  144.2260 C   0  0  2  0  0  3  0  0  0  0  0  0
  195.3440  172.4590  144.4330 C   0  0  0  0  0  2  0  0  0  0  0  0
  194.5390  174.4170  141.9820 F   0  0  0  0  0  0  0  0  0  0  0  0
  193.7880  173.7940  142.9670 C   0  0  1  0  0  3  0  0  0  0  0  0
  192.7400  174.4300  146.5150 F   0  0  0  0  0  0  0  0  0  0  0  0
  191.2700  173.8330  144.7230 C   0  0  0  0  0  2  0  0  0  0  0  0
  194.3860  172.4070  143.2420 C   0  0  0  0  0  2  0  0  0  0  0  0
  196.0440  173.6770  144.4190 O   0  0  0  0  0  0  0  0  0  0  0  0
  191.0070  176.4150  145.0340 C   0  0  1  0  0  3  0  0  0  0  0  0
  195.1920  174.7270  144.8590 C   0  0  0  0  0  0  0  0  0  0  0  0
  193.2480  176.0740  143.8150 C   0  0  0  0  0  2  0  0  0  0  0  0
  192.7190  173.9520  145.2180 C   0  0  1  0  0  3  0  0  0  0  0  0
  192.3970  178.2020  144.3570 F   0  0  0  0  0  0  0  0  0  0  0  0
  190.5630  176.3510  146.4950 C   0  0  0  0  0  2  0  0  0  0  0  0
  189.9280  177.5420  146.8530 O   0  0  0  0  0  1  0  0  0  0  0  0
  188.9370  173.7440  143.2590 O   0  0  0  0  0  1  0  0  0  0  0  0
  189.1810  174.9960  143.8290 C   0  0  2  0  0  3  0  0  0  0  0  0
  188.6240  175.7510  141.6030 O   0  0  0  0  0  1  0  0  0  0  0  0
  188.6430  176.1290  142.9510 C   0  0  1  0  0  3  0  0  0  0  0  0
  186.9520  178.0670  143.4680 C   0  0  2  0  0  3  0  0  0  0  0  0
  185.1050  177.9060  146.1370 C   0  0  1  0  0  3  0  0  0  0  0  0
  184.4830  177.8880  143.8160 O   0  0  0  0  0  0  0  0  0  0  0  0
  187.2550  176.5740  143.4300 C   0  0  2  0  0  0  0  0  0  0  0  0
  187.2160  177.2870  144.7850 C   0  0  2  0  0  3  0  0  0  0  0  0
  186.1770  175.7220  143.1560 O   0  0  0  0  0  1  0  0  0  0  0  0
  185.5100  178.4980  143.0870 C   0  0  2  0  0  3  0  0  0  0  0  0
  184.4020  178.6350  144.9970 C   0  0  0  0  0  2  0  0  0  0  0  0
  186.0340  176.7950  145.6370 C   0  0  0  0  0  2  0  0  0  0  0  0
  186.2070  178.3270  140.8380 O   0  0  0  0  0  0  0  0  0  0  0  0
  185.2670  178.3460  141.6180 C   0  0  0  0  0  3  0  0  0  0  0  0
  185.8190  178.8830  147.0170 C   0  0  0  0  0  3  0  0  0  0  0  0
  186.4320  178.4950  147.9990 O   0  0  0  0  0  0  0  0  0  0  0  0
  2 15  1  0  0  0  0
  3 16  1  6  0  0  0
  3 15  1  0  0  0  0
  3 17  1  0  0  0  0
  5 14  1  0  0  0  0
  5  4  1  0  0  0  0
  6 22  1  1  0  0  0
  6 11  1  0  0  0  0
  6 14  1  0  0  0  0
  9  8  1  6  0  0  0
  9 12  1  0  0  0  0
  9  3  1  0  0  0  0
 11 17  1  0  0  0  0
 12  7  1  0  0  0  0
 13  7  1  0  0  0  0
 13 15  1  0  0  0  0
 14 19  1  1  0  0  0
 15  1  1  0  0  0  0
 16  5  1  0  0  0  0
 17 10  1  1  0  0  0
 18  5  1  0  0  0  0
 19 20  1  0  0  0  0
 22 21  1  6  0  0  0
 24 23  1  6  0  0  0
 24 28  1  0  0  0  0
 24 22  1  0  0  0  0
 25 29  1  0  0  0  0
 26 36  1  0  0  0  0
 27 32  1  0  0  0  0
 28 25  1  0  0  0  0
 28 29  1  0  0  0  0
 29 33  1  0  0  0  0
 30 28  1  0  0  0  0
 31 25  1  0  0  0  0
 31 27  1  0  0  0  0
 32 26  1  0  0  0  0
 33 26  1  0  0  0  0
 34 35  2  0  0  0  0
 35 31  1  0  0  0  0
 36 37  2  0  0  0  0
M  END
>  <MODEL>
2

>  <REMARK>
 VINA RESULT:      -8.2      1.415      1.615
  Name = 
  6 active torsions:
  status: ('A' for Active; 'I' for Inactive)
    1  A    between atoms: C_4  and  C_25
    2  A    between atoms: C_5  and  C_28
    3  A    between atoms: C_8  and  C_33
    4  A    between atoms: C_12  and  C_31
    5  A    between atoms: C_21  and  C_32
    6  A    between atoms: C_31  and  C_33
                            x       y       z     vdW  Elec       q    Type
                         _______ _______ _______ _____ _____    ______ ____

>  <TORSDO>
F 6

$$$$
=
 OpenBabel11062421523D

 37 40  0  0  1  0  0  0  0  0999 V2000
  184.4740  179.0840  143.9750 F   0  0  0  0  0  0  0  0  0  0  0  0
  186.2600  180.0960  144.8260 F   0  0  0  0  0  0  0  0  0  0  0  0
  186.4560  177.6980  144.4720 C   0  0  1  0  0  0  0  0  0  0  0  0
  186.5410  178.9730  141.8060 F   0  0  0  0  0  0  0  0  0  0  0  0
  187.6730  178.2730  142.1940 C   0  0  0  0  0  0  0  0  0  0  0  0
  187.8000  175.6940  142.5100 C   0  0  2  0  0  3  0  0  0  0  0  0
  184.5520  177.5220  146.4310 C   0  0  0  0  0  2  0  0  0  0  0  0
  187.7700  177.8780  146.4960 F   0  0  0  0  0  0  0  0  0  0  0  0
  186.9380  177.0310  145.7820 C   0  0  1  0  0  3  0  0  0  0  0  0
  184.9430  177.0850  142.6020 F   0  0  0  0  0  0  0  0  0  0  0  0
  186.4890  175.3720  143.2380 C   0  0  0  0  0  2  0  0  0  0  0  0
  185.7620  176.6210  146.6800 C   0  0  0  0  0  2  0  0  0  0  0  0
  184.9880  178.8350  146.1820 O   0  0  0  0  0  0  0  0  0  0  0  0
  187.7570  176.8780  141.5180 C   0  0  1  0  0  3  0  0  0  0  0  0
  185.5220  178.9230  144.8670 C   0  0  0  0  0  0  0  0  0  0  0  0
  187.7270  178.1990  143.7270 C   0  0  0  0  0  2  0  0  0  0  0  0
  185.6770  176.6020  143.6700 C   0  0  1  0  0  3  0  0  0  0  0  0
  188.7730  178.9970  141.7730 F   0  0  0  0  0  0  0  0  0  0  0  0
  186.7620  176.6810  140.3750 C   0  0  0  0  0  2  0  0  0  0  0  0
  187.1090  177.4940  139.2950 O   0  0  0  0  0  1  0  0  0  0  0  0
  187.6950  173.6530  141.2170 O   0  0  0  0  0  1  0  0  0  0  0  0
  188.5280  174.4380  142.0190 C   0  0  2  0  0  3  0  0  0  0  0  0
  189.5740  172.3540  142.6510 O   0  0  0  0  0  1  0  0  0  0  0  0
  189.1840  173.6110  143.1290 C   0  0  1  0  0  3  0  0  0  0  0  0
  191.0910  173.7380  144.9260 C   0  0  2  0  0  3  0  0  0  0  0  0
  191.6860  176.5590  146.4280 C   0  0  1  0  0  3  0  0  0  0  0  0
  193.0690  175.2650  144.9480 O   0  0  0  0  0  0  0  0  0  0  0  0
  190.3650  174.3710  143.7440 C   0  0  2  0  0  0  0  0  0  0  0  0
  190.1320  174.9410  145.1460 C   0  0  2  0  0  3  0  0  0  0  0  0
  191.1390  175.1610  142.8840 O   0  0  0  0  0  1  0  0  0  0  0  0
  192.6290  173.9370  144.9920 C   0  0  2  0  0  3  0  0  0  0  0  0
  192.9470  175.7170  146.2680 C   0  0  0  0  0  2  0  0  0  0  0  0
  190.7010  176.3640  145.2700 C   0  0  0  0  0  2  0  0  0  0  0  0
  193.6940  171.9850  144.2010 O   0  0  0  0  0  0  0  0  0  0  0  0
  193.3280  173.1230  143.9490 C   0  0  0  0  0  3  0  0  0  0  0  0
  191.0490  176.2940  147.7570 C   0  0  0  0  0  3  0  0  0  0  0  0
  191.3230  175.2810  148.3800 O   0  0  0  0  0  0  0  0  0  0  0  0
  1 15  1  0  0  0  0
  2 15  1  0  0  0  0
  3 16  1  6  0  0  0
  3 15  1  0  0  0  0
  3  9  1  0  0  0  0
  4  5  1  0  0  0  0
  5 16  1  0  0  0  0
  6 22  1  6  0  0  0
  6 11  1  0  0  0  0
  7 12  1  0  0  0  0
  9  8  1  1  0  0  0
  9 12  1  0  0  0  0
 11 17  1  0  0  0  0
 13  7  1  0  0  0  0
 14 19  1  6  0  0  0
 14  5  1  0  0  0  0
 14  6  1  0  0  0  0
 15 13  1  0  0  0  0
 17 10  1  6  0  0  0
 17  3  1  0  0  0  0
 18  5  1  0  0  0  0
 20 19  1  0  0  0  0
 22 21  1  1  0  0  0
 22 24  1  0  0  0  0
 24 23  1  6  0  0  0
 24 28  1  0  0  0  0
 25 31  1  0  0  0  0
 25 29  1  0  0  0  0
 26 36  1  0  0  0  0
 27 31  1  0  0  0  0
 27 32  1  0  0  0  0
 28 25  1  0  0  0  0
 28 29  1  0  0  0  0
 29 33  1  0  0  0  0
 30 28  1  0  0  0  0
 32 26  1  0  0  0  0
 33 26  1  0  0  0  0
 35 34  2  0  0  0  0
 35 31  1  0  0  0  0
 36 37  2  0  0  0  0
M  END
>  <MODEL>
3

>  <REMARK>
 VINA RESULT:      -8.2      3.222      7.667
  Name = 
  6 active torsions:
  status: ('A' for Active; 'I' for Inactive)
    1  A    between atoms: C_4  and  C_25
    2  A    between atoms: C_5  and  C_28
    3  A    between atoms: C_8  and  C_33
    4  A    between atoms: C_12  and  C_31
    5  A    between atoms: C_21  and  C_32
    6  A    between atoms: C_31  and  C_33
                            x       y       z     vdW  Elec       q    Type
                         _______ _______ _______ _____ _____    ______ ____

>  <TORSDO>
F 6

$$$$
=
 OpenBabel11062421523D

 37 40  0  0  1  0  0  0  0  0999 V2000
  184.3440  178.8420  143.8810 F   0  0  0  0  0  0  0  0  0  0  0  0
  185.9440  180.1380  144.7160 F   0  0  0  0  0  0  0  0  0  0  0  0
  186.4350  177.7580  144.6220 C   0  0  1  0  0  0  0  0  0  0  0  0
  186.5460  178.7710  141.8470 F   0  0  0  0  0  0  0  0  0  0  0  0
  187.7230  178.2530  142.3640 C   0  0  0  0  0  0  0  0  0  0  0  0
  188.1230  175.7500  142.9510 C   0  0  2  0  0  3  0  0  0  0  0  0
  184.4410  177.5440  146.4860 C   0  0  0  0  0  2  0  0  0  0  0  0
  187.5860  178.2880  146.6830 F   0  0  0  0  0  0  0  0  0  0  0  0
  186.9040  177.2820  146.0180 C   0  0  1  0  0  3  0  0  0  0  0  0
  185.1260  176.7910  142.7480 F   0  0  0  0  0  0  0  0  0  0  0  0
  186.8130  175.3450  143.6380 C   0  0  0  0  0  2  0  0  0  0  0  0
  185.7270  176.8220  146.8890 C   0  0  0  0  0  2  0  0  0  0  0  0
  184.7400  178.8690  146.1260 O   0  0  0  0  0  0  0  0  0  0  0  0
  188.0090  176.8200  141.8420 C   0  0  1  0  0  3  0  0  0  0  0  0
  185.3440  178.8940  144.8390 C   0  0  0  0  0  0  0  0  0  0  0  0
  187.6860  178.3340  143.8980 C   0  0  0  0  0  2  0  0  0  0  0  0
  185.8400  176.5040  143.8970 C   0  0  1  0  0  3  0  0  0  0  0  0
  188.7580  179.0600  141.9310 F   0  0  0  0  0  0  0  0  0  0  0  0
  187.1190  176.3960  140.6740 C   0  0  0  0  0  2  0  0  0  0  0  0
  187.0660  177.4140  139.7200 O   0  0  0  0  0  1  0  0  0  0  0  0
  188.3410  173.6040  141.8580 O   0  0  0  0  0  1  0  0  0  0  0  0
  189.0200  174.5500  142.6310 C   0  0  2  0  0  3  0  0  0  0  0  0
  190.2100  172.6510  143.5360 O   0  0  0  0  0  1  0  0  0  0  0  0
  189.6790  173.9070  143.8550 C   0  0  1  0  0  3  0  0  0  0  0  0
  191.9200  175.2370  143.5590 C   0  0  2  0  0  3  0  0  0  0  0  0
  194.0950  175.2620  145.9750 C   0  0  1  0  0  3  0  0  0  0  0  0
  192.8190  177.0590  145.0150 O   0  0  0  0  0  0  0  0  0  0  0  0
  190.7460  174.8360  144.4460 C   0  0  2  0  0  0  0  0  0  0  0  0
  192.1160  174.1990  144.6990 C   0  0  2  0  0  3  0  0  0  0  0  0
  190.3260  175.7780  145.3930 O   0  0  0  0  0  1  0  0  0  0  0  0
  192.4530  176.6860  143.7170 C   0  0  2  0  0  3  0  0  0  0  0  0
  194.1170  176.5570  145.1700 C   0  0  0  0  0  2  0  0  0  0  0  0
  192.6940  174.6450  146.0520 C   0  0  0  0  0  2  0  0  0  0  0  0
  191.1910  178.6800  143.7760 O   0  0  0  0  0  0  0  0  0  0  0  0
  191.4980  177.6830  143.1390 C   0  0  0  0  0  3  0  0  0  0  0  0
  195.1050  174.2980  145.4360 C   0  0  0  0  0  3  0  0  0  0  0  0
  196.1900  174.1740  145.9820 O   0  0  0  0  0  0  0  0  0  0  0  0
  1 15  1  0  0  0  0
  2 15  1  0  0  0  0
  3 16  1  6  0  0  0
  3 15  1  0  0  0  0
  3  9  1  0  0  0  0
  4  5  1  0  0  0  0
  5 16  1  0  0  0  0
  6 22  1  6  0  0  0
  6 11  1  0  0  0  0
  7 12  1  0  0  0  0
  9  8  1  1  0  0  0
  9 12  1  0  0  0  0
 11 17  1  0  0  0  0
 13  7  1  0  0  0  0
 14 19  1  6  0  0  0
 14  5  1  0  0  0  0
 14  6  1  0  0  0  0
 15 13  1  0  0  0  0
 17 10  1  6  0  0  0
 17  3  1  0  0  0  0
 18  5  1  0  0  0  0
 20 19  1  0  0  0  0
 22 21  1  1  0  0  0
 22 24  1  0  0  0  0
 24 23  1  6  0  0  0
 24 28  1  0  0  0  0
 25 31  1  0  0  0  0
 25 28  1  0  0  0  0
 25 29  1  0  0  0  0
 26 33  1  0  0  0  0
 27 32  1  0  0  0  0
 28 29  1  0  0  0  0
 28 30  1  0  0  0  0
 29 33  1  0  0  0  0
 31 27  1  0  0  0  0
 32 26  1  0  0  0  0
 35 31  1  0  0  0  0
 35 34  2  0  0  0  0
 36 26  1  0  0  0  0
 36 37  2  0  0  0  0
M  END
>  <MODEL>
4

>  <REMARK>
 VINA RESULT:      -8.1      3.252      7.806
  Name = 
  6 active torsions:
  status: ('A' for Active; 'I' for Inactive)
    1  A    between atoms: C_4  and  C_25
    2  A    between atoms: C_5  and  C_28
    3  A    between atoms: C_8  and  C_33
    4  A    between atoms: C_12  and  C_31
    5  A    between atoms: C_21  and  C_32
    6  A    between atoms: C_31  and  C_33
                            x       y       z     vdW  Elec       q    Type
                         _______ _______ _______ _____ _____    ______ ____

>  <TORSDO>
F 6

$$$$
=
 OpenBabel11062421523D

 37 40  0  0  1  0  0  0  0  0999 V2000
  194.7650  175.2900  146.6110 F   0  0  0  0  0  0  0  0  0  0  0  0
  194.7640  177.3010  145.6660 F   0  0  0  0  0  0  0  0  0  0  0  0
  193.5020  175.5740  144.5090 C   0  0  1  0  0  0  0  0  0  0  0  0
  191.9580  176.2980  146.9240 F   0  0  0  0  0  0  0  0  0  0  0  0
  191.3480  176.5410  145.7040 C   0  0  0  0  0  0  0  0  0  0  0  0
  190.5520  174.7070  144.0390 C   0  0  2  0  0  3  0  0  0  0  0  0
  195.9540  174.4310  144.0960 C   0  0  0  0  0  2  0  0  0  0  0  0
  194.3240  176.7820  142.5800 F   0  0  0  0  0  0  0  0  0  0  0  0
  193.9500  175.5250  143.0290 C   0  0  1  0  0  3  0  0  0  0  0  0
  192.7440  173.9280  146.2050 F   0  0  0  0  0  0  0  0  0  0  0  0
  191.7080  173.6990  144.0590 C   0  0  0  0  0  2  0  0  0  0  0  0
  195.1230  174.5570  142.8200 C   0  0  0  0  0  2  0  0  0  0  0  0
  196.0120  175.6780  144.7430 O   0  0  0  0  0  0  0  0  0  0  0  0
  190.2830  175.4650  145.3580 C   0  0  1  0  0  3  0  0  0  0  0  0
  194.7740  175.9420  145.3890 C   0  0  0  0  0  0  0  0  0  0  0  0
  192.4230  176.6900  144.6160 C   0  0  0  0  0  2  0  0  0  0  0  0
  192.9400  174.1550  144.8550 C   0  0  1  0  0  3  0  0  0  0  0  0
  190.6870  177.7510  145.8040 F   0  0  0  0  0  0  0  0  0  0  0  0
  189.9260  174.5480  146.5270 C   0  0  0  0  0  2  0  0  0  0  0  0
  189.0200  175.1870  147.3750 O   0  0  0  0  0  1  0  0  0  0  0  0
  189.3980  172.7900  143.1210 O   0  0  0  0  0  1  0  0  0  0  0  0
  189.3130  174.1730  143.3120 C   0  0  2  0  0  3  0  0  0  0  0  0
  188.3280  174.0470  141.1100 O   0  0  0  0  0  1  0  0  0  0  0  0
  188.9800  174.9020  142.0070 C   0  0  1  0  0  3  0  0  0  0  0  0
  186.7210  175.9860  142.7840 C   0  0  2  0  0  3  0  0  0  0  0  0
  185.5570  178.5690  141.1910 C   0  0  1  0  0  3  0  0  0  0  0  0
  186.3200  178.3580  143.4610 O   0  0  0  0  0  0  0  0  0  0  0  0
  188.1520  176.1620  142.2880 C   0  0  2  0  0  0  0  0  0  0  0  0
  186.9950  176.4270  141.3200 C   0  0  2  0  0  3  0  0  0  0  0  0
  188.8400  177.2940  142.7440 O   0  0  0  0  0  1  0  0  0  0  0  0
  186.2130  177.0130  143.8310 C   0  0  2  0  0  3  0  0  0  0  0  0
  185.1880  178.5940  142.6700 C   0  0  0  0  0  2  0  0  0  0  0  0
  186.9200  177.9150  140.9390 C   0  0  0  0  0  2  0  0  0  0  0  0
  187.3860  177.7170  145.7550 O   0  0  0  0  0  0  0  0  0  0  0  0
  186.8510  176.7900  145.1670 C   0  0  0  0  0  3  0  0  0  0  0  0
  184.4670  177.9230  140.3940 C   0  0  0  0  0  3  0  0  0  0  0  0
  183.3120  178.2990  140.5120 O   0  0  0  0  0  0  0  0  0  0  0  0
  3 16  1  1  0  0  0
  3 17  1  0  0  0  0
  3 15  1  0  0  0  0
  5 18  1  0  0  0  0
  5  4  1  0  0  0  0
  6 22  1  1  0  0  0
  6 11  1  0  0  0  0
  6 14  1  0  0  0  0
  7 13  1  0  0  0  0
  9  8  1  1  0  0  0
  9  3  1  0  0  0  0
 11 17  1  0  0  0  0
 12  9  1  0  0  0  0
 12  7  1  0  0  0  0
 13 15  1  0  0  0  0
 14  5  1  0  0  0  0
 14 19  1  1  0  0  0
 15  2  1  0  0  0  0
 15  1  1  0  0  0  0
 16  5  1  0  0  0  0
 17 10  1  1  0  0  0
 19 20  1  0  0  0  0
 22 21  1  6  0  0  0
 24 23  1  6  0  0  0
 24 28  1  0  0  0  0
 24 22  1  0  0  0  0
 25 31  1  0  0  0  0
 26 32  1  0  0  0  0
 27 31  1  0  0  0  0
 28 30  1  0  0  0  0
 28 25  1  0  0  0  0
 29 28  1  0  0  0  0
 29 25  1  0  0  0  0
 31 35  1  0  0  0  0
 32 27  1  0  0  0  0
 33 26  1  0  0  0  0
 33 29  1  0  0  0  0
 35 34  2  0  0  0  0
 36 37  2  0  0  0  0
 36 26  1  0  0  0  0
M  END
>  <MODEL>
5

>  <REMARK>
 VINA RESULT:      -8.0      1.508      2.998
  Name = 
  6 active torsions:
  status: ('A' for Active; 'I' for Inactive)
    1  A    between atoms: C_4  and  C_25
    2  A    between atoms: C_5  and  C_28
    3  A    between atoms: C_8  and  C_33
    4  A    between atoms: C_12  and  C_31
    5  A    between atoms: C_21  and  C_32
    6  A    between atoms: C_31  and  C_33
                            x       y       z     vdW  Elec       q    Type
                         _______ _______ _______ _____ _____    ______ ____

>  <TORSDO>
F 6

$$$$
=
 OpenBabel11062421523D

 37 40  0  0  1  0  0  0  0  0999 V2000
  196.5070  173.0760  146.1260 F   0  0  0  0  0  0  0  0  0  0  0  0
  197.5470  174.7470  145.0950 F   0  0  0  0  0  0  0  0  0  0  0  0
  195.3610  174.1430  144.2180 C   0  0  1  0  0  0  0  0  0  0  0  0
  194.9060  175.5220  146.7930 F   0  0  0  0  0  0  0  0  0  0  0  0
  194.3840  176.1330  145.6640 C   0  0  0  0  0  0  0  0  0  0  0  0
  192.4330  175.1930  144.2220 C   0  0  2  0  0  3  0  0  0  0  0  0
  196.5860  171.8000  143.5100 C   0  0  0  0  0  2  0  0  0  0  0  0
  196.4440  174.7280  142.1340 F   0  0  0  0  0  0  0  0  0  0  0  0
  195.4750  173.9090  142.6920 C   0  0  1  0  0  3  0  0  0  0  0  0
  194.0390  173.1770  146.0830 F   0  0  0  0  0  0  0  0  0  0  0  0
  192.7670  173.6990  144.1240 C   0  0  0  0  0  2  0  0  0  0  0  0
  195.8110  172.4490  142.3630 C   0  0  0  0  0  2  0  0  0  0  0  0
  197.4570  172.7440  144.0810 O   0  0  0  0  0  0  0  0  0  0  0  0
  192.8550  175.9020  145.5280 C   0  0  1  0  0  3  0  0  0  0  0  0
  196.7190  173.6550  144.8850 C   0  0  0  0  0  0  0  0  0  0  0  0
  195.1700  175.6730  144.4260 C   0  0  0  0  0  2  0  0  0  0  0  0
  194.1320  173.3080  144.7090 C   0  0  1  0  0  3  0  0  0  0  0  0
  194.5810  177.4940  145.8000 F   0  0  0  0  0  0  0  0  0  0  0  0
  192.2030  175.3160  146.7800 C   0  0  0  0  0  2  0  0  0  0  0  0
  191.7720  176.3440  147.6200 O   0  0  0  0  0  1  0  0  0  0  0  0
  190.9760  175.4760  142.3130 O   0  0  0  0  0  1  0  0  0  0  0  0
  191.0270  175.5200  143.7090 C   0  0  2  0  0  3  0  0  0  0  0  0
  190.7040  177.8930  143.3820 O   0  0  0  0  0  1  0  0  0  0  0  0
  190.4420  176.8270  144.2530 C   0  0  1  0  0  3  0  0  0  0  0  0
  188.0600  177.9160  144.4000 C   0  0  2  0  0  3  0  0  0  0  0  0
  186.0690  177.0820  146.8300 C   0  0  1  0  0  3  0  0  0  0  0  0
  185.8500  176.7520  144.4600 O   0  0  0  0  0  0  0  0  0  0  0  0
  188.9400  176.6770  144.5220 C   0  0  2  0  0  0  0  0  0  0  0  0
  188.4230  177.3460  145.7990 C   0  0  2  0  0  3  0  0  0  0  0  0
  188.3470  175.4520  144.1910 O   0  0  0  0  0  1  0  0  0  0  0  0
  186.6380  177.7100  143.8130 C   0  0  2  0  0  3  0  0  0  0  0  0
  185.3050  177.4300  145.5570 C   0  0  0  0  0  2  0  0  0  0  0  0
  187.4280  176.4370  146.5400 C   0  0  0  0  0  2  0  0  0  0  0  0
  187.5450  177.9630  141.6480 O   0  0  0  0  0  0  0  0  0  0  0  0
  186.6910  177.4330  142.3430 C   0  0  0  0  0  3  0  0  0  0  0  0
  186.1960  178.2890  147.7070 C   0  0  0  0  0  3  0  0  0  0  0  0
  185.5930  179.3140  147.4340 O   0  0  0  0  0  0  0  0  0  0  0  0
  3 16  1  1  0  0  0
  3 17  1  0  0  0  0
  3 15  1  0  0  0  0
  5 18  1  0  0  0  0
  5  4  1  0  0  0  0
  6 22  1  1  0  0  0
  6 14  1  0  0  0  0
  7 13  1  0  0  0  0
  9  8  1  1  0  0  0
  9  3  1  0  0  0  0
 11  6  1  0  0  0  0
 11 17  1  0  0  0  0
 12  9  1  0  0  0  0
 12  7  1  0  0  0  0
 13 15  1  0  0  0  0
 14  5  1  0  0  0  0
 14 19  1  1  0  0  0
 15  2  1  0  0  0  0
 15  1  1  0  0  0  0
 16  5  1  0  0  0  0
 17 10  1  1  0  0  0
 19 20  1  0  0  0  0
 22 21  1  6  0  0  0
 22 24  1  0  0  0  0
 24 23  1  6  0  0  0
 24 28  1  0  0  0  0
 25 28  1  0  0  0  0
 25 29  1  0  0  0  0
 26 36  1  0  0  0  0
 27 32  1  0  0  0  0
 28 29  1  0  0  0  0
 29 33  1  0  0  0  0
 30 28  1  0  0  0  0
 31 25  1  0  0  0  0
 31 27  1  0  0  0  0
 32 26  1  0  0  0  0
 33 26  1  0  0  0  0
 34 35  2  0  0  0  0
 35 31  1  0  0  0  0
 37 36  2  0  0  0  0
M  END
>  <MODEL>
6

>  <REMARK>
 VINA RESULT:      -7.9      1.695      2.160
  Name = 
  6 active torsions:
  status: ('A' for Active; 'I' for Inactive)
    1  A    between atoms: C_4  and  C_25
    2  A    between atoms: C_5  and  C_28
    3  A    between atoms: C_8  and  C_33
    4  A    between atoms: C_12  and  C_31
    5  A    between atoms: C_21  and  C_32
    6  A    between atoms: C_31  and  C_33
                            x       y       z     vdW  Elec       q    Type
                         _______ _______ _______ _____ _____    ______ ____

>  <TORSDO>
F 6

$$$$
=
 OpenBabel11062421523D

 37 40  0  0  1  0  0  0  0  0999 V2000
  192.4760  172.8510  142.1130 F   0  0  0  0  0  0  0  0  0  0  0  0
  191.8690  174.4810  140.7310 F   0  0  0  0  0  0  0  0  0  0  0  0
  190.4490  174.1430  142.6760 C   0  0  1  0  0  0  0  0  0  0  0  0
  192.9510  175.3870  143.6410 F   0  0  0  0  0  0  0  0  0  0  0  0
  191.7870  176.1170  143.8240 C   0  0  0  0  0  0  0  0  0  0  0  0
  189.8480  175.4590  145.4290 C   0  0  2  0  0  3  0  0  0  0  0  0
  189.8530  171.7480  141.4940 C   0  0  0  0  0  2  0  0  0  0  0  0
  188.7400  174.7600  141.0770 F   0  0  0  0  0  0  0  0  0  0  0  0
  188.9790  174.0000  142.2110 C   0  0  1  0  0  3  0  0  0  0  0  0
  191.8570  173.1860  144.4810 F   0  0  0  0  0  0  0  0  0  0  0  0
  189.7040  173.9510  145.1940 C   0  0  0  0  0  2  0  0  0  0  0  0
  188.6150  172.5390  141.9150 C   0  0  0  0  0  2  0  0  0  0  0  0
  190.6940  172.5670  140.7200 O   0  0  0  0  0  0  0  0  0  0  0  0
  191.2730  176.0400  145.2870 C   0  0  1  0  0  3  0  0  0  0  0  0
  191.3750  173.4880  141.5620 C   0  0  0  0  0  0  0  0  0  0  0  0
  190.7360  175.6680  142.7970 C   0  0  0  0  0  2  0  0  0  0  0  0
  190.5610  173.3970  144.0470 C   0  0  1  0  0  3  0  0  0  0  0  0
  192.0830  177.4420  143.5650 F   0  0  0  0  0  0  0  0  0  0  0  0
  192.2790  175.4360  146.2660 C   0  0  0  0  0  2  0  0  0  0  0  0
  193.2800  176.3650  146.5560 O   0  0  0  0  0  1  0  0  0  0  0  0
  189.3420  175.1960  147.7790 O   0  0  0  0  0  1  0  0  0  0  0  0
  189.0460  175.9500  146.6400 C   0  0  2  0  0  3  0  0  0  0  0  0
  186.8520  176.2370  147.6100 O   0  0  0  0  0  1  0  0  0  0  0  0
  187.5360  176.0440  146.4030 C   0  0  1  0  0  3  0  0  0  0  0  0
  185.8710  177.1000  144.6720 C   0  0  2  0  0  3  0  0  0  0  0  0
  187.0150  178.2710  141.8650 C   0  0  1  0  0  3  0  0  0  0  0  0
  185.9390  179.3990  143.6950 O   0  0  0  0  0  0  0  0  0  0  0  0
  187.2150  177.1500  145.3910 C   0  0  2  0  0  0  0  0  0  0  0  0
  187.1770  176.7180  143.9220 C   0  0  2  0  0  3  0  0  0  0  0  0
  187.7450  178.4230  145.6410 O   0  0  0  0  0  1  0  0  0  0  0  0
  185.1740  178.4590  144.3940 C   0  0  2  0  0  3  0  0  0  0  0  0
  185.7900  179.0390  142.3490 C   0  0  0  0  0  2  0  0  0  0  0  0
  187.8750  177.7500  143.0210 C   0  0  0  0  0  2  0  0  0  0  0  0
  184.0910  178.3550  146.4890 O   0  0  0  0  0  0  0  0  0  0  0  0
  184.6340  179.0610  145.6530 C   0  0  0  0  0  3  0  0  0  0  0  0
  186.6060  177.1760  140.9300 C   0  0  0  0  0  3  0  0  0  0  0  0
  186.4690  177.4020  139.7390 O   0  0  0  0  0  0  0  0  0  0  0  0
  2 15  1  0  0  0  0
  3 16  1  1  0  0  0
  3 17  1  0  0  0  0
  4  5  1  0  0  0  0
  5 14  1  0  0  0  0
  6 22  1  1  0  0  0
  7 12  1  0  0  0  0
  9  8  1  6  0  0  0
  9  3  1  0  0  0  0
 11  6  1  0  0  0  0
 12  9  1  0  0  0  0
 13  7  1  0  0  0  0
 13 15  1  0  0  0  0
 14  6  1  0  0  0  0
 14 19  1  1  0  0  0
 15  1  1  0  0  0  0
 15  3  1  0  0  0  0
 16  5  1  0  0  0  0
 17 10  1  1  0  0  0
 17 11  1  0  0  0  0
 18  5  1  0  0  0  0
 19 20  1  0  0  0  0
 22 21  1  1  0  0  0
 24 22  1  0  0  0  0
 24 23  1  1  0  0  0
 25 28  1  0  0  0  0
 26 32  1  0  0  0  0
 26 33  1  0  0  0  0
 27 31  1  0  0  0  0
 28 30  1  0  0  0  0
 28 24  1  0  0  0  0
 29 25  1  0  0  0  0
 29 28  1  0  0  0  0
 31 25  1  0  0  0  0
 31 35  1  0  0  0  0
 32 27  1  0  0  0  0
 33 29  1  0  0  0  0
 35 34  2  0  0  0  0
 36 26  1  0  0  0  0
 37 36  2  0  0  0  0
M  END
>  <MODEL>
7

>  <REMARK>
 VINA RESULT:      -7.8      2.338      4.444
  Name = 
  6 active torsions:
  status: ('A' for Active; 'I' for Inactive)
    1  A    between atoms: C_4  and  C_25
    2  A    between atoms: C_5  and  C_28
    3  A    between atoms: C_8  and  C_33
    4  A    between atoms: C_12  and  C_31
    5  A    between atoms: C_21  and  C_32
    6  A    between atoms: C_31  and  C_33
                            x       y       z     vdW  Elec       q    Type
                         _______ _______ _______ _____ _____    ______ ____

>  <TORSDO>
F 6

$$$$
=
 OpenBabel11062421523D

 37 40  0  0  1  0  0  0  0  0999 V2000
  186.5400  177.8320  147.1850 F   0  0  0  0  0  0  0  0  0  0  0  0
  185.6830  176.0290  146.2090 F   0  0  0  0  0  0  0  0  0  0  0  0
  187.6030  177.0340  145.1040 C   0  0  1  0  0  0  0  0  0  0  0  0
  188.6130  175.6930  147.5390 F   0  0  0  0  0  0  0  0  0  0  0  0
  189.0850  175.2130  146.3270 C   0  0  0  0  0  0  0  0  0  0  0  0
  190.6450  176.5220  144.7070 C   0  0  2  0  0  3  0  0  0  0  0  0
  185.9100  179.1390  144.6610 C   0  0  0  0  0  2  0  0  0  0  0  0
  186.3830  176.3190  143.1400 F   0  0  0  0  0  0  0  0  0  0  0  0
  187.2580  177.2830  143.6160 C   0  0  1  0  0  3  0  0  0  0  0  0
  188.9630  178.1720  146.8410 F   0  0  0  0  0  0  0  0  0  0  0  0
  190.0480  177.9350  144.7210 C   0  0  0  0  0  2  0  0  0  0  0  0
  186.6350  178.6680  143.3990 C   0  0  0  0  0  2  0  0  0  0  0  0
  185.2960  178.0400  145.2860 O   0  0  0  0  0  0  0  0  0  0  0  0
  190.5210  175.7160  146.0190 C   0  0  1  0  0  3  0  0  0  0  0  0
  186.2770  177.2560  145.9530 C   0  0  0  0  0  0  0  0  0  0  0  0
  188.0810  175.5570  145.2150 C   0  0  0  0  0  2  0  0  0  0  0  0
  188.7210  178.0620  145.4840 C   0  0  1  0  0  3  0  0  0  0  0  0
  189.1460  173.8360  146.4210 F   0  0  0  0  0  0  0  0  0  0  0  0
  191.2150  176.3770  147.2100 C   0  0  0  0  0  2  0  0  0  0  0  0
  191.5820  175.4090  148.1470 O   0  0  0  0  0  1  0  0  0  0  0  0
  191.9640  177.0690  142.7550 O   0  0  0  0  0  1  0  0  0  0  0  0
  192.0100  176.4630  144.0140 C   0  0  2  0  0  3  0  0  0  0  0  0
  192.3680  174.4670  142.7020 O   0  0  0  0  0  1  0  0  0  0  0  0
  192.6250  175.0620  143.9430 C   0  0  1  0  0  3  0  0  0  0  0  0
  195.0810  174.4420  143.2600 C   0  0  2  0  0  3  0  0  0  0  0  0
  197.1710  173.4470  145.5420 C   0  0  1  0  0  3  0  0  0  0  0  0
  197.2050  175.4090  144.1540 O   0  0  0  0  0  0  0  0  0  0  0  0
  194.1280  175.1150  144.2420 C   0  0  2  0  0  0  0  0  0  0  0  0
  194.7760  173.7840  144.6340 C   0  0  2  0  0  3  0  0  0  0  0  0
  194.6120  176.2500  144.9060 O   0  0  0  0  0  1  0  0  0  0  0  0
  196.4420  175.1450  143.0110 C   0  0  2  0  0  3  0  0  0  0  0  0
  197.8690  174.2040  144.4170 C   0  0  0  0  0  2  0  0  0  0  0  0
  195.7540  173.9670  145.8070 C   0  0  0  0  0  2  0  0  0  0  0  0
  195.4110  176.4490  141.3350 O   0  0  0  0  0  0  0  0  0  0  0  0
  196.2700  176.3920  142.2020 C   0  0  0  0  0  3  0  0  0  0  0  0
  197.1870  171.9750  145.2670 C   0  0  0  0  0  3  0  0  0  0  0  0
  196.7900  171.1870  146.1100 O   0  0  0  0  0  0  0  0  0  0  0  0
  3 16  1  1  0  0  0
  3 17  1  0  0  0  0
  3 15  1  0  0  0  0
  5 18  1  0  0  0  0
  5  4  1  0  0  0  0
  6 22  1  1  0  0  0
  6 11  1  0  0  0  0
  6 14  1  0  0  0  0
  7 13  1  0  0  0  0
  9  8  1  1  0  0  0
  9  3  1  0  0  0  0
 11 17  1  0  0  0  0
 12  9  1  0  0  0  0
 12  7  1  0  0  0  0
 13 15  1  0  0  0  0
 14  5  1  0  0  0  0
 14 19  1  1  0  0  0
 15  2  1  0  0  0  0
 15  1  1  0  0  0  0
 16  5  1  0  0  0  0
 17 10  1  1  0  0  0
 19 20  1  0  0  0  0
 22 21  1  6  0  0  0
 24 23  1  6  0  0  0
 24 22  1  0  0  0  0
 24 28  1  0  0  0  0
 25 28  1  0  0  0  0
 25 29  1  0  0  0  0
 26 33  1  0  0  0  0
 27 32  1  0  0  0  0
 28 29  1  0  0  0  0
 28 30  1  0  0  0  0
 29 33  1  0  0  0  0
 31 25  1  0  0  0  0
 31 27  1  0  0  0  0
 32 26  1  0  0  0  0
 34 35  2  0  0  0  0
 35 31  1  0  0  0  0
 36 26  1  0  0  0  0
 36 37  2  0  0  0  0
M  END
>  <MODEL>
8

>  <REMARK>
 VINA RESULT:      -7.7      2.614      8.466
  Name = 
  6 active torsions:
  status: ('A' for Active; 'I' for Inactive)
    1  A    between atoms: C_4  and  C_25
    2  A    between atoms: C_5  and  C_28
    3  A    between atoms: C_8  and  C_33
    4  A    between atoms: C_12  and  C_31
    5  A    between atoms: C_21  and  C_32
    6  A    between atoms: C_31  and  C_33
                            x       y       z     vdW  Elec       q    Type
                         _______ _______ _______ _____ _____    ______ ____

>  <TORSDO>
F 6

$$$$
=
 OpenBabel11062421523D

 37 40  0  0  1  0  0  0  0  0999 V2000
  195.9930  173.5810  144.5600 F   0  0  0  0  0  0  0  0  0  0  0  0
  196.9640  175.5570  144.2600 F   0  0  0  0  0  0  0  0  0  0  0  0
  194.5890  175.4430  143.7500 C   0  0  1  0  0  0  0  0  0  0  0  0
  194.8440  175.3470  146.6940 F   0  0  0  0  0  0  0  0  0  0  0  0
  194.1630  176.4330  146.1670 C   0  0  0  0  0  0  0  0  0  0  0  0
  191.8600  176.3120  144.9630 C   0  0  2  0  0  3  0  0  0  0  0  0
  195.3750  173.7820  141.7220 C   0  0  0  0  0  2  0  0  0  0  0  0
  195.2590  177.0030  142.0260 F   0  0  0  0  0  0  0  0  0  0  0  0
  194.3490  176.0030  142.3270 C   0  0  1  0  0  3  0  0  0  0  0  0
  193.5980  173.6580  145.1620 F   0  0  0  0  0  0  0  0  0  0  0  0
  192.0020  175.0710  144.0730 C   0  0  0  0  0  2  0  0  0  0  0  0
  194.4480  174.9060  141.2590 C   0  0  0  0  0  2  0  0  0  0  0  0
  196.4440  174.3270  142.4540 O   0  0  0  0  0  0  0  0  0  0  0  0
  192.6240  176.2810  146.3050 C   0  0  1  0  0  3  0  0  0  0  0  0
  195.9970  174.7050  143.7490 C   0  0  0  0  0  0  0  0  0  0  0  0
  194.6130  176.6630  144.7160 C   0  0  0  0  0  2  0  0  0  0  0  0
  193.4100  174.4580  144.0490 C   0  0  1  0  0  3  0  0  0  0  0  0
  194.5300  177.5470  146.8970 F   0  0  0  0  0  0  0  0  0  0  0  0
  192.1940  175.1400  147.2260 C   0  0  0  0  0  2  0  0  0  0  0  0
  191.5830  175.6550  148.3710 O   0  0  0  0  0  1  0  0  0  0  0  0
  190.2210  177.6280  146.1600 O   0  0  0  0  0  1  0  0  0  0  0  0
  190.4200  176.8330  145.0270 C   0  0  2  0  0  3  0  0  0  0  0  0
  189.0760  175.1700  146.1520 O   0  0  0  0  0  1  0  0  0  0  0  0
  189.3470  175.7470  144.9050 C   0  0  1  0  0  3  0  0  0  0  0  0
  187.9990  177.8160  144.0180 C   0  0  2  0  0  3  0  0  0  0  0  0
  184.8140  178.0280  144.6280 C   0  0  1  0  0  3  0  0  0  0  0  0
  185.9840  177.8060  142.5410 O   0  0  0  0  0  0  0  0  0  0  0  0
  188.0770  176.3120  144.2580 C   0  0  2  0  0  0  0  0  0  0  0  0
  187.1860  177.1610  145.1690 C   0  0  2  0  0  3  0  0  0  0  0  0
  187.4070  175.4950  143.3360 O   0  0  0  0  0  1  0  0  0  0  0  0
  187.2870  178.2820  142.7200 C   0  0  2  0  0  3  0  0  0  0  0  0
  185.1870  178.6730  143.2980 C   0  0  0  0  0  2  0  0  0  0  0  0
  185.7000  176.8240  144.9640 C   0  0  0  0  0  2  0  0  0  0  0  0
  187.6300  177.4060  140.5560 O   0  0  0  0  0  0  0  0  0  0  0  0
  188.1180  177.9930  141.5100 C   0  0  0  0  0  3  0  0  0  0  0  0
  184.8180  179.0510  145.7210 C   0  0  0  0  0  3  0  0  0  0  0  0
  183.9980  178.9910  146.6240 O   0  0  0  0  0  0  0  0  0  0  0  0
  3 17  1  0  0  0  0
  3 16  1  1  0  0  0
  5 14  1  0  0  0  0
  5  4  1  0  0  0  0
  5 18  1  0  0  0  0
  6 22  1  1  0  0  0
  6 14  1  0  0  0  0
  7 13  1  0  0  0  0
  9  8  1  6  0  0  0
  9  3  1  0  0  0  0
 11  6  1  0  0  0  0
 12  7  1  0  0  0  0
 12  9  1  0  0  0  0
 13 15  1  0  0  0  0
 14 19  1  6  0  0  0
 15  3  1  0  0  0  0
 15  2  1  0  0  0  0
 15  1  1  0  0  0  0
 16  5  1  0  0  0  0
 17 11  1  0  0  0  0
 17 10  1  1  0  0  0
 19 20  1  0  0  0  0
 22 21  1  1  0  0  0
 24 22  1  0  0  0  0
 24 23  1  1  0  0  0
 25 28  1  0  0  0  0
 25 29  1  0  0  0  0
 26 33  1  0  0  0  0
 26 36  1  0  0  0  0
 27 31  1  0  0  0  0
 27 32  1  0  0  0  0
 28 24  1  0  0  0  0
 28 29  1  0  0  0  0
 30 28  1  0  0  0  0
 31 25  1  0  0  0  0
 32 26  1  0  0  0  0
 33 29  1  0  0  0  0
 34 35  2  0  0  0  0
 35 31  1  0  0  0  0
 36 37  2  0  0  0  0
M  END
>  <MODEL>
9

>  <REMARK>
 VINA RESULT:      -7.7      1.639      2.493
  Name = 
  6 active torsions:
  status: ('A' for Active; 'I' for Inactive)
    1  A    between atoms: C_4  and  C_25
    2  A    between atoms: C_5  and  C_28
    3  A    between atoms: C_8  and  C_33
    4  A    between atoms: C_12  and  C_31
    5  A    between atoms: C_21  and  C_32
    6  A    between atoms: C_31  and  C_33
                            x       y       z     vdW  Elec       q    Type
                         _______ _______ _______ _____ _____    ______ ____

>  <TORSDO>
F 6

$$$$
