=
 OpenBabel11062418223D

 64 71  0  0  1  0  0  0  0  0999 V2000
  187.0490  178.2940  144.4510 C   0  0  0  0  0  1  0  0  0  0  0  0
  189.5820  173.8570  143.3880 C   0  0  1  0  0  0  0  0  0  0  0  0
  188.1510  174.2190  142.9330 C   0  0  1  0  0  3  0  0  0  0  0  0
  189.0830  176.5750  142.4140 C   0  0  0  0  0  0  0  0  0  0  0  0
  187.9490  175.7140  142.8370 C   0  0  0  0  0  0  0  0  0  0  0  0
  190.6140  174.9850  143.5300 C   0  0  2  0  0  3  0  0  0  0  0  0
  186.8890  178.1290  140.5890 C   0  0  0  0  0  1  0  0  0  0  0  0
  189.5320  173.0940  144.5680 O   0  0  0  0  0  0  0  0  0  0  0  0
  187.4580  178.3850  141.9810 C   0  0  1  0  0  3  0  0  0  0  0  0
  186.7600  176.2580  143.1190 C   0  0  0  0  0  3  0  0  0  0  0  0
  186.5730  177.7630  143.0990 C   0  0  1  0  0  0  0  0  0  0  0  0
  189.9870  172.4320  143.4160 C   0  0  0  0  0  2  0  0  0  0  0  0
  190.4710  176.0140  142.4090 C   0  0  0  0  0  2  0  0  0  0  0  0
  188.8640  177.8360  142.0340 C   0  0  0  0  0  3  0  0  0  0  0  0
  180.1640  178.2770  143.0810 O   0  0  0  0  0  0  0  0  0  0  0  0
  183.0900  179.1580  143.7510 N   0  0  0  0  0  0  0  0  0  0  0  0
  185.1090  178.1480  142.9280 C   0  0  0  0  0  0  0  0  0  0  0  0
  184.4310  177.8280  141.7400 C   0  0  0  0  0  3  0  0  0  0  0  0
  182.3670  177.8860  140.3260 C   0  0  0  0  0  0  0  0  0  0  0  0
  183.0920  178.1890  141.5680 C   0  0  0  0  0  0  0  0  0  0  0  0
  181.0550  178.4170  140.1400 N   0  0  0  0  0  2  0  0  0  0  0  0
  182.4340  178.8830  142.5930 C   0  0  0  0  0  0  0  0  0  0  0  0
  184.3920  178.8150  143.9340 C   0  0  0  0  0  3  0  0  0  0  0  0
  179.0370  179.2040  141.1800 C   0  0  0  0  0  2  0  0  0  0  0  0
  178.9130  178.3630  142.4400 C   0  0  0  0  0  2  0  0  0  0  0  0
  182.8620  177.1310  139.4500 O   0  0  0  0  0  0  0  0  0  0  0  0
  180.5050  179.4320  141.0370 C   0  0  1  0  0  3  0  0  0  0  0  0
  180.9780  179.2450  142.4730 C   0  0  1  0  0  3  0  0  0  0  0  0
  187.7320  173.5130  141.7810 O   0  0  0  0  0  0  0  0  0  0  0  0
  188.5370  173.8520  140.6750 C   0  0  0  0  0  2  0  0  0  0  0  0
  190.2370  173.3190  137.8420 C   0  0  0  0  0  0  0  0  0  0  0  0
  189.9290  171.9680  139.8180 C   0  0  0  0  0  2  0  0  0  0  0  0
  188.4590  173.3420  137.9740 S   0  0  0  0  0  0  0  0  0  0  0  0
  190.9690  172.6430  138.9420 C   0  0  0  0  0  2  0  0  0  0  0  0
  188.6050  172.7090  139.6750 C   0  0  2  0  0  3  0  0  0  0  0  0
  190.8620  174.1760  137.0410 C   0  0  0  0  0  2  0  0  0  0  0  0
  192.0580  174.5450  143.7210 C   0  0  0  0  0  2  0  0  0  0  0  0
  192.8930  175.8000  143.9060 C   0  0  2  0  0  3  0  0  0  0  0  0
  194.3180  175.5070  144.1000 N   0  0  0  0  0  2  0  0  0  0  0  0
  194.8440  174.5070  143.1560 C   0  0  2  0  0  3  0  0  0  0  0  0
  195.9300  173.4530  145.1570 C   0  0  0  0  0  3  0  0  0  0  0  0
  196.7220  171.1640  145.1250 C   0  0  0  0  0  0  0  0  0  0  0  0
  195.7250  172.1230  143.1360 C   0  0  0  0  0  3  0  0  0  0  0  0
  196.5240  172.3670  145.8120 C   0  0  0  0  0  3  0  0  0  0  0  0
  195.5310  173.3370  143.8140 C   0  0  0  0  0  0  0  0  0  0  0  0
  196.3270  171.0410  143.7880 C   0  0  0  0  0  3  0  0  0  0  0  0
  197.3360  170.0050  145.8240 C   0  0  0  0  0  1  0  0  0  0  0  0
  195.6470  175.1320  142.0140 C   0  0  2  0  0  3  0  0  0  0  0  0
  196.1130  176.3740  142.3990 F   0  0  0  0  0  0  0  0  0  0  0  0
  194.8420  175.2690  140.8800 O   0  0  0  0  0  0  0  0  0  0  0  0
  195.4590  174.4870  139.8980 C   0  0  0  0  0  2  0  0  0  0  0  0
  196.4820  175.2670  139.2180 N   0  0  0  0  0  2  0  0  0  0  0  0
  196.6450  174.7020  137.8880 C   0  0  0  0  0  2  0  0  0  0  0  0
  196.0470  175.5980  135.8150 C   0  0  0  0  0  1  0  0  0  0  0  0
  196.9580  175.7500  136.9340 N   0  0  0  0  0  2  0  0  0  0  0  0
  192.3100  176.6750  145.0250 C   0  0  0  0  0  2  0  0  0  0  0  0
  192.8640  176.3730  146.4140 C   0  0  0  0  0  2  0  0  0  0  0  0
  192.0860  175.2540  147.0860 C   0  0  0  0  0  2  0  0  0  0  0  0
  190.9510  175.8600  147.9000 C   0  0  2  0  0  3  0  0  0  0  0  0
  189.1460  176.2510  146.4040 O   0  0  0  0  0  0  0  0  0  0  0  0
  188.9380  174.3820  147.7200 O   0  0  0  0  0  1  0  0  0  0  0  0
  189.6420  175.5000  147.2820 C   0  0  0  0  0  0  0  0  0  0  0  0
  191.4390  177.6300  149.3510 C   0  0  0  0  0  1  0  0  0  0  0  0
  191.0860  177.3030  147.9770 N   0  0  0  0  0  2  0  0  0  0  0  0
  2 12  1  6  0  0  0
  2  6  1  0  0  0  0
  2  8  1  0  0  0  0
  3 29  1  6  0  0  0
  3  2  1  0  0  0  0
  4  5  1  0  0  0  0
  5  3  1  0  0  0  0
  5 10  2  0  0  0  0
  6 37  1  6  0  0  0
  9  7  1  6  0  0  0
  9 14  1  0  0  0  0
  9 11  1  0  0  0  0
 11 10  1  0  0  0  0
 11  1  1  1  0  0  0
 12  8  1  0  0  0  0
 13  4  1  0  0  0  0
 13  6  1  0  0  0  0
 14  4  2  0  0  0  0
 16 23  1  0  0  0  0
 17 11  1  0  0  0  0
 17 23  2  0  0  0  0
 18 17  1  0  0  0  0
 19 20  1  0  0  0  0
 20 18  2  0  0  0  0
 20 22  1  0  0  0  0
 21 19  1  0  0  0  0
 21 27  1  0  0  0  0
 22 16  2  0  0  0  0
 24 25  1  0  0  0  0
 25 15  1  0  0  0  0
 26 19  2  0  0  0  0
 27 24  1  1  0  0  0
 27 28  1  0  0  0  0
 28 22  1  6  0  0  0
 28 15  1  0  0  0  0
 30 29  1  0  0  0  0
 31 33  1  0  0  0  0
 31 34  1  0  0  0  0
 33 35  1  0  0  0  0
 34 32  1  0  0  0  0
 35 32  1  0  0  0  0
 35 30  1  1  0  0  0
 36 31  2  0  0  0  0
 38 37  1  1  0  0  0
 38 39  1  0  0  0  0
 38 56  1  0  0  0  0
 40 45  1  0  0  0  0
 40 39  1  1  0  0  0
 41 44  1  0  0  0  0
 42 44  2  0  0  0  0
 42 47  1  0  0  0  0
 43 46  2  0  0  0  0
 43 45  1  0  0  0  0
 45 41  2  0  0  0  0
 46 42  1  0  0  0  0
 48 49  1  1  0  0  0
 48 40  1  0  0  0  0
 50 48  1  0  0  0  0
 51 50  1  0  0  0  0
 52 51  1  0  0  0  0
 53 52  1  0  0  0  0
 54 55  1  0  0  0  0
 55 53  1  0  0  0  0
 56 57  1  0  0  0  0
 57 58  1  0  0  0  0
 59 58  1  6  0  0  0
 59 64  1  0  0  0  0
 60 62  2  0  0  0  0
 62 61  1  0  0  0  0
 62 59  1  0  0  0  0
 64 63  1  0  0  0  0
M  END
>  <MODEL>
1

>  <REMARK>
 VINA RESULT:      -7.0      0.000      0.000
  Name = 
  21 active torsions:
  status: ('A' for Active; 'I' for Inactive)
    1  A    between atoms: N_4  and  C_13
    2  A    between atoms: N_4  and  C_62
    3  A    between atoms: C_7  and  C_44
    4  A    between atoms: O_9  and  C_10
    5  A    between atoms: O_9  and  C_63
    6  A    between atoms: C_12  and  C_13
    7  A    between atoms: C_12  and  O_20
    8  A    between atoms: C_13  and  C_46
    9  A    between atoms: CA_19  and  C_37
   10  A    between atoms: CA_19  and  N_52
   11  A    between atoms: CA_19  and  C_58
   12  A    between atoms: O_20  and  C_57
   13  A    between atoms: C_21  and  C_51
   14  A    between atoms: C_35  and  C_49
   15  A    between atoms: C_35  and  C_58
   16  A    between atoms: C_43  and  N_48
   17  A    between atoms: C_43  and  N_59
   18  A    between atoms: C_49  and  C_62
   19  A    between atoms: C_51  and  C_62
   20  A    between atoms: C_55  and  C_63
   21  A    between atoms: C_57  and  N_59
                            x       y       z     vdW  Elec       q    Type
                         _______ _______ _______ _____ _____    ______ ____

>  <TORSDO>
F 21

$$$$
=
 OpenBabel11062418223D

 64 71  0  0  1  0  0  0  0  0999 V2000
  187.1100  177.3780  144.4160 C   0  0  0  0  0  1  0  0  0  0  0  0
  189.3060  173.0630  142.4700 C   0  0  1  0  0  0  0  0  0  0  0  0
  187.9290  173.6400  142.0740 C   0  0  1  0  0  3  0  0  0  0  0  0
  189.0730  175.9590  142.0970 C   0  0  0  0  0  0  0  0  0  0  0  0
  187.8560  175.1340  142.3000 C   0  0  0  0  0  0  0  0  0  0  0  0
  190.4210  174.0370  142.8740 C   0  0  2  0  0  3  0  0  0  0  0  0
  187.0910  178.0590  140.6070 C   0  0  0  0  0  1  0  0  0  0  0  0
  189.1460  172.0720  143.4550 O   0  0  0  0  0  0  0  0  0  0  0  0
  187.6230  177.9590  142.0330 C   0  0  1  0  0  3  0  0  0  0  0  0
  186.7060  175.7090  142.6690 C   0  0  0  0  0  3  0  0  0  0  0  0
  186.6450  177.1940  142.9710 C   0  0  1  0  0  0  0  0  0  0  0  0
  189.5900  171.6340  142.1970 C   0  0  0  0  0  2  0  0  0  0  0  0
  190.4090  175.2910  142.0000 C   0  0  0  0  0  2  0  0  0  0  0  0
  188.9750  177.2880  141.9950 C   0  0  0  0  0  3  0  0  0  0  0  0
  180.3260  178.3680  143.1440 O   0  0  0  0  0  0  0  0  0  0  0  0
  183.3420  178.9060  143.7810 N   0  0  0  0  0  0  0  0  0  0  0  0
  185.2260  177.7360  142.8570 C   0  0  0  0  0  0  0  0  0  0  0  0
  184.4950  177.5490  141.6730 C   0  0  0  0  0  3  0  0  0  0  0  0
  182.4190  177.8920  140.3180 C   0  0  0  0  0  0  0  0  0  0  0  0
  183.1970  178.0550  141.5540 C   0  0  0  0  0  0  0  0  0  0  0  0
  181.1660  178.5650  140.1920 N   0  0  0  0  0  2  0  0  0  0  0  0
  182.6360  178.7600  142.6270 C   0  0  0  0  0  0  0  0  0  0  0  0
  184.6050  178.4220  143.9130 C   0  0  0  0  0  3  0  0  0  0  0  0
  179.2630  179.5020  141.3210 C   0  0  0  0  0  2  0  0  0  0  0  0
  179.0780  178.6150  142.5420 C   0  0  0  0  0  2  0  0  0  0  0  0
  182.8140  177.1350  139.3930 O   0  0  0  0  0  0  0  0  0  0  0  0
  180.7440  179.5840  141.1510 C   0  0  1  0  0  3  0  0  0  0  0  0
  181.2240  179.2760  142.5630 C   0  0  1  0  0  3  0  0  0  0  0  0
  187.4980  173.2380  140.7880 O   0  0  0  0  0  0  0  0  0  0  0  0
  188.2130  173.9310  139.7900 C   0  0  0  0  0  2  0  0  0  0  0  0
  190.6190  173.4800  137.5090 C   0  0  0  0  0  0  0  0  0  0  0  0
  189.2710  171.9200  138.7620 C   0  0  0  0  0  2  0  0  0  0  0  0
  188.9880  174.1100  137.1580 S   0  0  0  0  0  0  0  0  0  0  0  0
  190.6960  172.3550  138.4740 C   0  0  0  0  0  2  0  0  0  0  0  0
  188.3350  173.0980  138.5240 C   0  0  2  0  0  3  0  0  0  0  0  0
  191.6950  174.2120  137.2370 C   0  0  0  0  0  2  0  0  0  0  0  0
  191.8160  173.4380  142.9950 C   0  0  0  0  0  2  0  0  0  0  0  0
  192.2900  173.6800  144.4180 C   0  0  2  0  0  3  0  0  0  0  0  0
  193.2400  174.7950  144.5140 N   0  0  0  0  0  2  0  0  0  0  0  0
  193.2990  175.3990  145.8560 C   0  0  2  0  0  3  0  0  0  0  0  0
  191.6940  176.1600  147.6280 C   0  0  0  0  0  3  0  0  0  0  0  0
  189.7680  177.5320  147.1030 C   0  0  0  0  0  0  0  0  0  0  0  0
  191.2450  176.8000  145.3290 C   0  0  0  0  0  3  0  0  0  0  0  0
  190.5590  176.8660  148.0460 C   0  0  0  0  0  3  0  0  0  0  0  0
  192.0410  176.1210  146.2660 C   0  0  0  0  0  0  0  0  0  0  0  0
  190.1070  177.4980  145.7450 C   0  0  0  0  0  3  0  0  0  0  0  0
  188.5730  178.2960  147.5470 C   0  0  0  0  0  1  0  0  0  0  0  0
  194.5780  176.2050  146.0880 C   0  0  2  0  0  3  0  0  0  0  0  0
  194.3210  177.5490  145.8950 F   0  0  0  0  0  0  0  0  0  0  0  0
  195.5750  175.7910  145.2020 O   0  0  0  0  0  0  0  0  0  0  0  0
  195.7470  176.8620  144.3190 C   0  0  0  0  0  2  0  0  0  0  0  0
  196.6020  176.4570  143.2140 N   0  0  0  0  0  2  0  0  0  0  0  0
  195.7890  176.4760  142.0080 C   0  0  0  0  0  2  0  0  0  0  0  0
  195.5850  174.1640  141.7340 C   0  0  0  0  0  1  0  0  0  0  0  0
  196.1470  175.3650  141.1450 N   0  0  0  0  0  2  0  0  0  0  0  0
  192.8350  172.3830  145.0320 C   0  0  0  0  0  2  0  0  0  0  0  0
  194.3150  172.1290  144.7590 C   0  0  0  0  0  2  0  0  0  0  0  0
  194.6680  170.6650  144.9540 C   0  0  0  0  0  2  0  0  0  0  0  0
  195.6440  170.5420  146.1160 C   0  0  2  0  0  3  0  0  0  0  0  0
  197.2160  172.2920  145.7750 O   0  0  0  0  0  1  0  0  0  0  0  0
  197.9410  170.1980  145.1810 O   0  0  0  0  0  0  0  0  0  0  0  0
  196.9820  171.0580  145.7050 C   0  0  0  0  0  0  0  0  0  0  0  0
  194.4400  168.7500  147.0210 C   0  0  0  0  0  1  0  0  0  0  0  0
  195.7550  169.1610  146.5510 N   0  0  0  0  0  2  0  0  0  0  0  0
  2 12  1  6  0  0  0
  2  6  1  0  0  0  0
  2  8  1  0  0  0  0
  3 29  1  6  0  0  0
  3  5  1  0  0  0  0
  3  2  1  0  0  0  0
  4  5  1  0  0  0  0
  5 10  2  0  0  0  0
  6 37  1  6  0  0  0
  9  7  1  6  0  0  0
  9 11  1  0  0  0  0
 10 11  1  0  0  0  0
 11  1  1  1  0  0  0
 12  8  1  0  0  0  0
 13  4  1  0  0  0  0
 13  6  1  0  0  0  0
 14  9  1  0  0  0  0
 14  4  2  0  0  0  0
 16 23  1  0  0  0  0
 17 11  1  0  0  0  0
 17 23  2  0  0  0  0
 18 17  1  0  0  0  0
 19 20  1  0  0  0  0
 20 18  2  0  0  0  0
 20 22  1  0  0  0  0
 21 19  1  0  0  0  0
 21 27  1  0  0  0  0
 22 16  2  0  0  0  0
 24 25  1  0  0  0  0
 25 15  1  0  0  0  0
 26 19  2  0  0  0  0
 27 24  1  1  0  0  0
 27 28  1  0  0  0  0
 28 22  1  6  0  0  0
 28 15  1  0  0  0  0
 30 29  1  0  0  0  0
 31 34  1  0  0  0  0
 33 31  1  0  0  0  0
 33 35  1  0  0  0  0
 34 32  1  0  0  0  0
 35 32  1  0  0  0  0
 35 30  1  1  0  0  0
 36 31  2  0  0  0  0
 38 37  1  6  0  0  0
 38 39  1  0  0  0  0
 38 56  1  0  0  0  0
 40 39  1  6  0  0  0
 40 48  1  0  0  0  0
 40 45  1  0  0  0  0
 41 44  1  0  0  0  0
 42 47  1  0  0  0  0
 42 44  2  0  0  0  0
 43 46  2  0  0  0  0
 43 45  1  0  0  0  0
 45 41  2  0  0  0  0
 46 42  1  0  0  0  0
 48 49  1  6  0  0  0
 50 48  1  0  0  0  0
 51 50  1  0  0  0  0
 52 51  1  0  0  0  0
 53 52  1  0  0  0  0
 55 54  1  0  0  0  0
 55 53  1  0  0  0  0
 57 58  1  0  0  0  0
 57 56  1  0  0  0  0
 59 58  1  6  0  0  0
 59 64  1  0  0  0  0
 61 62  2  0  0  0  0
 62 60  1  0  0  0  0
 62 59  1  0  0  0  0
 64 63  1  0  0  0  0
M  END
>  <MODEL>
2

>  <REMARK>
 VINA RESULT:      -6.9      2.099      4.471
  Name = 
  21 active torsions:
  status: ('A' for Active; 'I' for Inactive)
    1  A    between atoms: N_4  and  C_13
    2  A    between atoms: N_4  and  C_62
    3  A    between atoms: C_7  and  C_44
    4  A    between atoms: O_9  and  C_10
    5  A    between atoms: O_9  and  C_63
    6  A    between atoms: C_12  and  C_13
    7  A    between atoms: C_12  and  O_20
    8  A    between atoms: C_13  and  C_46
    9  A    between atoms: CA_19  and  C_37
   10  A    between atoms: CA_19  and  N_52
   11  A    between atoms: CA_19  and  C_58
   12  A    between atoms: O_20  and  C_57
   13  A    between atoms: C_21  and  C_51
   14  A    between atoms: C_35  and  C_49
   15  A    between atoms: C_35  and  C_58
   16  A    between atoms: C_43  and  N_48
   17  A    between atoms: C_43  and  N_59
   18  A    between atoms: C_49  and  C_62
   19  A    between atoms: C_51  and  C_62
   20  A    between atoms: C_55  and  C_63
   21  A    between atoms: C_57  and  N_59
                            x       y       z     vdW  Elec       q    Type
                         _______ _______ _______ _____ _____    ______ ____

>  <TORSDO>
F 21

$$$$
=
 OpenBabel11062418223D

 64 71  0  0  1  0  0  0  0  0999 V2000
  187.0470  177.2020  144.6320 C   0  0  0  0  0  1  0  0  0  0  0  0
  189.3580  173.0140  142.5490 C   0  0  1  0  0  0  0  0  0  0  0  0
  188.0260  173.6420  142.0850 C   0  0  1  0  0  3  0  0  0  0  0  0
  189.1850  175.9330  142.3830 C   0  0  0  0  0  0  0  0  0  0  0  0
  187.9470  175.1150  142.4190 C   0  0  0  0  0  0  0  0  0  0  0  0
  190.4450  173.9360  143.1190 C   0  0  2  0  0  3  0  0  0  0  0  0
  187.3560  178.1720  140.9000 C   0  0  0  0  0  1  0  0  0  0  0  0
  189.1060  171.9530  143.4380 O   0  0  0  0  0  0  0  0  0  0  0  0
  187.7650  177.9550  142.3530 C   0  0  1  0  0  3  0  0  0  0  0  0
  186.7760  175.6780  142.7340 C   0  0  0  0  0  3  0  0  0  0  0  0
  186.7040  177.1370  143.1440 C   0  0  1  0  0  0  0  0  0  0  0  0
  189.6510  171.6050  142.1910 C   0  0  0  0  0  2  0  0  0  0  0  0
  190.5180  175.2530  142.3470 C   0  0  0  0  0  2  0  0  0  0  0  0
  189.1090  177.2670  142.3760 C   0  0  0  0  0  3  0  0  0  0  0  0
  180.4160  178.4680  143.0210 O   0  0  0  0  0  0  0  0  0  0  0  0
  183.4170  178.9560  143.7600 N   0  0  0  0  0  0  0  0  0  0  0  0
  185.3050  177.7080  142.9540 C   0  0  0  0  0  0  0  0  0  0  0  0
  184.6160  177.4970  141.7490 C   0  0  0  0  0  3  0  0  0  0  0  0
  182.6060  177.8420  140.2990 C   0  0  0  0  0  0  0  0  0  0  0  0
  183.3380  178.0300  141.5600 C   0  0  0  0  0  0  0  0  0  0  0  0
  181.3760  178.5400  140.1000 N   0  0  0  0  0  2  0  0  0  0  0  0
  182.7530  178.7860  142.5850 C   0  0  0  0  0  0  0  0  0  0  0  0
  184.6600  178.4460  143.9600 C   0  0  0  0  0  3  0  0  0  0  0  0
  179.4540  179.5620  141.1180 C   0  0  0  0  0  2  0  0  0  0  0  0
  179.1990  178.7250  142.3600 C   0  0  0  0  0  2  0  0  0  0  0  0
  183.0170  177.0440  139.4180 O   0  0  0  0  0  0  0  0  0  0  0  0
  180.9430  179.6030  141.0060 C   0  0  1  0  0  3  0  0  0  0  0  0
  181.3590  179.3340  142.4460 C   0  0  1  0  0  3  0  0  0  0  0  0
  187.7010  173.3450  140.7400 O   0  0  0  0  0  0  0  0  0  0  0  0
  188.6630  173.8950  139.8690 C   0  0  0  0  0  2  0  0  0  0  0  0
  190.3950  173.9420  137.0070 C   0  0  0  0  0  0  0  0  0  0  0  0
  190.7880  172.8310  139.1120 C   0  0  0  0  0  2  0  0  0  0  0  0
  188.8280  173.1240  137.2350 S   0  0  0  0  0  0  0  0  0  0  0  0
  191.3690  173.8230  138.1210 C   0  0  0  0  0  2  0  0  0  0  0  0
  189.2700  172.8250  138.9760 C   0  0  2  0  0  3  0  0  0  0  0  0
  190.5250  174.9020  136.0960 C   0  0  0  0  0  2  0  0  0  0  0  0
  191.8180  173.3080  143.3100 C   0  0  0  0  0  2  0  0  0  0  0  0
  192.6640  174.2980  144.0910 C   0  0  2  0  0  3  0  0  0  0  0  0
  194.0910  174.2080  143.7570 N   0  0  0  0  0  2  0  0  0  0  0  0
  194.5390  175.2530  142.8220 C   0  0  2  0  0  3  0  0  0  0  0  0
  195.1880  173.4530  141.1990 C   0  0  0  0  0  3  0  0  0  0  0  0
  195.0450  173.7810  138.8030 C   0  0  0  0  0  0  0  0  0  0  0  0
  194.4430  175.5840  140.3040 C   0  0  0  0  0  3  0  0  0  0  0  0
  195.3380  172.9590  139.8970 C   0  0  0  0  0  3  0  0  0  0  0  0
  194.7430  174.7700  141.4080 C   0  0  0  0  0  0  0  0  0  0  0  0
  194.6010  175.0930  139.0030 C   0  0  0  0  0  3  0  0  0  0  0  0
  195.1870  173.2520  137.4210 C   0  0  0  0  0  1  0  0  0  0  0  0
  195.7060  176.0780  143.3670 C   0  0  2  0  0  3  0  0  0  0  0  0
  196.7340  176.0960  142.4440 F   0  0  0  0  0  0  0  0  0  0  0  0
  196.1670  175.5240  144.5640 O   0  0  0  0  0  0  0  0  0  0  0  0
  197.2380  174.7020  144.1970 C   0  0  0  0  0  2  0  0  0  0  0  0
  197.7940  174.0610  145.3790 N   0  0  0  0  0  2  0  0  0  0  0  0
  196.9850  172.8830  145.6530 C   0  0  0  0  0  2  0  0  0  0  0  0
  197.5370  170.7020  145.0230 C   0  0  0  0  0  1  0  0  0  0  0  0
  197.0330  171.9690  144.5270 N   0  0  0  0  0  2  0  0  0  0  0  0
  192.3980  174.1620  145.5970 C   0  0  0  0  0  2  0  0  0  0  0  0
  193.2070  175.1190  146.4690 C   0  0  0  0  0  2  0  0  0  0  0  0
  192.5050  176.4570  146.6150 C   0  0  0  0  0  2  0  0  0  0  0  0
  191.1150  176.2270  147.1920 C   0  0  2  0  0  3  0  0  0  0  0  0
  190.4170  177.7010  145.4620 O   0  0  0  0  0  0  0  0  0  0  0  0
  189.0010  177.5680  147.2630 O   0  0  0  0  0  1  0  0  0  0  0  0
  190.1510  177.1860  146.5790 C   0  0  0  0  0  0  0  0  0  0  0  0
  191.6950  177.6900  148.9240 C   0  0  0  0  0  1  0  0  0  0  0  0
  191.1240  176.3830  148.6350 N   0  0  0  0  0  2  0  0  0  0  0  0
  2 12  1  6  0  0  0
  2  6  1  0  0  0  0
  2  8  1  0  0  0  0
  3 29  1  6  0  0  0
  3  5  1  0  0  0  0
  3  2  1  0  0  0  0
  4  5  1  0  0  0  0
  5 10  2  0  0  0  0
  6 37  1  6  0  0  0
  9  7  1  6  0  0  0
  9 14  1  0  0  0  0
  9 11  1  0  0  0  0
 10 11  1  0  0  0  0
 11  1  1  1  0  0  0
 12  8  1  0  0  0  0
 13  4  1  0  0  0  0
 13  6  1  0  0  0  0
 14  4  2  0  0  0  0
 16 23  1  0  0  0  0
 17 11  1  0  0  0  0
 17 23  2  0  0  0  0
 18 17  1  0  0  0  0
 19 20  1  0  0  0  0
 20 18  2  0  0  0  0
 20 22  1  0  0  0  0
 21 19  1  0  0  0  0
 21 27  1  0  0  0  0
 22 16  2  0  0  0  0
 24 25  1  0  0  0  0
 25 15  1  0  0  0  0
 26 19  2  0  0  0  0
 27 24  1  1  0  0  0
 27 28  1  0  0  0  0
 28 22  1  6  0  0  0
 28 15  1  0  0  0  0
 30 29  1  0  0  0  0
 31 33  1  0  0  0  0
 31 34  1  0  0  0  0
 33 35  1  0  0  0  0
 34 32  1  0  0  0  0
 35 32  1  0  0  0  0
 35 30  1  1  0  0  0
 36 31  2  0  0  0  0
 38 37  1  6  0  0  0
 38 56  1  0  0  0  0
 39 38  1  0  0  0  0
 40 48  1  0  0  0  0
 40 39  1  1  0  0  0
 41 45  1  0  0  0  0
 42 46  2  0  0  0  0
 42 44  1  0  0  0  0
 43 45  2  0  0  0  0
 44 41  2  0  0  0  0
 45 40  1  0  0  0  0
 46 43  1  0  0  0  0
 47 42  1  0  0  0  0
 48 49  1  6  0  0  0
 48 50  1  0  0  0  0
 51 50  1  0  0  0  0
 51 52  1  0  0  0  0
 52 53  1  0  0  0  0
 55 54  1  0  0  0  0
 55 53  1  0  0  0  0
 56 57  1  0  0  0  0
 57 58  1  0  0  0  0
 59 58  1  6  0  0  0
 59 64  1  0  0  0  0
 60 62  2  0  0  0  0
 62 59  1  0  0  0  0
 62 61  1  0  0  0  0
 64 63  1  0  0  0  0
M  END
>  <MODEL>
3

>  <REMARK>
 VINA RESULT:      -6.7      1.695      3.194
  Name = 
  21 active torsions:
  status: ('A' for Active; 'I' for Inactive)
    1  A    between atoms: N_4  and  C_13
    2  A    between atoms: N_4  and  C_62
    3  A    between atoms: C_7  and  C_44
    4  A    between atoms: O_9  and  C_10
    5  A    between atoms: O_9  and  C_63
    6  A    between atoms: C_12  and  C_13
    7  A    between atoms: C_12  and  O_20
    8  A    between atoms: C_13  and  C_46
    9  A    between atoms: CA_19  and  C_37
   10  A    between atoms: CA_19  and  N_52
   11  A    between atoms: CA_19  and  C_58
   12  A    between atoms: O_20  and  C_57
   13  A    between atoms: C_21  and  C_51
   14  A    between atoms: C_35  and  C_49
   15  A    between atoms: C_35  and  C_58
   16  A    between atoms: C_43  and  N_48
   17  A    between atoms: C_43  and  N_59
   18  A    between atoms: C_49  and  C_62
   19  A    between atoms: C_51  and  C_62
   20  A    between atoms: C_55  and  C_63
   21  A    between atoms: C_57  and  N_59
                            x       y       z     vdW  Elec       q    Type
                         _______ _______ _______ _____ _____    ______ ____

>  <TORSDO>
F 21

$$$$
=
 OpenBabel11062418223D

 64 71  0  0  1  0  0  0  0  0999 V2000
  189.1860  175.1320  140.6110 C   0  0  0  0  0  1  0  0  0  0  0  0
  194.3720  174.9250  141.1540 C   0  0  1  0  0  0  0  0  0  0  0  0
  193.3600  175.3580  142.2380 C   0  0  1  0  0  3  0  0  0  0  0  0
  191.9090  173.3670  141.4530 C   0  0  0  0  0  0  0  0  0  0  0  0
  191.9990  174.7350  142.0240 C   0  0  0  0  0  0  0  0  0  0  0  0
  193.9460  173.8570  140.1380 C   0  0  2  0  0  3  0  0  0  0  0  0
  189.6250  172.8540  143.7070 C   0  0  0  0  0  1  0  0  0  0  0  0
  194.8740  176.0570  140.4860 O   0  0  0  0  0  0  0  0  0  0  0  0
  189.5690  173.2670  142.2400 C   0  0  1  0  0  3  0  0  0  0  0  0
  190.8880  175.4020  142.3520 C   0  0  0  0  0  3  0  0  0  0  0  0
  189.5190  174.8130  142.0680 C   0  0  1  0  0  0  0  0  0  0  0  0
  195.7870  175.3470  141.2840 C   0  0  0  0  0  2  0  0  0  0  0  0
  193.1120  172.7600  140.8000 C   0  0  0  0  0  2  0  0  0  0  0  0
  190.7650  172.6810  141.5290 C   0  0  0  0  0  3  0  0  0  0  0  0
  185.1210  178.4940  144.9730 O   0  0  0  0  0  0  0  0  0  0  0  0
  186.1490  176.0080  143.3770 N   0  0  0  0  0  0  0  0  0  0  0  0
  188.4430  175.4360  142.9480 C   0  0  0  0  0  0  0  0  0  0  0  0
  188.7890  176.0210  144.1760 C   0  0  0  0  0  3  0  0  0  0  0  0
  188.1410  177.1810  146.2970 C   0  0  0  0  0  0  0  0  0  0  0  0
  187.8070  176.5830  144.9970 C   0  0  0  0  0  0  0  0  0  0  0  0
  187.0840  177.5940  147.1630 N   0  0  0  0  0  2  0  0  0  0  0  0
  186.4680  176.5480  144.5830 C   0  0  0  0  0  0  0  0  0  0  0  0
  187.0910  175.4560  142.5680 C   0  0  0  0  0  3  0  0  0  0  0  0
  184.8120  178.3540  147.3460 C   0  0  0  0  0  2  0  0  0  0  0  0
  184.5890  179.1750  146.0860 C   0  0  0  0  0  2  0  0  0  0  0  0
  189.3360  177.3790  146.6360 O   0  0  0  0  0  0  0  0  0  0  0  0
  185.6920  177.2330  146.9000 C   0  0  1  0  0  3  0  0  0  0  0  0
  185.3840  177.1870  145.4090 C   0  0  1  0  0  3  0  0  0  0  0  0
  193.8520  175.2120  143.5570 O   0  0  0  0  0  0  0  0  0  0  0  0
  193.1080  174.2380  144.2540 C   0  0  0  0  0  2  0  0  0  0  0  0
  194.1670  176.5410  146.4380 C   0  0  0  0  0  0  0  0  0  0  0  0
  192.3990  174.9020  146.5510 C   0  0  0  0  0  2  0  0  0  0  0  0
  195.0670  175.0670  145.9960 S   0  0  0  0  0  0  0  0  0  0  0  0
  192.7010  176.3890  146.6190 C   0  0  0  0  0  2  0  0  0  0  0  0
  193.4810  174.2140  145.7280 C   0  0  2  0  0  3  0  0  0  0  0  0
  194.7000  177.7420  146.2310 C   0  0  0  0  0  2  0  0  0  0  0  0
  195.0570  173.2840  139.2700 C   0  0  0  0  0  2  0  0  0  0  0  0
  194.4270  172.8450  137.9590 C   0  0  2  0  0  3  0  0  0  0  0  0
  195.4070  172.2860  137.0200 N   0  0  0  0  0  2  0  0  0  0  0  0
  195.5400  170.8230  137.1170 C   0  0  2  0  0  3  0  0  0  0  0  0
  193.7240  169.8710  138.5610 C   0  0  0  0  0  3  0  0  0  0  0  0
  191.7540  168.8260  137.6160 C   0  0  0  0  0  0  0  0  0  0  0  0
  193.4850  169.6810  136.1530 C   0  0  0  0  0  3  0  0  0  0  0  0
  192.4860  169.2390  138.7350 C   0  0  0  0  0  3  0  0  0  0  0  0
  194.2310  170.0910  137.2690 C   0  0  0  0  0  0  0  0  0  0  0  0
  192.2520  169.0420  136.3260 C   0  0  0  0  0  3  0  0  0  0  0  0
  190.4320  168.1710  137.7970 C   0  0  0  0  0  1  0  0  0  0  0  0
  196.6110  170.3890  138.1190 C   0  0  2  0  0  3  0  0  0  0  0  0
  197.5490  171.3940  138.2610 F   0  0  0  0  0  0  0  0  0  0  0  0
  197.2420  169.2250  137.6740 O   0  0  0  0  0  0  0  0  0  0  0  0
  197.0860  168.3040  138.7150 C   0  0  0  0  0  2  0  0  0  0  0  0
  196.7100  169.0010  139.9360 N   0  0  0  0  0  2  0  0  0  0  0  0
  197.2070  168.2140  141.0540 C   0  0  0  0  0  2  0  0  0  0  0  0
  196.5880  170.2120  142.0960 C   0  0  0  0  0  1  0  0  0  0  0  0
  197.4860  169.0760  142.1880 N   0  0  0  0  0  2  0  0  0  0  0  0
  193.6050  173.9890  137.3470 C   0  0  0  0  0  2  0  0  0  0  0  0
  192.3330  173.5400  136.6340 C   0  0  0  0  0  2  0  0  0  0  0  0
  191.4490  172.7140  137.5530 C   0  0  0  0  0  2  0  0  0  0  0  0
  190.0370  173.2810  137.5230 C   0  0  2  0  0  3  0  0  0  0  0  0
  189.3440  171.1150  138.2160 O   0  0  0  0  0  0  0  0  0  0  0  0
  187.9490  172.8310  138.8290 O   0  0  0  0  0  1  0  0  0  0  0  0
  189.1070  172.3500  138.2260 C   0  0  0  0  0  0  0  0  0  0  0  0
  188.8360  174.7310  136.1340 C   0  0  0  0  0  1  0  0  0  0  0  0
  189.5940  173.4900  136.1570 N   0  0  0  0  0  2  0  0  0  0  0  0
  2 12  1  1  0  0  0
  2  3  1  0  0  0  0
  3 29  1  1  0  0  0
  4 14  2  0  0  0  0
  4  5  1  0  0  0  0
  5  3  1  0  0  0  0
  5 10  2  0  0  0  0
  6 37  1  1  0  0  0
  6 13  1  0  0  0  0
  6  2  1  0  0  0  0
  8  2  1  0  0  0  0
  8 12  1  0  0  0  0
  9  7  1  1  0  0  0
 11  1  1  6  0  0  0
 11  9  1  0  0  0  0
 11 10  1  0  0  0  0
 11 17  1  0  0  0  0
 13  4  1  0  0  0  0
 14  9  1  0  0  0  0
 15 28  1  0  0  0  0
 15 25  1  0  0  0  0
 16 22  1  0  0  0  0
 17 18  2  0  0  0  0
 18 20  1  0  0  0  0
 19 26  2  0  0  0  0
 19 21  1  0  0  0  0
 20 19  1  0  0  0  0
 22 20  2  0  0  0  0
 23 17  1  0  0  0  0
 23 16  2  0  0  0  0
 25 24  1  0  0  0  0
 27 21  1  0  0  0  0
 27 24  1  1  0  0  0
 28 22  1  6  0  0  0
 28 27  1  0  0  0  0
 29 30  1  0  0  0  0
 31 34  1  0  0  0  0
 32 34  1  0  0  0  0
 33 31  1  0  0  0  0
 35 30  1  6  0  0  0
 35 33  1  0  0  0  0
 35 32  1  0  0  0  0
 36 31  2  0  0  0  0
 38 56  1  6  0  0  0
 38 37  1  0  0  0  0
 39 38  1  0  0  0  0
 40 39  1  1  0  0  0
 40 45  1  0  0  0  0
 40 48  1  0  0  0  0
 41 44  1  0  0  0  0
 42 47  1  0  0  0  0
 42 44  2  0  0  0  0
 43 46  2  0  0  0  0
 43 45  1  0  0  0  0
 45 41  2  0  0  0  0
 46 42  1  0  0  0  0
 48 49  1  6  0  0  0
 50 48  1  0  0  0  0
 50 51  1  0  0  0  0
 51 52  1  0  0  0  0
 52 53  1  0  0  0  0
 53 55  1  0  0  0  0
 54 55  1  0  0  0  0
 57 56  1  0  0  0  0
 57 58  1  0  0  0  0
 59 58  1  6  0  0  0
 59 62  1  0  0  0  0
 60 62  2  0  0  0  0
 62 61  1  0  0  0  0
 63 64  1  0  0  0  0
 64 59  1  0  0  0  0
M  END
>  <MODEL>
4

>  <REMARK>
 VINA RESULT:      -6.4      3.668      7.689
  Name = 
  21 active torsions:
  status: ('A' for Active; 'I' for Inactive)
    1  A    between atoms: N_4  and  C_13
    2  A    between atoms: N_4  and  C_62
    3  A    between atoms: C_7  and  C_44
    4  A    between atoms: O_9  and  C_10
    5  A    between atoms: O_9  and  C_63
    6  A    between atoms: C_12  and  C_13
    7  A    between atoms: C_12  and  O_20
    8  A    between atoms: C_13  and  C_46
    9  A    between atoms: CA_19  and  C_37
   10  A    between atoms: CA_19  and  N_52
   11  A    between atoms: CA_19  and  C_58
   12  A    between atoms: O_20  and  C_57
   13  A    between atoms: C_21  and  C_51
   14  A    between atoms: C_35  and  C_49
   15  A    between atoms: C_35  and  C_58
   16  A    between atoms: C_43  and  N_48
   17  A    between atoms: C_43  and  N_59
   18  A    between atoms: C_49  and  C_62
   19  A    between atoms: C_51  and  C_62
   20  A    between atoms: C_55  and  C_63
   21  A    between atoms: C_57  and  N_59
                            x       y       z     vdW  Elec       q    Type
                         _______ _______ _______ _____ _____    ______ ____

>  <TORSDO>
F 21

$$$$
=
 OpenBabel11062418223D

 64 71  0  0  1  0  0  0  0  0999 V2000
  190.5770  172.7280  144.5110 C   0  0  0  0  0  1  0  0  0  0  0  0
  192.0040  171.2860  139.7040 C   0  0  1  0  0  0  0  0  0  0  0  0
  191.1050  172.4890  140.0630 C   0  0  1  0  0  3  0  0  0  0  0  0
  192.7690  172.9570  141.9850 C   0  0  0  0  0  0  0  0  0  0  0  0
  191.3830  173.0090  141.4550 C   0  0  0  0  0  0  0  0  0  0  0  0
  193.1150  170.8830  140.6830 C   0  0  2  0  0  3  0  0  0  0  0  0
  192.1820  175.9530  143.0990 C   0  0  0  0  0  1  0  0  0  0  0  0
  191.2100  170.1700  139.3850 O   0  0  0  0  0  0  0  0  0  0  0  0
  192.0880  174.5670  143.7310 C   0  0  1  0  0  3  0  0  0  0  0  0
  190.3970  173.5190  142.2000 C   0  0  0  0  0  3  0  0  0  0  0  0
  190.6550  173.9700  143.6250 C   0  0  1  0  0  0  0  0  0  0  0  0
  191.9470  170.7320  138.3300 C   0  0  0  0  0  2  0  0  0  0  0  0
  193.7920  172.1100  141.2930 C   0  0  0  0  0  2  0  0  0  0  0  0
  193.1020  173.6670  143.0670 C   0  0  0  0  0  3  0  0  0  0  0  0
  185.5230  177.0590  145.9610 O   0  0  0  0  0  0  0  0  0  0  0  0
  188.5330  176.2100  145.8550 N   0  0  0  0  0  0  0  0  0  0  0  0
  189.6030  174.9620  144.1030 C   0  0  0  0  0  0  0  0  0  0  0  0
  188.7190  175.5480  143.1830 C   0  0  0  0  0  3  0  0  0  0  0  0
  186.8370  177.1150  142.6640 C   0  0  0  0  0  0  0  0  0  0  0  0
  187.7590  176.4700  143.6100 C   0  0  0  0  0  0  0  0  0  0  0  0
  185.9880  178.1640  143.1280 N   0  0  0  0  0  2  0  0  0  0  0  0
  187.6940  176.8100  144.9680 C   0  0  0  0  0  0  0  0  0  0  0  0
  189.4720  175.3140  145.4560 C   0  0  0  0  0  3  0  0  0  0  0  0
  184.8270  179.1380  144.9930 C   0  0  0  0  0  2  0  0  0  0  0  0
  184.4360  177.9470  145.8540 C   0  0  0  0  0  2  0  0  0  0  0  0
  186.7510  176.7270  141.4700 O   0  0  0  0  0  0  0  0  0  0  0  0
  186.1670  178.7690  144.4470 C   0  0  1  0  0  3  0  0  0  0  0  0
  186.6420  177.7570  145.4810 C   0  0  1  0  0  3  0  0  0  0  0  0
  191.0910  173.4980  139.0710 O   0  0  0  0  0  0  0  0  0  0  0  0
  189.9140  173.4130  138.2990 C   0  0  0  0  0  2  0  0  0  0  0  0
  191.5090  173.0220  135.3840 C   0  0  0  0  0  0  0  0  0  0  0  0
  189.2250  173.5960  135.9090 C   0  0  0  0  0  2  0  0  0  0  0  0
  191.7700  174.3760  136.5140 S   0  0  0  0  0  0  0  0  0  0  0  0
  190.1030  172.5880  135.1900 C   0  0  0  0  0  2  0  0  0  0  0  0
  190.0290  174.2430  137.0310 C   0  0  2  0  0  3  0  0  0  0  0  0
  192.5160  172.2180  135.0560 C   0  0  0  0  0  2  0  0  0  0  0  0
  194.1280  169.8730  140.1610 C   0  0  0  0  0  2  0  0  0  0  0  0
  195.5010  170.3300  140.6200 C   0  0  2  0  0  3  0  0  0  0  0  0
  196.4540  170.4570  139.5110 N   0  0  0  0  0  2  0  0  0  0  0  0
  196.7070  171.8520  139.1140 C   0  0  2  0  0  3  0  0  0  0  0  0
  197.7490  172.4950  141.3040 C   0  0  0  0  0  3  0  0  0  0  0  0
  197.2310  174.5920  142.3990 C   0  0  0  0  0  0  0  0  0  0  0  0
  196.1480  174.0250  140.3080 C   0  0  0  0  0  3  0  0  0  0  0  0
  197.9410  173.3860  142.3660 C   0  0  0  0  0  3  0  0  0  0  0  0
  196.8490  172.8080  140.2700 C   0  0  0  0  0  0  0  0  0  0  0  0
  196.3340  174.9120  141.3740 C   0  0  0  0  0  3  0  0  0  0  0  0
  197.4470  175.5480  143.5170 C   0  0  0  0  0  1  0  0  0  0  0  0
  195.7550  172.3410  138.0210 C   0  0  2  0  0  3  0  0  0  0  0  0
  195.2120  171.2560  137.3590 F   0  0  0  0  0  0  0  0  0  0  0  0
  196.4420  173.1460  137.1100 O   0  0  0  0  0  0  0  0  0  0  0  0
  195.9880  172.7410  135.8500 C   0  0  0  0  0  2  0  0  0  0  0  0
  196.4220  173.6950  134.8400 N   0  0  0  0  0  2  0  0  0  0  0  0
  195.5020  174.8200  134.8830 C   0  0  0  0  0  2  0  0  0  0  0  0
  197.0540  176.3550  135.7180 C   0  0  0  0  0  1  0  0  0  0  0  0
  196.2050  176.0530  134.5800 N   0  0  0  0  0  2  0  0  0  0  0  0
  196.0210  169.4270  141.7480 C   0  0  0  0  0  2  0  0  0  0  0  0
  195.6360  169.8860  143.1520 C   0  0  0  0  0  2  0  0  0  0  0  0
  196.8440  169.9160  144.0710 C   0  0  0  0  0  2  0  0  0  0  0  0
  196.3860  170.2710  145.4790 C   0  0  2  0  0  3  0  0  0  0  0  0
  195.8870  168.2450  146.6180 O   0  0  0  0  0  1  0  0  0  0  0  0
  194.0830  169.3070  145.6770 O   0  0  0  0  0  0  0  0  0  0  0  0
  195.4400  169.2300  145.9770 C   0  0  0  0  0  0  0  0  0  0  0  0
  196.7790  172.5520  145.8230 C   0  0  0  0  0  1  0  0  0  0  0  0
  195.7500  171.5750  145.5010 N   0  0  0  0  0  2  0  0  0  0  0  0
  2 12  1  6  0  0  0
  2  3  1  0  0  0  0
  2  6  1  0  0  0  0
  3 29  1  6  0  0  0
  3  5  1  0  0  0  0
  4 14  2  0  0  0  0
  5  4  1  0  0  0  0
  5 10  2  0  0  0  0
  6 37  1  6  0  0  0
  6 13  1  0  0  0  0
  8  2  1  0  0  0  0
  9  7  1  6  0  0  0
 10 11  1  0  0  0  0
 11  9  1  0  0  0  0
 11 17  1  0  0  0  0
 11  1  1  1  0  0  0
 12  8  1  0  0  0  0
 13  4  1  0  0  0  0
 14  9  1  0  0  0  0
 17 23  2  0  0  0  0
 18 20  2  0  0  0  0
 18 17  1  0  0  0  0
 19 21  1  0  0  0  0
 19 20  1  0  0  0  0
 20 22  1  0  0  0  0
 21 27  1  0  0  0  0
 22 16  2  0  0  0  0
 23 16  1  0  0  0  0
 24 25  1  0  0  0  0
 25 15  1  0  0  0  0
 26 19  2  0  0  0  0
 27 24  1  1  0  0  0
 27 28  1  0  0  0  0
 28 22  1  6  0  0  0
 28 15  1  0  0  0  0
 30 29  1  0  0  0  0
 31 33  1  0  0  0  0
 32 35  1  0  0  0  0
 33 35  1  0  0  0  0
 34 31  1  0  0  0  0
 34 32  1  0  0  0  0
 35 30  1  1  0  0  0
 36 31  2  0  0  0  0
 38 37  1  6  0  0  0
 38 56  1  0  0  0  0
 39 38  1  0  0  0  0
 40 39  1  1  0  0  0
 40 45  1  0  0  0  0
 41 44  1  0  0  0  0
 42 47  1  0  0  0  0
 43 46  2  0  0  0  0
 44 42  2  0  0  0  0
 45 43  1  0  0  0  0
 45 41  2  0  0  0  0
 46 42  1  0  0  0  0
 48 49  1  6  0  0  0
 48 40  1  0  0  0  0
 50 48  1  0  0  0  0
 51 50  1  0  0  0  0
 52 53  1  0  0  0  0
 52 51  1  0  0  0  0
 55 53  1  0  0  0  0
 55 54  1  0  0  0  0
 56 57  1  0  0  0  0
 57 58  1  0  0  0  0
 59 58  1  6  0  0  0
 59 64  1  0  0  0  0
 59 62  1  0  0  0  0
 61 62  2  0  0  0  0
 62 60  1  0  0  0  0
 64 63  1  0  0  0  0
M  END
>  <MODEL>
5

>  <REMARK>
 VINA RESULT:      -6.3      3.238      5.769
  Name = 
  21 active torsions:
  status: ('A' for Active; 'I' for Inactive)
    1  A    between atoms: N_4  and  C_13
    2  A    between atoms: N_4  and  C_62
    3  A    between atoms: C_7  and  C_44
    4  A    between atoms: O_9  and  C_10
    5  A    between atoms: O_9  and  C_63
    6  A    between atoms: C_12  and  C_13
    7  A    between atoms: C_12  and  O_20
    8  A    between atoms: C_13  and  C_46
    9  A    between atoms: CA_19  and  C_37
   10  A    between atoms: CA_19  and  N_52
   11  A    between atoms: CA_19  and  C_58
   12  A    between atoms: O_20  and  C_57
   13  A    between atoms: C_21  and  C_51
   14  A    between atoms: C_35  and  C_49
   15  A    between atoms: C_35  and  C_58
   16  A    between atoms: C_43  and  N_48
   17  A    between atoms: C_43  and  N_59
   18  A    between atoms: C_49  and  C_62
   19  A    between atoms: C_51  and  C_62
   20  A    between atoms: C_55  and  C_63
   21  A    between atoms: C_57  and  N_59
                            x       y       z     vdW  Elec       q    Type
                         _______ _______ _______ _____ _____    ______ ____

>  <TORSDO>
F 21

$$$$
=
 OpenBabel11062418223D

 64 71  0  0  1  0  0  0  0  0999 V2000
  188.9990  174.7020  140.6900 C   0  0  0  0  0  1  0  0  0  0  0  0
  194.2060  174.9390  140.9420 C   0  0  1  0  0  0  0  0  0  0  0  0
  193.2190  175.4670  142.0070 C   0  0  1  0  0  3  0  0  0  0  0  0
  191.8880  173.2830  141.6270 C   0  0  0  0  0  0  0  0  0  0  0  0
  191.9010  174.7260  141.9740 C   0  0  0  0  0  0  0  0  0  0  0  0
  193.8140  173.6970  140.1310 C   0  0  2  0  0  3  0  0  0  0  0  0
  189.7650  172.9780  144.0680 C   0  0  0  0  0  1  0  0  0  0  0  0
  194.5850  175.9830  140.0790 O   0  0  0  0  0  0  0  0  0  0  0  0
  189.6050  173.1490  142.5610 C   0  0  1  0  0  3  0  0  0  0  0  0
  190.7590  175.3590  142.2630 C   0  0  0  0  0  3  0  0  0  0  0  0
  189.4270  174.6410  142.1560 C   0  0  1  0  0  0  0  0  0  0  0  0
  195.5890  175.4720  140.9190 C   0  0  0  0  0  2  0  0  0  0  0  0
  193.1010  172.6640  141.0030 C   0  0  0  0  0  2  0  0  0  0  0  0
  190.8060  172.5410  141.8770 C   0  0  0  0  0  3  0  0  0  0  0  0
  185.1020  178.5430  144.8780 O   0  0  0  0  0  0  0  0  0  0  0  0
  186.0720  175.9970  143.3390 N   0  0  0  0  0  0  0  0  0  0  0  0
  188.3510  175.3200  142.9930 C   0  0  0  0  0  0  0  0  0  0  0  0
  188.6820  175.9020  144.2280 C   0  0  0  0  0  3  0  0  0  0  0  0
  188.0150  177.1100  146.3150 C   0  0  0  0  0  0  0  0  0  0  0  0
  187.6980  176.5140  145.0100 C   0  0  0  0  0  0  0  0  0  0  0  0
  186.9490  177.5780  147.1420 N   0  0  0  0  0  2  0  0  0  0  0  0
  186.3740  176.5340  144.5510 C   0  0  0  0  0  0  0  0  0  0  0  0
  187.0150  175.3960  142.5680 C   0  0  0  0  0  3  0  0  0  0  0  0
  184.7080  178.4400  147.2400 C   0  0  0  0  0  2  0  0  0  0  0  0
  184.5650  179.2570  145.9660 C   0  0  0  0  0  2  0  0  0  0  0  0
  189.2050  177.2590  146.6930 O   0  0  0  0  0  0  0  0  0  0  0  0
  185.5510  177.2770  146.8340 C   0  0  1  0  0  3  0  0  0  0  0  0
  185.2930  177.2290  145.3340 C   0  0  1  0  0  3  0  0  0  0  0  0
  193.7840  175.5650  143.3000 O   0  0  0  0  0  0  0  0  0  0  0  0
  194.8650  174.6700  143.4330 C   0  0  0  0  0  2  0  0  0  0  0  0
  193.8140  171.7300  144.6360 C   0  0  0  0  0  0  0  0  0  0  0  0
  195.9100  172.9060  144.8530 C   0  0  0  0  0  2  0  0  0  0  0  0
  193.2340  173.3220  145.1890 S   0  0  0  0  0  0  0  0  0  0  0  0
  195.2710  171.6150  144.3730 C   0  0  0  0  0  2  0  0  0  0  0  0
  194.8720  174.0200  144.8080 C   0  0  2  0  0  3  0  0  0  0  0  0
  192.9640  170.8460  144.1240 C   0  0  0  0  0  2  0  0  0  0  0  0
  194.9210  173.0710  139.2950 C   0  0  0  0  0  2  0  0  0  0  0  0
  194.4450  173.0530  137.8530 C   0  0  2  0  0  3  0  0  0  0  0  0
  194.6220  171.7430  137.2160 N   0  0  0  0  0  2  0  0  0  0  0  0
  193.3510  171.0780  136.8820 C   0  0  2  0  0  3  0  0  0  0  0  0
  193.4180  169.7070  138.9810 C   0  0  0  0  0  3  0  0  0  0  0  0
  191.4380  169.3310  140.3260 C   0  0  0  0  0  0  0  0  0  0  0  0
  191.2820  170.6290  138.2870 C   0  0  0  0  0  3  0  0  0  0  0  0
  192.8100  169.1510  140.1140 C   0  0  0  0  0  3  0  0  0  0  0  0
  192.6550  170.4460  138.0600 C   0  0  0  0  0  0  0  0  0  0  0  0
  190.6720  170.0660  139.4130 C   0  0  0  0  0  3  0  0  0  0  0  0
  190.7950  168.7550  141.5360 C   0  0  0  0  0  1  0  0  0  0  0  0
  193.4640  170.1580  135.6650 C   0  0  2  0  0  3  0  0  0  0  0  0
  193.4040  168.8400  136.0720 F   0  0  0  0  0  0  0  0  0  0  0  0
  194.6730  170.3850  135.0020 O   0  0  0  0  0  0  0  0  0  0  0  0
  195.4320  169.2300  135.2220 C   0  0  0  0  0  2  0  0  0  0  0  0
  196.8310  169.4960  134.9220 N   0  0  0  0  0  2  0  0  0  0  0  0
  197.4820  169.8500  136.1730 C   0  0  0  0  0  2  0  0  0  0  0  0
  197.6320  168.2100  137.8310 C   0  0  0  0  0  1  0  0  0  0  0  0
  196.7770  169.2510  137.2920 N   0  0  0  0  0  2  0  0  0  0  0  0
  195.0970  174.1920  137.0560 C   0  0  0  0  0  2  0  0  0  0  0  0
  194.1110  175.0740  136.2940 C   0  0  0  0  0  2  0  0  0  0  0  0
  192.7090  174.9500  136.8640 C   0  0  0  0  0  2  0  0  0  0  0  0
  191.7320  174.6940  135.7250 C   0  0  2  0  0  3  0  0  0  0  0  0
  190.2070  173.8520  137.3430 O   0  0  0  0  0  1  0  0  0  0  0  0
  189.2470  174.9620  135.5790 O   0  0  0  0  0  0  0  0  0  0  0  0
  190.3590  174.4980  136.2750 C   0  0  0  0  0  0  0  0  0  0  0  0
  190.9150  172.8650  134.5140 C   0  0  0  0  0  1  0  0  0  0  0  0
  192.1320  173.5290  134.9570 N   0  0  0  0  0  2  0  0  0  0  0  0
  2 12  1  1  0  0  0
  2  3  1  0  0  0  0
  3 29  1  1  0  0  0
  4 14  2  0  0  0  0
  4  5  1  0  0  0  0
  5  3  1  0  0  0  0
  5 10  2  0  0  0  0
  6 37  1  1  0  0  0
  6  2  1  0  0  0  0
  6 13  1  0  0  0  0
  8 12  1  0  0  0  0
  8  2  1  0  0  0  0
  9  7  1  1  0  0  0
 11  1  1  6  0  0  0
 11 10  1  0  0  0  0
 11  9  1  0  0  0  0
 11 17  1  0  0  0  0
 13  4  1  0  0  0  0
 14  9  1  0  0  0  0
 15 28  1  0  0  0  0
 15 25  1  0  0  0  0
 16 22  1  0  0  0  0
 17 18  2  0  0  0  0
 18 20  1  0  0  0  0
 19 26  2  0  0  0  0
 19 21  1  0  0  0  0
 20 19  1  0  0  0  0
 22 20  2  0  0  0  0
 23 17  1  0  0  0  0
 23 16  2  0  0  0  0
 25 24  1  0  0  0  0
 27 21  1  0  0  0  0
 27 24  1  1  0  0  0
 28 22  1  6  0  0  0
 28 27  1  0  0  0  0
 29 30  1  0  0  0  0
 31 33  1  0  0  0  0
 34 31  1  0  0  0  0
 34 32  1  0  0  0  0
 35 30  1  6  0  0  0
 35 32  1  0  0  0  0
 35 33  1  0  0  0  0
 36 31  2  0  0  0  0
 38 56  1  6  0  0  0
 38 37  1  0  0  0  0
 39 38  1  0  0  0  0
 40 39  1  1  0  0  0
 40 45  1  0  0  0  0
 41 44  1  0  0  0  0
 42 47  1  0  0  0  0
 43 46  2  0  0  0  0
 44 42  2  0  0  0  0
 45 43  1  0  0  0  0
 45 41  2  0  0  0  0
 46 42  1  0  0  0  0
 48 49  1  1  0  0  0
 48 40  1  0  0  0  0
 50 51  1  0  0  0  0
 50 48  1  0  0  0  0
 52 51  1  0  0  0  0
 52 53  1  0  0  0  0
 53 55  1  0  0  0  0
 55 54  1  0  0  0  0
 57 58  1  0  0  0  0
 57 56  1  0  0  0  0
 59 62  1  0  0  0  0
 59 58  1  1  0  0  0
 61 62  2  0  0  0  0
 62 60  1  0  0  0  0
 63 64  1  0  0  0  0
 64 59  1  0  0  0  0
M  END
>  <MODEL>
6

>  <REMARK>
 VINA RESULT:      -6.3      3.795      7.683
  Name = 
  21 active torsions:
  status: ('A' for Active; 'I' for Inactive)
    1  A    between atoms: N_4  and  C_13
    2  A    between atoms: N_4  and  C_62
    3  A    between atoms: C_7  and  C_44
    4  A    between atoms: O_9  and  C_10
    5  A    between atoms: O_9  and  C_63
    6  A    between atoms: C_12  and  C_13
    7  A    between atoms: C_12  and  O_20
    8  A    between atoms: C_13  and  C_46
    9  A    between atoms: CA_19  and  C_37
   10  A    between atoms: CA_19  and  N_52
   11  A    between atoms: CA_19  and  C_58
   12  A    between atoms: O_20  and  C_57
   13  A    between atoms: C_21  and  C_51
   14  A    between atoms: C_35  and  C_49
   15  A    between atoms: C_35  and  C_58
   16  A    between atoms: C_43  and  N_48
   17  A    between atoms: C_43  and  N_59
   18  A    between atoms: C_49  and  C_62
   19  A    between atoms: C_51  and  C_62
   20  A    between atoms: C_55  and  C_63
   21  A    between atoms: C_57  and  N_59
                            x       y       z     vdW  Elec       q    Type
                         _______ _______ _______ _____ _____    ______ ____

>  <TORSDO>
F 21

$$$$
=
 OpenBabel11062418223D

 64 71  0  0  1  0  0  0  0  0999 V2000
  186.8980  178.2530  144.1630 C   0  0  0  0  0  1  0  0  0  0  0  0
  189.3160  173.7890  142.9560 C   0  0  1  0  0  0  0  0  0  0  0  0
  187.8710  174.1740  142.5690 C   0  0  1  0  0  3  0  0  0  0  0  0
  188.8120  176.5200  142.0240 C   0  0  0  0  0  0  0  0  0  0  0  0
  187.6860  175.6730  142.4920 C   0  0  0  0  0  0  0  0  0  0  0  0
  190.3690  174.9010  143.0590 C   0  0  2  0  0  3  0  0  0  0  0  0
  186.5600  178.1190  140.3110 C   0  0  0  0  0  1  0  0  0  0  0  0
  189.3090  173.0180  144.1320 O   0  0  0  0  0  0  0  0  0  0  0  0
  187.1950  178.3570  141.6780 C   0  0  1  0  0  3  0  0  0  0  0  0
  186.5190  176.2320  142.8320 C   0  0  0  0  0  3  0  0  0  0  0  0
  186.3530  177.7400  142.8310 C   0  0  1  0  0  0  0  0  0  0  0  0
  189.7010  172.3580  142.9560 C   0  0  0  0  0  2  0  0  0  0  0  0
  190.1900  175.9400  141.9520 C   0  0  0  0  0  2  0  0  0  0  0  0
  188.5940  177.7880  141.6630 C   0  0  0  0  0  3  0  0  0  0  0  0
  179.9590  178.3490  143.1160 O   0  0  0  0  0  0  0  0  0  0  0  0
  182.9270  179.1850  143.6470 N   0  0  0  0  0  0  0  0  0  0  0  0
  184.8880  178.1460  142.7290 C   0  0  0  0  0  0  0  0  0  0  0  0
  184.1510  177.8370  141.5750 C   0  0  0  0  0  3  0  0  0  0  0  0
  182.0230  177.9270  140.2600 C   0  0  0  0  0  0  0  0  0  0  0  0
  182.8100  178.2180  141.4660 C   0  0  0  0  0  0  0  0  0  0  0  0
  180.7120  178.4780  140.1370 N   0  0  0  0  0  2  0  0  0  0  0  0
  182.2120  178.9210  142.5210 C   0  0  0  0  0  0  0  0  0  0  0  0
  184.2300  178.8230  143.7680 C   0  0  0  0  0  3  0  0  0  0  0  0
  178.7570  179.2930  141.2710 C   0  0  0  0  0  2  0  0  0  0  0  0
  178.6800  178.4540  142.5360 C   0  0  0  0  0  2  0  0  0  0  0  0
  182.4640  177.1650  139.3610 O   0  0  0  0  0  0  0  0  0  0  0  0
  180.2200  179.5000  141.0590 C   0  0  1  0  0  3  0  0  0  0  0  0
  180.7570  179.3050  142.4710 C   0  0  1  0  0  3  0  0  0  0  0  0
  187.3890  173.4830  141.4330 O   0  0  0  0  0  0  0  0  0  0  0  0
  188.0000  173.9740  140.2620 C   0  0  0  0  0  2  0  0  0  0  0  0
  190.3070  173.3540  137.9190 C   0  0  0  0  0  0  0  0  0  0  0  0
  189.3780  171.9810  139.6720 C   0  0  0  0  0  2  0  0  0  0  0  0
  188.5660  173.5630  137.6020 S   0  0  0  0  0  0  0  0  0  0  0  0
  190.6670  172.5680  139.1260 C   0  0  0  0  0  2  0  0  0  0  0  0
  188.2120  172.8630  139.2460 C   0  0  2  0  0  3  0  0  0  0  0  0
  191.1950  174.1650  137.3510 C   0  0  0  0  0  2  0  0  0  0  0  0
  191.8140  174.4390  143.1810 C   0  0  0  0  0  2  0  0  0  0  0  0
  192.6320  175.6310  143.6460 C   0  0  2  0  0  3  0  0  0  0  0  0
  192.0450  176.2970  144.8160 N   0  0  0  0  0  2  0  0  0  0  0  0
  192.5540  175.7820  146.0980 C   0  0  2  0  0  3  0  0  0  0  0  0
  195.0100  175.2700  146.1040 C   0  0  0  0  0  3  0  0  0  0  0  0
  195.8450  173.0140  145.8240 C   0  0  0  0  0  0  0  0  0  0  0  0
  193.4600  173.4320  145.7610 C   0  0  0  0  0  3  0  0  0  0  0  0
  196.0860  174.3760  146.0360 C   0  0  0  0  0  3  0  0  0  0  0  0
  193.6910  174.8020  145.9640 C   0  0  0  0  0  0  0  0  0  0  0  0
  194.5360  172.5400  145.6840 C   0  0  0  0  0  3  0  0  0  0  0  0
  196.9850  172.0610  145.7690 C   0  0  0  0  0  1  0  0  0  0  0  0
  191.4390  175.3110  147.0330 C   0  0  2  0  0  3  0  0  0  0  0  0
  190.7140  174.3060  146.4220 F   0  0  0  0  0  0  0  0  0  0  0  0
  190.5890  176.3750  147.3410 O   0  0  0  0  0  0  0  0  0  0  0  0
  189.3190  175.9600  146.9250 C   0  0  0  0  0  2  0  0  0  0  0  0
  188.3570  177.0300  147.1390 N   0  0  0  0  0  2  0  0  0  0  0  0
  187.0430  176.4160  147.2510 C   0  0  0  0  0  2  0  0  0  0  0  0
  186.7260  178.6010  148.0150 C   0  0  0  0  0  1  0  0  0  0  0  0
  186.0360  177.4290  147.5080 N   0  0  0  0  0  2  0  0  0  0  0  0
  192.8880  176.5970  142.4810 C   0  0  0  0  0  2  0  0  0  0  0  0
  194.2470  176.4260  141.8070 C   0  0  0  0  0  2  0  0  0  0  0  0
  194.4010  175.0320  141.2230 C   0  0  0  0  0  2  0  0  0  0  0  0
  195.8220  174.5470  141.4670 C   0  0  2  0  0  3  0  0  0  0  0  0
  195.0610  172.4640  142.3220 O   0  0  0  0  0  1  0  0  0  0  0  0
  196.7590  172.3280  140.7840 O   0  0  0  0  0  0  0  0  0  0  0  0
  195.8410  173.0570  141.5330 C   0  0  0  0  0  0  0  0  0  0  0  0
  197.7970  175.2020  142.5390 C   0  0  0  0  0  1  0  0  0  0  0  0
  196.3540  175.1070  142.6970 N   0  0  0  0  0  2  0  0  0  0  0  0
  2 12  1  6  0  0  0
  2  6  1  0  0  0  0
  2  8  1  0  0  0  0
  3 29  1  6  0  0  0
  3  2  1  0  0  0  0
  4  5  1  0  0  0  0
  5  3  1  0  0  0  0
  5 10  2  0  0  0  0
  6 37  1  6  0  0  0
  9  7  1  6  0  0  0
  9 11  1  0  0  0  0
 11 10  1  0  0  0  0
 11  1  1  1  0  0  0
 12  8  1  0  0  0  0
 13  4  1  0  0  0  0
 13  6  1  0  0  0  0
 14  9  1  0  0  0  0
 14  4  2  0  0  0  0
 16 23  1  0  0  0  0
 17 11  1  0  0  0  0
 17 23  2  0  0  0  0
 18 17  1  0  0  0  0
 19 20  1  0  0  0  0
 20 18  2  0  0  0  0
 20 22  1  0  0  0  0
 21 19  1  0  0  0  0
 21 27  1  0  0  0  0
 22 16  2  0  0  0  0
 24 25  1  0  0  0  0
 25 15  1  0  0  0  0
 26 19  2  0  0  0  0
 27 24  1  1  0  0  0
 27 28  1  0  0  0  0
 28 22  1  6  0  0  0
 28 15  1  0  0  0  0
 30 29  1  0  0  0  0
 31 34  1  0  0  0  0
 33 31  1  0  0  0  0
 33 35  1  0  0  0  0
 34 32  1  0  0  0  0
 35 32  1  0  0  0  0
 35 30  1  1  0  0  0
 36 31  2  0  0  0  0
 37 38  1  0  0  0  0
 38 56  1  6  0  0  0
 38 39  1  0  0  0  0
 40 39  1  6  0  0  0
 40 48  1  0  0  0  0
 42 44  2  0  0  0  0
 43 45  1  0  0  0  0
 44 41  1  0  0  0  0
 45 40  1  0  0  0  0
 45 41  2  0  0  0  0
 46 43  2  0  0  0  0
 46 42  1  0  0  0  0
 47 42  1  0  0  0  0
 48 49  1  6  0  0  0
 48 50  1  0  0  0  0
 51 52  1  0  0  0  0
 51 50  1  0  0  0  0
 52 53  1  0  0  0  0
 53 55  1  0  0  0  0
 55 54  1  0  0  0  0
 57 56  1  0  0  0  0
 58 57  1  0  0  0  0
 59 58  1  1  0  0  0
 59 62  1  0  0  0  0
 59 64  1  0  0  0  0
 61 62  2  0  0  0  0
 62 60  1  0  0  0  0
 63 64  1  0  0  0  0
M  END
>  <MODEL>
7

>  <REMARK>
 VINA RESULT:      -6.2      1.856      5.097
  Name = 
  21 active torsions:
  status: ('A' for Active; 'I' for Inactive)
    1  A    between atoms: N_4  and  C_13
    2  A    between atoms: N_4  and  C_62
    3  A    between atoms: C_7  and  C_44
    4  A    between atoms: O_9  and  C_10
    5  A    between atoms: O_9  and  C_63
    6  A    between atoms: C_12  and  C_13
    7  A    between atoms: C_12  and  O_20
    8  A    between atoms: C_13  and  C_46
    9  A    between atoms: CA_19  and  C_37
   10  A    between atoms: CA_19  and  N_52
   11  A    between atoms: CA_19  and  C_58
   12  A    between atoms: O_20  and  C_57
   13  A    between atoms: C_21  and  C_51
   14  A    between atoms: C_35  and  C_49
   15  A    between atoms: C_35  and  C_58
   16  A    between atoms: C_43  and  N_48
   17  A    between atoms: C_43  and  N_59
   18  A    between atoms: C_49  and  C_62
   19  A    between atoms: C_51  and  C_62
   20  A    between atoms: C_55  and  C_63
   21  A    between atoms: C_57  and  N_59
                            x       y       z     vdW  Elec       q    Type
                         _______ _______ _______ _____ _____    ______ ____

>  <TORSDO>
F 21

$$$$
=
 OpenBabel11062418223D

 64 71  0  0  1  0  0  0  0  0999 V2000
  190.1310  172.7780  144.2480 C   0  0  0  0  0  1  0  0  0  0  0  0
  192.0380  170.7450  139.8370 C   0  0  1  0  0  0  0  0  0  0  0  0
  191.0340  171.9150  139.9400 C   0  0  1  0  0  3  0  0  0  0  0  0
  192.5020  172.7950  141.8780 C   0  0  0  0  0  0  0  0  0  0  0  0
  191.1640  172.6580  141.2510 C   0  0  0  0  0  0  0  0  0  0  0  0
  193.0890  170.5820  140.9430 C   0  0  2  0  0  3  0  0  0  0  0  0
  191.6290  175.8690  142.4680 C   0  0  0  0  0  1  0  0  0  0  0  0
  191.3470  169.5350  139.6410 O   0  0  0  0  0  0  0  0  0  0  0  0
  191.5760  174.5910  143.3000 C   0  0  1  0  0  3  0  0  0  0  0  0
  190.0880  173.1960  141.8350 C   0  0  0  0  0  3  0  0  0  0  0  0
  190.1990  173.8750  143.1870 C   0  0  1  0  0  0  0  0  0  0  0  0
  192.1290  169.9880  138.5660 C   0  0  0  0  0  2  0  0  0  0  0  0
  193.6310  171.9360  141.4000 C   0  0  0  0  0  2  0  0  0  0  0  0
  192.6980  173.6820  142.8570 C   0  0  0  0  0  3  0  0  0  0  0  0
  186.0900  178.8090  143.5120 O   0  0  0  0  0  0  0  0  0  0  0  0
  187.0350  175.9360  142.7080 N   0  0  0  0  0  0  0  0  0  0  0  0
  189.0480  174.8420  143.4290 C   0  0  0  0  0  0  0  0  0  0  0  0
  188.9560  175.5370  144.6460 C   0  0  0  0  0  3  0  0  0  0  0  0
  187.7650  177.1370  146.1570 C   0  0  0  0  0  0  0  0  0  0  0  0
  187.8950  176.4150  144.8840 C   0  0  0  0  0  0  0  0  0  0  0  0
  186.5810  177.8950  146.4070 N   0  0  0  0  0  2  0  0  0  0  0  0
  186.9170  176.5890  143.8950 C   0  0  0  0  0  0  0  0  0  0  0  0
  188.0580  175.0780  142.4620 C   0  0  0  0  0  3  0  0  0  0  0  0
  184.7430  179.1260  145.4680 C   0  0  0  0  0  2  0  0  0  0  0  0
  185.3190  179.7570  144.2110 C   0  0  0  0  0  2  0  0  0  0  0  0
  188.6940  177.1380  147.0050 O   0  0  0  0  0  0  0  0  0  0  0  0
  185.4070  177.7910  145.5430 C   0  0  1  0  0  3  0  0  0  0  0  0
  185.7870  177.5650  144.0850 C   0  0  1  0  0  3  0  0  0  0  0  0
  191.0350  172.7590  138.8040 O   0  0  0  0  0  0  0  0  0  0  0  0
  189.7590  172.7790  138.2060 C   0  0  0  0  0  2  0  0  0  0  0  0
  191.6060  174.5240  136.0290 C   0  0  0  0  0  0  0  0  0  0  0  0
  191.1670  172.1610  136.2420 C   0  0  0  0  0  2  0  0  0  0  0  0
  189.8240  174.5320  136.0890 S   0  0  0  0  0  0  0  0  0  0  0  0
  192.2650  173.2090  136.2270 C   0  0  0  0  0  2  0  0  0  0  0  0
  189.8650  172.8140  136.6890 C   0  0  2  0  0  3  0  0  0  0  0  0
  192.2880  175.6530  136.1920 C   0  0  0  0  0  2  0  0  0  0  0  0
  194.2050  169.5860  140.6570 C   0  0  0  0  0  2  0  0  0  0  0  0
  195.5180  170.2670  141.0050 C   0  0  2  0  0  3  0  0  0  0  0  0
  196.5050  170.1760  139.9230 N   0  0  0  0  0  2  0  0  0  0  0  0
  196.4040  171.2720  138.9450 C   0  0  2  0  0  3  0  0  0  0  0  0
  195.1760  173.4350  139.2730 C   0  0  0  0  0  3  0  0  0  0  0  0
  196.0020  175.1610  140.7580 C   0  0  0  0  0  0  0  0  0  0  0  0
  197.2700  173.1200  140.4610 C   0  0  0  0  0  3  0  0  0  0  0  0
  195.0260  174.6920  139.8710 C   0  0  0  0  0  3  0  0  0  0  0  0
  196.3010  172.6430  139.5630 C   0  0  0  0  0  0  0  0  0  0  0  0
  197.1250  174.3790  141.0520 C   0  0  0  0  0  3  0  0  0  0  0  0
  195.8350  176.4890  141.4060 C   0  0  0  0  0  1  0  0  0  0  0  0
  195.3620  171.0040  137.8580 C   0  0  2  0  0  3  0  0  0  0  0  0
  195.4930  169.7070  137.3990 F   0  0  0  0  0  0  0  0  0  0  0  0
  195.5390  171.8930  136.7950 O   0  0  0  0  0  0  0  0  0  0  0  0
  196.2290  171.1640  135.8210 C   0  0  0  0  0  2  0  0  0  0  0  0
  196.6210  172.0470  134.7320 N   0  0  0  0  0  2  0  0  0  0  0  0
  197.6400  172.9460  135.2490 C   0  0  0  0  0  2  0  0  0  0  0  0
  196.5060  174.8900  135.8770 C   0  0  0  0  0  1  0  0  0  0  0  0
  197.3520  174.3120  134.8500 N   0  0  0  0  0  2  0  0  0  0  0  0
  196.0570  169.7440  142.3450 C   0  0  0  0  0  2  0  0  0  0  0  0
  197.1570  170.6040  142.9610 C   0  0  0  0  0  2  0  0  0  0  0  0
  196.5720  171.7370  143.7860 C   0  0  0  0  0  2  0  0  0  0  0  0
  197.0720  171.6170  145.2180 C   0  0  2  0  0  3  0  0  0  0  0  0
  195.7000  169.8480  146.0180 O   0  0  0  0  0  1  0  0  0  0  0  0
  197.9410  169.3670  145.8930 O   0  0  0  0  0  0  0  0  0  0  0  0
  196.8600  170.2240  145.7090 C   0  0  0  0  0  0  0  0  0  0  0  0
  195.3140  173.1590  145.3060 C   0  0  0  0  0  1  0  0  0  0  0  0
  196.3890  172.5600  146.0840 N   0  0  0  0  0  2  0  0  0  0  0  0
  2 12  1  6  0  0  0
  2  3  1  0  0  0  0
  2  6  1  0  0  0  0
  3 29  1  6  0  0  0
  3  5  1  0  0  0  0
  4 14  2  0  0  0  0
  5 10  2  0  0  0  0
  5  4  1  0  0  0  0
  6 37  1  6  0  0  0
  6 13  1  0  0  0  0
  8  2  1  0  0  0  0
  9  7  1  6  0  0  0
 10 11  1  0  0  0  0
 11  9  1  0  0  0  0
 11 17  1  0  0  0  0
 11  1  1  1  0  0  0
 12  8  1  0  0  0  0
 13  4  1  0  0  0  0
 14  9  1  0  0  0  0
 15 25  1  0  0  0  0
 16 22  1  0  0  0  0
 17 18  2  0  0  0  0
 18 20  1  0  0  0  0
 19 21  1  0  0  0  0
 19 26  2  0  0  0  0
 20 19  1  0  0  0  0
 22 28  1  0  0  0  0
 22 20  2  0  0  0  0
 23 16  2  0  0  0  0
 23 17  1  0  0  0  0
 25 24  1  0  0  0  0
 27 24  1  6  0  0  0
 27 21  1  0  0  0  0
 28 15  1  1  0  0  0
 28 27  1  0  0  0  0
 30 29  1  0  0  0  0
 31 33  1  0  0  0  0
 31 36  2  0  0  0  0
 31 34  1  0  0  0  0
 32 35  1  0  0  0  0
 33 35  1  0  0  0  0
 34 32  1  0  0  0  0
 35 30  1  1  0  0  0
 38 37  1  6  0  0  0
 38 56  1  0  0  0  0
 39 38  1  0  0  0  0
 40 45  1  0  0  0  0
 40 39  1  1  0  0  0
 41 45  2  0  0  0  0
 41 44  1  0  0  0  0
 42 46  1  0  0  0  0
 42 47  1  0  0  0  0
 43 46  2  0  0  0  0
 44 42  2  0  0  0  0
 45 43  1  0  0  0  0
 48 49  1  6  0  0  0
 48 40  1  0  0  0  0
 50 48  1  0  0  0  0
 51 50  1  0  0  0  0
 52 53  1  0  0  0  0
 52 51  1  0  0  0  0
 55 53  1  0  0  0  0
 55 54  1  0  0  0  0
 56 57  1  0  0  0  0
 57 58  1  0  0  0  0
 59 58  1  6  0  0  0
 59 62  1  0  0  0  0
 59 64  1  0  0  0  0
 62 61  2  0  0  0  0
 62 60  1  0  0  0  0
 63 64  1  0  0  0  0
M  END
>  <MODEL>
8

>  <REMARK>
 VINA RESULT:      -6.1      3.374      6.047
  Name = 
  21 active torsions:
  status: ('A' for Active; 'I' for Inactive)
    1  A    between atoms: N_4  and  C_13
    2  A    between atoms: N_4  and  C_62
    3  A    between atoms: C_7  and  C_44
    4  A    between atoms: O_9  and  C_10
    5  A    between atoms: O_9  and  C_63
    6  A    between atoms: C_12  and  C_13
    7  A    between atoms: C_12  and  O_20
    8  A    between atoms: C_13  and  C_46
    9  A    between atoms: CA_19  and  C_37
   10  A    between atoms: CA_19  and  N_52
   11  A    between atoms: CA_19  and  C_58
   12  A    between atoms: O_20  and  C_57
   13  A    between atoms: C_21  and  C_51
   14  A    between atoms: C_35  and  C_49
   15  A    between atoms: C_35  and  C_58
   16  A    between atoms: C_43  and  N_48
   17  A    between atoms: C_43  and  N_59
   18  A    between atoms: C_49  and  C_62
   19  A    between atoms: C_51  and  C_62
   20  A    between atoms: C_55  and  C_63
   21  A    between atoms: C_57  and  N_59
                            x       y       z     vdW  Elec       q    Type
                         _______ _______ _______ _____ _____    ______ ____

>  <TORSDO>
F 21

$$$$
=
 OpenBabel11062418223D

 64 71  0  0  1  0  0  0  0  0999 V2000
  189.7990  172.5110  143.3260 C   0  0  0  0  0  1  0  0  0  0  0  0
  191.5810  171.6480  138.4980 C   0  0  1  0  0  0  0  0  0  0  0  0
  190.6120  172.7730  138.9220 C   0  0  1  0  0  3  0  0  0  0  0  0
  192.1330  173.0870  140.9890 C   0  0  0  0  0  0  0  0  0  0  0  0
  190.7820  173.1480  140.3770 C   0  0  0  0  0  0  0  0  0  0  0  0
  192.6440  171.1790  139.5000 C   0  0  2  0  0  3  0  0  0  0  0  0
  191.3540  175.9220  142.3720 C   0  0  0  0  0  1  0  0  0  0  0  0
  190.8540  170.5460  138.0110 O   0  0  0  0  0  0  0  0  0  0  0  0
  191.2790  174.4750  142.8470 C   0  0  1  0  0  3  0  0  0  0  0  0
  189.7300  173.5410  141.1040 C   0  0  0  0  0  3  0  0  0  0  0  0
  189.8810  173.8440  142.5830 C   0  0  1  0  0  0  0  0  0  0  0  0
  191.6320  171.2440  137.0720 C   0  0  0  0  0  2  0  0  0  0  0  0
  193.2300  172.3560  140.2800 C   0  0  0  0  0  2  0  0  0  0  0  0
  192.3680  173.6860  142.1590 C   0  0  0  0  0  3  0  0  0  0  0  0
  185.7780  178.5770  144.0330 O   0  0  0  0  0  0  0  0  0  0  0  0
  186.6450  175.8390  142.7900 N   0  0  0  0  0  0  0  0  0  0  0  0
  188.7610  174.7410  143.0920 C   0  0  0  0  0  0  0  0  0  0  0  0
  188.8350  175.2980  144.3790 C   0  0  0  0  0  3  0  0  0  0  0  0
  187.8480  176.6880  146.2110 C   0  0  0  0  0  0  0  0  0  0  0  0
  187.8050  176.1110  144.8610 C   0  0  0  0  0  0  0  0  0  0  0  0
  186.7000  177.3750  146.7100 N   0  0  0  0  0  2  0  0  0  0  0  0
  186.6900  176.3570  144.0470 C   0  0  0  0  0  0  0  0  0  0  0  0
  187.6370  175.0460  142.3070 C   0  0  0  0  0  3  0  0  0  0  0  0
  184.7250  178.6390  146.1840 C   0  0  0  0  0  2  0  0  0  0  0  0
  185.1010  179.4190  144.9360 C   0  0  0  0  0  2  0  0  0  0  0  0
  188.8900  176.6280  146.9130 O   0  0  0  0  0  0  0  0  0  0  0  0
  185.4150  177.3250  146.0150 C   0  0  1  0  0  3  0  0  0  0  0  0
  185.5830  177.2690  144.5030 C   0  0  1  0  0  3  0  0  0  0  0  0
  190.6180  173.8820  138.0430 O   0  0  0  0  0  0  0  0  0  0  0  0
  189.3710  174.5390  138.0710 C   0  0  0  0  0  2  0  0  0  0  0  0
  188.3950  176.1180  135.2870 C   0  0  0  0  0  0  0  0  0  0  0  0
  189.4060  173.9570  135.6460 C   0  0  0  0  0  2  0  0  0  0  0  0
  187.2920  175.4480  136.5170 S   0  0  0  0  0  0  0  0  0  0  0  0
  189.5790  175.2920  134.9450 C   0  0  0  0  0  2  0  0  0  0  0  0
  188.5210  174.1520  136.8710 C   0  0  2  0  0  3  0  0  0  0  0  0
  188.3700  177.4160  134.9990 C   0  0  0  0  0  2  0  0  0  0  0  0
  193.7280  170.2670  138.9430 C   0  0  0  0  0  2  0  0  0  0  0  0
  195.0460  170.6990  139.5620 C   0  0  2  0  0  3  0  0  0  0  0  0
  196.0870  170.9450  138.5570 N   0  0  0  0  0  2  0  0  0  0  0  0
  196.3790  172.3740  138.3540 C   0  0  2  0  0  3  0  0  0  0  0  0
  195.9950  174.2900  139.9270 C   0  0  0  0  0  3  0  0  0  0  0  0
  197.2210  174.5030  142.0050 C   0  0  0  0  0  0  0  0  0  0  0  0
  197.6830  172.6480  140.5180 C   0  0  0  0  0  3  0  0  0  0  0  0
  196.2480  174.9790  141.1200 C   0  0  0  0  0  3  0  0  0  0  0  0
  196.7140  173.1220  139.6190 C   0  0  0  0  0  0  0  0  0  0  0  0
  197.9410  173.3410  141.7060 C   0  0  0  0  0  3  0  0  0  0  0  0
  197.4780  175.2240  143.2800 C   0  0  0  0  0  1  0  0  0  0  0  0
  195.3370  173.0740  137.4800 C   0  0  2  0  0  3  0  0  0  0  0  0
  194.7120  172.1470  136.6690 F   0  0  0  0  0  0  0  0  0  0  0  0
  195.9520  174.0450  136.6860 O   0  0  0  0  0  0  0  0  0  0  0  0
  194.9540  174.4870  135.8110 C   0  0  0  0  0  2  0  0  0  0  0  0
  194.8060  175.9300  135.9210 N   0  0  0  0  0  2  0  0  0  0  0  0
  193.4540  176.1920  136.3900 C   0  0  0  0  0  2  0  0  0  0  0  0
  193.0640  178.0560  135.0360 C   0  0  0  0  0  1  0  0  0  0  0  0
  192.6350  176.6960  135.3020 N   0  0  0  0  0  2  0  0  0  0  0  0
  195.4870  169.7000  140.6410 C   0  0  0  0  0  2  0  0  0  0  0  0
  195.8520  170.3380  141.9790 C   0  0  0  0  0  2  0  0  0  0  0  0
  194.6880  170.2760  142.9530 C   0  0  0  0  0  2  0  0  0  0  0  0
  195.2330  170.1510  144.3690 C   0  0  2  0  0  3  0  0  0  0  0  0
  194.1480  171.6160  145.8940 O   0  0  0  0  0  1  0  0  0  0  0  0
  195.9540  172.5100  144.7950 O   0  0  0  0  0  0  0  0  0  0  0  0
  195.0930  171.4540  145.0790 C   0  0  0  0  0  0  0  0  0  0  0  0
  196.9250  169.1670  145.6540 C   0  0  0  0  0  1  0  0  0  0  0  0
  196.6260  169.7410  144.3500 N   0  0  0  0  0  2  0  0  0  0  0  0
  2 12  1  6  0  0  0
  2  3  1  0  0  0  0
  2  6  1  0  0  0  0
  3 29  1  6  0  0  0
  3  5  1  0  0  0  0
  4 14  2  0  0  0  0
  5  4  1  0  0  0  0
  5 10  2  0  0  0  0
  6 37  1  6  0  0  0
  6 13  1  0  0  0  0
  8  2  1  0  0  0  0
  9  7  1  6  0  0  0
 10 11  1  0  0  0  0
 11  9  1  0  0  0  0
 11 17  1  0  0  0  0
 11  1  1  1  0  0  0
 12  8  1  0  0  0  0
 13  4  1  0  0  0  0
 14  9  1  0  0  0  0
 15 25  1  0  0  0  0
 16 22  1  0  0  0  0
 17 18  2  0  0  0  0
 18 20  1  0  0  0  0
 19 21  1  0  0  0  0
 19 26  2  0  0  0  0
 20 19  1  0  0  0  0
 22 28  1  0  0  0  0
 22 20  2  0  0  0  0
 23 16  2  0  0  0  0
 23 17  1  0  0  0  0
 25 24  1  0  0  0  0
 27 24  1  6  0  0  0
 27 21  1  0  0  0  0
 28 15  1  1  0  0  0
 28 27  1  0  0  0  0
 29 30  1  0  0  0  0
 31 33  1  0  0  0  0
 32 35  1  0  0  0  0
 33 35  1  0  0  0  0
 34 31  1  0  0  0  0
 34 32  1  0  0  0  0
 35 30  1  1  0  0  0
 36 31  2  0  0  0  0
 38 37  1  6  0  0  0
 38 56  1  0  0  0  0
 39 38  1  0  0  0  0
 40 39  1  1  0  0  0
 40 45  1  0  0  0  0
 41 44  1  0  0  0  0
 42 47  1  0  0  0  0
 43 46  2  0  0  0  0
 44 42  2  0  0  0  0
 45 41  2  0  0  0  0
 45 43  1  0  0  0  0
 46 42  1  0  0  0  0
 48 49  1  6  0  0  0
 48 40  1  0  0  0  0
 50 48  1  0  0  0  0
 51 52  1  0  0  0  0
 51 50  1  0  0  0  0
 52 53  1  0  0  0  0
 54 55  1  0  0  0  0
 55 53  1  0  0  0  0
 56 57  1  0  0  0  0
 57 58  1  0  0  0  0
 59 58  1  6  0  0  0
 59 62  1  0  0  0  0
 61 62  2  0  0  0  0
 62 60  1  0  0  0  0
 64 59  1  0  0  0  0
 64 63  1  0  0  0  0
M  END
>  <MODEL>
9

>  <REMARK>
 VINA RESULT:      -6.1      3.446      6.045
  Name = 
  21 active torsions:
  status: ('A' for Active; 'I' for Inactive)
    1  A    between atoms: N_4  and  C_13
    2  A    between atoms: N_4  and  C_62
    3  A    between atoms: C_7  and  C_44
    4  A    between atoms: O_9  and  C_10
    5  A    between atoms: O_9  and  C_63
    6  A    between atoms: C_12  and  C_13
    7  A    between atoms: C_12  and  O_20
    8  A    between atoms: C_13  and  C_46
    9  A    between atoms: CA_19  and  C_37
   10  A    between atoms: CA_19  and  N_52
   11  A    between atoms: CA_19  and  C_58
   12  A    between atoms: O_20  and  C_57
   13  A    between atoms: C_21  and  C_51
   14  A    between atoms: C_35  and  C_49
   15  A    between atoms: C_35  and  C_58
   16  A    between atoms: C_43  and  N_48
   17  A    between atoms: C_43  and  N_59
   18  A    between atoms: C_49  and  C_62
   19  A    between atoms: C_51  and  C_62
   20  A    between atoms: C_55  and  C_63
   21  A    between atoms: C_57  and  N_59
                            x       y       z     vdW  Elec       q    Type
                         _______ _______ _______ _____ _____    ______ ____

>  <TORSDO>
F 21

$$$$
