=
 OpenBabel11062419513D

 30 33  0  0  1  0  0  0  0  0999 V2000
  189.6630  176.5940  147.2470 C   0  0  0  0  0  2  0  0  0  0  0  0
  192.2170  175.5630  144.5940 C   0  0  0  0  0  2  0  0  0  0  0  0
  189.0410  175.7240  146.1510 C   0  0  2  0  0  3  0  0  0  0  0  0
  191.8010  175.2610  147.1000 C   0  0  0  0  0  2  0  0  0  0  0  0
  192.7980  175.1380  145.9430 C   0  0  2  0  0  3  0  0  0  0  0  0
  189.8180  174.7570  144.3550 N   0  0  1  0  0  0  0  0  0  0  0  0
  191.1850  176.6560  147.1710 C   0  0  0  0  0  2  0  0  0  0  0  0
  189.6310  175.9860  144.9080 O   0  0  0  0  0  0  0  0  0  0  0  0
  189.5850  174.9080  142.9240 C   0  0  0  0  0  2  0  0  0  0  0  0
  191.0390  174.6900  142.5700 C   0  0  0  0  0  2  0  0  0  0  0  0
  191.2410  174.5120  144.0540 C   0  0  1  0  0  3  0  0  0  0  0  0
  194.6290  173.0750  145.4750 O   0  0  0  0  0  0  0  0  0  0  0  0
  195.5770  173.8300  145.8140 C   0  0  0  0  0  0  0  0  0  0  0  0
  195.3480  175.1970  146.1760 N   0  0  0  0  0  2  0  0  0  0  0  0
  194.0460  177.0790  146.5590 O   0  0  0  0  0  0  0  0  0  0  0  0
  194.0790  175.8620  146.2370 C   0  0  0  0  0  0  0  0  0  0  0  0
  196.9680  173.3030  145.8050 C   0  0  0  0  0  2  0  0  0  0  0  0
  196.9460  171.7880  145.8260 C   0  0  0  0  0  1  0  0  0  0  0  0
  187.5420  175.9690  146.0760 C   0  0  0  0  0  2  0  0  0  0  0  0
  186.1990  177.6100  142.1470 C   0  0  0  0  0  2  0  0  0  0  0  0
  184.3170  178.3530  143.6140 C   0  0  0  0  0  2  0  0  0  0  0  0
  185.1090  178.6580  142.3430 C   0  0  0  0  0  2  0  0  0  0  0  0
  187.2370  177.4540  145.9150 C   0  0  2  0  0  3  0  0  0  0  0  0
  185.2230  178.0790  144.7860 C   0  0  0  0  0  0  0  0  0  0  0  0
  186.3060  177.9140  146.9880 C   0  0  0  0  0  0  0  0  0  0  0  0
  184.6020  178.0550  146.4600 S   0  0  0  0  0  0  0  0  0  0  0  0
  186.4950  177.6850  144.6430 C   0  0  0  0  0  0  0  0  0  0  0  0
  187.1780  179.4560  148.8100 O   0  0  0  0  0  0  0  0  0  0  0  0
  187.1940  177.6710  143.3060 C   0  0  0  0  0  2  0  0  0  0  0  0
  186.7530  178.7050  147.9220 C   0  0  0  0  0  0  0  0  0  0  0  0
  2  5  1  0  0  0  0
  3 19  1  6  0  0  0
  3  1  1  0  0  0  0
  4  7  1  0  0  0  0
  5 16  1  1  0  0  0
  5  4  1  0  0  0  0
  6  9  1  6  0  0  0
  6  8  1  0  0  0  0
  7  1  1  0  0  0  0
  8  3  1  0  0  0  0
 10  9  1  0  0  0  0
 11 10  1  6  0  0  0
 11  6  1  0  0  0  0
 11  2  1  0  0  0  0
 12 13  2  0  0  0  0
 13 14  1  0  0  0  0
 14 16  1  0  0  0  0
 16 15  2  0  0  0  0
 17 13  1  0  0  0  0
 17 18  1  0  0  0  0
 20 22  1  0  0  0  0
 20 29  1  0  0  0  0
 21 24  1  0  0  0  0
 22 21  1  0  0  0  0
 23 19  1  1  0  0  0
 23 25  1  0  0  0  0
 24 26  1  0  0  0  0
 25 30  2  0  0  0  0
 26 25  1  0  0  0  0
 27 24  2  0  0  0  0
 27 23  1  0  0  0  0
 29 27  1  0  0  0  0
 30 28  2  0  0  0  0
M  END
>  <MODEL>
1

>  <REMARK>
 VINA RESULT:      -8.3      0.000      0.000
  Name = 
  4 active torsions:
  status: ('A' for Active; 'I' for Inactive)
    1  A    between atoms: C_5  and  C_6
    2  A    between atoms: C_5  and  C_13
    3  A    between atoms: C_10  and  C_27
    4  A    between atoms: C_11  and  C_14
                            x       y       z     vdW  Elec       q    Type
                         _______ _______ _______ _____ _____    ______ ____

>  <TORSDO>
F 4

$$$$
=
 OpenBabel11062419513D

 30 33  0  0  1  0  0  0  0  0999 V2000
  190.3600  175.8550  143.0920 C   0  0  0  0  0  2  0  0  0  0  0  0
  191.9810  174.4930  146.2760 C   0  0  0  0  0  2  0  0  0  0  0  0
  190.3460  176.8770  144.2320 C   0  0  2  0  0  3  0  0  0  0  0  0
  192.6160  175.0230  143.8560 C   0  0  0  0  0  2  0  0  0  0  0  0
  193.0070  174.3160  145.1570 C   0  0  2  0  0  3  0  0  0  0  0  0
  191.0680  176.8650  146.2920 N   0  0  1  0  0  0  0  0  0  0  0  0
  191.2150  174.6290  143.3960 C   0  0  0  0  0  2  0  0  0  0  0  0
  190.1780  176.2450  145.4700 O   0  0  0  0  0  0  0  0  0  0  0  0
  190.4350  176.9420  147.6030 C   0  0  0  0  0  2  0  0  0  0  0  0
  191.3870  175.9430  148.2230 C   0  0  0  0  0  2  0  0  0  0  0  0
  192.0350  175.9080  146.8610 C   0  0  1  0  0  3  0  0  0  0  0  0
  195.7270  174.3020  145.8150 O   0  0  0  0  0  0  0  0  0  0  0  0
  195.8000  173.0810  145.5160 C   0  0  0  0  0  0  0  0  0  0  0  0
  194.6430  172.3460  145.0950 N   0  0  0  0  0  2  0  0  0  0  0  0
  192.4010  172.0830  144.5650 O   0  0  0  0  0  0  0  0  0  0  0  0
  193.3180  172.8660  144.9270 C   0  0  0  0  0  0  0  0  0  0  0  0
  197.1050  172.3770  145.6360 C   0  0  0  0  0  2  0  0  0  0  0  0
  196.8740  170.9070  145.9210 C   0  0  0  0  0  1  0  0  0  0  0  0
  189.2330  177.8910  144.0120 C   0  0  0  0  0  2  0  0  0  0  0  0
  186.1190  177.2350  147.1430 C   0  0  0  0  0  2  0  0  0  0  0  0
  184.7940  178.5040  145.4450 C   0  0  0  0  0  2  0  0  0  0  0  0
  184.7240  177.4780  146.5760 C   0  0  0  0  0  2  0  0  0  0  0  0
  187.9200  177.1970  143.6710 C   0  0  2  0  0  3  0  0  0  0  0  0
  185.8860  178.1770  144.4600 C   0  0  0  0  0  0  0  0  0  0  0  0
  187.2920  177.8320  142.4730 C   0  0  0  0  0  0  0  0  0  0  0  0
  185.9700  178.9710  142.8630 S   0  0  0  0  0  0  0  0  0  0  0  0
  186.9350  177.4060  144.7710 C   0  0  0  0  0  0  0  0  0  0  0  0
  187.2230  176.5440  140.2830 O   0  0  0  0  0  0  0  0  0  0  0  0
  187.0200  176.6340  146.0640 C   0  0  0  0  0  2  0  0  0  0  0  0
  187.2570  177.1710  141.3490 C   0  0  0  0  0  0  0  0  0  0  0  0
  1  7  1  0  0  0  0
  1  3  1  0  0  0  0
  3 19  1  6  0  0  0
  3  8  1  0  0  0  0
  4  5  1  0  0  0  0
  5 16  1  6  0  0  0
  5  2  1  0  0  0  0
  6 11  1  0  0  0  0
  6  9  1  1  0  0  0
  7  4  1  0  0  0  0
  8  6  1  0  0  0  0
  9 10  1  0  0  0  0
 11  2  1  6  0  0  0
 11 10  1  0  0  0  0
 13 17  1  0  0  0  0
 13 12  2  0  0  0  0
 14 13  1  0  0  0  0
 15 16  2  0  0  0  0
 16 14  1  0  0  0  0
 17 18  1  0  0  0  0
 21 22  1  0  0  0  0
 22 20  1  0  0  0  0
 23 19  1  1  0  0  0
 23 27  1  0  0  0  0
 24 27  2  0  0  0  0
 24 21  1  0  0  0  0
 25 26  1  0  0  0  0
 25 23  1  0  0  0  0
 26 24  1  0  0  0  0
 27 29  1  0  0  0  0
 28 30  2  0  0  0  0
 29 20  1  0  0  0  0
 30 25  2  0  0  0  0
M  END
>  <MODEL>
2

>  <REMARK>
 VINA RESULT:      -8.2      1.962      3.818
  Name = 
  4 active torsions:
  status: ('A' for Active; 'I' for Inactive)
    1  A    between atoms: C_5  and  C_6
    2  A    between atoms: C_5  and  C_13
    3  A    between atoms: C_10  and  C_27
    4  A    between atoms: C_11  and  C_14
                            x       y       z     vdW  Elec       q    Type
                         _______ _______ _______ _____ _____    ______ ____

>  <TORSDO>
F 4

$$$$
=
 OpenBabel11062419513D

 30 33  0  0  1  0  0  0  0  0999 V2000
  190.5960  176.7050  142.8010 C   0  0  0  0  0  2  0  0  0  0  0  0
  192.4390  174.9230  145.6400 C   0  0  0  0  0  2  0  0  0  0  0  0
  190.2240  177.2660  144.1760 C   0  0  2  0  0  3  0  0  0  0  0  0
  192.9690  176.3470  143.5830 C   0  0  0  0  0  2  0  0  0  0  0  0
  193.5110  175.4060  144.6630 C   0  0  2  0  0  3  0  0  0  0  0  0
  190.8370  176.8090  146.2210 N   0  0  1  0  0  0  0  0  0  0  0  0
  191.7770  175.7400  142.8480 C   0  0  0  0  0  2  0  0  0  0  0  0
  190.2140  176.2560  145.1450 O   0  0  0  0  0  0  0  0  0  0  0  0
  190.1630  176.2860  147.4030 C   0  0  0  0  0  2  0  0  0  0  0  0
  191.3530  175.4540  147.8270 C   0  0  0  0  0  2  0  0  0  0  0  0
  192.0310  176.0360  146.6110 C   0  0  1  0  0  3  0  0  0  0  0  0
  195.9830  176.6350  144.2080 O   0  0  0  0  0  0  0  0  0  0  0  0
  196.4200  175.5780  143.6830 C   0  0  0  0  0  0  0  0  0  0  0  0
  195.6160  174.3940  143.6120 N   0  0  0  0  0  2  0  0  0  0  0  0
  193.6960  173.1350  143.9460 O   0  0  0  0  0  0  0  0  0  0  0  0
  194.2640  174.2530  144.0660 C   0  0  0  0  0  0  0  0  0  0  0  0
  197.8120  175.5450  143.1590 C   0  0  0  0  0  2  0  0  0  0  0  0
  197.7980  175.2170  141.6800 C   0  0  0  0  0  1  0  0  0  0  0  0
  188.8620  177.9400  144.1160 C   0  0  0  0  0  2  0  0  0  0  0  0
  185.8060  178.6780  147.2860 C   0  0  0  0  0  2  0  0  0  0  0  0
  184.3280  178.3900  145.2900 C   0  0  0  0  0  2  0  0  0  0  0  0
  184.4210  178.2530  146.8100 C   0  0  0  0  0  2  0  0  0  0  0  0
  187.7430  176.9360  144.3680 C   0  0  2  0  0  3  0  0  0  0  0  0
  185.5120  177.7650  144.5990 C   0  0  0  0  0  0  0  0  0  0  0  0
  187.0550  176.5910  143.0880 C   0  0  0  0  0  0  0  0  0  0  0  0
  185.5040  177.4460  142.8420 S   0  0  0  0  0  0  0  0  0  0  0  0
  186.6840  177.5590  145.2120 C   0  0  0  0  0  0  0  0  0  0  0  0
  187.3680  174.2690  142.1010 O   0  0  0  0  0  0  0  0  0  0  0  0
  186.8660  177.7460  146.6980 C   0  0  0  0  0  2  0  0  0  0  0  0
  187.2160  175.4000  142.5820 C   0  0  0  0  0  0  0  0  0  0  0  0
  1  7  1  0  0  0  0
  1  3  1  0  0  0  0
  3 19  1  6  0  0  0
  3  8  1  0  0  0  0
  4  5  1  0  0  0  0
  5 16  1  6  0  0  0
  5  2  1  0  0  0  0
  6 11  1  0  0  0  0
  6  9  1  1  0  0  0
  7  4  1  0  0  0  0
  8  6  1  0  0  0  0
  9 10  1  0  0  0  0
 11  2  1  6  0  0  0
 11 10  1  0  0  0  0
 13 12  2  0  0  0  0
 14 13  1  0  0  0  0
 14 16  1  0  0  0  0
 15 16  2  0  0  0  0
 17 13  1  0  0  0  0
 18 17  1  0  0  0  0
 21 22  1  0  0  0  0
 22 20  1  0  0  0  0
 23 19  1  6  0  0  0
 23 27  1  0  0  0  0
 24 27  2  0  0  0  0
 24 21  1  0  0  0  0
 25 23  1  0  0  0  0
 26 25  1  0  0  0  0
 26 24  1  0  0  0  0
 27 29  1  0  0  0  0
 28 30  2  0  0  0  0
 29 20  1  0  0  0  0
 30 25  2  0  0  0  0
M  END
>  <MODEL>
3

>  <REMARK>
 VINA RESULT:      -8.1      2.213      3.913
  Name = 
  4 active torsions:
  status: ('A' for Active; 'I' for Inactive)
    1  A    between atoms: C_5  and  C_6
    2  A    between atoms: C_5  and  C_13
    3  A    between atoms: C_10  and  C_27
    4  A    between atoms: C_11  and  C_14
                            x       y       z     vdW  Elec       q    Type
                         _______ _______ _______ _____ _____    ______ ____

>  <TORSDO>
F 4

$$$$
=
 OpenBabel11062419513D

 30 33  0  0  1  0  0  0  0  0999 V2000
  187.4540  175.5100  142.1960 C   0  0  0  0  0  2  0  0  0  0  0  0
  190.9130  173.9230  142.5810 C   0  0  0  0  0  2  0  0  0  0  0  0
  188.5510  176.5560  142.4120 C   0  0  2  0  0  3  0  0  0  0  0  0
  189.0510  174.1070  140.8360 C   0  0  0  0  0  2  0  0  0  0  0  0
  190.3360  173.3930  141.2680 C   0  0  2  0  0  3  0  0  0  0  0  0
  190.7140  176.4550  142.6920 N   0  0  1  0  0  0  0  0  0  0  0  0
  188.0040  174.1090  141.9460 C   0  0  0  0  0  2  0  0  0  0  0  0
  189.5440  176.0720  143.2720 O   0  0  0  0  0  0  0  0  0  0  0  0
  191.6260  176.7870  143.7800 C   0  0  0  0  0  2  0  0  0  0  0  0
  192.5170  175.5930  143.5200 C   0  0  0  0  0  2  0  0  0  0  0  0
  191.5700  175.2940  142.3850 C   0  0  1  0  0  3  0  0  0  0  0  0
  191.1290  172.7320  138.6670 O   0  0  0  0  0  0  0  0  0  0  0  0
  190.8610  171.5220  138.8850 C   0  0  0  0  0  0  0  0  0  0  0  0
  190.3980  171.0810  140.1680 N   0  0  0  0  0  2  0  0  0  0  0  0
  189.7610  171.3590  142.3810 O   0  0  0  0  0  0  0  0  0  0  0  0
  190.1530  171.9040  141.3150 C   0  0  0  0  0  0  0  0  0  0  0  0
  191.0610  170.5230  137.8010 C   0  0  0  0  0  2  0  0  0  0  0  0
  189.8420  169.6300  137.6910 C   0  0  0  0  0  1  0  0  0  0  0  0
  187.9520  177.8350  142.9790 C   0  0  0  0  0  2  0  0  0  0  0  0
  187.1630  177.1070  147.3130 C   0  0  0  0  0  2  0  0  0  0  0  0
  185.6740  179.0730  146.9050 C   0  0  0  0  0  2  0  0  0  0  0  0
  185.8930  177.8230  147.7580 C   0  0  0  0  0  2  0  0  0  0  0  0
  186.5340  177.5970  143.4830 C   0  0  2  0  0  3  0  0  0  0  0  0
  185.8150  178.7780  145.4350 C   0  0  0  0  0  0  0  0  0  0  0  0
  185.6180  178.6670  142.9860 C   0  0  0  0  0  0  0  0  0  0  0  0
  185.2610  179.9370  144.1940 S   0  0  0  0  0  0  0  0  0  0  0  0
  186.4950  177.7240  144.9680 C   0  0  0  0  0  0  0  0  0  0  0  0
  183.8720  178.0890  141.2330 O   0  0  0  0  0  0  0  0  0  0  0  0
  187.0110  176.6280  145.8680 C   0  0  0  0  0  2  0  0  0  0  0  0
  184.7220  178.3710  142.0870 C   0  0  0  0  0  0  0  0  0  0  0  0
  1  3  1  0  0  0  0
  3 19  1  1  0  0  0
  3  8  1  0  0  0  0
  4  5  1  0  0  0  0
  4  7  1  0  0  0  0
  5 16  1  1  0  0  0
  5  2  1  0  0  0  0
  6  8  1  0  0  0  0
  6  9  1  1  0  0  0
  7  1  1  0  0  0  0
 10  9  1  0  0  0  0
 11  2  1  1  0  0  0
 11  6  1  0  0  0  0
 11 10  1  0  0  0  0
 12 13  2  0  0  0  0
 13 14  1  0  0  0  0
 14 16  1  0  0  0  0
 16 15  2  0  0  0  0
 17 13  1  0  0  0  0
 18 17  1  0  0  0  0
 20 22  1  0  0  0  0
 21 22  1  0  0  0  0
 23 19  1  6  0  0  0
 23 27  1  0  0  0  0
 24 21  1  0  0  0  0
 25 23  1  0  0  0  0
 25 26  1  0  0  0  0
 26 24  1  0  0  0  0
 27 24  2  0  0  0  0
 27 29  1  0  0  0  0
 28 30  2  0  0  0  0
 29 20  1  0  0  0  0
 30 25  2  0  0  0  0
M  END
>  <MODEL>
4

>  <REMARK>
 VINA RESULT:      -8.0      3.371      5.778
  Name = 
  4 active torsions:
  status: ('A' for Active; 'I' for Inactive)
    1  A    between atoms: C_5  and  C_6
    2  A    between atoms: C_5  and  C_13
    3  A    between atoms: C_10  and  C_27
    4  A    between atoms: C_11  and  C_14
                            x       y       z     vdW  Elec       q    Type
                         _______ _______ _______ _____ _____    ______ ____

>  <TORSDO>
F 4

$$$$
=
 OpenBabel11062419513D

 30 33  0  0  1  0  0  0  0  0999 V2000
  192.5350  176.4010  146.8990 C   0  0  0  0  0  2  0  0  0  0  0  0
  189.3850  175.6110  144.8790 C   0  0  0  0  0  2  0  0  0  0  0  0
  192.7320  176.6420  145.4000 C   0  0  2  0  0  3  0  0  0  0  0  0
  190.1510  177.2100  146.7220 C   0  0  0  0  0  2  0  0  0  0  0  0
  188.9670  176.6020  145.9640 C   0  0  2  0  0  3  0  0  0  0  0  0
  191.4470  176.4440  143.6470 N   0  0  1  0  0  0  0  0  0  0  0  0
  191.0810  176.1350  147.2760 C   0  0  0  0  0  2  0  0  0  0  0  0
  192.0130  175.7100  144.6430 O   0  0  0  0  0  0  0  0  0  0  0  0
  191.4550  175.6020  142.4570 C   0  0  0  0  0  2  0  0  0  0  0  0
  189.9510  175.4370  142.4510 C   0  0  0  0  0  2  0  0  0  0  0  0
  189.9760  176.3340  143.6640 C   0  0  1  0  0  3  0  0  0  0  0  0
  186.7910  178.2990  145.4990 O   0  0  0  0  0  0  0  0  0  0  0  0
  186.1190  177.6880  146.3720 C   0  0  0  0  0  0  0  0  0  0  0  0
  186.6530  176.5520  147.0620 N   0  0  0  0  0  2  0  0  0  0  0  0
  188.2790  174.9770  147.5740 O   0  0  0  0  0  0  0  0  0  0  0  0
  187.9640  175.9940  146.9000 C   0  0  0  0  0  0  0  0  0  0  0  0
  184.7310  178.1320  146.6670 C   0  0  0  0  0  2  0  0  0  0  0  0
  184.0810  178.6660  145.4060 C   0  0  0  0  0  1  0  0  0  0  0  0
  194.2100  176.5670  145.0480 C   0  0  0  0  0  2  0  0  0  0  0  0
  196.4410  176.7830  141.1870 C   0  0  0  0  0  2  0  0  0  0  0  0
  197.8980  175.2020  142.4630 C   0  0  0  0  0  2  0  0  0  0  0  0
  197.4330  175.6300  141.0710 C   0  0  0  0  0  2  0  0  0  0  0  0
  194.5200  175.3020  144.2560 C   0  0  2  0  0  3  0  0  0  0  0  0
  196.7370  175.0160  143.4060 C   0  0  0  0  0  0  0  0  0  0  0  0
  195.1550  174.2780  145.1380 C   0  0  0  0  0  0  0  0  0  0  0  0
  196.9330  174.1750  144.9700 S   0  0  0  0  0  0  0  0  0  0  0  0
  195.5460  175.5950  143.2140 C   0  0  0  0  0  0  0  0  0  0  0  0
  193.8390  172.1950  145.7630 O   0  0  0  0  0  0  0  0  0  0  0  0
  195.1940  176.3210  141.9390 C   0  0  0  0  0  2  0  0  0  0  0  0
  194.4800  173.2090  145.4580 C   0  0  0  0  0  0  0  0  0  0  0  0
  1  7  1  0  0  0  0
  2  5  1  0  0  0  0
  3 19  1  1  0  0  0
  3  1  1  0  0  0  0
  4  7  1  0  0  0  0
  5  4  1  0  0  0  0
  5 16  1  1  0  0  0
  6  9  1  6  0  0  0
  6 11  1  0  0  0  0
  6  8  1  0  0  0  0
  8  3  1  0  0  0  0
 10  9  1  0  0  0  0
 11 10  1  6  0  0  0
 11  2  1  0  0  0  0
 12 13  2  0  0  0  0
 13 17  1  0  0  0  0
 13 14  1  0  0  0  0
 16 14  1  0  0  0  0
 16 15  2  0  0  0  0
 18 17  1  0  0  0  0
 20 29  1  0  0  0  0
 21 24  1  0  0  0  0
 22 20  1  0  0  0  0
 22 21  1  0  0  0  0
 23 19  1  1  0  0  0
 23 25  1  0  0  0  0
 24 26  1  0  0  0  0
 25 30  2  0  0  0  0
 26 25  1  0  0  0  0
 27 24  2  0  0  0  0
 27 23  1  0  0  0  0
 29 27  1  0  0  0  0
 30 28  2  0  0  0  0
M  END
>  <MODEL>
5

>  <REMARK>
 VINA RESULT:      -7.7      3.474      8.467
  Name = 
  4 active torsions:
  status: ('A' for Active; 'I' for Inactive)
    1  A    between atoms: C_5  and  C_6
    2  A    between atoms: C_5  and  C_13
    3  A    between atoms: C_10  and  C_27
    4  A    between atoms: C_11  and  C_14
                            x       y       z     vdW  Elec       q    Type
                         _______ _______ _______ _____ _____    ______ ____

>  <TORSDO>
F 4

$$$$
=
 OpenBabel11062419513D

 30 33  0  0  1  0  0  0  0  0999 V2000
  190.0840  178.2910  143.6130 C   0  0  0  0  0  2  0  0  0  0  0  0
  191.3910  174.8980  142.4240 C   0  0  0  0  0  2  0  0  0  0  0  0
  188.9650  177.3950  143.0750 C   0  0  2  0  0  3  0  0  0  0  0  0
  191.2470  176.2700  144.5790 C   0  0  0  0  0  2  0  0  0  0  0  0
  191.8760  175.0700  143.8640 C   0  0  2  0  0  3  0  0  0  0  0  0
  188.9000  175.3730  142.2540 N   0  0  1  0  0  0  0  0  0  0  0  0
  191.4120  177.5580  143.7770 C   0  0  0  0  0  2  0  0  0  0  0  0
  189.4210  176.6060  142.0120 O   0  0  0  0  0  0  0  0  0  0  0  0
  188.5660  174.8030  140.9550 C   0  0  0  0  0  2  0  0  0  0  0  0
  189.6580  173.7590  141.0300 C   0  0  0  0  0  2  0  0  0  0  0  0
  189.9580  174.3550  142.3830 C   0  0  1  0  0  3  0  0  0  0  0  0
  192.3640  172.5660  145.0130 O   0  0  0  0  0  0  0  0  0  0  0  0
  193.5990  172.8090  145.0360 C   0  0  0  0  0  0  0  0  0  0  0  0
  194.1280  174.0310  144.5040 N   0  0  0  0  0  2  0  0  0  0  0  0
  193.9920  176.1130  143.4920 O   0  0  0  0  0  0  0  0  0  0  0  0
  193.3750  175.1080  143.9330 C   0  0  0  0  0  0  0  0  0  0  0  0
  194.5320  171.7940  145.5940 C   0  0  0  0  0  2  0  0  0  0  0  0
  195.9440  172.3440  145.6080 C   0  0  0  0  0  1  0  0  0  0  0  0
  187.7860  178.2430  142.6250 C   0  0  0  0  0  2  0  0  0  0  0  0
  187.5290  176.9650  146.8950 C   0  0  0  0  0  2  0  0  0  0  0  0
  185.7030  178.6710  146.8220 C   0  0  0  0  0  2  0  0  0  0  0  0
  186.2030  177.4000  147.5100 C   0  0  0  0  0  2  0  0  0  0  0  0
  186.4790  177.7130  143.2010 C   0  0  2  0  0  3  0  0  0  0  0  0
  185.7560  178.5520  145.3210 C   0  0  0  0  0  0  0  0  0  0  0  0
  185.3570  178.6500  142.8970 C   0  0  0  0  0  0  0  0  0  0  0  0
  184.9050  179.7120  144.2630 S   0  0  0  0  0  0  0  0  0  0  0  0
  186.5560  177.6840  144.6900 C   0  0  0  0  0  0  0  0  0  0  0  0
  183.5770  177.9500  141.2220 O   0  0  0  0  0  0  0  0  0  0  0  0
  187.3270  176.6120  145.4210 C   0  0  0  0  0  2  0  0  0  0  0  0
  184.4440  178.2910  142.0380 C   0  0  0  0  0  0  0  0  0  0  0  0
  1  7  1  0  0  0  0
  2  5  1  0  0  0  0
  3 19  1  6  0  0  0
  3  1  1  0  0  0  0
  5 16  1  6  0  0  0
  5  4  1  0  0  0  0
  6  9  1  6  0  0  0
  6 11  1  0  0  0  0
  7  4  1  0  0  0  0
  8  6  1  0  0  0  0
  8  3  1  0  0  0  0
  9 10  1  0  0  0  0
 11 10  1  6  0  0  0
 11  2  1  0  0  0  0
 12 13  2  0  0  0  0
 13 17  1  0  0  0  0
 14 13  1  0  0  0  0
 15 16  2  0  0  0  0
 16 14  1  0  0  0  0
 17 18  1  0  0  0  0
 20 22  1  0  0  0  0
 21 22  1  0  0  0  0
 23 19  1  6  0  0  0
 23 27  1  0  0  0  0
 24 21  1  0  0  0  0
 25 23  1  0  0  0  0
 25 26  1  0  0  0  0
 26 24  1  0  0  0  0
 27 24  2  0  0  0  0
 27 29  1  0  0  0  0
 28 30  2  0  0  0  0
 29 20  1  0  0  0  0
 30 25  2  0  0  0  0
M  END
>  <MODEL>
6

>  <REMARK>
 VINA RESULT:      -7.6      2.272      3.505
  Name = 
  4 active torsions:
  status: ('A' for Active; 'I' for Inactive)
    1  A    between atoms: C_5  and  C_6
    2  A    between atoms: C_5  and  C_13
    3  A    between atoms: C_10  and  C_27
    4  A    between atoms: C_11  and  C_14
                            x       y       z     vdW  Elec       q    Type
                         _______ _______ _______ _____ _____    ______ ____

>  <TORSDO>
F 4

$$$$
=
 OpenBabel11062419513D

 30 33  0  0  1  0  0  0  0  0999 V2000
  191.0800  176.9250  146.0510 C   0  0  0  0  0  2  0  0  0  0  0  0
  193.0480  174.5640  143.7750 C   0  0  0  0  0  2  0  0  0  0  0  0
  190.2210  176.3650  144.9150 C   0  0  2  0  0  3  0  0  0  0  0  0
  192.3050  174.7250  146.2170 C   0  0  0  0  0  2  0  0  0  0  0  0
  193.2190  174.0370  145.2000 C   0  0  2  0  0  3  0  0  0  0  0  0
  190.5950  174.9880  143.2630 N   0  0  1  0  0  0  0  0  0  0  0  0
  192.4400  176.2440  146.1650 C   0  0  0  0  0  2  0  0  0  0  0  0
  190.9760  176.2000  143.7480 O   0  0  0  0  0  0  0  0  0  0  0  0
  190.6000  175.1030  141.8100 C   0  0  0  0  0  2  0  0  0  0  0  0
  191.7910  174.1850  141.6490 C   0  0  0  0  0  2  0  0  0  0  0  0
  191.7400  174.0660  143.1520 C   0  0  1  0  0  3  0  0  0  0  0  0
  193.8240  171.3050  145.1260 O   0  0  0  0  0  0  0  0  0  0  0  0
  194.9860  171.5440  145.5490 C   0  0  0  0  0  0  0  0  0  0  0  0
  195.4300  172.8850  145.7900 N   0  0  0  0  0  2  0  0  0  0  0  0
  195.2000  175.1920  145.8670 O   0  0  0  0  0  0  0  0  0  0  0  0
  194.6570  174.0810  145.6280 C   0  0  0  0  0  0  0  0  0  0  0  0
  195.9270  170.4140  145.7720 C   0  0  0  0  0  2  0  0  0  0  0  0
  197.3450  170.8590  145.4740 C   0  0  0  0  0  1  0  0  0  0  0  0
  189.0430  177.2900  144.6440 C   0  0  0  0  0  2  0  0  0  0  0  0
  185.7870  178.3240  147.5180 C   0  0  0  0  0  2  0  0  0  0  0  0
  184.5640  178.5450  145.3500 C   0  0  0  0  0  2  0  0  0  0  0  0
  184.4230  178.2420  146.8420 C   0  0  0  0  0  2  0  0  0  0  0  0
  187.7300  176.5180  144.6430 C   0  0  2  0  0  3  0  0  0  0  0  0
  185.6880  177.7610  144.7240 C   0  0  0  0  0  0  0  0  0  0  0  0
  187.1670  176.4490  143.2620 C   0  0  0  0  0  0  0  0  0  0  0  0
  185.8560  177.6260  142.9510 S   0  0  0  0  0  0  0  0  0  0  0  0
  186.7050  177.2590  145.4340 C   0  0  0  0  0  0  0  0  0  0  0  0
  187.1590  174.2220  142.0360 O   0  0  0  0  0  0  0  0  0  0  0  0
  186.7180  177.2570  146.9420 C   0  0  0  0  0  2  0  0  0  0  0  0
  187.1630  175.3070  142.6330 C   0  0  0  0  0  0  0  0  0  0  0  0
  1  7  1  0  0  0  0
  2  5  1  0  0  0  0
  3 19  1  6  0  0  0
  3  1  1  0  0  0  0
  5 16  1  1  0  0  0
  5  4  1  0  0  0  0
  6  9  1  6  0  0  0
  6  8  1  0  0  0  0
  7  4  1  0  0  0  0
  8  3  1  0  0  0  0
 10  9  1  0  0  0  0
 11 10  1  6  0  0  0
 11  6  1  0  0  0  0
 11  2  1  0  0  0  0
 12 13  2  0  0  0  0
 13 17  1  0  0  0  0
 13 14  1  0  0  0  0
 16 14  1  0  0  0  0
 16 15  2  0  0  0  0
 18 17  1  0  0  0  0
 21 22  1  0  0  0  0
 22 20  1  0  0  0  0
 23 19  1  6  0  0  0
 23 27  1  0  0  0  0
 24 21  1  0  0  0  0
 24 27  2  0  0  0  0
 25 23  1  0  0  0  0
 26 25  1  0  0  0  0
 26 24  1  0  0  0  0
 27 29  1  0  0  0  0
 28 30  2  0  0  0  0
 29 20  1  0  0  0  0
 30 25  2  0  0  0  0
M  END
>  <MODEL>
7

>  <REMARK>
 VINA RESULT:      -7.5      2.106      3.062
  Name = 
  4 active torsions:
  status: ('A' for Active; 'I' for Inactive)
    1  A    between atoms: C_5  and  C_6
    2  A    between atoms: C_5  and  C_13
    3  A    between atoms: C_10  and  C_27
    4  A    between atoms: C_11  and  C_14
                            x       y       z     vdW  Elec       q    Type
                         _______ _______ _______ _____ _____    ______ ____

>  <TORSDO>
F 4

$$$$
=
 OpenBabel11062419513D

 30 33  0  0  1  0  0  0  0  0999 V2000
  190.5230  177.6770  143.6710 C   0  0  0  0  0  2  0  0  0  0  0  0
  192.0420  174.3410  142.5820 C   0  0  0  0  0  2  0  0  0  0  0  0
  189.5410  176.5130  143.8310 C   0  0  2  0  0  3  0  0  0  0  0  0
  192.4320  176.1650  144.3320 C   0  0  0  0  0  2  0  0  0  0  0  0
  193.0010  174.9380  143.6120 C   0  0  2  0  0  3  0  0  0  0  0  0
  189.6550  174.3660  143.4540 N   0  0  1  0  0  0  0  0  0  0  0  0
  191.9420  177.2230  143.3470 C   0  0  0  0  0  2  0  0  0  0  0  0
  189.7160  175.5660  142.8150 O   0  0  0  0  0  0  0  0  0  0  0  0
  188.9860  173.4460  142.5430 C   0  0  0  0  0  2  0  0  0  0  0  0
  190.2390  172.6360  142.2930 C   0  0  0  0  0  2  0  0  0  0  0  0
  190.8940  173.5890  143.2620 C   0  0  1  0  0  3  0  0  0  0  0  0
  194.6530  173.7690  145.5440 O   0  0  0  0  0  0  0  0  0  0  0  0
  195.6740  174.1490  144.9120 C   0  0  0  0  0  0  0  0  0  0  0  0
  195.5600  174.8460  143.6650 N   0  0  0  0  0  2  0  0  0  0  0  0
  194.4120  175.8220  141.9000 O   0  0  0  0  0  0  0  0  0  0  0  0
  194.3430  175.2240  143.0070 C   0  0  0  0  0  0  0  0  0  0  0  0
  197.0240  173.8380  145.4510 C   0  0  0  0  0  2  0  0  0  0  0  0
  197.1260  172.3580  145.7630 C   0  0  0  0  0  1  0  0  0  0  0  0
  188.1100  177.0300  143.8180 C   0  0  0  0  0  2  0  0  0  0  0  0
  184.1770  179.0860  144.3020 C   0  0  0  0  0  2  0  0  0  0  0  0
  184.2770  177.7920  146.4390 C   0  0  0  0  0  2  0  0  0  0  0  0
  183.7190  179.0410  145.7560 C   0  0  0  0  0  2  0  0  0  0  0  0
  187.8330  177.9040  145.0350 C   0  0  2  0  0  3  0  0  0  0  0  0
  185.7520  177.6240  146.1790 C   0  0  0  0  0  0  0  0  0  0  0  0
  188.1650  177.1690  146.2920 C   0  0  0  0  0  0  0  0  0  0  0  0
  186.7420  176.4830  147.1300 S   0  0  0  0  0  0  0  0  0  0  0  0
  186.3720  178.1870  145.1350 C   0  0  0  0  0  0  0  0  0  0  0  0
  190.1850  177.8930  147.6540 O   0  0  0  0  0  0  0  0  0  0  0  0
  185.7000  179.1990  144.2400 C   0  0  0  0  0  2  0  0  0  0  0  0
  189.2010  177.5410  146.9910 C   0  0  0  0  0  0  0  0  0  0  0  0
  1  3  1  0  0  0  0
  2 11  1  0  0  0  0
  2  5  1  0  0  0  0
  3 19  1  6  0  0  0
  5 16  1  6  0  0  0
  5  4  1  0  0  0  0
  6  9  1  6  0  0  0
  7  1  1  0  0  0  0
  7  4  1  0  0  0  0
  8  6  1  0  0  0  0
  8  3  1  0  0  0  0
 10  9  1  0  0  0  0
 11 10  1  6  0  0  0
 11  6  1  0  0  0  0
 13 17  1  0  0  0  0
 13 12  2  0  0  0  0
 14 13  1  0  0  0  0
 15 16  2  0  0  0  0
 16 14  1  0  0  0  0
 17 18  1  0  0  0  0
 20 22  1  0  0  0  0
 22 21  1  0  0  0  0
 23 19  1  6  0  0  0
 23 27  1  0  0  0  0
 23 25  1  0  0  0  0
 24 21  1  0  0  0  0
 24 26  1  0  0  0  0
 25 30  2  0  0  0  0
 25 26  1  0  0  0  0
 27 24  2  0  0  0  0
 29 20  1  0  0  0  0
 29 27  1  0  0  0  0
 30 28  2  0  0  0  0
M  END
>  <MODEL>
8

>  <REMARK>
 VINA RESULT:      -7.5      1.887      2.559
  Name = 
  4 active torsions:
  status: ('A' for Active; 'I' for Inactive)
    1  A    between atoms: C_5  and  C_6
    2  A    between atoms: C_5  and  C_13
    3  A    between atoms: C_10  and  C_27
    4  A    between atoms: C_11  and  C_14
                            x       y       z     vdW  Elec       q    Type
                         _______ _______ _______ _____ _____    ______ ____

>  <TORSDO>
F 4

$$$$
=
 OpenBabel11062419513D

 30 33  0  0  1  0  0  0  0  0999 V2000
  191.8390  175.5360  145.5300 C   0  0  0  0  0  2  0  0  0  0  0  0
  188.4370  175.5420  143.7830 C   0  0  0  0  0  2  0  0  0  0  0  0
  191.9630  175.3280  144.0190 C   0  0  2  0  0  3  0  0  0  0  0  0
  189.9080  177.1180  145.1600 C   0  0  0  0  0  2  0  0  0  0  0  0
  188.5160  176.8430  144.5840 C   0  0  2  0  0  3  0  0  0  0  0  0
  190.5290  175.2250  142.3760 N   0  0  1  0  0  0  0  0  0  0  0  0
  190.4330  175.9330  145.9660 C   0  0  0  0  0  2  0  0  0  0  0  0
  190.8840  174.5860  143.5240 O   0  0  0  0  0  0  0  0  0  0  0  0
  190.1140  174.1900  141.4380 C   0  0  0  0  0  2  0  0  0  0  0  0
  188.6610  174.6070  141.4770 C   0  0  0  0  0  2  0  0  0  0  0  0
  189.1290  175.6850  142.4240 C   0  0  1  0  0  3  0  0  0  0  0  0
  186.7990  178.7400  143.4530 O   0  0  0  0  0  0  0  0  0  0  0  0
  186.0550  178.6820  144.4680 C   0  0  0  0  0  0  0  0  0  0  0  0
  186.3370  177.7830  145.5470 N   0  0  0  0  0  2  0  0  0  0  0  0
  187.5550  176.1510  146.6580 O   0  0  0  0  0  0  0  0  0  0  0  0
  187.4570  176.8940  145.6460 C   0  0  0  0  0  0  0  0  0  0  0  0
  184.8410  179.5390  144.5320 C   0  0  0  0  0  2  0  0  0  0  0  0
  183.8330  178.9340  145.4890 C   0  0  0  0  0  1  0  0  0  0  0  0
  193.2710  174.6210  143.6930 C   0  0  0  0  0  2  0  0  0  0  0  0
  195.5400  171.1420  145.3300 C   0  0  0  0  0  2  0  0  0  0  0  0
  197.4270  172.6310  144.6440 C   0  0  0  0  0  2  0  0  0  0  0  0
  196.9910  171.5250  145.6040 C   0  0  0  0  0  2  0  0  0  0  0  0
  194.2890  174.8120  144.8100 C   0  0  2  0  0  3  0  0  0  0  0  0
  196.4220  173.7520  144.5890 C   0  0  0  0  0  0  0  0  0  0  0  0
  195.2440  175.9070  144.4630 C   0  0  0  0  0  0  0  0  0  0  0  0
  196.8220  175.3290  143.8520 S   0  0  0  0  0  0  0  0  0  0  0  0
  195.1390  173.5930  144.9360 C   0  0  0  0  0  0  0  0  0  0  0  0
  195.1300  178.1010  145.7410 O   0  0  0  0  0  0  0  0  0  0  0  0
  194.6280  172.3390  145.6010 C   0  0  0  0  0  2  0  0  0  0  0  0
  195.1860  177.0320  145.1190 C   0  0  0  0  0  0  0  0  0  0  0  0
  1  7  1  0  0  0  0
  2  5  1  0  0  0  0
  3 19  1  1  0  0  0
  3  1  1  0  0  0  0
  4  7  1  0  0  0  0
  5  4  1  0  0  0  0
  5 16  1  1  0  0  0
  6  9  1  6  0  0  0
  6 11  1  0  0  0  0
  6  8  1  0  0  0  0
  8  3  1  0  0  0  0
  9 10  1  0  0  0  0
 11 10  1  6  0  0  0
 11  2  1  0  0  0  0
 12 13  2  0  0  0  0
 13 17  1  0  0  0  0
 13 14  1  0  0  0  0
 14 16  1  0  0  0  0
 16 15  2  0  0  0  0
 17 18  1  0  0  0  0
 20 29  1  0  0  0  0
 20 22  1  0  0  0  0
 21 22  1  0  0  0  0
 23 19  1  6  0  0  0
 23 27  1  0  0  0  0
 24 21  1  0  0  0  0
 24 27  2  0  0  0  0
 25 23  1  0  0  0  0
 25 30  2  0  0  0  0
 26 25  1  0  0  0  0
 26 24  1  0  0  0  0
 27 29  1  0  0  0  0
 30 28  2  0  0  0  0
M  END
>  <MODEL>
9

>  <REMARK>
 VINA RESULT:      -7.4      3.202      8.724
  Name = 
  4 active torsions:
  status: ('A' for Active; 'I' for Inactive)
    1  A    between atoms: C_5  and  C_6
    2  A    between atoms: C_5  and  C_13
    3  A    between atoms: C_10  and  C_27
    4  A    between atoms: C_11  and  C_14
                            x       y       z     vdW  Elec       q    Type
                         _______ _______ _______ _____ _____    ______ ____

>  <TORSDO>
F 4

$$$$
