=
 OpenBabel11062421283D

 31 36  0  0  1  0  0  0  0  0999 V2000
  189.3330  177.7800  142.5080 C   0  0  0  0  0  2  0  0  0  0  0  0
  190.2770  175.9220  147.2300 C   0  0  0  0  0  2  0  0  0  0  0  0
  191.5200  175.3140  145.0860 C   0  0  0  0  0  0  0  0  0  0  0  0
  188.0430  175.1840  147.6280 O   0  0  0  0  0  0  0  0  0  0  0  0
  186.0580  176.0520  143.7610 O   0  0  0  0  0  1  0  0  0  0  0  0
  190.5030  173.4190  143.7470 C   0  0  0  0  0  0  0  0  0  0  0  0
  189.0390  177.3150  144.9350 C   0  0  0  0  0  0  0  0  0  0  0  0
  189.7690  172.0340  141.4630 N   0  0  0  0  0  0  0  0  0  0  0  0
  186.5440  178.7080  144.6890 O   0  0  0  0  0  1  0  0  0  0  0  0
  186.7300  176.5830  141.5150 C   0  0  1  0  0  3  0  0  0  0  0  0
  186.2560  177.1070  142.8700 C   0  0  2  0  0  0  0  0  0  0  0  0
  190.0950  171.3430  142.5870 C   0  0  0  0  0  3  0  0  0  0  0  0
  188.1010  174.8760  140.4820 C   0  0  0  0  0  3  0  0  0  0  0  0
  190.1540  174.1210  142.5750 C   0  0  0  0  0  0  0  0  0  0  0  0
  188.5200  177.8720  143.7080 N   0  0  0  0  0  0  0  0  0  0  0  0
  191.1310  176.4020  146.0470 C   0  0  1  0  0  3  0  0  0  0  0  0
  189.3430  174.0970  140.1930 C   0  0  0  0  0  2  0  0  0  0  0  0
  188.8160  175.8440  146.8890 C   0  0  0  0  0  0  0  0  0  0  0  0
  187.1150  178.2290  143.5050 C   0  0  2  0  0  3  0  0  0  0  0  0
  186.3430  177.6090  140.4810 C   0  0  0  0  0  2  0  0  0  0  0  0
  188.2740  176.5350  145.7090 C   0  0  0  0  0  3  0  0  0  0  0  0
  188.0640  175.9020  141.3380 C   0  0  0  0  0  0  0  0  0  0  0  0
  190.4530  172.0240  143.7500 C   0  0  0  0  0  3  0  0  0  0  0  0
  190.7620  174.1020  144.9820 N   0  0  0  0  0  2  0  0  0  0  0  0
  190.4760  177.5830  145.3180 C   0  0  0  0  0  2  0  0  0  0  0  0
  184.9230  177.7220  142.4840 C   0  0  0  0  0  2  0  0  0  0  0  0
  189.7800  173.3930  141.4300 C   0  0  0  0  0  0  0  0  0  0  0  0
  190.1320  175.5560  142.6020 N   0  0  0  0  0  0  0  0  0  0  0  0
  192.5050  175.5010  144.3230 O   0  0  0  0  0  0  0  0  0  0  0  0
  189.2800  176.3700  142.0480 C   0  0  0  0  0  0  0  0  0  0  0  0
  185.0910  178.2560  141.0590 C   0  0  0  0  0  2  0  0  0  0  0  0
  1 15  1  0  0  0  0
  3 16  1  0  0  0  0
  6 23  1  0  0  0  0
  6 24  1  0  0  0  0
  7 25  1  0  0  0  0
  7 21  2  0  0  0  0
  8 12  1  0  0  0  0
 10 20  1  6  0  0  0
 10 11  1  0  0  0  0
 11 19  1  0  0  0  0
 11  5  1  1  0  0  0
 12 23  2  0  0  0  0
 13 22  2  0  0  0  0
 14 28  1  0  0  0  0
 14  6  2  0  0  0  0
 15  7  1  0  0  0  0
 16 25  1  6  0  0  0
 16  2  1  0  0  0  0
 17 13  1  0  0  0  0
 17 27  1  0  0  0  0
 18  2  1  0  0  0  0
 18  4  2  0  0  0  0
 19 15  1  0  0  0  0
 19  9  1  1  0  0  0
 20 31  1  0  0  0  0
 21 18  1  0  0  0  0
 22 10  1  0  0  0  0
 22 30  1  0  0  0  0
 24  3  1  0  0  0  0
 26 11  1  0  0  0  0
 27  8  2  0  0  0  0
 27 14  1  0  0  0  0
 29  3  2  0  0  0  0
 30  1  1  0  0  0  0
 30 28  2  0  0  0  0
 31 26  1  0  0  0  0
M  END
>  <MODEL>
1

>  <REMARK>
 VINA RESULT:      -9.0      0.000      0.000
  Name = 
  0 active torsions:
  status: ('A' for Active; 'I' for Inactive)
                            x       y       z     vdW  Elec       q    Type
                         _______ _______ _______ _____ _____    ______ ____

>  <TORSDO>
F 0

$$$$
=
 OpenBabel11062421283D

 31 36  0  0  1  0  0  0  0  0999 V2000
  188.7230  178.3210  144.0780 C   0  0  0  0  0  2  0  0  0  0  0  0
  190.6860  174.9160  147.4230 C   0  0  0  0  0  2  0  0  0  0  0  0
  191.2720  175.1190  144.9470 C   0  0  0  0  0  0  0  0  0  0  0  0
  188.5740  174.0660  148.1380 O   0  0  0  0  0  0  0  0  0  0  0  0
  185.7420  176.2340  145.5070 O   0  0  0  0  0  1  0  0  0  0  0  0
  189.7770  173.8150  143.3720 C   0  0  0  0  0  0  0  0  0  0  0  0
  189.0270  177.0230  146.1790 C   0  0  0  0  0  0  0  0  0  0  0  0
  188.3560  173.3260  141.0450 N   0  0  0  0  0  0  0  0  0  0  0  0
  186.6880  178.3920  147.1190 O   0  0  0  0  0  1  0  0  0  0  0  0
  185.8550  177.5340  143.4880 C   0  0  1  0  0  3  0  0  0  0  0  0
  185.7970  177.5390  145.0140 C   0  0  2  0  0  0  0  0  0  0  0  0
  188.8990  172.2830  141.7270 C   0  0  0  0  0  3  0  0  0  0  0  0
  186.7530  176.3160  141.5980 C   0  0  0  0  0  3  0  0  0  0  0  0
  189.2010  174.8850  142.6560 C   0  0  0  0  0  0  0  0  0  0  0  0
  188.2600  177.9750  145.4110 N   0  0  0  0  0  0  0  0  0  0  0  0
  191.2450  175.7920  146.2920 C   0  0  1  0  0  3  0  0  0  0  0  0
  187.8030  175.7010  140.7300 C   0  0  0  0  0  2  0  0  0  0  0  0
  189.1860  174.9520  147.4890 C   0  0  0  0  0  0  0  0  0  0  0  0
  186.8880  178.3700  145.7350 C   0  0  2  0  0  3  0  0  0  0  0  0
  185.3080  178.8570  143.0170 C   0  0  0  0  0  2  0  0  0  0  0  0
  188.4220  176.0130  146.8150 C   0  0  0  0  0  3  0  0  0  0  0  0
  187.0310  176.9720  142.7300 C   0  0  0  0  0  0  0  0  0  0  0  0
  189.6050  172.5090  142.9090 C   0  0  0  0  0  3  0  0  0  0  0  0
  190.4080  174.0170  144.6450 N   0  0  0  0  0  2  0  0  0  0  0  0
  190.5320  177.1500  146.2220 C   0  0  0  0  0  2  0  0  0  0  0  0
  184.4700  178.2400  145.2440 C   0  0  0  0  0  2  0  0  0  0  0  0
  188.4810  174.6080  141.4800 C   0  0  0  0  0  0  0  0  0  0  0  0
  189.3160  176.2160  143.1790 N   0  0  0  0  0  0  0  0  0  0  0  0
  192.0390  175.5740  144.0570 O   0  0  0  0  0  0  0  0  0  0  0  0
  188.4270  177.1660  143.1950 C   0  0  0  0  0  0  0  0  0  0  0  0
  184.3110  179.2460  144.1010 C   0  0  0  0  0  2  0  0  0  0  0  0
  1 15  1  0  0  0  0
  2 18  1  0  0  0  0
  3 16  1  0  0  0  0
  6 24  1  0  0  0  0
  7 25  1  0  0  0  0
  7 21  2  0  0  0  0
  8 27  2  0  0  0  0
  8 12  1  0  0  0  0
 10 20  1  1  0  0  0
 10 11  1  0  0  0  0
 11 26  1  0  0  0  0
 11  5  1  1  0  0  0
 11 19  1  0  0  0  0
 12 23  2  0  0  0  0
 13 22  2  0  0  0  0
 14 28  1  0  0  0  0
 14  6  2  0  0  0  0
 15 19  1  0  0  0  0
 15  7  1  0  0  0  0
 16 25  1  6  0  0  0
 16  2  1  0  0  0  0
 17 27  1  0  0  0  0
 17 13  1  0  0  0  0
 18  4  2  0  0  0  0
 19  9  1  1  0  0  0
 20 31  1  0  0  0  0
 21 18  1  0  0  0  0
 22 30  1  0  0  0  0
 22 10  1  0  0  0  0
 23  6  1  0  0  0  0
 24  3  1  0  0  0  0
 27 14  1  0  0  0  0
 28 30  2  0  0  0  0
 29  3  2  0  0  0  0
 30  1  1  0  0  0  0
 31 26  1  0  0  0  0
M  END
>  <MODEL>
2

>  <REMARK>
 VINA RESULT:      -8.3      1.419      1.806
  Name = 
  0 active torsions:
  status: ('A' for Active; 'I' for Inactive)
                            x       y       z     vdW  Elec       q    Type
                         _______ _______ _______ _____ _____    ______ ____

>  <TORSDO>
F 0

$$$$
=
 OpenBabel11062421283D

 31 36  0  0  1  0  0  0  0  0999 V2000
  186.0190  175.6390  143.5900 C   0  0  0  0  0  2  0  0  0  0  0  0
  191.0280  176.2190  144.6870 C   0  0  0  0  0  2  0  0  0  0  0  0
  189.1460  175.8260  146.3640 C   0  0  0  0  0  0  0  0  0  0  0  0
  191.2660  178.3010  143.5430 O   0  0  0  0  0  0  0  0  0  0  0  0
  187.1140  179.1400  142.2370 O   0  0  0  0  0  1  0  0  0  0  0  0
  187.9730  177.9170  147.1820 C   0  0  0  0  0  0  0  0  0  0  0  0
  188.4370  176.1310  143.2670 C   0  0  0  0  0  0  0  0  0  0  0  0
  185.8330  179.4640  148.0200 N   0  0  0  0  0  0  0  0  0  0  0  0
  187.7160  176.8840  140.5950 O   0  0  0  0  0  1  0  0  0  0  0  0
  184.9090  178.3330  142.7480 C   0  0  1  0  0  3  0  0  0  0  0  0
  186.1150  178.2640  141.8130 C   0  0  2  0  0  0  0  0  0  0  0  0
  187.0710  179.7090  148.5240 C   0  0  0  0  0  3  0  0  0  0  0  0
  184.2850  178.6150  145.0700 C   0  0  0  0  0  3  0  0  0  0  0  0
  186.6830  177.6810  146.6640 C   0  0  0  0  0  0  0  0  0  0  0  0
  187.0940  176.1190  142.7380 N   0  0  0  0  0  0  0  0  0  0  0  0
  189.8970  175.3020  145.1720 C   0  0  1  0  0  3  0  0  0  0  0  0
  184.2500  178.3100  146.5330 C   0  0  0  0  0  2  0  0  0  0  0  0
  190.5360  177.3020  143.7690 C   0  0  0  0  0  0  0  0  0  0  0  0
  186.6830  176.8490  141.5370 C   0  0  2  0  0  3  0  0  0  0  0  0
  183.7060  177.8890  141.9570 C   0  0  0  0  0  2  0  0  0  0  0  0
  189.2180  177.2090  143.1240 C   0  0  0  0  0  3  0  0  0  0  0  0
  184.9810  177.8910  144.1880 C   0  0  0  0  0  0  0  0  0  0  0  0
  188.1630  178.9500  148.1030 C   0  0  0  0  0  3  0  0  0  0  0  0
  189.1240  177.2240  146.6770 N   0  0  0  0  0  2  0  0  0  0  0  0
  188.9410  174.9280  144.0300 C   0  0  0  0  0  2  0  0  0  0  0  0
  185.4970  178.7630  140.5190 C   0  0  0  0  0  2  0  0  0  0  0  0
  185.6150  178.4840  147.1030 C   0  0  0  0  0  0  0  0  0  0  0  0
  186.5090  176.6700  145.6600 N   0  0  0  0  0  0  0  0  0  0  0  0
  188.4820  175.0180  147.0670 O   0  0  0  0  0  0  0  0  0  0  0  0
  185.7550  176.6930  144.6000 C   0  0  0  0  0  0  0  0  0  0  0  0
  184.0410  178.2910  140.5260 C   0  0  0  0  0  2  0  0  0  0  0  0
  1 30  1  0  0  0  0
  2 16  1  0  0  0  0
  3 24  1  0  0  0  0
  3 29  2  0  0  0  0
  4 18  2  0  0  0  0
  6 23  1  0  0  0  0
  7 25  1  0  0  0  0
  8 12  1  0  0  0  0
 10 20  1  6  0  0  0
 10 22  1  0  0  0  0
 11  5  1  1  0  0  0
 11 10  1  0  0  0  0
 13 17  1  0  0  0  0
 14 27  1  0  0  0  0
 14  6  2  0  0  0  0
 15  7  1  0  0  0  0
 15  1  1  0  0  0  0
 16 25  1  6  0  0  0
 16  3  1  0  0  0  0
 17 27  1  0  0  0  0
 18  2  1  0  0  0  0
 19  9  1  6  0  0  0
 19 11  1  0  0  0  0
 19 15  1  0  0  0  0
 21  7  2  0  0  0  0
 21 18  1  0  0  0  0
 22 30  1  0  0  0  0
 22 13  2  0  0  0  0
 23 12  2  0  0  0  0
 24  6  1  0  0  0  0
 26 31  1  0  0  0  0
 26 11  1  0  0  0  0
 27  8  2  0  0  0  0
 28 14  1  0  0  0  0
 30 28  2  0  0  0  0
 31 20  1  0  0  0  0
M  END
>  <MODEL>
3

>  <REMARK>
 VINA RESULT:      -8.1      2.480      5.314
  Name = 
  0 active torsions:
  status: ('A' for Active; 'I' for Inactive)
                            x       y       z     vdW  Elec       q    Type
                         _______ _______ _______ _____ _____    ______ ____

>  <TORSDO>
F 0

$$$$
=
 OpenBabel11062421283D

 31 36  0  0  1  0  0  0  0  0999 V2000
  190.1580  177.7980  143.7630 C   0  0  0  0  0  2  0  0  0  0  0  0
  194.3140  175.0620  145.1360 C   0  0  0  0  0  2  0  0  0  0  0  0
  193.4340  175.3940  142.7640 C   0  0  0  0  0  0  0  0  0  0  0  0
  193.1630  173.6870  146.7110 O   0  0  0  0  0  0  0  0  0  0  0  0
  188.9600  175.0050  146.2220 O   0  0  0  0  0  1  0  0  0  0  0  0
  191.6780  173.7280  142.0190 C   0  0  0  0  0  0  0  0  0  0  0  0
  191.8170  176.6430  145.2150 C   0  0  0  0  0  0  0  0  0  0  0  0
  189.3970  172.8600  140.7080 N   0  0  0  0  0  0  0  0  0  0  0  0
  190.0920  177.3480  147.3950 O   0  0  0  0  0  1  0  0  0  0  0  0
  187.6840  176.2720  144.6270 C   0  0  1  0  0  3  0  0  0  0  0  0
  188.4450  176.2730  145.9520 C   0  0  2  0  0  0  0  0  0  0  0  0
  190.4410  172.0040  140.8680 C   0  0  0  0  0  3  0  0  0  0  0  0
  187.6950  175.3220  142.4000 C   0  0  0  0  0  3  0  0  0  0  0  0
  190.5830  174.6000  141.8500 C   0  0  0  0  0  0  0  0  0  0  0  0
  190.5660  177.3510  145.0840 N   0  0  0  0  0  0  0  0  0  0  0  0
  193.9700  176.0460  144.0080 C   0  0  1  0  0  3  0  0  0  0  0  0
  188.2330  175.0010  141.0440 C   0  0  0  0  0  2  0  0  0  0  0  0
  193.1160  174.6990  145.9660 C   0  0  0  0  0  0  0  0  0  0  0  0
  189.5270  177.3700  146.1150 C   0  0  2  0  0  3  0  0  0  0  0  0
  186.6850  177.3980  144.6860 C   0  0  0  0  0  2  0  0  0  0  0  0
  191.8920  175.5130  145.9290 C   0  0  0  0  0  3  0  0  0  0  0  0
  188.3710  176.0360  143.3060 C   0  0  0  0  0  0  0  0  0  0  0  0
  191.5910  172.4190  141.5390 C   0  0  0  0  0  3  0  0  0  0  0  0
  192.8210  174.1000  142.8030 N   0  0  0  0  0  2  0  0  0  0  0  0
  193.0400  177.1650  144.4970 C   0  0  0  0  0  2  0  0  0  0  0  0
  187.3220  176.5980  146.9210 C   0  0  0  0  0  2  0  0  0  0  0  0
  189.4350  174.1330  141.1850 C   0  0  0  0  0  0  0  0  0  0  0  0
  190.6480  175.9180  142.4140 N   0  0  0  0  0  0  0  0  0  0  0  0
  193.4840  176.0290  141.6760 O   0  0  0  0  0  0  0  0  0  0  0  0
  189.7130  176.5980  143.0110 C   0  0  0  0  0  0  0  0  0  0  0  0
  186.3560  177.5170  146.1690 C   0  0  0  0  0  2  0  0  0  0  0  0
  1 15  1  0  0  0  0
  2 18  1  0  0  0  0
  3 24  1  0  0  0  0
  3 16  1  0  0  0  0
  6 24  1  0  0  0  0
  7 21  2  0  0  0  0
  8 12  2  0  0  0  0
  8 27  1  0  0  0  0
 10 20  1  6  0  0  0
 10 11  1  0  0  0  0
 11 19  1  0  0  0  0
 11  5  1  1  0  0  0
 11 26  1  0  0  0  0
 12 23  1  0  0  0  0
 13 22  2  0  0  0  0
 14  6  1  0  0  0  0
 14 28  1  0  0  0  0
 15  7  1  0  0  0  0
 15 19  1  0  0  0  0
 16 25  1  1  0  0  0
 16  2  1  0  0  0  0
 17 27  1  0  0  0  0
 17 13  1  0  0  0  0
 18  4  2  0  0  0  0
 19  9  1  1  0  0  0
 20 31  1  0  0  0  0
 21 18  1  0  0  0  0
 22 10  1  0  0  0  0
 23  6  2  0  0  0  0
 25  7  1  0  0  0  0
 27 14  2  0  0  0  0
 28 30  2  0  0  0  0
 29  3  2  0  0  0  0
 30 22  1  0  0  0  0
 30  1  1  0  0  0  0
 31 26  1  0  0  0  0
M  END
>  <MODEL>
4

>  <REMARK>
 VINA RESULT:      -8.1      2.138      3.250
  Name = 
  0 active torsions:
  status: ('A' for Active; 'I' for Inactive)
                            x       y       z     vdW  Elec       q    Type
                         _______ _______ _______ _____ _____    ______ ____

>  <TORSDO>
F 0

$$$$
=
 OpenBabel11062421283D

 31 36  0  0  1  0  0  0  0  0999 V2000
  190.8480  177.2140  144.0570 C   0  0  0  0  0  2  0  0  0  0  0  0
  194.9060  174.0560  144.4920 C   0  0  0  0  0  2  0  0  0  0  0  0
  193.8290  174.8480  142.3190 C   0  0  0  0  0  0  0  0  0  0  0  0
  193.8150  172.4900  145.9260 O   0  0  0  0  0  0  0  0  0  0  0  0
  189.6900  174.1020  146.1210 O   0  0  0  0  0  1  0  0  0  0  0  0
  191.8930  173.4380  141.4950 C   0  0  0  0  0  0  0  0  0  0  0  0
  192.5500  175.7320  145.1060 C   0  0  0  0  0  0  0  0  0  0  0  0
  189.4390  172.9420  140.3080 N   0  0  0  0  0  0  0  0  0  0  0  0
  191.0980  176.1370  147.5460 O   0  0  0  0  0  1  0  0  0  0  0  0
  188.3630  175.6990  144.9090 C   0  0  1  0  0  3  0  0  0  0  0  0
  189.2460  175.4240  146.1260 C   0  0  2  0  0  0  0  0  0  0  0  0
  190.4280  172.0150  140.2080 C   0  0  0  0  0  3  0  0  0  0  0  0
  188.0910  175.1570  142.5660 C   0  0  0  0  0  3  0  0  0  0  0  0
  190.8530  174.3860  141.5950 C   0  0  0  0  0  0  0  0  0  0  0  0
  191.3470  176.5200  145.2310 N   0  0  0  0  0  0  0  0  0  0  0  0
  194.5270  175.2400  143.5910 C   0  0  1  0  0  3  0  0  0  0  0  0
  188.4720  175.0510  141.1250 C   0  0  0  0  0  2  0  0  0  0  0  0
  193.7700  173.6180  145.3730 C   0  0  0  0  0  0  0  0  0  0  0  0
  190.4160  176.4140  146.3560 C   0  0  2  0  0  3  0  0  0  0  0  0
  187.4590  176.8500  145.2660 C   0  0  0  0  0  2  0  0  0  0  0  0
  192.6100  174.4920  145.6050 C   0  0  0  0  0  3  0  0  0  0  0  0
  188.9020  175.6620  143.5010 C   0  0  0  0  0  0  0  0  0  0  0  0
  191.6650  172.2420  140.8120 C   0  0  0  0  0  3  0  0  0  0  0  0
  193.1290  173.6030  142.2030 N   0  0  0  0  0  2  0  0  0  0  0  0
  193.7320  176.3050  144.3590 C   0  0  0  0  0  2  0  0  0  0  0  0
  188.2480  175.6350  147.2510 C   0  0  0  0  0  2  0  0  0  0  0  0
  189.6160  174.1060  140.9870 C   0  0  0  0  0  0  0  0  0  0  0  0
  191.0680  175.5780  142.3640 N   0  0  0  0  0  0  0  0  0  0  0  0
  193.8200  175.6610  141.3560 O   0  0  0  0  0  0  0  0  0  0  0  0
  190.2460  176.1930  143.1640 C   0  0  0  0  0  0  0  0  0  0  0  0
  187.2840  176.7240  146.7740 C   0  0  0  0  0  2  0  0  0  0  0  0
  1 15  1  0  0  0  0
  2 18  1  0  0  0  0
  3 16  1  0  0  0  0
  6 14  1  0  0  0  0
  6 24  1  0  0  0  0
  7 15  1  0  0  0  0
  7 21  2  0  0  0  0
  8 27  1  0  0  0  0
 10 20  1  1  0  0  0
 10 11  1  0  0  0  0
 11  5  1  6  0  0  0
 11 19  1  0  0  0  0
 11 26  1  0  0  0  0
 12  8  2  0  0  0  0
 12 23  1  0  0  0  0
 13 22  2  0  0  0  0
 14 28  1  0  0  0  0
 15 19  1  0  0  0  0
 16 25  1  1  0  0  0
 16  2  1  0  0  0  0
 17 13  1  0  0  0  0
 18 21  1  0  0  0  0
 18  4  2  0  0  0  0
 19  9  1  1  0  0  0
 20 31  1  0  0  0  0
 22 10  1  0  0  0  0
 23  6  2  0  0  0  0
 24  3  1  0  0  0  0
 25  7  1  0  0  0  0
 27 17  1  0  0  0  0
 27 14  2  0  0  0  0
 28 30  2  0  0  0  0
 29  3  2  0  0  0  0
 30 22  1  0  0  0  0
 30  1  1  0  0  0  0
 31 26  1  0  0  0  0
M  END
>  <MODEL>
5

>  <REMARK>
 VINA RESULT:      -8.0      2.535      4.000
  Name = 
  0 active torsions:
  status: ('A' for Active; 'I' for Inactive)
                            x       y       z     vdW  Elec       q    Type
                         _______ _______ _______ _____ _____    ______ ____

>  <TORSDO>
F 0

$$$$
=
 OpenBabel11062421283D

 31 36  0  0  1  0  0  0  0  0999 V2000
  189.6150  177.4460  142.8710 C   0  0  0  0  0  2  0  0  0  0  0  0
  193.3570  175.8660  146.0540 C   0  0  0  0  0  2  0  0  0  0  0  0
  193.1160  175.2700  143.5850 C   0  0  0  0  0  0  0  0  0  0  0  0
  191.8820  174.9710  147.7030 O   0  0  0  0  0  0  0  0  0  0  0  0
  187.9100  175.5190  145.8140 O   0  0  0  0  0  1  0  0  0  0  0  0
  191.6710  173.2470  143.0970 C   0  0  0  0  0  0  0  0  0  0  0  0
  190.8750  177.0610  144.9820 C   0  0  0  0  0  0  0  0  0  0  0  0
  189.8410  171.7150  141.6910 N   0  0  0  0  0  0  0  0  0  0  0  0
  188.6180  178.2410  146.3020 O   0  0  0  0  0  1  0  0  0  0  0  0
  187.0530  176.0080  143.6220 C   0  0  1  0  0  3  0  0  0  0  0  0
  187.4410  176.5480  144.9970 C   0  0  2  0  0  0  0  0  0  0  0  0
  190.8350  171.0980  142.3840 C   0  0  0  0  0  3  0  0  0  0  0  0
  187.6760  174.3730  141.9490 C   0  0  0  0  0  3  0  0  0  0  0  0
  190.6300  173.8700  142.3790 C   0  0  0  0  0  0  0  0  0  0  0  0
  189.6780  177.5240  144.3200 N   0  0  0  0  0  0  0  0  0  0  0  0
  193.2860  176.3620  144.6030 C   0  0  1  0  0  3  0  0  0  0  0  0
  188.5600  173.6830  140.9610 C   0  0  0  0  0  2  0  0  0  0  0  0
  191.9970  175.6590  146.6570 C   0  0  0  0  0  0  0  0  0  0  0  0
  188.4060  177.7610  145.0050 C   0  0  2  0  0  3  0  0  0  0  0  0
  186.0360  176.9570  143.0420 C   0  0  0  0  0  2  0  0  0  0  0  0
  190.7980  176.2560  146.0480 C   0  0  0  0  0  3  0  0  0  0  0  0
  188.0690  175.4280  142.6700 C   0  0  0  0  0  0  0  0  0  0  0  0
  191.7560  171.8530  143.1090 C   0  0  0  0  0  3  0  0  0  0  0  0
  192.5570  173.9990  143.9390 N   0  0  0  0  0  2  0  0  0  0  0  0
  192.2240  177.4580  144.4290 C   0  0  0  0  0  2  0  0  0  0  0  0
  186.0950  177.0400  145.4970 C   0  0  0  0  0  2  0  0  0  0  0  0
  189.7110  173.0680  141.6780 C   0  0  0  0  0  0  0  0  0  0  0  0
  190.5020  175.2980  142.4340 N   0  0  0  0  0  0  0  0  0  0  0  0
  193.4270  175.5030  142.3860 O   0  0  0  0  0  0  0  0  0  0  0  0
  189.4210  176.0190  142.5140 C   0  0  0  0  0  0  0  0  0  0  0  0
  185.3280  177.5250  144.2650 C   0  0  0  0  0  2  0  0  0  0  0  0
  1 15  1  0  0  0  0
  2 18  1  0  0  0  0
  3 24  1  0  0  0  0
  3 16  1  0  0  0  0
  6 23  1  0  0  0  0
  6 24  1  0  0  0  0
  7 21  2  0  0  0  0
  8 12  1  0  0  0  0
 10 20  1  6  0  0  0
 10 11  1  0  0  0  0
 11 19  1  0  0  0  0
 11 26  1  0  0  0  0
 11  5  1  1  0  0  0
 12 23  2  0  0  0  0
 13 22  2  0  0  0  0
 14 28  1  0  0  0  0
 14  6  2  0  0  0  0
 15  7  1  0  0  0  0
 15 19  1  0  0  0  0
 16 25  1  1  0  0  0
 16  2  1  0  0  0  0
 17 27  1  0  0  0  0
 17 13  1  0  0  0  0
 18  4  2  0  0  0  0
 19  9  1  1  0  0  0
 20 31  1  0  0  0  0
 21 18  1  0  0  0  0
 22 10  1  0  0  0  0
 25  7  1  0  0  0  0
 27  8  2  0  0  0  0
 27 14  1  0  0  0  0
 28 30  2  0  0  0  0
 29  3  2  0  0  0  0
 30 22  1  0  0  0  0
 30  1  1  0  0  0  0
 31 26  1  0  0  0  0
M  END
>  <MODEL>
6

>  <REMARK>
 VINA RESULT:      -7.8      1.586      2.150
  Name = 
  0 active torsions:
  status: ('A' for Active; 'I' for Inactive)
                            x       y       z     vdW  Elec       q    Type
                         _______ _______ _______ _____ _____    ______ ____

>  <TORSDO>
F 0

$$$$
=
 OpenBabel11062421283D

 31 36  0  0  1  0  0  0  0  0999 V2000
  190.8400  177.7970  144.0850 C   0  0  0  0  0  2  0  0  0  0  0  0
  187.2210  175.5680  141.1580 C   0  0  0  0  0  2  0  0  0  0  0  0
  186.9160  177.6200  142.6430 C   0  0  0  0  0  0  0  0  0  0  0  0
  187.4970  173.3870  142.0860 O   0  0  0  0  0  0  0  0  0  0  0  0
  190.4820  174.0930  145.2860 O   0  0  0  0  0  1  0  0  0  0  0  0
  186.3090  177.1300  145.0530 C   0  0  0  0  0  0  0  0  0  0  0  0
  189.7360  176.1260  142.6070 C   0  0  0  0  0  0  0  0  0  0  0  0
  186.3230  177.4970  147.7980 N   0  0  0  0  0  0  0  0  0  0  0  0
  192.0990  174.5430  142.9770 O   0  0  0  0  0  1  0  0  0  0  0  0
  191.4040  175.9840  146.4490 C   0  0  1  0  0  3  0  0  0  0  0  0
  191.5680  174.9680  145.3200 C   0  0  2  0  0  0  0  0  0  0  0  0
  185.2110  176.9960  147.1980 C   0  0  0  0  0  3  0  0  0  0  0  0
  189.7510  177.2940  147.6370 C   0  0  0  0  0  3  0  0  0  0  0  0
  187.4560  177.6420  145.6930 C   0  0  0  0  0  0  0  0  0  0  0  0
  190.8610  176.5000  143.4300 N   0  0  0  0  0  0  0  0  0  0  0  0
  187.6410  177.0100  141.4760 C   0  0  1  0  0  3  0  0  0  0  0  0
  188.6500  178.2910  147.8110 C   0  0  0  0  0  2  0  0  0  0  0  0
  187.9450  174.5590  142.0020 C   0  0  0  0  0  0  0  0  0  0  0  0
  191.8670  175.5530  143.9160 C   0  0  2  0  0  3  0  0  0  0  0  0
  192.7840  176.4580  146.8250 C   0  0  0  0  0  2  0  0  0  0  0  0
  189.1740  174.9170  142.7260 C   0  0  0  0  0  3  0  0  0  0  0  0
  190.3020  177.0130  146.4520 C   0  0  0  0  0  0  0  0  0  0  0  0
  185.1910  176.7910  145.8190 C   0  0  0  0  0  3  0  0  0  0  0  0
  186.3100  176.8070  143.6550 N   0  0  0  0  0  2  0  0  0  0  0  0
  189.1630  177.1340  141.6380 C   0  0  0  0  0  2  0  0  0  0  0  0
  192.8150  174.2350  145.7790 C   0  0  0  0  0  2  0  0  0  0  0  0
  187.4380  177.8140  147.0890 C   0  0  0  0  0  0  0  0  0  0  0  0
  188.6280  177.9160  144.9110 N   0  0  0  0  0  0  0  0  0  0  0  0
  186.8900  178.8760  142.7520 O   0  0  0  0  0  0  0  0  0  0  0  0
  189.8770  177.7060  145.2100 C   0  0  0  0  0  0  0  0  0  0  0  0
  193.6790  175.2670  146.5080 C   0  0  0  0  0  2  0  0  0  0  0  0
  1 30  1  0  0  0  0
  2 18  1  0  0  0  0
  3 29  2  0  0  0  0
  3 24  1  0  0  0  0
  6 14  2  0  0  0  0
  6 23  1  0  0  0  0
  7 21  2  0  0  0  0
  7 15  1  0  0  0  0
 10 22  1  0  0  0  0
 10 20  1  6  0  0  0
 11  5  1  6  0  0  0
 11 26  1  0  0  0  0
 11 10  1  0  0  0  0
 12  8  1  0  0  0  0
 13 17  1  0  0  0  0
 14 27  1  0  0  0  0
 15 19  1  0  0  0  0
 15  1  1  0  0  0  0
 16  2  1  1  0  0  0
 16 25  1  0  0  0  0
 16  3  1  0  0  0  0
 18  4  2  0  0  0  0
 18 21  1  0  0  0  0
 19  9  1  6  0  0  0
 19 11  1  0  0  0  0
 22 13  2  0  0  0  0
 23 12  2  0  0  0  0
 24  6  1  0  0  0  0
 25  7  1  0  0  0  0
 26 31  1  0  0  0  0
 27  8  2  0  0  0  0
 27 17  1  0  0  0  0
 28 30  2  0  0  0  0
 28 14  1  0  0  0  0
 30 22  1  0  0  0  0
 31 20  1  0  0  0  0
M  END
>  <MODEL>
7

>  <REMARK>
 VINA RESULT:      -7.7      2.100      6.461
  Name = 
  0 active torsions:
  status: ('A' for Active; 'I' for Inactive)
                            x       y       z     vdW  Elec       q    Type
                         _______ _______ _______ _____ _____    ______ ____

>  <TORSDO>
F 0

$$$$
=
 OpenBabel11062421283D

 31 36  0  0  1  0  0  0  0  0999 V2000
  193.6030  174.3110  146.2310 C   0  0  0  0  0  2  0  0  0  0  0  0
  189.6430  177.5410  145.5070 C   0  0  0  0  0  2  0  0  0  0  0  0
  189.5030  175.0060  145.7650 C   0  0  0  0  0  0  0  0  0  0  0  0
  190.5350  178.5460  143.5350 O   0  0  0  0  0  0  0  0  0  0  0  0
  194.2240  176.1850  142.8560 O   0  0  0  0  0  1  0  0  0  0  0  0
  189.7680  173.6850  143.6200 C   0  0  0  0  0  0  0  0  0  0  0  0
  192.3660  176.4160  145.7470 C   0  0  0  0  0  0  0  0  0  0  0  0
  190.5860  171.5740  142.0240 N   0  0  0  0  0  0  0  0  0  0  0  0
  194.9430  177.5710  145.2460 O   0  0  0  0  0  1  0  0  0  0  0  0
  195.1570  174.1110  143.6350 C   0  0  1  0  0  3  0  0  0  0  0  0
  195.1150  175.6310  143.7770 C   0  0  2  0  0  0  0  0  0  0  0  0
  189.4350  172.2310  141.7230 C   0  0  0  0  0  3  0  0  0  0  0  0
  193.7770  172.1820  143.1500 C   0  0  0  0  0  3  0  0  0  0  0  0
  190.9630  172.9970  143.9140 C   0  0  0  0  0  0  0  0  0  0  0  0
  193.6200  175.7040  145.8200 N   0  0  0  0  0  0  0  0  0  0  0  0
  189.9110  176.3120  146.3880 C   0  0  1  0  0  3  0  0  0  0  0  0
  192.6450  171.2210  143.3220 C   0  0  0  0  0  2  0  0  0  0  0  0
  190.7450  177.7880  144.5160 C   0  0  0  0  0  0  0  0  0  0  0  0
  194.8630  176.1750  145.2050 C   0  0  2  0  0  3  0  0  0  0  0  0
  196.4930  173.6520  144.1600 C   0  0  0  0  0  2  0  0  0  0  0  0
  192.0670  177.1660  144.6800 C   0  0  0  0  0  3  0  0  0  0  0  0
  193.9650  173.2410  143.9440 C   0  0  0  0  0  0  0  0  0  0  0  0
  189.0150  173.3050  142.5060 C   0  0  0  0  0  3  0  0  0  0  0  0
  189.3810  174.8620  144.3450 N   0  0  0  0  0  2  0  0  0  0  0  0
  191.3680  176.2690  146.8720 C   0  0  0  0  0  2  0  0  0  0  0  0
  196.5420  175.9890  143.4020 C   0  0  0  0  0  2  0  0  0  0  0  0
  191.3580  171.9310  143.0840 C   0  0  0  0  0  0  0  0  0  0  0  0
  191.7720  173.4420  145.0130 N   0  0  0  0  0  0  0  0  0  0  0  0
  189.3160  174.0090  146.5120 O   0  0  0  0  0  0  0  0  0  0  0  0
  193.0680  173.5230  145.0920 C   0  0  0  0  0  0  0  0  0  0  0  0
  197.4180  174.8310  143.8850 C   0  0  0  0  0  2  0  0  0  0  0  0
  3 16  1  0  0  0  0
  3 29  2  0  0  0  0
  4 18  2  0  0  0  0
  6 14  1  0  0  0  0
  6 24  1  0  0  0  0
  7 15  1  0  0  0  0
  7 25  1  0  0  0  0
  8 27  1  0  0  0  0
 10 11  1  0  0  0  0
 10 22  1  0  0  0  0
 10 20  1  1  0  0  0
 11  5  1  6  0  0  0
 11 19  1  0  0  0  0
 12  8  2  0  0  0  0
 12 23  1  0  0  0  0
 13 17  1  0  0  0  0
 13 22  2  0  0  0  0
 14 28  1  0  0  0  0
 15  1  1  0  0  0  0
 16  2  1  6  0  0  0
 16 25  1  0  0  0  0
 18 21  1  0  0  0  0
 18  2  1  0  0  0  0
 19  9  1  6  0  0  0
 19 15  1  0  0  0  0
 21  7  2  0  0  0  0
 22 30  1  0  0  0  0
 23  6  2  0  0  0  0
 24  3  1  0  0  0  0
 26 11  1  0  0  0  0
 26 31  1  0  0  0  0
 27 17  1  0  0  0  0
 27 14  2  0  0  0  0
 28 30  2  0  0  0  0
 30  1  1  0  0  0  0
 31 20  1  0  0  0  0
M  END
>  <MODEL>
8

>  <REMARK>
 VINA RESULT:      -7.7      2.950      6.206
  Name = 
  0 active torsions:
  status: ('A' for Active; 'I' for Inactive)
                            x       y       z     vdW  Elec       q    Type
                         _______ _______ _______ _____ _____    ______ ____

>  <TORSDO>
F 0

$$$$
=
 OpenBabel11062421283D

 31 36  0  0  1  0  0  0  0  0999 V2000
  189.6910  173.8490  145.1860 C   0  0  0  0  0  2  0  0  0  0  0  0
  191.7830  171.7880  140.9420 C   0  0  0  0  0  2  0  0  0  0  0  0
  192.7860  171.7690  143.2880 C   0  0  0  0  0  0  0  0  0  0  0  0
  191.6770  173.7910  139.6480 O   0  0  0  0  0  0  0  0  0  0  0  0
  190.1420  176.7340  142.5850 O   0  0  0  0  0  1  0  0  0  0  0  0
  194.1870  173.7940  143.8820 C   0  0  0  0  0  0  0  0  0  0  0  0
  190.0300  173.2970  142.7830 C   0  0  0  0  0  0  0  0  0  0  0  0
  195.2090  175.7810  145.5190 N   0  0  0  0  0  0  0  0  0  0  0  0
  187.8380  175.0760  142.2780 O   0  0  0  0  0  1  0  0  0  0  0  0
  189.8760  176.8680  144.9710 C   0  0  1  0  0  3  0  0  0  0  0  0
  189.2230  176.5670  143.6230 C   0  0  2  0  0  0  0  0  0  0  0  0
  195.9770  175.2850  144.5130 C   0  0  0  0  0  3  0  0  0  0  0  0
  191.9560  176.6620  146.1930 C   0  0  0  0  0  3  0  0  0  0  0  0
  193.4020  174.3240  144.9260 C   0  0  0  0  0  0  0  0  0  0  0  0
  189.3200  174.0430  143.7950 N   0  0  0  0  0  0  0  0  0  0  0  0
  191.6350  171.3640  142.4100 C   0  0  1  0  0  3  0  0  0  0  0  0
  193.1250  175.9680  146.8110 C   0  0  0  0  0  2  0  0  0  0  0  0
  191.3330  173.2020  140.7040 C   0  0  0  0  0  0  0  0  0  0  0  0
  188.4840  175.2100  143.5110 C   0  0  2  0  0  3  0  0  0  0  0  0
  188.7750  177.2700  145.9180 C   0  0  0  0  0  2  0  0  0  0  0  0
  190.4890  173.9040  141.6820 C   0  0  0  0  0  3  0  0  0  0  0  0
  190.9870  176.0180  145.5330 C   0  0  0  0  0  0  0  0  0  0  0  0
  195.4730  174.2950  143.6690 C   0  0  0  0  0  3  0  0  0  0  0  0
  193.6470  172.8590  142.9370 N   0  0  0  0  0  2  0  0  0  0  0  0
  190.2940  171.8250  143.0000 C   0  0  0  0  0  2  0  0  0  0  0  0
  188.1710  177.6610  143.5680 C   0  0  0  0  0  2  0  0  0  0  0  0
  193.9440  175.3360  145.7400 C   0  0  0  0  0  0  0  0  0  0  0  0
  192.0540  173.8600  145.0900 N   0  0  0  0  0  0  0  0  0  0  0  0
  192.9590  171.1630  144.3800 O   0  0  0  0  0  0  0  0  0  0  0  0
  190.9880  174.5410  145.3950 C   0  0  0  0  0  0  0  0  0  0  0  0
  187.7270  177.9030  145.0130 C   0  0  0  0  0  2  0  0  0  0  0  0
  1 30  1  0  0  0  0
  3 29  2  0  0  0  0
  4 18  2  0  0  0  0
  6 14  1  0  0  0  0
  7 25  1  0  0  0  0
  7 15  1  0  0  0  0
  8 27  1  0  0  0  0
 10 22  1  0  0  0  0
 10 20  1  1  0  0  0
 11  5  1  6  0  0  0
 11 10  1  0  0  0  0
 12  8  2  0  0  0  0
 13 17  1  0  0  0  0
 14 28  1  0  0  0  0
 14 27  2  0  0  0  0
 15  1  1  0  0  0  0
 16  2  1  6  0  0  0
 16 25  1  0  0  0  0
 16  3  1  0  0  0  0
 18  2  1  0  0  0  0
 18 21  1  0  0  0  0
 19  9  1  6  0  0  0
 19 11  1  0  0  0  0
 19 15  1  0  0  0  0
 21  7  2  0  0  0  0
 22 13  2  0  0  0  0
 23  6  2  0  0  0  0
 23 12  1  0  0  0  0
 24  3  1  0  0  0  0
 24  6  1  0  0  0  0
 26 11  1  0  0  0  0
 26 31  1  0  0  0  0
 27 17  1  0  0  0  0
 28 30  2  0  0  0  0
 30 22  1  0  0  0  0
 31 20  1  0  0  0  0
M  END
>  <MODEL>
9

>  <REMARK>
 VINA RESULT:      -7.5      2.566      5.505
  Name = 
  0 active torsions:
  status: ('A' for Active; 'I' for Inactive)
                            x       y       z     vdW  Elec       q    Type
                         _______ _______ _______ _____ _____    ______ ____

>  <TORSDO>
F 0

$$$$
