=
 OpenBabel11072409003D

 45 50  0  0  1  0  0  0  0  0999 V2000
  187.5610  174.6900  142.1560 N   0  0  0  0  0  1  0  0  0  0  0  0
  189.9150  174.0160  141.9410 C   0  0  0  0  0  0  0  0  0  0  0  0
  190.8970  173.2710  141.2710 C   0  0  0  0  0  0  0  0  0  0  0  0
  188.5850  173.9550  141.4920 C   0  0  0  0  0  0  0  0  0  0  0  0
  188.2640  173.1810  140.4180 N   0  0  0  0  0  0  0  0  0  0  0  0
  190.5320  172.4830  140.1690 C   0  0  0  0  0  3  0  0  0  0  0  0
  189.2000  172.4510  139.7550 C   0  0  0  0  0  3  0  0  0  0  0  0
  192.2230  173.3260  141.7140 O   0  0  0  0  0  0  0  0  0  0  0  0
  193.3360  173.4190  140.8260 C   0  0  1  0  0  3  0  0  0  0  0  0
  194.4410  174.3020  141.3880 C   0  0  0  0  0  0  0  0  0  0  0  0
  194.5320  176.3750  141.3460 C   0  0  0  0  0  2  0  0  0  0  0  0
  194.9750  175.2610  140.3800 C   0  0  0  0  0  2  0  0  0  0  0  0
  193.9930  175.3530  142.3590 C   0  0  0  0  0  2  0  0  0  0  0  0
  194.5950  172.7990  141.4610 C   0  0  1  0  0  3  0  0  0  0  0  0
  194.3620  172.3660  142.7710 O   0  0  0  0  0  0  0  0  0  0  0  0
  195.6340  172.2150  143.3280 C   0  0  0  0  0  2  0  0  0  0  0  0
  195.6940  171.1420  145.7290 C   0  0  2  0  0  3  0  0  0  0  0  0
  196.8800  172.0810  145.5480 C   0  0  0  0  0  2  0  0  0  0  0  0
  195.9040  169.9370  144.9400 N   0  0  0  0  0  1  0  0  0  0  0  0
  195.5740  172.3800  144.8420 C   0  0  1  0  0  0  0  0  0  0  0  0
  192.6920  174.4810  146.1330 C   0  0  0  0  0  3  0  0  0  0  0  0
  194.8010  173.5210  145.4260 C   0  0  0  0  0  0  0  0  0  0  0  0
  193.3440  175.6580  146.5130 C   0  0  0  0  0  0  0  0  0  0  0  0
  194.7270  175.7720  146.3250 C   0  0  0  0  0  3  0  0  0  0  0  0
  193.4160  173.4190  145.5870 C   0  0  0  0  0  3  0  0  0  0  0  0
  195.4520  174.7100  145.7820 C   0  0  0  0  0  3  0  0  0  0  0  0
  192.5580  176.7500  147.0990 C   0  0  0  0  0  3  0  0  0  0  0  0
  191.6710  176.5310  148.0110 N   0  0  0  0  0  2  0  0  0  0  0  0
  190.2810  174.8100  143.1530 C   0  0  0  0  0  2  0  0  0  0  0  0
  190.4720  176.2100  142.7850 N   0  0  0  0  0  2  0  0  0  0  0  0
  190.6660  177.0410  143.9750 C   0  0  1  0  0  3  0  0  0  0  0  0
  191.8070  178.0290  143.7590 C   0  0  0  0  0  1  0  0  0  0  0  0
  189.3710  177.7330  144.4370 C   0  0  1  0  0  3  0  0  0  0  0  0
  188.4580  177.7680  143.3950 F   0  0  0  0  0  0  0  0  0  0  0  0
  188.7390  177.0020  145.6150 C   0  0  2  0  0  3  0  0  0  0  0  0
  189.5210  175.9220  145.9740 F   0  0  0  0  0  0  0  0  0  0  0  0
  187.4010  176.5370  145.2680 N   0  0  0  0  0  2  0  0  0  0  0  0
  186.4770  177.4910  145.7280 N   0  0  0  0  0  0  0  0  0  0  0  0
  184.9370  177.7330  142.5240 C   0  0  0  0  0  3  0  0  0  0  0  0
  186.0280  177.6780  141.7260 F   0  0  0  0  0  0  0  0  0  0  0  0
  185.2100  177.6840  145.1180 C   0  0  0  0  0  0  0  0  0  0  0  0
  185.5920  179.0920  147.1110 C   0  0  0  0  0  2  0  0  0  0  0  0
  185.0750  177.7060  143.8190 C   0  0  0  0  0  0  0  0  0  0  0  0
  186.6150  178.0490  147.0050 N   0  0  0  0  0  2  0  0  0  0  0  0
  184.1150  178.6150  146.1440 S   0  0  0  0  0  0  0  0  0  0  0  0
  2 29  1  0  0  0  0
  3  8  1  0  0  0  0
  3  2  2  0  0  0  0
  4  2  1  0  0  0  0
  4  1  1  0  0  0  0
  5  4  2  0  0  0  0
  6  3  1  0  0  0  0
  7  6  2  0  0  0  0
  7  5  1  0  0  0  0
  9 10  1  0  0  0  0
  9 14  1  0  0  0  0
  9  8  1  1  0  0  0
 10 14  1  0  0  0  0
 10 13  1  0  0  0  0
 11 13  1  0  0  0  0
 12 11  1  0  0  0  0
 12 10  1  0  0  0  0
 14 15  1  1  0  0  0
 15 16  1  0  0  0  0
 17 19  1  6  0  0  0
 18 17  1  0  0  0  0
 20 16  1  6  0  0  0
 20 22  1  0  0  0  0
 20 18  1  0  0  0  0
 20 17  1  0  0  0  0
 21 23  1  0  0  0  0
 22 25  1  0  0  0  0
 22 26  2  0  0  0  0
 23 27  1  0  0  0  0
 24 23  2  0  0  0  0
 25 21  2  0  0  0  0
 26 24  1  0  0  0  0
 27 28  2  0  0  0  0
 30 29  1  0  0  0  0
 30 31  1  0  0  0  0
 31 32  1  6  0  0  0
 31 33  1  0  0  0  0
 33 34  1  6  0  0  0
 33 35  1  0  0  0  0
 35 36  1  6  0  0  0
 37 35  1  0  0  0  0
 37 38  1  0  0  0  0
 38 44  1  0  0  0  0
 39 43  2  0  0  0  0
 40 39  1  0  0  0  0
 41 38  1  0  0  0  0
 41 45  1  0  0  0  0
 43 41  2  0  0  0  0
 44 42  1  0  0  0  0
 45 42  1  0  0  0  0
M  END
>  <MODEL>
1

>  <REMARK>
 VINA RESULT:      -6.9      0.000      0.000
  Name = 
  14 active torsions:
  status: ('A' for Active; 'I' for Inactive)
    1  A    between atoms: N_1  and  N_3
    2  A    between atoms: C_2  and  C_31
    3  A    between atoms: N_3  and  C_5
    4  A    between atoms: O_4  and  C_7
    5  A    between atoms: O_4  and  C_33
    6  A    between atoms: C_5  and  C_13
    7  A    between atoms: C_12  and  N_19
    8  A    between atoms: C_12  and  C_23
    9  A    between atoms: C_13  and  C_21
   10  A    between atoms: C_18  and  C_28
   11  A    between atoms: N_19  and  C_21
   12  A    between atoms: O_24  and  C_40
   13  A    between atoms: O_24  and  C_41
   14  A    between atoms: C_28  and  C_40
                            x       y       z     vdW  Elec       q    Type
                         _______ _______ _______ _____ _____    ______ ____

>  <TORSDO>
F 14

$$$$
=
 OpenBabel11072409003D

 45 50  0  0  1  0  0  0  0  0999 V2000
  187.4720  174.4720  142.1550 N   0  0  0  0  0  1  0  0  0  0  0  0
  189.7110  173.5020  141.8560 C   0  0  0  0  0  0  0  0  0  0  0  0
  190.7440  173.1030  140.9950 C   0  0  0  0  0  0  0  0  0  0  0  0
  188.5460  174.0660  141.3100 C   0  0  0  0  0  0  0  0  0  0  0  0
  188.4310  174.2210  139.9620 N   0  0  0  0  0  0  0  0  0  0  0  0
  190.5930  173.2760  139.6110 C   0  0  0  0  0  3  0  0  0  0  0  0
  189.4200  173.8410  139.1100 C   0  0  0  0  0  3  0  0  0  0  0  0
  191.9070  172.5390  141.5320 O   0  0  0  0  0  0  0  0  0  0  0  0
  193.1520  172.5170  140.8350 C   0  0  1  0  0  3  0  0  0  0  0  0
  194.2040  173.3760  141.5210 C   0  0  0  0  0  0  0  0  0  0  0  0
  194.4280  175.4350  141.3780 C   0  0  0  0  0  2  0  0  0  0  0  0
  194.9520  174.2380  140.5620 C   0  0  0  0  0  2  0  0  0  0  0  0
  193.6710  174.5110  142.3430 C   0  0  0  0  0  2  0  0  0  0  0  0
  194.2510  171.8760  141.7030 C   0  0  1  0  0  3  0  0  0  0  0  0
  193.7840  171.5430  142.9800 O   0  0  0  0  0  0  0  0  0  0  0  0
  194.8340  170.8370  143.5710 C   0  0  0  0  0  2  0  0  0  0  0  0
  194.7850  170.2780  146.1420 C   0  0  2  0  0  3  0  0  0  0  0  0
  196.2030  170.6330  145.7120 C   0  0  0  0  0  2  0  0  0  0  0  0
  194.4340  168.9660  145.6200 N   0  0  0  0  0  1  0  0  0  0  0  0
  195.0260  171.2830  145.0170 C   0  0  1  0  0  0  0  0  0  0  0  0
  193.3340  174.5060  146.0860 C   0  0  0  0  0  3  0  0  0  0  0  0
  194.8110  172.7200  145.3760 C   0  0  0  0  0  0  0  0  0  0  0  0
  194.3960  175.4140  146.0440 C   0  0  0  0  0  0  0  0  0  0  0  0
  195.6650  174.9740  145.6440 C   0  0  0  0  0  3  0  0  0  0  0  0
  193.5380  173.1650  145.7480 C   0  0  0  0  0  3  0  0  0  0  0  0
  195.8700  173.6350  145.3090 C   0  0  0  0  0  3  0  0  0  0  0  0
  194.1540  176.8110  146.4210 C   0  0  0  0  0  3  0  0  0  0  0  0
  194.8160  177.7800  145.8850 N   0  0  0  0  0  2  0  0  0  0  0  0
  189.8350  173.2670  143.3260 C   0  0  0  0  0  2  0  0  0  0  0  0
  190.4550  174.4270  143.9600 N   0  0  0  0  0  2  0  0  0  0  0  0
  189.5320  175.0630  144.9030 C   0  0  1  0  0  3  0  0  0  0  0  0
  189.5670  174.3500  146.2510 C   0  0  0  0  0  1  0  0  0  0  0  0
  189.7630  176.5780  145.0360 C   0  0  1  0  0  3  0  0  0  0  0  0
  191.1200  176.8550  144.9760 F   0  0  0  0  0  0  0  0  0  0  0  0
  189.0590  177.3480  143.9250 C   0  0  2  0  0  3  0  0  0  0  0  0
  189.9620  178.1670  143.2750 F   0  0  0  0  0  0  0  0  0  0  0  0
  187.9780  178.1600  144.4720 N   0  0  0  0  0  2  0  0  0  0  0  0
  186.8460  177.9770  143.6610 N   0  0  0  0  0  0  0  0  0  0  0  0
  184.7870  177.2420  146.4740 C   0  0  0  0  0  3  0  0  0  0  0  0
  185.6410  176.4930  147.2100 F   0  0  0  0  0  0  0  0  0  0  0  0
  185.5220  178.1540  144.1430 C   0  0  0  0  0  0  0  0  0  0  0  0
  185.6520  177.6090  141.7380 C   0  0  0  0  0  2  0  0  0  0  0  0
  185.1570  177.6990  145.3120 C   0  0  0  0  0  0  0  0  0  0  0  0
  186.9740  177.9540  142.2660 N   0  0  0  0  0  2  0  0  0  0  0  0
  184.3490  178.2840  142.8300 S   0  0  0  0  0  0  0  0  0  0  0  0
  2 29  1  0  0  0  0
  3  8  1  0  0  0  0
  3  2  2  0  0  0  0
  4  2  1  0  0  0  0
  4  1  1  0  0  0  0
  5  4  2  0  0  0  0
  6  3  1  0  0  0  0
  7  6  2  0  0  0  0
  7  5  1  0  0  0  0
  9 10  1  0  0  0  0
  9  8  1  1  0  0  0
  9 14  1  0  0  0  0
 10 14  1  0  0  0  0
 10 13  1  0  0  0  0
 11 13  1  0  0  0  0
 12 11  1  0  0  0  0
 12 10  1  0  0  0  0
 14 15  1  1  0  0  0
 15 16  1  0  0  0  0
 17 19  1  6  0  0  0
 18 17  1  0  0  0  0
 20 16  1  6  0  0  0
 20 22  1  0  0  0  0
 20 18  1  0  0  0  0
 20 17  1  0  0  0  0
 22 25  1  0  0  0  0
 23 21  1  0  0  0  0
 23 27  1  0  0  0  0
 24 23  2  0  0  0  0
 25 21  2  0  0  0  0
 26 22  2  0  0  0  0
 26 24  1  0  0  0  0
 28 27  2  0  0  0  0
 29 30  1  0  0  0  0
 30 31  1  0  0  0  0
 31 33  1  0  0  0  0
 31 32  1  1  0  0  0
 33 34  1  6  0  0  0
 35 36  1  1  0  0  0
 35 37  1  0  0  0  0
 35 33  1  0  0  0  0
 38 41  1  0  0  0  0
 38 37  1  0  0  0  0
 39 40  1  0  0  0  0
 41 43  2  0  0  0  0
 42 44  1  0  0  0  0
 42 45  1  0  0  0  0
 43 39  2  0  0  0  0
 44 38  1  0  0  0  0
 45 41  1  0  0  0  0
M  END
>  <MODEL>
2

>  <REMARK>
 VINA RESULT:      -6.8      1.647      2.308
  Name = 
  14 active torsions:
  status: ('A' for Active; 'I' for Inactive)
    1  A    between atoms: N_1  and  N_3
    2  A    between atoms: C_2  and  C_31
    3  A    between atoms: N_3  and  C_5
    4  A    between atoms: O_4  and  C_7
    5  A    between atoms: O_4  and  C_33
    6  A    between atoms: C_5  and  C_13
    7  A    between atoms: C_12  and  N_19
    8  A    between atoms: C_12  and  C_23
    9  A    between atoms: C_13  and  C_21
   10  A    between atoms: C_18  and  C_28
   11  A    between atoms: N_19  and  C_21
   12  A    between atoms: O_24  and  C_40
   13  A    between atoms: O_24  and  C_41
   14  A    between atoms: C_28  and  C_40
                            x       y       z     vdW  Elec       q    Type
                         _______ _______ _______ _____ _____    ______ ____

>  <TORSDO>
F 14

$$$$
=
 OpenBabel11072409003D

 45 50  0  0  1  0  0  0  0  0999 V2000
  188.8510  172.3860  141.9750 N   0  0  0  0  0  1  0  0  0  0  0  0
  191.2680  172.8370  142.0090 C   0  0  0  0  0  0  0  0  0  0  0  0
  192.5820  172.3530  142.1000 C   0  0  0  0  0  0  0  0  0  0  0  0
  190.1990  171.9280  142.0540 C   0  0  0  0  0  0  0  0  0  0  0  0
  190.4450  170.5940  142.1810 N   0  0  0  0  0  0  0  0  0  0  0  0
  192.8000  170.9730  142.2320 C   0  0  0  0  0  3  0  0  0  0  0  0
  191.7090  170.1040  142.2710 C   0  0  0  0  0  3  0  0  0  0  0  0
  193.6510  173.2550  142.0580 O   0  0  0  0  0  0  0  0  0  0  0  0
  194.8530  173.0010  141.3320 C   0  0  1  0  0  3  0  0  0  0  0  0
  195.3660  174.2480  140.6280 C   0  0  0  0  0  0  0  0  0  0  0  0
  194.7110  175.0240  138.8170 C   0  0  0  0  0  2  0  0  0  0  0  0
  195.7720  173.9820  139.2190 C   0  0  0  0  0  2  0  0  0  0  0  0
  194.3230  175.2670  140.2830 C   0  0  0  0  0  2  0  0  0  0  0  0
  196.0250  173.8110  141.9160 C   0  0  1  0  0  3  0  0  0  0  0  0
  195.6150  174.6470  142.9610 O   0  0  0  0  0  0  0  0  0  0  0  0
  196.6130  174.5220  143.9310 C   0  0  0  0  0  2  0  0  0  0  0  0
  196.3060  172.5770  145.6760 C   0  0  2  0  0  3  0  0  0  0  0  0
  197.0470  173.7430  146.3180 C   0  0  0  0  0  2  0  0  0  0  0  0
  197.1870  171.8990  144.7370 N   0  0  0  0  0  1  0  0  0  0  0  0
  196.0200  174.0130  145.2400 C   0  0  1  0  0  0  0  0  0  0  0  0
  192.3480  174.4090  146.1060 C   0  0  0  0  0  3  0  0  0  0  0  0
  194.7360  174.5980  145.7400 C   0  0  0  0  0  0  0  0  0  0  0  0
  192.3230  175.6880  146.6690 C   0  0  0  0  0  0  0  0  0  0  0  0
  193.5080  176.4310  146.7450 C   0  0  0  0  0  3  0  0  0  0  0  0
  193.5480  173.8670  145.6380 C   0  0  0  0  0  3  0  0  0  0  0  0
  194.7080  175.8900  146.2810 C   0  0  0  0  0  3  0  0  0  0  0  0
  191.0510  176.2220  147.1670 C   0  0  0  0  0  3  0  0  0  0  0  0
  189.9520  175.5520  147.0720 N   0  0  0  0  0  2  0  0  0  0  0  0
  191.0210  174.3090  141.9310 C   0  0  0  0  0  2  0  0  0  0  0  0
  190.4190  174.7740  143.1770 N   0  0  0  0  0  2  0  0  0  0  0  0
  190.6990  176.1950  143.3940 C   0  0  1  0  0  3  0  0  0  0  0  0
  192.1190  176.5350  142.9550 C   0  0  0  0  0  1  0  0  0  0  0  0
  189.6500  177.1160  142.7480 C   0  0  1  0  0  3  0  0  0  0  0  0
  188.8960  176.4010  141.8310 F   0  0  0  0  0  0  0  0  0  0  0  0
  188.7130  177.7110  143.7910 C   0  0  2  0  0  3  0  0  0  0  0  0
  189.4290  178.0750  144.9150 F   0  0  0  0  0  0  0  0  0  0  0  0
  187.6850  176.7460  144.1640 N   0  0  0  0  0  2  0  0  0  0  0  0
  186.4310  177.3550  143.9810 N   0  0  0  0  0  0  0  0  0  0  0  0
  185.9210  177.6630  147.4930 C   0  0  0  0  0  3  0  0  0  0  0  0
  186.4240  176.4790  147.9160 F   0  0  0  0  0  0  0  0  0  0  0  0
  185.8530  178.2200  144.9460 C   0  0  0  0  0  0  0  0  0  0  0  0
  184.5150  177.9730  142.8840 C   0  0  0  0  0  2  0  0  0  0  0  0
  185.8900  177.9400  146.2210 C   0  0  0  0  0  0  0  0  0  0  0  0
  185.8570  177.4150  142.7050 N   0  0  0  0  0  2  0  0  0  0  0  0
  184.5140  179.1580  144.2770 S   0  0  0  0  0  0  0  0  0  0  0  0
  1  4  1  0  0  0  0
  2  4  2  0  0  0  0
  2  3  1  0  0  0  0
  3  6  2  0  0  0  0
  4  5  1  0  0  0  0
  5  7  2  0  0  0  0
  6  7  1  0  0  0  0
  8  3  1  0  0  0  0
  9 14  1  0  0  0  0
  9  8  1  1  0  0  0
 10  9  1  0  0  0  0
 10 14  1  0  0  0  0
 11 12  1  0  0  0  0
 11 13  1  0  0  0  0
 12 10  1  0  0  0  0
 13 10  1  0  0  0  0
 14 15  1  1  0  0  0
 15 16  1  0  0  0  0
 17 19  1  6  0  0  0
 17 18  1  0  0  0  0
 20 16  1  6  0  0  0
 20 17  1  0  0  0  0
 20 22  1  0  0  0  0
 20 18  1  0  0  0  0
 21 23  1  0  0  0  0
 22 26  2  0  0  0  0
 23 24  2  0  0  0  0
 23 27  1  0  0  0  0
 25 22  1  0  0  0  0
 25 21  2  0  0  0  0
 26 24  1  0  0  0  0
 28 27  2  0  0  0  0
 29  2  1  0  0  0  0
 29 30  1  0  0  0  0
 30 31  1  0  0  0  0
 31 32  1  6  0  0  0
 33 34  1  6  0  0  0
 33 31  1  0  0  0  0
 33 35  1  0  0  0  0
 35 37  1  0  0  0  0
 35 36  1  1  0  0  0
 38 37  1  0  0  0  0
 38 41  1  0  0  0  0
 39 40  1  0  0  0  0
 41 43  2  0  0  0  0
 42 45  1  0  0  0  0
 43 39  2  0  0  0  0
 44 42  1  0  0  0  0
 44 38  1  0  0  0  0
 45 41  1  0  0  0  0
M  END
>  <MODEL>
3

>  <REMARK>
 VINA RESULT:      -6.6      1.790      2.498
  Name = 
  14 active torsions:
  status: ('A' for Active; 'I' for Inactive)
    1  A    between atoms: N_1  and  N_3
    2  A    between atoms: C_2  and  C_31
    3  A    between atoms: N_3  and  C_5
    4  A    between atoms: O_4  and  C_7
    5  A    between atoms: O_4  and  C_33
    6  A    between atoms: C_5  and  C_13
    7  A    between atoms: C_12  and  N_19
    8  A    between atoms: C_12  and  C_23
    9  A    between atoms: C_13  and  C_21
   10  A    between atoms: C_18  and  C_28
   11  A    between atoms: N_19  and  C_21
   12  A    between atoms: O_24  and  C_40
   13  A    between atoms: O_24  and  C_41
   14  A    between atoms: C_28  and  C_40
                            x       y       z     vdW  Elec       q    Type
                         _______ _______ _______ _____ _____    ______ ____

>  <TORSDO>
F 14

$$$$
=
 OpenBabel11072409003D

 45 50  0  0  1  0  0  0  0  0999 V2000
  188.7010  172.7700  139.6690 N   0  0  0  0  0  1  0  0  0  0  0  0
  191.0080  173.3780  140.2650 C   0  0  0  0  0  0  0  0  0  0  0  0
  192.3280  173.6320  139.8630 C   0  0  0  0  0  0  0  0  0  0  0  0
  190.0490  173.0450  139.2950 C   0  0  0  0  0  0  0  0  0  0  0  0
  190.4050  172.9750  137.9820 N   0  0  0  0  0  0  0  0  0  0  0  0
  192.6610  173.5490  138.5030 C   0  0  0  0  0  3  0  0  0  0  0  0
  191.6780  173.2160  137.5710 C   0  0  0  0  0  3  0  0  0  0  0  0
  193.2880  173.9620  140.8260 O   0  0  0  0  0  0  0  0  0  0  0  0
  194.6920  173.9020  140.5750 C   0  0  1  0  0  3  0  0  0  0  0  0
  195.4810  174.7620  141.5510 C   0  0  0  0  0  0  0  0  0  0  0  0
  195.7880  176.8130  141.4500 C   0  0  0  0  0  2  0  0  0  0  0  0
  196.5210  175.5870  140.8730 C   0  0  0  0  0  2  0  0  0  0  0  0
  194.7360  175.9250  142.1320 C   0  0  0  0  0  2  0  0  0  0  0  0
  195.4320  173.2660  141.7670 C   0  0  1  0  0  3  0  0  0  0  0  0
  194.5660  172.9730  142.8260 O   0  0  0  0  0  0  0  0  0  0  0  0
  195.3330  172.2160  143.7150 C   0  0  0  0  0  2  0  0  0  0  0  0
  196.8000  172.5220  145.8770 C   0  0  2  0  0  3  0  0  0  0  0  0
  197.1580  173.5870  144.8490 C   0  0  0  0  0  2  0  0  0  0  0  0
  197.3130  171.2320  145.4400 N   0  0  0  0  0  1  0  0  0  0  0  0
  195.7410  173.0600  144.9170 C   0  0  1  0  0  0  0  0  0  0  0  0
  194.2310  176.2030  146.4130 C   0  0  0  0  0  3  0  0  0  0  0  0
  194.7520  174.0140  145.5130 C   0  0  0  0  0  0  0  0  0  0  0  0
  192.9090  175.8070  146.6340 C   0  0  0  0  0  0  0  0  0  0  0  0
  192.5160  174.5010  146.3140 C   0  0  0  0  0  3  0  0  0  0  0  0
  195.1510  175.3090  145.8590 C   0  0  0  0  0  3  0  0  0  0  0  0
  193.4340  173.6080  145.7590 C   0  0  0  0  0  3  0  0  0  0  0  0
  191.9620  176.7740  147.2020 C   0  0  0  0  0  3  0  0  0  0  0  0
  191.5460  176.6780  148.4190 N   0  0  0  0  0  2  0  0  0  0  0  0
  190.6540  173.4020  141.7180 C   0  0  0  0  0  2  0  0  0  0  0  0
  190.0820  174.7010  142.0620 N   0  0  0  0  0  2  0  0  0  0  0  0
  189.5390  174.6870  143.4230 C   0  0  1  0  0  3  0  0  0  0  0  0
  189.8230  173.3500  144.1000 C   0  0  0  0  0  1  0  0  0  0  0  0
  190.0130  175.8830  144.2670 C   0  0  1  0  0  3  0  0  0  0  0  0
  191.2490  176.3190  143.8150 F   0  0  0  0  0  0  0  0  0  0  0  0
  189.0300  177.0440  144.1900 C   0  0  2  0  0  3  0  0  0  0  0  0
  189.6570  178.2190  144.5570 F   0  0  0  0  0  0  0  0  0  0  0  0
  187.8920  176.8080  145.0710 N   0  0  0  0  0  2  0  0  0  0  0  0
  186.7420  177.3110  144.4390 N   0  0  0  0  0  0  0  0  0  0  0  0
  185.6030  178.8470  147.4450 C   0  0  0  0  0  3  0  0  0  0  0  0
  185.9310  177.8910  148.3450 F   0  0  0  0  0  0  0  0  0  0  0  0
  186.0550  178.4630  144.9050 C   0  0  0  0  0  0  0  0  0  0  0  0
  185.1150  177.4990  142.8340 C   0  0  0  0  0  2  0  0  0  0  0  0
  185.8320  178.6550  146.1770 C   0  0  0  0  0  0  0  0  0  0  0  0
  186.4240  176.9140  143.1340 N   0  0  0  0  0  2  0  0  0  0  0  0
  184.9370  179.1020  143.6970 S   0  0  0  0  0  0  0  0  0  0  0  0
  2 29  1  0  0  0  0
  3  2  1  0  0  0  0
  3  8  1  0  0  0  0
  4  1  1  0  0  0  0
  4  2  2  0  0  0  0
  5  4  1  0  0  0  0
  6  3  2  0  0  0  0
  7  5  2  0  0  0  0
  7  6  1  0  0  0  0
  9  8  1  1  0  0  0
  9 10  1  0  0  0  0
  9 14  1  0  0  0  0
 10 14  1  0  0  0  0
 10 13  1  0  0  0  0
 11 13  1  0  0  0  0
 12 11  1  0  0  0  0
 12 10  1  0  0  0  0
 14 15  1  1  0  0  0
 15 16  1  0  0  0  0
 17 19  1  6  0  0  0
 18 20  1  0  0  0  0
 18 17  1  0  0  0  0
 20 16  1  6  0  0  0
 20 22  1  0  0  0  0
 20 17  1  0  0  0  0
 21 23  1  0  0  0  0
 22 26  2  0  0  0  0
 22 25  1  0  0  0  0
 23 27  1  0  0  0  0
 24 23  2  0  0  0  0
 25 21  2  0  0  0  0
 26 24  1  0  0  0  0
 27 28  2  0  0  0  0
 29 30  1  0  0  0  0
 30 31  1  0  0  0  0
 31 32  1  1  0  0  0
 31 33  1  0  0  0  0
 33 34  1  6  0  0  0
 35 33  1  0  0  0  0
 35 36  1  1  0  0  0
 35 37  1  0  0  0  0
 38 41  1  0  0  0  0
 38 37  1  0  0  0  0
 39 40  1  0  0  0  0
 41 43  2  0  0  0  0
 42 44  1  0  0  0  0
 42 45  1  0  0  0  0
 43 39  2  0  0  0  0
 44 38  1  0  0  0  0
 45 41  1  0  0  0  0
M  END
>  <MODEL>
4

>  <REMARK>
 VINA RESULT:      -6.5      1.576      2.558
  Name = 
  14 active torsions:
  status: ('A' for Active; 'I' for Inactive)
    1  A    between atoms: N_1  and  N_3
    2  A    between atoms: C_2  and  C_31
    3  A    between atoms: N_3  and  C_5
    4  A    between atoms: O_4  and  C_7
    5  A    between atoms: O_4  and  C_33
    6  A    between atoms: C_5  and  C_13
    7  A    between atoms: C_12  and  N_19
    8  A    between atoms: C_12  and  C_23
    9  A    between atoms: C_13  and  C_21
   10  A    between atoms: C_18  and  C_28
   11  A    between atoms: N_19  and  C_21
   12  A    between atoms: O_24  and  C_40
   13  A    between atoms: O_24  and  C_41
   14  A    between atoms: C_28  and  C_40
                            x       y       z     vdW  Elec       q    Type
                         _______ _______ _______ _____ _____    ______ ____

>  <TORSDO>
F 14

$$$$
=
 OpenBabel11072409003D

 45 50  0  0  1  0  0  0  0  0999 V2000
  187.8590  173.0150  138.4000 N   0  0  0  0  0  1  0  0  0  0  0  0
  189.0560  172.8850  140.5440 C   0  0  0  0  0  0  0  0  0  0  0  0
  190.0520  172.2880  141.3310 C   0  0  0  0  0  0  0  0  0  0  0  0
  188.8690  172.4390  139.2250 C   0  0  0  0  0  0  0  0  0  0  0  0
  189.6510  171.4410  138.7260 N   0  0  0  0  0  0  0  0  0  0  0  0
  190.8390  171.2620  140.7870 C   0  0  0  0  0  3  0  0  0  0  0  0
  190.6200  170.8500  139.4720 C   0  0  0  0  0  3  0  0  0  0  0  0
  190.2420  172.7260  142.6470 O   0  0  0  0  0  0  0  0  0  0  0  0
  190.7470  171.8820  143.6810 C   0  0  1  0  0  3  0  0  0  0  0  0
  192.1110  172.3410  144.1740 C   0  0  0  0  0  0  0  0  0  0  0  0
  193.9530  171.9670  143.2910 C   0  0  0  0  0  2  0  0  0  0  0  0
  193.0780  171.2140  144.3110 C   0  0  0  0  0  2  0  0  0  0  0  0
  192.9300  173.1080  143.1800 C   0  0  0  0  0  2  0  0  0  0  0  0
  190.8880  172.6630  145.0010 C   0  0  1  0  0  3  0  0  0  0  0  0
  190.5600  174.0150  144.8490 O   0  0  0  0  0  0  0  0  0  0  0  0
  190.2590  174.4560  146.1400 C   0  0  0  0  0  2  0  0  0  0  0  0
  190.6790  176.8700  147.0980 C   0  0  2  0  0  3  0  0  0  0  0  0
  191.2360  175.8250  148.0560 C   0  0  0  0  0  2  0  0  0  0  0  0
  189.2250  176.8570  147.1550 N   0  0  0  0  0  1  0  0  0  0  0  0
  191.2330  175.5490  146.5670 C   0  0  1  0  0  0  0  0  0  0  0  0
  194.0400  176.5450  144.2190 C   0  0  0  0  0  3  0  0  0  0  0  0
  192.5810  175.6250  145.9200 C   0  0  0  0  0  0  0  0  0  0  0  0
  195.1010  175.7710  144.6970 C   0  0  0  0  0  0  0  0  0  0  0  0
  194.8900  174.9030  145.7770 C   0  0  0  0  0  3  0  0  0  0  0  0
  192.7830  176.4700  144.8240 C   0  0  0  0  0  3  0  0  0  0  0  0
  193.6360  174.8290  146.3830 C   0  0  0  0  0  3  0  0  0  0  0  0
  196.4140  175.8840  144.0510 C   0  0  0  0  0  3  0  0  0  0  0  0
  196.6430  176.7660  143.1370 N   0  0  0  0  0  2  0  0  0  0  0  0
  188.1710  173.9350  141.1320 C   0  0  0  0  0  2  0  0  0  0  0  0
  188.6960  175.2580  140.8080 N   0  0  0  0  0  2  0  0  0  0  0  0
  189.0680  175.9850  142.0240 C   0  0  1  0  0  3  0  0  0  0  0  0
  190.5480  175.7870  142.3350 C   0  0  0  0  0  1  0  0  0  0  0  0
  188.6730  177.4710  141.9770 C   0  0  1  0  0  3  0  0  0  0  0  0
  187.7750  177.6870  140.9430 F   0  0  0  0  0  0  0  0  0  0  0  0
  188.0290  177.9180  143.2830 C   0  0  2  0  0  3  0  0  0  0  0  0
  188.9950  178.0550  144.2620 F   0  0  0  0  0  0  0  0  0  0  0  0
  187.0320  176.9480  143.7200 N   0  0  0  0  0  2  0  0  0  0  0  0
  185.7750  177.5760  143.6910 N   0  0  0  0  0  0  0  0  0  0  0  0
  185.5820  177.6410  147.2480 C   0  0  0  0  0  3  0  0  0  0  0  0
  186.1060  176.4280  147.5420 F   0  0  0  0  0  0  0  0  0  0  0  0
  185.2950  178.3760  144.7620 C   0  0  0  0  0  0  0  0  0  0  0  0
  183.7760  178.2820  142.8160 C   0  0  0  0  0  2  0  0  0  0  0  0
  185.4420  178.0070  146.0060 C   0  0  0  0  0  0  0  0  0  0  0  0
  185.0900  177.7290  142.4800 N   0  0  0  0  0  2  0  0  0  0  0  0
  183.9140  179.3670  144.2830 S   0  0  0  0  0  0  0  0  0  0  0  0
  1  4  1  0  0  0  0
  2 29  1  0  0  0  0
  2  3  1  0  0  0  0
  3  8  1  0  0  0  0
  4  2  2  0  0  0  0
  5  4  1  0  0  0  0
  5  7  2  0  0  0  0
  6  3  2  0  0  0  0
  7  6  1  0  0  0  0
  9  8  1  6  0  0  0
  9 10  1  0  0  0  0
  9 14  1  0  0  0  0
 10 12  1  0  0  0  0
 10 14  1  0  0  0  0
 11 12  1  0  0  0  0
 13 11  1  0  0  0  0
 13 10  1  0  0  0  0
 14 15  1  6  0  0  0
 15 16  1  0  0  0  0
 17 19  1  1  0  0  0
 17 18  1  0  0  0  0
 20 16  1  6  0  0  0
 20 17  1  0  0  0  0
 20 18  1  0  0  0  0
 21 23  2  0  0  0  0
 21 25  1  0  0  0  0
 22 26  1  0  0  0  0
 22 20  1  0  0  0  0
 23 24  1  0  0  0  0
 24 26  2  0  0  0  0
 25 22  2  0  0  0  0
 27 23  1  0  0  0  0
 28 27  2  0  0  0  0
 30 29  1  0  0  0  0
 30 31  1  0  0  0  0
 31 32  1  6  0  0  0
 33 34  1  6  0  0  0
 33 31  1  0  0  0  0
 33 35  1  0  0  0  0
 35 37  1  0  0  0  0
 35 36  1  1  0  0  0
 38 37  1  0  0  0  0
 38 41  1  0  0  0  0
 39 40  1  0  0  0  0
 41 43  2  0  0  0  0
 42 45  1  0  0  0  0
 43 39  2  0  0  0  0
 44 42  1  0  0  0  0
 44 38  1  0  0  0  0
 45 41  1  0  0  0  0
M  END
>  <MODEL>
5

>  <REMARK>
 VINA RESULT:      -6.5      2.340      4.154
  Name = 
  14 active torsions:
  status: ('A' for Active; 'I' for Inactive)
    1  A    between atoms: N_1  and  N_3
    2  A    between atoms: C_2  and  C_31
    3  A    between atoms: N_3  and  C_5
    4  A    between atoms: O_4  and  C_7
    5  A    between atoms: O_4  and  C_33
    6  A    between atoms: C_5  and  C_13
    7  A    between atoms: C_12  and  N_19
    8  A    between atoms: C_12  and  C_23
    9  A    between atoms: C_13  and  C_21
   10  A    between atoms: C_18  and  C_28
   11  A    between atoms: N_19  and  C_21
   12  A    between atoms: O_24  and  C_40
   13  A    between atoms: O_24  and  C_41
   14  A    between atoms: C_28  and  C_40
                            x       y       z     vdW  Elec       q    Type
                         _______ _______ _______ _____ _____    ______ ____

>  <TORSDO>
F 14

$$$$
=
 OpenBabel11072409003D

 45 50  0  0  1  0  0  0  0  0999 V2000
  189.7030  173.8400  140.6990 N   0  0  0  0  0  1  0  0  0  0  0  0
  191.4670  174.0250  142.4020 C   0  0  0  0  0  0  0  0  0  0  0  0
  192.8320  174.0930  142.7190 C   0  0  0  0  0  0  0  0  0  0  0  0
  191.0810  173.9220  141.0550 C   0  0  0  0  0  0  0  0  0  0  0  0
  192.0280  173.8920  140.0760 N   0  0  0  0  0  0  0  0  0  0  0  0
  193.7810  174.0580  141.6860 C   0  0  0  0  0  3  0  0  0  0  0  0
  193.3550  173.9550  140.3610 C   0  0  0  0  0  3  0  0  0  0  0  0
  193.2230  174.1940  144.0590 O   0  0  0  0  0  0  0  0  0  0  0  0
  194.2950  175.0290  144.4940 C   0  0  1  0  0  3  0  0  0  0  0  0
  194.2340  175.2990  145.9900 C   0  0  0  0  0  0  0  0  0  0  0  0
  193.0540  176.7030  146.9640 C   0  0  0  0  0  2  0  0  0  0  0  0
  194.4540  176.7350  146.3210 C   0  0  0  0  0  2  0  0  0  0  0  0
  192.8680  175.2210  146.6030 C   0  0  0  0  0  2  0  0  0  0  0  0
  195.2140  174.2720  145.4700 C   0  0  1  0  0  3  0  0  0  0  0  0
  194.7380  172.9850  145.7480 O   0  0  0  0  0  0  0  0  0  0  0  0
  195.7770  172.1310  145.3700 C   0  0  0  0  0  2  0  0  0  0  0  0
  196.0810  169.5180  145.3060 C   0  0  2  0  0  3  0  0  0  0  0  0
  194.9160  169.8860  146.2170 C   0  0  0  0  0  2  0  0  0  0  0  0
  197.3350  169.8740  145.9530 N   0  0  0  0  0  1  0  0  0  0  0  0
  195.2290  170.7530  145.0160 C   0  0  1  0  0  0  0  0  0  0  0  0
  193.8200  170.4290  141.5090 C   0  0  0  0  0  3  0  0  0  0  0  0
  194.2580  170.6180  143.8840 C   0  0  0  0  0  0  0  0  0  0  0  0
  192.4450  170.3710  141.7570 C   0  0  0  0  0  0  0  0  0  0  0  0
  191.9780  170.4610  143.0750 C   0  0  0  0  0  3  0  0  0  0  0  0
  194.7230  170.5570  142.5670 C   0  0  0  0  0  3  0  0  0  0  0  0
  192.8790  170.5860  144.1330 C   0  0  0  0  0  3  0  0  0  0  0  0
  191.5230  170.2190  140.6260 C   0  0  0  0  0  3  0  0  0  0  0  0
  191.8850  170.4890  139.4170 N   0  0  0  0  0  2  0  0  0  0  0  0
  190.4490  173.9990  143.4970 C   0  0  0  0  0  2  0  0  0  0  0  0
  190.0860  175.3650  143.8630 N   0  0  0  0  0  2  0  0  0  0  0  0
  189.2650  175.3800  145.0750 C   0  0  1  0  0  3  0  0  0  0  0  0
  189.5850  174.1760  145.9550 C   0  0  0  0  0  1  0  0  0  0  0  0
  189.3590  176.7090  145.8450 C   0  0  1  0  0  3  0  0  0  0  0  0
  190.2730  177.5480  145.2260 F   0  0  0  0  0  0  0  0  0  0  0  0
  188.0110  177.4150  145.9040 C   0  0  2  0  0  3  0  0  0  0  0  0
  187.6860  177.7010  147.2160 F   0  0  0  0  0  0  0  0  0  0  0  0
  186.9690  176.5790  145.3190 N   0  0  0  0  0  2  0  0  0  0  0  0
  186.0150  177.4240  144.7270 N   0  0  0  0  0  0  0  0  0  0  0  0
  188.0930  177.9980  141.8900 C   0  0  0  0  0  3  0  0  0  0  0  0
  189.3020  178.0940  142.4910 F   0  0  0  0  0  0  0  0  0  0  0  0
  185.9450  177.6340  143.3250 C   0  0  0  0  0  0  0  0  0  0  0  0
  184.1810  178.7950  144.6060 C   0  0  0  0  0  2  0  0  0  0  0  0
  187.0220  177.8130  142.6080 C   0  0  0  0  0  0  0  0  0  0  0  0
  184.8820  177.8220  145.4470 N   0  0  0  0  0  2  0  0  0  0  0  0
  184.4180  178.3770  142.8410 S   0  0  0  0  0  0  0  0  0  0  0  0
  1  4  1  0  0  0  0
  2  3  1  0  0  0  0
  2 29  1  0  0  0  0
  3  8  1  0  0  0  0
  4  2  2  0  0  0  0
  5  7  2  0  0  0  0
  5  4  1  0  0  0  0
  6  3  2  0  0  0  0
  7  6  1  0  0  0  0
  9  8  1  1  0  0  0
  9 14  1  0  0  0  0
  9 10  1  0  0  0  0
 10 12  1  0  0  0  0
 10 13  1  0  0  0  0
 12 11  1  0  0  0  0
 13 11  1  0  0  0  0
 14 15  1  1  0  0  0
 14 10  1  0  0  0  0
 16 15  1  0  0  0  0
 17 19  1  1  0  0  0
 17 18  1  0  0  0  0
 20 17  1  0  0  0  0
 20 16  1  1  0  0  0
 20 18  1  0  0  0  0
 21 23  2  0  0  0  0
 21 25  1  0  0  0  0
 22 26  1  0  0  0  0
 22 20  1  0  0  0  0
 23 24  1  0  0  0  0
 24 26  2  0  0  0  0
 25 22  2  0  0  0  0
 27 23  1  0  0  0  0
 28 27  2  0  0  0  0
 29 30  1  0  0  0  0
 30 31  1  0  0  0  0
 31 33  1  0  0  0  0
 31 32  1  1  0  0  0
 33 34  1  6  0  0  0
 33 35  1  0  0  0  0
 35 36  1  1  0  0  0
 37 35  1  0  0  0  0
 38 37  1  0  0  0  0
 38 44  1  0  0  0  0
 39 40  1  0  0  0  0
 39 43  2  0  0  0  0
 41 38  1  0  0  0  0
 42 44  1  0  0  0  0
 43 41  2  0  0  0  0
 45 41  1  0  0  0  0
 45 42  1  0  0  0  0
M  END
>  <MODEL>
6

>  <REMARK>
 VINA RESULT:      -6.5      2.067      4.107
  Name = 
  14 active torsions:
  status: ('A' for Active; 'I' for Inactive)
    1  A    between atoms: N_1  and  N_3
    2  A    between atoms: C_2  and  C_31
    3  A    between atoms: N_3  and  C_5
    4  A    between atoms: O_4  and  C_7
    5  A    between atoms: O_4  and  C_33
    6  A    between atoms: C_5  and  C_13
    7  A    between atoms: C_12  and  N_19
    8  A    between atoms: C_12  and  C_23
    9  A    between atoms: C_13  and  C_21
   10  A    between atoms: C_18  and  C_28
   11  A    between atoms: N_19  and  C_21
   12  A    between atoms: O_24  and  C_40
   13  A    between atoms: O_24  and  C_41
   14  A    between atoms: C_28  and  C_40
                            x       y       z     vdW  Elec       q    Type
                         _______ _______ _______ _____ _____    ______ ____

>  <TORSDO>
F 14

$$$$
=
 OpenBabel11072409003D

 45 50  0  0  1  0  0  0  0  0999 V2000
  190.0690  177.4400  142.4960 N   0  0  0  0  0  1  0  0  0  0  0  0
  190.7790  175.1760  143.1430 C   0  0  0  0  0  0  0  0  0  0  0  0
  190.4890  173.8070  143.2450 C   0  0  0  0  0  0  0  0  0  0  0  0
  189.8130  176.0420  142.6030 C   0  0  0  0  0  0  0  0  0  0  0  0
  188.6140  175.5470  142.1840 N   0  0  0  0  0  0  0  0  0  0  0  0
  189.2440  173.3320  142.8050 C   0  0  0  0  0  3  0  0  0  0  0  0
  188.3130  174.2250  142.2740 C   0  0  0  0  0  3  0  0  0  0  0  0
  191.4460  172.9400  143.7840 O   0  0  0  0  0  0  0  0  0  0  0  0
  191.6550  171.6150  143.2970 C   0  0  1  0  0  3  0  0  0  0  0  0
  193.0220  171.4560  142.6480 C   0  0  0  0  0  0  0  0  0  0  0  0
  193.5630  171.9990  140.7180 C   0  0  0  0  0  2  0  0  0  0  0  0
  192.9560  170.7310  141.3470 C   0  0  0  0  0  2  0  0  0  0  0  0
  193.6140  172.7110  142.0790 C   0  0  0  0  0  2  0  0  0  0  0  0
  192.8120  170.9340  144.0510 C   0  0  1  0  0  3  0  0  0  0  0  0
  193.4210  171.7970  144.9700 O   0  0  0  0  0  0  0  0  0  0  0  0
  194.2140  170.9680  145.7660 C   0  0  0  0  0  2  0  0  0  0  0  0
  196.7310  170.2950  146.1370 C   0  0  2  0  0  3  0  0  0  0  0  0
  196.2690  169.8460  144.7560 C   0  0  0  0  0  2  0  0  0  0  0  0
  196.1210  169.4490  147.1520 N   0  0  0  0  0  1  0  0  0  0  0  0
  195.6810  171.0990  145.3710 C   0  0  1  0  0  0  0  0  0  0  0  0
  196.3950  174.7870  144.8410 C   0  0  0  0  0  3  0  0  0  0  0  0
  196.1650  172.3760  144.7580 C   0  0  0  0  0  0  0  0  0  0  0  0
  197.0620  174.7750  143.6130 C   0  0  0  0  0  0  0  0  0  0  0  0
  197.2590  173.5580  142.9460 C   0  0  0  0  0  3  0  0  0  0  0  0
  195.9430  173.5930  145.4090 C   0  0  0  0  0  3  0  0  0  0  0  0
  196.8110  172.3650  143.5140 C   0  0  0  0  0  3  0  0  0  0  0  0
  197.5390  176.0430  143.0500 C   0  0  0  0  0  3  0  0  0  0  0  0
  197.0020  177.1710  143.3730 N   0  0  0  0  0  2  0  0  0  0  0  0
  192.0760  175.7040  143.6650 C   0  0  0  0  0  2  0  0  0  0  0  0
  191.8240  176.6140  144.7780 N   0  0  0  0  0  2  0  0  0  0  0  0
  191.1710  175.9150  145.8870 C   0  0  1  0  0  3  0  0  0  0  0  0
  192.2000  175.4710  146.9220 C   0  0  0  0  0  1  0  0  0  0  0  0
  190.0240  176.7270  146.5120 C   0  0  1  0  0  3  0  0  0  0  0  0
  189.8540  177.9150  145.8170 F   0  0  0  0  0  0  0  0  0  0  0  0
  188.7120  175.9530  146.4820 C   0  0  2  0  0  3  0  0  0  0  0  0
  188.9620  174.6100  146.2790 F   0  0  0  0  0  0  0  0  0  0  0  0
  187.8490  176.4510  145.4160 N   0  0  0  0  0  2  0  0  0  0  0  0
  186.8510  177.2470  146.0020 N   0  0  0  0  0  0  0  0  0  0  0  0
  185.9260  178.6330  142.8530 C   0  0  0  0  0  3  0  0  0  0  0  0
  187.1460  178.7850  142.2870 F   0  0  0  0  0  0  0  0  0  0  0  0
  185.7170  177.7050  145.2820 C   0  0  0  0  0  0  0  0  0  0  0  0
  185.7180  178.3420  147.6690 C   0  0  0  0  0  2  0  0  0  0  0  0
  185.8230  178.1670  144.0650 C   0  0  0  0  0  0  0  0  0  0  0  0
  186.7490  177.3380  147.3960 N   0  0  0  0  0  2  0  0  0  0  0  0
  184.4460  178.3000  146.3540 S   0  0  0  0  0  0  0  0  0  0  0  0
  1  4  1  0  0  0  0
  2  3  1  0  0  0  0
  2 29  1  0  0  0  0
  3  8  1  0  0  0  0
  4  2  2  0  0  0  0
  5  7  2  0  0  0  0
  5  4  1  0  0  0  0
  6  3  2  0  0  0  0
  7  6  1  0  0  0  0
  9  8  1  1  0  0  0
  9 14  1  0  0  0  0
 10  9  1  0  0  0  0
 10 14  1  0  0  0  0
 11 12  1  0  0  0  0
 11 13  1  0  0  0  0
 12 10  1  0  0  0  0
 13 10  1  0  0  0  0
 14 15  1  1  0  0  0
 15 16  1  0  0  0  0
 17 19  1  1  0  0  0
 18 20  1  0  0  0  0
 18 17  1  0  0  0  0
 20 16  1  1  0  0  0
 20 17  1  0  0  0  0
 21 25  1  0  0  0  0
 22 20  1  0  0  0  0
 22 25  2  0  0  0  0
 23 21  2  0  0  0  0
 24 26  2  0  0  0  0
 24 23  1  0  0  0  0
 26 22  1  0  0  0  0
 27 28  2  0  0  0  0
 27 23  1  0  0  0  0
 29 30  1  0  0  0  0
 30 31  1  0  0  0  0
 31 33  1  0  0  0  0
 31 32  1  1  0  0  0
 33 34  1  6  0  0  0
 35 36  1  6  0  0  0
 35 33  1  0  0  0  0
 37 38  1  0  0  0  0
 37 35  1  0  0  0  0
 38 44  1  0  0  0  0
 39 43  2  0  0  0  0
 40 39  1  0  0  0  0
 41 38  1  0  0  0  0
 41 45  1  0  0  0  0
 43 41  2  0  0  0  0
 44 42  1  0  0  0  0
 45 42  1  0  0  0  0
M  END
>  <MODEL>
7

>  <REMARK>
 VINA RESULT:      -6.5      1.957      3.045
  Name = 
  14 active torsions:
  status: ('A' for Active; 'I' for Inactive)
    1  A    between atoms: N_1  and  N_3
    2  A    between atoms: C_2  and  C_31
    3  A    between atoms: N_3  and  C_5
    4  A    between atoms: O_4  and  C_7
    5  A    between atoms: O_4  and  C_33
    6  A    between atoms: C_5  and  C_13
    7  A    between atoms: C_12  and  N_19
    8  A    between atoms: C_12  and  C_23
    9  A    between atoms: C_13  and  C_21
   10  A    between atoms: C_18  and  C_28
   11  A    between atoms: N_19  and  C_21
   12  A    between atoms: O_24  and  C_40
   13  A    between atoms: O_24  and  C_41
   14  A    between atoms: C_28  and  C_40
                            x       y       z     vdW  Elec       q    Type
                         _______ _______ _______ _____ _____    ______ ____

>  <TORSDO>
F 14

$$$$
=
 OpenBabel11072409003D

 45 50  0  0  1  0  0  0  0  0999 V2000
  190.0450  171.5020  140.0330 N   0  0  0  0  0  1  0  0  0  0  0  0
  188.8650  173.5350  140.7560 C   0  0  0  0  0  0  0  0  0  0  0  0
  188.1290  174.6810  140.4240 C   0  0  0  0  0  0  0  0  0  0  0  0
  189.2850  172.6700  139.7320 C   0  0  0  0  0  0  0  0  0  0  0  0
  188.9720  172.9490  138.4350 N   0  0  0  0  0  0  0  0  0  0  0  0
  187.8250  174.9390  139.0790 C   0  0  0  0  0  3  0  0  0  0  0  0
  188.2600  174.0540  138.0920 C   0  0  0  0  0  3  0  0  0  0  0  0
  187.7100  175.5480  141.4400 O   0  0  0  0  0  0  0  0  0  0  0  0
  187.5700  176.9550  141.2510 C   0  0  1  0  0  3  0  0  0  0  0  0
  186.8490  177.6170  142.4170 C   0  0  0  0  0  0  0  0  0  0  0  0
  184.8000  177.6930  142.7430 C   0  0  0  0  0  2  0  0  0  0  0  0
  185.7990  178.5750  141.9700 C   0  0  0  0  0  2  0  0  0  0  0  0
  185.9140  176.7290  143.1820 C   0  0  0  0  0  2  0  0  0  0  0  0
  188.3540  177.7300  142.3270 C   0  0  1  0  0  3  0  0  0  0  0  0
  188.9470  176.8740  143.2630 O   0  0  0  0  0  0  0  0  0  0  0  0
  189.2170  177.6860  144.3670 C   0  0  0  0  0  2  0  0  0  0  0  0
  188.8260  176.9450  146.8610 C   0  0  2  0  0  3  0  0  0  0  0  0
  188.6250  175.7590  145.9270 C   0  0  0  0  0  2  0  0  0  0  0  0
  187.7100  177.8670  146.7240 N   0  0  0  0  0  1  0  0  0  0  0  0
  189.6260  176.8350  145.5640 C   0  0  1  0  0  0  0  0  0  0  0  0
  193.3620  176.5360  144.9760 C   0  0  0  0  0  3  0  0  0  0  0  0
  191.0580  176.4260  145.7190 C   0  0  0  0  0  0  0  0  0  0  0  0
  193.7430  175.6610  145.9970 C   0  0  0  0  0  0  0  0  0  0  0  0
  192.7700  175.1500  146.8670 C   0  0  0  0  0  3  0  0  0  0  0  0
  192.0240  176.9130  144.8330 C   0  0  0  0  0  3  0  0  0  0  0  0
  191.4350  175.5280  146.7270 C   0  0  0  0  0  3  0  0  0  0  0  0
  195.1580  175.2970  146.1320 C   0  0  0  0  0  3  0  0  0  0  0  0
  195.7990  174.7110  145.1770 N   0  0  0  0  0  2  0  0  0  0  0  0
  189.2480  173.2820  142.1790 C   0  0  0  0  0  2  0  0  0  0  0  0
  190.5670  173.8500  142.4420 N   0  0  0  0  0  2  0  0  0  0  0  0
  191.0360  173.4830  143.7800 C   0  0  1  0  0  3  0  0  0  0  0  0
  190.1380  172.4100  144.3870 C   0  0  0  0  0  1  0  0  0  0  0  0
  192.5220  173.0860  143.8040 C   0  0  1  0  0  3  0  0  0  0  0  0
  192.7340  172.1110  144.7670 F   0  0  0  0  0  0  0  0  0  0  0  0
  192.9750  172.5440  142.4540 C   0  0  2  0  0  3  0  0  0  0  0  0
  193.2030  171.1840  142.5450 F   0  0  0  0  0  0  0  0  0  0  0  0
  194.1970  173.2110  142.0210 N   0  0  0  0  0  2  0  0  0  0  0  0
  193.9510  173.7940  140.7660 N   0  0  0  0  0  0  0  0  0  0  0  0
  196.0380  176.5840  141.5080 C   0  0  0  0  0  3  0  0  0  0  0  0
  195.7140  176.7910  142.8060 F   0  0  0  0  0  0  0  0  0  0  0  0
  194.8590  174.6950  140.1500 C   0  0  0  0  0  0  0  0  0  0  0  0
  192.8770  174.1660  138.7740 C   0  0  0  0  0  2  0  0  0  0  0  0
  195.4510  175.6390  140.8320 C   0  0  0  0  0  0  0  0  0  0  0  0
  192.9790  173.2540  139.9160 N   0  0  0  0  0  2  0  0  0  0  0  0
  194.5080  174.9210  138.4340 S   0  0  0  0  0  0  0  0  0  0  0  0
  2 29  1  0  0  0  0
  3  2  1  0  0  0  0
  3  8  1  0  0  0  0
  4  1  1  0  0  0  0
  4  2  2  0  0  0  0
  5  4  1  0  0  0  0
  6  3  2  0  0  0  0
  7  5  2  0  0  0  0
  7  6  1  0  0  0  0
  9  8  1  1  0  0  0
  9 14  1  0  0  0  0
  9 10  1  0  0  0  0
 10 13  1  0  0  0  0
 11 13  1  0  0  0  0
 12 10  1  0  0  0  0
 12 11  1  0  0  0  0
 14 10  1  0  0  0  0
 14 15  1  1  0  0  0
 15 16  1  0  0  0  0
 17 19  1  6  0  0  0
 18 17  1  0  0  0  0
 20 16  1  6  0  0  0
 20 22  1  0  0  0  0
 20 18  1  0  0  0  0
 20 17  1  0  0  0  0
 21 23  1  0  0  0  0
 22 26  2  0  0  0  0
 23 27  1  0  0  0  0
 23 24  2  0  0  0  0
 25 21  2  0  0  0  0
 25 22  1  0  0  0  0
 26 24  1  0  0  0  0
 28 27  2  0  0  0  0
 29 30  1  0  0  0  0
 30 31  1  0  0  0  0
 31 33  1  0  0  0  0
 31 32  1  6  0  0  0
 33 34  1  1  0  0  0
 35 36  1  1  0  0  0
 35 33  1  0  0  0  0
 37 35  1  0  0  0  0
 38 37  1  0  0  0  0
 39 40  1  0  0  0  0
 41 38  1  0  0  0  0
 41 43  2  0  0  0  0
 42 44  1  0  0  0  0
 43 39  2  0  0  0  0
 44 38  1  0  0  0  0
 45 42  1  0  0  0  0
 45 41  1  0  0  0  0
M  END
>  <MODEL>
8

>  <REMARK>
 VINA RESULT:      -6.5      3.666      7.337
  Name = 
  14 active torsions:
  status: ('A' for Active; 'I' for Inactive)
    1  A    between atoms: N_1  and  N_3
    2  A    between atoms: C_2  and  C_31
    3  A    between atoms: N_3  and  C_5
    4  A    between atoms: O_4  and  C_7
    5  A    between atoms: O_4  and  C_33
    6  A    between atoms: C_5  and  C_13
    7  A    between atoms: C_12  and  N_19
    8  A    between atoms: C_12  and  C_23
    9  A    between atoms: C_13  and  C_21
   10  A    between atoms: C_18  and  C_28
   11  A    between atoms: N_19  and  C_21
   12  A    between atoms: O_24  and  C_40
   13  A    between atoms: O_24  and  C_41
   14  A    between atoms: C_28  and  C_40
                            x       y       z     vdW  Elec       q    Type
                         _______ _______ _______ _____ _____    ______ ____

>  <TORSDO>
F 14

$$$$
=
 OpenBabel11072409003D

 45 50  0  0  1  0  0  0  0  0999 V2000
  188.7260  173.7650  139.1190 N   0  0  0  0  0  1  0  0  0  0  0  0
  190.7640  172.8910  140.1820 C   0  0  0  0  0  0  0  0  0  0  0  0
  191.6500  171.8240  140.3900 C   0  0  0  0  0  0  0  0  0  0  0  0
  189.6530  172.7050  139.3430 C   0  0  0  0  0  0  0  0  0  0  0  0
  189.4480  171.5000  138.7410 N   0  0  0  0  0  0  0  0  0  0  0  0
  191.4090  170.5950  139.7560 C   0  0  0  0  0  3  0  0  0  0  0  0
  190.2930  170.4530  138.9300 C   0  0  0  0  0  3  0  0  0  0  0  0
  192.7570  172.0020  141.2260 O   0  0  0  0  0  0  0  0  0  0  0  0
  194.0830  172.1810  140.7300 C   0  0  1  0  0  3  0  0  0  0  0  0
  194.8960  173.1220  141.6070 C   0  0  0  0  0  0  0  0  0  0  0  0
  194.8600  175.1980  141.5890 C   0  0  0  0  0  2  0  0  0  0  0  0
  195.6550  174.1300  140.8140 C   0  0  0  0  0  2  0  0  0  0  0  0
  194.1000  174.1260  142.3850 C   0  0  0  0  0  2  0  0  0  0  0  0
  195.1180  171.6320  141.7300 C   0  0  1  0  0  3  0  0  0  0  0  0
  194.5160  171.1620  142.9030 O   0  0  0  0  0  0  0  0  0  0  0  0
  195.5710  170.6620  143.6700 C   0  0  0  0  0  2  0  0  0  0  0  0
  194.9570  170.0600  146.1560 C   0  0  2  0  0  3  0  0  0  0  0  0
  196.4250  170.4560  146.0630 C   0  0  0  0  0  2  0  0  0  0  0  0
  194.7680  168.7480  145.5550 N   0  0  0  0  0  1  0  0  0  0  0  0
  195.4190  171.0890  145.1260 C   0  0  1  0  0  0  0  0  0  0  0  0
  195.8000  174.8080  145.7650 C   0  0  0  0  0  3  0  0  0  0  0  0
  195.0890  172.5140  145.4420 C   0  0  0  0  0  0  0  0  0  0  0  0
  194.4820  175.1880  146.0390 C   0  0  0  0  0  0  0  0  0  0  0  0
  193.4700  174.2180  146.0360 C   0  0  0  0  0  3  0  0  0  0  0  0
  196.1040  173.4760  145.4730 C   0  0  0  0  0  3  0  0  0  0  0  0
  193.7730  172.8880  145.7420 C   0  0  0  0  0  3  0  0  0  0  0  0
  194.1920  176.5970  146.3260 C   0  0  0  0  0  3  0  0  0  0  0  0
  194.5420  177.5380  145.5150 N   0  0  0  0  0  2  0  0  0  0  0  0
  190.9750  174.1850  140.9000 C   0  0  0  0  0  2  0  0  0  0  0  0
  190.3360  174.1300  142.2110 N   0  0  0  0  0  2  0  0  0  0  0  0
  189.6880  175.4040  142.5300 C   0  0  1  0  0  3  0  0  0  0  0  0
  188.1780  175.2220  142.6490 C   0  0  0  0  0  1  0  0  0  0  0  0
  190.2940  176.0890  143.7670 C   0  0  1  0  0  3  0  0  0  0  0  0
  191.6770  176.0040  143.7230 F   0  0  0  0  0  0  0  0  0  0  0  0
  189.8990  177.5590  143.8390 C   0  0  2  0  0  3  0  0  0  0  0  0
  190.9760  178.3540  143.4960 F   0  0  0  0  0  0  0  0  0  0  0  0
  189.4530  177.9030  145.1840 N   0  0  0  0  0  2  0  0  0  0  0  0
  188.1040  177.5260  145.3030 N   0  0  0  0  0  0  0  0  0  0  0  0
  188.9400  174.6700  147.2620 C   0  0  0  0  0  3  0  0  0  0  0  0
  190.0580  174.2550  146.6220 F   0  0  0  0  0  0  0  0  0  0  0  0
  187.6220  176.7420  146.3850 C   0  0  0  0  0  0  0  0  0  0  0  0
  185.8660  177.4690  144.8060 C   0  0  0  0  0  2  0  0  0  0  0  0
  188.2850  175.7070  146.8240 C   0  0  0  0  0  0  0  0  0  0  0  0
  187.1190  178.1870  144.5600 N   0  0  0  0  0  2  0  0  0  0  0  0
  185.8610  176.7910  146.5050 S   0  0  0  0  0  0  0  0  0  0  0  0
  1  4  1  0  0  0  0
  2  3  1  0  0  0  0
  2 29  1  0  0  0  0
  3  8  1  0  0  0  0
  4  2  2  0  0  0  0
  5  7  2  0  0  0  0
  5  4  1  0  0  0  0
  6  3  2  0  0  0  0
  7  6  1  0  0  0  0
  9  8  1  1  0  0  0
  9 10  1  0  0  0  0
  9 14  1  0  0  0  0
 10 14  1  0  0  0  0
 10 13  1  0  0  0  0
 11 13  1  0  0  0  0
 12 11  1  0  0  0  0
 12 10  1  0  0  0  0
 14 15  1  1  0  0  0
 15 16  1  0  0  0  0
 17 19  1  6  0  0  0
 18 17  1  0  0  0  0
 20 16  1  6  0  0  0
 20 22  1  0  0  0  0
 20 18  1  0  0  0  0
 20 17  1  0  0  0  0
 21 23  1  0  0  0  0
 22 25  1  0  0  0  0
 22 26  2  0  0  0  0
 23 27  1  0  0  0  0
 24 23  2  0  0  0  0
 25 21  2  0  0  0  0
 26 24  1  0  0  0  0
 28 27  2  0  0  0  0
 29 30  1  0  0  0  0
 30 31  1  0  0  0  0
 31 32  1  1  0  0  0
 31 33  1  0  0  0  0
 33 34  1  6  0  0  0
 33 35  1  0  0  0  0
 35 36  1  1  0  0  0
 35 37  1  0  0  0  0
 37 38  1  0  0  0  0
 38 41  1  0  0  0  0
 40 39  1  0  0  0  0
 41 45  1  0  0  0  0
 41 43  2  0  0  0  0
 42 45  1  0  0  0  0
 43 39  2  0  0  0  0
 44 42  1  0  0  0  0
 44 38  1  0  0  0  0
M  END
>  <MODEL>
9

>  <REMARK>
 VINA RESULT:      -6.4      1.788      2.815
  Name = 
  14 active torsions:
  status: ('A' for Active; 'I' for Inactive)
    1  A    between atoms: N_1  and  N_3
    2  A    between atoms: C_2  and  C_31
    3  A    between atoms: N_3  and  C_5
    4  A    between atoms: O_4  and  C_7
    5  A    between atoms: O_4  and  C_33
    6  A    between atoms: C_5  and  C_13
    7  A    between atoms: C_12  and  N_19
    8  A    between atoms: C_12  and  C_23
    9  A    between atoms: C_13  and  C_21
   10  A    between atoms: C_18  and  C_28
   11  A    between atoms: N_19  and  C_21
   12  A    between atoms: O_24  and  C_40
   13  A    between atoms: O_24  and  C_41
   14  A    between atoms: C_28  and  C_40
                            x       y       z     vdW  Elec       q    Type
                         _______ _______ _______ _____ _____    ______ ____

>  <TORSDO>
F 14

$$$$
