=
 OpenBabel11062419053D

 32 36  0  0  1  0  0  0  0  0999 V2000
  192.9150  174.0040  144.1180 C   0  0  2  0  0  3  0  0  0  0  0  0
  192.1510  174.1830  142.8870 C   0  0  2  0  0  3  0  0  0  0  0  0
  194.1830  176.9190  145.8080 C   0  0  0  0  0  1  0  0  0  0  0  0
  192.2720  175.3000  143.8420 N   0  0  1  0  0  0  0  0  0  0  0  0
  196.2260  174.7210  145.5760 O   0  0  0  0  0  1  0  0  0  0  0  0
  190.8630  176.6880  146.8430 C   0  0  0  0  0  3  0  0  0  0  0  0
  190.8050  173.4850  143.0550 C   0  0  1  0  0  3  0  0  0  0  0  0
  194.0910  175.5060  146.3760 C   0  0  1  0  0  3  0  0  0  0  0  0
  189.9470  174.0290  144.5630 S   0  0  0  0  0  0  0  0  0  0  0  0
  192.6790  175.0600  146.8300 C   0  0  0  0  0  2  0  0  0  0  0  0
  194.8590  174.4470  145.5520 C   0  0  1  0  0  3  0  0  0  0  0  0
  194.3930  174.2830  144.1000 C   0  0  0  0  0  2  0  0  0  0  0  0
  191.5120  175.7450  146.1470 C   0  0  0  0  0  0  0  0  0  0  0  0
  191.1120  175.4210  144.7200 C   0  0  1  0  0  3  0  0  0  0  0  0
  188.3720  174.8480  140.5490 C   0  0  0  0  0  0  0  0  0  0  0  0
  188.4540  173.9320  139.3650 C   0  0  0  0  0  3  0  0  0  0  0  0
  187.6410  175.9480  140.4700 C   0  0  0  0  0  1  0  0  0  0  0  0
  189.2260  174.6460  141.6790 N   0  0  0  0  0  0  0  0  0  0  0  0
  190.5190  171.1590  141.0330 C   0  0  0  0  0  1  0  0  0  0  0  0
  189.1430  172.6430  139.7070 C   0  0  0  0  0  3  0  0  0  0  0  0
  189.8600  172.4780  140.8210 C   0  0  0  0  0  0  0  0  0  0  0  0
  189.9410  173.5710  141.8310 C   0  0  0  0  0  0  0  0  0  0  0  0
  189.7040  177.4790  146.3080 C   0  0  0  0  0  2  0  0  0  0  0  0
  188.3740  176.9090  146.7810 C   0  0  0  0  0  2  0  0  0  0  0  0
  186.2250  177.9530  147.3770 C   0  0  0  0  0  2  0  0  0  0  0  0
  185.2670  176.4780  145.9360 O   0  0  0  0  0  0  0  0  0  0  0  0
  187.5030  177.8910  143.3900 O   0  0  0  0  0  1  0  0  0  0  0  0
  184.9590  177.4110  146.8850 N   0  0  0  0  0  2  0  0  0  0  0  0
  185.6180  176.6070  143.1920 O   0  0  0  0  0  0  0  0  0  0  0  0
  187.1990  177.7290  146.2660 C   0  0  2  0  0  3  0  0  0  0  0  0
  186.4020  176.9440  145.3620 N   0  0  0  0  0  0  0  0  0  0  0  0
  186.4790  177.1320  143.9460 C   0  0  0  0  0  0  0  0  0  0  0  0
  1 12  1  6  0  0  0
  2  7  1  0  0  0  0
  2  4  1  0  0  0  0
  2  1  1  0  0  0  0
  3  8  1  0  0  0  0
  4  1  1  0  0  0  0
  4 14  1  0  0  0  0
  7  9  1  0  0  0  0
  8 10  1  0  0  0  0
  9 14  1  0  0  0  0
 11  5  1  0  0  0  0
 11  8  1  0  0  0  0
 12 11  1  0  0  0  0
 13 10  1  0  0  0  0
 13  6  2  0  0  0  0
 14 13  1  0  0  0  0
 15 18  1  0  0  0  0
 16 20  1  0  0  0  0
 16 15  2  0  0  0  0
 17 15  1  0  0  0  0
 18 22  2  0  0  0  0
 20 21  2  0  0  0  0
 21 19  1  0  0  0  0
 21 22  1  0  0  0  0
 22  7  1  0  0  0  0
 23 24  1  0  0  0  0
 23  6  1  0  0  0  0
 26 28  1  0  0  0  0
 27 32  1  0  0  0  0
 28 25  1  0  0  0  0
 29 32  2  0  0  0  0
 30 24  1  0  0  0  0
 30 25  1  0  0  0  0
 31 26  1  0  0  0  0
 31 30  1  0  0  0  0
 32 31  1  0  0  0  0
M  END
>  <MODEL>
1

>  <REMARK>
 VINA RESULT:      -7.7      0.000      0.000
  Name = 
  4 active torsions:
  status: ('A' for Active; 'I' for Inactive)
    1  A    between atoms: C_12  and  C_16
    2  A    between atoms: C_14  and  C_29
    3  A    between atoms: C_16  and  C_30
    4  A    between atoms: C_25  and  C_30
                            x       y       z     vdW  Elec       q    Type
                         _______ _______ _______ _____ _____    ______ ____

>  <TORSDO>
F 4

$$$$
=
 OpenBabel11062419053D

 32 36  0  0  1  0  0  0  0  0999 V2000
  192.9760  173.8340  144.1450 C   0  0  2  0  0  3  0  0  0  0  0  0
  192.2800  173.9060  142.8640 C   0  0  2  0  0  3  0  0  0  0  0  0
  194.2010  176.8790  145.6240 C   0  0  0  0  0  1  0  0  0  0  0  0
  192.3700  175.1060  143.7170 N   0  0  1  0  0  0  0  0  0  0  0  0
  196.2180  174.6460  145.7050 O   0  0  0  0  0  1  0  0  0  0  0  0
  190.8290  176.7830  146.4970 C   0  0  0  0  0  3  0  0  0  0  0  0
  190.9170  173.2420  143.0230 C   0  0  1  0  0  3  0  0  0  0  0  0
  194.0570  175.5260  146.3140 C   0  0  1  0  0  3  0  0  0  0  0  0
  189.9900  173.9340  144.4270 S   0  0  0  0  0  0  0  0  0  0  0  0
  192.6170  175.1400  146.7310 C   0  0  0  0  0  2  0  0  0  0  0  0
  194.8500  174.3860  145.6330 C   0  0  1  0  0  3  0  0  0  0  0  0
  194.4580  174.0930  144.1810 C   0  0  0  0  0  2  0  0  0  0  0  0
  191.4990  175.7720  145.9270 C   0  0  0  0  0  0  0  0  0  0  0  0
  191.1670  175.3210  144.5170 C   0  0  1  0  0  3  0  0  0  0  0  0
  188.5630  174.3540  140.3240 C   0  0  0  0  0  0  0  0  0  0  0  0
  188.7550  173.3870  139.1960 C   0  0  0  0  0  3  0  0  0  0  0  0
  187.7860  175.4100  140.1490 C   0  0  0  0  0  1  0  0  0  0  0  0
  189.3620  174.2520  141.5070 N   0  0  0  0  0  0  0  0  0  0  0  0
  190.8550  170.8080  141.1130 C   0  0  0  0  0  1  0  0  0  0  0  0
  189.4850  172.1520  139.6410 C   0  0  0  0  0  3  0  0  0  0  0  0
  190.1470  172.0790  140.7990 C   0  0  0  0  0  0  0  0  0  0  0  0
  190.1180  173.2240  141.7530 C   0  0  0  0  0  0  0  0  0  0  0  0
  189.7120  177.5340  145.8310 C   0  0  0  0  0  2  0  0  0  0  0  0
  188.3570  177.1460  146.4070 C   0  0  0  0  0  2  0  0  0  0  0  0
  187.9660  177.1410  143.9760 C   0  0  0  0  0  2  0  0  0  0  0  0
  186.5370  178.8710  144.3420 O   0  0  0  0  0  0  0  0  0  0  0  0
  184.7690  176.6040  146.6260 O   0  0  0  0  0  1  0  0  0  0  0  0
  187.1470  178.1720  143.3400 N   0  0  0  0  0  2  0  0  0  0  0  0
  184.1190  178.5750  145.6600 O   0  0  0  0  0  0  0  0  0  0  0  0
  187.3300  176.9100  145.3090 C   0  0  2  0  0  3  0  0  0  0  0  0
  186.3400  177.9530  145.3200 N   0  0  0  0  0  0  0  0  0  0  0  0
  185.0350  177.7370  145.8650 C   0  0  0  0  0  0  0  0  0  0  0  0
  1 12  1  6  0  0  0
  2  7  1  0  0  0  0
  2  4  1  0  0  0  0
  2  1  1  0  0  0  0
  3  8  1  0  0  0  0
  4  1  1  0  0  0  0
  4 14  1  0  0  0  0
  7  9  1  0  0  0  0
  8 10  1  0  0  0  0
  9 14  1  0  0  0  0
 11  5  1  0  0  0  0
 11  8  1  0  0  0  0
 12 11  1  0  0  0  0
 13  6  2  0  0  0  0
 13 10  1  0  0  0  0
 14 13  1  0  0  0  0
 15 18  1  0  0  0  0
 16 20  1  0  0  0  0
 16 15  2  0  0  0  0
 17 15  1  0  0  0  0
 18 22  2  0  0  0  0
 20 21  2  0  0  0  0
 21 19  1  0  0  0  0
 21 22  1  0  0  0  0
 22  7  1  0  0  0  0
 23 24  1  0  0  0  0
 23  6  1  0  0  0  0
 25 30  1  0  0  0  0
 26 31  1  0  0  0  0
 28 25  1  0  0  0  0
 28 26  1  0  0  0  0
 29 32  2  0  0  0  0
 30 31  1  0  0  0  0
 30 24  1  0  0  0  0
 31 32  1  0  0  0  0
 32 27  1  0  0  0  0
M  END
>  <MODEL>
2

>  <REMARK>
 VINA RESULT:      -7.6      0.928      1.650
  Name = 
  4 active torsions:
  status: ('A' for Active; 'I' for Inactive)
    1  A    between atoms: C_12  and  C_16
    2  A    between atoms: C_14  and  C_29
    3  A    between atoms: C_16  and  C_30
    4  A    between atoms: C_25  and  C_30
                            x       y       z     vdW  Elec       q    Type
                         _______ _______ _______ _____ _____    ______ ____

>  <TORSDO>
F 4

$$$$
=
 OpenBabel11062419053D

 32 36  0  0  1  0  0  0  0  0999 V2000
  186.5420  177.1500  142.7430 C   0  0  2  0  0  3  0  0  0  0  0  0
  186.7590  175.9210  141.9860 C   0  0  2  0  0  3  0  0  0  0  0  0
  185.3600  176.9080  146.1350 C   0  0  0  0  0  1  0  0  0  0  0  0
  186.7470  175.8800  143.4600 N   0  0  1  0  0  0  0  0  0  0  0  0
  183.8960  178.9940  144.5330 O   0  0  0  0  0  1  0  0  0  0  0  0
  188.7950  176.3760  146.3710 C   0  0  0  0  0  3  0  0  0  0  0  0
  188.1930  175.9260  141.4680 C   0  0  1  0  0  3  0  0  0  0  0  0
  185.9520  178.1430  145.4640 C   0  0  1  0  0  3  0  0  0  0  0  0
  189.3930  176.2130  142.8040 S   0  0  0  0  0  0  0  0  0  0  0  0
  187.4930  178.1480  145.3170 C   0  0  0  0  0  2  0  0  0  0  0  0
  185.1900  178.5950  144.1960 C   0  0  1  0  0  3  0  0  0  0  0  0
  185.1310  177.5630  143.0640 C   0  0  0  0  0  2  0  0  0  0  0  0
  188.1620  176.7890  145.2650 C   0  0  0  0  0  0  0  0  0  0  0  0
  188.0880  175.9020  144.0370 C   0  0  1  0  0  3  0  0  0  0  0  0
  189.6260  172.5970  140.5050 C   0  0  0  0  0  0  0  0  0  0  0  0
  188.9820  172.2420  139.1990 C   0  0  0  0  0  3  0  0  0  0  0  0
  190.4010  171.7120  141.1100 C   0  0  0  0  0  1  0  0  0  0  0  0
  189.2540  173.7970  141.1910 N   0  0  0  0  0  0  0  0  0  0  0  0
  187.3900  175.6630  138.4900 C   0  0  0  0  0  1  0  0  0  0  0  0
  188.3230  173.4320  138.5620 C   0  0  0  0  0  3  0  0  0  0  0  0
  188.0740  174.5640  139.2260 C   0  0  0  0  0  0  0  0  0  0  0  0
  188.5250  174.7200  140.6380 C   0  0  0  0  0  0  0  0  0  0  0  0
  189.4870  175.0490  146.4980 C   0  0  0  0  0  2  0  0  0  0  0  0
  190.9570  175.2180  146.8590 C   0  0  0  0  0  2  0  0  0  0  0  0
  191.4210  173.8340  144.8760 C   0  0  0  0  0  2  0  0  0  0  0  0
  193.4010  173.3210  145.8700 O   0  0  0  0  0  0  0  0  0  0  0  0
  194.0250  176.9380  145.9370 O   0  0  0  0  0  0  0  0  0  0  0  0
  192.6090  172.9830  144.8090 N   0  0  0  0  0  2  0  0  0  0  0  0
  195.4430  175.1610  146.2010 O   0  0  0  0  0  1  0  0  0  0  0  0
  191.8550  175.0420  145.6420 C   0  0  2  0  0  3  0  0  0  0  0  0
  193.1750  174.6450  146.0500 N   0  0  0  0  0  0  0  0  0  0  0  0
  194.2620  175.5740  146.0660 C   0  0  0  0  0  0  0  0  0  0  0  0
  1 12  1  6  0  0  0
  1  4  1  0  0  0  0
  2  1  1  0  0  0  0
  2  4  1  0  0  0  0
  4 14  1  0  0  0  0
  6 23  1  0  0  0  0
  7  2  1  0  0  0  0
  7  9  1  0  0  0  0
  8  3  1  0  0  0  0
  9 14  1  0  0  0  0
 10  8  1  0  0  0  0
 11  5  1  0  0  0  0
 11  8  1  0  0  0  0
 12 11  1  0  0  0  0
 13 10  1  0  0  0  0
 13  6  2  0  0  0  0
 14 13  1  0  0  0  0
 15 17  1  0  0  0  0
 15 18  1  0  0  0  0
 16 15  2  0  0  0  0
 19 21  1  0  0  0  0
 20 16  1  0  0  0  0
 20 21  2  0  0  0  0
 21 22  1  0  0  0  0
 22 18  2  0  0  0  0
 22  7  1  0  0  0  0
 23 24  1  0  0  0  0
 25 30  1  0  0  0  0
 26 31  1  0  0  0  0
 27 32  2  0  0  0  0
 28 25  1  0  0  0  0
 28 26  1  0  0  0  0
 30 31  1  0  0  0  0
 30 24  1  0  0  0  0
 31 32  1  0  0  0  0
 32 29  1  0  0  0  0
M  END
>  <MODEL>
3

>  <REMARK>
 VINA RESULT:      -7.6      1.908      6.520
  Name = 
  4 active torsions:
  status: ('A' for Active; 'I' for Inactive)
    1  A    between atoms: C_12  and  C_16
    2  A    between atoms: C_14  and  C_29
    3  A    between atoms: C_16  and  C_30
    4  A    between atoms: C_25  and  C_30
                            x       y       z     vdW  Elec       q    Type
                         _______ _______ _______ _____ _____    ______ ____

>  <TORSDO>
F 4

$$$$
=
 OpenBabel11062419053D

 32 36  0  0  1  0  0  0  0  0999 V2000
  191.2470  176.8680  144.7590 C   0  0  2  0  0  3  0  0  0  0  0  0
  189.9580  177.1410  145.3870 C   0  0  2  0  0  3  0  0  0  0  0  0
  192.7890  173.6600  145.2970 C   0  0  0  0  0  1  0  0  0  0  0  0
  190.3880  175.7470  145.1740 N   0  0  1  0  0  0  0  0  0  0  0  0
  194.7180  175.9490  145.6060 O   0  0  0  0  0  1  0  0  0  0  0  0
  190.4840  173.1010  142.7440 C   0  0  0  0  0  3  0  0  0  0  0  0
  188.9780  177.5650  144.2980 C   0  0  1  0  0  3  0  0  0  0  0  0
  193.1780  174.6910  144.2420 C   0  0  1  0  0  3  0  0  0  0  0  0
  188.9170  176.3590  142.9380 S   0  0  0  0  0  0  0  0  0  0  0  0
  192.2510  174.7620  143.0050 C   0  0  0  0  0  2  0  0  0  0  0  0
  193.5680  176.0690  144.8250 C   0  0  1  0  0  3  0  0  0  0  0  0
  192.4710  176.7740  145.6310 C   0  0  0  0  0  2  0  0  0  0  0  0
  190.8200  174.3090  143.2170 C   0  0  0  0  0  0  0  0  0  0  0  0
  189.8110  175.1540  143.9710 C   0  0  1  0  0  3  0  0  0  0  0  0
  186.1120  177.8950  146.6930 C   0  0  0  0  0  0  0  0  0  0  0  0
  185.1140  178.7810  146.0110 C   0  0  0  0  0  3  0  0  0  0  0  0
  185.9060  177.5300  147.9480 C   0  0  0  0  0  1  0  0  0  0  0  0
  187.3680  177.6080  146.0700 N   0  0  0  0  0  0  0  0  0  0  0  0
  186.7320  178.7520  142.5300 C   0  0  0  0  0  1  0  0  0  0  0  0
  185.3990  178.9110  144.5420 C   0  0  0  0  0  3  0  0  0  0  0  0
  186.5610  178.5470  143.9950 C   0  0  0  0  0  0  0  0  0  0  0  0
  187.6180  177.9090  144.8310 C   0  0  0  0  0  0  0  0  0  0  0  0
  189.1190  172.4900  142.8910 C   0  0  0  0  0  2  0  0  0  0  0  0
  188.2630  172.7340  141.6560 C   0  0  0  0  0  2  0  0  0  0  0  0
  188.5580  174.3850  139.8540 C   0  0  0  0  0  2  0  0  0  0  0  0
  188.0980  172.6880  138.4130 O   0  0  0  0  0  0  0  0  0  0  0  0
  190.9290  170.9350  139.9600 O   0  0  0  0  0  1  0  0  0  0  0  0
  188.2790  174.0410  138.4600 N   0  0  0  0  0  2  0  0  0  0  0  0
  189.8180  170.5580  137.9940 O   0  0  0  0  0  0  0  0  0  0  0  0
  189.1110  173.1340  140.4570 C   0  0  2  0  0  3  0  0  0  0  0  0
  188.9180  172.2050  139.3770 N   0  0  0  0  0  0  0  0  0  0  0  0
  189.8940  171.2040  139.0710 C   0  0  0  0  0  0  0  0  0  0  0  0
  1  4  1  0  0  0  0
  1  2  1  0  0  0  0
  1 12  1  1  0  0  0
  4  2  1  0  0  0  0
  6 23  1  0  0  0  0
  6 13  2  0  0  0  0
  7 22  1  0  0  0  0
  7  2  1  0  0  0  0
  8 11  1  0  0  0  0
  8  3  1  0  0  0  0
  9 14  1  0  0  0  0
  9  7  1  0  0  0  0
 10 13  1  0  0  0  0
 10  8  1  0  0  0  0
 11  5  1  0  0  0  0
 11 12  1  0  0  0  0
 13 14  1  0  0  0  0
 14  4  1  0  0  0  0
 15 17  1  0  0  0  0
 16 15  2  0  0  0  0
 18 15  1  0  0  0  0
 19 21  1  0  0  0  0
 20 16  1  0  0  0  0
 21 20  2  0  0  0  0
 21 22  1  0  0  0  0
 22 18  2  0  0  0  0
 24 23  1  0  0  0  0
 25 30  1  0  0  0  0
 26 28  1  0  0  0  0
 26 31  1  0  0  0  0
 28 25  1  0  0  0  0
 29 32  2  0  0  0  0
 30 24  1  0  0  0  0
 31 30  1  0  0  0  0
 32 31  1  0  0  0  0
 32 27  1  0  0  0  0
M  END
>  <MODEL>
4

>  <REMARK>
 VINA RESULT:      -7.4      2.993      6.388
  Name = 
  4 active torsions:
  status: ('A' for Active; 'I' for Inactive)
    1  A    between atoms: C_12  and  C_16
    2  A    between atoms: C_14  and  C_29
    3  A    between atoms: C_16  and  C_30
    4  A    between atoms: C_25  and  C_30
                            x       y       z     vdW  Elec       q    Type
                         _______ _______ _______ _____ _____    ______ ____

>  <TORSDO>
F 4

$$$$
=
 OpenBabel11062419053D

 32 36  0  0  1  0  0  0  0  0999 V2000
  189.6930  176.9050  145.6110 C   0  0  2  0  0  3  0  0  0  0  0  0
  188.5010  176.8550  144.7700 C   0  0  2  0  0  3  0  0  0  0  0  0
  191.7100  173.9410  145.9340 C   0  0  0  0  0  1  0  0  0  0  0  0
  189.5830  175.8740  144.5650 N   0  0  1  0  0  0  0  0  0  0  0  0
  191.1920  175.2950  148.5710 O   0  0  0  0  0  1  0  0  0  0  0  0
  192.7440  175.3730  142.9310 C   0  0  0  0  0  3  0  0  0  0  0  0
  188.5970  177.9740  143.7380 C   0  0  1  0  0  3  0  0  0  0  0  0
  192.1040  175.3570  146.3400 C   0  0  1  0  0  3  0  0  0  0  0  0
  190.1690  177.9170  142.8260 S   0  0  0  0  0  0  0  0  0  0  0  0
  192.5150  176.2940  145.1780 C   0  0  0  0  0  2  0  0  0  0  0  0
  191.1490  176.0040  147.3710 C   0  0  1  0  0  3  0  0  0  0  0  0
  189.6940  176.1510  146.9130 C   0  0  0  0  0  2  0  0  0  0  0  0
  191.9320  175.9640  143.8180 C   0  0  0  0  0  0  0  0  0  0  0  0
  190.4810  176.2440  143.4750 C   0  0  1  0  0  3  0  0  0  0  0  0
  186.4740  177.6040  140.6700 C   0  0  0  0  0  0  0  0  0  0  0  0
  185.0720  177.8980  141.1100 C   0  0  0  0  0  3  0  0  0  0  0  0
  186.6910  177.1700  139.4390 C   0  0  0  0  0  1  0  0  0  0  0  0
  187.5430  177.5990  141.6210 N   0  0  0  0  0  0  0  0  0  0  0  0
  185.9310  179.3020  144.5790 C   0  0  0  0  0  1  0  0  0  0  0  0
  185.0410  178.5790  142.4480 C   0  0  0  0  0  3  0  0  0  0  0  0
  186.0960  178.6200  143.2650 C   0  0  0  0  0  0  0  0  0  0  0  0
  187.4020  178.0450  142.8330 C   0  0  0  0  0  0  0  0  0  0  0  0
  192.3210  174.9580  141.5500 C   0  0  0  0  0  2  0  0  0  0  0  0
  192.2880  173.4430  141.4080 C   0  0  0  0  0  2  0  0  0  0  0  0
  191.2740  171.5600  142.6270 C   0  0  0  0  0  2  0  0  0  0  0  0
  190.1860  171.0730  140.6910 O   0  0  0  0  0  0  0  0  0  0  0  0
  188.8470  174.4870  140.8730 O   0  0  0  0  0  1  0  0  0  0  0  0
  190.4320  170.5800  141.9410 N   0  0  0  0  0  2  0  0  0  0  0  0
  188.1820  172.6730  139.6450 O   0  0  0  0  0  0  0  0  0  0  0  0
  190.9890  172.8590  141.9450 C   0  0  2  0  0  3  0  0  0  0  0  0
  190.1550  172.4170  140.8600 N   0  0  0  0  0  0  0  0  0  0  0  0
  189.0240  173.1810  140.4310 C   0  0  0  0  0  0  0  0  0  0  0  0
  1 12  1  1  0  0  0
  2  1  1  0  0  0  0
  3  8  1  0  0  0  0
  4  2  1  0  0  0  0
  4  1  1  0  0  0  0
  6 13  2  0  0  0  0
  7  2  1  0  0  0  0
  8 11  1  0  0  0  0
  9 14  1  0  0  0  0
  9  7  1  0  0  0  0
 10  8  1  0  0  0  0
 11  5  1  0  0  0  0
 12 11  1  0  0  0  0
 13 10  1  0  0  0  0
 14 13  1  0  0  0  0
 14  4  1  0  0  0  0
 15 16  2  0  0  0  0
 15 18  1  0  0  0  0
 16 20  1  0  0  0  0
 17 15  1  0  0  0  0
 18 22  2  0  0  0  0
 20 21  2  0  0  0  0
 21 19  1  0  0  0  0
 22 21  1  0  0  0  0
 22  7  1  0  0  0  0
 23  6  1  0  0  0  0
 24 23  1  0  0  0  0
 24 30  1  0  0  0  0
 26 31  1  0  0  0  0
 26 28  1  0  0  0  0
 28 25  1  0  0  0  0
 29 32  2  0  0  0  0
 30 25  1  0  0  0  0
 31 30  1  0  0  0  0
 32 31  1  0  0  0  0
 32 27  1  0  0  0  0
M  END
>  <MODEL>
5

>  <REMARK>
 VINA RESULT:      -7.4      2.960      5.866
  Name = 
  4 active torsions:
  status: ('A' for Active; 'I' for Inactive)
    1  A    between atoms: C_12  and  C_16
    2  A    between atoms: C_14  and  C_29
    3  A    between atoms: C_16  and  C_30
    4  A    between atoms: C_25  and  C_30
                            x       y       z     vdW  Elec       q    Type
                         _______ _______ _______ _____ _____    ______ ____

>  <TORSDO>
F 4

$$$$
=
 OpenBabel11062419053D

 32 36  0  0  1  0  0  0  0  0999 V2000
  187.8880  177.3270  145.1740 C   0  0  2  0  0  3  0  0  0  0  0  0
  189.3350  177.5170  145.2170 C   0  0  2  0  0  3  0  0  0  0  0  0
  186.0900  178.3800  142.2380 C   0  0  0  0  0  1  0  0  0  0  0  0
  188.6400  177.4760  143.9170 N   0  0  1  0  0  0  0  0  0  0  0  0
  184.7500  179.2280  144.7950 O   0  0  0  0  0  1  0  0  0  0  0  0
  187.3690  175.2490  141.4000 C   0  0  0  0  0  3  0  0  0  0  0  0
  189.9840  176.1690  145.5140 C   0  0  1  0  0  3  0  0  0  0  0  0
  185.5660  177.4780  143.3510 C   0  0  1  0  0  3  0  0  0  0  0  0
  189.4250  174.8820  144.3580 S   0  0  0  0  0  0  0  0  0  0  0  0
  186.0630  176.0130  143.3130 C   0  0  0  0  0  2  0  0  0  0  0  0
  185.6040  178.1260  144.7550 C   0  0  1  0  0  3  0  0  0  0  0  0
  186.9960  178.5370  145.2490 C   0  0  0  0  0  2  0  0  0  0  0  0
  187.3960  175.7790  142.6300 C   0  0  0  0  0  0  0  0  0  0  0  0
  188.7120  176.1650  143.2790 C   0  0  1  0  0  3  0  0  0  0  0  0
  193.5920  176.1800  144.4920 C   0  0  0  0  0  0  0  0  0  0  0  0
  194.3520  176.6510  145.6940 C   0  0  0  0  0  3  0  0  0  0  0  0
  194.2320  176.0020  143.3480 C   0  0  0  0  0  1  0  0  0  0  0  0
  192.1620  176.1140  144.5210 N   0  0  0  0  0  0  0  0  0  0  0  0
  191.4680  176.4210  148.2180 C   0  0  0  0  0  1  0  0  0  0  0  0
  193.5150  176.5890  146.9400 C   0  0  0  0  0  3  0  0  0  0  0  0
  192.1880  176.4400  146.9150 C   0  0  0  0  0  0  0  0  0  0  0  0
  191.4790  176.2460  145.6180 C   0  0  0  0  0  0  0  0  0  0  0  0
  188.5950  174.9760  140.5750 C   0  0  0  0  0  2  0  0  0  0  0  0
  188.7960  173.4830  140.3510 C   0  0  0  0  0  2  0  0  0  0  0  0
  191.1130  173.3910  139.5250 C   0  0  0  0  0  2  0  0  0  0  0  0
  190.8890  171.1290  139.5610 O   0  0  0  0  0  0  0  0  0  0  0  0
  190.0810  171.5110  143.1220 O   0  0  0  0  0  1  0  0  0  0  0  0
  191.7300  172.1210  139.1430 N   0  0  0  0  0  2  0  0  0  0  0  0
  190.6930  169.6700  141.9060 O   0  0  0  0  0  0  0  0  0  0  0  0
  190.2200  173.0560  140.6760 C   0  0  2  0  0  3  0  0  0  0  0  0
  190.3200  171.6220  140.6870 N   0  0  0  0  0  0  0  0  0  0  0  0
  190.3770  170.8880  141.9140 C   0  0  0  0  0  0  0  0  0  0  0  0
  1  2  1  0  0  0  0
  1 12  1  1  0  0  0
  2  7  1  0  0  0  0
  3  8  1  0  0  0  0
  4  1  1  0  0  0  0
  4  2  1  0  0  0  0
  6 13  2  0  0  0  0
  7 22  1  0  0  0  0
  8 11  1  0  0  0  0
  9  7  1  0  0  0  0
 10  8  1  0  0  0  0
 11  5  1  0  0  0  0
 11 12  1  0  0  0  0
 13 14  1  0  0  0  0
 13 10  1  0  0  0  0
 14  4  1  0  0  0  0
 14  9  1  0  0  0  0
 15 18  2  0  0  0  0
 15 16  1  0  0  0  0
 16 20  2  0  0  0  0
 17 15  1  0  0  0  0
 18 22  1  0  0  0  0
 21 20  1  0  0  0  0
 21 19  1  0  0  0  0
 22 21  2  0  0  0  0
 23  6  1  0  0  0  0
 24 23  1  0  0  0  0
 24 30  1  0  0  0  0
 25 30  1  0  0  0  0
 26 31  1  0  0  0  0
 28 25  1  0  0  0  0
 28 26  1  0  0  0  0
 29 32  2  0  0  0  0
 30 31  1  0  0  0  0
 31 32  1  0  0  0  0
 32 27  1  0  0  0  0
M  END
>  <MODEL>
6

>  <REMARK>
 VINA RESULT:      -7.3      2.982      7.739
  Name = 
  4 active torsions:
  status: ('A' for Active; 'I' for Inactive)
    1  A    between atoms: C_12  and  C_16
    2  A    between atoms: C_14  and  C_29
    3  A    between atoms: C_16  and  C_30
    4  A    between atoms: C_25  and  C_30
                            x       y       z     vdW  Elec       q    Type
                         _______ _______ _______ _____ _____    ______ ____

>  <TORSDO>
F 4

$$$$
=
 OpenBabel11062419053D

 32 36  0  0  1  0  0  0  0  0999 V2000
  192.7300  173.7170  144.1080 C   0  0  2  0  0  3  0  0  0  0  0  0
  192.2780  173.5300  142.7330 C   0  0  2  0  0  3  0  0  0  0  0  0
  193.6850  177.0180  145.1820 C   0  0  0  0  0  1  0  0  0  0  0  0
  192.2180  174.8690  143.3470 N   0  0  1  0  0  0  0  0  0  0  0  0
  195.6410  174.8980  146.0410 O   0  0  0  0  0  1  0  0  0  0  0  0
  190.2100  176.9890  145.4420 C   0  0  0  0  0  3  0  0  0  0  0  0
  190.9040  172.8680  142.7680 C   0  0  1  0  0  3  0  0  0  0  0  0
  193.4110  175.8130  146.0770 C   0  0  1  0  0  3  0  0  0  0  0  0
  189.7430  173.7810  143.8280 S   0  0  0  0  0  0  0  0  0  0  0  0
  191.9170  175.4700  146.2960 C   0  0  0  0  0  2  0  0  0  0  0  0
  194.3070  174.5900  145.7760 C   0  0  1  0  0  3  0  0  0  0  0  0
  194.1830  174.0200  144.3580 C   0  0  0  0  0  2  0  0  0  0  0  0
  190.9650  175.9090  145.2000 C   0  0  0  0  0  0  0  0  0  0  0  0
  190.8920  175.1940  143.8640 C   0  0  1  0  0  3  0  0  0  0  0  0
  189.0630  173.3810  139.5420 C   0  0  0  0  0  0  0  0  0  0  0  0
  189.4680  172.2400  138.6590 C   0  0  0  0  0  3  0  0  0  0  0  0
  188.3160  174.3540  139.0460 C   0  0  0  0  0  1  0  0  0  0  0  0
  189.6360  173.5240  140.8460 N   0  0  0  0  0  0  0  0  0  0  0  0
  191.2200  170.1360  141.3490 C   0  0  0  0  0  1  0  0  0  0  0  0
  190.1210  171.1370  139.4410 C   0  0  0  0  0  3  0  0  0  0  0  0
  190.5640  171.2990  140.6900 C   0  0  0  0  0  0  0  0  0  0  0  0
  190.3490  172.5910  141.4020 C   0  0  0  0  0  0  0  0  0  0  0  0
  189.2350  177.5710  144.4570 C   0  0  0  0  0  2  0  0  0  0  0  0
  187.8280  177.0370  144.6830 C   0  0  0  0  0  2  0  0  0  0  0  0
  186.9450  177.5060  146.9330 C   0  0  0  0  0  2  0  0  0  0  0  0
  184.8800  177.1790  146.0400 O   0  0  0  0  0  0  0  0  0  0  0  0
  185.7520  179.8460  143.6720 O   0  0  0  0  0  0  0  0  0  0  0  0
  185.5210  177.3590  147.2330 N   0  0  0  0  0  2  0  0  0  0  0  0
  183.7300  178.9240  144.2230 O   0  0  0  0  0  1  0  0  0  0  0  0
  186.9940  177.9960  145.5220 C   0  0  2  0  0  3  0  0  0  0  0  0
  185.6070  177.9030  145.1550 N   0  0  0  0  0  0  0  0  0  0  0  0
  184.9830  178.9000  144.3410 C   0  0  0  0  0  0  0  0  0  0  0  0
  1 12  1  6  0  0  0
  2  7  1  0  0  0  0
  2  4  1  0  0  0  0
  2  1  1  0  0  0  0
  3  8  1  0  0  0  0
  4 14  1  0  0  0  0
  4  1  1  0  0  0  0
  7  9  1  0  0  0  0
  8 10  1  0  0  0  0
  9 14  1  0  0  0  0
 11  5  1  0  0  0  0
 11  8  1  0  0  0  0
 12 11  1  0  0  0  0
 13  6  2  0  0  0  0
 13 10  1  0  0  0  0
 14 13  1  0  0  0  0
 15 18  1  0  0  0  0
 16 20  1  0  0  0  0
 16 15  2  0  0  0  0
 17 15  1  0  0  0  0
 18 22  2  0  0  0  0
 20 21  2  0  0  0  0
 21 19  1  0  0  0  0
 21 22  1  0  0  0  0
 22  7  1  0  0  0  0
 23 24  1  0  0  0  0
 23  6  1  0  0  0  0
 24 30  1  0  0  0  0
 25 28  1  0  0  0  0
 26 28  1  0  0  0  0
 27 32  2  0  0  0  0
 29 32  1  0  0  0  0
 30 25  1  0  0  0  0
 31 30  1  0  0  0  0
 31 26  1  0  0  0  0
 32 31  1  0  0  0  0
M  END
>  <MODEL>
7

>  <REMARK>
 VINA RESULT:      -7.2      1.241      1.464
  Name = 
  4 active torsions:
  status: ('A' for Active; 'I' for Inactive)
    1  A    between atoms: C_12  and  C_16
    2  A    between atoms: C_14  and  C_29
    3  A    between atoms: C_16  and  C_30
    4  A    between atoms: C_25  and  C_30
                            x       y       z     vdW  Elec       q    Type
                         _______ _______ _______ _____ _____    ______ ____

>  <TORSDO>
F 4

$$$$
=
 OpenBabel11062419053D

 32 36  0  0  1  0  0  0  0  0999 V2000
  190.9460  174.2690  141.1600 C   0  0  2  0  0  3  0  0  0  0  0  0
  192.0130  174.1440  142.1480 C   0  0  2  0  0  3  0  0  0  0  0  0
  187.6840  172.9720  141.9620 C   0  0  0  0  0  1  0  0  0  0  0  0
  190.6050  174.0800  142.5800 N   0  0  1  0  0  0  0  0  0  0  0  0
  188.5940  172.2160  139.1950 O   0  0  0  0  0  1  0  0  0  0  0  0
  187.7770  176.1020  143.4920 C   0  0  0  0  0  3  0  0  0  0  0  0
  192.5850  175.5330  142.4110 C   0  0  1  0  0  3  0  0  0  0  0  0
  188.0320  173.9130  140.8130 C   0  0  1  0  0  3  0  0  0  0  0  0
  191.2850  176.7260  142.8490 S   0  0  0  0  0  0  0  0  0  0  0  0
  188.2520  175.3940  141.2070 C   0  0  0  0  0  2  0  0  0  0  0  0
  189.0920  173.3500  139.8380 C   0  0  1  0  0  3  0  0  0  0  0  0
  190.4530  173.0280  140.4650 C   0  0  0  0  0  2  0  0  0  0  0  0
  188.6990  175.6450  142.6330 C   0  0  0  0  0  0  0  0  0  0  0  0
  190.1130  175.3540  143.0970 C   0  0  1  0  0  3  0  0  0  0  0  0
  194.4980  176.0630  145.5920 C   0  0  0  0  0  0  0  0  0  0  0  0
  195.7800  175.3060  145.4240 C   0  0  0  0  0  3  0  0  0  0  0  0
  194.2180  176.6160  146.7610 C   0  0  0  0  0  1  0  0  0  0  0  0
  193.4970  176.0240  144.5700 N   0  0  0  0  0  0  0  0  0  0  0  0
  195.4360  174.5850  141.6690 C   0  0  0  0  0  1  0  0  0  0  0  0
  196.0260  174.9400  143.9880 C   0  0  0  0  0  3  0  0  0  0  0  0
  195.0760  175.0020  143.0520 C   0  0  0  0  0  0  0  0  0  0  0  0
  193.7220  175.5270  143.3900 C   0  0  0  0  0  0  0  0  0  0  0  0
  188.0440  176.3790  144.9440 C   0  0  0  0  0  2  0  0  0  0  0  0
  186.7520  176.4660  145.7430 C   0  0  0  0  0  2  0  0  0  0  0  0
  186.1560  178.2010  147.3850 C   0  0  0  0  0  2  0  0  0  0  0  0
  184.0610  178.1190  146.5040 O   0  0  0  0  0  0  0  0  0  0  0  0
  185.6480  178.9120  143.2890 O   0  0  0  0  0  0  0  0  0  0  0  0
  184.7730  178.6500  147.5420 N   0  0  0  0  0  2  0  0  0  0  0  0
  183.4610  179.0240  143.9570 O   0  0  0  0  0  1  0  0  0  0  0  0
  186.3040  177.9090  145.9260 C   0  0  2  0  0  3  0  0  0  0  0  0
  184.9470  178.0710  145.4800 N   0  0  0  0  0  0  0  0  0  0  0  0
  184.6430  178.6860  144.2240 C   0  0  0  0  0  0  0  0  0  0  0  0
  1 12  1  6  0  0  0
  1  2  1  0  0  0  0
  1  4  1  0  0  0  0
  2  7  1  0  0  0  0
  2  4  1  0  0  0  0
  4 14  1  0  0  0  0
  5 11  1  0  0  0  0
  6 23  1  0  0  0  0
  7  9  1  0  0  0  0
  7 22  1  0  0  0  0
  8 10  1  0  0  0  0
  8  3  1  0  0  0  0
  9 14  1  0  0  0  0
 10 13  1  0  0  0  0
 11 12  1  0  0  0  0
 11  8  1  0  0  0  0
 13 14  1  0  0  0  0
 13  6  2  0  0  0  0
 15 17  1  0  0  0  0
 16 15  1  0  0  0  0
 18 15  2  0  0  0  0
 19 21  1  0  0  0  0
 20 16  2  0  0  0  0
 21 22  2  0  0  0  0
 21 20  1  0  0  0  0
 22 18  1  0  0  0  0
 23 24  1  0  0  0  0
 24 30  1  0  0  0  0
 25 28  1  0  0  0  0
 26 28  1  0  0  0  0
 27 32  2  0  0  0  0
 29 32  1  0  0  0  0
 30 25  1  0  0  0  0
 31 30  1  0  0  0  0
 31 26  1  0  0  0  0
 32 31  1  0  0  0  0
M  END
>  <MODEL>
8

>  <REMARK>
 VINA RESULT:      -7.2      2.541      5.471
  Name = 
  4 active torsions:
  status: ('A' for Active; 'I' for Inactive)
    1  A    between atoms: C_12  and  C_16
    2  A    between atoms: C_14  and  C_29
    3  A    between atoms: C_16  and  C_30
    4  A    between atoms: C_25  and  C_30
                            x       y       z     vdW  Elec       q    Type
                         _______ _______ _______ _____ _____    ______ ____

>  <TORSDO>
F 4

$$$$
=
 OpenBabel11062419053D

 32 36  0  0  1  0  0  0  0  0999 V2000
  187.7040  176.2350  142.9020 C   0  0  2  0  0  3  0  0  0  0  0  0
  188.0320  174.9100  142.3830 C   0  0  2  0  0  3  0  0  0  0  0  0
  187.0430  176.6010  146.4210 C   0  0  0  0  0  1  0  0  0  0  0  0
  188.2220  175.2030  143.8150 N   0  0  1  0  0  0  0  0  0  0  0  0
  185.0360  178.0380  144.7000 O   0  0  0  0  0  1  0  0  0  0  0  0
  190.5190  176.6340  146.1810 C   0  0  0  0  0  3  0  0  0  0  0  0
  189.3610  175.0030  141.6410 C   0  0  1  0  0  3  0  0  0  0  0  0
  187.3140  177.7240  145.4250 C   0  0  1  0  0  3  0  0  0  0  0  0
  190.6570  175.7540  142.6710 S   0  0  0  0  0  0  0  0  0  0  0  0
  188.7960  177.9160  145.0240 C   0  0  0  0  0  2  0  0  0  0  0  0
  186.3230  177.7630  144.2380 C   0  0  1  0  0  3  0  0  0  0  0  0
  186.2970  176.5040  143.3640 C   0  0  0  0  0  2  0  0  0  0  0  0
  189.6810  176.6900  145.1360 C   0  0  0  0  0  0  0  0  0  0  0  0
  189.6030  175.5470  144.1430 C   0  0  1  0  0  3  0  0  0  0  0  0
  191.0670  171.6880  141.2420 C   0  0  0  0  0  0  0  0  0  0  0  0
  190.4410  171.0530  140.0380 C   0  0  0  0  0  3  0  0  0  0  0  0
  191.9240  170.9930  141.9720 C   0  0  0  0  0  1  0  0  0  0  0  0
  190.6000  172.9560  141.7150 N   0  0  0  0  0  0  0  0  0  0  0  0
  188.5480  174.1470  138.7800 C   0  0  0  0  0  1  0  0  0  0  0  0
  189.6740  172.0510  139.2190 C   0  0  0  0  0  3  0  0  0  0  0  0
  189.3350  173.2580  139.6790 C   0  0  0  0  0  0  0  0  0  0  0  0
  189.7860  173.7010  141.0290 C   0  0  0  0  0  0  0  0  0  0  0  0
  191.4440  175.4830  146.4550 C   0  0  0  0  0  2  0  0  0  0  0  0
  192.8870  175.8350  146.1230 C   0  0  0  0  0  2  0  0  0  0  0  0
  192.7190  173.6450  145.0120 C   0  0  0  0  0  2  0  0  0  0  0  0
  194.8290  173.2570  145.7630 O   0  0  0  0  0  0  0  0  0  0  0  0
  195.7690  176.3130  143.9580 O   0  0  0  0  0  0  0  0  0  0  0  0
  193.7710  172.6400  145.1570 N   0  0  0  0  0  2  0  0  0  0  0  0
  197.0450  174.6070  144.7950 O   0  0  0  0  0  1  0  0  0  0  0  0
  193.4350  174.9570  145.0070 C   0  0  2  0  0  3  0  0  0  0  0  0
  194.7740  174.5350  145.3160 N   0  0  0  0  0  0  0  0  0  0  0  0
  195.9090  175.1370  144.6870 C   0  0  0  0  0  0  0  0  0  0  0  0
  1 12  1  1  0  0  0
  1  4  1  0  0  0  0
  2  1  1  0  0  0  0
  2  4  1  0  0  0  0
  4 14  1  0  0  0  0
  6 23  1  0  0  0  0
  7  2  1  0  0  0  0
  7  9  1  0  0  0  0
  8  3  1  0  0  0  0
  9 14  1  0  0  0  0
 10 13  1  0  0  0  0
 10  8  1  0  0  0  0
 11  5  1  0  0  0  0
 11  8  1  0  0  0  0
 12 11  1  0  0  0  0
 13  6  2  0  0  0  0
 14 13  1  0  0  0  0
 15 18  1  0  0  0  0
 15 17  1  0  0  0  0
 16 15  2  0  0  0  0
 19 21  1  0  0  0  0
 20 21  2  0  0  0  0
 20 16  1  0  0  0  0
 21 22  1  0  0  0  0
 22  7  1  0  0  0  0
 22 18  2  0  0  0  0
 24 23  1  0  0  0  0
 25 28  1  0  0  0  0
 27 32  2  0  0  0  0
 28 26  1  0  0  0  0
 30 25  1  0  0  0  0
 30 31  1  0  0  0  0
 30 24  1  0  0  0  0
 31 26  1  0  0  0  0
 32 29  1  0  0  0  0
 32 31  1  0  0  0  0
M  END
>  <MODEL>
9

>  <REMARK>
 VINA RESULT:      -7.2      1.904      6.474
  Name = 
  4 active torsions:
  status: ('A' for Active; 'I' for Inactive)
    1  A    between atoms: C_12  and  C_16
    2  A    between atoms: C_14  and  C_29
    3  A    between atoms: C_16  and  C_30
    4  A    between atoms: C_25  and  C_30
                            x       y       z     vdW  Elec       q    Type
                         _______ _______ _______ _____ _____    ______ ____

>  <TORSDO>
F 4

$$$$
