=
 OpenBabel11062418323D

 54 63  0  0  1  0  0  0  0  0999 V2000
  193.7370  173.7670  143.9750 C   0  0  2  0  0  0  0  0  0  0  0  0
  190.4710  172.9790  141.2060 C   0  0  0  0  0  2  0  0  0  0  0  0
  190.7720  172.3950  137.4350 C   0  0  1  0  0  3  0  0  0  0  0  0
  194.1890  171.5710  142.5750 C   0  0  2  0  0  3  0  0  0  0  0  0
  194.5900  173.0270  142.9410 C   0  0  1  0  0  0  0  0  0  0  0  0
  194.3790  171.2870  141.0750 C   0  0  2  0  0  3  0  0  0  0  0  0
  193.7240  170.7230  136.0090 C   0  0  1  0  0  3  0  0  0  0  0  0
  193.7300  169.3980  136.4910 O   0  0  0  0  0  0  0  0  0  0  0  0
  193.5960  173.9510  142.5870 O   0  0  0  0  0  0  0  0  0  0  0  0
  189.7270  174.2740  141.5100 C   0  0  0  0  0  2  0  0  0  0  0  0
  193.2110  171.8500  138.8260 C   0  0  2  0  0  3  0  0  0  0  0  0
  195.7390  171.3020  140.7590 O   0  0  0  0  0  1  0  0  0  0  0  0
  190.1290  172.3470  138.8140 C   0  0  1  0  0  3  0  0  0  0  0  0
  192.5790  171.4850  144.4630 C   0  0  0  0  0  2  0  0  0  0  0  0
  192.9450  170.3160  137.2120 C   0  0  2  0  0  0  0  0  0  0  0  0
  190.8400  173.6400  144.2670 S   0  0  0  0  0  0  0  0  0  0  0  0
  191.4480  169.9570  137.0600 C   0  0  2  0  0  3  0  0  0  0  0  0
  193.5060  170.5220  138.4950 O   0  0  0  0  0  0  0  0  0  0  0  0
  195.0700  173.1740  144.3650 C   0  0  0  0  0  2  0  0  0  0  0  0
  193.6410  172.3150  140.2180 C   0  0  1  0  0  3  0  0  0  0  0  0
  190.4480  171.0890  136.7260 C   0  0  0  0  0  2  0  0  0  0  0  0
  191.1430  172.8970  139.8370 C   0  0  1  0  0  0  0  0  0  0  0  0
  190.1100  176.2120  143.1720 C   0  0  1  0  0  3  0  0  0  0  0  0
  191.6720  174.1430  139.4600 O   0  0  0  0  0  1  0  0  0  0  0  0
  191.2600  175.2300  143.4320 C   0  0  2  0  0  3  0  0  0  0  0  0
  189.5880  173.2880  137.7490 C   0  0  0  0  0  2  0  0  0  0  0  0
  192.2290  171.8220  139.9820 C   0  0  1  0  0  3  0  0  0  0  0  0
  190.6770  175.3730  142.0160 C   0  0  1  0  0  3  0  0  0  0  0  0
  192.7960  171.1270  143.0140 C   0  0  0  0  0  2  0  0  0  0  0  0
  192.5400  173.0000  144.5950 C   0  0  2  0  0  3  0  0  0  0  0  0
  190.9490  168.9780  138.0750 C   0  0  0  0  0  0  0  0  0  0  0  0
  191.8300  168.1660  138.7770 O   0  0  0  0  0  1  0  0  0  0  0  0
  189.7130  168.8740  138.2790 O   0  0  0  0  0  0  0  0  0  0  0  0
  195.3980  171.8990  135.1800 C   0  0  0  0  0  1  0  0  0  0  0  0
  194.9200  171.3490  136.3680 O   0  0  0  0  0  0  0  0  0  0  0  0
  188.7530  175.7850  143.7800 C   0  0  2  0  0  3  0  0  0  0  0  0
  187.6310  176.1850  142.9180 N   0  0  0  0  0  2  0  0  0  0  0  0
  188.0220  177.2740  142.0300 C   0  0  0  0  0  2  0  0  0  0  0  0
  186.7810  177.9530  141.4850 C   0  0  0  0  0  2  0  0  0  0  0  0
  185.5320  177.2450  141.9770 C   0  0  0  0  0  2  0  0  0  0  0  0
  184.3740  178.2220  142.0690 C   0  0  0  0  0  1  0  0  0  0  0  0
  188.5750  176.3240  145.2170 C   0  0  2  0  0  3  0  0  0  0  0  0
  184.8210  178.3530  145.7950 C   0  0  0  0  0  3  0  0  0  0  0  0
  185.9120  179.0580  145.2800 C   0  0  0  0  0  3  0  0  0  0  0  0
  184.9570  177.0020  146.1280 C   0  0  0  0  0  3  0  0  0  0  0  0
  186.1830  176.3560  145.9450 C   0  0  0  0  0  3  0  0  0  0  0  0
  187.1380  178.4130  145.0960 C   0  0  0  0  0  3  0  0  0  0  0  0
  187.2790  177.0570  145.4310 C   0  0  0  0  0  0  0  0  0  0  0  0
  189.7580  177.1280  145.6900 C   0  0  0  0  0  0  0  0  0  0  0  0
  190.4130  175.4850  147.5370 C   0  0  0  0  0  0  0  0  0  0  0  0
  191.2150  175.2310  148.4730 O   0  0  0  0  0  1  0  0  0  0  0  0
  190.5750  176.6920  146.7830 N   0  0  0  0  0  2  0  0  0  0  0  0
  189.3890  174.5880  147.2560 O   0  0  0  0  0  0  0  0  0  0  0  0
  190.0340  178.2170  145.1200 O   0  0  0  0  0  0  0  0  0  0  0  0
  1 19  1  1  0  0  0
  1 30  1  0  0  0  0
  2 10  1  0  0  0  0
  3 21  1  6  0  0  0
  3 26  1  0  0  0  0
  3 13  1  0  0  0  0
  4  5  1  0  0  0  0
  4 29  1  6  0  0  0
  5  1  1  0  0  0  0
  5 19  1  6  0  0  0
  6 12  1  6  0  0  0
  6  4  1  0  0  0  0
  7 35  1  1  0  0  0
  7  8  1  0  0  0  0
  7 15  1  0  0  0  0
  9  5  1  0  0  0  0
  9  1  1  0  0  0  0
 10 28  1  0  0  0  0
 11 18  1  1  0  0  0
 11 27  1  0  0  0  0
 11 20  1  0  0  0  0
 13 26  1  6  0  0  0
 13 22  1  0  0  0  0
 14 30  1  0  0  0  0
 15  8  1  6  0  0  0
 15 18  1  0  0  0  0
 16 30  1  0  0  0  0
 17 15  1  0  0  0  0
 17 31  1  1  0  0  0
 20  6  1  0  0  0  0
 21 17  1  0  0  0  0
 22 27  1  0  0  0  0
 22  2  1  0  0  0  0
 23 25  1  0  0  0  0
 23 36  1  0  0  0  0
 24 22  1  0  0  0  0
 25 16  1  0  0  0  0
 27 20  1  0  0  0  0
 28 23  1  0  0  0  0
 28 25  1  0  0  0  0
 29 14  1  0  0  0  0
 31 33  2  0  0  0  0
 31 32  1  0  0  0  0
 34 35  1  0  0  0  0
 36 42  1  0  0  0  0
 37 36  1  0  0  0  0
 38 37  1  0  0  0  0
 39 40  1  0  0  0  0
 39 38  1  0  0  0  0
 40 41  1  0  0  0  0
 42 48  1  0  0  0  0
 42 49  1  0  0  0  0
 43 45  1  0  0  0  0
 44 43  2  0  0  0  0
 46 45  2  0  0  0  0
 47 44  1  0  0  0  0
 47 48  2  0  0  0  0
 48 46  1  0  0  0  0
 49 52  1  0  0  0  0
 50 51  1  0  0  0  0
 52 50  1  0  0  0  0
 53 50  2  0  0  0  0
 54 49  2  0  0  0  0
M  END
>  <MODEL>
1

>  <REMARK>
 VINA RESULT:      -7.2      0.000      0.000
  Name = 
  10 active torsions:
  status: ('A' for Active; 'I' for Inactive)
    1  A    between atoms: N_1  and  C_13
    2  A    between atoms: N_1  and  C_23
    3  A    between atoms: C_9  and  C_26
    4  A    between atoms: C_10  and  O_42
    5  A    between atoms: C_11  and  C_23
    6  A    between atoms: C_11  and  C_44
    7  A    between atoms: C_13  and  C_26
    8  A    between atoms: C_13  and  C_40
    9  A    between atoms: C_22  and  C_32
   10  A    between atoms: C_26  and  C_53
                            x       y       z     vdW  Elec       q    Type
                         _______ _______ _______ _____ _____    ______ ____

>  <TORSDO>
F 10

$$$$
=
 OpenBabel11062418323D

 54 63  0  0  1  0  0  0  0  0999 V2000
  189.6140  172.2780  141.5780 C   0  0  2  0  0  0  0  0  0  0  0  0
  192.4210  174.8920  143.6350 C   0  0  0  0  0  2  0  0  0  0  0  0
  195.4410  173.8020  145.7200 C   0  0  1  0  0  3  0  0  0  0  0  0
  192.1050  171.7230  140.8910 C   0  0  2  0  0  3  0  0  0  0  0  0
  190.7790  171.2840  141.5720 C   0  0  1  0  0  0  0  0  0  0  0  0
  193.3360  171.2260  141.6680 C   0  0  2  0  0  3  0  0  0  0  0  0
  197.3380  170.7680  144.8590 C   0  0  1  0  0  3  0  0  0  0  0  0
  197.9400  170.9910  143.6040 O   0  0  0  0  0  0  0  0  0  0  0  0
  190.4660  172.0850  142.6800 O   0  0  0  0  0  0  0  0  0  0  0  0
  191.3620  175.5650  144.5010 C   0  0  0  0  0  2  0  0  0  0  0  0
  194.6210  171.8000  143.8500 C   0  0  2  0  0  3  0  0  0  0  0  0
  193.4150  169.8340  141.5900 O   0  0  0  0  0  1  0  0  0  0  0  0
  194.5740  174.7410  144.8940 C   0  0  1  0  0  3  0  0  0  0  0  0
  191.0020  173.7180  139.9090 C   0  0  0  0  0  2  0  0  0  0  0  0
  196.8620  171.8330  143.9320 C   0  0  2  0  0  0  0  0  0  0  0  0
  189.7780  175.1650  141.9380 S   0  0  0  0  0  0  0  0  0  0  0  0
  197.3670  173.2830  144.1180 C   0  0  2  0  0  3  0  0  0  0  0  0
  195.7650  171.5590  143.0800 O   0  0  0  0  0  0  0  0  0  0  0  0
  189.6330  171.1270  140.6010 C   0  0  0  0  0  2  0  0  0  0  0  0
  193.2770  171.6540  143.1340 C   0  0  1  0  0  3  0  0  0  0  0  0
  196.8930  174.0750  145.3600 C   0  0  0  0  0  2  0  0  0  0  0  0
  193.3720  173.9390  144.3580 C   0  0  1  0  0  0  0  0  0  0  0  0
  188.7900  175.3930  144.6430 C   0  0  1  0  0  3  0  0  0  0  0  0
  192.7000  173.2270  145.3670 O   0  0  0  0  0  1  0  0  0  0  0  0
  189.1940  174.4250  143.5230 C   0  0  2  0  0  3  0  0  0  0  0  0
  194.7030  174.9410  146.3960 C   0  0  0  0  0  2  0  0  0  0  0  0
  193.9270  173.0160  143.2640 C   0  0  1  0  0  3  0  0  0  0  0  0
  190.1390  174.6580  144.7140 C   0  0  1  0  0  3  0  0  0  0  0  0
  192.2470  173.2130  140.5930 C   0  0  0  0  0  2  0  0  0  0  0  0
  189.8390  173.6490  140.8880 C   0  0  2  0  0  3  0  0  0  0  0  0
  197.3990  174.0840  142.8560 C   0  0  0  0  0  0  0  0  0  0  0  0
  196.8910  175.3760  142.8160 O   0  0  0  0  0  1  0  0  0  0  0  0
  197.8720  173.5720  141.8090 O   0  0  0  0  0  0  0  0  0  0  0  0
  196.9730  168.8170  145.8260 C   0  0  0  0  0  1  0  0  0  0  0  0
  196.5290  169.6330  144.7860 O   0  0  0  0  0  0  0  0  0  0  0  0
  188.7990  176.8850  144.2350 C   0  0  2  0  0  3  0  0  0  0  0  0
  189.4600  177.7150  145.2520 N   0  0  0  0  0  2  0  0  0  0  0  0
  189.5490  177.0040  146.5240 C   0  0  0  0  0  2  0  0  0  0  0  0
  190.1520  177.9160  147.5730 C   0  0  0  0  0  2  0  0  0  0  0  0
  191.2340  177.1860  148.3480 C   0  0  0  0  0  2  0  0  0  0  0  0
  191.2350  175.7110  147.9920 C   0  0  0  0  0  1  0  0  0  0  0  0
  187.3760  177.4030  143.9280 C   0  0  2  0  0  3  0  0  0  0  0  0
  185.1670  178.5200  147.4510 C   0  0  0  0  0  3  0  0  0  0  0  0
  185.6160  177.2040  147.3090 C   0  0  0  0  0  3  0  0  0  0  0  0
  185.4260  179.4580  146.4490 C   0  0  0  0  0  3  0  0  0  0  0  0
  186.1370  179.0820  145.3050 C   0  0  0  0  0  3  0  0  0  0  0  0
  186.3260  176.8270  146.1660 C   0  0  0  0  0  3  0  0  0  0  0  0
  186.5880  177.7670  145.1560 C   0  0  0  0  0  0  0  0  0  0  0  0
  186.6040  176.4830  143.0180 C   0  0  0  0  0  0  0  0  0  0  0  0
  187.2240  177.7290  140.8730 C   0  0  0  0  0  0  0  0  0  0  0  0
  187.0980  177.7820  139.6220 O   0  0  0  0  0  0  0  0  0  0  0  0
  186.5620  176.6890  141.6010 N   0  0  0  0  0  2  0  0  0  0  0  0
  188.0060  178.6790  141.5180 O   0  0  0  0  0  1  0  0  0  0  0  0
  185.9690  175.5140  143.5120 O   0  0  0  0  0  0  0  0  0  0  0  0
  1 19  1  1  0  0  0
  1  9  1  0  0  0  0
  2 22  1  0  0  0  0
  2 10  1  0  0  0  0
  3 21  1  6  0  0  0
  3 26  1  0  0  0  0
  4 29  1  1  0  0  0
  4  5  1  0  0  0  0
  4  6  1  0  0  0  0
  5 19  1  1  0  0  0
  5  1  1  0  0  0  0
  5  9  1  0  0  0  0
  6 12  1  1  0  0  0
  6 20  1  0  0  0  0
  7 35  1  6  0  0  0
  8 15  1  0  0  0  0
  8  7  1  0  0  0  0
 10 28  1  0  0  0  0
 11 18  1  6  0  0  0
 13  3  1  0  0  0  0
 13 26  1  1  0  0  0
 14 29  1  0  0  0  0
 14 30  1  0  0  0  0
 15 18  1  6  0  0  0
 15 17  1  0  0  0  0
 15  7  1  0  0  0  0
 16 25  1  0  0  0  0
 17 31  1  6  0  0  0
 17 21  1  0  0  0  0
 20 27  1  0  0  0  0
 20 11  1  0  0  0  0
 22 13  1  0  0  0  0
 22 24  1  0  0  0  0
 23 28  1  0  0  0  0
 25 23  1  0  0  0  0
 25 28  1  0  0  0  0
 27 11  1  0  0  0  0
 27 22  1  0  0  0  0
 30  1  1  0  0  0  0
 30 16  1  0  0  0  0
 32 31  1  0  0  0  0
 33 31  2  0  0  0  0
 35 34  1  0  0  0  0
 36 23  1  0  0  0  0
 36 37  1  0  0  0  0
 37 38  1  0  0  0  0
 38 39  1  0  0  0  0
 39 40  1  0  0  0  0
 41 40  1  0  0  0  0
 42 36  1  0  0  0  0
 42 48  1  0  0  0  0
 44 43  1  0  0  0  0
 45 43  2  0  0  0  0
 46 45  1  0  0  0  0
 47 44  2  0  0  0  0
 48 46  2  0  0  0  0
 48 47  1  0  0  0  0
 49 54  2  0  0  0  0
 49 42  1  0  0  0  0
 50 53  1  0  0  0  0
 50 52  1  0  0  0  0
 51 50  2  0  0  0  0
 52 49  1  0  0  0  0
M  END
>  <MODEL>
2

>  <REMARK>
 VINA RESULT:      -7.1      2.750      6.308
  Name = 
  10 active torsions:
  status: ('A' for Active; 'I' for Inactive)
    1  A    between atoms: N_1  and  C_13
    2  A    between atoms: N_1  and  C_23
    3  A    between atoms: C_9  and  C_26
    4  A    between atoms: C_10  and  O_42
    5  A    between atoms: C_11  and  C_23
    6  A    between atoms: C_11  and  C_44
    7  A    between atoms: C_13  and  C_26
    8  A    between atoms: C_13  and  C_40
    9  A    between atoms: C_22  and  C_32
   10  A    between atoms: C_26  and  C_53
                            x       y       z     vdW  Elec       q    Type
                         _______ _______ _______ _____ _____    ______ ____

>  <TORSDO>
F 10

$$$$
=
 OpenBabel11062418323D

 54 63  0  0  1  0  0  0  0  0999 V2000
  194.5960  174.0120  145.0520 C   0  0  2  0  0  0  0  0  0  0  0  0
  191.3720  173.9320  142.1290 C   0  0  0  0  0  2  0  0  0  0  0  0
  187.6490  174.4910  142.8270 C   0  0  1  0  0  3  0  0  0  0  0  0
  193.1510  176.2210  145.1730 C   0  0  2  0  0  3  0  0  0  0  0  0
  193.6480  174.9130  145.8480 C   0  0  1  0  0  0  0  0  0  0  0  0
  191.6770  176.5110  145.5060 C   0  0  2  0  0  3  0  0  0  0  0  0
  186.5470  176.7930  145.4770 C   0  0  1  0  0  3  0  0  0  0  0  0
  186.9500  178.0900  145.1020 O   0  0  0  0  0  0  0  0  0  0  0  0
  193.2150  173.7690  145.1610 O   0  0  0  0  0  0  0  0  0  0  0  0
  191.6430  172.5030  141.6740 C   0  0  0  0  0  2  0  0  0  0  0  0
  189.3250  175.6360  144.8410 C   0  0  2  0  0  3  0  0  0  0  0  0
  191.5490  176.8170  146.8620 O   0  0  0  0  0  1  0  0  0  0  0  0
  188.9230  174.4130  141.9970 C   0  0  1  0  0  3  0  0  0  0  0  0
  194.7960  175.9580  143.3330 C   0  0  0  0  0  2  0  0  0  0  0  0
  187.6080  177.0260  144.4590 C   0  0  2  0  0  0  0  0  0  0  0  0
  194.4860  173.4440  142.1960 S   0  0  0  0  0  0  0  0  0  0  0  0
  187.2350  177.0120  142.9570 C   0  0  2  0  0  3  0  0  0  0  0  0
  188.9640  176.9890  144.8600 O   0  0  0  0  0  0  0  0  0  0  0  0
  195.1300  174.9160  146.1380 C   0  0  0  0  0  2  0  0  0  0  0  0
  190.7870  175.3180  145.1630 C   0  0  1  0  0  3  0  0  0  0  0  0
  186.8320  175.6650  142.3110 C   0  0  0  0  0  2  0  0  0  0  0  0
  190.1030  174.1440  142.9530 C   0  0  1  0  0  0  0  0  0  0  0  0
  193.4460  170.7500  142.2570 C   0  0  1  0  0  3  0  0  0  0  0  0
  189.8710  173.0540  143.8100 O   0  0  0  0  0  1  0  0  0  0  0  0
  193.8050  171.9850  143.0940 C   0  0  2  0  0  3  0  0  0  0  0  0
  187.8490  173.3470  141.8520 C   0  0  0  0  0  2  0  0  0  0  0  0
  190.3350  175.4520  143.7230 C   0  0  1  0  0  3  0  0  0  0  0  0
  192.3330  171.6760  142.7720 C   0  0  1  0  0  3  0  0  0  0  0  0
  193.3720  176.3270  143.6670 C   0  0  0  0  0  2  0  0  0  0  0  0
  195.0050  174.4810  143.6320 C   0  0  2  0  0  3  0  0  0  0  0  0
  188.1180  177.8630  142.1020 C   0  0  0  0  0  0  0  0  0  0  0  0
  187.8150  178.0880  140.7650 O   0  0  0  0  0  0  0  0  0  0  0  0
  189.1620  178.3620  142.5940 O   0  0  0  0  0  1  0  0  0  0  0  0
  186.2940  177.1530  147.6410 C   0  0  0  0  0  1  0  0  0  0  0  0
  187.0980  176.4810  146.7220 O   0  0  0  0  0  0  0  0  0  0  0  0
  193.8400  170.8510  140.7650 C   0  0  2  0  0  3  0  0  0  0  0  0
  192.9930  169.9890  139.9280 N   0  0  0  0  0  2  0  0  0  0  0  0
  192.4450  170.7370  138.8010 C   0  0  0  0  0  2  0  0  0  0  0  0
  192.5360  169.8970  137.5430 C   0  0  0  0  0  2  0  0  0  0  0  0
  193.3350  170.6250  136.4770 C   0  0  0  0  0  2  0  0  0  0  0  0
  194.5640  169.8210  136.0970 C   0  0  0  0  0  1  0  0  0  0  0  0
  195.3390  170.5450  140.5460 C   0  0  2  0  0  3  0  0  0  0  0  0
  196.9760  172.6390  137.1590 C   0  0  0  0  0  3  0  0  0  0  0  0
  197.5910  171.4660  137.6050 C   0  0  0  0  0  3  0  0  0  0  0  0
  195.8460  173.1290  137.8170 C   0  0  0  0  0  3  0  0  0  0  0  0
  195.3280  172.4460  138.9220 C   0  0  0  0  0  3  0  0  0  0  0  0
  197.0740  170.7820  138.7100 C   0  0  0  0  0  3  0  0  0  0  0  0
  195.9390  171.2720  139.3750 C   0  0  0  0  0  0  0  0  0  0  0  0
  195.6320  169.0680  140.4990 C   0  0  0  0  0  0  0  0  0  0  0  0
  197.0730  169.0640  142.6110 C   0  0  0  0  0  0  0  0  0  0  0  0
  197.7690  168.3730  143.4000 O   0  0  0  0  0  1  0  0  0  0  0  0
  196.4550  168.4320  141.4850 N   0  0  0  0  0  2  0  0  0  0  0  0
  196.9180  170.4230  142.8540 O   0  0  0  0  0  0  0  0  0  0  0  0
  195.1530  168.3710  139.5650 O   0  0  0  0  0  0  0  0  0  0  0  0
  1  9  1  0  0  0  0
  1  5  1  0  0  0  0
  1 19  1  1  0  0  0
  2 22  1  0  0  0  0
  3 26  1  6  0  0  0
  4 29  1  6  0  0  0
  4  6  1  0  0  0  0
  4  5  1  0  0  0  0
  5 19  1  1  0  0  0
  6 12  1  1  0  0  0
  7 35  1  1  0  0  0
  8  7  1  0  0  0  0
  9  5  1  0  0  0  0
 10  2  1  0  0  0  0
 10 28  1  0  0  0  0
 11 18  1  1  0  0  0
 11 20  1  0  0  0  0
 13 26  1  6  0  0  0
 13  3  1  0  0  0  0
 13 22  1  0  0  0  0
 14 30  1  0  0  0  0
 14 29  1  0  0  0  0
 15 18  1  1  0  0  0
 15  8  1  0  0  0  0
 15  7  1  0  0  0  0
 16 25  1  0  0  0  0
 16 30  1  0  0  0  0
 17 31  1  6  0  0  0
 17 15  1  0  0  0  0
 20  6  1  0  0  0  0
 21  3  1  0  0  0  0
 21 17  1  0  0  0  0
 22 27  1  0  0  0  0
 22 24  1  0  0  0  0
 23 28  1  0  0  0  0
 23 25  1  0  0  0  0
 27 11  1  0  0  0  0
 27 20  1  0  0  0  0
 28 25  1  0  0  0  0
 30  1  1  0  0  0  0
 31 33  1  0  0  0  0
 32 31  2  0  0  0  0
 35 34  1  0  0  0  0
 36 23  1  0  0  0  0
 37 36  1  0  0  0  0
 38 37  1  0  0  0  0
 39 38  1  0  0  0  0
 40 39  1  0  0  0  0
 41 40  1  0  0  0  0
 42 36  1  0  0  0  0
 43 44  2  0  0  0  0
 43 45  1  0  0  0  0
 44 47  1  0  0  0  0
 45 46  2  0  0  0  0
 46 48  1  0  0  0  0
 47 48  2  0  0  0  0
 48 42  1  0  0  0  0
 49 42  1  0  0  0  0
 49 52  1  0  0  0  0
 50 53  2  0  0  0  0
 50 51  1  0  0  0  0
 52 50  1  0  0  0  0
 54 49  2  0  0  0  0
M  END
>  <MODEL>
3

>  <REMARK>
 VINA RESULT:      -6.5      3.008      9.503
  Name = 
  10 active torsions:
  status: ('A' for Active; 'I' for Inactive)
    1  A    between atoms: N_1  and  C_13
    2  A    between atoms: N_1  and  C_23
    3  A    between atoms: C_9  and  C_26
    4  A    between atoms: C_10  and  O_42
    5  A    between atoms: C_11  and  C_23
    6  A    between atoms: C_11  and  C_44
    7  A    between atoms: C_13  and  C_26
    8  A    between atoms: C_13  and  C_40
    9  A    between atoms: C_22  and  C_32
   10  A    between atoms: C_26  and  C_53
                            x       y       z     vdW  Elec       q    Type
                         _______ _______ _______ _____ _____    ______ ____

>  <TORSDO>
F 10

$$$$
=
 OpenBabel11062418323D

 54 63  0  0  1  0  0  0  0  0999 V2000
  189.0460  172.6660  141.4670 C   0  0  2  0  0  0  0  0  0  0  0  0
  191.5910  175.4910  143.5870 C   0  0  0  0  0  2  0  0  0  0  0  0
  194.6220  174.6380  145.7640 C   0  0  1  0  0  3  0  0  0  0  0  0
  191.5900  172.2950  140.8560 C   0  0  2  0  0  3  0  0  0  0  0  0
  190.2820  171.7610  141.5010 C   0  0  1  0  0  0  0  0  0  0  0  0
  192.8330  171.8940  141.6700 C   0  0  2  0  0  3  0  0  0  0  0  0
  196.7640  171.7510  144.9760 C   0  0  1  0  0  3  0  0  0  0  0  0
  197.3840  172.0130  143.7370 O   0  0  0  0  0  0  0  0  0  0  0  0
  189.8780  172.5410  142.5950 O   0  0  0  0  0  0  0  0  0  0  0  0
  190.4600  176.0870  144.4180 C   0  0  0  0  0  2  0  0  0  0  0  0
  194.0080  172.5720  143.8840 C   0  0  2  0  0  3  0  0  0  0  0  0
  193.0180  170.5120  141.6030 O   0  0  0  0  0  1  0  0  0  0  0  0
  193.7120  175.5070  144.9070 C   0  0  1  0  0  3  0  0  0  0  0  0
  190.3700  174.1980  139.8300 C   0  0  0  0  0  2  0  0  0  0  0  0
  196.2360  172.7730  144.0290 C   0  0  2  0  0  0  0  0  0  0  0  0
  188.9850  175.5580  141.8140 S   0  0  0  0  0  0  0  0  0  0  0  0
  196.6260  174.2580  144.2200 C   0  0  2  0  0  3  0  0  0  0  0  0
  195.1890  172.4150  143.1480 O   0  0  0  0  0  0  0  0  0  0  0  0
  189.1790  171.5140  140.4990 C   0  0  0  0  0  2  0  0  0  0  0  0
  192.6990  172.3240  143.1310 C   0  0  1  0  0  3  0  0  0  0  0  0
  196.0600  175.0170  145.4430 C   0  0  0  0  0  2  0  0  0  0  0  0
  192.5880  174.6140  144.3430 C   0  0  1  0  0  0  0  0  0  0  0  0
  187.9050  175.7230  144.4880 C   0  0  1  0  0  3  0  0  0  0  0  0
  191.9430  173.8590  145.3370 O   0  0  0  0  0  1  0  0  0  0  0  0
  188.4120  174.7840  143.3860 C   0  0  2  0  0  3  0  0  0  0  0  0
  193.7820  175.7220  146.4110 C   0  0  0  0  0  2  0  0  0  0  0  0
  193.2420  173.7310  143.2710 C   0  0  1  0  0  3  0  0  0  0  0  0
  189.3010  175.0910  144.6020 C   0  0  1  0  0  3  0  0  0  0  0  0
  191.6300  173.7900  140.5520 C   0  0  0  0  0  2  0  0  0  0  0  0
  189.1890  174.0460  140.7750 C   0  0  2  0  0  3  0  0  0  0  0  0
  196.6350  175.0530  142.9550 C   0  0  0  0  0  0  0  0  0  0  0  0
  197.1880  174.5370  141.7900 O   0  0  0  0  0  0  0  0  0  0  0  0
  196.1550  176.2160  142.9510 O   0  0  0  0  0  1  0  0  0  0  0  0
  196.1990  169.9610  146.1380 C   0  0  0  0  0  1  0  0  0  0  0  0
  196.0440  170.5580  144.8880 O   0  0  0  0  0  0  0  0  0  0  0  0
  187.8140  177.2100  144.0710 C   0  0  2  0  0  3  0  0  0  0  0  0
  188.4810  178.0820  145.0480 N   0  0  0  0  0  2  0  0  0  0  0  0
  188.3860  177.5230  146.3920 C   0  0  0  0  0  2  0  0  0  0  0  0
  189.4800  178.1080  147.2630 C   0  0  0  0  0  2  0  0  0  0  0  0
  190.4730  177.0300  147.6580 C   0  0  0  0  0  2  0  0  0  0  0  0
  191.4020  177.5410  148.7440 C   0  0  0  0  0  1  0  0  0  0  0  0
  186.3520  177.6500  143.8350 C   0  0  2  0  0  3  0  0  0  0  0  0
  185.1670  177.7380  139.6960 C   0  0  0  0  0  3  0  0  0  0  0  0
  186.5110  177.5410  140.0220 C   0  0  0  0  0  3  0  0  0  0  0  0
  184.2210  177.9160  140.7090 C   0  0  0  0  0  3  0  0  0  0  0  0
  184.6190  177.8950  142.0500 C   0  0  0  0  0  3  0  0  0  0  0  0
  186.9100  177.5190  141.3620 C   0  0  0  0  0  3  0  0  0  0  0  0
  185.9630  177.6990  142.3830 C   0  0  0  0  0  0  0  0  0  0  0  0
  186.0050  178.9290  144.5510 C   0  0  0  0  0  0  0  0  0  0  0  0
  184.8920  177.7680  146.5400 C   0  0  0  0  0  0  0  0  0  0  0  0
  184.2960  177.9180  147.6380 O   0  0  0  0  0  1  0  0  0  0  0  0
  185.3150  178.9230  145.8070 N   0  0  0  0  0  2  0  0  0  0  0  0
  185.1270  176.4830  146.0650 O   0  0  0  0  0  0  0  0  0  0  0  0
  186.3160  180.0340  144.0330 O   0  0  0  0  0  0  0  0  0  0  0  0
  1 19  1  1  0  0  0
  1  5  1  0  0  0  0
  1  9  1  0  0  0  0
  2 22  1  0  0  0  0
  2 10  1  0  0  0  0
  3 21  1  6  0  0  0
  3 26  1  0  0  0  0
  4 29  1  1  0  0  0
  4  5  1  0  0  0  0
  4  6  1  0  0  0  0
  5 19  1  1  0  0  0
  5  9  1  0  0  0  0
  6 12  1  1  0  0  0
  6 20  1  0  0  0  0
  7 35  1  6  0  0  0
  8 15  1  0  0  0  0
  8  7  1  0  0  0  0
 10 28  1  0  0  0  0
 11 18  1  6  0  0  0
 13  3  1  0  0  0  0
 13 26  1  1  0  0  0
 14 29  1  0  0  0  0
 14 30  1  0  0  0  0
 15 18  1  6  0  0  0
 15 17  1  0  0  0  0
 15  7  1  0  0  0  0
 16 25  1  0  0  0  0
 17 31  1  6  0  0  0
 17 21  1  0  0  0  0
 20 27  1  0  0  0  0
 20 11  1  0  0  0  0
 22 13  1  0  0  0  0
 22 24  1  0  0  0  0
 23 28  1  0  0  0  0
 25 23  1  0  0  0  0
 25 28  1  0  0  0  0
 27 11  1  0  0  0  0
 27 22  1  0  0  0  0
 30  1  1  0  0  0  0
 30 16  1  0  0  0  0
 32 31  2  0  0  0  0
 33 31  1  0  0  0  0
 35 34  1  0  0  0  0
 36 23  1  0  0  0  0
 36 37  1  0  0  0  0
 37 38  1  0  0  0  0
 38 39  1  0  0  0  0
 39 40  1  0  0  0  0
 40 41  1  0  0  0  0
 42 36  1  0  0  0  0
 42 49  1  0  0  0  0
 43 44  2  0  0  0  0
 43 45  1  0  0  0  0
 44 47  1  0  0  0  0
 45 46  2  0  0  0  0
 46 48  1  0  0  0  0
 47 48  2  0  0  0  0
 48 42  1  0  0  0  0
 49 52  1  0  0  0  0
 50 51  1  0  0  0  0
 52 50  1  0  0  0  0
 53 50  2  0  0  0  0
 54 49  2  0  0  0  0
M  END
>  <MODEL>
4

>  <REMARK>
 VINA RESULT:      -6.5      2.833      6.330
  Name = 
  10 active torsions:
  status: ('A' for Active; 'I' for Inactive)
    1  A    between atoms: N_1  and  C_13
    2  A    between atoms: N_1  and  C_23
    3  A    between atoms: C_9  and  C_26
    4  A    between atoms: C_10  and  O_42
    5  A    between atoms: C_11  and  C_23
    6  A    between atoms: C_11  and  C_44
    7  A    between atoms: C_13  and  C_26
    8  A    between atoms: C_13  and  C_40
    9  A    between atoms: C_22  and  C_32
   10  A    between atoms: C_26  and  C_53
                            x       y       z     vdW  Elec       q    Type
                         _______ _______ _______ _____ _____    ______ ____

>  <TORSDO>
F 10

$$$$
=
 OpenBabel11062418323D

 54 63  0  0  1  0  0  0  0  0999 V2000
  190.9310  171.1600  141.8850 C   0  0  2  0  0  0  0  0  0  0  0  0
  193.3200  174.5200  140.4870 C   0  0  0  0  0  2  0  0  0  0  0  0
  196.8530  174.3500  139.0240 C   0  0  1  0  0  3  0  0  0  0  0  0
  191.7840  170.7560  139.4170 C   0  0  2  0  0  3  0  0  0  0  0  0
  191.7880  170.3430  140.9150 C   0  0  1  0  0  0  0  0  0  0  0  0
  193.1790  170.6180  138.7830 C   0  0  2  0  0  3  0  0  0  0  0  0
  197.9410  171.4480  137.0390 C   0  0  1  0  0  3  0  0  0  0  0  0
  197.1590  171.4240  135.8660 O   0  0  0  0  0  0  0  0  0  0  0  0
  192.3160  171.3490  141.7360 O   0  0  0  0  0  0  0  0  0  0  0  0
  193.3070  175.2540  141.8230 C   0  0  0  0  0  2  0  0  0  0  0  0
  195.4560  171.8640  138.8050 C   0  0  2  0  0  3  0  0  0  0  0  0
  193.5360  169.2700  138.7130 O   0  0  0  0  0  1  0  0  0  0  0  0
  195.4810  174.9450  139.3080 C   0  0  1  0  0  3  0  0  0  0  0  0
  189.8760  172.2980  139.7930 C   0  0  0  0  0  2  0  0  0  0  0  0
  196.6500  172.1850  136.9350 C   0  0  2  0  0  0  0  0  0  0  0  0
  190.5180  174.0450  141.8530 S   0  0  0  0  0  0  0  0  0  0  0  0
  196.6620  173.6860  136.5610 C   0  0  2  0  0  3  0  0  0  0  0  0
  195.4730  171.5790  137.4340 O   0  0  0  0  0  0  0  0  0  0  0  0
  190.4570  169.8140  141.3920 C   0  0  0  0  0  2  0  0  0  0  0  0
  194.2300  171.3850  139.5840 C   0  0  1  0  0  3  0  0  0  0  0  0
  197.2200  174.6970  137.5890 C   0  0  0  0  0  2  0  0  0  0  0  0
  194.6530  173.8960  140.0780 C   0  0  1  0  0  0  0  0  0  0  0  0
  192.1670  174.8150  144.0970 C   0  0  1  0  0  3  0  0  0  0  0  0
  195.3330  173.3810  141.1950 O   0  0  0  0  0  1  0  0  0  0  0  0
  191.7200  173.6560  143.1970 C   0  0  2  0  0  3  0  0  0  0  0  0
  196.7200  175.5230  139.9740 C   0  0  0  0  0  2  0  0  0  0  0  0
  194.2930  172.8050  139.0600 C   0  0  1  0  0  3  0  0  0  0  0  0
  193.1090  174.2880  143.0040 C   0  0  1  0  0  3  0  0  0  0  0  0
  191.2050  172.1310  139.1000 C   0  0  0  0  0  2  0  0  0  0  0  0
  190.1060  172.3340  141.2960 C   0  0  2  0  0  3  0  0  0  0  0  0
  195.4270  174.1470  135.8550 C   0  0  0  0  0  0  0  0  0  0  0  0
  194.6010  173.2460  135.1970 O   0  0  0  0  0  0  0  0  0  0  0  0
  195.1450  175.3730  135.8370 O   0  0  0  0  0  1  0  0  0  0  0  0
  197.9410  169.2590  136.7460 C   0  0  0  0  0  1  0  0  0  0  0  0
  197.7820  170.2410  137.7230 O   0  0  0  0  0  0  0  0  0  0  0  0
  191.4290  176.1490  143.8370 C   0  0  2  0  0  3  0  0  0  0  0  0
  192.1750  177.2900  144.3880 N   0  0  0  0  0  2  0  0  0  0  0  0
  193.1850  176.8380  145.3400 C   0  0  0  0  0  2  0  0  0  0  0  0
  194.5430  177.3690  144.9270 C   0  0  0  0  0  2  0  0  0  0  0  0
  195.5350  176.2280  144.7850 C   0  0  0  0  0  2  0  0  0  0  0  0
  196.3660  176.4050  143.5270 C   0  0  0  0  0  1  0  0  0  0  0  0
  189.9800  176.1170  144.3730 C   0  0  2  0  0  3  0  0  0  0  0  0
  187.0360  177.4510  141.5280 C   0  0  0  0  0  3  0  0  0  0  0  0
  188.2960  178.0550  141.5480 C   0  0  0  0  0  3  0  0  0  0  0  0
  186.7360  176.4300  142.4350 C   0  0  0  0  0  3  0  0  0  0  0  0
  187.6970  176.0110  143.3600 C   0  0  0  0  0  3  0  0  0  0  0  0
  189.2580  177.6360  142.4730 C   0  0  0  0  0  3  0  0  0  0  0  0
  188.9600  176.6120  143.3860 C   0  0  0  0  0  0  0  0  0  0  0  0
  189.8390  176.7920  145.7120 C   0  0  0  0  0  0  0  0  0  0  0  0
  189.2340  174.6500  146.9720 C   0  0  0  0  0  0  0  0  0  0  0  0
  188.9290  174.1420  148.0820 O   0  0  0  0  0  1  0  0  0  0  0  0
  189.4800  176.0590  146.8900 N   0  0  0  0  0  2  0  0  0  0  0  0
  189.3260  173.8330  145.8520 O   0  0  0  0  0  0  0  0  0  0  0  0
  190.0290  178.0340  145.8030 O   0  0  0  0  0  0  0  0  0  0  0  0
  1 19  1  1  0  0  0
  2 10  1  0  0  0  0
  3 21  1  6  0  0  0
  3 13  1  0  0  0  0
  3 26  1  0  0  0  0
  4 29  1  1  0  0  0
  4  5  1  0  0  0  0
  5 19  1  1  0  0  0
  5  9  1  0  0  0  0
  5  1  1  0  0  0  0
  6 12  1  1  0  0  0
  6  4  1  0  0  0  0
  6 20  1  0  0  0  0
  7 35  1  1  0  0  0
  8  7  1  0  0  0  0
  9  1  1  0  0  0  0
 10 28  1  0  0  0  0
 11 18  1  6  0  0  0
 11 27  1  0  0  0  0
 11 20  1  0  0  0  0
 13 26  1  1  0  0  0
 13 22  1  0  0  0  0
 14 30  1  0  0  0  0
 15  8  1  6  0  0  0
 15  7  1  0  0  0  0
 15 18  1  0  0  0  0
 16 25  1  0  0  0  0
 17 31  1  1  0  0  0
 17 15  1  0  0  0  0
 17 21  1  0  0  0  0
 22  2  1  0  0  0  0
 22 24  1  0  0  0  0
 25 23  1  0  0  0  0
 27 20  1  0  0  0  0
 27 22  1  0  0  0  0
 28 25  1  0  0  0  0
 28 23  1  0  0  0  0
 29 14  1  0  0  0  0
 30 16  1  0  0  0  0
 30  1  1  0  0  0  0
 32 31  2  0  0  0  0
 33 31  1  0  0  0  0
 34 35  1  0  0  0  0
 36 23  1  0  0  0  0
 36 42  1  0  0  0  0
 36 37  1  0  0  0  0
 37 38  1  0  0  0  0
 39 38  1  0  0  0  0
 40 39  1  0  0  0  0
 41 40  1  0  0  0  0
 42 49  1  0  0  0  0
 43 44  2  0  0  0  0
 43 45  1  0  0  0  0
 44 47  1  0  0  0  0
 45 46  2  0  0  0  0
 46 48  1  0  0  0  0
 47 48  2  0  0  0  0
 48 42  1  0  0  0  0
 49 54  2  0  0  0  0
 49 52  1  0  0  0  0
 50 51  1  0  0  0  0
 52 50  1  0  0  0  0
 53 50  2  0  0  0  0
M  END
>  <MODEL>
5

>  <REMARK>
 VINA RESULT:      -6.4      2.332      4.892
  Name = 
  10 active torsions:
  status: ('A' for Active; 'I' for Inactive)
    1  A    between atoms: N_1  and  C_13
    2  A    between atoms: N_1  and  C_23
    3  A    between atoms: C_9  and  C_26
    4  A    between atoms: C_10  and  O_42
    5  A    between atoms: C_11  and  C_23
    6  A    between atoms: C_11  and  C_44
    7  A    between atoms: C_13  and  C_26
    8  A    between atoms: C_13  and  C_40
    9  A    between atoms: C_22  and  C_32
   10  A    between atoms: C_26  and  C_53
                            x       y       z     vdW  Elec       q    Type
                         _______ _______ _______ _____ _____    ______ ____

>  <TORSDO>
F 10

$$$$
=
 OpenBabel11062418323D

 54 63  0  0  1  0  0  0  0  0999 V2000
  194.4270  174.2220  145.3870 C   0  0  2  0  0  0  0  0  0  0  0  0
  191.3370  174.0470  142.3260 C   0  0  0  0  0  2  0  0  0  0  0  0
  187.5750  174.5120  142.8570 C   0  0  1  0  0  3  0  0  0  0  0  0
  192.9220  176.3940  145.4340 C   0  0  2  0  0  3  0  0  0  0  0  0
  193.4220  175.1020  146.1360 C   0  0  1  0  0  0  0  0  0  0  0  0
  191.4280  176.6470  145.7000 C   0  0  2  0  0  3  0  0  0  0  0  0
  186.2980  176.7960  145.4450 C   0  0  1  0  0  3  0  0  0  0  0  0
  186.6840  178.1010  145.0810 O   0  0  0  0  0  0  0  0  0  0  0  0
  193.0490  173.9450  145.4370 O   0  0  0  0  0  0  0  0  0  0  0  0
  191.6650  172.6230  141.8910 C   0  0  0  0  0  2  0  0  0  0  0  0
  189.1310  175.7090  144.9370 C   0  0  2  0  0  3  0  0  0  0  0  0
  191.2330  176.9550  147.0480 O   0  0  0  0  0  1  0  0  0  0  0  0
  188.8860  174.4630  142.0850 C   0  0  1  0  0  3  0  0  0  0  0  0
  194.6520  176.1660  143.6680 C   0  0  0  0  0  2  0  0  0  0  0  0
  187.3970  177.0520  144.4720 C   0  0  2  0  0  0  0  0  0  0  0  0
  194.4570  173.6400  142.5320 S   0  0  0  0  0  0  0  0  0  0  0  0
  187.0900  177.0220  142.9560 C   0  0  2  0  0  3  0  0  0  0  0  0
  188.7340  177.0510  144.9330 O   0  0  0  0  0  0  0  0  0  0  0  0
  194.8890  175.1440  146.4910 C   0  0  0  0  0  2  0  0  0  0  0  0
  190.5840  175.4300  145.3240 C   0  0  1  0  0  3  0  0  0  0  0  0
  186.7510  175.6620  142.3000 C   0  0  0  0  0  2  0  0  0  0  0  0
  190.0290  174.2290  143.0930 C   0  0  1  0  0  0  0  0  0  0  0  0
  193.4860  170.9200  142.5620 C   0  0  1  0  0  3  0  0  0  0  0  0
  189.7880  173.1370  143.9440 O   0  0  0  0  0  1  0  0  0  0  0  0
  193.7750  172.1670  143.4070 C   0  0  2  0  0  3  0  0  0  0  0  0
  187.8470  173.3690  141.8990 C   0  0  0  0  0  2  0  0  0  0  0  0
  190.1930  175.5460  143.8650 C   0  0  1  0  0  3  0  0  0  0  0  0
  192.3270  171.8190  143.0230 C   0  0  1  0  0  3  0  0  0  0  0  0
  193.2060  176.5000  143.9380 C   0  0  0  0  0  2  0  0  0  0  0  0
  194.8860  174.6960  143.9840 C   0  0  2  0  0  3  0  0  0  0  0  0
  187.9880  177.8920  142.1360 C   0  0  0  0  0  0  0  0  0  0  0  0
  189.0740  178.5390  142.7090 O   0  0  0  0  0  1  0  0  0  0  0  0
  187.7410  178.0580  140.9140 O   0  0  0  0  0  0  0  0  0  0  0  0
  185.9590  177.1830  147.5920 C   0  0  0  0  0  1  0  0  0  0  0  0
  186.8020  176.5030  146.7140 O   0  0  0  0  0  0  0  0  0  0  0  0
  193.9420  171.0250  141.0880 C   0  0  2  0  0  3  0  0  0  0  0  0
  192.8990  170.5450  140.1690 N   0  0  0  0  0  2  0  0  0  0  0  0
  193.1710  170.9820  138.8030 C   0  0  0  0  0  2  0  0  0  0  0  0
  192.9670  172.4800  138.7000 C   0  0  0  0  0  2  0  0  0  0  0  0
  191.8620  172.7960  137.7090 C   0  0  0  0  0  2  0  0  0  0  0  0
  190.5890  173.1820  138.4420 C   0  0  0  0  0  1  0  0  0  0  0  0
  195.2800  170.2900  140.8490 C   0  0  2  0  0  3  0  0  0  0  0  0
  197.2640  168.9700  144.4350 C   0  0  0  0  0  3  0  0  0  0  0  0
  196.2730  168.1680  143.8620 C   0  0  0  0  0  3  0  0  0  0  0  0
  197.5960  170.1950  143.8500 C   0  0  0  0  0  3  0  0  0  0  0  0
  196.9390  170.6180  142.6900 C   0  0  0  0  0  3  0  0  0  0  0  0
  195.6160  168.5900  142.7030 C   0  0  0  0  0  3  0  0  0  0  0  0
  195.9450  169.8200  142.1130 C   0  0  0  0  0  0  0  0  0  0  0  0
  196.2260  171.0700  139.9740 C   0  0  0  0  0  0  0  0  0  0  0  0
  196.8140  169.0890  138.4680 C   0  0  0  0  0  0  0  0  0  0  0  0
  197.4870  168.6890  137.4830 O   0  0  0  0  0  0  0  0  0  0  0  0
  196.9210  170.4550  138.8820 N   0  0  0  0  0  2  0  0  0  0  0  0
  195.9810  168.1950  139.1310 O   0  0  0  0  0  1  0  0  0  0  0  0
  196.4230  172.2920  140.2100 O   0  0  0  0  0  0  0  0  0  0  0  0
  1  9  1  0  0  0  0
  1  5  1  0  0  0  0
  1 19  1  1  0  0  0
  2 22  1  0  0  0  0
  3 26  1  6  0  0  0
  4 29  1  6  0  0  0
  4  6  1  0  0  0  0
  4  5  1  0  0  0  0
  5 19  1  1  0  0  0
  6 12  1  1  0  0  0
  7 35  1  1  0  0  0
  8  7  1  0  0  0  0
  9  5  1  0  0  0  0
 10  2  1  0  0  0  0
 10 28  1  0  0  0  0
 11 18  1  1  0  0  0
 11 20  1  0  0  0  0
 13 26  1  6  0  0  0
 13  3  1  0  0  0  0
 13 22  1  0  0  0  0
 14 29  1  0  0  0  0
 14 30  1  0  0  0  0
 15 18  1  1  0  0  0
 15  8  1  0  0  0  0
 15  7  1  0  0  0  0
 16 25  1  0  0  0  0
 16 30  1  0  0  0  0
 17 31  1  6  0  0  0
 17 15  1  0  0  0  0
 20  6  1  0  0  0  0
 21  3  1  0  0  0  0
 21 17  1  0  0  0  0
 22 27  1  0  0  0  0
 22 24  1  0  0  0  0
 23 28  1  0  0  0  0
 23 25  1  0  0  0  0
 27 11  1  0  0  0  0
 27 20  1  0  0  0  0
 28 25  1  0  0  0  0
 30  1  1  0  0  0  0
 31 32  1  0  0  0  0
 33 31  2  0  0  0  0
 35 34  1  0  0  0  0
 36 23  1  0  0  0  0
 37 36  1  0  0  0  0
 38 37  1  0  0  0  0
 39 38  1  0  0  0  0
 40 41  1  0  0  0  0
 40 39  1  0  0  0  0
 42 36  1  0  0  0  0
 42 48  1  0  0  0  0
 44 43  1  0  0  0  0
 45 43  2  0  0  0  0
 46 45  1  0  0  0  0
 47 44  2  0  0  0  0
 48 46  2  0  0  0  0
 48 47  1  0  0  0  0
 49 54  2  0  0  0  0
 49 42  1  0  0  0  0
 50 52  1  0  0  0  0
 50 53  1  0  0  0  0
 51 50  2  0  0  0  0
 52 49  1  0  0  0  0
M  END
>  <MODEL>
6

>  <REMARK>
 VINA RESULT:      -6.3      3.081      9.422
  Name = 
  10 active torsions:
  status: ('A' for Active; 'I' for Inactive)
    1  A    between atoms: N_1  and  C_13
    2  A    between atoms: N_1  and  C_23
    3  A    between atoms: C_9  and  C_26
    4  A    between atoms: C_10  and  O_42
    5  A    between atoms: C_11  and  C_23
    6  A    between atoms: C_11  and  C_44
    7  A    between atoms: C_13  and  C_26
    8  A    between atoms: C_13  and  C_40
    9  A    between atoms: C_22  and  C_32
   10  A    between atoms: C_26  and  C_53
                            x       y       z     vdW  Elec       q    Type
                         _______ _______ _______ _____ _____    ______ ____

>  <TORSDO>
F 10

$$$$
=
 OpenBabel11062418323D

 54 63  0  0  1  0  0  0  0  0999 V2000
  193.1600  176.8390  144.8330 C   0  0  2  0  0  0  0  0  0  0  0  0
  191.5850  172.9350  143.7260 C   0  0  0  0  0  2  0  0  0  0  0  0
  193.4380  170.1920  141.8030 C   0  0  1  0  0  3  0  0  0  0  0  0
  194.7600  174.9030  145.6540 C   0  0  2  0  0  3  0  0  0  0  0  0
  194.5220  176.1440  144.7510 C   0  0  1  0  0  0  0  0  0  0  0  0
  195.5750  173.8170  144.9300 C   0  0  2  0  0  3  0  0  0  0  0  0
  197.0700  169.7390  142.1840 C   0  0  1  0  0  3  0  0  0  0  0  0
  197.3070  169.3440  143.5170 O   0  0  0  0  0  0  0  0  0  0  0  0
  193.4980  175.9270  143.8170 O   0  0  0  0  0  0  0  0  0  0  0  0
  190.4180  173.4900  142.9160 C   0  0  0  0  0  2  0  0  0  0  0  0
  195.2190  172.0260  143.0850 C   0  0  2  0  0  3  0  0  0  0  0  0
  196.8770  174.2700  144.7100 O   0  0  0  0  0  1  0  0  0  0  0  0
  192.3750  170.7930  142.7130 C   0  0  1  0  0  3  0  0  0  0  0  0
  192.6750  175.3600  146.9210 C   0  0  0  0  0  2  0  0  0  0  0  0
  196.0660  169.9570  143.2630 C   0  0  2  0  0  0  0  0  0  0  0  0
  190.5590  175.5620  145.1350 S   0  0  0  0  0  0  0  0  0  0  0  0
  194.9250  168.9300  143.4570 C   0  0  2  0  0  3  0  0  0  0  0  0
  196.0130  171.2160  143.9060 O   0  0  0  0  0  0  0  0  0  0  0  0
  194.3640  177.4280  145.5290 C   0  0  0  0  0  2  0  0  0  0  0  0
  194.9310  173.4380  143.5970 C   0  0  1  0  0  3  0  0  0  0  0  0
  193.8250  168.8370  142.3740 C   0  0  0  0  0  2  0  0  0  0  0  0
  192.7090  172.2840  142.9220 C   0  0  1  0  0  0  0  0  0  0  0  0
  189.5310  175.8700  142.4530 C   0  0  1  0  0  3  0  0  0  0  0  0
  192.9250  172.9670  141.7130 O   0  0  0  0  0  1  0  0  0  0  0  0
  190.7440  176.0680  143.3720 C   0  0  2  0  0  3  0  0  0  0  0  0
  192.0080  170.3200  141.3160 C   0  0  0  0  0  2  0  0  0  0  0  0
  193.9370  172.3210  143.8420 C   0  0  1  0  0  3  0  0  0  0  0  0
  190.7190  174.8980  142.3730 C   0  0  1  0  0  3  0  0  0  0  0  0
  193.5170  174.2820  146.2860 C   0  0  0  0  0  2  0  0  0  0  0  0
  192.1200  176.2610  145.8280 C   0  0  2  0  0  3  0  0  0  0  0  0
  194.4150  168.8440  144.8590 C   0  0  0  0  0  0  0  0  0  0  0  0
  195.2540  169.0750  145.9410 O   0  0  0  0  0  1  0  0  0  0  0  0
  193.2130  168.5350  145.0630 O   0  0  0  0  0  0  0  0  0  0  0  0
  197.8810  170.9490  140.5240 C   0  0  0  0  0  1  0  0  0  0  0  0
  197.7860  170.9070  141.9150 O   0  0  0  0  0  0  0  0  0  0  0  0
  188.2500  175.3910  143.1770 C   0  0  2  0  0  3  0  0  0  0  0  0
  187.5360  174.3770  142.3880 N   0  0  0  0  0  2  0  0  0  0  0  0
  188.0340  174.3420  141.0170 C   0  0  0  0  0  2  0  0  0  0  0  0
  187.8160  172.9600  140.4340 C   0  0  0  0  0  2  0  0  0  0  0  0
  189.0530  172.5030  139.6820 C   0  0  0  0  0  2  0  0  0  0  0  0
  189.5640  173.6130  138.7820 C   0  0  0  0  0  1  0  0  0  0  0  0
  187.3230  176.5720  143.5410 C   0  0  2  0  0  3  0  0  0  0  0  0
  185.1770  178.1950  140.1790 C   0  0  0  0  0  3  0  0  0  0  0  0
  186.5240  177.8520  140.0350 C   0  0  0  0  0  3  0  0  0  0  0  0
  184.5400  178.0200  141.4110 C   0  0  0  0  0  3  0  0  0  0  0  0
  185.2490  177.5010  142.4980 C   0  0  0  0  0  3  0  0  0  0  0  0
  187.2340  177.3330  141.1220 C   0  0  0  0  0  3  0  0  0  0  0  0
  186.5980  177.1570  142.3610 C   0  0  0  0  0  0  0  0  0  0  0  0
  188.0210  177.6330  144.3520 C   0  0  0  0  0  0  0  0  0  0  0  0
  186.5540  177.3230  146.4240 C   0  0  0  0  0  0  0  0  0  0  0  0
  186.3110  177.7020  147.5990 O   0  0  0  0  0  1  0  0  0  0  0  0
  187.6130  177.9470  145.6890 N   0  0  0  0  0  2  0  0  0  0  0  0
  185.7890  176.3040  145.8670 O   0  0  0  0  0  0  0  0  0  0  0  0
  188.9800  178.2710  143.8430 O   0  0  0  0  0  0  0  0  0  0  0  0
  1 19  1  6  0  0  0
  1 30  1  0  0  0  0
  3 26  1  6  0  0  0
  3 21  1  0  0  0  0
  3 13  1  0  0  0  0
  4 29  1  6  0  0  0
  5  1  1  0  0  0  0
  5 19  1  6  0  0  0
  5  4  1  0  0  0  0
  6 12  1  6  0  0  0
  6  4  1  0  0  0  0
  7 35  1  1  0  0  0
  7 15  1  0  0  0  0
  7  8  1  0  0  0  0
  9  5  1  0  0  0  0
  9  1  1  0  0  0  0
 10  2  1  0  0  0  0
 11 20  1  0  0  0  0
 11 27  1  0  0  0  0
 11 18  1  1  0  0  0
 13 26  1  6  0  0  0
 13 22  1  0  0  0  0
 15 17  1  0  0  0  0
 15  8  1  1  0  0  0
 15 18  1  0  0  0  0
 16 30  1  0  0  0  0
 17 31  1  1  0  0  0
 20 27  1  0  0  0  0
 20  6  1  0  0  0  0
 21 17  1  0  0  0  0
 22  2  1  0  0  0  0
 22 27  1  0  0  0  0
 23 36  1  0  0  0  0
 23 25  1  0  0  0  0
 24 22  1  0  0  0  0
 25 16  1  0  0  0  0
 28 23  1  0  0  0  0
 28 10  1  0  0  0  0
 28 25  1  0  0  0  0
 29 14  1  0  0  0  0
 30 14  1  0  0  0  0
 31 33  2  0  0  0  0
 31 32  1  0  0  0  0
 34 35  1  0  0  0  0
 36 42  1  0  0  0  0
 37 36  1  0  0  0  0
 38 37  1  0  0  0  0
 39 38  1  0  0  0  0
 40 39  1  0  0  0  0
 41 40  1  0  0  0  0
 42 49  1  0  0  0  0
 43 45  1  0  0  0  0
 44 43  2  0  0  0  0
 44 47  1  0  0  0  0
 45 46  2  0  0  0  0
 47 48  2  0  0  0  0
 48 46  1  0  0  0  0
 48 42  1  0  0  0  0
 49 52  1  0  0  0  0
 50 51  1  0  0  0  0
 52 50  1  0  0  0  0
 53 50  2  0  0  0  0
 54 49  2  0  0  0  0
M  END
>  <MODEL>
7

>  <REMARK>
 VINA RESULT:      -6.2      2.925      4.824
  Name = 
  10 active torsions:
  status: ('A' for Active; 'I' for Inactive)
    1  A    between atoms: N_1  and  C_13
    2  A    between atoms: N_1  and  C_23
    3  A    between atoms: C_9  and  C_26
    4  A    between atoms: C_10  and  O_42
    5  A    between atoms: C_11  and  C_23
    6  A    between atoms: C_11  and  C_44
    7  A    between atoms: C_13  and  C_26
    8  A    between atoms: C_13  and  C_40
    9  A    between atoms: C_22  and  C_32
   10  A    between atoms: C_26  and  C_53
                            x       y       z     vdW  Elec       q    Type
                         _______ _______ _______ _____ _____    ______ ____

>  <TORSDO>
F 10

$$$$
=
 OpenBabel11062418323D

 54 63  0  0  1  0  0  0  0  0999 V2000
  190.5160  172.4250  139.5410 C   0  0  2  0  0  0  0  0  0  0  0  0
  192.4570  174.1040  143.0570 C   0  0  0  0  0  2  0  0  0  0  0  0
  191.3070  177.1630  145.0530 C   0  0  1  0  0  3  0  0  0  0  0  0
  188.8080  172.6670  141.5430 C   0  0  2  0  0  3  0  0  0  0  0  0
  189.2550  173.0780  140.1140 C   0  0  1  0  0  0  0  0  0  0  0  0
  188.2640  173.8660  142.3390 C   0  0  2  0  0  3  0  0  0  0  0  0
  187.7310  177.9570  145.4030 C   0  0  1  0  0  3  0  0  0  0  0  0
  187.1390  176.9120  146.1410 O   0  0  0  0  0  0  0  0  0  0  0  0
  190.5070  173.7100  140.1150 O   0  0  0  0  0  0  0  0  0  0  0  0
  193.7880  174.3640  142.3600 C   0  0  0  0  0  2  0  0  0  0  0  0
  189.1820  175.9660  143.5600 C   0  0  2  0  0  3  0  0  0  0  0  0
  187.0650  174.3050  141.7750 O   0  0  0  0  0  1  0  0  0  0  0  0
  192.0500  175.8600  144.7870 C   0  0  1  0  0  3  0  0  0  0  0  0
  190.4350  170.7920  141.5680 C   0  0  0  0  0  2  0  0  0  0  0  0
  188.3820  176.6250  145.5480 C   0  0  2  0  0  0  0  0  0  0  0  0
  192.9630  171.7810  140.9870 S   0  0  0  0  0  0  0  0  0  0  0  0
  189.4510  176.4180  146.6470 C   0  0  2  0  0  3  0  0  0  0  0  0
  188.2120  175.6630  144.5240 O   0  0  0  0  0  0  0  0  0  0  0  0
  189.1470  171.9570  139.1080 C   0  0  0  0  0  2  0  0  0  0  0  0
  189.2700  175.0160  142.3640 C   0  0  1  0  0  3  0  0  0  0  0  0
  190.8150  177.1300  146.4920 C   0  0  0  0  0  2  0  0  0  0  0  0
  191.6270  175.3400  143.3990 C   0  0  1  0  0  0  0  0  0  0  0  0
  194.6980  173.8670  139.9960 C   0  0  1  0  0  3  0  0  0  0  0  0
  191.7400  176.3170  142.3950 O   0  0  0  0  0  1  0  0  0  0  0  0
  193.2690  173.3080  139.9990 C   0  0  2  0  0  3  0  0  0  0  0  0
  192.8120  177.1730  144.8700 C   0  0  0  0  0  2  0  0  0  0  0  0
  190.1870  174.8290  143.5550 C   0  0  1  0  0  3  0  0  0  0  0  0
  193.6110  174.5480  140.8430 C   0  0  1  0  0  3  0  0  0  0  0  0
  189.8390  171.9150  142.3800 C   0  0  0  0  0  2  0  0  0  0  0  0
  191.2490  171.3850  140.4280 C   0  0  2  0  0  3  0  0  0  0  0  0
  189.5460  175.0120  147.1490 C   0  0  0  0  0  0  0  0  0  0  0  0
  190.6970  174.2610  146.9530 O   0  0  0  0  0  0  0  0  0  0  0  0
  188.5610  174.4960  147.7350 O   0  0  0  0  0  1  0  0  0  0  0  0
  186.0130  178.9310  144.4160 C   0  0  0  0  0  1  0  0  0  0  0  0
  187.0850  178.0740  144.1710 O   0  0  0  0  0  0  0  0  0  0  0  0
  195.7350  172.9800  140.7240 C   0  0  2  0  0  3  0  0  0  0  0  0
  196.9630  173.7300  141.0270 N   0  0  0  0  0  2  0  0  0  0  0  0
  196.8180  175.1340  140.6570 C   0  0  0  0  0  2  0  0  0  0  0  0
  197.4850  176.0050  141.7020 C   0  0  0  0  0  2  0  0  0  0  0  0
  196.4440  176.7860  142.4820 C   0  0  0  0  0  2  0  0  0  0  0  0
  196.2980  176.2190  143.8820 C   0  0  0  0  0  1  0  0  0  0  0  0
  196.0470  171.6930  139.9290 C   0  0  2  0  0  3  0  0  0  0  0  0
  197.7850  168.5110  142.2510 C   0  0  0  0  0  3  0  0  0  0  0  0
  197.0690  169.5230  142.8980 C   0  0  0  0  0  3  0  0  0  0  0  0
  197.9410  168.5440  140.8630 C   0  0  0  0  0  3  0  0  0  0  0  0
  197.3810  169.5870  140.1200 C   0  0  0  0  0  3  0  0  0  0  0  0
  196.5080  170.5660  142.1550 C   0  0  0  0  0  3  0  0  0  0  0  0
  196.6640  170.6030  140.7600 C   0  0  0  0  0  0  0  0  0  0  0  0
  196.8410  171.9600  138.6760 C   0  0  0  0  0  0  0  0  0  0  0  0
  195.1630  170.8330  137.1100 C   0  0  0  0  0  0  0  0  0  0  0  0
  194.8900  170.5190  135.9230 O   0  0  0  0  0  0  0  0  0  0  0  0
  196.3840  171.5280  137.3890 N   0  0  0  0  0  2  0  0  0  0  0  0
  194.2720  170.5010  138.1230 O   0  0  0  0  0  1  0  0  0  0  0  0
  197.9410  172.5680  138.7580 O   0  0  0  0  0  0  0  0  0  0  0  0
  1 19  1  6  0  0  0
  1  5  1  0  0  0  0
  1  9  1  0  0  0  0
  1 30  1  0  0  0  0
  2 22  1  0  0  0  0
  3 26  1  1  0  0  0
  3 21  1  0  0  0  0
  4  6  1  0  0  0  0
  4 29  1  1  0  0  0
  5 19  1  6  0  0  0
  5  9  1  0  0  0  0
  5  4  1  0  0  0  0
  6 12  1  6  0  0  0
  6 20  1  0  0  0  0
  7 35  1  6  0  0  0
  7 15  1  0  0  0  0
  7  8  1  0  0  0  0
 10  2  1  0  0  0  0
 11 18  1  1  0  0  0
 13 26  1  6  0  0  0
 13  3  1  0  0  0  0
 14 29  1  0  0  0  0
 15 18  1  6  0  0  0
 15  8  1  0  0  0  0
 15 17  1  0  0  0  0
 17 31  1  6  0  0  0
 20 27  1  0  0  0  0
 20 11  1  0  0  0  0
 21 17  1  0  0  0  0
 22 27  1  0  0  0  0
 22 13  1  0  0  0  0
 23 25  1  0  0  0  0
 23 36  1  0  0  0  0
 23 28  1  0  0  0  0
 24 22  1  0  0  0  0
 25 28  1  0  0  0  0
 25 16  1  0  0  0  0
 27 11  1  0  0  0  0
 28 10  1  0  0  0  0
 30 16  1  0  0  0  0
 30 14  1  0  0  0  0
 31 33  1  0  0  0  0
 32 31  2  0  0  0  0
 35 34  1  0  0  0  0
 36 37  1  0  0  0  0
 38 37  1  0  0  0  0
 38 39  1  0  0  0  0
 39 40  1  0  0  0  0
 40 41  1  0  0  0  0
 42 36  1  0  0  0  0
 42 48  1  0  0  0  0
 43 44  1  0  0  0  0
 45 43  2  0  0  0  0
 46 48  2  0  0  0  0
 46 45  1  0  0  0  0
 47 44  2  0  0  0  0
 48 47  1  0  0  0  0
 49 54  2  0  0  0  0
 49 42  1  0  0  0  0
 50 52  1  0  0  0  0
 50 53  1  0  0  0  0
 51 50  2  0  0  0  0
 52 49  1  0  0  0  0
M  END
>  <MODEL>
8

>  <REMARK>
 VINA RESULT:      -6.2      3.154      9.925
  Name = 
  10 active torsions:
  status: ('A' for Active; 'I' for Inactive)
    1  A    between atoms: N_1  and  C_13
    2  A    between atoms: N_1  and  C_23
    3  A    between atoms: C_9  and  C_26
    4  A    between atoms: C_10  and  O_42
    5  A    between atoms: C_11  and  C_23
    6  A    between atoms: C_11  and  C_44
    7  A    between atoms: C_13  and  C_26
    8  A    between atoms: C_13  and  C_40
    9  A    between atoms: C_22  and  C_32
   10  A    between atoms: C_26  and  C_53
                            x       y       z     vdW  Elec       q    Type
                         _______ _______ _______ _____ _____    ______ ____

>  <TORSDO>
F 10

$$$$
=
 OpenBabel11062418323D

 54 63  0  0  1  0  0  0  0  0999 V2000
  193.5050  176.8480  144.7090 C   0  0  2  0  0  0  0  0  0  0  0  0
  191.8010  172.9000  144.0370 C   0  0  0  0  0  2  0  0  0  0  0  0
  193.5710  169.8920  142.4620 C   0  0  1  0  0  3  0  0  0  0  0  0
  195.0290  174.9650  145.7650 C   0  0  2  0  0  3  0  0  0  0  0  0
  194.8420  176.1020  144.7230 C   0  0  1  0  0  0  0  0  0  0  0  0
  195.8100  173.7760  145.1800 C   0  0  2  0  0  3  0  0  0  0  0  0
  197.1810  169.3620  142.9360 C   0  0  1  0  0  3  0  0  0  0  0  0
  197.3930  169.1140  144.3070 O   0  0  0  0  0  0  0  0  0  0  0  0
  193.8190  175.8140  143.8080 O   0  0  0  0  0  0  0  0  0  0  0  0
  190.6610  173.3980  143.1550 C   0  0  0  0  0  2  0  0  0  0  0  0
  195.4060  171.7980  143.5470 C   0  0  2  0  0  3  0  0  0  0  0  0
  197.1290  174.1560  144.9240 O   0  0  0  0  0  1  0  0  0  0  0  0
  192.5230  170.6290  143.2850 C   0  0  1  0  0  3  0  0  0  0  0  0
  192.9510  175.6360  146.9470 C   0  0  0  0  0  2  0  0  0  0  0  0
  196.1770  169.7360  143.9700 C   0  0  2  0  0  0  0  0  0  0  0  0
  190.8580  175.7050  145.1250 S   0  0  0  0  0  0  0  0  0  0  0  0
  195.0000  168.7770  144.2670 C   0  0  2  0  0  3  0  0  0  0  0  0
  196.1640  171.0620  144.4650 O   0  0  0  0  0  0  0  0  0  0  0  0
  194.7240  177.4720  145.3480 C   0  0  0  0  0  2  0  0  0  0  0  0
  195.1640  173.2700  143.8910 C   0  0  1  0  0  3  0  0  0  0  0  0
  193.9050  168.5990  143.1890 C   0  0  0  0  0  2  0  0  0  0  0  0
  192.9070  172.1220  143.3260 C   0  0  1  0  0  0  0  0  0  0  0  0
  189.8620  175.7380  142.4130 C   0  0  1  0  0  3  0  0  0  0  0  0
  193.1580  172.6540  142.0500 O   0  0  0  0  0  1  0  0  0  0  0  0
  191.0740  175.9990  143.3170 C   0  0  2  0  0  3  0  0  0  0  0  0
  192.1500  170.0120  141.9460 C   0  0  0  0  0  2  0  0  0  0  0  0
  194.1290  172.2230  144.2500 C   0  0  1  0  0  3  0  0  0  0  0  0
  191.0160  174.7230  142.4590 C   0  0  1  0  0  3  0  0  0  0  0  0
  193.7600  174.4640  146.4490 C   0  0  0  0  0  2  0  0  0  0  0  0
  192.4380  176.4240  145.7510 C   0  0  2  0  0  3  0  0  0  0  0  0
  194.4750  168.8700  145.6640 C   0  0  0  0  0  0  0  0  0  0  0  0
  195.2020  169.5100  146.6590 O   0  0  0  0  0  1  0  0  0  0  0  0
  193.3700  168.3410  145.9470 O   0  0  0  0  0  0  0  0  0  0  0  0
  197.8010  170.5130  141.1570 C   0  0  0  0  0  1  0  0  0  0  0  0
  197.9410  170.4650  142.5430 O   0  0  0  0  0  0  0  0  0  0  0  0
  188.5600  175.3900  143.1710 C   0  0  2  0  0  3  0  0  0  0  0  0
  187.7670  174.3890  142.4430 N   0  0  0  0  0  2  0  0  0  0  0  0
  188.2140  174.2820  141.0580 C   0  0  0  0  0  2  0  0  0  0  0  0
  187.9900  172.8680  140.5610 C   0  0  0  0  0  2  0  0  0  0  0  0
  188.2390  172.7870  139.0660 C   0  0  0  0  0  2  0  0  0  0  0  0
  188.5290  174.1670  138.5040 C   0  0  0  0  0  1  0  0  0  0  0  0
  187.7230  176.6510  143.4800 C   0  0  2  0  0  3  0  0  0  0  0  0
  187.7410  177.8490  147.6160 C   0  0  0  0  0  3  0  0  0  0  0  0
  188.7990  178.2290  146.7850 C   0  0  0  0  0  3  0  0  0  0  0  0
  186.6940  177.0770  147.1050 C   0  0  0  0  0  3  0  0  0  0  0  0
  186.7030  176.6860  145.7630 C   0  0  0  0  0  3  0  0  0  0  0  0
  188.8080  177.8380  145.4420 C   0  0  0  0  0  3  0  0  0  0  0  0
  187.7590  177.0620  144.9260 C   0  0  0  0  0  0  0  0  0  0  0  0
  186.3120  176.5560  142.9600 C   0  0  0  0  0  0  0  0  0  0  0  0
  186.8000  177.7990  140.7790 C   0  0  0  0  0  0  0  0  0  0  0  0
  186.3270  178.2380  139.6990 O   0  0  0  0  0  0  0  0  0  0  0  0
  185.9370  177.1180  141.6960 N   0  0  0  0  0  2  0  0  0  0  0  0
  188.1490  177.9840  141.0560 O   0  0  0  0  0  1  0  0  0  0  0  0
  185.4330  175.9790  143.6540 O   0  0  0  0  0  0  0  0  0  0  0  0
  1  5  1  0  0  0  0
  1 19  1  6  0  0  0
  1 30  1  0  0  0  0
  3 26  1  6  0  0  0
  3 21  1  0  0  0  0
  3 13  1  0  0  0  0
  4 29  1  6  0  0  0
  5 19  1  6  0  0  0
  5  4  1  0  0  0  0
  6 12  1  6  0  0  0
  6  4  1  0  0  0  0
  7 35  1  1  0  0  0
  7 15  1  0  0  0  0
  7  8  1  0  0  0  0
  9  1  1  0  0  0  0
  9  5  1  0  0  0  0
 10  2  1  0  0  0  0
 11 20  1  0  0  0  0
 11 27  1  0  0  0  0
 11 18  1  1  0  0  0
 13 26  1  6  0  0  0
 13 22  1  0  0  0  0
 15 17  1  0  0  0  0
 15  8  1  1  0  0  0
 15 18  1  0  0  0  0
 16 30  1  0  0  0  0
 17 31  1  1  0  0  0
 20 27  1  0  0  0  0
 20  6  1  0  0  0  0
 21 17  1  0  0  0  0
 22  2  1  0  0  0  0
 22 27  1  0  0  0  0
 23 28  1  0  0  0  0
 23 36  1  0  0  0  0
 23 25  1  0  0  0  0
 24 22  1  0  0  0  0
 25 16  1  0  0  0  0
 28 10  1  0  0  0  0
 28 25  1  0  0  0  0
 29 14  1  0  0  0  0
 30 14  1  0  0  0  0
 31 33  2  0  0  0  0
 31 32  1  0  0  0  0
 34 35  1  0  0  0  0
 36 42  1  0  0  0  0
 37 36  1  0  0  0  0
 38 37  1  0  0  0  0
 39 38  1  0  0  0  0
 40 39  1  0  0  0  0
 41 40  1  0  0  0  0
 42 48  1  0  0  0  0
 44 43  2  0  0  0  0
 45 43  1  0  0  0  0
 46 45  2  0  0  0  0
 47 44  1  0  0  0  0
 48 47  2  0  0  0  0
 48 46  1  0  0  0  0
 49 42  1  0  0  0  0
 49 54  2  0  0  0  0
 50 53  1  0  0  0  0
 50 52  1  0  0  0  0
 51 50  2  0  0  0  0
 52 49  1  0  0  0  0
M  END
>  <MODEL>
9

>  <REMARK>
 VINA RESULT:      -5.9      3.305      5.360
  Name = 
  10 active torsions:
  status: ('A' for Active; 'I' for Inactive)
    1  A    between atoms: N_1  and  C_13
    2  A    between atoms: N_1  and  C_23
    3  A    between atoms: C_9  and  C_26
    4  A    between atoms: C_10  and  O_42
    5  A    between atoms: C_11  and  C_23
    6  A    between atoms: C_11  and  C_44
    7  A    between atoms: C_13  and  C_26
    8  A    between atoms: C_13  and  C_40
    9  A    between atoms: C_22  and  C_32
   10  A    between atoms: C_26  and  C_53
                            x       y       z     vdW  Elec       q    Type
                         _______ _______ _______ _____ _____    ______ ____

>  <TORSDO>
F 10

$$$$
