=
 OpenBabel11062422163D

 41 48  0  0  1  0  0  0  0  0999 V2000
  194.4190  177.3950  146.2920 N   0  0  0  0  0  2  0  0  0  0  0  0
  190.5650  175.2370  142.8750 C   0  0  0  0  0  0  0  0  0  0  0  0
  192.6970  175.8480  146.2650 C   0  0  0  0  0  2  0  0  0  0  0  0
  192.0370  175.2590  142.6080 C   0  0  2  0  0  3  0  0  0  0  0  0
  191.5340  172.8410  141.5950 C   0  0  0  0  0  2  0  0  0  0  0  0
  193.8110  176.3740  147.0500 N   0  0  0  0  0  2  0  0  0  0  0  0
  193.6700  173.5210  142.6520 C   0  0  0  0  0  0  0  0  0  0  0  0
  188.2810  177.1000  144.8070 N   0  0  0  0  0  0  0  0  0  0  0  0
  194.7670  173.9890  144.7490 C   0  0  0  0  0  3  0  0  0  0  0  0
  190.4340  177.0840  144.5410 C   0  0  0  0  0  0  0  0  0  0  0  0
  192.8140  176.4060  144.8670 C   0  0  0  0  0  0  0  0  0  0  0  0
  195.6550  172.9310  144.5030 C   0  0  0  0  0  3  0  0  0  0  0  0
  193.7760  174.2660  143.8000 C   0  0  0  0  0  0  0  0  0  0  0  0
  188.3820  174.3170  142.3930 C   0  0  0  0  0  0  0  0  0  0  0  0
  188.5740  176.1230  143.9270 C   0  0  0  0  0  0  0  0  0  0  0  0
  195.5480  172.1750  143.3230 C   0  0  0  0  0  3  0  0  0  0  0  0
  192.5470  174.0010  141.8050 C   0  0  2  0  0  3  0  0  0  0  0  0
  194.5480  172.4700  142.3820 C   0  0  0  0  0  3  0  0  0  0  0  0
  189.7280  174.3740  142.1920 C   0  0  0  0  0  0  0  0  0  0  0  0
  194.1430  177.1050  144.8960 C   0  0  0  0  0  2  0  0  0  0  0  0
  189.0940  172.4820  141.0600 N   0  0  0  0  0  0  0  0  0  0  0  0
  189.9330  176.1070  143.7400 C   0  0  0  0  0  0  0  0  0  0  0  0
  189.4130  177.6990  145.1870 N   0  0  0  0  0  0  0  0  0  0  0  0
  192.8170  175.3190  143.8590 N   0  0  0  0  0  0  0  0  0  0  0  0
  191.7880  177.3950  144.6790 O   0  0  0  0  0  0  0  0  0  0  0  0
  187.7270  175.2040  143.2770 C   0  0  0  0  0  3  0  0  0  0  0  0
  190.1730  173.3270  141.3940 N   0  0  0  0  0  0  0  0  0  0  0  0
  187.8870  173.1290  141.6430 C   0  0  0  0  0  3  0  0  0  0  0  0
  186.9570  177.4280  145.3190 C   0  0  2  0  0  3  0  0  0  0  0  0
  186.2540  179.7350  145.3480 O   0  0  0  0  0  1  0  0  0  0  0  0
  186.3550  178.5990  144.5390 C   0  0  2  0  0  3  0  0  0  0  0  0
  183.9120  178.7340  144.5400 C   0  0  0  0  0  2  0  0  0  0  0  0
  185.0130  178.2380  143.9720 C   0  0  0  0  0  0  0  0  0  0  0  0
  184.9120  177.5060  142.6640 C   0  0  0  0  0  2  0  0  0  0  0  0
  184.6310  178.5960  140.5460 O   0  0  0  0  0  1  0  0  0  0  0  0
  185.5690  178.2930  141.5390 C   0  0  2  0  0  3  0  0  0  0  0  0
  188.0480  178.2560  141.2410 C   0  0  0  0  0  1  0  0  0  0  0  0
  186.6140  177.2920  139.4610 C   0  0  0  0  0  1  0  0  0  0  0  0
  186.7520  177.5200  140.9590 C   0  0  0  0  0  3  0  0  0  0  0  0
  187.0330  177.7190  146.6860 O   0  0  0  0  0  0  0  0  0  0  0  0
  186.1730  176.8030  147.2950 C   0  0  0  0  0  1  0  0  0  0  0  0
  1  6  1  0  0  0  0
  2 22  1  0  0  0  0
  3  6  1  0  0  0  0
  4  2  1  1  0  0  0
  4 24  1  0  0  0  0
  7 13  1  0  0  0  0
  8 23  1  0  0  0  0
  8 29  1  0  0  0  0
 10 25  1  0  0  0  0
 10 23  2  0  0  0  0
 11 20  1  0  0  0  0
 11  3  1  0  0  0  0
 12  9  1  0  0  0  0
 13 24  1  0  0  0  0
 13  9  2  0  0  0  0
 14 26  2  0  0  0  0
 15  8  1  0  0  0  0
 16 12  2  0  0  0  0
 17  5  1  1  0  0  0
 17  4  1  0  0  0  0
 17  7  1  0  0  0  0
 18  7  2  0  0  0  0
 18 16  1  0  0  0  0
 19 14  1  0  0  0  0
 19  2  2  0  0  0  0
 20  1  1  0  0  0  0
 21 27  1  0  0  0  0
 21 28  2  0  0  0  0
 22 15  2  0  0  0  0
 22 10  1  0  0  0  0
 24 11  1  0  0  0  0
 25 11  1  0  0  0  0
 26 15  1  0  0  0  0
 27  5  1  0  0  0  0
 27 19  1  0  0  0  0
 28 14  1  0  0  0  0
 29 40  1  1  0  0  0
 31 29  1  0  0  0  0
 31 30  1  1  0  0  0
 33 31  1  0  0  0  0
 33 32  2  0  0  0  0
 34 33  1  0  0  0  0
 36 35  1  6  0  0  0
 36 34  1  0  0  0  0
 38 39  1  0  0  0  0
 39 37  1  0  0  0  0
 39 36  1  0  0  0  0
 40 41  1  0  0  0  0
M  END
>  <MODEL>
1

>  <REMARK>
 VINA RESULT:      -7.7      0.000      0.000
  Name = 
  7 active torsions:
  status: ('A' for Active; 'I' for Inactive)
    1  A    between atoms: C_7  and  C_20
    2  A    between atoms: C_7  and  C_34
    3  A    between atoms: O_12  and  C_18
    4  A    between atoms: N_13  and  C_18
    5  A    between atoms: C_18  and  C_39
    6  A    between atoms: C_20  and  C_39
    7  A    between atoms: C_34  and  C_40
                            x       y       z     vdW  Elec       q    Type
                         _______ _______ _______ _____ _____    ______ ____

>  <TORSDO>
F 7

$$$$
=
 OpenBabel11062422163D

 41 48  0  0  1  0  0  0  0  0999 V2000
  194.9460  177.7750  145.8730 N   0  0  0  0  0  2  0  0  0  0  0  0
  192.4650  174.2800  142.2930 C   0  0  0  0  0  0  0  0  0  0  0  0
  193.3180  176.1310  145.7950 C   0  0  0  0  0  2  0  0  0  0  0  0
  193.9400  174.3670  142.5290 C   0  0  2  0  0  3  0  0  0  0  0  0
  193.7840  171.7150  142.2590 C   0  0  0  0  0  2  0  0  0  0  0  0
  194.1030  176.9850  146.6810 N   0  0  0  0  0  2  0  0  0  0  0  0
  195.4390  172.9040  143.6710 C   0  0  0  0  0  0  0  0  0  0  0  0
  189.6810  176.4120  142.6500 N   0  0  0  0  0  0  0  0  0  0  0  0
  195.7590  174.1110  145.7350 C   0  0  0  0  0  3  0  0  0  0  0  0
  191.7950  176.5310  143.1220 C   0  0  0  0  0  0  0  0  0  0  0  0
  193.9120  176.2340  144.4110 C   0  0  0  0  0  0  0  0  0  0  0  0
  196.6640  173.1240  146.1540 C   0  0  0  0  0  3  0  0  0  0  0  0
  195.1560  173.9760  144.4800 C   0  0  0  0  0  0  0  0  0  0  0  0
  190.5680  173.0400  141.4540 C   0  0  0  0  0  0  0  0  0  0  0  0
  190.2460  175.2440  142.2850 C   0  0  0  0  0  0  0  0  0  0  0  0
  196.9580  172.0310  145.3200 C   0  0  0  0  0  3  0  0  0  0  0  0
  194.6790  172.9800  142.3960 C   0  0  2  0  0  3  0  0  0  0  0  0
  196.3430  171.9160  144.0630 C   0  0  0  0  0  3  0  0  0  0  0  0
  191.9020  173.1670  141.6960 C   0  0  0  0  0  0  0  0  0  0  0  0
  195.1600  177.0380  144.6410 C   0  0  0  0  0  2  0  0  0  0  0  0
  191.6700  170.9630  141.1060 N   0  0  0  0  0  0  0  0  0  0  0  0
  191.5860  175.3080  142.5690 C   0  0  0  0  0  0  0  0  0  0  0  0
  190.6220  177.2110  143.1600 N   0  0  0  0  0  0  0  0  0  0  0  0
  194.2460  174.8920  143.8730 N   0  0  0  0  0  0  0  0  0  0  0  0
  193.0240  177.0050  143.5840 O   0  0  0  0  0  0  0  0  0  0  0  0
  189.6600  174.0870  141.7340 C   0  0  0  0  0  3  0  0  0  0  0  0
  192.5800  171.9740  141.4780 N   0  0  0  0  0  0  0  0  0  0  0  0
  190.3440  171.6330  141.0170 C   0  0  0  0  0  3  0  0  0  0  0  0
  188.2660  176.7470  142.5640 C   0  0  2  0  0  3  0  0  0  0  0  0
  186.0960  176.0910  143.3850 O   0  0  0  0  0  1  0  0  0  0  0  0
  187.4680  175.9840  143.6240 C   0  0  2  0  0  3  0  0  0  0  0  0
  188.4890  175.6760  145.8260 C   0  0  0  0  0  2  0  0  0  0  0  0
  187.8000  176.4710  145.0040 C   0  0  0  0  0  0  0  0  0  0  0  0
  187.5500  177.9010  145.3880 C   0  0  0  0  0  2  0  0  0  0  0  0
  185.7240  176.7850  146.4720 O   0  0  0  0  0  1  0  0  0  0  0  0
  186.3740  178.0180  146.3470 C   0  0  2  0  0  3  0  0  0  0  0  0
  183.9740  178.6120  145.9940 C   0  0  0  0  0  1  0  0  0  0  0  0
  185.6780  179.5470  144.4530 C   0  0  0  0  0  1  0  0  0  0  0  0
  185.4040  179.1040  145.8820 C   0  0  0  0  0  3  0  0  0  0  0  0
  187.7880  176.4700  141.2780 O   0  0  0  0  0  0  0  0  0  0  0  0
  187.3950  177.7090  140.7680 C   0  0  0  0  0  1  0  0  0  0  0  0
  1  6  1  0  0  0  0
  2 22  1  0  0  0  0
  3  6  1  0  0  0  0
  4  2  1  1  0  0  0
  4 24  1  0  0  0  0
  7 18  2  0  0  0  0
  7 13  1  0  0  0  0
  8 23  1  0  0  0  0
  9 12  1  0  0  0  0
 10 23  2  0  0  0  0
 10 25  1  0  0  0  0
 11 20  1  0  0  0  0
 11  3  1  0  0  0  0
 13  9  2  0  0  0  0
 14 19  1  0  0  0  0
 14 26  2  0  0  0  0
 15 22  2  0  0  0  0
 15  8  1  0  0  0  0
 16 12  2  0  0  0  0
 17  5  1  1  0  0  0
 17  4  1  0  0  0  0
 17  7  1  0  0  0  0
 18 16  1  0  0  0  0
 19  2  2  0  0  0  0
 20  1  1  0  0  0  0
 21 27  1  0  0  0  0
 22 10  1  0  0  0  0
 24 11  1  0  0  0  0
 24 13  1  0  0  0  0
 25 11  1  0  0  0  0
 26 15  1  0  0  0  0
 27 19  1  0  0  0  0
 27  5  1  0  0  0  0
 28 21  2  0  0  0  0
 28 14  1  0  0  0  0
 29 40  1  6  0  0  0
 29  8  1  0  0  0  0
 29 31  1  0  0  0  0
 31 30  1  6  0  0  0
 31 33  1  0  0  0  0
 33 34  1  0  0  0  0
 33 32  2  0  0  0  0
 34 36  1  0  0  0  0
 36 35  1  6  0  0  0
 38 39  1  0  0  0  0
 39 37  1  0  0  0  0
 39 36  1  0  0  0  0
 41 40  1  0  0  0  0
M  END
>  <MODEL>
2

>  <REMARK>
 VINA RESULT:      -7.5      1.658      3.363
  Name = 
  7 active torsions:
  status: ('A' for Active; 'I' for Inactive)
    1  A    between atoms: C_7  and  C_20
    2  A    between atoms: C_7  and  C_34
    3  A    between atoms: O_12  and  C_18
    4  A    between atoms: N_13  and  C_18
    5  A    between atoms: C_18  and  C_39
    6  A    between atoms: C_20  and  C_39
    7  A    between atoms: C_34  and  C_40
                            x       y       z     vdW  Elec       q    Type
                         _______ _______ _______ _____ _____    ______ ____

>  <TORSDO>
F 7

$$$$
=
 OpenBabel11062422163D

 41 48  0  0  1  0  0  0  0  0999 V2000
  195.3630  177.7320  145.2380 N   0  0  0  0  0  2  0  0  0  0  0  0
  192.3800  173.9520  142.4110 C   0  0  0  0  0  0  0  0  0  0  0  0
  193.5930  176.2650  145.5070 C   0  0  0  0  0  2  0  0  0  0  0  0
  193.8670  173.9310  142.5680 C   0  0  2  0  0  3  0  0  0  0  0  0
  193.4590  171.3000  142.7610 C   0  0  0  0  0  2  0  0  0  0  0  0
  194.5010  177.1740  146.2020 N   0  0  0  0  0  2  0  0  0  0  0  0
  195.2920  172.5390  143.8800 C   0  0  0  0  0  0  0  0  0  0  0  0
  189.8230  176.3760  142.5120 N   0  0  0  0  0  0  0  0  0  0  0  0
  195.8350  174.0340  145.6930 C   0  0  0  0  0  3  0  0  0  0  0  0
  191.9620  176.3640  142.8700 C   0  0  0  0  0  0  0  0  0  0  0  0
  194.1140  176.0780  144.1030 C   0  0  0  0  0  0  0  0  0  0  0  0
  196.6710  173.0470  146.2370 C   0  0  0  0  0  3  0  0  0  0  0  0
  195.1520  173.7530  144.5050 C   0  0  0  0  0  0  0  0  0  0  0  0
  190.3340  172.7810  141.8740 C   0  0  0  0  0  0  0  0  0  0  0  0
  190.2590  175.1140  142.3290 C   0  0  0  0  0  0  0  0  0  0  0  0
  196.8180  171.8070  145.5910 C   0  0  0  0  0  3  0  0  0  0  0  0
  194.4700  172.4760  142.6430 C   0  0  2  0  0  3  0  0  0  0  0  0
  196.1250  171.5450  144.3980 C   0  0  0  0  0  3  0  0  0  0  0  0
  191.6860  172.8160  142.0360 C   0  0  0  0  0  0  0  0  0  0  0  0
  195.4400  176.7830  144.1410 C   0  0  0  0  0  2  0  0  0  0  0  0
  191.2240  170.5780  141.8410 N   0  0  0  0  0  0  0  0  0  0  0  0
  191.6140  175.0930  142.5420 C   0  0  0  0  0  0  0  0  0  0  0  0
  190.8590  177.1520  142.8400 N   0  0  0  0  0  0  0  0  0  0  0  0
  194.2950  174.6400  143.7890 N   0  0  0  0  0  0  0  0  0  0  0  0
  193.2530  176.7850  143.1940 O   0  0  0  0  0  0  0  0  0  0  0  0
  189.5410  173.9440  142.0080 C   0  0  0  0  0  3  0  0  0  0  0  0
  192.2410  171.5430  141.9960 N   0  0  0  0  0  0  0  0  0  0  0  0
  189.9600  171.3510  141.6920 C   0  0  0  0  0  3  0  0  0  0  0  0
  188.4410  176.8290  142.4280 C   0  0  2  0  0  3  0  0  0  0  0  0
  186.3300  175.9910  143.2380 O   0  0  0  0  0  1  0  0  0  0  0  0
  187.6340  176.3140  143.6220 C   0  0  2  0  0  3  0  0  0  0  0  0
  186.6940  178.2780  144.7360 C   0  0  0  0  0  2  0  0  0  0  0  0
  187.6190  177.3170  144.7380 C   0  0  0  0  0  0  0  0  0  0  0  0
  188.4910  177.1250  145.9460 C   0  0  0  0  0  2  0  0  0  0  0  0
  188.0910  175.3960  147.5600 O   0  0  0  0  0  1  0  0  0  0  0  0
  188.6320  175.6500  146.2950 C   0  0  2  0  0  3  0  0  0  0  0  0
  190.1990  173.7960  145.7110 C   0  0  0  0  0  1  0  0  0  0  0  0
  190.7880  175.3170  147.5790 C   0  0  0  0  0  1  0  0  0  0  0  0
  190.0960  175.2180  146.2290 C   0  0  0  0  0  3  0  0  0  0  0  0
  187.8750  176.4100  141.2190 O   0  0  0  0  0  0  0  0  0  0  0  0
  187.4200  177.5820  140.6110 C   0  0  0  0  0  1  0  0  0  0  0  0
  1  6  1  0  0  0  0
  2 22  1  0  0  0  0
  3  6  1  0  0  0  0
  4  2  1  1  0  0  0
  4 17  1  0  0  0  0
  4 24  1  0  0  0  0
  7 18  2  0  0  0  0
  7 13  1  0  0  0  0
  8 23  1  0  0  0  0
  9 12  1  0  0  0  0
 10 25  1  0  0  0  0
 11 20  1  0  0  0  0
 11  3  1  0  0  0  0
 13  9  2  0  0  0  0
 14 26  2  0  0  0  0
 14 19  1  0  0  0  0
 15  8  1  0  0  0  0
 15 22  2  0  0  0  0
 16 12  2  0  0  0  0
 17  5  1  1  0  0  0
 17  7  1  0  0  0  0
 18 16  1  0  0  0  0
 19  2  2  0  0  0  0
 20  1  1  0  0  0  0
 21 27  1  0  0  0  0
 22 10  1  0  0  0  0
 23 10  2  0  0  0  0
 24 11  1  0  0  0  0
 24 13  1  0  0  0  0
 25 11  1  0  0  0  0
 26 15  1  0  0  0  0
 27 19  1  0  0  0  0
 27  5  1  0  0  0  0
 28 21  2  0  0  0  0
 28 14  1  0  0  0  0
 29 40  1  6  0  0  0
 29  8  1  0  0  0  0
 29 31  1  0  0  0  0
 31 30  1  6  0  0  0
 31 33  1  0  0  0  0
 32 33  2  0  0  0  0
 33 34  1  0  0  0  0
 34 36  1  0  0  0  0
 36 35  1  1  0  0  0
 37 39  1  0  0  0  0
 39 36  1  0  0  0  0
 39 38  1  0  0  0  0
 41 40  1  0  0  0  0
M  END
>  <MODEL>
3

>  <REMARK>
 VINA RESULT:      -7.5      1.885      3.792
  Name = 
  7 active torsions:
  status: ('A' for Active; 'I' for Inactive)
    1  A    between atoms: C_7  and  C_20
    2  A    between atoms: C_7  and  C_34
    3  A    between atoms: O_12  and  C_18
    4  A    between atoms: N_13  and  C_18
    5  A    between atoms: C_18  and  C_39
    6  A    between atoms: C_20  and  C_39
    7  A    between atoms: C_34  and  C_40
                            x       y       z     vdW  Elec       q    Type
                         _______ _______ _______ _____ _____    ______ ____

>  <TORSDO>
F 7

$$$$
=
 OpenBabel11062422163D

 41 48  0  0  1  0  0  0  0  0999 V2000
  196.0050  176.4200  144.5410 N   0  0  0  0  0  2  0  0  0  0  0  0
  191.3280  174.7100  142.0140 C   0  0  0  0  0  0  0  0  0  0  0  0
  194.3860  174.7710  144.6700 C   0  0  0  0  0  2  0  0  0  0  0  0
  192.6460  174.9160  141.3370 C   0  0  2  0  0  3  0  0  0  0  0  0
  191.9000  172.7340  139.9930 C   0  0  0  0  0  2  0  0  0  0  0  0
  195.6770  175.2130  145.1900 N   0  0  0  0  0  2  0  0  0  0  0  0
  194.2450  173.3570  140.4990 C   0  0  0  0  0  0  0  0  0  0  0  0
  189.7140  175.9160  144.9060 N   0  0  0  0  0  0  0  0  0  0  0  0
  195.9240  173.4620  142.2280 C   0  0  0  0  0  3  0  0  0  0  0  0
  191.6810  176.1430  144.0210 C   0  0  0  0  0  0  0  0  0  0  0  0
  194.0580  175.6200  143.4670 C   0  0  0  0  0  0  0  0  0  0  0  0
  196.7120  172.5620  141.4960 C   0  0  0  0  0  3  0  0  0  0  0  0
  194.6850  173.8480  141.7030 C   0  0  0  0  0  0  0  0  0  0  0  0
  189.1190  173.7280  142.0000 C   0  0  0  0  0  0  0  0  0  0  0  0
  189.7400  175.1770  143.7790 C   0  0  0  0  0  0  0  0  0  0  0  0
  196.2620  172.0670  140.2600 C   0  0  0  0  0  3  0  0  0  0  0  0
  192.9080  173.9070  140.1540 C   0  0  2  0  0  3  0  0  0  0  0  0
  195.0160  172.4670  139.7500 C   0  0  0  0  0  3  0  0  0  0  0  0
  190.3370  173.9430  141.4300 C   0  0  0  0  0  0  0  0  0  0  0  0
  195.3190  176.4100  143.2610 C   0  0  0  0  0  2  0  0  0  0  0  0
  189.4200  172.2870  140.1340 N   0  0  0  0  0  0  0  0  0  0  0  0
  190.9770  175.3190  143.2020 C   0  0  0  0  0  0  0  0  0  0  0  0
  190.8970  176.5160  145.0620 N   0  0  0  0  0  0  0  0  0  0  0  0
  193.7710  174.7760  142.2810 N   0  0  0  0  0  0  0  0  0  0  0  0
  193.0060  176.5340  143.8200 O   0  0  0  0  0  0  0  0  0  0  0  0
  188.7510  174.3460  143.2170 C   0  0  0  0  0  3  0  0  0  0  0  0
  190.5340  173.1320  140.3190 N   0  0  0  0  0  0  0  0  0  0  0  0
  188.4390  172.6880  141.1790 C   0  0  0  0  0  3  0  0  0  0  0  0
  188.6050  176.0110  145.8460 C   0  0  2  0  0  3  0  0  0  0  0  0
  187.6780  178.0010  146.8450 O   0  0  0  0  0  1  0  0  0  0  0  0
  187.8340  177.3170  145.6370 C   0  0  2  0  0  3  0  0  0  0  0  0
  185.3960  177.1630  145.7460 C   0  0  0  0  0  2  0  0  0  0  0  0
  186.4990  177.0600  145.0020 C   0  0  0  0  0  0  0  0  0  0  0  0
  186.3820  176.8980  143.5140 C   0  0  0  0  0  2  0  0  0  0  0  0
  185.2420  178.6810  142.3840 O   0  0  0  0  0  1  0  0  0  0  0  0
  186.5010  178.2380  142.8020 C   0  0  2  0  0  3  0  0  0  0  0  0
  187.2610  176.8250  140.8880 C   0  0  0  0  0  1  0  0  0  0  0  0
  188.9200  178.2550  142.0520 C   0  0  0  0  0  1  0  0  0  0  0  0
  187.4660  178.1370  141.6210 C   0  0  0  0  0  3  0  0  0  0  0  0
  189.0830  175.9130  147.1580 O   0  0  0  0  0  0  0  0  0  0  0  0
  189.1880  174.5420  147.3990 C   0  0  0  0  0  1  0  0  0  0  0  0
  1  6  1  0  0  0  0
  2 22  1  0  0  0  0
  3  6  1  0  0  0  0
  4  2  1  1  0  0  0
  4 24  1  0  0  0  0
  5 27  1  0  0  0  0
  7 13  1  0  0  0  0
  8 23  1  0  0  0  0
  8 29  1  0  0  0  0
 10 23  2  0  0  0  0
 11 25  1  0  0  0  0
 11  3  1  0  0  0  0
 12  9  1  0  0  0  0
 13  9  2  0  0  0  0
 13 24  1  0  0  0  0
 14 26  2  0  0  0  0
 15  8  1  0  0  0  0
 16 12  2  0  0  0  0
 17  5  1  1  0  0  0
 17  7  1  0  0  0  0
 17  4  1  0  0  0  0
 18 16  1  0  0  0  0
 18  7  2  0  0  0  0
 19 14  1  0  0  0  0
 19  2  2  0  0  0  0
 20 11  1  0  0  0  0
 20  1  1  0  0  0  0
 21 27  1  0  0  0  0
 21 28  2  0  0  0  0
 22 15  2  0  0  0  0
 22 10  1  0  0  0  0
 24 11  1  0  0  0  0
 25 10  1  0  0  0  0
 26 15  1  0  0  0  0
 27 19  1  0  0  0  0
 28 14  1  0  0  0  0
 29 40  1  1  0  0  0
 31 29  1  0  0  0  0
 31 30  1  1  0  0  0
 33 31  1  0  0  0  0
 33 32  2  0  0  0  0
 34 33  1  0  0  0  0
 36 35  1  6  0  0  0
 36 34  1  0  0  0  0
 37 39  1  0  0  0  0
 39 38  1  0  0  0  0
 39 36  1  0  0  0  0
 40 41  1  0  0  0  0
M  END
>  <MODEL>
4

>  <REMARK>
 VINA RESULT:      -7.3      1.733      2.149
  Name = 
  7 active torsions:
  status: ('A' for Active; 'I' for Inactive)
    1  A    between atoms: C_7  and  C_20
    2  A    between atoms: C_7  and  C_34
    3  A    between atoms: O_12  and  C_18
    4  A    between atoms: N_13  and  C_18
    5  A    between atoms: C_18  and  C_39
    6  A    between atoms: C_20  and  C_39
    7  A    between atoms: C_34  and  C_40
                            x       y       z     vdW  Elec       q    Type
                         _______ _______ _______ _____ _____    ______ ____

>  <TORSDO>
F 7

$$$$
=
 OpenBabel11062422163D

 41 48  0  0  1  0  0  0  0  0999 V2000
  196.6870  176.8620  141.9530 N   0  0  0  0  0  2  0  0  0  0  0  0
  191.7320  174.2890  142.0200 C   0  0  0  0  0  0  0  0  0  0  0  0
  195.5490  175.1720  143.0500 C   0  0  0  0  0  2  0  0  0  0  0  0
  192.6110  174.4330  140.8180 C   0  0  2  0  0  3  0  0  0  0  0  0
  191.7480  171.9540  140.3270 C   0  0  0  0  0  2  0  0  0  0  0  0
  196.8500  175.8130  142.8780 N   0  0  0  0  0  2  0  0  0  0  0  0
  193.9630  172.8450  139.6590 C   0  0  0  0  0  0  0  0  0  0  0  0
  191.2540  175.9970  145.0660 N   0  0  0  0  0  0  0  0  0  0  0  0
  196.1570  173.4610  140.4520 C   0  0  0  0  0  3  0  0  0  0  0  0
  192.6300  176.1610  143.3970 C   0  0  0  0  0  0  0  0  0  0  0  0
  194.6300  175.7010  141.9760 C   0  0  0  0  0  0  0  0  0  0  0  0
  196.7160  172.4780  139.6220 C   0  0  0  0  0  3  0  0  0  0  0  0
  194.7670  173.6260  140.4520 C   0  0  0  0  0  0  0  0  0  0  0  0
  189.8970  173.1710  143.1270 C   0  0  0  0  0  0  0  0  0  0  0  0
  190.9410  175.0260  144.1850 C   0  0  0  0  0  0  0  0  0  0  0  0
  195.8900  171.6850  138.8060 C   0  0  0  0  0  3  0  0  0  0  0  0
  192.5310  173.2040  139.8330 C   0  0  2  0  0  3  0  0  0  0  0  0
  194.4980  171.8680  138.8190 C   0  0  0  0  0  3  0  0  0  0  0  0
  190.7270  173.3400  142.0610 C   0  0  0  0  0  0  0  0  0  0  0  0
  195.5540  176.5140  141.1140 C   0  0  0  0  0  2  0  0  0  0  0  0
  189.6460  171.3710  141.5950 N   0  0  0  0  0  0  0  0  0  0  0  0
  191.7980  175.1240  143.1170 C   0  0  0  0  0  0  0  0  0  0  0  0
  192.2850  176.7010  144.5920 N   0  0  0  0  0  0  0  0  0  0  0  0
  194.0280  174.5920  141.1960 N   0  0  0  0  0  0  0  0  0  0  0  0
  193.6780  176.5920  142.5820 O   0  0  0  0  0  0  0  0  0  0  0  0
  189.9570  174.0200  144.2550 C   0  0  0  0  0  3  0  0  0  0  0  0
  190.5870  172.3150  141.1330 N   0  0  0  0  0  0  0  0  0  0  0  0
  189.1200  171.9250  142.8720 C   0  0  0  0  0  3  0  0  0  0  0  0
  190.6210  176.2210  146.3590 C   0  0  2  0  0  3  0  0  0  0  0  0
  189.6680  178.0970  147.5360 O   0  0  0  0  0  1  0  0  0  0  0  0
  189.7020  177.4430  146.3020 C   0  0  2  0  0  3  0  0  0  0  0  0
  187.6290  176.1810  146.6050 C   0  0  0  0  0  2  0  0  0  0  0  0
  188.3160  177.0590  145.8730 C   0  0  0  0  0  0  0  0  0  0  0  0
  187.6300  177.8010  144.7620 C   0  0  0  0  0  2  0  0  0  0  0  0
  185.5950  177.1870  143.6500 O   0  0  0  0  0  1  0  0  0  0  0  0
  186.1170  177.6620  144.8570 C   0  0  2  0  0  3  0  0  0  0  0  0
  184.0740  178.7660  145.7760 C   0  0  0  0  0  1  0  0  0  0  0  0
  185.4250  179.9700  144.0810 C   0  0  0  0  0  1  0  0  0  0  0  0
  185.4770  178.9940  145.2460 C   0  0  0  0  0  3  0  0  0  0  0  0
  191.5980  176.3710  147.3490 O   0  0  0  0  0  0  0  0  0  0  0  0
  191.4140  175.2820  148.2020 C   0  0  0  0  0  1  0  0  0  0  0  0
  1  6  1  0  0  0  0
  2 19  2  0  0  0  0
  2 22  1  0  0  0  0
  4 24  1  0  0  0  0
  4  2  1  1  0  0  0
  5 27  1  0  0  0  0
  6  3  1  0  0  0  0
  7 17  1  0  0  0  0
  7 13  1  0  0  0  0
  8 29  1  0  0  0  0
  9 13  2  0  0  0  0
 10 23  2  0  0  0  0
 11 25  1  0  0  0  0
 11  3  1  0  0  0  0
 12  9  1  0  0  0  0
 13 24  1  0  0  0  0
 14 26  2  0  0  0  0
 15 26  1  0  0  0  0
 15  8  1  0  0  0  0
 16 18  1  0  0  0  0
 16 12  2  0  0  0  0
 17  5  1  1  0  0  0
 17  4  1  0  0  0  0
 18  7  2  0  0  0  0
 19 14  1  0  0  0  0
 20  1  1  0  0  0  0
 20 11  1  0  0  0  0
 21 28  2  0  0  0  0
 22 10  1  0  0  0  0
 22 15  2  0  0  0  0
 23  8  1  0  0  0  0
 24 11  1  0  0  0  0
 25 10  1  0  0  0  0
 27 21  1  0  0  0  0
 27 19  1  0  0  0  0
 28 14  1  0  0  0  0
 29 40  1  1  0  0  0
 31 29  1  0  0  0  0
 31 30  1  1  0  0  0
 33 31  1  0  0  0  0
 33 32  2  0  0  0  0
 34 36  1  0  0  0  0
 34 33  1  0  0  0  0
 36 35  1  6  0  0  0
 36 39  1  0  0  0  0
 38 39  1  0  0  0  0
 39 37  1  0  0  0  0
 40 41  1  0  0  0  0
M  END
>  <MODEL>
5

>  <REMARK>
 VINA RESULT:      -7.0      2.414      3.702
  Name = 
  7 active torsions:
  status: ('A' for Active; 'I' for Inactive)
    1  A    between atoms: C_7  and  C_20
    2  A    between atoms: C_7  and  C_34
    3  A    between atoms: O_12  and  C_18
    4  A    between atoms: N_13  and  C_18
    5  A    between atoms: C_18  and  C_39
    6  A    between atoms: C_20  and  C_39
    7  A    between atoms: C_34  and  C_40
                            x       y       z     vdW  Elec       q    Type
                         _______ _______ _______ _____ _____    ______ ____

>  <TORSDO>
F 7

$$$$
=
 OpenBabel11062422163D

 41 48  0  0  1  0  0  0  0  0999 V2000
  189.9750  170.7670  138.7040 N   0  0  0  0  0  2  0  0  0  0  0  0
  191.4490  174.2100  142.8460 C   0  0  0  0  0  0  0  0  0  0  0  0
  190.6500  172.9490  139.0800 C   0  0  0  0  0  2  0  0  0  0  0  0
  192.0880  172.8880  142.5570 C   0  0  2  0  0  3  0  0  0  0  0  0
  194.3070  174.2090  143.2330 C   0  0  0  0  0  2  0  0  0  0  0  0
  190.3740  171.9500  138.0510 N   0  0  0  0  0  2  0  0  0  0  0  0
  194.2070  172.3390  141.6100 C   0  0  0  0  0  0  0  0  0  0  0  0
  188.3280  175.7350  142.2500 N   0  0  0  0  0  0  0  0  0  0  0  0
  193.5490  171.7050  139.3770 C   0  0  0  0  0  3  0  0  0  0  0  0
  189.2640  173.8560  141.7030 C   0  0  0  0  0  0  0  0  0  0  0  0
  190.6670  172.2430  140.4150 C   0  0  0  0  0  0  0  0  0  0  0  0
  194.8860  171.3940  139.0870 C   0  0  0  0  0  3  0  0  0  0  0  0
  193.2330  172.1790  140.6550 C   0  0  0  0  0  0  0  0  0  0  0  0
  191.5520  176.3730  143.9200 C   0  0  0  0  0  0  0  0  0  0  0  0
  189.5700  175.7330  142.7720 C   0  0  0  0  0  0  0  0  0  0  0  0
  195.8790  171.5520  140.0690 C   0  0  0  0  0  3  0  0  0  0  0  0
  193.6310  172.8540  142.8790 C   0  0  2  0  0  3  0  0  0  0  0  0
  195.5420  172.0270  141.3470 C   0  0  0  0  0  3  0  0  0  0  0  0
  192.0900  175.1580  143.6220 C   0  0  0  0  0  0  0  0  0  0  0  0
  190.5710  170.7940  140.0280 C   0  0  0  0  0  2  0  0  0  0  0  0
  193.8430  176.3120  144.5480 N   0  0  0  0  0  0  0  0  0  0  0  0
  190.1720  174.5450  142.4430 C   0  0  0  0  0  0  0  0  0  0  0  0
  188.1280  174.5880  141.5960 N   0  0  0  0  0  0  0  0  0  0  0  0
  191.9330  172.5070  141.1410 N   0  0  0  0  0  0  0  0  0  0  0  0
  189.4770  172.5970  141.1390 O   0  0  0  0  0  0  0  0  0  0  0  0
  190.2460  176.7260  143.5100 C   0  0  0  0  0  3  0  0  0  0  0  0
  193.4250  175.0810  144.0010 N   0  0  0  0  0  0  0  0  0  0  0  0
  192.6280  177.1700  144.5730 C   0  0  0  0  0  3  0  0  0  0  0  0
  187.3660  176.8270  142.3240 C   0  0  2  0  0  3  0  0  0  0  0  0
  185.1920  176.7200  143.3620 O   0  0  0  0  0  1  0  0  0  0  0  0
  186.5640  176.7470  143.6250 C   0  0  2  0  0  3  0  0  0  0  0  0
  186.2200  179.0300  144.4310 C   0  0  0  0  0  2  0  0  0  0  0  0
  186.9010  177.8880  144.5390 C   0  0  0  0  0  0  0  0  0  0  0  0
  187.8380  177.6860  145.6950 C   0  0  0  0  0  2  0  0  0  0  0  0
  186.4850  176.6090  147.3570 O   0  0  0  0  0  1  0  0  0  0  0  0
  187.5220  176.3990  146.4440 C   0  0  2  0  0  3  0  0  0  0  0  0
  189.8470  176.9300  147.1840 C   0  0  0  0  0  1  0  0  0  0  0  0
  189.3180  174.6140  146.4710 C   0  0  0  0  0  1  0  0  0  0  0  0
  188.7700  175.8630  147.1450 C   0  0  0  0  0  3  0  0  0  0  0  0
  186.5210  176.7940  141.2090 O   0  0  0  0  0  0  0  0  0  0  0  0
  186.8790  177.9140  140.4560 C   0  0  0  0  0  1  0  0  0  0  0  0
  1 20  1  0  0  0  0
  2 19  1  0  0  0  0
  3 11  1  0  0  0  0
  4  2  1  6  0  0  0
  4 17  1  0  0  0  0
  5 27  1  0  0  0  0
  6  1  1  0  0  0  0
  6  3  1  0  0  0  0
  7 17  1  0  0  0  0
  8 29  1  0  0  0  0
  8 15  1  0  0  0  0
  9 13  1  0  0  0  0
 10 22  1  0  0  0  0
 11 25  1  0  0  0  0
 11 24  1  0  0  0  0
 12  9  2  0  0  0  0
 12 16  1  0  0  0  0
 13 24  1  0  0  0  0
 13  7  2  0  0  0  0
 14 28  1  0  0  0  0
 15 26  2  0  0  0  0
 16 18  2  0  0  0  0
 17  5  1  6  0  0  0
 18  7  1  0  0  0  0
 19 14  2  0  0  0  0
 19 27  1  0  0  0  0
 20 11  1  0  0  0  0
 21 28  2  0  0  0  0
 22 15  1  0  0  0  0
 22  2  2  0  0  0  0
 23 10  2  0  0  0  0
 23  8  1  0  0  0  0
 24  4  1  0  0  0  0
 25 10  1  0  0  0  0
 26 14  1  0  0  0  0
 27 21  1  0  0  0  0
 29 40  1  6  0  0  0
 29 31  1  0  0  0  0
 31 30  1  6  0  0  0
 31 33  1  0  0  0  0
 32 33  2  0  0  0  0
 33 34  1  0  0  0  0
 34 36  1  0  0  0  0
 36 39  1  0  0  0  0
 36 35  1  1  0  0  0
 38 39  1  0  0  0  0
 39 37  1  0  0  0  0
 41 40  1  0  0  0  0
M  END
>  <MODEL>
6

>  <REMARK>
 VINA RESULT:      -7.0      2.230      5.350
  Name = 
  7 active torsions:
  status: ('A' for Active; 'I' for Inactive)
    1  A    between atoms: C_7  and  C_20
    2  A    between atoms: C_7  and  C_34
    3  A    between atoms: O_12  and  C_18
    4  A    between atoms: N_13  and  C_18
    5  A    between atoms: C_18  and  C_39
    6  A    between atoms: C_20  and  C_39
    7  A    between atoms: C_34  and  C_40
                            x       y       z     vdW  Elec       q    Type
                         _______ _______ _______ _____ _____    ______ ____

>  <TORSDO>
F 7

$$$$
=
 OpenBabel11062422163D

 41 48  0  0  1  0  0  0  0  0999 V2000
  188.1470  173.4000  138.3120 N   0  0  0  0  0  2  0  0  0  0  0  0
  191.0290  171.7820  142.8130 C   0  0  0  0  0  0  0  0  0  0  0  0
  190.2470  173.5800  139.2680 C   0  0  0  0  0  2  0  0  0  0  0  0
  190.3170  170.8640  141.8710 C   0  0  2  0  0  3  0  0  0  0  0  0
  192.4550  169.3270  142.3090 C   0  0  0  0  0  2  0  0  0  0  0  0
  189.4590  173.8510  138.0690 N   0  0  0  0  0  2  0  0  0  0  0  0
  191.1420  169.3680  140.2070 C   0  0  0  0  0  0  0  0  0  0  0  0
  190.7730  175.1600  143.7870 N   0  0  0  0  0  0  0  0  0  0  0  0
  190.6770  170.6270  138.2020 C   0  0  0  0  0  3  0  0  0  0  0  0
  189.7990  173.8920  142.3210 C   0  0  0  0  0  0  0  0  0  0  0  0
  189.4260  172.6880  140.1670 C   0  0  0  0  0  0  0  0  0  0  0  0
  191.1710  169.5600  137.4360 C   0  0  0  0  0  3  0  0  0  0  0  0
  190.6730  170.5050  139.5960 C   0  0  0  0  0  0  0  0  0  0  0  0
  192.6880  172.1020  144.5420 C   0  0  0  0  0  0  0  0  0  0  0  0
  191.3260  173.9350  143.8780 C   0  0  0  0  0  0  0  0  0  0  0  0
  191.6440  168.3950  138.0640 C   0  0  0  0  0  3  0  0  0  0  0  0
  191.0380  169.4740  141.6860 C   0  0  2  0  0  3  0  0  0  0  0  0
  191.6300  168.2910  139.4650 C   0  0  0  0  0  3  0  0  0  0  0  0
  192.0130  171.3110  143.6640 C   0  0  0  0  0  0  0  0  0  0  0  0
  188.2410  172.3480  139.3090 C   0  0  0  0  0  2  0  0  0  0  0  0
  193.7220  169.9680  144.3950 N   0  0  0  0  0  0  0  0  0  0  0  0
  190.7130  173.1180  142.9630 C   0  0  0  0  0  0  0  0  0  0  0  0
  189.8320  175.1440  142.8390 N   0  0  0  0  0  0  0  0  0  0  0  0
  190.1770  171.4610  140.5300 N   0  0  0  0  0  0  0  0  0  0  0  0
  188.9660  173.4610  141.2880 O   0  0  0  0  0  0  0  0  0  0  0  0
  192.3720  173.4710  144.7020 C   0  0  0  0  0  3  0  0  0  0  0  0
  192.5790  170.0450  143.5730 N   0  0  0  0  0  0  0  0  0  0  0  0
  193.7950  171.2760  145.1000 C   0  0  0  0  0  3  0  0  0  0  0  0
  191.1630  176.3390  144.5490 C   0  0  2  0  0  3  0  0  0  0  0  0
  190.5280  178.6640  144.4740 O   0  0  0  0  0  1  0  0  0  0  0  0
  190.0260  177.3640  144.5720 C   0  0  2  0  0  3  0  0  0  0  0  0
  189.7200  177.5230  146.9940 C   0  0  0  0  0  2  0  0  0  0  0  0
  189.1900  177.2160  145.8090 C   0  0  0  0  0  0  0  0  0  0  0  0
  187.7190  176.9300  145.7030 C   0  0  0  0  0  2  0  0  0  0  0  0
  186.2780  176.7870  147.6160 O   0  0  0  0  0  1  0  0  0  0  0  0
  186.9330  177.6850  146.7660 C   0  0  2  0  0  3  0  0  0  0  0  0
  184.5230  178.2930  146.5240 C   0  0  0  0  0  1  0  0  0  0  0  0
  186.0480  178.6570  144.6020 C   0  0  0  0  0  1  0  0  0  0  0  0
  185.9400  178.6500  146.1190 C   0  0  0  0  0  3  0  0  0  0  0  0
  192.3290  176.8920  144.0080 O   0  0  0  0  0  0  0  0  0  0  0  0
  193.2620  176.8440  145.0460 C   0  0  0  0  0  1  0  0  0  0  0  0
  1 20  1  0  0  0  0
  2 22  2  0  0  0  0
  2 19  1  0  0  0  0
  3 11  1  0  0  0  0
  4  2  1  1  0  0  0
  5 27  1  0  0  0  0
  6  1  1  0  0  0  0
  6  3  1  0  0  0  0
  7 17  1  0  0  0  0
  8 15  1  0  0  0  0
  8 29  1  0  0  0  0
  9 13  2  0  0  0  0
 10 23  2  0  0  0  0
 10 22  1  0  0  0  0
 11 24  1  0  0  0  0
 11 25  1  0  0  0  0
 12 16  2  0  0  0  0
 12  9  1  0  0  0  0
 13  7  1  0  0  0  0
 13 24  1  0  0  0  0
 14 26  1  0  0  0  0
 14 28  1  0  0  0  0
 15 26  2  0  0  0  0
 16 18  1  0  0  0  0
 17  4  1  0  0  0  0
 17  5  1  1  0  0  0
 18  7  2  0  0  0  0
 19 14  2  0  0  0  0
 20 11  1  0  0  0  0
 21 28  2  0  0  0  0
 22 15  1  0  0  0  0
 23  8  1  0  0  0  0
 24  4  1  0  0  0  0
 25 10  1  0  0  0  0
 27 19  1  0  0  0  0
 27 21  1  0  0  0  0
 29 40  1  6  0  0  0
 29 31  1  0  0  0  0
 31 30  1  1  0  0  0
 31 33  1  0  0  0  0
 33 32  2  0  0  0  0
 34 33  1  0  0  0  0
 34 36  1  0  0  0  0
 36 35  1  6  0  0  0
 38 39  1  0  0  0  0
 39 37  1  0  0  0  0
 39 36  1  0  0  0  0
 40 41  1  0  0  0  0
M  END
>  <MODEL>
7

>  <REMARK>
 VINA RESULT:      -7.0      2.943      6.105
  Name = 
  7 active torsions:
  status: ('A' for Active; 'I' for Inactive)
    1  A    between atoms: C_7  and  C_20
    2  A    between atoms: C_7  and  C_34
    3  A    between atoms: O_12  and  C_18
    4  A    between atoms: N_13  and  C_18
    5  A    between atoms: C_18  and  C_39
    6  A    between atoms: C_20  and  C_39
    7  A    between atoms: C_34  and  C_40
                            x       y       z     vdW  Elec       q    Type
                         _______ _______ _______ _____ _____    ______ ____

>  <TORSDO>
F 7

$$$$
=
 OpenBabel11062422163D

 41 48  0  0  1  0  0  0  0  0999 V2000
  190.6240  170.0260  140.9020 N   0  0  0  0  0  2  0  0  0  0  0  0
  192.0550  173.9670  144.5900 C   0  0  0  0  0  0  0  0  0  0  0  0
  191.4390  172.1900  141.0020 C   0  0  0  0  0  2  0  0  0  0  0  0
  192.6070  172.5770  144.5580 C   0  0  2  0  0  3  0  0  0  0  0  0
  194.8680  173.8370  145.2150 C   0  0  0  0  0  2  0  0  0  0  0  0
  191.1620  171.0640  140.1150 N   0  0  0  0  0  2  0  0  0  0  0  0
  194.7400  171.7470  143.8880 C   0  0  0  0  0  0  0  0  0  0  0  0
  189.1160  175.5850  143.5080 N   0  0  0  0  0  0  0  0  0  0  0  0
  194.2010  170.8180  141.7280 C   0  0  0  0  0  3  0  0  0  0  0  0
  189.9390  173.5860  143.3320 C   0  0  0  0  0  0  0  0  0  0  0  0
  191.3020  171.7020  142.4240 C   0  0  0  0  0  0  0  0  0  0  0  0
  195.5280  170.3770  141.6030 C   0  0  0  0  0  3  0  0  0  0  0  0
  193.8300  171.5050  142.8890 C   0  0  0  0  0  0  0  0  0  0  0  0
  192.2480  176.2600  145.3310 C   0  0  0  0  0  0  0  0  0  0  0  0
  190.3130  175.5820  144.1290 C   0  0  0  0  0  0  0  0  0  0  0  0
  196.4550  170.6200  142.6310 C   0  0  0  0  0  3  0  0  0  0  0  0
  194.1150  172.4920  145.0120 C   0  0  2  0  0  3  0  0  0  0  0  0
  196.0620  171.3100  143.7890 C   0  0  0  0  0  3  0  0  0  0  0  0
  192.7090  174.9810  145.2670 C   0  0  0  0  0  0  0  0  0  0  0  0
  191.1210  170.2200  142.2530 C   0  0  0  0  0  2  0  0  0  0  0  0
  194.4750  176.1450  146.1550 N   0  0  0  0  0  0  0  0  0  0  0  0
  190.8420  174.3190  144.0340 C   0  0  0  0  0  0  0  0  0  0  0  0
  188.8750  174.3650  143.0200 N   0  0  0  0  0  0  0  0  0  0  0  0
  192.5280  171.9910  143.2070 N   0  0  0  0  0  0  0  0  0  0  0  0
  190.0930  172.2430  142.9830 O   0  0  0  0  0  0  0  0  0  0  0  0
  191.0080  176.6300  144.7640 C   0  0  0  0  0  3  0  0  0  0  0  0
  194.0020  174.8750  145.7650 N   0  0  0  0  0  0  0  0  0  0  0  0
  193.3320  177.0760  145.9470 C   0  0  0  0  0  3  0  0  0  0  0  0
  188.2400  176.7360  143.3360 C   0  0  2  0  0  3  0  0  0  0  0  0
  185.9420  176.4170  142.6770 O   0  0  0  0  0  1  0  0  0  0  0  0
  186.8130  176.3930  143.7700 C   0  0  2  0  0  3  0  0  0  0  0  0
  186.3190  178.6400  144.6020 C   0  0  0  0  0  2  0  0  0  0  0  0
  186.3350  177.3270  144.8430 C   0  0  0  0  0  0  0  0  0  0  0  0
  185.6870  176.7900  146.0870 C   0  0  0  0  0  2  0  0  0  0  0  0
  186.4810  178.0910  147.9390 O   0  0  0  0  0  1  0  0  0  0  0  0
  186.6320  176.8680  147.2780 C   0  0  2  0  0  3  0  0  0  0  0  0
  188.5670  175.2890  147.2610 C   0  0  0  0  0  1  0  0  0  0  0  0
  189.0110  177.7260  147.3880 C   0  0  0  0  0  1  0  0  0  0  0  0
  188.0790  176.6600  146.8330 C   0  0  0  0  0  3  0  0  0  0  0  0
  188.2720  177.1650  142.0050 O   0  0  0  0  0  0  0  0  0  0  0  0
  189.0990  178.2900  142.0110 C   0  0  0  0  0  1  0  0  0  0  0  0
  1 20  1  0  0  0  0
  2 19  1  0  0  0  0
  3 11  1  0  0  0  0
  4  2  1  6  0  0  0
  4 17  1  0  0  0  0
  5 27  1  0  0  0  0
  6  1  1  0  0  0  0
  6  3  1  0  0  0  0
  7 17  1  0  0  0  0
  8 15  1  0  0  0  0
  9 13  1  0  0  0  0
 10 22  1  0  0  0  0
 11 25  1  0  0  0  0
 11 24  1  0  0  0  0
 12  9  2  0  0  0  0
 12 16  1  0  0  0  0
 13 24  1  0  0  0  0
 13  7  2  0  0  0  0
 14 28  1  0  0  0  0
 15 26  2  0  0  0  0
 16 18  2  0  0  0  0
 17  5  1  6  0  0  0
 18  7  1  0  0  0  0
 19 14  2  0  0  0  0
 19 27  1  0  0  0  0
 20 11  1  0  0  0  0
 22 15  1  0  0  0  0
 22  2  2  0  0  0  0
 23 10  2  0  0  0  0
 23  8  1  0  0  0  0
 24  4  1  0  0  0  0
 25 10  1  0  0  0  0
 26 14  1  0  0  0  0
 27 21  1  0  0  0  0
 28 21  2  0  0  0  0
 29 40  1  6  0  0  0
 29  8  1  0  0  0  0
 29 31  1  0  0  0  0
 31 30  1  6  0  0  0
 31 33  1  0  0  0  0
 32 33  2  0  0  0  0
 33 34  1  0  0  0  0
 34 36  1  0  0  0  0
 36 35  1  6  0  0  0
 39 37  1  0  0  0  0
 39 36  1  0  0  0  0
 39 38  1  0  0  0  0
 40 41  1  0  0  0  0
M  END
>  <MODEL>
8

>  <REMARK>
 VINA RESULT:      -7.0      2.099      5.202
  Name = 
  7 active torsions:
  status: ('A' for Active; 'I' for Inactive)
    1  A    between atoms: C_7  and  C_20
    2  A    between atoms: C_7  and  C_34
    3  A    between atoms: O_12  and  C_18
    4  A    between atoms: N_13  and  C_18
    5  A    between atoms: C_18  and  C_39
    6  A    between atoms: C_20  and  C_39
    7  A    between atoms: C_34  and  C_40
                            x       y       z     vdW  Elec       q    Type
                         _______ _______ _______ _____ _____    ______ ____

>  <TORSDO>
F 7

$$$$
=
 OpenBabel11062422163D

 41 48  0  0  1  0  0  0  0  0999 V2000
  187.3860  177.9030  139.5750 N   0  0  0  0  0  2  0  0  0  0  0  0
  188.8150  176.2040  144.6990 C   0  0  0  0  0  0  0  0  0  0  0  0
  187.0580  176.1490  141.0490 C   0  0  0  0  0  2  0  0  0  0  0  0
  188.1690  177.5140  144.3760 C   0  0  2  0  0  3  0  0  0  0  0  0
  186.8610  177.0310  146.6520 C   0  0  0  0  0  2  0  0  0  0  0  0
  186.6370  176.7270  139.7760 N   0  0  0  0  0  2  0  0  0  0  0  0
  185.9450  178.3010  144.7310 C   0  0  0  0  0  0  0  0  0  0  0  0
  190.8040  173.8380  143.0050 N   0  0  0  0  0  0  0  0  0  0  0  0
  185.0420  178.1160  142.5010 C   0  0  0  0  0  3  0  0  0  0  0  0
  189.7770  175.6700  142.4640 C   0  0  0  0  0  0  0  0  0  0  0  0
  187.9110  177.1720  141.7600 C   0  0  0  0  0  0  0  0  0  0  0  0
  183.8350  178.6640  142.9610 C   0  0  0  0  0  3  0  0  0  0  0  0
  186.0900  177.9440  143.4130 C   0  0  0  0  0  0  0  0  0  0  0  0
  189.3720  174.5130  146.3340 C   0  0  0  0  0  0  0  0  0  0  0  0
  190.1800  174.2950  144.1080 C   0  0  0  0  0  0  0  0  0  0  0  0
  183.6930  179.0350  144.3100 C   0  0  0  0  0  3  0  0  0  0  0  0
  187.1860  178.0220  145.5000 C   0  0  2  0  0  3  0  0  0  0  0  0
  184.7570  178.8550  145.2080 C   0  0  0  0  0  3  0  0  0  0  0  0
  188.7950  175.6960  145.9850 C   0  0  0  0  0  0  0  0  0  0  0  0
  187.7710  178.3880  140.8890 C   0  0  0  0  0  2  0  0  0  0  0  0
  188.0100  175.3190  148.1070 N   0  0  0  0  0  0  0  0  0  0  0  0
  189.5340  175.4610  143.7840 C   0  0  0  0  0  0  0  0  0  0  0  0
  190.5670  174.6750  141.9910 N   0  0  0  0  0  0  0  0  0  0  0  0
  187.3930  177.4430  143.1230 N   0  0  0  0  0  0  0  0  0  0  0  0
  189.2810  176.7400  141.7160 O   0  0  0  0  0  0  0  0  0  0  0  0
  190.1090  173.7440  145.4040 C   0  0  0  0  0  3  0  0  0  0  0  0
  188.0110  176.2070  147.0110 N   0  0  0  0  0  0  0  0  0  0  0  0
  188.9430  174.2210  147.7300 C   0  0  0  0  0  3  0  0  0  0  0  0
  191.5680  172.6020  142.8990 C   0  0  2  0  0  3  0  0  0  0  0  0
  193.8110  172.1640  142.1290 O   0  0  0  0  0  1  0  0  0  0  0  0
  193.0630  172.8800  143.0680 C   0  0  2  0  0  3  0  0  0  0  0  0
  193.8840  171.3040  144.7500 C   0  0  0  0  0  2  0  0  0  0  0  0
  193.5190  172.5550  144.4600 C   0  0  0  0  0  0  0  0  0  0  0  0
  193.7650  173.6510  145.4560 C   0  0  0  0  0  2  0  0  0  0  0  0
  195.2840  175.2890  144.5820 O   0  0  0  0  0  1  0  0  0  0  0  0
  193.9280  174.9980  144.7650 C   0  0  2  0  0  3  0  0  0  0  0  0
  192.6250  177.1230  144.6230 C   0  0  0  0  0  1  0  0  0  0  0  0
  194.1820  176.8000  146.5260 C   0  0  0  0  0  1  0  0  0  0  0  0
  193.2340  176.1010  145.5630 C   0  0  0  0  0  3  0  0  0  0  0  0
  191.3060  171.9840  141.6710 O   0  0  0  0  0  0  0  0  0  0  0  0
  190.2780  171.0780  141.9380 C   0  0  0  0  0  1  0  0  0  0  0  0
  1  6  1  0  0  0  0
  1 20  1  0  0  0  0
  2 19  1  0  0  0  0
  3 11  1  0  0  0  0
  4  2  1  1  0  0  0
  4 17  1  0  0  0  0
  5 27  1  0  0  0  0
  6  3  1  0  0  0  0
  7 18  1  0  0  0  0
  7 17  1  0  0  0  0
  8 15  1  0  0  0  0
  9 12  2  0  0  0  0
  9 13  1  0  0  0  0
 10 22  1  0  0  0  0
 11 24  1  0  0  0  0
 12 16  1  0  0  0  0
 13  7  2  0  0  0  0
 14 28  1  0  0  0  0
 15 26  2  0  0  0  0
 16 18  2  0  0  0  0
 17  5  1  1  0  0  0
 19 14  2  0  0  0  0
 19 27  1  0  0  0  0
 20 11  1  0  0  0  0
 22 15  1  0  0  0  0
 22  2  2  0  0  0  0
 23 10  2  0  0  0  0
 23  8  1  0  0  0  0
 24 13  1  0  0  0  0
 24  4  1  0  0  0  0
 25 11  1  0  0  0  0
 25 10  1  0  0  0  0
 26 14  1  0  0  0  0
 27 21  1  0  0  0  0
 28 21  2  0  0  0  0
 29 40  1  6  0  0  0
 29  8  1  0  0  0  0
 29 31  1  0  0  0  0
 31 30  1  6  0  0  0
 31 33  1  0  0  0  0
 33 32  2  0  0  0  0
 33 34  1  0  0  0  0
 36 35  1  1  0  0  0
 36 34  1  0  0  0  0
 36 39  1  0  0  0  0
 37 39  1  0  0  0  0
 39 38  1  0  0  0  0
 40 41  1  0  0  0  0
M  END
>  <MODEL>
9

>  <REMARK>
 VINA RESULT:      -6.9      2.570      8.250
  Name = 
  7 active torsions:
  status: ('A' for Active; 'I' for Inactive)
    1  A    between atoms: C_7  and  C_20
    2  A    between atoms: C_7  and  C_34
    3  A    between atoms: O_12  and  C_18
    4  A    between atoms: N_13  and  C_18
    5  A    between atoms: C_18  and  C_39
    6  A    between atoms: C_20  and  C_39
    7  A    between atoms: C_34  and  C_40
                            x       y       z     vdW  Elec       q    Type
                         _______ _______ _______ _____ _____    ______ ____

>  <TORSDO>
F 7

$$$$
