=
 OpenBabel11062421493D

 48 53  0  0  1  0  0  0  0  0999 V2000
  195.2160  175.6380  145.5470 O   0  0  0  0  0  0  0  0  0  0  0  0
  194.4340  174.8770  144.9140 C   0  0  0  0  0  0  0  0  0  0  0  0
  191.4340  173.6430  144.4820 C   0  0  1  0  0  3  0  0  0  0  0  0
  190.7820  174.1950  142.0960 C   0  0  2  0  0  3  0  0  0  0  0  0
  193.7600  173.7710  145.6660 C   0  0  1  0  0  3  0  0  0  0  0  0
  189.0310  172.1060  143.5960 O   0  0  0  0  0  1  0  0  0  0  0  0
  190.5650  172.6830  141.8330 C   0  0  2  0  0  3  0  0  0  0  0  0
  194.1810  175.1110  143.4790 C   0  0  0  0  0  0  0  0  0  0  0  0
  193.2090  174.2440  142.7370 C   0  0  0  0  0  2  0  0  0  0  0  0
  191.7840  174.4760  143.2320 C   0  0  2  0  0  3  0  0  0  0  0  0
  190.3130  171.8600  143.1060 C   0  0  1  0  0  3  0  0  0  0  0  0
  191.3480  172.1450  144.1900 C   0  0  0  0  0  2  0  0  0  0  0  0
  194.8080  176.0810  142.8780 N   0  0  0  0  0  0  0  0  0  0  0  0
  192.2380  173.9600  145.7510 C   0  0  0  0  0  2  0  0  0  0  0  0
  195.3610  171.9740  145.4790 N   0  0  0  0  0  2  0  0  0  0  0  0
  194.1840  172.4090  145.2180 C   0  0  0  0  0  3  0  0  0  0  0  0
  189.4680  174.9570  142.3230 C   0  0  2  0  0  3  0  0  0  0  0  0
  188.5420  174.9110  141.1110 C   0  0  0  0  0  1  0  0  0  0  0  0
  189.7190  176.4060  142.7730 C   0  0  0  0  0  2  0  0  0  0  0  0
  186.4100  178.1200  147.0730 N   0  0  0  0  0  0  0  0  0  0  0  0
  187.0060  178.0900  144.8410 C   0  0  0  0  0  0  0  0  0  0  0  0
  188.8570  176.8310  143.9240 C   0  0  0  0  0  0  0  0  0  0  0  0
  189.1370  176.3440  145.2210 C   0  0  0  0  0  3  0  0  0  0  0  0
  185.8130  178.9720  144.8970 C   0  0  0  0  0  3  0  0  0  0  0  0
  187.2990  177.6270  146.0910 C   0  0  0  0  0  0  0  0  0  0  0  0
  185.4480  178.9940  146.3980 C   0  0  0  0  0  2  0  0  0  0  0  0
  188.3590  176.7450  146.3180 C   0  0  0  0  0  3  0  0  0  0  0  0
  187.7720  177.7190  143.7280 C   0  0  0  0  0  0  0  0  0  0  0  0
  187.4380  178.2630  142.3750 C   0  0  0  0  0  1  0  0  0  0  0  0
  191.7290  172.0960  141.0320 C   0  0  0  0  0  2  0  0  0  0  0  0
  191.3110  171.5800  139.6570 C   0  0  1  0  0  0  0  0  0  0  0  0
  191.1770  173.1490  137.8670 C   0  0  0  0  0  0  0  0  0  0  0  0
  193.3920  170.7500  138.7040 O   0  0  0  0  0  0  0  0  0  0  0  0
  190.6290  170.2250  139.7430 C   0  0  0  0  0  1  0  0  0  0  0  0
  190.3740  172.6000  139.0150 C   0  0  0  0  0  2  0  0  0  0  0  0
  192.3180  172.5760  137.6960 N   0  0  0  0  0  0  0  0  0  0  0  0
  192.4400  171.5760  138.6870 C   0  0  0  0  0  0  0  0  0  0  0  0
  190.7690  174.1980  137.0370 O   0  0  0  0  0  0  0  0  0  0  0  0
  189.7580  173.4340  135.0990 O   0  0  0  0  0  0  0  0  0  0  0  0
  189.6920  174.1330  136.1440 C   0  0  0  0  0  0  0  0  0  0  0  0
  186.8930  176.2770  136.1640 C   0  0  0  0  0  3  0  0  0  0  0  0
  186.7730  175.7170  137.3860 N   0  0  0  0  0  0  0  0  0  0  0  0
  187.9750  175.8050  135.5110 N   0  0  0  0  0  0  0  0  0  0  0  0
  187.7820  174.8800  137.5400 N   0  0  0  0  0  2  0  0  0  0  0  0
  188.5000  174.9440  136.4050 C   0  0  0  0  0  0  0  0  0  0  0  0
  194.6210  176.4200  141.4740 C   0  0  0  0  0  2  0  0  0  0  0  0
  196.7410  176.1610  140.9130 C   0  0  0  0  0  1  0  0  0  0  0  0
  195.4680  175.6370  140.6930 O   0  0  0  0  0  0  0  0  0  0  0  0
  2  1  2  0  0  0  0
  2  5  1  0  0  0  0
  3 12  1  6  0  0  0
  3 14  1  0  0  0  0
  4 17  1  1  0  0  0
  4 10  1  0  0  0  0
  5 16  1  6  0  0  0
  5 14  1  0  0  0  0
  7 30  1  1  0  0  0
  7  4  1  0  0  0  0
  7 11  1  0  0  0  0
  8  2  1  0  0  0  0
  9  8  1  0  0  0  0
 10  9  1  6  0  0  0
 10  3  1  0  0  0  0
 11  6  1  1  0  0  0
 11 12  1  0  0  0  0
 13  8  2  0  0  0  0
 16 15  2  0  0  0  0
 17 18  1  6  0  0  0
 17 19  1  0  0  0  0
 19 22  1  0  0  0  0
 21 24  2  0  0  0  0
 21 25  1  0  0  0  0
 22 23  1  0  0  0  0
 23 27  2  0  0  0  0
 24 26  1  0  0  0  0
 25 27  1  0  0  0  0
 25 20  2  0  0  0  0
 26 20  1  0  0  0  0
 28 22  2  0  0  0  0
 28 21  1  0  0  0  0
 29 28  1  0  0  0  0
 31 34  1  1  0  0  0
 31 30  1  0  0  0  0
 32 35  1  0  0  0  0
 35 31  1  0  0  0  0
 36 32  2  0  0  0  0
 36 37  1  0  0  0  0
 37 33  2  0  0  0  0
 37 31  1  0  0  0  0
 38 32  1  0  0  0  0
 39 40  2  0  0  0  0
 40 45  1  0  0  0  0
 40 38  1  0  0  0  0
 41 42  2  0  0  0  0
 42 44  1  0  0  0  0
 43 41  1  0  0  0  0
 43 45  2  0  0  0  0
 45 44  1  0  0  0  0
 46 13  1  0  0  0  0
 48 47  1  0  0  0  0
 48 46  1  0  0  0  0
M  END
>  <MODEL>
1

>  <REMARK>
 VINA RESULT:      -7.5      0.000      0.000
  Name = 
  11 active torsions:
  status: ('A' for Active; 'I' for Inactive)
    1  A    between atoms: C_8  and  C_28
    2  A    between atoms: C_9  and  C_47
    3  A    between atoms: C_11  and  C_29
    4  A    between atoms: C_12  and  C_29
    5  A    between atoms: C_14  and  O_24
    6  A    between atoms: C_18  and  C_48
    7  A    between atoms: O_24  and  C_25
    8  A    between atoms: C_25  and  C_44
    9  A    between atoms: C_28  and  C_48
   10  A    between atoms: N_31  and  C_37
   11  A    between atoms: C_37  and  O_43
                            x       y       z     vdW  Elec       q    Type
                         _______ _______ _______ _____ _____    ______ ____

>  <TORSDO>
F 11

$$$$
=
 OpenBabel11062421493D

 48 53  0  0  1  0  0  0  0  0999 V2000
  193.4640  174.0910  145.7110 O   0  0  0  0  0  0  0  0  0  0  0  0
  192.6890  173.8140  144.7560 C   0  0  0  0  0  0  0  0  0  0  0  0
  189.6470  173.5110  143.5870 C   0  0  1  0  0  3  0  0  0  0  0  0
  189.5060  175.0550  141.5820 C   0  0  2  0  0  3  0  0  0  0  0  0
  191.7300  172.6770  144.9290 C   0  0  1  0  0  3  0  0  0  0  0  0
  187.2140  172.9810  141.9380 O   0  0  0  0  0  1  0  0  0  0  0  0
  189.0970  173.8420  140.7090 C   0  0  2  0  0  3  0  0  0  0  0  0
  192.7230  174.6240  143.5220 C   0  0  0  0  0  0  0  0  0  0  0  0
  191.7650  174.3350  142.4070 C   0  0  0  0  0  2  0  0  0  0  0  0
  190.3330  174.6610  142.8210 C   0  0  2  0  0  3  0  0  0  0  0  0
  188.5050  172.6710  141.5090 C   0  0  1  0  0  3  0  0  0  0  0  0
  189.3730  172.2930  142.7050 C   0  0  0  0  0  2  0  0  0  0  0  0
  193.5910  175.5910  143.4270 N   0  0  0  0  0  0  0  0  0  0  0  0
  190.2650  173.1410  144.9440 C   0  0  0  0  0  2  0  0  0  0  0  0
  193.1580  170.9860  143.9680 N   0  0  0  0  0  2  0  0  0  0  0  0
  191.9990  171.5320  144.0070 C   0  0  0  0  0  3  0  0  0  0  0  0
  188.3120  175.9360  141.9780 C   0  0  2  0  0  3  0  0  0  0  0  0
  187.4780  176.3730  140.7770 C   0  0  0  0  0  1  0  0  0  0  0  0
  188.7490  177.1470  142.8180 C   0  0  0  0  0  2  0  0  0  0  0  0
  186.0010  177.6420  147.7760 N   0  0  0  0  0  0  0  0  0  0  0  0
  186.2770  178.1340  145.5360 C   0  0  0  0  0  0  0  0  0  0  0  0
  188.0390  177.2490  144.1350 C   0  0  0  0  0  0  0  0  0  0  0  0
  188.5220  176.5210  145.2450 C   0  0  0  0  0  3  0  0  0  0  0  0
  185.0620  178.8880  145.9370 C   0  0  0  0  0  3  0  0  0  0  0  0
  186.7660  177.4400  146.6040 C   0  0  0  0  0  0  0  0  0  0  0  0
  184.9130  178.5610  147.4400 C   0  0  0  0  0  2  0  0  0  0  0  0
  187.8890  176.6160  146.4940 C   0  0  0  0  0  3  0  0  0  0  0  0
  186.8950  178.0700  144.2790 C   0  0  0  0  0  0  0  0  0  0  0  0
  186.3470  178.8620  143.1340 C   0  0  0  0  0  1  0  0  0  0  0  0
  190.2710  173.3680  139.8490 C   0  0  0  0  0  2  0  0  0  0  0  0
  189.8890  173.1350  138.3890 C   0  0  1  0  0  0  0  0  0  0  0  0
  191.6420  172.7370  136.8240 C   0  0  0  0  0  0  0  0  0  0  0  0
  189.3540  170.7610  138.3140 O   0  0  0  0  0  0  0  0  0  0  0  0
  188.4800  173.6200  138.0870 C   0  0  0  0  0  1  0  0  0  0  0  0
  190.8950  173.8570  137.4970 C   0  0  0  0  0  2  0  0  0  0  0  0
  191.1910  171.5620  137.0940 N   0  0  0  0  0  0  0  0  0  0  0  0
  190.0940  171.7220  137.9700 C   0  0  0  0  0  0  0  0  0  0  0  0
  192.7440  172.9070  135.9810 O   0  0  0  0  0  0  0  0  0  0  0  0
  193.2130  174.9260  134.9490 O   0  0  0  0  0  0  0  0  0  0  0  0
  193.4760  174.0950  135.8570 C   0  0  0  0  0  0  0  0  0  0  0  0
  195.7590  174.9950  138.3890 C   0  0  0  0  0  3  0  0  0  0  0  0
  196.5420  174.1950  137.6360 N   0  0  0  0  0  0  0  0  0  0  0  0
  194.5190  175.1020  137.8670 N   0  0  0  0  0  0  0  0  0  0  0  0
  195.8180  173.7790  136.6140 N   0  0  0  0  0  2  0  0  0  0  0  0
  194.6020  174.3350  136.7630 C   0  0  0  0  0  0  0  0  0  0  0  0
  193.7000  176.4710  142.2720 C   0  0  0  0  0  2  0  0  0  0  0  0
  195.8940  176.3640  142.5020 C   0  0  0  0  0  1  0  0  0  0  0  0
  194.8700  176.1730  141.5750 O   0  0  0  0  0  0  0  0  0  0  0  0
  2  5  1  0  0  0  0
  2  1  2  0  0  0  0
  3 12  1  6  0  0  0
  3 14  1  0  0  0  0
  4 17  1  1  0  0  0
  4 10  1  0  0  0  0
  5 16  1  6  0  0  0
  5 14  1  0  0  0  0
  7 30  1  1  0  0  0
  7 11  1  0  0  0  0
  7  4  1  0  0  0  0
  8  2  1  0  0  0  0
  9  8  1  0  0  0  0
 10  9  1  6  0  0  0
 10  3  1  0  0  0  0
 11  6  1  1  0  0  0
 11 12  1  0  0  0  0
 13  8  2  0  0  0  0
 15 16  2  0  0  0  0
 17 18  1  6  0  0  0
 17 19  1  0  0  0  0
 19 22  1  0  0  0  0
 21 24  2  0  0  0  0
 21 25  1  0  0  0  0
 22 28  2  0  0  0  0
 22 23  1  0  0  0  0
 23 27  2  0  0  0  0
 24 26  1  0  0  0  0
 25 20  2  0  0  0  0
 26 20  1  0  0  0  0
 27 25  1  0  0  0  0
 28 21  1  0  0  0  0
 29 28  1  0  0  0  0
 31 34  1  6  0  0  0
 31 30  1  0  0  0  0
 32 36  2  0  0  0  0
 32 35  1  0  0  0  0
 35 31  1  0  0  0  0
 36 37  1  0  0  0  0
 37 33  2  0  0  0  0
 37 31  1  0  0  0  0
 38 32  1  0  0  0  0
 39 40  2  0  0  0  0
 40 38  1  0  0  0  0
 40 45  1  0  0  0  0
 42 41  2  0  0  0  0
 43 41  1  0  0  0  0
 44 45  1  0  0  0  0
 44 42  1  0  0  0  0
 45 43  2  0  0  0  0
 46 13  1  0  0  0  0
 48 46  1  0  0  0  0
 48 47  1  0  0  0  0
M  END
>  <MODEL>
2

>  <REMARK>
 VINA RESULT:      -7.4      2.178      3.329
  Name = 
  11 active torsions:
  status: ('A' for Active; 'I' for Inactive)
    1  A    between atoms: C_8  and  C_28
    2  A    between atoms: C_9  and  C_47
    3  A    between atoms: C_11  and  C_29
    4  A    between atoms: C_12  and  C_29
    5  A    between atoms: C_14  and  O_24
    6  A    between atoms: C_18  and  C_48
    7  A    between atoms: O_24  and  C_25
    8  A    between atoms: C_25  and  C_44
    9  A    between atoms: C_28  and  C_48
   10  A    between atoms: N_31  and  C_37
   11  A    between atoms: C_37  and  O_43
                            x       y       z     vdW  Elec       q    Type
                         _______ _______ _______ _____ _____    ______ ____

>  <TORSDO>
F 11

$$$$
=
 OpenBabel11062421493D

 48 53  0  0  1  0  0  0  0  0999 V2000
  194.8970  175.3770  145.5470 O   0  0  0  0  0  0  0  0  0  0  0  0
  194.0940  174.6970  144.8520 C   0  0  0  0  0  0  0  0  0  0  0  0
  191.0680  173.5570  144.3460 C   0  0  1  0  0  3  0  0  0  0  0  0
  190.3880  174.3650  142.0420 C   0  0  2  0  0  3  0  0  0  0  0  0
  193.4150  173.5280  145.4960 C   0  0  1  0  0  3  0  0  0  0  0  0
  188.6280  172.1550  143.3450 O   0  0  0  0  0  1  0  0  0  0  0  0
  190.1430  172.8920  141.6260 C   0  0  2  0  0  3  0  0  0  0  0  0
  193.8220  175.0830  143.4540 C   0  0  0  0  0  0  0  0  0  0  0  0
  192.8250  174.3120  142.6420 C   0  0  0  0  0  2  0  0  0  0  0  0
  191.4120  174.5110  143.1830 C   0  0  2  0  0  3  0  0  0  0  0  0
  189.8980  171.9430  142.8100 C   0  0  1  0  0  3  0  0  0  0  0  0
  190.9540  172.0980  143.9000 C   0  0  0  0  0  2  0  0  0  0  0  0
  194.4550  176.1030  142.9470 N   0  0  0  0  0  0  0  0  0  0  0  0
  191.8970  173.7280  145.6270 C   0  0  0  0  0  2  0  0  0  0  0  0
  194.2250  171.2600  145.6470 N   0  0  0  0  0  2  0  0  0  0  0  0
  193.8100  172.2150  144.9000 C   0  0  0  0  0  3  0  0  0  0  0  0
  189.0900  175.1170  142.3700 C   0  0  2  0  0  3  0  0  0  0  0  0
  188.1560  175.2340  141.1690 C   0  0  0  0  0  1  0  0  0  0  0  0
  189.3700  176.4950  142.9900 C   0  0  0  0  0  2  0  0  0  0  0  0
  186.1620  177.7020  147.5320 N   0  0  0  0  0  0  0  0  0  0  0  0
  186.6730  177.8830  145.2870 C   0  0  0  0  0  0  0  0  0  0  0  0
  188.5360  176.7860  144.2020 C   0  0  0  0  0  0  0  0  0  0  0  0
  188.8850  176.2060  145.4420 C   0  0  0  0  0  3  0  0  0  0  0  0
  185.4490  178.7050  145.4590 C   0  0  0  0  0  3  0  0  0  0  0  0
  187.0320  177.3310  146.4820 C   0  0  0  0  0  0  0  0  0  0  0  0
  185.1420  178.5860  146.9680 C   0  0  0  0  0  2  0  0  0  0  0  0
  188.1350  176.4800  146.5960 C   0  0  0  0  0  3  0  0  0  0  0  0
  187.4100  177.6390  144.1190 C   0  0  0  0  0  0  0  0  0  0  0  0
  187.0020  178.2790  142.8300 C   0  0  0  0  0  1  0  0  0  0  0  0
  191.2850  172.3760  140.7480 C   0  0  0  0  0  2  0  0  0  0  0  0
  190.8750  172.1670  139.2920 C   0  0  1  0  0  0  0  0  0  0  0  0
  192.3680  172.9140  137.5900 C   0  0  0  0  0  0  0  0  0  0  0  0
  191.5730  169.8810  138.8270 O   0  0  0  0  0  0  0  0  0  0  0  0
  189.3840  171.9040  139.1550 C   0  0  0  0  0  1  0  0  0  0  0  0
  191.2660  173.4050  138.4890 C   0  0  0  0  0  2  0  0  0  0  0  0
  192.5950  171.6490  137.6720 N   0  0  0  0  0  0  0  0  0  0  0  0
  191.6900  171.1190  138.6200 C   0  0  0  0  0  0  0  0  0  0  0  0
  193.1190  173.7240  136.7340 O   0  0  0  0  0  0  0  0  0  0  0  0
  194.1220  175.4410  137.9210 O   0  0  0  0  0  0  0  0  0  0  0  0
  193.3950  175.0790  136.9580 C   0  0  0  0  0  0  0  0  0  0  0  0
  192.4760  177.7870  134.8970 C   0  0  0  0  0  3  0  0  0  0  0  0
  191.3530  177.0410  134.8240 N   0  0  0  0  0  0  0  0  0  0  0  0
  193.4010  177.2080  135.6880 N   0  0  0  0  0  0  0  0  0  0  0  0
  191.5390  175.9710  135.5750 N   0  0  0  0  0  2  0  0  0  0  0  0
  192.7750  176.0850  136.0930 C   0  0  0  0  0  0  0  0  0  0  0  0
  194.2500  176.5900  141.5900 C   0  0  0  0  0  2  0  0  0  0  0  0
  196.4510  176.7320  141.4810 C   0  0  0  0  0  1  0  0  0  0  0  0
  195.3410  176.2310  140.8020 O   0  0  0  0  0  0  0  0  0  0  0  0
  2  5  1  0  0  0  0
  2  1  2  0  0  0  0
  3 12  1  6  0  0  0
  3 14  1  0  0  0  0
  4 17  1  1  0  0  0
  4 10  1  0  0  0  0
  5 16  1  6  0  0  0
  5 14  1  0  0  0  0
  7 30  1  1  0  0  0
  7  4  1  0  0  0  0
  7 11  1  0  0  0  0
  8  2  1  0  0  0  0
  9  8  1  0  0  0  0
 10  9  1  6  0  0  0
 10  3  1  0  0  0  0
 11  6  1  1  0  0  0
 11 12  1  0  0  0  0
 13  8  2  0  0  0  0
 16 15  2  0  0  0  0
 17 18  1  6  0  0  0
 17 19  1  0  0  0  0
 19 22  1  0  0  0  0
 21 24  2  0  0  0  0
 21 25  1  0  0  0  0
 22 23  1  0  0  0  0
 23 27  2  0  0  0  0
 24 26  1  0  0  0  0
 25 27  1  0  0  0  0
 25 20  2  0  0  0  0
 26 20  1  0  0  0  0
 28 22  2  0  0  0  0
 28 21  1  0  0  0  0
 29 28  1  0  0  0  0
 31 34  1  6  0  0  0
 31 30  1  0  0  0  0
 32 36  2  0  0  0  0
 32 35  1  0  0  0  0
 35 31  1  0  0  0  0
 36 37  1  0  0  0  0
 37 33  2  0  0  0  0
 37 31  1  0  0  0  0
 38 40  1  0  0  0  0
 38 32  1  0  0  0  0
 40 39  2  0  0  0  0
 41 43  1  0  0  0  0
 42 41  2  0  0  0  0
 42 44  1  0  0  0  0
 43 45  2  0  0  0  0
 44 45  1  0  0  0  0
 45 40  1  0  0  0  0
 46 13  1  0  0  0  0
 48 47  1  0  0  0  0
 48 46  1  0  0  0  0
M  END
>  <MODEL>
3

>  <REMARK>
 VINA RESULT:      -7.4      1.765      2.100
  Name = 
  11 active torsions:
  status: ('A' for Active; 'I' for Inactive)
    1  A    between atoms: C_8  and  C_28
    2  A    between atoms: C_9  and  C_47
    3  A    between atoms: C_11  and  C_29
    4  A    between atoms: C_12  and  C_29
    5  A    between atoms: C_14  and  O_24
    6  A    between atoms: C_18  and  C_48
    7  A    between atoms: O_24  and  C_25
    8  A    between atoms: C_25  and  C_44
    9  A    between atoms: C_28  and  C_48
   10  A    between atoms: N_31  and  C_37
   11  A    between atoms: C_37  and  O_43
                            x       y       z     vdW  Elec       q    Type
                         _______ _______ _______ _____ _____    ______ ____

>  <TORSDO>
F 11

$$$$
=
 OpenBabel11062421493D

 48 53  0  0  1  0  0  0  0  0999 V2000
  197.0690  176.9980  143.4450 O   0  0  0  0  0  0  0  0  0  0  0  0
  195.9610  176.4610  143.7150 C   0  0  0  0  0  0  0  0  0  0  0  0
  192.9810  176.6590  145.0530 C   0  0  1  0  0  3  0  0  0  0  0  0
  191.3380  176.1410  143.1940 C   0  0  2  0  0  3  0  0  0  0  0  0
  195.5710  176.3260  145.1540 C   0  0  1  0  0  3  0  0  0  0  0  0
  190.2330  176.1380  146.1030 O   0  0  0  0  0  1  0  0  0  0  0  0
  190.7650  174.9870  144.0560 C   0  0  2  0  0  3  0  0  0  0  0  0
  195.0740  176.0150  142.6220 C   0  0  0  0  0  0  0  0  0  0  0  0
  193.7310  175.4280  142.9370 C   0  0  0  0  0  2  0  0  0  0  0  0
  192.8020  176.4830  143.5310 C   0  0  2  0  0  3  0  0  0  0  0  0
  191.0410  175.1390  145.5600 C   0  0  1  0  0  3  0  0  0  0  0  0
  192.5080  175.4420  145.8490 C   0  0  0  0  0  2  0  0  0  0  0  0
  195.4760  176.1480  141.3900 N   0  0  0  0  0  0  0  0  0  0  0  0
  194.3480  177.1830  145.5160 C   0  0  0  0  0  2  0  0  0  0  0  0
  196.5170  174.1530  145.6130 N   0  0  0  0  0  2  0  0  0  0  0  0
  195.4780  174.9050  145.6090 C   0  0  0  0  0  3  0  0  0  0  0  0
  190.4600  177.4010  143.2230 C   0  0  2  0  0  3  0  0  0  0  0  0
  191.1500  178.5850  143.8960 C   0  0  0  0  0  1  0  0  0  0  0  0
  189.0880  177.1270  143.8580 C   0  0  0  0  0  2  0  0  0  0  0  0
  184.6400  178.1830  140.4720 N   0  0  0  0  0  0  0  0  0  0  0  0
  185.5940  177.8770  142.5530 C   0  0  0  0  0  0  0  0  0  0  0  0
  187.9370  177.4150  142.9420 C   0  0  0  0  0  0  0  0  0  0  0  0
  188.1550  177.4740  141.5470 C   0  0  0  0  0  3  0  0  0  0  0  0
  184.1630  178.1540  142.8350 C   0  0  0  0  0  3  0  0  0  0  0  0
  185.8160  177.9130  141.2060 C   0  0  0  0  0  0  0  0  0  0  0  0
  183.5450  178.3330  141.4310 C   0  0  0  0  0  2  0  0  0  0  0  0
  187.0900  177.7190  140.6660 C   0  0  0  0  0  3  0  0  0  0  0  0
  186.6350  177.6210  143.4570 C   0  0  0  0  0  0  0  0  0  0  0  0
  186.3530  177.5660  144.9250 C   0  0  0  0  0  1  0  0  0  0  0  0
  191.2610  173.6310  143.5500 C   0  0  0  0  0  2  0  0  0  0  0  0
  190.1450  172.5990  143.4110 C   0  0  1  0  0  0  0  0  0  0  0  0
  189.0500  172.4140  141.3010 C   0  0  0  0  0  0  0  0  0  0  0  0
  191.3370  170.5350  142.9140 O   0  0  0  0  0  0  0  0  0  0  0  0
  189.6150  172.1490  144.7620 C   0  0  0  0  0  1  0  0  0  0  0  0
  189.0170  173.2050  142.5800 C   0  0  0  0  0  2  0  0  0  0  0  0
  189.8990  171.4450  141.2990 N   0  0  0  0  0  0  0  0  0  0  0  0
  190.5430  171.4470  142.5570 C   0  0  0  0  0  0  0  0  0  0  0  0
  188.2580  172.6760  140.1790 O   0  0  0  0  0  0  0  0  0  0  0  0
  188.1240  174.7720  139.2020 O   0  0  0  0  0  0  0  0  0  0  0  0
  188.5810  173.5990  139.1750 C   0  0  0  0  0  0  0  0  0  0  0  0
  190.7470  173.1720  136.4270 C   0  0  0  0  0  3  0  0  0  0  0  0
  190.4200  171.8860  136.6740 N   0  0  0  0  0  0  0  0  0  0  0  0
  190.1300  174.0100  137.2850 N   0  0  0  0  0  0  0  0  0  0  0  0
  189.5810  171.8790  137.6930 N   0  0  0  0  0  2  0  0  0  0  0  0
  189.4110  173.1650  138.0490 C   0  0  0  0  0  0  0  0  0  0  0  0
  194.6790  175.7680  140.2330 C   0  0  0  0  0  2  0  0  0  0  0  0
  196.7310  175.3590  139.5260 C   0  0  0  0  0  1  0  0  0  0  0  0
  195.4170  174.9020  139.4280 O   0  0  0  0  0  0  0  0  0  0  0  0
  1  2  2  0  0  0  0
  2  5  1  0  0  0  0
  3 14  1  6  0  0  0
  3 12  1  0  0  0  0
  4 17  1  1  0  0  0
  4 10  1  0  0  0  0
  4  7  1  0  0  0  0
  5 14  1  0  0  0  0
  5 16  1  6  0  0  0
  7 30  1  6  0  0  0
  7 11  1  0  0  0  0
  8  9  1  0  0  0  0
  8  2  1  0  0  0  0
 10  9  1  1  0  0  0
 10  3  1  0  0  0  0
 11 12  1  0  0  0  0
 11  6  1  6  0  0  0
 13  8  2  0  0  0  0
 16 15  2  0  0  0  0
 17 19  1  0  0  0  0
 17 18  1  1  0  0  0
 20 25  2  0  0  0  0
 20 26  1  0  0  0  0
 21 24  2  0  0  0  0
 21 28  1  0  0  0  0
 22 28  2  0  0  0  0
 22 19  1  0  0  0  0
 23 22  1  0  0  0  0
 25 21  1  0  0  0  0
 26 24  1  0  0  0  0
 27 25  1  0  0  0  0
 27 23  2  0  0  0  0
 28 29  1  0  0  0  0
 31 30  1  0  0  0  0
 31 34  1  1  0  0  0
 32 35  1  0  0  0  0
 35 31  1  0  0  0  0
 36 32  2  0  0  0  0
 36 37  1  0  0  0  0
 37 33  2  0  0  0  0
 37 31  1  0  0  0  0
 38 32  1  0  0  0  0
 40 39  2  0  0  0  0
 40 38  1  0  0  0  0
 41 42  2  0  0  0  0
 41 43  1  0  0  0  0
 42 44  1  0  0  0  0
 43 45  2  0  0  0  0
 44 45  1  0  0  0  0
 45 40  1  0  0  0  0
 46 13  1  0  0  0  0
 48 47  1  0  0  0  0
 48 46  1  0  0  0  0
M  END
>  <MODEL>
4

>  <REMARK>
 VINA RESULT:      -7.3      2.485      3.694
  Name = 
  11 active torsions:
  status: ('A' for Active; 'I' for Inactive)
    1  A    between atoms: C_8  and  C_28
    2  A    between atoms: C_9  and  C_47
    3  A    between atoms: C_11  and  C_29
    4  A    between atoms: C_12  and  C_29
    5  A    between atoms: C_14  and  O_24
    6  A    between atoms: C_18  and  C_48
    7  A    between atoms: O_24  and  C_25
    8  A    between atoms: C_25  and  C_44
    9  A    between atoms: C_28  and  C_48
   10  A    between atoms: N_31  and  C_37
   11  A    between atoms: C_37  and  O_43
                            x       y       z     vdW  Elec       q    Type
                         _______ _______ _______ _____ _____    ______ ____

>  <TORSDO>
F 11

$$$$
=
 OpenBabel11062421493D

 48 53  0  0  1  0  0  0  0  0999 V2000
  197.0360  176.7180  143.2600 O   0  0  0  0  0  0  0  0  0  0  0  0
  195.8900  176.3060  143.5870 C   0  0  0  0  0  0  0  0  0  0  0  0
  193.0030  176.8480  145.0320 C   0  0  1  0  0  3  0  0  0  0  0  0
  191.2410  176.4590  143.2530 C   0  0  2  0  0  3  0  0  0  0  0  0
  195.5470  176.2480  145.0440 C   0  0  1  0  0  3  0  0  0  0  0  0
  190.2620  176.6420  146.2010 O   0  0  0  0  0  1  0  0  0  0  0  0
  190.5880  175.3930  144.1690 C   0  0  2  0  0  3  0  0  0  0  0  0
  194.9170  175.9290  142.5420 C   0  0  0  0  0  0  0  0  0  0  0  0
  193.5350  175.4940  142.9250 C   0  0  0  0  0  2  0  0  0  0  0  0
  192.7450  176.6540  143.5240 C   0  0  2  0  0  3  0  0  0  0  0  0
  190.9390  175.5510  145.6570 C   0  0  1  0  0  3  0  0  0  0  0  0
  192.4400  175.7070  145.8810 C   0  0  0  0  0  2  0  0  0  0  0  0
  195.2800  175.9890  141.2930 N   0  0  0  0  0  0  0  0  0  0  0  0
  194.4350  177.2370  145.4270 C   0  0  0  0  0  2  0  0  0  0  0  0
  196.3200  174.1210  145.8810 N   0  0  0  0  0  2  0  0  0  0  0  0
  195.3270  174.8560  145.5420 C   0  0  0  0  0  3  0  0  0  0  0  0
  190.5000  177.8040  143.2800 C   0  0  2  0  0  3  0  0  0  0  0  0
  191.3380  178.9260  143.8870 C   0  0  0  0  0  1  0  0  0  0  0  0
  189.1360  177.6910  143.9790 C   0  0  0  0  0  2  0  0  0  0  0  0
  184.6420  178.1330  140.5170 N   0  0  0  0  0  0  0  0  0  0  0  0
  185.6060  178.0790  142.6160 C   0  0  0  0  0  0  0  0  0  0  0  0
  187.9720  177.8170  143.0410 C   0  0  0  0  0  0  0  0  0  0  0  0
  188.1930  177.7670  141.6470 C   0  0  0  0  0  3  0  0  0  0  0  0
  184.1580  178.2810  142.8750 C   0  0  0  0  0  3  0  0  0  0  0  0
  185.8310  178.0110  141.2710 C   0  0  0  0  0  0  0  0  0  0  0  0
  183.5350  178.2910  141.4610 C   0  0  0  0  0  2  0  0  0  0  0  0
  187.1180  177.8590  140.7490 C   0  0  0  0  0  3  0  0  0  0  0  0
  186.6570  177.9770  143.5380 C   0  0  0  0  0  0  0  0  0  0  0  0
  186.3720  178.0330  145.0050 C   0  0  0  0  0  1  0  0  0  0  0  0
  190.9200  173.9800  143.6840 C   0  0  0  0  0  2  0  0  0  0  0  0
  189.8590  173.4030  142.7490 C   0  0  1  0  0  0  0  0  0  0  0  0
  190.5630  171.8510  141.0810 C   0  0  0  0  0  0  0  0  0  0  0  0
  188.9350  171.5410  144.0160 O   0  0  0  0  0  0  0  0  0  0  0  0
  188.5880  174.2360  142.7500 C   0  0  0  0  0  1  0  0  0  0  0  0
  190.4370  173.3290  141.3380 C   0  0  0  0  0  2  0  0  0  0  0  0
  190.0890  171.1080  142.0200 N   0  0  0  0  0  0  0  0  0  0  0  0
  189.5850  171.9660  143.0230 C   0  0  0  0  0  0  0  0  0  0  0  0
  191.1470  171.2860  139.9440 O   0  0  0  0  0  0  0  0  0  0  0  0
  192.9790  170.5780  138.7170 O   0  0  0  0  0  0  0  0  0  0  0  0
  192.5140  171.0130  139.8030 C   0  0  0  0  0  0  0  0  0  0  0  0
  194.7220  172.0080  142.3660 C   0  0  0  0  0  3  0  0  0  0  0  0
  194.3790  170.7800  142.8100 N   0  0  0  0  0  0  0  0  0  0  0  0
  194.1120  172.2960  141.1980 N   0  0  0  0  0  0  0  0  0  0  0  0
  193.5460  170.2580  141.9290 N   0  0  0  0  0  2  0  0  0  0  0  0
  193.3960  171.1790  140.9610 C   0  0  0  0  0  0  0  0  0  0  0  0
  194.4010  175.6660  140.1780 C   0  0  0  0  0  2  0  0  0  0  0  0
  194.2450  174.9200  138.1050 C   0  0  0  0  0  1  0  0  0  0  0  0
  195.1490  175.0920  139.1520 O   0  0  0  0  0  0  0  0  0  0  0  0
  1  2  2  0  0  0  0
  2  5  1  0  0  0  0
  3 14  1  6  0  0  0
  3 12  1  0  0  0  0
  4 17  1  1  0  0  0
  4 10  1  0  0  0  0
  4  7  1  0  0  0  0
  5 14  1  0  0  0  0
  5 16  1  6  0  0  0
  7 30  1  6  0  0  0
  7 11  1  0  0  0  0
  8  9  1  0  0  0  0
  8  2  1  0  0  0  0
 10  9  1  1  0  0  0
 10  3  1  0  0  0  0
 11 12  1  0  0  0  0
 11  6  1  6  0  0  0
 13  8  2  0  0  0  0
 16 15  2  0  0  0  0
 17 18  1  1  0  0  0
 17 19  1  0  0  0  0
 20 25  2  0  0  0  0
 20 26  1  0  0  0  0
 21 24  2  0  0  0  0
 21 28  1  0  0  0  0
 22 28  2  0  0  0  0
 22 19  1  0  0  0  0
 23 22  1  0  0  0  0
 25 21  1  0  0  0  0
 26 24  1  0  0  0  0
 27 25  1  0  0  0  0
 27 23  2  0  0  0  0
 28 29  1  0  0  0  0
 31 34  1  1  0  0  0
 31 37  1  0  0  0  0
 31 30  1  0  0  0  0
 32 35  1  0  0  0  0
 32 36  2  0  0  0  0
 35 31  1  0  0  0  0
 36 37  1  0  0  0  0
 37 33  2  0  0  0  0
 38 32  1  0  0  0  0
 39 40  2  0  0  0  0
 40 38  1  0  0  0  0
 40 45  1  0  0  0  0
 41 42  2  0  0  0  0
 43 41  1  0  0  0  0
 44 42  1  0  0  0  0
 45 43  2  0  0  0  0
 45 44  1  0  0  0  0
 46 13  1  0  0  0  0
 47 48  1  0  0  0  0
 48 46  1  0  0  0  0
M  END
>  <MODEL>
5

>  <REMARK>
 VINA RESULT:      -6.9      2.832      4.802
  Name = 
  11 active torsions:
  status: ('A' for Active; 'I' for Inactive)
    1  A    between atoms: C_8  and  C_28
    2  A    between atoms: C_9  and  C_47
    3  A    between atoms: C_11  and  C_29
    4  A    between atoms: C_12  and  C_29
    5  A    between atoms: C_14  and  O_24
    6  A    between atoms: C_18  and  C_48
    7  A    between atoms: O_24  and  C_25
    8  A    between atoms: C_25  and  C_44
    9  A    between atoms: C_28  and  C_48
   10  A    between atoms: N_31  and  C_37
   11  A    between atoms: C_37  and  O_43
                            x       y       z     vdW  Elec       q    Type
                         _______ _______ _______ _____ _____    ______ ____

>  <TORSDO>
F 11

$$$$
=
 OpenBabel11062421493D

 48 53  0  0  1  0  0  0  0  0999 V2000
  191.4310  170.4170  140.6310 O   0  0  0  0  0  0  0  0  0  0  0  0
  191.9040  170.9890  141.6500 C   0  0  0  0  0  0  0  0  0  0  0  0
  194.4490  172.3440  143.1980 C   0  0  1  0  0  3  0  0  0  0  0  0
  193.7500  174.7150  143.7610 C   0  0  2  0  0  3  0  0  0  0  0  0
  193.0180  170.3130  142.3880 C   0  0  1  0  0  3  0  0  0  0  0  0
  196.3040  173.6200  145.1620 O   0  0  0  0  0  1  0  0  0  0  0  0
  194.0340  174.4160  145.2550 C   0  0  2  0  0  3  0  0  0  0  0  0
  191.3800  172.3050  142.0660 C   0  0  0  0  0  0  0  0  0  0  0  0
  191.9780  173.0140  143.2430 C   0  0  0  0  0  2  0  0  0  0  0  0
  193.4080  173.4540  142.9440 C   0  0  2  0  0  3  0  0  0  0  0  0
  195.0000  173.2430  145.4830 C   0  0  1  0  0  3  0  0  0  0  0  0
  194.6040  172.0070  144.6820 C   0  0  0  0  0  2  0  0  0  0  0  0
  190.4000  172.8350  141.3900 N   0  0  0  0  0  0  0  0  0  0  0  0
  194.3370  171.0970  142.3100 C   0  0  0  0  0  2  0  0  0  0  0  0
  192.8790  168.7000  144.1770 N   0  0  0  0  0  2  0  0  0  0  0  0
  192.6380  169.8910  143.7710 C   0  0  0  0  0  3  0  0  0  0  0  0
  194.8740  175.5160  143.0880 C   0  0  2  0  0  3  0  0  0  0  0  0
  195.3620  176.6820  143.9430 C   0  0  0  0  0  1  0  0  0  0  0  0
  194.4740  175.9910  141.6820 C   0  0  0  0  0  2  0  0  0  0  0  0
  197.8940  174.0730  137.5590 N   0  0  0  0  0  0  0  0  0  0  0  0
  195.8260  174.2760  138.5670 C   0  0  0  0  0  0  0  0  0  0  0  0
  195.3970  175.5100  140.6030 C   0  0  0  0  0  0  0  0  0  0  0  0
  196.7650  175.8580  140.6510 C   0  0  0  0  0  3  0  0  0  0  0  0
  195.5710  173.4600  137.3520 C   0  0  0  0  0  3  0  0  0  0  0  0
  197.1480  174.6050  138.6350 C   0  0  2  0  0  3  0  0  0  0  0  0
  196.9700  173.3200  136.7110 C   0  0  0  0  0  3  0  0  0  0  0  0
  197.6550  175.4020  139.6650 C   0  0  0  0  0  3  0  0  0  0  0  0
  194.9160  174.7050  139.5430 C   0  0  0  0  0  0  0  0  0  0  0  0
  193.4760  174.3080  139.4500 C   0  0  0  0  0  1  0  0  0  0  0  0
  192.7290  174.1990  146.0250 C   0  0  0  0  0  2  0  0  0  0  0  0
  192.0430  175.5040  146.4230 C   0  0  1  0  0  0  0  0  0  0  0  0
  189.7010  175.7020  146.0260 C   0  0  0  0  0  0  0  0  0  0  0  0
  191.5630  175.1950  148.7900 O   0  0  0  0  0  0  0  0  0  0  0  0
  193.0410  176.6340  146.6150 C   0  0  0  0  0  1  0  0  0  0  0  0
  191.0300  175.8750  145.3430 C   0  0  0  0  0  2  0  0  0  0  0  0
  189.7830  175.4040  147.2770 N   0  0  0  0  0  0  0  0  0  0  0  0
  191.1550  175.3380  147.6060 C   0  0  0  0  0  0  0  0  0  0  0  0
  188.4590  175.8310  145.3990 O   0  0  0  0  0  0  0  0  0  0  0  0
  188.3160  177.8030  144.1940 O   0  0  0  0  0  0  0  0  0  0  0  0
  187.8460  177.0520  145.0880 C   0  0  0  0  0  0  0  0  0  0  0  0
  185.4690  178.3690  147.3340 C   0  0  0  0  0  3  0  0  0  0  0  0
  184.6480  177.8370  146.4040 N   0  0  0  0  0  0  0  0  0  0  0  0
  186.7650  178.1660  147.0200 N   0  0  0  0  0  0  0  0  0  0  0  0
  185.4070  177.2780  145.4790 N   0  0  0  0  0  2  0  0  0  0  0  0
  186.6790  177.4800  145.8630 C   0  0  0  0  0  0  0  0  0  0  0  0
  189.8190  174.1360  141.6910 C   0  0  0  0  0  2  0  0  0  0  0  0
  187.7790  174.8870  142.0800 C   0  0  0  0  0  1  0  0  0  0  0  0
  188.7230  173.9670  142.5340 O   0  0  0  0  0  0  0  0  0  0  0  0
  1  2  2  0  0  0  0
  2  8  1  0  0  0  0
  2  5  1  0  0  0  0
  3 14  1  6  0  0  0
  3 12  1  0  0  0  0
  4 17  1  6  0  0  0
  4  7  1  0  0  0  0
  5 16  1  1  0  0  0
  7 11  1  0  0  0  0
  7 30  1  1  0  0  0
  8  9  1  0  0  0  0
 10  3  1  0  0  0  0
 10  9  1  1  0  0  0
 10  4  1  0  0  0  0
 11  6  1  6  0  0  0
 12 11  1  0  0  0  0
 13 46  1  0  0  0  0
 13  8  2  0  0  0  0
 14  5  1  0  0  0  0
 16 15  2  0  0  0  0
 17 18  1  1  0  0  0
 19 17  1  0  0  0  0
 20 25  1  0  0  0  0
 21 25  1  0  0  0  0
 21 28  1  0  0  0  0
 22 23  1  0  0  0  0
 22 19  1  0  0  0  0
 24 21  2  0  0  0  0
 25 27  1  6  0  0  0
 26 24  1  0  0  0  0
 26 20  2  0  0  0  0
 27 23  2  0  0  0  0
 28 22  2  0  0  0  0
 29 28  1  0  0  0  0
 30 31  1  0  0  0  0
 31 34  1  1  0  0  0
 31 37  1  0  0  0  0
 32 36  2  0  0  0  0
 35 32  1  0  0  0  0
 35 31  1  0  0  0  0
 36 37  1  0  0  0  0
 37 33  2  0  0  0  0
 38 32  1  0  0  0  0
 39 40  2  0  0  0  0
 40 38  1  0  0  0  0
 40 45  1  0  0  0  0
 42 41  2  0  0  0  0
 43 41  1  0  0  0  0
 44 45  1  0  0  0  0
 44 42  1  0  0  0  0
 45 43  2  0  0  0  0
 46 48  1  0  0  0  0
 47 48  1  0  0  0  0
M  END
>  <MODEL>
6

>  <REMARK>
 VINA RESULT:      -6.9      3.144      8.518
  Name = 
  11 active torsions:
  status: ('A' for Active; 'I' for Inactive)
    1  A    between atoms: C_8  and  C_28
    2  A    between atoms: C_9  and  C_47
    3  A    between atoms: C_11  and  C_29
    4  A    between atoms: C_12  and  C_29
    5  A    between atoms: C_14  and  O_24
    6  A    between atoms: C_18  and  C_48
    7  A    between atoms: O_24  and  C_25
    8  A    between atoms: C_25  and  C_44
    9  A    between atoms: C_28  and  C_48
   10  A    between atoms: N_31  and  C_37
   11  A    between atoms: C_37  and  O_43
                            x       y       z     vdW  Elec       q    Type
                         _______ _______ _______ _____ _____    ______ ____

>  <TORSDO>
F 11

$$$$
=
 OpenBabel11062421493D

 48 53  0  0  1  0  0  0  0  0999 V2000
  196.1300  173.2790  139.3970 O   0  0  0  0  0  0  0  0  0  0  0  0
  195.0850  173.6020  140.0250 C   0  0  0  0  0  0  0  0  0  0  0  0
  192.8570  172.9330  142.3270 C   0  0  1  0  0  3  0  0  0  0  0  0
  192.8990  174.8900  143.9370 C   0  0  2  0  0  3  0  0  0  0  0  0
  193.9000  172.6900  139.9430 C   0  0  1  0  0  3  0  0  0  0  0  0
  190.5040  172.9170  144.1670 O   0  0  0  0  0  1  0  0  0  0  0  0
  191.3850  175.1030  143.6770 C   0  0  2  0  0  3  0  0  0  0  0  0
  195.0660  174.8330  140.8380 C   0  0  0  0  0  0  0  0  0  0  0  0
  193.8450  175.1910  141.6310 C   0  0  0  0  0  2  0  0  0  0  0  0
  193.6240  174.1970  142.7680 C   0  0  2  0  0  3  0  0  0  0  0  0
  190.6640  173.8540  143.1470 C   0  0  1  0  0  3  0  0  0  0  0  0
  191.3980  173.2210  141.9690 C   0  0  0  0  0  2  0  0  0  0  0  0
  196.1240  175.5920  140.8580 N   0  0  0  0  0  0  0  0  0  0  0  0
  193.5620  172.0410  141.2940 C   0  0  0  0  0  2  0  0  0  0  0  0
  192.8770  173.9060  138.1270 N   0  0  0  0  0  2  0  0  0  0  0  0
  192.7280  173.3070  139.2500 C   0  0  0  0  0  3  0  0  0  0  0  0
  193.1820  174.1690  145.2630 C   0  0  2  0  0  3  0  0  0  0  0  0
  192.6070  174.9050  146.4690 C   0  0  0  0  0  1  0  0  0  0  0  0
  194.6810  173.8860  145.4500 C   0  0  0  0  0  2  0  0  0  0  0  0
  196.1630  168.4860  144.4460 N   0  0  0  0  0  0  0  0  0  0  0  0
  196.4850  170.7640  144.2390 C   0  0  0  0  0  0  0  0  0  0  0  0
  195.0540  172.4530  145.2120 C   0  0  0  0  0  0  0  0  0  0  0  0
  194.2560  171.4260  145.7620 C   0  0  0  0  0  3  0  0  0  0  0  0
  197.6220  170.1570  143.5010 C   0  0  0  0  0  3  0  0  0  0  0  0
  195.6950  169.7810  144.7610 C   0  0  0  0  0  0  0  0  0  0  0  0
  197.3720  168.6390  143.6350 C   0  0  0  0  0  3  0  0  0  0  0  0
  194.5700  170.0770  145.5350 C   0  0  0  0  0  3  0  0  0  0  0  0
  196.1900  172.1190  144.4370 C   0  0  2  0  0  3  0  0  0  0  0  0
  197.0650  173.1720  143.8310 C   0  0  0  0  0  1  0  0  0  0  0  0
  191.1540  176.2960  142.7470 C   0  0  0  0  0  2  0  0  0  0  0  0
  190.3130  177.3990  143.3860 C   0  0  1  0  0  0  0  0  0  0  0  0
  187.9820  177.4560  142.8890 C   0  0  0  0  0  0  0  0  0  0  0  0
  189.7700  176.5000  145.5820 O   0  0  0  0  0  0  0  0  0  0  0  0
  191.1710  178.5440  143.8960 C   0  0  0  0  0  1  0  0  0  0  0  0
  189.3120  177.9120  142.3540 C   0  0  0  0  0  2  0  0  0  0  0  0
  188.0430  176.8830  144.0420 N   0  0  0  0  0  0  0  0  0  0  0  0
  189.3990  176.8750  144.4370 C   0  0  0  0  0  0  0  0  0  0  0  0
  186.7600  177.6060  142.2260 O   0  0  0  0  0  0  0  0  0  0  0  0
  185.7940  179.0620  143.7450 O   0  0  0  0  0  0  0  0  0  0  0  0
  185.6840  178.3640  142.7030 C   0  0  0  0  0  0  0  0  0  0  0  0
  182.3330  178.2890  141.6100 C   0  0  0  0  0  3  0  0  0  0  0  0
  182.9720  178.1970  140.4240 N   0  0  0  0  0  0  0  0  0  0  0  0
  183.2060  178.3560  142.6350 N   0  0  0  0  0  0  0  0  0  0  0  0
  184.2690  178.1970  140.6720 N   0  0  0  0  0  2  0  0  0  0  0  0
  184.3970  178.2900  142.0070 C   0  0  0  0  0  0  0  0  0  0  0  0
  196.2300  176.8150  141.6410 C   0  0  0  0  0  2  0  0  0  0  0  0
  196.3030  176.7590  143.8480 C   0  0  0  0  0  1  0  0  0  0  0  0
  197.0960  176.6040  142.7120 O   0  0  0  0  0  0  0  0  0  0  0  0
  1  2  2  0  0  0  0
  2  8  1  0  0  0  0
  3 14  1  6  0  0  0
  3 10  1  0  0  0  0
  4 17  1  1  0  0  0
  5 16  1  1  0  0  0
  5  2  1  0  0  0  0
  5 14  1  0  0  0  0
  7 30  1  6  0  0  0
  7  4  1  0  0  0  0
  8 13  2  0  0  0  0
  8  9  1  0  0  0  0
 10  9  1  6  0  0  0
 10  4  1  0  0  0  0
 11  7  1  0  0  0  0
 11  6  1  1  0  0  0
 12  3  1  0  0  0  0
 12 11  1  0  0  0  0
 13 46  1  0  0  0  0
 15 16  2  0  0  0  0
 17 19  1  0  0  0  0
 17 18  1  1  0  0  0
 20 25  1  0  0  0  0
 21 28  1  0  0  0  0
 21 25  1  0  0  0  0
 22 19  1  0  0  0  0
 22 23  2  0  0  0  0
 24 26  1  0  0  0  0
 24 21  2  0  0  0  0
 25 27  2  0  0  0  0
 26 20  2  0  0  0  0
 27 23  1  0  0  0  0
 28 29  1  6  0  0  0
 28 22  1  0  0  0  0
 30 31  1  0  0  0  0
 31 34  1  1  0  0  0
 31 37  1  0  0  0  0
 32 36  2  0  0  0  0
 35 32  1  0  0  0  0
 35 31  1  0  0  0  0
 36 37  1  0  0  0  0
 37 33  2  0  0  0  0
 38 40  1  0  0  0  0
 38 32  1  0  0  0  0
 40 39  2  0  0  0  0
 41 43  1  0  0  0  0
 42 44  1  0  0  0  0
 42 41  2  0  0  0  0
 44 45  1  0  0  0  0
 45 43  2  0  0  0  0
 45 40  1  0  0  0  0
 46 48  1  0  0  0  0
 48 47  1  0  0  0  0
M  END
>  <MODEL>
7

>  <REMARK>
 VINA RESULT:      -6.8      3.092      7.617
  Name = 
  11 active torsions:
  status: ('A' for Active; 'I' for Inactive)
    1  A    between atoms: C_8  and  C_28
    2  A    between atoms: C_9  and  C_47
    3  A    between atoms: C_11  and  C_29
    4  A    between atoms: C_12  and  C_29
    5  A    between atoms: C_14  and  O_24
    6  A    between atoms: C_18  and  C_48
    7  A    between atoms: O_24  and  C_25
    8  A    between atoms: C_25  and  C_44
    9  A    between atoms: C_28  and  C_48
   10  A    between atoms: N_31  and  C_37
   11  A    between atoms: C_37  and  O_43
                            x       y       z     vdW  Elec       q    Type
                         _______ _______ _______ _____ _____    ______ ____

>  <TORSDO>
F 11

$$$$
=
 OpenBabel11062421493D

 48 53  0  0  1  0  0  0  0  0999 V2000
  196.3480  176.8000  141.8850 O   0  0  0  0  0  0  0  0  0  0  0  0
  195.5910  175.9400  141.3570 C   0  0  0  0  0  0  0  0  0  0  0  0
  194.8790  172.8040  140.7470 C   0  0  1  0  0  3  0  0  0  0  0  0
  192.5560  172.4150  141.6840 C   0  0  2  0  0  3  0  0  0  0  0  0
  196.1680  175.0360  140.3120 C   0  0  1  0  0  3  0  0  0  0  0  0
  193.7020  170.2320  139.7860 O   0  0  0  0  0  1  0  0  0  0  0  0
  192.0940  171.9540  140.2780 C   0  0  2  0  0  3  0  0  0  0  0  0
  194.1880  175.8240  141.8000 C   0  0  0  0  0  0  0  0  0  0  0  0
  193.3010  174.7660  141.2160 C   0  0  0  0  0  2  0  0  0  0  0  0
  193.7600  173.3750  141.6440 C   0  0  2  0  0  3  0  0  0  0  0  0
  193.2400  171.4810  139.3710 C   0  0  1  0  0  3  0  0  0  0  0  0
  194.3950  172.4770  139.3340 C   0  0  0  0  0  2  0  0  0  0  0  0
  193.7420  176.6490  142.7040 N   0  0  0  0  0  0  0  0  0  0  0  0
  196.2110  173.5670  140.7620 C   0  0  0  0  0  2  0  0  0  0  0  0
  196.3080  175.2410  137.9110 N   0  0  0  0  0  2  0  0  0  0  0  0
  195.5680  175.2430  138.9580 C   0  0  0  0  0  3  0  0  0  0  0  0
  192.8220  171.2420  142.6390 C   0  0  2  0  0  3  0  0  0  0  0  0
  191.6590  170.2550  142.7000 C   0  0  0  0  0  1  0  0  0  0  0  0
  193.2080  171.7280  144.0460 C   0  0  0  0  0  2  0  0  0  0  0  0
  189.5530  175.4140  146.3760 N   0  0  0  0  0  0  0  0  0  0  0  0
  191.6920  174.6510  145.9500 C   0  0  0  0  0  0  0  0  0  0  0  0
  192.2210  172.6900  144.6380 C   0  0  0  0  0  0  0  0  0  0  0  0
  190.8400  172.4890  144.4240 C   0  0  0  0  0  3  0  0  0  0  0  0
  191.8870  175.8780  146.7630 C   0  0  0  0  0  3  0  0  0  0  0  0
  190.3590  174.4350  145.7510 C   0  0  0  0  0  0  0  0  0  0  0  0
  190.4470  176.3550  147.0530 C   0  0  0  0  0  2  0  0  0  0  0  0
  189.8950  173.3620  144.9860 C   0  0  0  0  0  3  0  0  0  0  0  0
  192.6580  173.7900  145.4130 C   0  0  0  0  0  0  0  0  0  0  0  0
  194.1110  174.0430  145.6700 C   0  0  0  0  0  1  0  0  0  0  0  0
  191.2750  173.0480  139.5870 C   0  0  0  0  0  2  0  0  0  0  0  0
  189.7870  172.7180  139.5030 C   0  0  1  0  0  0  0  0  0  0  0  0
  188.2860  173.9640  140.8730 C   0  0  0  0  0  0  0  0  0  0  0  0
  189.0270  174.0130  137.5850 O   0  0  0  0  0  0  0  0  0  0  0  0
  189.5420  171.3560  138.8750 C   0  0  0  0  0  1  0  0  0  0  0  0
  189.1930  172.7640  140.9080 C   0  0  0  0  0  2  0  0  0  0  0  0
  188.1920  174.5240  139.7170 N   0  0  0  0  0  0  0  0  0  0  0  0
  189.0080  173.7920  138.8260 C   0  0  0  0  0  0  0  0  0  0  0  0
  187.5940  174.4730  141.9760 O   0  0  0  0  0  0  0  0  0  0  0  0
  188.5830  176.1650  143.2090 O   0  0  0  0  0  0  0  0  0  0  0  0
  187.6710  175.7990  142.4220 C   0  0  0  0  0  0  0  0  0  0  0  0
  185.4870  178.0910  140.8720 C   0  0  0  0  0  3  0  0  0  0  0  0
  184.8500  177.9150  142.0490 N   0  0  0  0  0  0  0  0  0  0  0  0
  186.6200  177.3620  140.8110 N   0  0  0  0  0  0  0  0  0  0  0  0
  185.5700  177.0720  142.7660 N   0  0  0  0  0  2  0  0  0  0  0  0
  186.6350  176.7500  142.0120 C   0  0  0  0  0  0  0  0  0  0  0  0
  192.3860  176.6150  143.2340 C   0  0  0  0  0  2  0  0  0  0  0  0
  191.1550  178.3210  143.9060 C   0  0  0  0  0  1  0  0  0  0  0  0
  191.6790  177.7190  142.7630 O   0  0  0  0  0  0  0  0  0  0  0  0
  2  8  1  0  0  0  0
  2  1  2  0  0  0  0
  3 12  1  6  0  0  0
  3 14  1  0  0  0  0
  3 10  1  0  0  0  0
  4 17  1  1  0  0  0
  5 16  1  6  0  0  0
  5 14  1  0  0  0  0
  5  2  1  0  0  0  0
  7 30  1  6  0  0  0
  7  4  1  0  0  0  0
  8 13  2  0  0  0  0
  9  8  1  0  0  0  0
 10  9  1  6  0  0  0
 10  4  1  0  0  0  0
 11  6  1  1  0  0  0
 11  7  1  0  0  0  0
 12 11  1  0  0  0  0
 13 46  1  0  0  0  0
 15 16  2  0  0  0  0
 17 18  1  1  0  0  0
 17 19  1  0  0  0  0
 19 22  1  0  0  0  0
 20 26  1  0  0  0  0
 21 24  2  0  0  0  0
 22 28  2  0  0  0  0
 23 22  1  0  0  0  0
 23 27  2  0  0  0  0
 24 26  1  0  0  0  0
 25 21  1  0  0  0  0
 25 20  2  0  0  0  0
 27 25  1  0  0  0  0
 28 29  1  0  0  0  0
 28 21  1  0  0  0  0
 31 34  1  6  0  0  0
 31 30  1  0  0  0  0
 31 35  1  0  0  0  0
 32 35  1  0  0  0  0
 32 38  1  0  0  0  0
 33 37  2  0  0  0  0
 36 32  2  0  0  0  0
 37 31  1  0  0  0  0
 37 36  1  0  0  0  0
 38 40  1  0  0  0  0
 40 39  2  0  0  0  0
 41 42  2  0  0  0  0
 42 44  1  0  0  0  0
 43 41  1  0  0  0  0
 43 45  2  0  0  0  0
 45 40  1  0  0  0  0
 45 44  1  0  0  0  0
 48 46  1  0  0  0  0
 48 47  1  0  0  0  0
M  END
>  <MODEL>
8

>  <REMARK>
 VINA RESULT:      -6.8      2.572      5.214
  Name = 
  11 active torsions:
  status: ('A' for Active; 'I' for Inactive)
    1  A    between atoms: C_8  and  C_28
    2  A    between atoms: C_9  and  C_47
    3  A    between atoms: C_11  and  C_29
    4  A    between atoms: C_12  and  C_29
    5  A    between atoms: C_14  and  O_24
    6  A    between atoms: C_18  and  C_48
    7  A    between atoms: O_24  and  C_25
    8  A    between atoms: C_25  and  C_44
    9  A    between atoms: C_28  and  C_48
   10  A    between atoms: N_31  and  C_37
   11  A    between atoms: C_37  and  O_43
                            x       y       z     vdW  Elec       q    Type
                         _______ _______ _______ _____ _____    ______ ____

>  <TORSDO>
F 11

$$$$
=
 OpenBabel11062421493D

 48 53  0  0  1  0  0  0  0  0999 V2000
  186.3150  176.0420  143.2120 O   0  0  0  0  0  0  0  0  0  0  0  0
  187.5700  176.1470  143.1430 C   0  0  0  0  0  0  0  0  0  0  0  0
  190.4400  176.6950  144.6160 C   0  0  1  0  0  3  0  0  0  0  0  0
  191.8620  174.6440  144.1720 C   0  0  2  0  0  3  0  0  0  0  0  0
  188.1920  177.4560  143.5210 C   0  0  1  0  0  3  0  0  0  0  0  0
  193.3140  177.1620  145.2840 O   0  0  0  0  0  1  0  0  0  0  0  0
  192.9350  175.5590  143.5280 C   0  0  2  0  0  3  0  0  0  0  0  0
  188.3840  174.9870  142.7290 C   0  0  0  0  0  0  0  0  0  0  0  0
  189.8790  175.0920  142.7000 C   0  0  0  0  0  2  0  0  0  0  0  0
  190.4420  175.2370  144.1110 C   0  0  2  0  0  3  0  0  0  0  0  0
  192.8510  177.0270  143.9760 C   0  0  1  0  0  3  0  0  0  0  0  0
  191.4340  177.5820  143.8650 C   0  0  0  0  0  2  0  0  0  0  0  0
  187.7820  173.8810  142.3990 N   0  0  0  0  0  0  0  0  0  0  0  0
  189.0620  177.3500  144.7840 C   0  0  0  0  0  2  0  0  0  0  0  0
  188.2650  178.2510  141.2440 N   0  0  0  0  0  2  0  0  0  0  0  0
  188.8590  178.1450  142.3750 C   0  0  0  0  0  3  0  0  0  0  0  0
  192.2180  174.2230  145.6060 C   0  0  2  0  0  3  0  0  0  0  0  0
  191.5550  175.1030  146.6610 C   0  0  0  0  0  1  0  0  0  0  0  0
  193.7390  174.1550  145.8200 C   0  0  0  0  0  2  0  0  0  0  0  0
  196.1180  169.1900  144.3820 N   0  0  0  0  0  0  0  0  0  0  0  0
  196.2340  171.3560  145.1750 C   0  0  0  0  0  0  0  0  0  0  0  0
  194.3360  172.8310  145.4440 C   0  0  0  0  0  0  0  0  0  0  0  0
  193.4970  171.7980  144.9720 C   0  0  0  0  0  3  0  0  0  0  0  0
  197.6350  170.8660  145.2200 C   0  0  0  0  0  3  0  0  0  0  0  0
  195.4140  170.3730  144.7040 C   0  0  2  0  0  3  0  0  0  0  0  0
  197.5340  169.4280  144.6650 C   0  0  0  0  0  3  0  0  0  0  0  0
  194.0340  170.5580  144.5920 C   0  0  0  0  0  3  0  0  0  0  0  0
  195.7300  172.6090  145.5500 C   0  0  0  0  0  0  0  0  0  0  0  0
  196.6600  173.6730  146.0420 C   0  0  0  0  0  1  0  0  0  0  0  0
  192.8940  175.4560  142.0020 C   0  0  0  0  0  2  0  0  0  0  0  0
  193.8830  174.4360  141.4430 C   0  0  1  0  0  0  0  0  0  0  0  0
  193.0780  172.8540  139.8510 C   0  0  0  0  0  0  0  0  0  0  0  0
  194.9700  175.6350  139.6240 O   0  0  0  0  0  0  0  0  0  0  0  0
  195.1240  174.3140  142.3110 C   0  0  0  0  0  1  0  0  0  0  0  0
  193.1830  173.0830  141.3350 C   0  0  0  0  0  2  0  0  0  0  0  0
  193.6550  173.7550  139.1340 N   0  0  0  0  0  0  0  0  0  0  0  0
  194.2220  174.6990  140.0180 C   0  0  0  0  0  0  0  0  0  0  0  0
  192.4110  171.7800  139.2550 O   0  0  0  0  0  0  0  0  0  0  0  0
  192.0390  171.4440  136.9940 O   0  0  0  0  0  0  0  0  0  0  0  0
  191.6220  171.8740  138.1020 C   0  0  0  0  0  0  0  0  0  0  0  0
  188.7960  173.9820  138.0400 C   0  0  0  0  0  3  0  0  0  0  0  0
  188.2260  172.8310  138.4570 N   0  0  0  0  0  0  0  0  0  0  0  0
  190.1230  173.8320  137.8500 N   0  0  0  0  0  0  0  0  0  0  0  0
  189.1820  171.9250  138.5460 N   0  0  0  0  0  2  0  0  0  0  0  0
  190.3200  172.5410  138.1820 C   0  0  0  0  0  0  0  0  0  0  0  0
  188.4810  172.6670  141.9980 C   0  0  0  0  0  2  0  0  0  0  0  0
  190.1190  171.5100  142.9220 C   0  0  0  0  0  1  0  0  0  0  0  0
  188.8060  171.9260  143.1330 O   0  0  0  0  0  0  0  0  0  0  0  0
  2  1  2  0  0  0  0
  2  5  1  0  0  0  0
  3 12  1  6  0  0  0
  3 14  1  0  0  0  0
  4 17  1  1  0  0  0
  5 16  1  6  0  0  0
  5 14  1  0  0  0  0
  7 30  1  6  0  0  0
  7 11  1  0  0  0  0
  7  4  1  0  0  0  0
  8  2  1  0  0  0  0
  9  8  1  0  0  0  0
 10  9  1  6  0  0  0
 10  4  1  0  0  0  0
 10  3  1  0  0  0  0
 11  6  1  1  0  0  0
 12 11  1  0  0  0  0
 13  8  2  0  0  0  0
 15 16  2  0  0  0  0
 17 19  1  0  0  0  0
 17 18  1  1  0  0  0
 20 26  2  0  0  0  0
 20 25  1  0  0  0  0
 21 24  2  0  0  0  0
 21 28  1  0  0  0  0
 22 28  2  0  0  0  0
 22 19  1  0  0  0  0
 23 22  1  0  0  0  0
 25 27  1  1  0  0  0
 25 21  1  0  0  0  0
 26 24  1  0  0  0  0
 27 23  2  0  0  0  0
 28 29  1  0  0  0  0
 31 30  1  0  0  0  0
 31 34  1  1  0  0  0
 32 35  1  0  0  0  0
 33 37  2  0  0  0  0
 35 31  1  0  0  0  0
 36 32  2  0  0  0  0
 36 37  1  0  0  0  0
 37 31  1  0  0  0  0
 38 32  1  0  0  0  0
 39 40  2  0  0  0  0
 40 45  1  0  0  0  0
 40 38  1  0  0  0  0
 41 42  2  0  0  0  0
 42 44  1  0  0  0  0
 43 41  1  0  0  0  0
 43 45  2  0  0  0  0
 45 44  1  0  0  0  0
 46 13  1  0  0  0  0
 46 48  1  0  0  0  0
 47 48  1  0  0  0  0
M  END
>  <MODEL>
9

>  <REMARK>
 VINA RESULT:      -6.8      2.280      7.076
  Name = 
  11 active torsions:
  status: ('A' for Active; 'I' for Inactive)
    1  A    between atoms: C_8  and  C_28
    2  A    between atoms: C_9  and  C_47
    3  A    between atoms: C_11  and  C_29
    4  A    between atoms: C_12  and  C_29
    5  A    between atoms: C_14  and  O_24
    6  A    between atoms: C_18  and  C_48
    7  A    between atoms: O_24  and  C_25
    8  A    between atoms: C_25  and  C_44
    9  A    between atoms: C_28  and  C_48
   10  A    between atoms: N_31  and  C_37
   11  A    between atoms: C_37  and  O_43
                            x       y       z     vdW  Elec       q    Type
                         _______ _______ _______ _____ _____    ______ ____

>  <TORSDO>
F 11

$$$$
