=
 OpenBabel11062422273D

 36 40  0  0  1  0  0  0  0  0999 V2000
  190.7970  176.8620  148.4710 O   0  0  0  0  0  0  0  0  0  0  0  0
  184.0830  179.3500  144.0600 O   0  0  0  0  0  1  0  0  0  0  0  0
  190.7230  174.3150  141.5690 C   0  0  0  0  0  3  0  0  0  0  0  0
  185.8140  176.8570  146.2190 C   0  0  0  0  0  2  0  0  0  0  0  0
  189.7030  175.0890  144.8620 C   0  0  0  0  0  0  0  0  0  0  0  0
  186.3280  176.4170  143.3820 C   0  0  2  0  0  3  0  0  0  0  0  0
  185.7950  177.8220  143.3760 C   0  0  0  0  0  0  0  0  0  0  0  0
  188.6630  174.6220  142.8190 N   0  0  0  0  0  2  0  0  0  0  0  0
  187.5750  176.3110  144.2960 C   0  0  2  0  0  3  0  0  0  0  0  0
  191.7460  175.9540  147.9810 C   0  0  0  0  0  2  0  0  0  0  0  0
  184.7230  178.1490  144.3750 C   0  0  1  0  0  3  0  0  0  0  0  0
  188.2610  177.5280  146.4810 C   0  0  0  0  0  2  0  0  0  0  0  0
  185.3090  178.2260  145.7770 C   0  0  0  0  0  2  0  0  0  0  0  0
  191.0990  174.9730  147.0000 C   0  0  0  0  0  2  0  0  0  0  0  0
  189.7270  177.1060  146.3210 C   0  0  1  0  0  3  0  0  0  0  0  0
  190.6740  174.9840  143.9580 C   0  0  0  0  0  0  0  0  0  0  0  0
  190.5760  177.7570  147.4140 C   0  0  0  0  0  2  0  0  0  0  0  0
  186.4970  178.7990  142.7890 C   0  0  0  0  0  2  0  0  0  0  0  0
  188.3410  174.9660  144.2050 C   0  0  2  0  0  3  0  0  0  0  0  0
  190.0740  174.6510  142.6830 C   0  0  0  0  0  0  0  0  0  0  0  0
  186.5880  176.0220  142.0680 O   0  0  0  0  0  1  0  0  0  0  0  0
  187.2640  176.5890  145.7930 C   0  0  1  0  0  3  0  0  0  0  0  0
  189.8800  175.5720  146.2750 C   0  0  1  0  0  3  0  0  0  0  0  0
  192.7660  176.4330  144.0900 C   0  0  0  0  0  0  0  0  0  0  0  0
  192.0630  175.1960  144.2370 N   0  0  0  0  0  2  0  0  0  0  0  0
  192.1410  177.5120  143.9060 O   0  0  0  0  0  0  0  0  0  0  0  0
  194.5870  176.1100  145.6750 N   0  0  0  0  0  0  0  0  0  0  0  0
  194.2490  176.4420  144.2980 C   0  0  1  0  0  3  0  0  0  0  0  0
  195.4900  174.5020  144.3550 N   0  0  0  0  0  0  0  0  0  0  0  0
  194.8940  175.3220  143.5590 C   0  0  0  0  0  0  0  0  0  0  0  0
  195.2830  175.0200  145.6640 C   0  0  0  0  0  3  0  0  0  0  0  0
  194.8560  175.1380  142.0770 C   0  0  0  0  0  2  0  0  0  0  0  0
  196.4240  176.8660  141.5690 O   0  0  0  0  0  1  0  0  0  0  0  0
  195.1070  176.4530  141.3590 C   0  0  0  0  0  2  0  0  0  0  0  0
  189.9250  172.4310  140.1800 C   0  0  0  0  0  1  0  0  0  0  0  0
  190.0150  173.9410  140.3090 C   0  0  0  0  0  2  0  0  0  0  0  0
  2 11  1  0  0  0  0
  3 20  2  0  0  0  0
  5 23  1  0  0  0  0
  6 21  1  6  0  0  0
  6  9  1  0  0  0  0
  7  6  1  0  0  0  0
  7 11  1  0  0  0  0
  8 19  1  0  0  0  0
  9 22  1  0  0  0  0
 10  1  1  0  0  0  0
 11 13  1  0  0  0  0
 13  4  1  0  0  0  0
 14 10  1  0  0  0  0
 15 12  1  0  0  0  0
 15 17  1  0  0  0  0
 16 25  1  0  0  0  0
 16  5  2  0  0  0  0
 17  1  1  0  0  0  0
 18  7  2  0  0  0  0
 19  9  1  0  0  0  0
 19  5  1  0  0  0  0
 20  8  1  0  0  0  0
 20 16  1  0  0  0  0
 22  4  1  0  0  0  0
 22 12  1  0  0  0  0
 23 15  1  0  0  0  0
 23 14  1  0  0  0  0
 24 25  1  0  0  0  0
 24 28  1  0  0  0  0
 26 24  2  0  0  0  0
 28 27  1  0  0  0  0
 29 31  1  0  0  0  0
 30 28  1  0  0  0  0
 30 29  2  0  0  0  0
 31 27  2  0  0  0  0
 32 30  1  0  0  0  0
 34 33  1  0  0  0  0
 34 32  1  0  0  0  0
 35 36  1  0  0  0  0
 36  3  1  0  0  0  0
M  END
>  <MODEL>
1

>  <REMARK>
 VINA RESULT:      -7.7      0.000      0.000
  Name = 
  5 active torsions:
  status: ('A' for Active; 'I' for Inactive)
    1  A    between atoms: C_4  and  C_30
    2  A    between atoms: C_7  and  C_14
    3  A    between atoms: C_8  and  C_31
    4  A    between atoms: N_17  and  C_23
    5  A    between atoms: C_26  and  C_31
                            x       y       z     vdW  Elec       q    Type
                         _______ _______ _______ _____ _____    ______ ____

>  <TORSDO>
F 5

$$$$
=
 OpenBabel11062422273D

 36 40  0  0  1  0  0  0  0  0999 V2000
  188.6520  172.7650  140.2350 O   0  0  0  0  0  0  0  0  0  0  0  0
  184.6630  178.0650  145.4030 O   0  0  0  0  0  1  0  0  0  0  0  0
  192.9200  175.3420  145.6450 C   0  0  0  0  0  3  0  0  0  0  0  0
  186.7990  177.4220  142.4200 C   0  0  0  0  0  2  0  0  0  0  0  0
  190.6760  175.2280  142.9180 C   0  0  0  0  0  0  0  0  0  0  0  0
  188.3630  177.7200  144.8640 C   0  0  2  0  0  3  0  0  0  0  0  0
  186.9860  177.4840  145.4170 C   0  0  0  0  0  0  0  0  0  0  0  0
  191.1810  176.7170  144.6500 N   0  0  0  0  0  2  0  0  0  0  0  0
  188.7930  176.5430  143.9520 C   0  0  2  0  0  3  0  0  0  0  0  0
  190.0240  172.4930  140.3210 C   0  0  0  0  0  2  0  0  0  0  0  0
  185.8340  178.0530  144.6410 C   0  0  1  0  0  3  0  0  0  0  0  0
  187.4680  174.9600  142.3820 C   0  0  0  0  0  2  0  0  0  0  0  0
  185.6100  177.2600  143.3620 C   0  0  0  0  0  2  0  0  0  0  0  0
  190.7820  173.7050  140.8680 C   0  0  0  0  0  2  0  0  0  0  0  0
  188.6200  173.9500  142.3380 C   0  0  1  0  0  3  0  0  0  0  0  0
  191.5700  174.6190  143.6920 C   0  0  0  0  0  0  0  0  0  0  0  0
  188.1890  172.7060  141.5570 C   0  0  0  0  0  2  0  0  0  0  0  0
  186.7850  176.5130  146.3160 C   0  0  0  0  0  2  0  0  0  0  0  0
  190.2790  176.5690  143.5070 C   0  0  2  0  0  3  0  0  0  0  0  0
  191.9430  175.5260  144.7570 C   0  0  0  0  0  0  0  0  0  0  0  0
  189.2490  177.9330  145.9220 O   0  0  0  0  0  1  0  0  0  0  0  0
  187.9110  176.3970  142.6810 C   0  0  1  0  0  3  0  0  0  0  0  0
  189.9170  174.5810  141.7920 C   0  0  1  0  0  3  0  0  0  0  0  0
  191.5180  172.1060  144.1130 C   0  0  0  0  0  0  0  0  0  0  0  0
  192.0380  173.2800  143.4860 N   0  0  0  0  0  2  0  0  0  0  0  0
  190.4300  172.1430  144.7500 O   0  0  0  0  0  0  0  0  0  0  0  0
  192.2490  170.4670  142.4670 N   0  0  0  0  0  0  0  0  0  0  0  0
  192.2170  170.8020  143.8840 C   0  0  1  0  0  3  0  0  0  0  0  0
  194.3980  170.6940  143.1520 N   0  0  0  0  0  0  0  0  0  0  0  0
  193.6690  170.9190  144.1910 C   0  0  0  0  0  0  0  0  0  0  0  0
  193.4870  170.4130  142.0970 C   0  0  0  0  0  3  0  0  0  0  0  0
  194.2370  171.2690  145.5270 C   0  0  0  0  0  2  0  0  0  0  0  0
  196.4810  171.9740  145.9430 O   0  0  0  0  0  1  0  0  0  0  0  0
  195.2590  172.3870  145.4080 C   0  0  0  0  0  2  0  0  0  0  0  0
  194.4970  177.1420  146.2680 C   0  0  0  0  0  1  0  0  0  0  0  0
  193.2640  176.3610  146.6820 C   0  0  0  0  0  2  0  0  0  0  0  0
  1 10  1  0  0  0  0
  1 17  1  0  0  0  0
  3 36  1  0  0  0  0
  4 22  1  0  0  0  0
  4 13  1  0  0  0  0
  5 19  1  0  0  0  0
  5 16  2  0  0  0  0
  6  7  1  0  0  0  0
  6 21  1  1  0  0  0
  7 18  2  0  0  0  0
  8 20  1  0  0  0  0
  9  6  1  0  0  0  0
 10 14  1  0  0  0  0
 11  2  1  0  0  0  0
 11  7  1  0  0  0  0
 12 22  1  0  0  0  0
 13 11  1  0  0  0  0
 14 23  1  0  0  0  0
 15 12  1  0  0  0  0
 16 20  1  0  0  0  0
 17 15  1  0  0  0  0
 19  9  1  0  0  0  0
 19  8  1  0  0  0  0
 20  3  2  0  0  0  0
 22  9  1  0  0  0  0
 23 15  1  0  0  0  0
 23  5  1  0  0  0  0
 24 26  2  0  0  0  0
 25 16  1  0  0  0  0
 25 24  1  0  0  0  0
 27 28  1  0  0  0  0
 28 24  1  0  0  0  0
 28 30  1  0  0  0  0
 29 30  2  0  0  0  0
 30 32  1  0  0  0  0
 31 27  2  0  0  0  0
 31 29  1  0  0  0  0
 34 32  1  0  0  0  0
 34 33  1  0  0  0  0
 35 36  1  0  0  0  0
M  END
>  <MODEL>
2

>  <REMARK>
 VINA RESULT:      -7.7      2.863      5.139
  Name = 
  5 active torsions:
  status: ('A' for Active; 'I' for Inactive)
    1  A    between atoms: C_4  and  C_30
    2  A    between atoms: C_7  and  C_14
    3  A    between atoms: C_8  and  C_31
    4  A    between atoms: N_17  and  C_23
    5  A    between atoms: C_26  and  C_31
                            x       y       z     vdW  Elec       q    Type
                         _______ _______ _______ _____ _____    ______ ____

>  <TORSDO>
F 5

$$$$
=
 OpenBabel11062422273D

 36 40  0  0  1  0  0  0  0  0999 V2000
  191.3160  175.7780  147.4330 O   0  0  0  0  0  0  0  0  0  0  0  0
  184.7990  180.0950  144.3340 O   0  0  0  0  0  1  0  0  0  0  0  0
  189.7670  174.1150  140.4360 C   0  0  0  0  0  3  0  0  0  0  0  0
  186.2030  177.0660  145.9840 C   0  0  0  0  0  2  0  0  0  0  0  0
  189.3890  174.6990  143.9000 C   0  0  0  0  0  0  0  0  0  0  0  0
  186.2270  176.8590  143.0750 C   0  0  2  0  0  3  0  0  0  0  0  0
  186.0230  178.3350  143.2680 C   0  0  0  0  0  0  0  0  0  0  0  0
  188.0100  174.6960  142.0100 N   0  0  0  0  0  2  0  0  0  0  0  0
  187.5290  176.3930  143.7730 C   0  0  2  0  0  3  0  0  0  0  0  0
  191.9670  174.7560  146.7290 C   0  0  0  0  0  2  0  0  0  0  0  0
  185.1930  178.7600  144.4440 C   0  0  1  0  0  3  0  0  0  0  0  0
  188.7520  177.1800  145.9210 C   0  0  0  0  0  2  0  0  0  0  0  0
  185.9610  178.5520  145.7410 C   0  0  0  0  0  2  0  0  0  0  0  0
  190.9950  174.0500  145.7800 C   0  0  0  0  0  2  0  0  0  0  0  0
  190.0520  176.4850  145.5020 C   0  0  1  0  0  3  0  0  0  0  0  0
  190.1840  174.4990  142.8520 C   0  0  0  0  0  0  0  0  0  0  0  0
  191.1620  176.8150  146.5020 C   0  0  0  0  0  2  0  0  0  0  0  0
  186.8410  179.2070  142.6650 C   0  0  0  0  0  2  0  0  0  0  0  0
  187.9590  174.9370  143.4530 C   0  0  2  0  0  3  0  0  0  0  0  0
  189.3620  174.4480  141.6610 C   0  0  0  0  0  0  0  0  0  0  0  0
  186.2170  176.5730  141.7070 O   0  0  0  0  0  1  0  0  0  0  0  0
  187.4880  176.5550  145.3180 C   0  0  1  0  0  3  0  0  0  0  0  0
  189.8540  174.9690  145.3040 C   0  0  1  0  0  3  0  0  0  0  0  0
  192.5500  175.4140  142.6090 C   0  0  0  0  0  0  0  0  0  0  0  0
  191.6100  174.3860  142.9300 N   0  0  0  0  0  2  0  0  0  0  0  0
  192.1700  176.6040  142.4360 O   0  0  0  0  0  0  0  0  0  0  0  0
  194.6320  175.4100  141.3450 N   0  0  0  0  0  0  0  0  0  0  0  0
  194.0090  175.0780  142.6180 C   0  0  1  0  0  3  0  0  0  0  0  0
  195.6320  176.6820  142.9340 N   0  0  0  0  0  0  0  0  0  0  0  0
  194.7510  175.9720  143.5500 C   0  0  0  0  0  0  0  0  0  0  0  0
  195.5360  176.3090  141.5650 C   0  0  0  0  0  3  0  0  0  0  0  0
  194.5110  176.0650  145.0220 C   0  0  0  0  0  2  0  0  0  0  0  0
  194.5560  177.5390  146.9000 O   0  0  0  0  0  1  0  0  0  0  0  0
  194.6630  177.4960  145.5090 C   0  0  0  0  0  2  0  0  0  0  0  0
  188.1910  172.6710  139.1940 C   0  0  0  0  0  1  0  0  0  0  0  0
  188.8330  174.0430  139.2730 C   0  0  0  0  0  2  0  0  0  0  0  0
  2 11  1  0  0  0  0
  3 20  2  0  0  0  0
  5 23  1  0  0  0  0
  6 21  1  6  0  0  0
  6  7  1  0  0  0  0
  6  9  1  0  0  0  0
  7 11  1  0  0  0  0
  8 19  1  0  0  0  0
  9 22  1  0  0  0  0
 10  1  1  0  0  0  0
 11 13  1  0  0  0  0
 13  4  1  0  0  0  0
 14 10  1  0  0  0  0
 15 12  1  0  0  0  0
 15 17  1  0  0  0  0
 16 25  1  0  0  0  0
 16  5  2  0  0  0  0
 17  1  1  0  0  0  0
 18  7  2  0  0  0  0
 19  9  1  0  0  0  0
 19  5  1  0  0  0  0
 20  8  1  0  0  0  0
 20 16  1  0  0  0  0
 22 12  1  0  0  0  0
 22  4  1  0  0  0  0
 23 15  1  0  0  0  0
 23 14  1  0  0  0  0
 24 28  1  0  0  0  0
 24 25  1  0  0  0  0
 26 24  2  0  0  0  0
 27 31  2  0  0  0  0
 27 28  1  0  0  0  0
 28 30  1  0  0  0  0
 29 30  2  0  0  0  0
 30 32  1  0  0  0  0
 31 29  1  0  0  0  0
 32 34  1  0  0  0  0
 34 33  1  0  0  0  0
 35 36  1  0  0  0  0
 36  3  1  0  0  0  0
M  END
>  <MODEL>
3

>  <REMARK>
 VINA RESULT:      -7.5      1.423      2.054
  Name = 
  5 active torsions:
  status: ('A' for Active; 'I' for Inactive)
    1  A    between atoms: C_4  and  C_30
    2  A    between atoms: C_7  and  C_14
    3  A    between atoms: C_8  and  C_31
    4  A    between atoms: N_17  and  C_23
    5  A    between atoms: C_26  and  C_31
                            x       y       z     vdW  Elec       q    Type
                         _______ _______ _______ _____ _____    ______ ____

>  <TORSDO>
F 5

$$$$
=
 OpenBabel11062422273D

 36 40  0  0  1  0  0  0  0  0999 V2000
  191.0350  177.1140  148.0410 O   0  0  0  0  0  0  0  0  0  0  0  0
  196.5790  171.6280  144.8970 O   0  0  0  0  0  1  0  0  0  0  0  0
  189.0950  174.4340  141.4700 C   0  0  0  0  0  3  0  0  0  0  0  0
  195.2470  175.0930  145.1990 C   0  0  0  0  0  2  0  0  0  0  0  0
  190.9960  175.9260  144.0470 C   0  0  0  0  0  0  0  0  0  0  0  0
  193.9810  173.5990  143.0380 C   0  0  2  0  0  3  0  0  0  0  0  0
  194.6180  172.4940  143.8320 C   0  0  0  0  0  0  0  0  0  0  0  0
  191.4270  174.8110  142.0370 N   0  0  0  0  0  2  0  0  0  0  0  0
  193.0070  174.4160  143.9250 C   0  0  2  0  0  3  0  0  0  0  0  0
  189.9140  177.5670  147.3320 C   0  0  0  0  0  2  0  0  0  0  0  0
  195.9360  172.7960  144.4830 C   0  0  1  0  0  3  0  0  0  0  0  0
  193.0210  175.0310  146.4450 C   0  0  0  0  0  2  0  0  0  0  0  0
  195.7420  173.7290  145.6690 C   0  0  0  0  0  2  0  0  0  0  0  0
  190.1940  177.5760  145.8270 C   0  0  0  0  0  2  0  0  0  0  0  0
  191.5320  175.3960  146.4190 C   0  0  1  0  0  3  0  0  0  0  0  0
  189.8190  175.5120  143.5850 C   0  0  0  0  0  0  0  0  0  0  0  0
  191.0560  175.7270  147.8360 C   0  0  0  0  0  2  0  0  0  0  0  0
  193.8790  171.4560  144.2440 C   0  0  0  0  0  2  0  0  0  0  0  0
  192.1250  175.4370  143.1600 C   0  0  2  0  0  3  0  0  0  0  0  0
  190.0370  174.8510  142.3150 C   0  0  0  0  0  0  0  0  0  0  0  0
  193.3550  173.0510  141.9150 O   0  0  0  0  0  1  0  0  0  0  0  0
  193.7180  175.1650  145.0860 C   0  0  1  0  0  3  0  0  0  0  0  0
  191.2340  176.5210  145.4080 C   0  0  1  0  0  3  0  0  0  0  0  0
  187.5620  176.6410  143.9370 C   0  0  0  0  0  0  0  0  0  0  0  0
  188.5740  175.6880  144.2710 N   0  0  0  0  0  2  0  0  0  0  0  0
  187.6020  177.2680  142.8440 O   0  0  0  0  0  0  0  0  0  0  0  0
  186.7360  176.4570  146.2200 N   0  0  0  0  0  0  0  0  0  0  0  0
  186.3800  176.7790  144.8460 C   0  0  1  0  0  3  0  0  0  0  0  0
  186.0760  178.6270  146.1870 N   0  0  0  0  0  0  0  0  0  0  0  0
  185.9740  178.2060  144.9730 C   0  0  0  0  0  0  0  0  0  0  0  0
  186.5490  177.5160  146.9390 C   0  0  0  0  0  3  0  0  0  0  0  0
  185.5170  179.0710  143.8440 C   0  0  0  0  0  2  0  0  0  0  0  0
  184.2980  177.8430  142.1980 O   0  0  0  0  0  1  0  0  0  0  0  0
  184.1530  178.6330  143.3400 C   0  0  0  0  0  2  0  0  0  0  0  0
  188.2890  172.8870  139.7170 C   0  0  0  0  0  1  0  0  0  0  0  0
  189.4170  173.8020  140.1560 C   0  0  0  0  0  2  0  0  0  0  0  0
  3 20  2  0  0  0  0
  4 13  1  0  0  0  0
  5 23  1  0  0  0  0
  6 21  1  6  0  0  0
  6  7  1  0  0  0  0
  6  9  1  0  0  0  0
  7 18  2  0  0  0  0
  7 11  1  0  0  0  0
  8 20  1  0  0  0  0
  8 19  1  0  0  0  0
  9 22  1  0  0  0  0
 10  1  1  0  0  0  0
 11  2  1  0  0  0  0
 11 13  1  0  0  0  0
 14 10  1  0  0  0  0
 15 12  1  0  0  0  0
 15 17  1  0  0  0  0
 16  5  2  0  0  0  0
 16 25  1  0  0  0  0
 17  1  1  0  0  0  0
 19  9  1  0  0  0  0
 19  5  1  0  0  0  0
 20 16  1  0  0  0  0
 22  4  1  0  0  0  0
 22 12  1  0  0  0  0
 23 14  1  0  0  0  0
 23 15  1  0  0  0  0
 24 25  1  0  0  0  0
 24 28  1  0  0  0  0
 26 24  2  0  0  0  0
 27 31  2  0  0  0  0
 28 30  1  0  0  0  0
 28 27  1  0  0  0  0
 29 31  1  0  0  0  0
 30 29  2  0  0  0  0
 32 30  1  0  0  0  0
 33 34  1  0  0  0  0
 34 32  1  0  0  0  0
 35 36  1  0  0  0  0
 36  3  1  0  0  0  0
M  END
>  <MODEL>
4

>  <REMARK>
 VINA RESULT:      -7.4      2.391      7.367
  Name = 
  5 active torsions:
  status: ('A' for Active; 'I' for Inactive)
    1  A    between atoms: C_4  and  C_30
    2  A    between atoms: C_7  and  C_14
    3  A    between atoms: C_8  and  C_31
    4  A    between atoms: N_17  and  C_23
    5  A    between atoms: C_26  and  C_31
                            x       y       z     vdW  Elec       q    Type
                         _______ _______ _______ _____ _____    ______ ____

>  <TORSDO>
F 5

$$$$
=
 OpenBabel11062422273D

 36 40  0  0  1  0  0  0  0  0999 V2000
  189.8190  173.3930  141.1830 O   0  0  0  0  0  0  0  0  0  0  0  0
  197.9410  174.7330  142.9000 O   0  0  0  0  0  1  0  0  0  0  0  0
  190.9270  176.7950  147.6110 C   0  0  0  0  0  3  0  0  0  0  0  0
  194.8580  172.6620  143.1770 C   0  0  0  0  0  2  0  0  0  0  0  0
  191.1630  174.4440  144.9840 C   0  0  0  0  0  0  0  0  0  0  0  0
  195.0620  174.6430  145.3070 C   0  0  2  0  0  3  0  0  0  0  0  0
  196.0590  175.1690  144.3140 C   0  0  0  0  0  0  0  0  0  0  0  0
  192.4950  175.1360  146.7780 N   0  0  0  0  0  2  0  0  0  0  0  0
  193.6590  174.5230  144.6600 C   0  0  2  0  0  3  0  0  0  0  0  0
  188.7850  173.6790  142.0840 C   0  0  0  0  0  2  0  0  0  0  0  0
  196.8360  174.1530  143.5270 C   0  0  1  0  0  3  0  0  0  0  0  0
  192.8780  173.9760  142.2470 C   0  0  0  0  0  2  0  0  0  0  0  0
  195.9440  173.4850  142.4930 C   0  0  0  0  0  2  0  0  0  0  0  0
  189.2700  173.5310  143.5280 C   0  0  0  0  0  2  0  0  0  0  0  0
  191.4750  174.5350  142.5170 C   0  0  1  0  0  3  0  0  0  0  0  0
  190.5300  175.4670  145.5530 C   0  0  0  0  0  0  0  0  0  0  0  0
  190.6540  174.5180  141.2250 C   0  0  0  0  0  2  0  0  0  0  0  0
  195.9770  176.4360  143.8920 C   0  0  0  0  0  2  0  0  0  0  0  0
  192.5060  174.2060  145.6480 C   0  0  2  0  0  3  0  0  0  0  0  0
  191.3020  175.8990  146.6980 C   0  0  0  0  0  0  0  0  0  0  0  0
  195.0650  175.4670  146.4360 O   0  0  0  0  0  1  0  0  0  0  0  0
  193.6040  173.4840  143.5050 C   0  0  1  0  0  3  0  0  0  0  0  0
  190.7790  173.8010  143.6800 C   0  0  1  0  0  3  0  0  0  0  0  0
  189.1790  177.2470  144.3280 C   0  0  0  0  0  0  0  0  0  0  0  0
  189.3050  176.0300  145.0670 N   0  0  0  0  0  2  0  0  0  0  0  0
  190.1960  177.8190  143.8500 O   0  0  0  0  0  0  0  0  0  0  0  0
  187.2160  177.0230  142.9050 N   0  0  0  0  0  0  0  0  0  0  0  0
  187.8060  177.7560  144.0160 C   0  0  1  0  0  3  0  0  0  0  0  0
  185.9050  176.6630  144.7200 N   0  0  0  0  0  0  0  0  0  0  0  0
  186.8590  177.4330  145.1180 C   0  0  0  0  0  0  0  0  0  0  0  0
  186.1530  176.4280  143.3400 C   0  0  0  0  0  3  0  0  0  0  0  0
  186.9840  177.9170  146.5260 C   0  0  0  0  0  2  0  0  0  0  0  0
  184.8330  178.5260  147.3660 O   0  0  0  0  0  1  0  0  0  0  0  0
  185.7810  177.5000  147.3540 C   0  0  0  0  0  2  0  0  0  0  0  0
  191.1610  178.2970  149.5610 C   0  0  0  0  0  1  0  0  0  0  0  0
  191.7760  177.1440  148.7890 C   0  0  0  0  0  2  0  0  0  0  0  0
  1 17  1  0  0  0  0
  1 10  1  0  0  0  0
  2 11  1  0  0  0  0
  3 36  1  0  0  0  0
  4 22  1  0  0  0  0
  5 16  2  0  0  0  0
  5 19  1  0  0  0  0
  6 21  1  1  0  0  0
  7  6  1  0  0  0  0
  9  6  1  0  0  0  0
  9 19  1  0  0  0  0
 10 14  1  0  0  0  0
 11  7  1  0  0  0  0
 12 15  1  0  0  0  0
 12 22  1  0  0  0  0
 13  4  1  0  0  0  0
 13 11  1  0  0  0  0
 14 23  1  0  0  0  0
 15 23  1  0  0  0  0
 16 20  1  0  0  0  0
 17 15  1  0  0  0  0
 18  7  2  0  0  0  0
 19  8  1  0  0  0  0
 20  8  1  0  0  0  0
 20  3  2  0  0  0  0
 22  9  1  0  0  0  0
 23  5  1  0  0  0  0
 24 25  1  0  0  0  0
 25 16  1  0  0  0  0
 26 24  2  0  0  0  0
 27 31  2  0  0  0  0
 27 28  1  0  0  0  0
 28 24  1  0  0  0  0
 28 30  1  0  0  0  0
 29 30  2  0  0  0  0
 30 32  1  0  0  0  0
 31 29  1  0  0  0  0
 32 34  1  0  0  0  0
 34 33  1  0  0  0  0
 36 35  1  0  0  0  0
M  END
>  <MODEL>
5

>  <REMARK>
 VINA RESULT:      -7.4      2.171      8.306
  Name = 
  5 active torsions:
  status: ('A' for Active; 'I' for Inactive)
    1  A    between atoms: C_4  and  C_30
    2  A    between atoms: C_7  and  C_14
    3  A    between atoms: C_8  and  C_31
    4  A    between atoms: N_17  and  C_23
    5  A    between atoms: C_26  and  C_31
                            x       y       z     vdW  Elec       q    Type
                         _______ _______ _______ _____ _____    ______ ____

>  <TORSDO>
F 5

$$$$
=
 OpenBabel11062422273D

 36 40  0  0  1  0  0  0  0  0999 V2000
  189.7150  173.2310  140.1530 O   0  0  0  0  0  0  0  0  0  0  0  0
  196.0950  173.5500  145.6220 O   0  0  0  0  0  1  0  0  0  0  0  0
  188.3130  177.4100  146.0430 C   0  0  0  0  0  3  0  0  0  0  0  0
  192.8920  172.0560  144.4450 C   0  0  0  0  0  2  0  0  0  0  0  0
  189.2650  174.6590  144.0420 C   0  0  0  0  0  0  0  0  0  0  0  0
  192.4720  174.2990  146.2620 C   0  0  2  0  0  3  0  0  0  0  0  0
  193.9100  174.4950  145.8720 C   0  0  0  0  0  0  0  0  0  0  0  0
  189.6900  175.4150  146.2140 N   0  0  0  0  0  2  0  0  0  0  0  0
  191.5620  174.2950  145.0080 C   0  0  2  0  0  3  0  0  0  0  0  0
  188.4640  173.8150  140.3950 C   0  0  0  0  0  2  0  0  0  0  0  0
  194.7300  173.2580  145.6460 C   0  0  1  0  0  3  0  0  0  0  0  0
  191.9340  173.4950  142.5680 C   0  0  0  0  0  2  0  0  0  0  0  0
  194.3210  172.5790  144.3470 C   0  0  0  0  0  2  0  0  0  0  0  0
  188.1550  173.8290  141.8940 C   0  0  0  0  0  2  0  0  0  0  0  0
  190.7320  174.3010  142.0630 C   0  0  1  0  0  3  0  0  0  0  0  0
  188.6740  175.8460  144.1510 C   0  0  0  0  0  0  0  0  0  0  0  0
  190.6480  174.2040  140.5370 C   0  0  0  0  0  2  0  0  0  0  0  0
  194.3140  175.6760  145.3860 C   0  0  0  0  0  2  0  0  0  0  0  0
  190.0400  174.3250  145.3030 C   0  0  2  0  0  3  0  0  0  0  0  0
  188.8770  176.3320  145.4990 C   0  0  0  0  0  0  0  0  0  0  0  0
  192.1120  175.2830  147.1860 O   0  0  0  0  0  1  0  0  0  0  0  0
  191.8450  173.1060  144.0490 C   0  0  1  0  0  3  0  0  0  0  0  0
  189.4240  173.8820  142.7640 C   0  0  1  0  0  3  0  0  0  0  0  0
  188.4760  177.6220  142.3350 C   0  0  0  0  0  0  0  0  0  0  0  0
  187.9850  176.5070  143.0820 N   0  0  0  0  0  2  0  0  0  0  0  0
  189.6820  177.9770  142.4230 O   0  0  0  0  0  0  0  0  0  0  0  0
  187.3080  177.3940  140.2090 N   0  0  0  0  0  0  0  0  0  0  0  0
  187.5650  178.2740  141.3410 C   0  0  1  0  0  3  0  0  0  0  0  0
  185.3180  177.7760  141.2280 N   0  0  0  0  0  0  0  0  0  0  0  0
  186.1960  178.4350  141.9040 C   0  0  0  0  0  0  0  0  0  0  0  0
  186.0400  177.1410  140.1790 C   0  0  0  0  0  3  0  0  0  0  0  0
  185.8560  179.2430  143.1140 C   0  0  0  0  0  2  0  0  0  0  0  0
  183.7290  178.9050  144.1450 O   0  0  0  0  0  1  0  0  0  0  0  0
  185.0400  178.4270  144.1010 C   0  0  0  0  0  2  0  0  0  0  0  0
  187.3170  178.4930  148.0300 C   0  0  0  0  0  1  0  0  0  0  0  0
  188.5470  177.8090  147.4630 C   0  0  0  0  0  2  0  0  0  0  0  0
  1 10  1  0  0  0  0
  1 17  1  0  0  0  0
  2 11  1  0  0  0  0
  3 36  1  0  0  0  0
  5 16  2  0  0  0  0
  5 19  1  0  0  0  0
  6 21  1  1  0  0  0
  7  6  1  0  0  0  0
  9 19  1  0  0  0  0
  9  6  1  0  0  0  0
 10 14  1  0  0  0  0
 11  7  1  0  0  0  0
 12 22  1  0  0  0  0
 13  4  1  0  0  0  0
 13 11  1  0  0  0  0
 14 23  1  0  0  0  0
 15 12  1  0  0  0  0
 15 23  1  0  0  0  0
 16 20  1  0  0  0  0
 17 15  1  0  0  0  0
 18  7  2  0  0  0  0
 19  8  1  0  0  0  0
 20  3  2  0  0  0  0
 20  8  1  0  0  0  0
 22  4  1  0  0  0  0
 22  9  1  0  0  0  0
 23  5  1  0  0  0  0
 24 26  2  0  0  0  0
 24 25  1  0  0  0  0
 25 16  1  0  0  0  0
 27 28  1  0  0  0  0
 28 30  1  0  0  0  0
 28 24  1  0  0  0  0
 29 30  2  0  0  0  0
 30 32  1  0  0  0  0
 31 27  2  0  0  0  0
 31 29  1  0  0  0  0
 32 34  1  0  0  0  0
 34 33  1  0  0  0  0
 36 35  1  0  0  0  0
M  END
>  <MODEL>
6

>  <REMARK>
 VINA RESULT:      -7.0      2.478      8.019
  Name = 
  5 active torsions:
  status: ('A' for Active; 'I' for Inactive)
    1  A    between atoms: C_4  and  C_30
    2  A    between atoms: C_7  and  C_14
    3  A    between atoms: C_8  and  C_31
    4  A    between atoms: N_17  and  C_23
    5  A    between atoms: C_26  and  C_31
                            x       y       z     vdW  Elec       q    Type
                         _______ _______ _______ _____ _____    ______ ____

>  <TORSDO>
F 5

$$$$
=
 OpenBabel11062422273D

 36 40  0  0  1  0  0  0  0  0999 V2000
  189.7310  172.5220  141.7260 O   0  0  0  0  0  0  0  0  0  0  0  0
  197.6280  175.3370  142.3810 O   0  0  0  0  0  1  0  0  0  0  0  0
  190.9220  176.5080  147.7940 C   0  0  0  0  0  3  0  0  0  0  0  0
  195.0080  172.7980  143.1320 C   0  0  0  0  0  2  0  0  0  0  0  0
  191.2790  174.0510  145.2800 C   0  0  0  0  0  0  0  0  0  0  0  0
  195.0920  174.9310  145.1190 C   0  0  2  0  0  3  0  0  0  0  0  0
  195.8660  175.5460  143.9880 C   0  0  0  0  0  0  0  0  0  0  0  0
  192.6570  175.0840  146.8620 N   0  0  0  0  0  2  0  0  0  0  0  0
  193.6700  174.5290  144.6530 C   0  0  2  0  0  3  0  0  0  0  0  0
  188.7680  172.6910  142.7300 C   0  0  0  0  0  2  0  0  0  0  0  0
  196.7190  174.6240  143.1650 C   0  0  1  0  0  3  0  0  0  0  0  0
  192.7370  173.6890  142.3830 C   0  0  0  0  0  2  0  0  0  0  0  0
  195.8500  173.7430  142.2810 C   0  0  0  0  0  2  0  0  0  0  0  0
  189.4280  172.7300  144.1110 C   0  0  0  0  0  2  0  0  0  0  0  0
  191.2960  174.0200  142.7910 C   0  0  1  0  0  3  0  0  0  0  0  0
  190.5410  174.9890  145.8680 C   0  0  0  0  0  0  0  0  0  0  0  0
  190.3540  173.7730  141.6100 C   0  0  0  0  0  2  0  0  0  0  0  0
  195.5150  176.7480  143.5150 C   0  0  0  0  0  2  0  0  0  0  0  0
  192.7080  174.0920  145.7880 C   0  0  2  0  0  3  0  0  0  0  0  0
  191.3470  175.6270  146.8890 C   0  0  0  0  0  0  0  0  0  0  0  0
  195.0740  175.8210  146.1960 O   0  0  0  0  0  1  0  0  0  0  0  0
  193.6720  173.4170  143.5670 C   0  0  1  0  0  3  0  0  0  0  0  0
  190.8730  173.2620  144.0650 C   0  0  1  0  0  3  0  0  0  0  0  0
  188.7100  176.5820  145.0900 C   0  0  0  0  0  0  0  0  0  0  0  0
  189.1900  175.3010  145.5060 N   0  0  0  0  0  2  0  0  0  0  0  0
  189.5140  177.5070  144.7940 O   0  0  0  0  0  0  0  0  0  0  0  0
  186.7070  177.8010  145.7470 N   0  0  0  0  0  0  0  0  0  0  0  0
  187.2390  176.7600  144.8780 C   0  0  1  0  0  3  0  0  0  0  0  0
  186.3850  178.4820  143.6080 N   0  0  0  0  0  0  0  0  0  0  0  0
  186.9640  177.3330  143.5310 C   0  0  0  0  0  0  0  0  0  0  0  0
  186.2360  178.7440  144.9980 C   0  0  0  0  0  3  0  0  0  0  0  0
  187.3210  176.6830  142.2340 C   0  0  0  0  0  2  0  0  0  0  0  0
  188.9690  178.3010  141.6270 O   0  0  0  0  0  1  0  0  0  0  0  0
  187.7710  177.7150  141.2140 C   0  0  0  0  0  2  0  0  0  0  0  0
  191.1610  178.2680  149.5140 C   0  0  0  0  0  1  0  0  0  0  0  0
  191.8200  177.0780  148.8420 C   0  0  0  0  0  2  0  0  0  0  0  0
  1 10  1  0  0  0  0
  2 11  1  0  0  0  0
  3 36  1  0  0  0  0
  4 22  1  0  0  0  0
  5 19  1  0  0  0  0
  5 16  2  0  0  0  0
  6 21  1  1  0  0  0
  7  6  1  0  0  0  0
  8 20  1  0  0  0  0
  9  6  1  0  0  0  0
  9 19  1  0  0  0  0
 10 14  1  0  0  0  0
 11  7  1  0  0  0  0
 12 15  1  0  0  0  0
 12 22  1  0  0  0  0
 13  4  1  0  0  0  0
 13 11  1  0  0  0  0
 15 23  1  0  0  0  0
 16 20  1  0  0  0  0
 17  1  1  0  0  0  0
 17 15  1  0  0  0  0
 18  7  2  0  0  0  0
 19  8  1  0  0  0  0
 20  3  2  0  0  0  0
 22  9  1  0  0  0  0
 23 14  1  0  0  0  0
 23  5  1  0  0  0  0
 24 25  1  0  0  0  0
 25 16  1  0  0  0  0
 26 24  2  0  0  0  0
 28 24  1  0  0  0  0
 28 27  1  0  0  0  0
 29 31  1  0  0  0  0
 30 29  2  0  0  0  0
 30 28  1  0  0  0  0
 31 27  2  0  0  0  0
 32 30  1  0  0  0  0
 34 33  1  0  0  0  0
 34 32  1  0  0  0  0
 36 35  1  0  0  0  0
M  END
>  <MODEL>
7

>  <REMARK>
 VINA RESULT:      -7.0      2.345      7.922
  Name = 
  5 active torsions:
  status: ('A' for Active; 'I' for Inactive)
    1  A    between atoms: C_4  and  C_30
    2  A    between atoms: C_7  and  C_14
    3  A    between atoms: C_8  and  C_31
    4  A    between atoms: N_17  and  C_23
    5  A    between atoms: C_26  and  C_31
                            x       y       z     vdW  Elec       q    Type
                         _______ _______ _______ _____ _____    ______ ____

>  <TORSDO>
F 5

$$$$
=
 OpenBabel11062422273D

 36 40  0  0  1  0  0  0  0  0999 V2000
  189.5060  172.5730  140.2630 O   0  0  0  0  0  0  0  0  0  0  0  0
  185.2660  177.2950  145.7810 O   0  0  0  0  0  1  0  0  0  0  0  0
  193.8070  175.7130  145.3390 C   0  0  0  0  0  3  0  0  0  0  0  0
  187.2230  176.9410  142.6320 C   0  0  0  0  0  2  0  0  0  0  0  0
  191.3880  175.2920  142.7990 C   0  0  0  0  0  0  0  0  0  0  0  0
  188.9230  177.4510  144.9460 C   0  0  2  0  0  3  0  0  0  0  0  0
  187.6390  177.0320  145.6040 C   0  0  0  0  0  0  0  0  0  0  0  0
  191.8240  176.8380  144.4990 N   0  0  0  0  0  2  0  0  0  0  0  0
  189.4340  176.3420  143.9920 C   0  0  2  0  0  3  0  0  0  0  0  0
  190.9050  172.4890  140.2370 C   0  0  0  0  0  2  0  0  0  0  0  0
  186.3630  177.4390  144.9280 C   0  0  1  0  0  3  0  0  0  0  0  0
  188.2130  174.5920  142.5170 C   0  0  0  0  0  2  0  0  0  0  0  0
  186.1470  176.6220  143.6630 C   0  0  0  0  0  2  0  0  0  0  0  0
  191.5340  173.7940  140.7330 C   0  0  0  0  0  2  0  0  0  0  0  0
  189.4840  173.7470  142.3730 C   0  0  1  0  0  3  0  0  0  0  0  0
  192.4150  174.8100  143.4940 C   0  0  0  0  0  0  0  0  0  0  0  0
  189.1630  172.4540  141.6170 C   0  0  0  0  0  2  0  0  0  0  0  0
  187.6440  176.0450  146.5080 C   0  0  0  0  0  2  0  0  0  0  0  0
  190.8620  176.5680  143.4300 C   0  0  2  0  0  3  0  0  0  0  0  0
  192.7470  175.7610  144.5340 C   0  0  0  0  0  0  0  0  0  0  0  0
  189.8550  177.7840  145.9320 O   0  0  0  0  0  1  0  0  0  0  0  0
  188.4810  176.0760  142.7940 C   0  0  1  0  0  3  0  0  0  0  0  0
  190.6350  174.5470  141.7310 C   0  0  1  0  0  3  0  0  0  0  0  0
  192.7470  172.3170  143.9060 C   0  0  0  0  0  0  0  0  0  0  0  0
  193.0420  173.5470  143.2390 N   0  0  0  0  0  2  0  0  0  0  0  0
  191.7270  172.2100  144.6390 O   0  0  0  0  0  0  0  0  0  0  0  0
  194.4020  170.7480  144.7590 N   0  0  0  0  0  0  0  0  0  0  0  0
  193.5940  171.1190  143.6060 C   0  0  1  0  0  3  0  0  0  0  0  0
  193.0200  169.0050  144.3170 N   0  0  0  0  0  0  0  0  0  0  0  0
  192.7500  169.9040  143.4350 C   0  0  0  0  0  0  0  0  0  0  0  0
  194.0520  169.5570  145.1240 C   0  0  0  0  0  3  0  0  0  0  0  0
  191.7010  169.7310  142.3860 C   0  0  0  0  0  2  0  0  0  0  0  0
  193.2770  168.8780  140.8070 O   0  0  0  0  0  1  0  0  0  0  0  0
  192.0620  168.6010  141.4360 C   0  0  0  0  0  2  0  0  0  0  0  0
  194.9460  177.8690  145.7500 C   0  0  0  0  0  1  0  0  0  0  0  0
  194.0930  176.7700  146.3550 C   0  0  0  0  0  2  0  0  0  0  0  0
  1 17  1  0  0  0  0
  3 36  1  0  0  0  0
  4 22  1  0  0  0  0
  4 13  1  0  0  0  0
  5 19  1  0  0  0  0
  5 16  2  0  0  0  0
  6  7  1  0  0  0  0
  6 21  1  1  0  0  0
  7 18  2  0  0  0  0
  8 20  1  0  0  0  0
  9  6  1  0  0  0  0
 10  1  1  0  0  0  0
 10 14  1  0  0  0  0
 11  7  1  0  0  0  0
 11  2  1  0  0  0  0
 12 22  1  0  0  0  0
 13 11  1  0  0  0  0
 14 23  1  0  0  0  0
 15 12  1  0  0  0  0
 16 20  1  0  0  0  0
 17 15  1  0  0  0  0
 19  9  1  0  0  0  0
 19  8  1  0  0  0  0
 20  3  2  0  0  0  0
 22  9  1  0  0  0  0
 23 15  1  0  0  0  0
 23  5  1  0  0  0  0
 24 26  2  0  0  0  0
 25 16  1  0  0  0  0
 25 24  1  0  0  0  0
 27 31  2  0  0  0  0
 28 24  1  0  0  0  0
 28 27  1  0  0  0  0
 29 31  1  0  0  0  0
 30 28  1  0  0  0  0
 30 29  2  0  0  0  0
 32 30  1  0  0  0  0
 33 34  1  0  0  0  0
 34 32  1  0  0  0  0
 35 36  1  0  0  0  0
M  END
>  <MODEL>
8

>  <REMARK>
 VINA RESULT:      -6.9      3.201      5.467
  Name = 
  5 active torsions:
  status: ('A' for Active; 'I' for Inactive)
    1  A    between atoms: C_4  and  C_30
    2  A    between atoms: C_7  and  C_14
    3  A    between atoms: C_8  and  C_31
    4  A    between atoms: N_17  and  C_23
    5  A    between atoms: C_26  and  C_31
                            x       y       z     vdW  Elec       q    Type
                         _______ _______ _______ _____ _____    ______ ____

>  <TORSDO>
F 5

$$$$
=
 OpenBabel11062422273D

 36 40  0  0  1  0  0  0  0  0999 V2000
  192.2460  176.0640  147.1300 O   0  0  0  0  0  0  0  0  0  0  0  0
  185.3400  179.5180  143.7990 O   0  0  0  0  0  1  0  0  0  0  0  0
  190.7780  173.6890  140.3230 C   0  0  0  0  0  3  0  0  0  0  0  0
  187.0240  176.7720  145.6700 C   0  0  0  0  0  2  0  0  0  0  0  0
  190.3850  174.5260  143.7330 C   0  0  0  0  0  0  0  0  0  0  0  0
  187.0360  176.3250  142.7880 C   0  0  2  0  0  3  0  0  0  0  0  0
  186.7040  177.7880  142.8620 C   0  0  0  0  0  0  0  0  0  0  0  0
  188.9930  174.2440  141.8750 N   0  0  0  0  0  2  0  0  0  0  0  0
  188.3820  176.0340  143.4990 C   0  0  2  0  0  3  0  0  0  0  0  0
  192.9770  175.0470  146.5010 C   0  0  0  0  0  2  0  0  0  0  0  0
  185.8510  178.2360  144.0130 C   0  0  1  0  0  3  0  0  0  0  0  0
  189.5510  177.1040  145.5520 C   0  0  0  0  0  2  0  0  0  0  0  0
  186.6480  178.2050  145.3090 C   0  0  0  0  0  2  0  0  0  0  0  0
  192.0620  174.1810  145.6310 C   0  0  0  0  0  2  0  0  0  0  0  0
  190.9040  176.4920  145.1690 C   0  0  1  0  0  3  0  0  0  0  0  0
  191.1840  174.3100  142.6910 C   0  0  0  0  0  0  0  0  0  0  0  0
  191.9910  177.0010  146.1190 C   0  0  0  0  0  2  0  0  0  0  0  0
  187.4350  178.6740  142.1740 C   0  0  0  0  0  2  0  0  0  0  0  0
  188.9350  174.6000  143.2930 C   0  0  2  0  0  3  0  0  0  0  0  0
  190.3580  174.0860  141.5240 C   0  0  0  0  0  0  0  0  0  0  0  0
  187.0370  175.9250  141.4490 O   0  0  0  0  0  1  0  0  0  0  0  0
  188.3420  176.3210  145.0260 C   0  0  1  0  0  3  0  0  0  0  0  0
  190.8390  174.9530  145.1020 C   0  0  1  0  0  3  0  0  0  0  0  0
  193.4490  175.4640  142.5100 C   0  0  0  0  0  0  0  0  0  0  0  0
  192.6150  174.3280  142.7530 N   0  0  0  0  0  2  0  0  0  0  0  0
  192.9540  176.6220  142.4340 O   0  0  0  0  0  0  0  0  0  0  0  0
  195.4240  174.8180  143.7800 N   0  0  0  0  0  0  0  0  0  0  0  0
  194.9330  175.2710  142.4860 C   0  0  1  0  0  3  0  0  0  0  0  0
  195.8940  173.1880  142.2750 N   0  0  0  0  0  0  0  0  0  0  0  0
  195.3030  174.1230  141.6130 C   0  0  0  0  0  0  0  0  0  0  0  0
  195.9560  173.6510  143.6190 C   0  0  0  0  0  3  0  0  0  0  0  0
  195.0210  174.0330  140.1490 C   0  0  0  0  0  2  0  0  0  0  0  0
  196.8580  175.3620  139.3980 O   0  0  0  0  0  1  0  0  0  0  0  0
  195.4630  175.2960  139.4310 C   0  0  0  0  0  2  0  0  0  0  0  0
  189.6220  171.9480  139.0010 C   0  0  0  0  0  1  0  0  0  0  0  0
  189.8420  173.4380  139.1870 C   0  0  0  0  0  2  0  0  0  0  0  0
  2 11  1  0  0  0  0
  3 20  2  0  0  0  0
  5 23  1  0  0  0  0
  6 21  1  6  0  0  0
  6  7  1  0  0  0  0
  6  9  1  0  0  0  0
  7 11  1  0  0  0  0
  8 19  1  0  0  0  0
  9 22  1  0  0  0  0
 10  1  1  0  0  0  0
 11 13  1  0  0  0  0
 13  4  1  0  0  0  0
 14 10  1  0  0  0  0
 15 12  1  0  0  0  0
 15 17  1  0  0  0  0
 16 25  1  0  0  0  0
 16  5  2  0  0  0  0
 17  1  1  0  0  0  0
 18  7  2  0  0  0  0
 19  9  1  0  0  0  0
 19  5  1  0  0  0  0
 20  8  1  0  0  0  0
 20 16  1  0  0  0  0
 22 12  1  0  0  0  0
 22  4  1  0  0  0  0
 23 15  1  0  0  0  0
 23 14  1  0  0  0  0
 24 25  1  0  0  0  0
 26 24  2  0  0  0  0
 28 24  1  0  0  0  0
 28 27  1  0  0  0  0
 29 31  1  0  0  0  0
 30 29  2  0  0  0  0
 30 28  1  0  0  0  0
 31 27  2  0  0  0  0
 32 30  1  0  0  0  0
 33 34  1  0  0  0  0
 34 32  1  0  0  0  0
 35 36  1  0  0  0  0
 36  3  1  0  0  0  0
M  END
>  <MODEL>
9

>  <REMARK>
 VINA RESULT:      -6.9      1.501      1.750
  Name = 
  5 active torsions:
  status: ('A' for Active; 'I' for Inactive)
    1  A    between atoms: C_4  and  C_30
    2  A    between atoms: C_7  and  C_14
    3  A    between atoms: C_8  and  C_31
    4  A    between atoms: N_17  and  C_23
    5  A    between atoms: C_26  and  C_31
                            x       y       z     vdW  Elec       q    Type
                         _______ _______ _______ _____ _____    ______ ____

>  <TORSDO>
F 5

$$$$
