=
 OpenBabel11062422453D

 29 33  0  0  1  0  0  0  0  0999 V2000
  189.7090  173.8750  143.8360 C   0  0  0  0  0  1  0  0  0  0  0  0
  191.3750  177.1620  146.0910 C   0  0  0  0  0  2  0  0  0  0  0  0
  192.4030  172.7320  144.7500 C   0  0  0  0  0  1  0  0  0  0  0  0
  189.8220  175.4080  145.8390 C   0  0  1  0  0  3  0  0  0  0  0  0
  192.7290  176.5130  145.8370 C   0  0  0  0  0  2  0  0  0  0  0  0
  189.2800  177.5830  145.1470 C   0  0  0  0  0  2  0  0  0  0  0  0
  190.3630  176.6160  145.1940 N   0  0  1  0  0  0  0  0  0  0  0  0
  186.7210  176.8480  147.4450 C   0  0  0  0  0  2  0  0  0  0  0  0
  188.3580  175.4290  145.8380 N   0  0  0  0  0  2  0  0  0  0  0  0
  191.8950  174.1370  145.0190 C   0  0  1  0  0  3  0  0  0  0  0  0
  185.5580  176.8160  146.5470 C   0  0  0  0  0  2  0  0  0  0  0  0
  188.0450  176.7920  145.4550 C   0  0  2  0  0  0  0  0  0  0  0  0
  186.8120  176.9030  144.6400 C   0  0  1  0  0  3  0  0  0  0  0  0
  190.3670  174.1250  145.1870 C   0  0  2  0  0  3  0  0  0  0  0  0
  186.8300  177.5320  146.0650 C   0  0  0  0  0  0  0  0  0  0  0  0
  192.7660  174.8050  146.4780 S   0  0  0  0  0  0  0  0  0  0  0  0
  186.7820  177.3160  142.1850 C   0  0  0  0  0  0  0  0  0  0  0  0
  185.8640  179.9300  144.5110 O   0  0  0  0  0  0  0  0  0  0  0  0
  186.8800  177.9820  143.5450 C   0  0  1  0  0  3  0  0  0  0  0  0
  184.4700  177.9520  142.0010 C   0  0  0  0  0  3  0  0  0  0  0  0
  185.6490  177.2770  141.5420 N   0  0  0  0  0  0  0  0  0  0  0  0
  185.7490  178.9630  143.7130 C   0  0  0  0  0  0  0  0  0  0  0  0
  184.5220  178.7620  143.0120 N   0  0  0  0  0  0  0  0  0  0  0  0
  187.9580  176.6750  141.5770 C   0  0  0  0  0  0  0  0  0  0  0  0
  189.1150  176.9380  142.0000 O   0  0  0  0  0  0  0  0  0  0  0  0
  187.7790  175.7880  140.5030 O   0  0  0  0  0  0  0  0  0  0  0  0
  188.4680  174.5450  140.3570 C   0  0  0  0  0  3  0  0  0  0  0  0
  188.5570  174.1290  138.8990 C   0  0  0  0  0  1  0  0  0  0  0  0
  187.8240  173.4530  141.1900 C   0  0  0  0  0  1  0  0  0  0  0  0
  4  9  1  6  0  0  0
  5  2  1  0  0  0  0
  5 16  1  0  0  0  0
  7  6  1  1  0  0  0
  7  4  1  0  0  0  0
  7  2  1  0  0  0  0
 10  3  1  1  0  0  0
 10 14  1  0  0  0  0
 10 16  1  0  0  0  0
 11  8  1  0  0  0  0
 12  6  1  6  0  0  0
 12  9  1  0  0  0  0
 12 15  1  0  0  0  0
 13 12  1  0  0  0  0
 13 15  1  1  0  0  0
 14  1  1  6  0  0  0
 14  4  1  0  0  0  0
 15 11  1  0  0  0  0
 15  8  1  0  0  0  0
 19 17  1  6  0  0  0
 19 22  1  0  0  0  0
 19 13  1  0  0  0  0
 20 23  2  0  0  0  0
 21 20  1  0  0  0  0
 21 17  2  0  0  0  0
 22 18  2  0  0  0  0
 23 22  1  0  0  0  0
 24 25  2  0  0  0  0
 24 17  1  0  0  0  0
 26 24  1  0  0  0  0
 27 26  1  0  0  0  0
 27 29  1  0  0  0  0
 28 27  1  0  0  0  0
M  END
>  <MODEL>
1

>  <REMARK>
 VINA RESULT:      -7.4      0.000      0.000
  Name = 
  4 active torsions:
  status: ('A' for Active; 'I' for Inactive)
    1  A    between atoms: C_2  and  C_3
    2  A    between atoms: C_2  and  O_10
    3  A    between atoms: C_4  and  O_10
    4  A    between atoms: C_11  and  C_24
                            x       y       z     vdW  Elec       q    Type
                         _______ _______ _______ _____ _____    ______ ____

>  <TORSDO>
F 4

$$$$
=
 OpenBabel11062422453D

 29 33  0  0  1  0  0  0  0  0999 V2000
  191.3160  177.4370  144.2460 C   0  0  0  0  0  1  0  0  0  0  0  0
  189.0420  174.2530  142.4160 C   0  0  0  0  0  2  0  0  0  0  0  0
  193.4730  175.9180  142.6850 C   0  0  0  0  0  1  0  0  0  0  0  0
  189.6480  176.5230  142.5860 C   0  0  1  0  0  3  0  0  0  0  0  0
  190.3680  173.5110  142.3060 C   0  0  0  0  0  2  0  0  0  0  0  0
  187.7970  175.6960  143.7650 C   0  0  0  0  0  2  0  0  0  0  0  0
  189.1490  175.3670  143.3490 N   0  0  1  0  0  0  0  0  0  0  0  0
  186.3880  178.2790  141.8380 C   0  0  0  0  0  2  0  0  0  0  0  0
  188.8260  177.7080  142.8400 N   0  0  0  0  0  2  0  0  0  0  0  0
  192.0070  175.5330  142.7810 C   0  0  1  0  0  3  0  0  0  0  0  0
  186.0030  179.2220  142.8980 C   0  0  0  0  0  2  0  0  0  0  0  0
  187.6680  177.1700  143.5250 C   0  0  2  0  0  0  0  0  0  0  0  0
  187.1090  178.0900  144.5440 C   0  0  1  0  0  3  0  0  0  0  0  0
  191.1340  176.7950  142.8760 C   0  0  2  0  0  3  0  0  0  0  0  0
  186.2560  177.7560  143.2850 C   0  0  0  0  0  0  0  0  0  0  0  0
  191.5820  174.4810  141.3520 S   0  0  0  0  0  0  0  0  0  0  0  0
  187.6060  177.4650  146.9020 C   0  0  0  0  0  0  0  0  0  0  0  0
  184.1910  177.7080  145.7340 O   0  0  0  0  0  0  0  0  0  0  0  0
  186.5680  177.3810  145.7980 C   0  0  1  0  0  3  0  0  0  0  0  0
  186.3860  179.2460  147.9640 C   0  0  0  0  0  3  0  0  0  0  0  0
  187.5130  178.3670  147.8380 N   0  0  0  0  0  0  0  0  0  0  0  0
  185.2900  178.0370  146.2520 C   0  0  0  0  0  0  0  0  0  0  0  0
  185.3310  179.0770  147.2300 N   0  0  0  0  0  0  0  0  0  0  0  0
  188.7550  176.5460  146.9230 C   0  0  0  0  0  0  0  0  0  0  0  0
  188.5810  175.3070  146.7750 O   0  0  0  0  0  0  0  0  0  0  0  0
  190.0430  177.0610  147.1360 O   0  0  0  0  0  0  0  0  0  0  0  0
  191.0120  176.4820  148.0120 C   0  0  0  0  0  3  0  0  0  0  0  0
  191.6340  177.5280  148.9190 C   0  0  0  0  0  1  0  0  0  0  0  0
  192.0820  175.7350  147.2380 C   0  0  0  0  0  1  0  0  0  0  0  0
  4  9  1  1  0  0  0
  4 14  1  0  0  0  0
  4  7  1  0  0  0  0
  5  2  1  0  0  0  0
  7  2  1  6  0  0  0
  7  6  1  0  0  0  0
  8 11  1  0  0  0  0
  8 15  1  0  0  0  0
  9 12  1  0  0  0  0
 10  3  1  6  0  0  0
 10 14  1  0  0  0  0
 11 15  1  0  0  0  0
 12  6  1  1  0  0  0
 12 13  1  0  0  0  0
 13 15  1  6  0  0  0
 13 19  1  0  0  0  0
 14  1  1  1  0  0  0
 15 12  1  0  0  0  0
 16  5  1  0  0  0  0
 16 10  1  0  0  0  0
 17 24  1  0  0  0  0
 17 21  2  0  0  0  0
 18 22  2  0  0  0  0
 19 22  1  1  0  0  0
 19 17  1  0  0  0  0
 21 20  1  0  0  0  0
 22 23  1  0  0  0  0
 23 20  2  0  0  0  0
 24 26  1  0  0  0  0
 25 24  2  0  0  0  0
 26 27  1  0  0  0  0
 27 28  1  0  0  0  0
 29 27  1  0  0  0  0
M  END
>  <MODEL>
2

>  <REMARK>
 VINA RESULT:      -7.3      2.809      5.069
  Name = 
  4 active torsions:
  status: ('A' for Active; 'I' for Inactive)
    1  A    between atoms: C_2  and  C_3
    2  A    between atoms: C_2  and  O_10
    3  A    between atoms: C_4  and  O_10
    4  A    between atoms: C_11  and  C_24
                            x       y       z     vdW  Elec       q    Type
                         _______ _______ _______ _____ _____    ______ ____

>  <TORSDO>
F 4

$$$$
=
 OpenBabel11062422453D

 29 33  0  0  1  0  0  0  0  0999 V2000
  189.3330  174.3900  141.8970 C   0  0  0  0  0  1  0  0  0  0  0  0
  192.5760  176.5690  143.7370 C   0  0  0  0  0  2  0  0  0  0  0  0
  191.7310  173.5440  140.1860 C   0  0  0  0  0  1  0  0  0  0  0  0
  190.9770  174.8390  143.7580 C   0  0  1  0  0  3  0  0  0  0  0  0
  193.3030  176.4020  142.4090 C   0  0  0  0  0  2  0  0  0  0  0  0
  190.4810  176.9260  144.7070 C   0  0  0  0  0  2  0  0  0  0  0  0
  191.1530  176.2900  143.5870 N   0  0  1  0  0  0  0  0  0  0  0  0
  189.9750  174.7200  147.3990 C   0  0  0  0  0  2  0  0  0  0  0  0
  189.9000  174.5540  144.7080 N   0  0  0  0  0  2  0  0  0  0  0  0
  191.7630  174.5370  141.3340 C   0  0  1  0  0  3  0  0  0  0  0  0
  188.5240  174.8560  147.5850 C   0  0  0  0  0  2  0  0  0  0  0  0
  189.6420  175.8440  145.3160 C   0  0  2  0  0  0  0  0  0  0  0  0
  188.2160  176.0530  145.6650 C   0  0  1  0  0  3  0  0  0  0  0  0
  190.7430  174.1330  142.4120 C   0  0  2  0  0  3  0  0  0  0  0  0
  189.2650  175.9590  146.8130 C   0  0  0  0  0  0  0  0  0  0  0  0
  193.4700  174.6380  141.9740 S   0  0  0  0  0  0  0  0  0  0  0  0
  186.7760  177.5390  144.2810 C   0  0  0  0  0  0  0  0  0  0  0  0
  187.6780  178.4630  147.6600 O   0  0  0  0  0  0  0  0  0  0  0  0
  187.7270  177.4980  145.4630 C   0  0  1  0  0  3  0  0  0  0  0  0
  184.8820  177.6100  145.7610 C   0  0  0  0  0  3  0  0  0  0  0  0
  185.4860  177.5320  144.4630 N   0  0  0  0  0  0  0  0  0  0  0  0
  187.0190  177.9830  146.7010 C   0  0  0  0  0  0  0  0  0  0  0  0
  185.6020  177.8420  146.8130 N   0  0  0  0  0  0  0  0  0  0  0  0
  187.2920  177.5590  142.9030 C   0  0  0  0  0  0  0  0  0  0  0  0
  188.4520  177.9910  142.6650 O   0  0  0  0  0  0  0  0  0  0  0  0
  186.4700  177.1170  141.8550 O   0  0  0  0  0  0  0  0  0  0  0  0
  186.1340  177.8970  140.7070 C   0  0  0  0  0  3  0  0  0  0  0  0
  184.6480  178.2080  140.6620 C   0  0  0  0  0  1  0  0  0  0  0  0
  186.5800  177.2180  139.4250 C   0  0  0  0  0  1  0  0  0  0  0  0
  4  9  1  1  0  0  0
  5  2  1  0  0  0  0
  7  2  1  1  0  0  0
  7  4  1  0  0  0  0
  7  6  1  0  0  0  0
  8 11  1  0  0  0  0
  9 12  1  0  0  0  0
 10  3  1  6  0  0  0
 10 16  1  0  0  0  0
 10 14  1  0  0  0  0
 12  6  1  6  0  0  0
 12 13  1  0  0  0  0
 12 15  1  0  0  0  0
 13 15  1  1  0  0  0
 14  1  1  6  0  0  0
 14  4  1  0  0  0  0
 15  8  1  0  0  0  0
 15 11  1  0  0  0  0
 16  5  1  0  0  0  0
 17 21  2  0  0  0  0
 19 17  1  6  0  0  0
 19 13  1  0  0  0  0
 19 22  1  0  0  0  0
 20 23  2  0  0  0  0
 21 20  1  0  0  0  0
 22 23  1  0  0  0  0
 22 18  2  0  0  0  0
 24 17  1  0  0  0  0
 25 24  2  0  0  0  0
 26 24  1  0  0  0  0
 27 26  1  0  0  0  0
 28 27  1  0  0  0  0
 29 27  1  0  0  0  0
M  END
>  <MODEL>
3

>  <REMARK>
 VINA RESULT:      -7.0      2.249      3.244
  Name = 
  4 active torsions:
  status: ('A' for Active; 'I' for Inactive)
    1  A    between atoms: C_2  and  C_3
    2  A    between atoms: C_2  and  O_10
    3  A    between atoms: C_4  and  O_10
    4  A    between atoms: C_11  and  C_24
                            x       y       z     vdW  Elec       q    Type
                         _______ _______ _______ _____ _____    ______ ____

>  <TORSDO>
F 4

$$$$
=
 OpenBabel11062422453D

 29 33  0  0  1  0  0  0  0  0999 V2000
  187.0760  177.3410  145.2000 C   0  0  0  0  0  1  0  0  0  0  0  0
  186.3910  177.4420  140.9370 C   0  0  0  0  0  2  0  0  0  0  0  0
  184.4650  178.9330  145.0040 C   0  0  0  0  0  1  0  0  0  0  0  0
  186.4560  176.2900  142.9910 C   0  0  1  0  0  3  0  0  0  0  0  0
  185.5230  178.6630  141.2110 C   0  0  0  0  0  2  0  0  0  0  0  0
  188.3370  176.3290  141.5900 C   0  0  0  0  0  2  0  0  0  0  0  0
  187.2400  177.1430  142.0830 N   0  0  1  0  0  0  0  0  0  0  0  0
  187.7250  172.8850  141.9580 C   0  0  0  0  0  2  0  0  0  0  0  0
  187.2270  175.1130  143.3940 N   0  0  0  0  0  2  0  0  0  0  0  0
  185.2760  178.4070  143.8340 C   0  0  1  0  0  3  0  0  0  0  0  0
  188.9210  172.4810  142.7110 C   0  0  0  0  0  2  0  0  0  0  0  0
  188.3580  175.1280  142.4880 C   0  0  2  0  0  0  0  0  0  0  0  0
  189.6090  174.6230  143.1020 C   0  0  1  0  0  3  0  0  0  0  0  0
  185.9490  177.0770  144.2110 C   0  0  2  0  0  3  0  0  0  0  0  0
  188.9600  173.8110  141.9410 C   0  0  0  0  0  0  0  0  0  0  0  0
  184.1820  178.2620  142.3790 S   0  0  0  0  0  0  0  0  0  0  0  0
  191.5880  175.9370  143.8460 C   0  0  0  0  0  0  0  0  0  0  0  0
  191.6250  174.1660  140.6920 O   0  0  0  0  0  0  0  0  0  0  0  0
  190.8780  175.3590  142.6350 C   0  0  1  0  0  3  0  0  0  0  0  0
  193.1900  174.1440  143.8070 C   0  0  0  0  0  3  0  0  0  0  0  0
  192.6030  175.3200  144.3810 N   0  0  0  0  0  0  0  0  0  0  0  0
  191.7950  174.4050  141.9160 C   0  0  0  0  0  0  0  0  0  0  0  0
  192.8230  173.7240  142.6370 N   0  0  0  0  0  0  0  0  0  0  0  0
  191.1270  177.1940  144.4570 C   0  0  0  0  0  0  0  0  0  0  0  0
  191.3200  178.2930  143.8730 O   0  0  0  0  0  0  0  0  0  0  0  0
  190.4930  177.1560  145.7090 O   0  0  0  0  0  0  0  0  0  0  0  0
  190.7340  176.1640  146.7090 C   0  0  0  0  0  3  0  0  0  0  0  0
  189.5110  175.2920  146.9300 C   0  0  0  0  0  1  0  0  0  0  0  0
  191.1910  176.7910  148.0130 C   0  0  0  0  0  1  0  0  0  0  0  0
  2  5  1  0  0  0  0
  4  9  1  1  0  0  0
  4 14  1  0  0  0  0
  5 16  1  0  0  0  0
  6  7  1  0  0  0  0
  7  2  1  6  0  0  0
  7  4  1  0  0  0  0
  8 11  1  0  0  0  0
 10 14  1  0  0  0  0
 10  3  1  1  0  0  0
 12  6  1  6  0  0  0
 12 13  1  0  0  0  0
 12  9  1  0  0  0  0
 13 15  1  6  0  0  0
 14  1  1  1  0  0  0
 15  8  1  0  0  0  0
 15 12  1  0  0  0  0
 15 11  1  0  0  0  0
 16 10  1  0  0  0  0
 17 21  2  0  0  0  0
 17 24  1  0  0  0  0
 18 22  2  0  0  0  0
 19 22  1  1  0  0  0
 19 13  1  0  0  0  0
 19 17  1  0  0  0  0
 20 21  1  0  0  0  0
 22 23  1  0  0  0  0
 23 20  2  0  0  0  0
 24 26  1  0  0  0  0
 25 24  2  0  0  0  0
 26 27  1  0  0  0  0
 27 28  1  0  0  0  0
 27 29  1  0  0  0  0
M  END
>  <MODEL>
4

>  <REMARK>
 VINA RESULT:      -6.9      2.919      6.833
  Name = 
  4 active torsions:
  status: ('A' for Active; 'I' for Inactive)
    1  A    between atoms: C_2  and  C_3
    2  A    between atoms: C_2  and  O_10
    3  A    between atoms: C_4  and  O_10
    4  A    between atoms: C_11  and  C_24
                            x       y       z     vdW  Elec       q    Type
                         _______ _______ _______ _____ _____    ______ ____

>  <TORSDO>
F 4

$$$$
=
 OpenBabel11062422453D

 29 33  0  0  1  0  0  0  0  0999 V2000
  189.8840  176.8790  143.0730 C   0  0  0  0  0  1  0  0  0  0  0  0
  189.7640  175.4050  147.1310 C   0  0  0  0  0  2  0  0  0  0  0  0
  187.2250  178.0120  144.0920 C   0  0  0  0  0  1  0  0  0  0  0  0
  190.6450  176.8350  145.4790 C   0  0  1  0  0  3  0  0  0  0  0  0
  188.2570  175.6100  147.0490 C   0  0  0  0  0  2  0  0  0  0  0  0
  191.6460  174.7570  145.9090 C   0  0  0  0  0  2  0  0  0  0  0  0
  190.3610  175.4270  145.8010 N   0  0  1  0  0  0  0  0  0  0  0  0
  194.2950  177.0100  146.4370 C   0  0  0  0  0  2  0  0  0  0  0  0
  192.0170  176.9910  144.9930 N   0  0  0  0  0  2  0  0  0  0  0  0
  188.1670  177.1140  144.8730 C   0  0  1  0  0  3  0  0  0  0  0  0
  195.1840  176.6400  145.3270 C   0  0  0  0  0  2  0  0  0  0  0  0
  192.6300  175.7170  145.3100 C   0  0  2  0  0  0  0  0  0  0  0  0
  193.6440  175.2900  144.3170 C   0  0  1  0  0  3  0  0  0  0  0  0
  189.6240  177.4040  144.4790 C   0  0  2  0  0  3  0  0  0  0  0  0
  194.1080  175.6330  145.7640 C   0  0  0  0  0  0  0  0  0  0  0  0
  187.8540  177.3450  146.6560 S   0  0  0  0  0  0  0  0  0  0  0  0
  193.2960  173.5090  142.6130 C   0  0  0  0  0  0  0  0  0  0  0  0
  195.3780  172.9140  145.5110 O   0  0  0  0  0  0  0  0  0  0  0  0
  193.6700  173.7730  144.0600 C   0  0  1  0  0  3  0  0  0  0  0  0
  195.6070  173.1630  142.0410 C   0  0  0  0  0  3  0  0  0  0  0  0
  194.2160  173.2910  141.7160 N   0  0  0  0  0  0  0  0  0  0  0  0
  195.0450  173.2240  144.3380 C   0  0  0  0  0  0  0  0  0  0  0  0
  195.9950  173.1120  143.2770 N   0  0  0  0  0  0  0  0  0  0  0  0
  191.8880  173.5200  142.1880 C   0  0  0  0  0  0  0  0  0  0  0  0
  191.4710  174.4050  141.3940 O   0  0  0  0  0  0  0  0  0  0  0  0
  191.0090  172.5510  142.6960 O   0  0  0  0  0  0  0  0  0  0  0  0
  189.7500  172.8410  143.3060 C   0  0  0  0  0  3  0  0  0  0  0  0
  189.5880  172.1020  144.6220 C   0  0  0  0  0  1  0  0  0  0  0  0
  188.5960  172.5320  142.3700 C   0  0  0  0  0  1  0  0  0  0  0  0
  4  9  1  6  0  0  0
  4  7  1  0  0  0  0
  5  2  1  0  0  0  0
  7  6  1  1  0  0  0
  7  2  1  0  0  0  0
  9 12  1  0  0  0  0
 10  3  1  6  0  0  0
 10 16  1  0  0  0  0
 11 15  1  0  0  0  0
 11  8  1  0  0  0  0
 12 15  1  0  0  0  0
 12  6  1  1  0  0  0
 13 12  1  0  0  0  0
 13 15  1  1  0  0  0
 14  1  1  6  0  0  0
 14 10  1  0  0  0  0
 14  4  1  0  0  0  0
 15  8  1  0  0  0  0
 16  5  1  0  0  0  0
 19 17  1  6  0  0  0
 19 13  1  0  0  0  0
 19 22  1  0  0  0  0
 20 23  2  0  0  0  0
 21 20  1  0  0  0  0
 21 17  2  0  0  0  0
 22 18  2  0  0  0  0
 23 22  1  0  0  0  0
 24 17  1  0  0  0  0
 24 26  1  0  0  0  0
 25 24  2  0  0  0  0
 26 27  1  0  0  0  0
 27 28  1  0  0  0  0
 29 27  1  0  0  0  0
M  END
>  <MODEL>
5

>  <REMARK>
 VINA RESULT:      -6.6      3.301      6.885
  Name = 
  4 active torsions:
  status: ('A' for Active; 'I' for Inactive)
    1  A    between atoms: C_2  and  C_3
    2  A    between atoms: C_2  and  O_10
    3  A    between atoms: C_4  and  O_10
    4  A    between atoms: C_11  and  C_24
                            x       y       z     vdW  Elec       q    Type
                         _______ _______ _______ _____ _____    ______ ____

>  <TORSDO>
F 4

$$$$
=
 OpenBabel11062422453D

 29 33  0  0  1  0  0  0  0  0999 V2000
  186.3160  176.7910  141.6950 C   0  0  0  0  0  1  0  0  0  0  0  0
  186.5430  177.4370  145.9590 C   0  0  0  0  0  2  0  0  0  0  0  0
  183.7130  178.3080  142.2570 C   0  0  0  0  0  1  0  0  0  0  0  0
  187.2580  177.8920  143.7610 C   0  0  1  0  0  3  0  0  0  0  0  0
  185.0290  177.5990  145.9100 C   0  0  0  0  0  2  0  0  0  0  0  0
  188.3430  176.2590  145.0500 C   0  0  0  0  0  2  0  0  0  0  0  0
  187.0370  176.8130  144.7380 N   0  0  1  0  0  0  0  0  0  0  0  0
  190.9650  178.4550  144.2270 C   0  0  0  0  0  2  0  0  0  0  0  0
  188.5850  177.7780  143.1530 N   0  0  0  0  0  2  0  0  0  0  0  0
  184.7350  177.8800  143.2940 C   0  0  1  0  0  3  0  0  0  0  0  0
  191.7760  177.5880  143.3620 C   0  0  0  0  0  2  0  0  0  0  0  0
  189.2530  176.8030  143.9900 C   0  0  2  0  0  0  0  0  0  0  0  0
  190.2000  175.9390  143.2440 C   0  0  1  0  0  3  0  0  0  0  0  0
  186.1500  177.9270  142.6950 C   0  0  2  0  0  3  0  0  0  0  0  0
  190.7630  176.9270  144.3100 C   0  0  0  0  0  0  0  0  0  0  0  0
  184.5520  178.9400  144.7690 S   0  0  0  0  0  0  0  0  0  0  0  0
  190.1980  173.5500  142.5470 C   0  0  0  0  0  0  0  0  0  0  0  0
  191.5660  174.5410  145.7460 O   0  0  0  0  0  0  0  0  0  0  0  0
  190.2460  174.4840  143.7420 C   0  0  1  0  0  3  0  0  0  0  0  0
  192.5690  173.1750  142.6980 C   0  0  0  0  0  3  0  0  0  0  0  0
  191.2890  173.0200  142.0710 N   0  0  0  0  0  0  0  0  0  0  0  0
  191.5110  174.2440  144.5240 C   0  0  0  0  0  0  0  0  0  0  0  0
  192.6710  173.7340  143.8640 N   0  0  0  0  0  0  0  0  0  0  0  0
  188.9200  173.2450  141.8840 C   0  0  0  0  0  0  0  0  0  0  0  0
  188.1280  172.4050  142.3880 O   0  0  0  0  0  0  0  0  0  0  0  0
  188.6060  173.8790  140.6720 O   0  0  0  0  0  0  0  0  0  0  0  0
  188.3290  173.1960  139.4490 C   0  0  0  0  0  3  0  0  0  0  0  0
  189.3820  172.1450  139.1490 C   0  0  0  0  0  1  0  0  0  0  0  0
  188.1910  174.1660  138.2900 C   0  0  0  0  0  1  0  0  0  0  0  0
  4  9  1  6  0  0  0
  4  7  1  0  0  0  0
  5  2  1  0  0  0  0
  7  6  1  1  0  0  0
  7  2  1  0  0  0  0
  8 15  1  0  0  0  0
  9 12  1  0  0  0  0
 10  3  1  6  0  0  0
 10 16  1  0  0  0  0
 11  8  1  0  0  0  0
 11 15  1  0  0  0  0
 12 15  1  0  0  0  0
 12  6  1  1  0  0  0
 13 19  1  0  0  0  0
 13 12  1  0  0  0  0
 13 15  1  1  0  0  0
 14  1  1  6  0  0  0
 14 10  1  0  0  0  0
 14  4  1  0  0  0  0
 16  5  1  0  0  0  0
 19 17  1  6  0  0  0
 19 22  1  0  0  0  0
 20 23  2  0  0  0  0
 21 17  2  0  0  0  0
 21 20  1  0  0  0  0
 22 18  2  0  0  0  0
 23 22  1  0  0  0  0
 24 25  2  0  0  0  0
 24 17  1  0  0  0  0
 26 24  1  0  0  0  0
 27 26  1  0  0  0  0
 28 27  1  0  0  0  0
 29 27  1  0  0  0  0
M  END
>  <MODEL>
6

>  <REMARK>
 VINA RESULT:      -6.6      2.875      5.966
  Name = 
  4 active torsions:
  status: ('A' for Active; 'I' for Inactive)
    1  A    between atoms: C_2  and  C_3
    2  A    between atoms: C_2  and  O_10
    3  A    between atoms: C_4  and  O_10
    4  A    between atoms: C_11  and  C_24
                            x       y       z     vdW  Elec       q    Type
                         _______ _______ _______ _____ _____    ______ ____

>  <TORSDO>
F 4

$$$$
=
 OpenBabel11062422453D

 29 33  0  0  1  0  0  0  0  0999 V2000
  192.8540  172.2310  144.6750 C   0  0  0  0  0  1  0  0  0  0  0  0
  194.8710  176.0500  144.6780 C   0  0  0  0  0  2  0  0  0  0  0  0
  195.7330  171.4390  145.3650 C   0  0  0  0  0  1  0  0  0  0  0  0
  193.3790  174.5020  145.6420 C   0  0  1  0  0  3  0  0  0  0  0  0
  196.1510  175.2560  144.4510 C   0  0  0  0  0  2  0  0  0  0  0  0
  192.5960  176.1440  144.1610 C   0  0  0  0  0  2  0  0  0  0  0  0
  193.6980  175.2300  144.4020 N   0  0  1  0  0  0  0  0  0  0  0  0
  190.6950  176.7530  147.0570 C   0  0  0  0  0  2  0  0  0  0  0  0
  191.9580  174.6320  145.9700 N   0  0  0  0  0  2  0  0  0  0  0  0
  195.2460  172.8430  145.0560 C   0  0  1  0  0  3  0  0  0  0  0  0
  189.3540  176.3980  146.5760 C   0  0  0  0  0  2  0  0  0  0  0  0
  191.5050  175.6820  145.0800 C   0  0  2  0  0  0  0  0  0  0  0  0
  190.1080  175.4970  144.6170 C   0  0  1  0  0  3  0  0  0  0  0  0
  193.8050  173.0270  145.5580 C   0  0  2  0  0  3  0  0  0  0  0  0
  190.4410  176.7110  145.5350 C   0  0  0  0  0  0  0  0  0  0  0  0
  196.4120  174.0420  145.7870 S   0  0  0  0  0  0  0  0  0  0  0  0
  189.6220  174.7100  142.3060 C   0  0  0  0  0  0  0  0  0  0  0  0
  188.8030  178.0850  143.3200 O   0  0  0  0  0  0  0  0  0  0  0  0
  189.8660  175.9390  143.1630 C   0  0  1  0  0  3  0  0  0  0  0  0
  187.2530  175.1250  142.3240 C   0  0  0  0  0  3  0  0  0  0  0  0
  188.4100  174.3450  141.9950 N   0  0  0  0  0  0  0  0  0  0  0  0
  188.6720  176.8540  143.0910 C   0  0  0  0  0  0  0  0  0  0  0  0
  187.3770  176.3150  142.8220 N   0  0  0  0  0  0  0  0  0  0  0  0
  190.7470  173.8890  141.8320 C   0  0  0  0  0  0  0  0  0  0  0  0
  191.7500  174.4340  141.2980 O   0  0  0  0  0  0  0  0  0  0  0  0
  190.6800  172.4930  141.9570 O   0  0  0  0  0  0  0  0  0  0  0  0
  190.9200  171.5730  140.8910 C   0  0  0  0  0  3  0  0  0  0  0  0
  189.9380  171.7750  139.7510 C   0  0  0  0  0  1  0  0  0  0  0  0
  190.8890  170.1370  141.3800 C   0  0  0  0  0  1  0  0  0  0  0  0
  4  9  1  6  0  0  0
  5  2  1  0  0  0  0
  5 16  1  0  0  0  0
  7  6  1  1  0  0  0
  7  2  1  0  0  0  0
  7  4  1  0  0  0  0
 10  3  1  1  0  0  0
 10 14  1  0  0  0  0
 10 16  1  0  0  0  0
 11  8  1  0  0  0  0
 12  6  1  6  0  0  0
 12 15  1  0  0  0  0
 12  9  1  0  0  0  0
 13 12  1  0  0  0  0
 13 15  1  1  0  0  0
 14  1  1  6  0  0  0
 14  4  1  0  0  0  0
 15 11  1  0  0  0  0
 15  8  1  0  0  0  0
 19 17  1  6  0  0  0
 19 13  1  0  0  0  0
 20 23  2  0  0  0  0
 21 17  2  0  0  0  0
 21 20  1  0  0  0  0
 22 19  1  0  0  0  0
 22 18  2  0  0  0  0
 23 22  1  0  0  0  0
 24 26  1  0  0  0  0
 24 17  1  0  0  0  0
 25 24  2  0  0  0  0
 27 29  1  0  0  0  0
 27 26  1  0  0  0  0
 28 27  1  0  0  0  0
M  END
>  <MODEL>
7

>  <REMARK>
 VINA RESULT:      -6.4      2.730      3.801
  Name = 
  4 active torsions:
  status: ('A' for Active; 'I' for Inactive)
    1  A    between atoms: C_2  and  C_3
    2  A    between atoms: C_2  and  O_10
    3  A    between atoms: C_4  and  O_10
    4  A    between atoms: C_11  and  C_24
                            x       y       z     vdW  Elec       q    Type
                         _______ _______ _______ _____ _____    ______ ____

>  <TORSDO>
F 4

$$$$
=
 OpenBabel11062422453D

 29 33  0  0  1  0  0  0  0  0999 V2000
  191.9560  174.0150  142.5450 C   0  0  0  0  0  1  0  0  0  0  0  0
  193.8550  176.8680  145.1730 C   0  0  0  0  0  2  0  0  0  0  0  0
  194.9280  173.5550  141.9560 C   0  0  0  0  0  1  0  0  0  0  0  0
  192.6650  174.8670  144.8120 C   0  0  1  0  0  3  0  0  0  0  0  0
  195.0540  176.7730  144.2380 C   0  0  0  0  0  2  0  0  0  0  0  0
  191.5210  176.8680  145.2500 C   0  0  0  0  0  2  0  0  0  0  0  0
  192.6630  176.3150  144.5430 N   0  0  1  0  0  0  0  0  0  0  0  0
  190.3700  174.7500  147.8120 C   0  0  0  0  0  2  0  0  0  0  0  0
  191.3640  174.4320  145.3240 N   0  0  0  0  0  2  0  0  0  0  0  0
  194.3600  174.5940  142.9060 C   0  0  1  0  0  3  0  0  0  0  0  0
  188.9580  174.6160  147.4310 C   0  0  0  0  0  2  0  0  0  0  0  0
  190.6930  175.6790  145.6320 C   0  0  2  0  0  0  0  0  0  0  0  0
  189.2290  175.6290  145.4030 C   0  0  1  0  0  3  0  0  0  0  0  0
  193.0810  174.0600  143.5710 C   0  0  2  0  0  3  0  0  0  0  0  0
  189.7560  175.7980  146.8590 C   0  0  0  0  0  0  0  0  0  0  0  0
  195.6500  175.0540  144.1120 S   0  0  0  0  0  0  0  0  0  0  0  0
  188.0000  176.6760  143.5080 C   0  0  0  0  0  0  0  0  0  0  0  0
  187.9420  178.1730  146.8010 O   0  0  0  0  0  0  0  0  0  0  0  0
  188.6350  176.9410  144.8610 C   0  0  1  0  0  3  0  0  0  0  0  0
  185.8090  176.6520  144.5010 C   0  0  0  0  0  3  0  0  0  0  0  0
  186.7140  176.4950  143.3990 N   0  0  0  0  0  0  0  0  0  0  0  0
  187.5960  177.4720  145.8140 C   0  0  0  0  0  0  0  0  0  0  0  0
  186.2210  177.1310  145.6320 N   0  0  0  0  0  0  0  0  0  0  0  0
  188.8280  176.5920  142.2940 C   0  0  0  0  0  0  0  0  0  0  0  0
  189.9330  177.1940  142.2350 O   0  0  0  0  0  0  0  0  0  0  0  0
  188.3610  175.8550  141.1950 O   0  0  0  0  0  0  0  0  0  0  0  0
  188.7540  174.5160  140.8920 C   0  0  0  0  0  3  0  0  0  0  0  0
  188.5120  174.1830  139.4310 C   0  0  0  0  0  1  0  0  0  0  0  0
  188.0560  173.5160  141.7950 C   0  0  0  0  0  1  0  0  0  0  0  0
  4  9  1  6  0  0  0
  5  2  1  0  0  0  0
  7  4  1  0  0  0  0
  7  2  1  1  0  0  0
  7  6  1  0  0  0  0
  9 12  1  0  0  0  0
 10  3  1  6  0  0  0
 10 14  1  0  0  0  0
 10 16  1  0  0  0  0
 11  8  1  0  0  0  0
 12  6  1  6  0  0  0
 12 15  1  0  0  0  0
 13 12  1  0  0  0  0
 13 15  1  1  0  0  0
 14  1  1  6  0  0  0
 14  4  1  0  0  0  0
 15 11  1  0  0  0  0
 15  8  1  0  0  0  0
 16  5  1  0  0  0  0
 19 17  1  6  0  0  0
 19 13  1  0  0  0  0
 19 22  1  0  0  0  0
 20 23  2  0  0  0  0
 21 17  2  0  0  0  0
 21 20  1  0  0  0  0
 22 18  2  0  0  0  0
 23 22  1  0  0  0  0
 24 17  1  0  0  0  0
 25 24  2  0  0  0  0
 26 24  1  0  0  0  0
 27 26  1  0  0  0  0
 27 29  1  0  0  0  0
 28 27  1  0  0  0  0
M  END
>  <MODEL>
8

>  <REMARK>
 VINA RESULT:      -6.4      2.020      2.814
  Name = 
  4 active torsions:
  status: ('A' for Active; 'I' for Inactive)
    1  A    between atoms: C_2  and  C_3
    2  A    between atoms: C_2  and  O_10
    3  A    between atoms: C_4  and  O_10
    4  A    between atoms: C_11  and  C_24
                            x       y       z     vdW  Elec       q    Type
                         _______ _______ _______ _____ _____    ______ ____

>  <TORSDO>
F 4

$$$$
=
 OpenBabel11062422453D

 29 33  0  0  1  0  0  0  0  0999 V2000
  188.8620  177.3970  143.3030 C   0  0  0  0  0  1  0  0  0  0  0  0
  188.2040  175.8510  147.2820 C   0  0  0  0  0  2  0  0  0  0  0  0
  186.3220  178.8830  144.1610 C   0  0  0  0  0  1  0  0  0  0  0  0
  189.4130  177.1780  145.7570 C   0  0  1  0  0  3  0  0  0  0  0  0
  186.7540  176.2780  147.0950 C   0  0  0  0  0  2  0  0  0  0  0  0
  190.0640  174.9660  146.1820 C   0  0  0  0  0  2  0  0  0  0  0  0
  188.9030  175.8200  146.0030 N   0  0  1  0  0  0  0  0  0  0  0  0
  192.9610  176.7880  146.9930 C   0  0  0  0  0  2  0  0  0  0  0  0
  190.8280  177.1430  145.3820 N   0  0  0  0  0  2  0  0  0  0  0  0
  187.0580  177.8350  144.9760 C   0  0  1  0  0  3  0  0  0  0  0  0
  193.8730  176.3210  145.9410 C   0  0  0  0  0  2  0  0  0  0  0  0
  191.2220  175.7850  145.6960 C   0  0  2  0  0  0  0  0  0  0  0  0
  192.2400  175.2390  144.7670 C   0  0  1  0  0  3  0  0  0  0  0  0
  188.5690  177.9180  144.7040 C   0  0  2  0  0  3  0  0  0  0  0  0
  192.6310  175.4730  146.2560 C   0  0  0  0  0  0  0  0  0  0  0  0
  186.6400  178.0630  146.7390 S   0  0  0  0  0  0  0  0  0  0  0  0
  191.5350  173.5880  143.0430 C   0  0  0  0  0  0  0  0  0  0  0  0
  193.7880  172.6310  145.7070 O   0  0  0  0  0  0  0  0  0  0  0  0
  192.0670  173.7420  144.4560 C   0  0  1  0  0  3  0  0  0  0  0  0
  193.7280  173.0120  142.2410 C   0  0  0  0  0  3  0  0  0  0  0  0
  192.3380  173.3090  142.0550 N   0  0  0  0  0  0  0  0  0  0  0  0
  193.3880  173.0310  144.5810 C   0  0  0  0  0  0  0  0  0  0  0  0
  194.2190  172.8610  143.4320 N   0  0  0  0  0  0  0  0  0  0  0  0
  190.1040  173.7770  142.7540 C   0  0  0  0  0  0  0  0  0  0  0  0
  189.2320  173.2190  143.4720 O   0  0  0  0  0  0  0  0  0  0  0  0
  189.7230  174.5630  141.6560 O   0  0  0  0  0  0  0  0  0  0  0  0
  188.5980  174.2920  140.8180 C   0  0  0  0  0  3  0  0  0  0  0  0
  189.0170  173.5960  139.5360 C   0  0  0  0  0  1  0  0  0  0  0  0
  187.8160  175.5560  140.5140 C   0  0  0  0  0  1  0  0  0  0  0  0
  4  9  1  6  0  0  0
  4  7  1  0  0  0  0
  5  2  1  0  0  0  0
  7  6  1  1  0  0  0
  7  2  1  0  0  0  0
  9 12  1  0  0  0  0
 10  3  1  6  0  0  0
 10 16  1  0  0  0  0
 11 15  1  0  0  0  0
 11  8  1  0  0  0  0
 12  6  1  1  0  0  0
 12 15  1  0  0  0  0
 13 12  1  0  0  0  0
 13 15  1  1  0  0  0
 14  1  1  6  0  0  0
 14 10  1  0  0  0  0
 14  4  1  0  0  0  0
 15  8  1  0  0  0  0
 16  5  1  0  0  0  0
 19 17  1  6  0  0  0
 19 22  1  0  0  0  0
 19 13  1  0  0  0  0
 20 23  2  0  0  0  0
 21 20  1  0  0  0  0
 21 17  2  0  0  0  0
 22 18  2  0  0  0  0
 23 22  1  0  0  0  0
 24 17  1  0  0  0  0
 24 25  2  0  0  0  0
 26 24  1  0  0  0  0
 27 26  1  0  0  0  0
 28 27  1  0  0  0  0
 29 27  1  0  0  0  0
M  END
>  <MODEL>
9

>  <REMARK>
 VINA RESULT:      -6.4      2.759      6.144
  Name = 
  4 active torsions:
  status: ('A' for Active; 'I' for Inactive)
    1  A    between atoms: C_2  and  C_3
    2  A    between atoms: C_2  and  O_10
    3  A    between atoms: C_4  and  O_10
    4  A    between atoms: C_11  and  C_24
                            x       y       z     vdW  Elec       q    Type
                         _______ _______ _______ _____ _____    ______ ____

>  <TORSDO>
F 4

$$$$
