=
 OpenBabel11062418463D

 43 48  0  0  1  0  0  0  0  0999 V2000
  189.9210  176.2820  143.0180 C   0  0  0  0  0  3  0  0  0  0  0  0
  190.0530  177.9570  144.9040 C   0  0  0  0  0  2  0  0  0  0  0  0
  184.9830  177.3510  143.8470 C   0  0  0  0  0  3  0  0  0  0  0  0
  185.7300  176.8640  142.8880 N   0  0  0  0  0  0  0  0  0  0  0  0
  186.2400  176.9070  146.0440 C   0  0  0  0  0  2  0  0  0  0  0  0
  189.7850  177.2940  146.2770 C   0  0  1  0  0  3  0  0  0  0  0  0
  185.4480  177.9080  145.1740 C   0  0  1  0  0  3  0  0  0  0  0  0
  188.5880  176.5520  146.3100 O   0  0  0  0  0  0  0  0  0  0  0  0
  187.1600  176.7510  142.8440 C   0  0  0  0  0  0  0  0  0  0  0  0
  189.1400  175.5390  142.1150 C   0  0  0  0  0  0  0  0  0  0  0  0
  187.5540  177.4400  146.6330 C   0  0  0  0  0  2  0  0  0  0  0  0
  187.7560  175.7630  142.0500 C   0  0  0  0  0  3  0  0  0  0  0  0
  187.9690  177.5350  143.6580 C   0  0  0  0  0  3  0  0  0  0  0  0
  189.3290  177.2880  143.7820 C   0  0  0  0  0  0  0  0  0  0  0  0
  185.2750  180.0390  144.0970 O   0  0  0  0  0  1  0  0  0  0  0  0
  185.9930  179.3290  145.0600 C   0  0  0  0  0  2  0  0  0  0  0  0
  189.7220  174.5060  141.3140 N   0  0  0  0  0  2  0  0  0  0  0  0
  189.4020  172.4290  139.8320 C   0  0  1  0  0  0  0  0  0  0  0  0
  188.3210  172.7580  140.7550 N   0  0  0  0  0  2  0  0  0  0  0  0
  190.0660  173.5730  139.1320 C   0  0  2  0  0  3  0  0  0  0  0  0
  188.7460  171.8050  138.7730 O   0  0  0  0  0  1  0  0  0  0  0  0
  191.5330  173.5960  139.5560 C   0  0  0  0  0  1  0  0  0  0  0  0
  189.0300  173.8910  140.1830 C   0  0  1  0  0  0  0  0  0  0  0  0
  190.8920  176.4110  146.6100 N   0  0  0  0  0  2  0  0  0  0  0  0
  190.5240  175.0660  146.1950 C   0  0  0  0  0  2  0  0  0  0  0  0
  191.7770  174.2380  145.9380 C   0  0  2  0  0  3  0  0  0  0  0  0
  193.0360  175.0230  146.2970 C   0  0  0  0  0  2  0  0  0  0  0  0
  194.0580  175.0440  145.1650 C   0  0  0  0  0  2  0  0  0  0  0  0
  195.4660  174.9610  145.7290 C   0  0  0  0  0  2  0  0  0  0  0  0
  197.7150  174.3010  145.2150 O   0  0  0  0  0  1  0  0  0  0  0  0
  196.4550  174.5260  144.6570 C   0  0  2  0  0  3  0  0  0  0  0  0
  196.5410  175.5670  143.5930 C   0  0  0  0  0  0  0  0  0  0  0  0
  196.5830  176.7900  143.9030 O   0  0  0  0  0  0  0  0  0  0  0  0
  196.5310  175.1700  142.2540 O   0  0  0  0  0  0  0  0  0  0  0  0
  195.2820  174.0930  140.4150 C   0  0  0  0  0  2  0  0  0  0  0  0
  194.3800  174.0240  141.6500 C   0  0  0  0  0  2  0  0  0  0  0  0
  194.7890  176.4450  141.0630 N   0  0  0  0  0  1  0  0  0  0  0  0
  195.3460  175.1660  141.4680 C   0  0  0  0  0  0  0  0  0  0  0  0
  191.8420  173.7470  144.4950 C   0  0  0  0  0  2  0  0  0  0  0  0
  191.3440  171.8610  142.9580 C   0  0  0  0  0  2  0  0  0  0  0  0
  191.9820  171.1890  144.1580 C   0  0  2  0  0  3  0  0  0  0  0  0
  191.0930  172.4250  144.3400 C   0  0  1  0  0  3  0  0  0  0  0  0
  193.4800  171.4660  144.1610 C   0  0  0  0  0  1  0  0  0  0  0  0
  1 14  1  0  0  0  0
  2  6  1  0  0  0  0
  3  7  1  0  0  0  0
  4  3  2  0  0  0  0
  5 11  1  0  0  0  0
  6  8  1  0  0  0  0
  6 24  1  6  0  0  0
  7 16  1  6  0  0  0
  7  5  1  0  0  0  0
  8 11  1  0  0  0  0
  9  4  1  0  0  0  0
  9 13  1  0  0  0  0
 10  1  2  0  0  0  0
 12 10  1  0  0  0  0
 12  9  2  0  0  0  0
 13 14  2  0  0  0  0
 14  2  1  0  0  0  0
 15 16  1  0  0  0  0
 17 10  1  0  0  0  0
 18 21  1  6  0  0  0
 18 23  1  0  0  0  0
 18 19  1  0  0  0  0
 20 22  1  1  0  0  0
 20 18  1  0  0  0  0
 20 23  1  0  0  0  0
 23 19  1  0  0  0  0
 23 17  1  1  0  0  0
 25 24  1  0  0  0  0
 26 39  1  6  0  0  0
 26 25  1  0  0  0  0
 26 27  1  0  0  0  0
 28 29  1  0  0  0  0
 28 27  1  0  0  0  0
 31 30  1  1  0  0  0
 31 29  1  0  0  0  0
 32 33  2  0  0  0  0
 32 31  1  0  0  0  0
 34 32  1  0  0  0  0
 35 38  1  0  0  0  0
 35 36  1  0  0  0  0
 37 38  1  0  0  0  0
 38 36  1  0  0  0  0
 38 34  1  0  0  0  0
 40 41  1  0  0  0  0
 40 42  1  0  0  0  0
 41 43  1  6  0  0  0
 41 42  1  0  0  0  0
 42 39  1  6  0  0  0
M  END
>  <MODEL>
1

>  <REMARK>
 VINA RESULT:      -6.5      0.000      0.000
  Name = 
  15 active torsions:
  status: ('A' for Active; 'I' for Inactive)
    1  A    between atoms: C_2  and  C_34
    2  A    between atoms: C_2  and  C_37
    3  A    between atoms: C_3  and  C_24
    4  A    between atoms: C_3  and  C_37
    5  A    between atoms: C_6  and  C_14
    6  A    between atoms: C_6  and  C_34
    7  A    between atoms: N_12  and  C_30
    8  A    between atoms: N_12  and  C_38
    9  A    between atoms: N_13  and  C_19
   10  A    between atoms: N_13  and  C_21
   11  A    between atoms: C_14  and  C_26
   12  A    between atoms: C_20  and  C_33
   13  A    between atoms: C_21  and  C_37
   14  A    between atoms: O_22  and  C_26
   15  A    between atoms: O_22  and  C_43
                            x       y       z     vdW  Elec       q    Type
                         _______ _______ _______ _____ _____    ______ ____

>  <TORSDO>
F 15

$$$$
=
 OpenBabel11062418463D

 43 48  0  0  1  0  0  0  0  0999 V2000
  191.7290  174.8530  142.0120 C   0  0  0  0  0  3  0  0  0  0  0  0
  189.7630  173.9100  140.7380 C   0  0  0  0  0  2  0  0  0  0  0  0
  194.0280  171.8540  138.5560 C   0  0  0  0  0  3  0  0  0  0  0  0
  194.3290  172.8750  139.3180 N   0  0  0  0  0  0  0  0  0  0  0  0
  192.0560  170.6580  139.6890 C   0  0  0  0  0  2  0  0  0  0  0  0
  189.3960  172.4860  141.2230 C   0  0  1  0  0  3  0  0  0  0  0  0
  192.6690  171.2110  138.3830 C   0  0  1  0  0  3  0  0  0  0  0  0
  190.4950  171.6050  141.2310 O   0  0  0  0  0  0  0  0  0  0  0  0
  193.4580  173.6450  140.1600 C   0  0  0  0  0  0  0  0  0  0  0  0
  193.1210  174.9360  142.1950 C   0  0  0  0  0  0  0  0  0  0  0  0
  190.5940  171.0490  139.9480 C   0  0  0  0  0  2  0  0  0  0  0  0
  193.9790  174.3100  141.2780 C   0  0  0  0  0  3  0  0  0  0  0  0
  192.0850  173.6590  139.9520 C   0  0  0  0  0  3  0  0  0  0  0  0
  191.2160  174.2190  140.8790 C   0  0  0  0  0  0  0  0  0  0  0  0
  192.4980  172.5560  136.4100 O   0  0  0  0  0  1  0  0  0  0  0  0
  191.7540  172.0040  137.4540 C   0  0  0  0  0  2  0  0  0  0  0  0
  193.6760  175.5860  143.3420 N   0  0  0  0  0  2  0  0  0  0  0  0
  193.6160  176.5670  145.7180 C   0  0  1  0  0  0  0  0  0  0  0  0
  192.6550  177.0970  144.7570 N   0  0  0  0  0  2  0  0  0  0  0  0
  193.8680  175.0920  145.6810 C   0  0  2  0  0  3  0  0  0  0  0  0
  192.9610  176.7010  146.9420 O   0  0  0  0  0  1  0  0  0  0  0  0
  195.3380  174.8750  145.3260 C   0  0  0  0  0  1  0  0  0  0  0  0
  192.9730  175.6850  144.6200 C   0  0  1  0  0  0  0  0  0  0  0  0
  188.8490  172.5620  142.5690 N   0  0  0  0  0  2  0  0  0  0  0  0
  189.5560  171.5900  143.3880 C   0  0  0  0  0  2  0  0  0  0  0  0
  190.1690  172.2790  144.6020 C   0  0  2  0  0  3  0  0  0  0  0  0
  189.6510  173.7080  144.7420 C   0  0  0  0  0  2  0  0  0  0  0  0
  190.0760  174.3630  146.0510 C   0  0  0  0  0  2  0  0  0  0  0  0
  188.9580  175.2420  146.5850 C   0  0  0  0  0  2  0  0  0  0  0  0
  189.5690  177.4840  147.1840 O   0  0  0  0  0  1  0  0  0  0  0  0
  189.1350  176.6830  146.1260 C   0  0  2  0  0  3  0  0  0  0  0  0
  187.8490  177.2030  145.5780 C   0  0  0  0  0  0  0  0  0  0  0  0
  186.7490  176.7820  146.0320 O   0  0  0  0  0  0  0  0  0  0  0  0
  187.8830  178.1250  144.5310 O   0  0  0  0  0  0  0  0  0  0  0  0
  188.9240  177.3540  142.4270 C   0  0  0  0  0  2  0  0  0  0  0  0
  187.8770  176.3030  142.8040 C   0  0  0  0  0  2  0  0  0  0  0  0
  186.7190  178.5080  142.3920 N   0  0  0  0  0  1  0  0  0  0  0  0
  187.6800  177.7500  143.1750 C   0  0  0  0  0  0  0  0  0  0  0  0
  191.6930  172.2620  144.5500 C   0  0  0  0  0  2  0  0  0  0  0  0
  193.4560  171.2390  143.1310 C   0  0  0  0  0  2  0  0  0  0  0  0
  193.5590  170.4770  144.4370 C   0  0  2  0  0  3  0  0  0  0  0  0
  192.1970  170.9630  143.9250 C   0  0  1  0  0  3  0  0  0  0  0  0
  194.2030  171.3640  145.4950 C   0  0  0  0  0  1  0  0  0  0  0  0
  1 10  1  0  0  0  0
  2 14  1  0  0  0  0
  2  6  1  0  0  0  0
  3  4  2  0  0  0  0
  4  9  1  0  0  0  0
  5 11  1  0  0  0  0
  6  8  1  0  0  0  0
  6 24  1  1  0  0  0
  7 16  1  1  0  0  0
  7  3  1  0  0  0  0
  7  5  1  0  0  0  0
  9 12  1  0  0  0  0
 10 17  1  0  0  0  0
 11  8  1  0  0  0  0
 12 10  2  0  0  0  0
 13  9  2  0  0  0  0
 13 14  1  0  0  0  0
 14  1  2  0  0  0  0
 15 16  1  0  0  0  0
 18 21  1  1  0  0  0
 19 18  1  0  0  0  0
 20 22  1  6  0  0  0
 20 18  1  0  0  0  0
 23 17  1  6  0  0  0
 23 19  1  0  0  0  0
 23 20  1  0  0  0  0
 23 18  1  0  0  0  0
 24 25  1  0  0  0  0
 26 25  1  6  0  0  0
 26 27  1  0  0  0  0
 27 28  1  0  0  0  0
 28 29  1  0  0  0  0
 31 29  1  0  0  0  0
 31 30  1  1  0  0  0
 32 33  2  0  0  0  0
 32 31  1  0  0  0  0
 34 32  1  0  0  0  0
 35 36  1  0  0  0  0
 35 38  1  0  0  0  0
 36 38  1  0  0  0  0
 37 38  1  0  0  0  0
 38 34  1  0  0  0  0
 39 26  1  0  0  0  0
 40 42  1  0  0  0  0
 40 41  1  0  0  0  0
 41 43  1  1  0  0  0
 42 41  1  0  0  0  0
 42 39  1  1  0  0  0
M  END
>  <MODEL>
2

>  <REMARK>
 VINA RESULT:      -6.3      2.217      7.537
  Name = 
  15 active torsions:
  status: ('A' for Active; 'I' for Inactive)
    1  A    between atoms: C_2  and  C_34
    2  A    between atoms: C_2  and  C_37
    3  A    between atoms: C_3  and  C_24
    4  A    between atoms: C_3  and  C_37
    5  A    between atoms: C_6  and  C_14
    6  A    between atoms: C_6  and  C_34
    7  A    between atoms: N_12  and  C_30
    8  A    between atoms: N_12  and  C_38
    9  A    between atoms: N_13  and  C_19
   10  A    between atoms: N_13  and  C_21
   11  A    between atoms: C_14  and  C_26
   12  A    between atoms: C_20  and  C_33
   13  A    between atoms: C_21  and  C_37
   14  A    between atoms: O_22  and  C_26
   15  A    between atoms: O_22  and  C_43
                            x       y       z     vdW  Elec       q    Type
                         _______ _______ _______ _____ _____    ______ ____

>  <TORSDO>
F 15

$$$$
=
 OpenBabel11062418463D

 43 48  0  0  1  0  0  0  0  0999 V2000
  192.9620  173.5480  142.5030 C   0  0  0  0  0  3  0  0  0  0  0  0
  190.7210  174.5700  141.9480 C   0  0  0  0  0  2  0  0  0  0  0  0
  192.1860  171.8940  137.7200 C   0  0  0  0  0  3  0  0  0  0  0  0
  193.1890  172.0700  138.5420 N   0  0  0  0  0  0  0  0  0  0  0  0
  190.0940  171.5880  139.1820 C   0  0  0  0  0  2  0  0  0  0  0  0
  189.5680  173.5510  142.1210 C   0  0  1  0  0  3  0  0  0  0  0  0
  190.7370  172.2660  137.9520 C   0  0  1  0  0  3  0  0  0  0  0  0
  189.7870  172.3450  141.4280 O   0  0  0  0  0  0  0  0  0  0  0  0
  193.1760  172.6680  139.8470 C   0  0  0  0  0  0  0  0  0  0  0  0
  194.0630  172.7660  142.1110 C   0  0  0  0  0  0  0  0  0  0  0  0
  189.3180  172.5240  140.1200 C   0  0  0  0  0  2  0  0  0  0  0  0
  194.1520  172.3100  140.7870 C   0  0  0  0  0  3  0  0  0  0  0  0
  192.1510  173.5200  140.2380 C   0  0  0  0  0  3  0  0  0  0  0  0
  192.0110  173.9310  141.5560 C   0  0  0  0  0  0  0  0  0  0  0  0
  189.4220  173.9300  136.8410 O   0  0  0  0  0  1  0  0  0  0  0  0
  190.4700  173.7550  137.7460 C   0  0  0  0  0  2  0  0  0  0  0  0
  195.0570  172.3640  143.0590 N   0  0  0  0  0  2  0  0  0  0  0  0
  196.4720  172.5900  145.1930 C   0  0  1  0  0  0  0  0  0  0  0  0
  196.9090  173.3460  144.0240 N   0  0  0  0  0  2  0  0  0  0  0  0
  194.9990  172.5320  145.4500 C   0  0  2  0  0  3  0  0  0  0  0  0
  196.9050  173.3690  146.2650 O   0  0  0  0  0  1  0  0  0  0  0  0
  194.5630  171.0720  145.3580 C   0  0  0  0  0  1  0  0  0  0  0  0
  195.4710  173.2020  144.1820 C   0  0  1  0  0  0  0  0  0  0  0  0
  189.3980  173.2530  143.5350 N   0  0  0  0  0  2  0  0  0  0  0  0
  189.4690  174.5100  144.2630 C   0  0  0  0  0  2  0  0  0  0  0  0
  190.0390  174.2750  145.6560 C   0  0  2  0  0  3  0  0  0  0  0  0
  189.4370  175.2490  146.6660 C   0  0  0  0  0  2  0  0  0  0  0  0
  188.5530  176.3040  146.0110 C   0  0  0  0  0  2  0  0  0  0  0  0
  187.2600  176.4630  146.7930 C   0  0  0  0  0  2  0  0  0  0  0  0
  186.4210  178.3430  148.0230 O   0  0  0  0  0  1  0  0  0  0  0  0
  186.7710  177.9030  146.7460 C   0  0  2  0  0  3  0  0  0  0  0  0
  185.6040  178.0150  145.8240 C   0  0  0  0  0  0  0  0  0  0  0  0
  184.4600  177.6380  146.2000 O   0  0  0  0  0  0  0  0  0  0  0  0
  185.8070  178.5000  144.5300 O   0  0  0  0  0  0  0  0  0  0  0  0
  186.7070  177.4990  142.4580 C   0  0  0  0  0  2  0  0  0  0  0  0
  186.1330  176.3440  143.2840 C   0  0  0  0  0  2  0  0  0  0  0  0
  184.2670  177.9380  142.6890 N   0  0  0  0  0  1  0  0  0  0  0  0
  185.5310  177.7230  143.3710 C   0  0  0  0  0  0  0  0  0  0  0  0
  191.5620  174.3640  145.6640 C   0  0  0  0  0  2  0  0  0  0  0  0
  193.5350  175.6050  146.5220 C   0  0  0  0  0  2  0  0  0  0  0  0
  192.6320  176.6950  145.9800 C   0  0  2  0  0  3  0  0  0  0  0  0
  192.0340  175.4450  146.6350 C   0  0  1  0  0  3  0  0  0  0  0  0
  192.6640  176.6720  144.4570 C   0  0  0  0  0  1  0  0  0  0  0  0
  2  6  1  0  0  0  0
  3  7  1  0  0  0  0
  3  4  2  0  0  0  0
  4  9  1  0  0  0  0
  5 11  1  0  0  0  0
  6 24  1  1  0  0  0
  7 16  1  1  0  0  0
  7  5  1  0  0  0  0
  8  6  1  0  0  0  0
  9 13  2  0  0  0  0
  9 12  1  0  0  0  0
 10  1  1  0  0  0  0
 10 17  1  0  0  0  0
 11  8  1  0  0  0  0
 12 10  2  0  0  0  0
 13 14  1  0  0  0  0
 14  2  1  0  0  0  0
 14  1  2  0  0  0  0
 15 16  1  0  0  0  0
 18 20  1  0  0  0  0
 18 21  1  1  0  0  0
 19 23  1  0  0  0  0
 19 18  1  0  0  0  0
 20 22  1  6  0  0  0
 23 17  1  6  0  0  0
 23 18  1  0  0  0  0
 23 20  1  0  0  0  0
 24 25  1  0  0  0  0
 26 25  1  6  0  0  0
 26 39  1  0  0  0  0
 26 27  1  0  0  0  0
 28 27  1  0  0  0  0
 28 29  1  0  0  0  0
 31 29  1  0  0  0  0
 31 30  1  1  0  0  0
 32 33  2  0  0  0  0
 32 31  1  0  0  0  0
 34 32  1  0  0  0  0
 35 36  1  0  0  0  0
 35 38  1  0  0  0  0
 36 38  1  0  0  0  0
 37 38  1  0  0  0  0
 38 34  1  0  0  0  0
 40 42  1  0  0  0  0
 41 43  1  6  0  0  0
 41 40  1  0  0  0  0
 41 42  1  0  0  0  0
 42 39  1  6  0  0  0
M  END
>  <MODEL>
3

>  <REMARK>
 VINA RESULT:      -6.2      2.280      8.137
  Name = 
  15 active torsions:
  status: ('A' for Active; 'I' for Inactive)
    1  A    between atoms: C_2  and  C_34
    2  A    between atoms: C_2  and  C_37
    3  A    between atoms: C_3  and  C_24
    4  A    between atoms: C_3  and  C_37
    5  A    between atoms: C_6  and  C_14
    6  A    between atoms: C_6  and  C_34
    7  A    between atoms: N_12  and  C_30
    8  A    between atoms: N_12  and  C_38
    9  A    between atoms: N_13  and  C_19
   10  A    between atoms: N_13  and  C_21
   11  A    between atoms: C_14  and  C_26
   12  A    between atoms: C_20  and  C_33
   13  A    between atoms: C_21  and  C_37
   14  A    between atoms: O_22  and  C_26
   15  A    between atoms: O_22  and  C_43
                            x       y       z     vdW  Elec       q    Type
                         _______ _______ _______ _____ _____    ______ ____

>  <TORSDO>
F 15

$$$$
=
 OpenBabel11062418463D

 43 48  0  0  1  0  0  0  0  0999 V2000
  189.2190  177.3950  143.8470 C   0  0  0  0  0  3  0  0  0  0  0  0
  191.4290  176.7130  142.8310 C   0  0  0  0  0  2  0  0  0  0  0  0
  191.8720  175.8900  147.9600 C   0  0  0  0  0  3  0  0  0  0  0  0
  190.8350  176.6410  147.6880 N   0  0  0  0  0  0  0  0  0  0  0  0
  192.0770  174.2070  146.0300 C   0  0  0  0  0  2  0  0  0  0  0  0
  191.5200  175.1800  142.6370 C   0  0  1  0  0  3  0  0  0  0  0  0
  192.7880  175.2030  146.9720 C   0  0  1  0  0  3  0  0  0  0  0  0
  191.2300  174.4550  143.8090 O   0  0  0  0  0  0  0  0  0  0  0  0
  190.3190  177.0140  146.4010 C   0  0  0  0  0  0  0  0  0  0  0  0
  188.4130  177.5540  144.9880 C   0  0  0  0  0  0  0  0  0  0  0  0
  192.4210  174.3480  144.5400 C   0  0  0  0  0  2  0  0  0  0  0  0
  188.9640  177.3390  146.2610 C   0  0  0  0  0  3  0  0  0  0  0  0
  191.1150  176.9570  145.2630 C   0  0  0  0  0  3  0  0  0  0  0  0
  190.5770  177.1050  143.9930 C   0  0  0  0  0  0  0  0  0  0  0  0
  195.0760  175.5680  146.3660 O   0  0  0  0  0  1  0  0  0  0  0  0
  193.8090  176.1540  146.3530 C   0  0  0  0  0  2  0  0  0  0  0  0
  187.0200  177.8590  144.8700 N   0  0  0  0  0  2  0  0  0  0  0  0
  184.6260  178.1200  145.7690 C   0  0  1  0  0  0  0  0  0  0  0  0
  185.3270  176.8840  146.0990 N   0  0  0  0  0  2  0  0  0  0  0  0
  185.4250  179.3840  145.8080 C   0  0  2  0  0  3  0  0  0  0  0  0
  183.7670  178.3070  146.8510 O   0  0  0  0  0  1  0  0  0  0  0  0
  185.4400  179.9760  144.4000 C   0  0  0  0  0  1  0  0  0  0  0  0
  186.1520  178.0780  146.0250 C   0  0  1  0  0  0  0  0  0  0  0  0
  190.5940  174.7710  141.5930 N   0  0  0  0  0  2  0  0  0  0  0  0
  189.4300  174.1870  142.2400 C   0  0  0  0  0  2  0  0  0  0  0  0
  188.2390  174.2060  141.2890 C   0  0  2  0  0  3  0  0  0  0  0  0
  188.6990  174.3070  139.8370 C   0  0  0  0  0  2  0  0  0  0  0  0
  188.2880  173.0970  139.0050 C   0  0  0  0  0  2  0  0  0  0  0  0
  189.1740  172.9810  137.7760 C   0  0  0  0  0  2  0  0  0  0  0  0
  191.0000  174.2810  136.9210 O   0  0  0  0  0  1  0  0  0  0  0  0
  190.5490  173.5780  138.0390 C   0  0  2  0  0  3  0  0  0  0  0  0
  191.5140  172.4970  138.3930 C   0  0  0  0  0  0  0  0  0  0  0  0
  192.1980  171.9370  137.4920 O   0  0  0  0  0  0  0  0  0  0  0  0
  191.6140  172.0880  139.7240 O   0  0  0  0  0  0  0  0  0  0  0  0
  191.9120  170.1190  141.1880 C   0  0  0  0  0  2  0  0  0  0  0  0
  190.6060  170.7910  141.6240 C   0  0  0  0  0  2  0  0  0  0  0  0
  190.3740  170.0140  139.2320 N   0  0  0  0  0  1  0  0  0  0  0  0
  191.0640  170.8610  140.1900 C   0  0  0  0  0  0  0  0  0  0  0  0
  187.2680  175.3330  141.6250 C   0  0  0  0  0  2  0  0  0  0  0  0
  186.6850  176.9560  139.8380 C   0  0  0  0  0  2  0  0  0  0  0  0
  186.7070  177.8000  141.0970 C   0  0  2  0  0  3  0  0  0  0  0  0
  187.6820  176.6280  140.9290 C   0  0  1  0  0  3  0  0  0  0  0  0
  185.4720  177.4960  141.9350 C   0  0  0  0  0  1  0  0  0  0  0  0
  1 14  2  0  0  0  0
  1 10  1  0  0  0  0
  2 14  1  0  0  0  0
  4  3  2  0  0  0  0
  5  7  1  0  0  0  0
  6 24  1  6  0  0  0
  6  2  1  0  0  0  0
  6  8  1  0  0  0  0
  7 16  1  6  0  0  0
  7  3  1  0  0  0  0
  8 11  1  0  0  0  0
  9  4  1  0  0  0  0
 10 12  2  0  0  0  0
 11  5  1  0  0  0  0
 12  9  1  0  0  0  0
 13  9  2  0  0  0  0
 14 13  1  0  0  0  0
 16 15  1  0  0  0  0
 17 10  1  0  0  0  0
 18 20  1  0  0  0  0
 18 23  1  0  0  0  0
 18 19  1  0  0  0  0
 18 21  1  1  0  0  0
 20 22  1  6  0  0  0
 20 23  1  0  0  0  0
 23 17  1  6  0  0  0
 23 19  1  0  0  0  0
 24 25  1  0  0  0  0
 26 27  1  6  0  0  0
 26 39  1  0  0  0  0
 26 25  1  0  0  0  0
 28 27  1  0  0  0  0
 29 31  1  0  0  0  0
 29 28  1  0  0  0  0
 31 30  1  6  0  0  0
 31 32  1  0  0  0  0
 32 34  1  0  0  0  0
 33 32  2  0  0  0  0
 34 38  1  0  0  0  0
 35 36  1  0  0  0  0
 37 38  1  0  0  0  0
 38 35  1  0  0  0  0
 38 36  1  0  0  0  0
 40 42  1  0  0  0  0
 40 41  1  0  0  0  0
 41 43  1  1  0  0  0
 42 41  1  0  0  0  0
 42 39  1  1  0  0  0
M  END
>  <MODEL>
4

>  <REMARK>
 VINA RESULT:      -6.2      2.457      7.339
  Name = 
  15 active torsions:
  status: ('A' for Active; 'I' for Inactive)
    1  A    between atoms: C_2  and  C_34
    2  A    between atoms: C_2  and  C_37
    3  A    between atoms: C_3  and  C_24
    4  A    between atoms: C_3  and  C_37
    5  A    between atoms: C_6  and  C_14
    6  A    between atoms: C_6  and  C_34
    7  A    between atoms: N_12  and  C_30
    8  A    between atoms: N_12  and  C_38
    9  A    between atoms: N_13  and  C_19
   10  A    between atoms: N_13  and  C_21
   11  A    between atoms: C_14  and  C_26
   12  A    between atoms: C_20  and  C_33
   13  A    between atoms: C_21  and  C_37
   14  A    between atoms: O_22  and  C_26
   15  A    between atoms: O_22  and  C_43
                            x       y       z     vdW  Elec       q    Type
                         _______ _______ _______ _____ _____    ______ ____

>  <TORSDO>
F 15

$$$$
=
 OpenBabel11062418463D

 43 48  0  0  1  0  0  0  0  0999 V2000
  191.3940  172.8850  142.6750 C   0  0  0  0  0  3  0  0  0  0  0  0
  190.2640  174.8490  141.5610 C   0  0  0  0  0  2  0  0  0  0  0  0
  191.1870  171.3700  137.7890 C   0  0  0  0  0  3  0  0  0  0  0  0
  191.8710  171.0910  138.8700 N   0  0  0  0  0  0  0  0  0  0  0  0
  188.9420  172.3400  138.5780 C   0  0  0  0  0  2  0  0  0  0  0  0
  188.7520  174.5930  141.3460 C   0  0  1  0  0  3  0  0  0  0  0  0
  190.1470  172.4560  137.6190 C   0  0  1  0  0  3  0  0  0  0  0  0
  188.4850  173.3800  140.6810 O   0  0  0  0  0  0  0  0  0  0  0  0
  191.8220  171.7450  140.1470 C   0  0  0  0  0  0  0  0  0  0  0  0
  191.9810  171.6120  142.5720 C   0  0  0  0  0  0  0  0  0  0  0  0
  188.5510  173.6350  139.3040 C   0  0  0  0  0  2  0  0  0  0  0  0
  192.1710  171.0380  141.3050 C   0  0  0  0  0  3  0  0  0  0  0  0
  191.3320  173.0390  140.2750 C   0  0  0  0  0  3  0  0  0  0  0  0
  191.0790  173.6000  141.5180 C   0  0  0  0  0  0  0  0  0  0  0  0
  191.9210  173.7390  136.6490 O   0  0  0  0  0  1  0  0  0  0  0  0
  190.7640  173.8390  137.4240 C   0  0  0  0  0  2  0  0  0  0  0  0
  192.3220  170.8590  143.7400 N   0  0  0  0  0  2  0  0  0  0  0  0
  193.8610  169.3950  145.1880 C   0  0  1  0  0  0  0  0  0  0  0  0
  192.9240  168.7050  144.3070 N   0  0  0  0  0  2  0  0  0  0  0  0
  194.5310  170.6150  144.6400 C   0  0  2  0  0  3  0  0  0  0  0  0
  194.9350  168.5110  145.2770 O   0  0  0  0  0  1  0  0  0  0  0  0
  194.1120  171.8070  145.5000 C   0  0  0  0  0  1  0  0  0  0  0  0
  193.4660  169.9530  143.7980 C   0  0  1  0  0  0  0  0  0  0  0  0
  188.0780  174.5760  142.6350 N   0  0  0  0  0  2  0  0  0  0  0  0
  187.0680  175.6230  142.6190 C   0  0  0  0  0  2  0  0  0  0  0  0
  187.3890  176.6740  143.6750 C   0  0  2  0  0  3  0  0  0  0  0  0
  188.5550  176.2300  144.5540 C   0  0  0  0  0  2  0  0  0  0  0  0
  189.1110  177.3630  145.4090 C   0  0  0  0  0  2  0  0  0  0  0  0
  189.2760  176.9030  146.8470 C   0  0  0  0  0  2  0  0  0  0  0  0
  189.1660  174.6220  147.5840 O   0  0  0  0  0  1  0  0  0  0  0  0
  189.9640  175.5460  146.9070 C   0  0  2  0  0  3  0  0  0  0  0  0
  191.2880  175.6770  147.5810 C   0  0  0  0  0  0  0  0  0  0  0  0
  191.4070  176.3940  148.6130 O   0  0  0  0  0  0  0  0  0  0  0  0
  192.3950  175.0320  147.0280 O   0  0  0  0  0  0  0  0  0  0  0  0
  194.0760  176.7790  146.5540 C   0  0  0  0  0  2  0  0  0  0  0  0
  194.7170  175.4440  146.1640 C   0  0  0  0  0  2  0  0  0  0  0  0
  192.6850  175.8380  144.7170 N   0  0  0  0  0  1  0  0  0  0  0  0
  193.2270  175.6440  146.0500 C   0  0  0  0  0  0  0  0  0  0  0  0
  186.1680  177.0050  144.5280 C   0  0  0  0  0  2  0  0  0  0  0  0
  184.4580  178.7640  144.9150 C   0  0  0  0  0  2  0  0  0  0  0  0
  185.5640  179.1170  145.8890 C   0  0  2  0  0  3  0  0  0  0  0  0
  185.8970  178.5080  144.5210 C   0  0  1  0  0  3  0  0  0  0  0  0
  185.5560  178.1300  147.0490 C   0  0  0  0  0  1  0  0  0  0  0  0
  3  4  2  0  0  0  0
  4  9  1  0  0  0  0
  5 11  1  0  0  0  0
  6  2  1  0  0  0  0
  6 24  1  1  0  0  0
  7 16  1  1  0  0  0
  7  3  1  0  0  0  0
  7  5  1  0  0  0  0
  8  6  1  0  0  0  0
  9 13  2  0  0  0  0
  9 12  1  0  0  0  0
 10  1  1  0  0  0  0
 10 17  1  0  0  0  0
 11  8  1  0  0  0  0
 12 10  2  0  0  0  0
 13 14  1  0  0  0  0
 14  2  1  0  0  0  0
 14  1  2  0  0  0  0
 15 16  1  0  0  0  0
 18 21  1  6  0  0  0
 19 18  1  0  0  0  0
 20 18  1  0  0  0  0
 20 22  1  1  0  0  0
 23 17  1  1  0  0  0
 23 19  1  0  0  0  0
 23 20  1  0  0  0  0
 23 18  1  0  0  0  0
 25 24  1  0  0  0  0
 26 25  1  6  0  0  0
 26 39  1  0  0  0  0
 26 27  1  0  0  0  0
 27 28  1  0  0  0  0
 28 29  1  0  0  0  0
 29 31  1  0  0  0  0
 31 32  1  0  0  0  0
 31 30  1  1  0  0  0
 32 33  2  0  0  0  0
 34 32  1  0  0  0  0
 36 35  1  0  0  0  0
 37 38  1  0  0  0  0
 38 36  1  0  0  0  0
 38 35  1  0  0  0  0
 38 34  1  0  0  0  0
 40 41  1  0  0  0  0
 41 43  1  1  0  0  0
 42 39  1  1  0  0  0
 42 40  1  0  0  0  0
 42 41  1  0  0  0  0
M  END
>  <MODEL>
5

>  <REMARK>
 VINA RESULT:      -6.1      2.781      7.414
  Name = 
  15 active torsions:
  status: ('A' for Active; 'I' for Inactive)
    1  A    between atoms: C_2  and  C_34
    2  A    between atoms: C_2  and  C_37
    3  A    between atoms: C_3  and  C_24
    4  A    between atoms: C_3  and  C_37
    5  A    between atoms: C_6  and  C_14
    6  A    between atoms: C_6  and  C_34
    7  A    between atoms: N_12  and  C_30
    8  A    between atoms: N_12  and  C_38
    9  A    between atoms: N_13  and  C_19
   10  A    between atoms: N_13  and  C_21
   11  A    between atoms: C_14  and  C_26
   12  A    between atoms: C_20  and  C_33
   13  A    between atoms: C_21  and  C_37
   14  A    between atoms: O_22  and  C_26
   15  A    between atoms: O_22  and  C_43
                            x       y       z     vdW  Elec       q    Type
                         _______ _______ _______ _____ _____    ______ ____

>  <TORSDO>
F 15

$$$$
=
 OpenBabel11062418463D

 43 48  0  0  1  0  0  0  0  0999 V2000
  192.2480  172.9010  143.1740 C   0  0  0  0  0  3  0  0  0  0  0  0
  192.8880  174.8120  144.6950 C   0  0  0  0  0  2  0  0  0  0  0  0
  197.3610  172.8190  142.9050 C   0  0  0  0  0  3  0  0  0  0  0  0
  196.3580  172.0060  142.6890 N   0  0  0  0  0  0  0  0  0  0  0  0
  196.4340  175.2010  142.6440 C   0  0  0  0  0  2  0  0  0  0  0  0
  193.2090  176.0980  143.8950 C   0  0  1  0  0  3  0  0  0  0  0  0
  197.2950  174.2210  143.4700 C   0  0  1  0  0  3  0  0  0  0  0  0
  194.1580  175.8920  142.8740 O   0  0  0  0  0  0  0  0  0  0  0  0
  194.9620  172.2260  142.9430 C   0  0  0  0  0  0  0  0  0  0  0  0
  192.6390  171.8530  142.3220 C   0  0  0  0  0  0  0  0  0  0  0  0
  195.4280  176.0350  143.4500 C   0  0  0  0  0  2  0  0  0  0  0  0
  194.0010  171.5360  142.1940 C   0  0  0  0  0  3  0  0  0  0  0  0
  194.5400  173.1920  143.8480 C   0  0  0  0  0  3  0  0  0  0  0  0
  193.2060  173.5620  143.9440 C   0  0  0  0  0  0  0  0  0  0  0  0
  197.5870  173.0400  145.5320 O   0  0  0  0  0  1  0  0  0  0  0  0
  197.1270  174.2400  144.9880 C   0  0  0  0  0  2  0  0  0  0  0  0
  191.6790  171.1520  141.5260 N   0  0  0  0  0  2  0  0  0  0  0  0
  190.5120  170.4600  139.3420 C   0  0  1  0  0  0  0  0  0  0  0  0
  190.2510  171.8080  139.8350 N   0  0  0  0  0  2  0  0  0  0  0  0
  191.9150  169.9550  139.4610 C   0  0  2  0  0  3  0  0  0  0  0  0
  190.3850  170.5890  137.9600 O   0  0  0  0  0  1  0  0  0  0  0  0
  191.8990  168.7350  140.3810 C   0  0  0  0  0  1  0  0  0  0  0  0
  191.5900  171.2960  140.0740 C   0  0  1  0  0  0  0  0  0  0  0  0
  191.9860  176.6120  143.2980 N   0  0  0  0  0  2  0  0  0  0  0  0
  191.3730  177.5160  144.2570 C   0  0  0  0  0  2  0  0  0  0  0  0
  189.9270  177.1080  144.5100 C   0  0  2  0  0  3  0  0  0  0  0  0
  188.9590  178.0280  143.7690 C   0  0  0  0  0  2  0  0  0  0  0  0
  188.6180  177.5210  142.3730 C   0  0  0  0  0  2  0  0  0  0  0  0
  187.4840  178.3390  141.7800 C   0  0  0  0  0  2  0  0  0  0  0  0
  185.3300  178.1550  140.7400 O   0  0  0  0  0  1  0  0  0  0  0  0
  186.2690  177.4640  141.5080 C   0  0  2  0  0  3  0  0  0  0  0  0
  185.6590  177.0250  142.7960 C   0  0  0  0  0  0  0  0  0  0  0  0
  185.9560  175.9010  143.2880 O   0  0  0  0  0  0  0  0  0  0  0  0
  184.7260  177.8540  143.4210 O   0  0  0  0  0  0  0  0  0  0  0  0
  184.2490  178.6130  145.7240 C   0  0  0  0  0  2  0  0  0  0  0  0
  185.7120  178.1580  145.7110 C   0  0  0  0  0  2  0  0  0  0  0  0
  185.4410  180.1060  144.1270 N   0  0  0  0  0  1  0  0  0  0  0  0
  185.0790  178.7420  144.4740 C   0  0  0  0  0  0  0  0  0  0  0  0
  189.6030  177.0750  146.0010 C   0  0  0  0  0  2  0  0  0  0  0  0
  189.5160  174.5970  145.8510 C   0  0  0  0  0  2  0  0  0  0  0  0
  189.4600  174.8700  147.3410 C   0  0  2  0  0  3  0  0  0  0  0  0
  188.7910  175.8290  146.3490 C   0  0  1  0  0  3  0  0  0  0  0  0
  190.8350  175.3060  147.8310 C   0  0  0  0  0  1  0  0  0  0  0  0
  1 14  1  0  0  0  0
  3  7  1  0  0  0  0
  4  3  2  0  0  0  0
  4  9  1  0  0  0  0
  5 11  1  0  0  0  0
  5  7  1  0  0  0  0
  6 24  1  6  0  0  0
  6  2  1  0  0  0  0
  7 16  1  1  0  0  0
  8 11  1  0  0  0  0
  8  6  1  0  0  0  0
  9 13  1  0  0  0  0
 10  1  2  0  0  0  0
 12 10  1  0  0  0  0
 12  9  2  0  0  0  0
 13 14  2  0  0  0  0
 14  2  1  0  0  0  0
 16 15  1  0  0  0  0
 17 10  1  0  0  0  0
 18 21  1  6  0  0  0
 18 20  1  0  0  0  0
 18 19  1  0  0  0  0
 18 23  1  0  0  0  0
 19 23  1  0  0  0  0
 20 23  1  0  0  0  0
 20 22  1  1  0  0  0
 23 17  1  1  0  0  0
 24 25  1  0  0  0  0
 25 26  1  0  0  0  0
 26 27  1  6  0  0  0
 26 39  1  0  0  0  0
 28 27  1  0  0  0  0
 29 28  1  0  0  0  0
 31 30  1  6  0  0  0
 31 29  1  0  0  0  0
 31 32  1  0  0  0  0
 32 33  2  0  0  0  0
 32 34  1  0  0  0  0
 34 38  1  0  0  0  0
 36 35  1  0  0  0  0
 37 38  1  0  0  0  0
 38 36  1  0  0  0  0
 38 35  1  0  0  0  0
 40 42  1  0  0  0  0
 40 41  1  0  0  0  0
 41 43  1  6  0  0  0
 42 39  1  6  0  0  0
 42 41  1  0  0  0  0
M  END
>  <MODEL>
6

>  <REMARK>
 VINA RESULT:      -6.1      2.281      8.334
  Name = 
  15 active torsions:
  status: ('A' for Active; 'I' for Inactive)
    1  A    between atoms: C_2  and  C_34
    2  A    between atoms: C_2  and  C_37
    3  A    between atoms: C_3  and  C_24
    4  A    between atoms: C_3  and  C_37
    5  A    between atoms: C_6  and  C_14
    6  A    between atoms: C_6  and  C_34
    7  A    between atoms: N_12  and  C_30
    8  A    between atoms: N_12  and  C_38
    9  A    between atoms: N_13  and  C_19
   10  A    between atoms: N_13  and  C_21
   11  A    between atoms: C_14  and  C_26
   12  A    between atoms: C_20  and  C_33
   13  A    between atoms: C_21  and  C_37
   14  A    between atoms: O_22  and  C_26
   15  A    between atoms: O_22  and  C_43
                            x       y       z     vdW  Elec       q    Type
                         _______ _______ _______ _____ _____    ______ ____

>  <TORSDO>
F 15

$$$$
=
 OpenBabel11062418463D

 43 48  0  0  1  0  0  0  0  0999 V2000
  189.5770  171.9590  142.0730 C   0  0  0  0  0  3  0  0  0  0  0  0
  190.0420  171.8200  144.5510 C   0  0  0  0  0  2  0  0  0  0  0  0
  194.6230  171.0950  142.1690 C   0  0  0  0  0  3  0  0  0  0  0  0
  193.6260  170.9690  141.3300 N   0  0  0  0  0  0  0  0  0  0  0  0
  193.9410  172.9270  143.8370 C   0  0  0  0  0  2  0  0  0  0  0  0
  190.6070  173.1520  145.1030 C   0  0  1  0  0  3  0  0  0  0  0  0
  194.5500  171.5250  143.6180 C   0  0  1  0  0  3  0  0  0  0  0  0
  191.7200  173.6230  144.3800 O   0  0  0  0  0  0  0  0  0  0  0  0
  192.2270  171.1850  141.5710 C   0  0  0  0  0  0  0  0  0  0  0  0
  190.0510  171.9010  140.7500 C   0  0  0  0  0  0  0  0  0  0  0  0
  192.8590  173.0140  144.9230 C   0  0  0  0  0  2  0  0  0  0  0  0
  191.3840  171.5350  140.5080 C   0  0  0  0  0  3  0  0  0  0  0  0
  191.7060  171.1590  142.8580 C   0  0  0  0  0  3  0  0  0  0  0  0
  190.4100  171.5760  143.1250 C   0  0  0  0  0  0  0  0  0  0  0  0
  194.5910  169.1790  144.0970 O   0  0  0  0  0  1  0  0  0  0  0  0
  194.0890  170.4020  144.5440 C   0  0  0  0  0  2  0  0  0  0  0  0
  189.2170  172.2790  139.6510 N   0  0  0  0  0  2  0  0  0  0  0  0
  188.5700  173.6740  137.5900 C   0  0  1  0  0  0  0  0  0  0  0  0
  188.2120  174.2150  138.8970 N   0  0  0  0  0  2  0  0  0  0  0  0
  189.9070  173.0120  137.4740 C   0  0  2  0  0  3  0  0  0  0  0  0
  188.7590  174.8110  136.8070 O   0  0  0  0  0  1  0  0  0  0  0  0
  189.6760  171.5470  137.1110 C   0  0  0  0  0  1  0  0  0  0  0  0
  189.4590  173.4710  138.8410 C   0  0  1  0  0  0  0  0  0  0  0  0
  189.5650  174.1670  145.0690 N   0  0  0  0  0  2  0  0  0  0  0  0
  189.5030  174.7800  146.3870 C   0  0  0  0  0  2  0  0  0  0  0  0
  189.2850  176.2820  146.2540 C   0  0  2  0  0  3  0  0  0  0  0  0
  187.9590  176.5840  145.5600 C   0  0  0  0  0  2  0  0  0  0  0  0
  186.8740  177.0300  146.5350 C   0  0  0  0  0  2  0  0  0  0  0  0
  185.5410  177.1530  145.8150 C   0  0  0  0  0  2  0  0  0  0  0  0
  183.6820  178.6680  145.8070 O   0  0  0  0  0  1  0  0  0  0  0  0
  185.0760  178.6010  145.7780 C   0  0  2  0  0  3  0  0  0  0  0  0
  185.6000  179.2720  144.5540 C   0  0  0  0  0  0  0  0  0  0  0  0
  185.2300  180.4440  144.2650 O   0  0  0  0  0  0  0  0  0  0  0  0
  186.4680  178.5700  143.7160 O   0  0  0  0  0  0  0  0  0  0  0  0
  186.9670  177.8700  141.3990 C   0  0  0  0  0  2  0  0  0  0  0  0
  186.7220  176.5860  142.1980 C   0  0  0  0  0  2  0  0  0  0  0  0
  184.6140  177.9750  142.2040 N   0  0  0  0  0  1  0  0  0  0  0  0
  186.0160  177.8650  142.5660 C   0  0  0  0  0  0  0  0  0  0  0  0
  190.4410  176.9570  145.5220 C   0  0  0  0  0  2  0  0  0  0  0  0
  191.0770  178.6690  143.8390 C   0  0  0  0  0  2  0  0  0  0  0  0
  190.3670  177.6070  143.0220 C   0  0  2  0  0  3  0  0  0  0  0  0
  189.9170  177.9160  144.4550 C   0  0  1  0  0  3  0  0  0  0  0  0
  191.2690  176.3880  142.8780 C   0  0  0  0  0  1  0  0  0  0  0  0
  1 14  1  0  0  0  0
  2  6  1  0  0  0  0
  3  7  1  0  0  0  0
  4  9  1  0  0  0  0
  4  3  2  0  0  0  0
  5 11  1  0  0  0  0
  6 24  1  6  0  0  0
  7  5  1  0  0  0  0
  7 16  1  1  0  0  0
  8 11  1  0  0  0  0
  8  6  1  0  0  0  0
  9 13  1  0  0  0  0
 10  1  2  0  0  0  0
 12 10  1  0  0  0  0
 12  9  2  0  0  0  0
 13 14  2  0  0  0  0
 14  2  1  0  0  0  0
 15 16  1  0  0  0  0
 17 10  1  0  0  0  0
 18 21  1  6  0  0  0
 18 23  1  0  0  0  0
 18 19  1  0  0  0  0
 20 22  1  1  0  0  0
 20 18  1  0  0  0  0
 20 23  1  0  0  0  0
 23 19  1  0  0  0  0
 23 17  1  1  0  0  0
 24 25  1  0  0  0  0
 26 39  1  6  0  0  0
 26 25  1  0  0  0  0
 27 26  1  0  0  0  0
 27 28  1  0  0  0  0
 29 28  1  0  0  0  0
 31 30  1  6  0  0  0
 31 29  1  0  0  0  0
 32 31  1  0  0  0  0
 33 32  2  0  0  0  0
 34 32  1  0  0  0  0
 35 36  1  0  0  0  0
 35 38  1  0  0  0  0
 36 38  1  0  0  0  0
 37 38  1  0  0  0  0
 38 34  1  0  0  0  0
 40 42  1  0  0  0  0
 41 43  1  1  0  0  0
 41 40  1  0  0  0  0
 41 42  1  0  0  0  0
 42 39  1  1  0  0  0
M  END
>  <MODEL>
7

>  <REMARK>
 VINA RESULT:      -6.0      2.653      7.889
  Name = 
  15 active torsions:
  status: ('A' for Active; 'I' for Inactive)
    1  A    between atoms: C_2  and  C_34
    2  A    between atoms: C_2  and  C_37
    3  A    between atoms: C_3  and  C_24
    4  A    between atoms: C_3  and  C_37
    5  A    between atoms: C_6  and  C_14
    6  A    between atoms: C_6  and  C_34
    7  A    between atoms: N_12  and  C_30
    8  A    between atoms: N_12  and  C_38
    9  A    between atoms: N_13  and  C_19
   10  A    between atoms: N_13  and  C_21
   11  A    between atoms: C_14  and  C_26
   12  A    between atoms: C_20  and  C_33
   13  A    between atoms: C_21  and  C_37
   14  A    between atoms: O_22  and  C_26
   15  A    between atoms: O_22  and  C_43
                            x       y       z     vdW  Elec       q    Type
                         _______ _______ _______ _____ _____    ______ ____

>  <TORSDO>
F 15

$$$$
=
 OpenBabel11062418463D

 43 48  0  0  1  0  0  0  0  0999 V2000
  192.4400  174.6510  141.6330 C   0  0  0  0  0  3  0  0  0  0  0  0
  190.1720  173.6790  142.1680 C   0  0  0  0  0  2  0  0  0  0  0  0
  191.8440  171.2020  137.8960 C   0  0  0  0  0  3  0  0  0  0  0  0
  192.5500  172.2800  138.1260 N   0  0  0  0  0  0  0  0  0  0  0  0
  191.2330  170.2280  140.1930 C   0  0  0  0  0  2  0  0  0  0  0  0
  190.2900  172.3320  142.9230 C   0  0  1  0  0  3  0  0  0  0  0  0
  190.7620  170.6120  138.7730 C   0  0  1  0  0  3  0  0  0  0  0  0
  191.1240  171.4040  142.2710 O   0  0  0  0  0  0  0  0  0  0  0  0
  192.4680  173.1750  139.2470 C   0  0  0  0  0  0  0  0  0  0  0  0
  193.5740  174.6850  140.8020 C   0  0  0  0  0  0  0  0  0  0  0  0
  190.3350  170.7140  141.3400 C   0  0  0  0  0  2  0  0  0  0  0  0
  193.5890  173.9260  139.6210 C   0  0  0  0  0  3  0  0  0  0  0  0
  191.3270  173.2350  140.0370 C   0  0  0  0  0  3  0  0  0  0  0  0
  191.3130  173.9290  141.2390 C   0  0  0  0  0  0  0  0  0  0  0  0
  189.3190  171.9140  137.3750 O   0  0  0  0  0  1  0  0  0  0  0  0
  189.4310  171.3480  138.6460 C   0  0  0  0  0  2  0  0  0  0  0  0
  194.7410  175.4220  141.1760 N   0  0  0  0  0  2  0  0  0  0  0  0
  196.9420  175.7370  142.4680 C   0  0  1  0  0  0  0  0  0  0  0  0
  195.7610  176.4130  142.9940 N   0  0  0  0  0  2  0  0  0  0  0  0
  196.7480  174.3520  141.9360 C   0  0  2  0  0  3  0  0  0  0  0  0
  197.7080  175.4870  143.6060 O   0  0  0  0  0  1  0  0  0  0  0  0
  197.0980  174.3660  140.4500 C   0  0  0  0  0  1  0  0  0  0  0  0
  195.5240  175.1210  142.3730 C   0  0  1  0  0  0  0  0  0  0  0  0
  190.8130  172.5730  144.2580 N   0  0  0  0  0  2  0  0  0  0  0  0
  189.7490  173.1700  145.0490 C   0  0  0  0  0  2  0  0  0  0  0  0
  190.2570  174.4260  145.7470 C   0  0  2  0  0  3  0  0  0  0  0  0
  189.4830  175.6590  145.2880 C   0  0  0  0  0  2  0  0  0  0  0  0
  188.3770  176.0540  146.2590 C   0  0  0  0  0  2  0  0  0  0  0  0
  187.5920  177.2330  145.7090 C   0  0  0  0  0  2  0  0  0  0  0  0
  186.3340  176.6730  147.6740 O   0  0  0  0  0  1  0  0  0  0  0  0
  186.4490  177.6070  146.6430 C   0  0  2  0  0  3  0  0  0  0  0  0
  185.1730  177.6900  145.8760 C   0  0  0  0  0  0  0  0  0  0  0  0
  184.0940  177.9690  146.4680 O   0  0  0  0  0  0  0  0  0  0  0  0
  185.1850  177.4110  144.5080 O   0  0  0  0  0  0  0  0  0  0  0  0
  185.4400  179.7890  143.8870 C   0  0  0  0  0  2  0  0  0  0  0  0
  186.1510  178.9770  142.8000 C   0  0  0  0  0  2  0  0  0  0  0  0
  183.6970  178.3820  142.7990 N   0  0  0  0  0  1  0  0  0  0  0  0
  184.9570  178.4110  143.5230 C   0  0  0  0  0  0  0  0  0  0  0  0
  191.7550  174.6210  145.5340 C   0  0  0  0  0  2  0  0  0  0  0  0
  192.5750  176.3850  147.0780 C   0  0  0  0  0  2  0  0  0  0  0  0
  193.6070  176.3700  145.9690 C   0  0  2  0  0  3  0  0  0  0  0  0
  192.1300  176.0960  145.6610 C   0  0  1  0  0  3  0  0  0  0  0  0
  194.4790  175.1280  146.1010 C   0  0  0  0  0  1  0  0  0  0  0  0
  2  6  1  0  0  0  0
  3  4  2  0  0  0  0
  3  7  1  0  0  0  0
  4  9  1  0  0  0  0
  5 11  1  0  0  0  0
  6 24  1  1  0  0  0
  7 16  1  1  0  0  0
  7  5  1  0  0  0  0
  8  6  1  0  0  0  0
  9 12  2  0  0  0  0
  9 13  1  0  0  0  0
 10 17  1  0  0  0  0
 10  1  2  0  0  0  0
 11  8  1  0  0  0  0
 12 10  1  0  0  0  0
 13 14  2  0  0  0  0
 14  1  1  0  0  0  0
 14  2  1  0  0  0  0
 15 16  1  0  0  0  0
 18 19  1  0  0  0  0
 18 21  1  1  0  0  0
 20 22  1  6  0  0  0
 20 23  1  0  0  0  0
 20 18  1  0  0  0  0
 23 17  1  6  0  0  0
 23 18  1  0  0  0  0
 23 19  1  0  0  0  0
 24 25  1  0  0  0  0
 26 25  1  6  0  0  0
 27 26  1  0  0  0  0
 27 28  1  0  0  0  0
 29 28  1  0  0  0  0
 29 31  1  0  0  0  0
 31 30  1  1  0  0  0
 32 33  2  0  0  0  0
 32 31  1  0  0  0  0
 34 32  1  0  0  0  0
 36 38  1  0  0  0  0
 36 35  1  0  0  0  0
 37 38  1  0  0  0  0
 38 35  1  0  0  0  0
 38 34  1  0  0  0  0
 39 26  1  0  0  0  0
 41 43  1  1  0  0  0
 41 40  1  0  0  0  0
 42 39  1  1  0  0  0
 42 41  1  0  0  0  0
 42 40  1  0  0  0  0
M  END
>  <MODEL>
8

>  <REMARK>
 VINA RESULT:      -6.0      2.108      8.254
  Name = 
  15 active torsions:
  status: ('A' for Active; 'I' for Inactive)
    1  A    between atoms: C_2  and  C_34
    2  A    between atoms: C_2  and  C_37
    3  A    between atoms: C_3  and  C_24
    4  A    between atoms: C_3  and  C_37
    5  A    between atoms: C_6  and  C_14
    6  A    between atoms: C_6  and  C_34
    7  A    between atoms: N_12  and  C_30
    8  A    between atoms: N_12  and  C_38
    9  A    between atoms: N_13  and  C_19
   10  A    between atoms: N_13  and  C_21
   11  A    between atoms: C_14  and  C_26
   12  A    between atoms: C_20  and  C_33
   13  A    between atoms: C_21  and  C_37
   14  A    between atoms: O_22  and  C_26
   15  A    between atoms: O_22  and  C_43
                            x       y       z     vdW  Elec       q    Type
                         _______ _______ _______ _____ _____    ______ ____

>  <TORSDO>
F 15

$$$$
=
 OpenBabel11062418463D

 43 48  0  0  1  0  0  0  0  0999 V2000
  188.7630  176.7650  142.3220 C   0  0  0  0  0  3  0  0  0  0  0  0
  190.5860  175.0170  142.3300 C   0  0  0  0  0  2  0  0  0  0  0  0
  190.0260  176.5600  147.2790 C   0  0  0  0  0  3  0  0  0  0  0  0
  189.4420  177.3910  146.4540 N   0  0  0  0  0  0  0  0  0  0  0  0
  189.7350  174.2120  146.2750 C   0  0  0  0  0  2  0  0  0  0  0  0
  190.0480  173.6320  142.7630 C   0  0  1  0  0  3  0  0  0  0  0  0
  190.6810  175.2390  146.9370 C   0  0  1  0  0  3  0  0  0  0  0  0
  189.3420  173.6680  143.9820 O   0  0  0  0  0  0  0  0  0  0  0  0
  189.2880  177.2710  145.0310 C   0  0  0  0  0  0  0  0  0  0  0  0
  187.9680  177.6840  143.0290 C   0  0  0  0  0  0  0  0  0  0  0  0
  190.2810  173.5300  145.0130 C   0  0  0  0  0  2  0  0  0  0  0  0
  188.2220  177.9160  144.3900 C   0  0  0  0  0  3  0  0  0  0  0  0
  190.1160  176.4420  144.2850 C   0  0  0  0  0  3  0  0  0  0  0  0
  189.8450  176.1530  142.9550 C   0  0  0  0  0  0  0  0  0  0  0  0
  192.7460  176.4500  146.9730 O   0  0  0  0  0  1  0  0  0  0  0  0
  192.0730  175.4080  146.3330 C   0  0  0  0  0  2  0  0  0  0  0  0
  186.8570  178.3330  142.4040 N   0  0  0  0  0  2  0  0  0  0  0  0
  184.3990  178.5330  141.6770 C   0  0  1  0  0  0  0  0  0  0  0  0
  185.3280  177.9420  140.7200 N   0  0  0  0  0  2  0  0  0  0  0  0
  184.5740  178.1540  143.1140 C   0  0  2  0  0  3  0  0  0  0  0  0
  183.1860  177.9160  141.3780 O   0  0  0  0  0  1  0  0  0  0  0  0
  184.9110  179.4210  143.8970 C   0  0  0  0  0  1  0  0  0  0  0  0
  185.5950  177.6550  142.1200 C   0  0  1  0  0  0  0  0  0  0  0  0
  189.1670  173.1130  141.7290 N   0  0  0  0  0  2  0  0  0  0  0  0
  189.7660  173.4250  140.4410 C   0  0  0  0  0  2  0  0  0  0  0  0
  190.3770  172.1690  139.8310 C   0  0  2  0  0  3  0  0  0  0  0  0
  191.8990  172.1890  139.9460 C   0  0  0  0  0  2  0  0  0  0  0  0
  192.5040  173.5210  139.5170 C   0  0  0  0  0  2  0  0  0  0  0  0
  193.5480  173.9720  140.5250 C   0  0  0  0  0  2  0  0  0  0  0  0
  194.3440  175.2910  138.6860 O   0  0  0  0  0  1  0  0  0  0  0  0
  194.2130  175.2650  140.0760 C   0  0  2  0  0  3  0  0  0  0  0  0
  195.5500  175.3990  140.7220 C   0  0  0  0  0  0  0  0  0  0  0  0
  196.5190  174.6910  140.3300 O   0  0  0  0  0  0  0  0  0  0  0  0
  195.7000  176.2860  141.7900 O   0  0  0  0  0  0  0  0  0  0  0  0
  195.0730  176.4170  144.1760 C   0  0  0  0  0  2  0  0  0  0  0  0
  194.9730  174.9400  143.7810 C   0  0  0  0  0  2  0  0  0  0  0  0
  197.3640  175.7050  143.5130 N   0  0  0  0  0  1  0  0  0  0  0  0
  195.9750  175.8470  143.1150 C   0  0  0  0  0  0  0  0  0  0  0  0
  189.9490  171.9830  138.3790 C   0  0  0  0  0  2  0  0  0  0  0  0
  189.6920  169.7230  137.3810 C   0  0  0  0  0  2  0  0  0  0  0  0
  190.3420  170.5320  136.2760 C   0  0  2  0  0  3  0  0  0  0  0  0
  190.6870  170.8050  137.7460 C   0  0  1  0  0  3  0  0  0  0  0  0
  189.3170  171.4800  135.6680 C   0  0  0  0  0  1  0  0  0  0  0  0
  1 14  2  0  0  0  0
  1 10  1  0  0  0  0
  2  6  1  0  0  0  0
  2 14  1  0  0  0  0
  4  3  2  0  0  0  0
  5  7  1  0  0  0  0
  6 24  1  6  0  0  0
  6  8  1  0  0  0  0
  7 16  1  6  0  0  0
  7  3  1  0  0  0  0
  8 11  1  0  0  0  0
  9  4  1  0  0  0  0
 10 12  2  0  0  0  0
 11  5  1  0  0  0  0
 12  9  1  0  0  0  0
 13  9  2  0  0  0  0
 14 13  1  0  0  0  0
 16 15  1  0  0  0  0
 17 10  1  0  0  0  0
 18 21  1  6  0  0  0
 18 23  1  0  0  0  0
 18 20  1  0  0  0  0
 19 18  1  0  0  0  0
 19 23  1  0  0  0  0
 20 22  1  1  0  0  0
 23 17  1  1  0  0  0
 23 20  1  0  0  0  0
 25 24  1  0  0  0  0
 26 39  1  6  0  0  0
 26 27  1  0  0  0  0
 26 25  1  0  0  0  0
 28 27  1  0  0  0  0
 28 29  1  0  0  0  0
 31 30  1  6  0  0  0
 31 29  1  0  0  0  0
 31 32  1  0  0  0  0
 32 34  1  0  0  0  0
 33 32  2  0  0  0  0
 34 38  1  0  0  0  0
 36 35  1  0  0  0  0
 38 37  1  0  0  0  0
 38 36  1  0  0  0  0
 38 35  1  0  0  0  0
 40 42  1  0  0  0  0
 41 43  1  1  0  0  0
 41 40  1  0  0  0  0
 41 42  1  0  0  0  0
 42 39  1  1  0  0  0
M  END
>  <MODEL>
9

>  <REMARK>
 VINA RESULT:      -5.9      2.204      5.779
  Name = 
  15 active torsions:
  status: ('A' for Active; 'I' for Inactive)
    1  A    between atoms: C_2  and  C_34
    2  A    between atoms: C_2  and  C_37
    3  A    between atoms: C_3  and  C_24
    4  A    between atoms: C_3  and  C_37
    5  A    between atoms: C_6  and  C_14
    6  A    between atoms: C_6  and  C_34
    7  A    between atoms: N_12  and  C_30
    8  A    between atoms: N_12  and  C_38
    9  A    between atoms: N_13  and  C_19
   10  A    between atoms: N_13  and  C_21
   11  A    between atoms: C_14  and  C_26
   12  A    between atoms: C_20  and  C_33
   13  A    between atoms: C_21  and  C_37
   14  A    between atoms: O_22  and  C_26
   15  A    between atoms: O_22  and  C_43
                            x       y       z     vdW  Elec       q    Type
                         _______ _______ _______ _____ _____    ______ ____

>  <TORSDO>
F 15

$$$$
