=
 OpenBabel11062418343D

 54 59  0  0  1  0  0  0  0  0999 V2000
  187.9040  175.8990  143.2480 C   0  0  0  0  0  2  0  0  0  0  0  0
  188.4990  174.5600  142.8340 C   0  0  0  0  0  2  0  0  0  0  0  0
  190.9740  172.9790  141.1940 C   0  0  2  0  0  3  0  0  0  0  0  0
  189.9850  172.9130  140.0490 C   0  0  0  0  0  2  0  0  0  0  0  0
  188.7880  173.7000  140.5280 C   0  0  2  0  0  3  0  0  0  0  0  0
  190.7590  174.3420  141.8180 C   0  0  0  0  0  2  0  0  0  0  0  0
  188.2040  174.3710  139.4530 O   0  0  0  0  0  1  0  0  0  0  0  0
  189.3030  174.6990  141.5500 C   0  0  2  0  0  3  0  0  0  0  0  0
  192.3440  172.8640  140.7080 N   0  0  0  0  0  2  0  0  0  0  0  0
  192.7840  174.1570  140.3810 N   0  0  0  0  0  2  0  0  0  0  0  0
  193.6170  174.0490  139.1950 C   0  0  0  0  0  2  0  0  0  0  0  0
  195.3810  174.4940  140.9230 C   0  0  0  0  0  2  0  0  0  0  0  0
  197.3380  173.6910  138.8980 C   0  0  2  0  0  3  0  0  0  0  0  0
  197.4860  173.6580  140.4170 C   0  0  0  0  0  2  0  0  0  0  0  0
  197.2210  175.1310  138.4380 C   0  0  0  0  0  2  0  0  0  0  0  0
  195.9890  174.2480  138.3980 C   0  0  2  0  0  3  0  0  0  0  0  0
  194.9620  174.7040  139.4590 C   0  0  1  0  0  3  0  0  0  0  0  0
  196.2170  173.3100  141.0440 N   0  0  0  0  0  0  0  0  0  0  0  0
  196.4630  173.1150  142.4650 C   0  0  0  0  0  2  0  0  0  0  0  0
  195.2470  172.9860  143.1450 O   0  0  0  0  0  0  0  0  0  0  0  0
  194.0600  170.1690  144.9560 O   0  0  0  0  0  1  0  0  0  0  0  0
  194.6370  171.1020  145.8240 C   0  0  1  0  0  3  0  0  0  0  0  0
  196.1500  171.0560  145.7370 C   0  0  2  0  0  3  0  0  0  0  0  0
  196.5410  171.7900  144.6080 O   0  0  0  0  0  0  0  0  0  0  0  0
  194.3560  172.4780  145.3050 C   0  0  0  0  0  2  0  0  0  0  0  0
  195.5980  172.8300  144.4910 C   0  0  2  0  0  3  0  0  0  0  0  0
  196.7020  169.6400  145.6820 C   0  0  0  0  0  1  0  0  0  0  0  0
  188.9520  176.7750  143.9240 C   0  0  0  0  0  2  0  0  0  0  0  0
  188.3510  177.5140  145.1140 C   0  0  2  0  0  3  0  0  0  0  0  0
  188.1640  176.5880  146.2750 C   0  0  0  0  0  0  0  0  0  0  0  0
  185.7080  176.1920  146.8880 O   0  0  0  0  0  1  0  0  0  0  0  0
  186.7840  176.7170  146.1830 C   0  0  0  0  0  0  0  0  0  0  0  0
  186.9250  177.6060  144.9950 C   0  0  1  0  0  3  0  0  0  0  0  0
  189.0710  175.8200  147.1730 C   0  0  1  0  0  3  0  0  0  0  0  0
  188.5100  174.5760  147.4880 O   0  0  0  0  0  1  0  0  0  0  0  0
  190.7350  174.5760  145.8350 C   0  0  0  0  0  2  0  0  0  0  0  0
  190.4370  175.6620  146.5660 C   0  0  0  0  0  0  0  0  0  0  0  0
  191.5030  176.6560  146.9660 C   0  0  2  0  0  3  0  0  0  0  0  0
  193.9860  176.0520  146.7800 C   0  0  0  0  0  3  0  0  0  0  0  0
  194.6870  176.4520  144.6910 C   0  0  0  0  0  0  0  0  0  0  0  0
  192.8000  176.5100  146.2160 C   0  0  0  0  0  0  0  0  0  0  0  0
  195.0360  176.0190  145.9210 N   0  0  0  0  0  0  0  0  0  0  0  0
  193.0740  176.9000  144.5970 S   0  0  0  0  0  0  0  0  0  0  0  0
  195.5990  176.5170  143.6010 N   0  0  0  0  0  1  0  0  0  0  0  0
  191.3700  177.8850  149.1220 C   0  0  0  0  0  2  0  0  0  0  0  0
  191.6760  176.7720  148.4590 C   0  0  0  0  0  3  0  0  0  0  0  0
  186.3820  179.0290  145.2280 C   0  0  0  0  0  2  0  0  0  0  0  0
  185.6300  179.6500  144.0470 C   0  0  0  0  0  2  0  0  0  0  0  0
  184.4120  178.8580  143.6950 C   0  0  0  0  0  0  0  0  0  0  0  0
  183.4130  178.9450  144.3890 O   0  0  0  0  0  0  0  0  0  0  0  0
  184.4090  177.9990  142.4770 C   0  0  0  0  0  2  0  0  0  0  0  0
  185.5850  178.3570  141.5790 C   0  0  0  0  0  2  0  0  0  0  0  0
  186.4860  177.3770  139.6590 C   0  0  0  0  0  1  0  0  0  0  0  0
  185.2820  177.9790  140.2080 N   0  0  0  0  0  2  0  0  0  0  0  0
  1 28  1  0  0  0  0
  2  1  1  0  0  0  0
  3  9  1  6  0  0  0
  3  6  1  0  0  0  0
  4  5  1  0  0  0  0
  4  3  1  0  0  0  0
  5  7  1  6  0  0  0
  5  8  1  0  0  0  0
  8  6  1  0  0  0  0
  8  2  1  1  0  0  0
 10  9  1  0  0  0  0
 11 10  1  0  0  0  0
 12 18  1  0  0  0  0
 13 15  1  6  0  0  0
 13 14  1  0  0  0  0
 14 18  1  0  0  0  0
 16 15  1  6  0  0  0
 16 13  1  0  0  0  0
 16 17  1  0  0  0  0
 17 11  1  6  0  0  0
 17 12  1  0  0  0  0
 18 19  1  0  0  0  0
 19 20  1  0  0  0  0
 22 21  1  6  0  0  0
 23 27  1  6  0  0  0
 23 22  1  0  0  0  0
 24 23  1  0  0  0  0
 25 22  1  0  0  0  0
 26 20  1  6  0  0  0
 26 24  1  0  0  0  0
 26 25  1  0  0  0  0
 29 28  1  6  0  0  0
 29 30  1  0  0  0  0
 30 34  1  0  0  0  0
 32 30  2  0  0  0  0
 32 31  1  0  0  0  0
 33 29  1  0  0  0  0
 33 47  1  1  0  0  0
 33 32  1  0  0  0  0
 34 35  1  6  0  0  0
 36 37  2  0  0  0  0
 37 38  1  0  0  0  0
 37 34  1  0  0  0  0
 38 46  1  1  0  0  0
 40 42  2  0  0  0  0
 41 39  2  0  0  0  0
 41 38  1  0  0  0  0
 42 39  1  0  0  0  0
 43 40  1  0  0  0  0
 43 41  1  0  0  0  0
 44 40  1  0  0  0  0
 46 45  2  0  0  0  0
 48 47  1  0  0  0  0
 49 48  1  0  0  0  0
 49 50  2  0  0  0  0
 51 49  1  0  0  0  0
 52 51  1  0  0  0  0
 53 54  1  0  0  0  0
 54 52  1  0  0  0  0
M  END
>  <MODEL>
1

>  <REMARK>
 VINA RESULT:      -6.4      0.000      0.000
  Name = 
  22 active torsions:
  status: ('A' for Active; 'I' for Inactive)
    1  A    between atoms: C_1  and  C_20
    2  A    between atoms: C_1  and  C_54
    3  A    between atoms: C_2  and  C_18
    4  A    between atoms: C_2  and  C_49
    5  A    between atoms: C_2  and  C_52
    6  A    between atoms: C_3  and  C_48
    7  A    between atoms: N_4  and  N_6
    8  A    between atoms: N_4  and  C_44
    9  A    between atoms: N_6  and  C_9
   10  A    between atoms: C_7  and  C_20
   11  A    between atoms: C_7  and  C_39
   12  A    between atoms: O_10  and  C_21
   13  A    between atoms: O_10  and  C_43
   14  A    between atoms: C_14  and  C_23
   15  A    between atoms: C_14  and  C_49
   16  A    between atoms: N_17  and  C_24
   17  A    between atoms: C_19  and  C_48
   18  A    between atoms: C_19  and  C_51
   19  A    between atoms: C_21  and  N_53
   20  A    between atoms: C_24  and  C_39
   21  A    between atoms: C_38  and  C_51
   22  A    between atoms: C_44  and  C_45
                            x       y       z     vdW  Elec       q    Type
                         _______ _______ _______ _____ _____    ______ ____

>  <TORSDO>
F 22

$$$$
=
 OpenBabel11062418343D

 54 59  0  0  1  0  0  0  0  0999 V2000
  192.4490  175.8010  142.4890 C   0  0  0  0  0  2  0  0  0  0  0  0
  193.5430  175.9500  143.5360 C   0  0  0  0  0  2  0  0  0  0  0  0
  191.3410  175.9890  146.0800 C   0  0  2  0  0  3  0  0  0  0  0  0
  192.5570  176.2480  146.9460 C   0  0  0  0  0  2  0  0  0  0  0  0
  193.7000  176.3980  145.9690 C   0  0  2  0  0  3  0  0  0  0  0  0
  191.5830  176.7900  144.8170 C   0  0  0  0  0  2  0  0  0  0  0  0
  194.6090  177.3420  146.4490 O   0  0  0  0  0  1  0  0  0  0  0  0
  193.0950  176.8740  144.6590 C   0  0  2  0  0  3  0  0  0  0  0  0
  190.1250  176.4510  146.7370 N   0  0  0  0  0  2  0  0  0  0  0  0
  189.0870  176.3940  145.7930 N   0  0  0  0  0  2  0  0  0  0  0  0
  187.8300  176.3950  146.5220 C   0  0  0  0  0  2  0  0  0  0  0  0
  186.5920  178.0160  145.0620 C   0  0  0  0  0  2  0  0  0  0  0  0
  184.8130  178.4650  147.3430 C   0  0  2  0  0  3  0  0  0  0  0  0
  184.5150  178.6720  145.8610 C   0  0  0  0  0  2  0  0  0  0  0  0
  185.8790  179.4500  147.7820 C   0  0  0  0  0  2  0  0  0  0  0  0
  186.2490  177.9860  147.6470 C   0  0  2  0  0  3  0  0  0  0  0  0
  187.2040  177.7770  146.4510 C   0  0  1  0  0  3  0  0  0  0  0  0
  185.1840  177.6540  145.0600 N   0  0  0  0  0  0  0  0  0  0  0  0
  184.7180  177.7910  143.6880 C   0  0  0  0  0  2  0  0  0  0  0  0
  185.7360  178.3240  142.8910 O   0  0  0  0  0  0  0  0  0  0  0  0
  189.1010  177.3190  142.3530 O   0  0  0  0  0  1  0  0  0  0  0  0
  188.2660  176.7860  141.3640 C   0  0  1  0  0  3  0  0  0  0  0  0
  187.4620  175.6200  141.9080 C   0  0  2  0  0  3  0  0  0  0  0  0
  186.3720  176.1400  142.6190 O   0  0  0  0  0  0  0  0  0  0  0  0
  187.1820  177.7750  141.0680 C   0  0  0  0  0  2  0  0  0  0  0  0
  186.0190  177.3290  141.9490 C   0  0  2  0  0  3  0  0  0  0  0  0
  188.2840  174.6850  142.7820 C   0  0  0  0  0  1  0  0  0  0  0  0
  192.7680  174.6640  141.5250 C   0  0  0  0  0  2  0  0  0  0  0  0
  194.1640  174.8310  140.9370 C   0  0  2  0  0  3  0  0  0  0  0  0
  194.1880  174.4120  139.5000 C   0  0  0  0  0  0  0  0  0  0  0  0
  195.6200  172.3340  139.0600 O   0  0  0  0  0  1  0  0  0  0  0  0
  195.0270  173.3470  139.8030 C   0  0  0  0  0  0  0  0  0  0  0  0
  194.9920  173.7030  141.2490 C   0  0  1  0  0  3  0  0  0  0  0  0
  193.5660  174.9100  138.2410 C   0  0  1  0  0  3  0  0  0  0  0  0
  194.5430  175.4360  137.3860 O   0  0  0  0  0  1  0  0  0  0  0  0
  193.3270  173.0880  136.5880 C   0  0  0  0  0  2  0  0  0  0  0  0
  192.7720  173.8300  137.5600 C   0  0  0  0  0  0  0  0  0  0  0  0
  191.2940  173.7460  137.8660 C   0  0  2  0  0  3  0  0  0  0  0  0
  189.9300  172.9820  139.8960 C   0  0  0  0  0  3  0  0  0  0  0  0
  190.7120  171.0080  140.6080 C   0  0  0  0  0  0  0  0  0  0  0  0
  190.9440  172.7790  138.9660 C   0  0  0  0  0  0  0  0  0  0  0  0
  189.8040  171.9860  140.8100 N   0  0  0  0  0  0  0  0  0  0  0  0
  191.7170  171.3180  139.3030 S   0  0  0  0  0  0  0  0  0  0  0  0
  190.7980  169.8450  141.4240 N   0  0  0  0  0  1  0  0  0  0  0  0
  189.1850  174.0400  136.5840 C   0  0  0  0  0  2  0  0  0  0  0  0
  190.4400  173.5960  136.6330 C   0  0  0  0  0  3  0  0  0  0  0  0
  196.3700  174.0940  141.8170 C   0  0  0  0  0  2  0  0  0  0  0  0
  196.7750  173.3870  143.1130 C   0  0  0  0  0  2  0  0  0  0  0  0
  196.7970  174.3320  144.2710 C   0  0  0  0  0  0  0  0  0  0  0  0
  196.9810  175.5220  144.0770 O   0  0  0  0  0  0  0  0  0  0  0  0
  196.5520  173.8250  145.6510 C   0  0  0  0  0  2  0  0  0  0  0  0
  195.6900  172.5700  145.6040 C   0  0  0  0  0  2  0  0  0  0  0  0
  193.5920  171.8220  144.9040 C   0  0  0  0  0  1  0  0  0  0  0  0
  194.2900  172.9460  145.5050 N   0  0  0  0  0  2  0  0  0  0  0  0
  1  2  1  0  0  0  0
  3  9  1  1  0  0  0
  3  4  1  0  0  0  0
  5  7  1  1  0  0  0
  5  4  1  0  0  0  0
  6  3  1  0  0  0  0
  8  2  1  6  0  0  0
  8  6  1  0  0  0  0
  8  5  1  0  0  0  0
 10 11  1  0  0  0  0
 10  9  1  0  0  0  0
 12 17  1  0  0  0  0
 13 14  1  6  0  0  0
 13 16  1  0  0  0  0
 13 15  1  0  0  0  0
 16 15  1  1  0  0  0
 17 11  1  6  0  0  0
 17 16  1  0  0  0  0
 18 12  1  0  0  0  0
 18 14  1  0  0  0  0
 19 18  1  0  0  0  0
 20 19  1  0  0  0  0
 22 23  1  0  0  0  0
 22 21  1  1  0  0  0
 23 24  1  0  0  0  0
 23 27  1  1  0  0  0
 25 22  1  0  0  0  0
 25 26  1  0  0  0  0
 26 24  1  0  0  0  0
 26 20  1  1  0  0  0
 28  1  1  0  0  0  0
 29 33  1  0  0  0  0
 29 28  1  1  0  0  0
 30 32  2  0  0  0  0
 30 29  1  0  0  0  0
 31 32  1  0  0  0  0
 32 33  1  0  0  0  0
 33 47  1  6  0  0  0
 34 35  1  6  0  0  0
 34 30  1  0  0  0  0
 36 37  2  0  0  0  0
 37 38  1  0  0  0  0
 37 34  1  0  0  0  0
 38 46  1  6  0  0  0
 38 41  1  0  0  0  0
 39 42  1  0  0  0  0
 40 42  2  0  0  0  0
 40 44  1  0  0  0  0
 41 43  1  0  0  0  0
 41 39  2  0  0  0  0
 43 40  1  0  0  0  0
 45 46  2  0  0  0  0
 47 48  1  0  0  0  0
 48 49  1  0  0  0  0
 49 51  1  0  0  0  0
 50 49  2  0  0  0  0
 52 51  1  0  0  0  0
 53 54  1  0  0  0  0
 54 52  1  0  0  0  0
M  END
>  <MODEL>
2

>  <REMARK>
 VINA RESULT:      -6.2      2.858     10.450
  Name = 
  22 active torsions:
  status: ('A' for Active; 'I' for Inactive)
    1  A    between atoms: C_1  and  C_20
    2  A    between atoms: C_1  and  C_54
    3  A    between atoms: C_2  and  C_18
    4  A    between atoms: C_2  and  C_49
    5  A    between atoms: C_2  and  C_52
    6  A    between atoms: C_3  and  C_48
    7  A    between atoms: N_4  and  N_6
    8  A    between atoms: N_4  and  C_44
    9  A    between atoms: N_6  and  C_9
   10  A    between atoms: C_7  and  C_20
   11  A    between atoms: C_7  and  C_39
   12  A    between atoms: O_10  and  C_21
   13  A    between atoms: O_10  and  C_43
   14  A    between atoms: C_14  and  C_23
   15  A    between atoms: C_14  and  C_49
   16  A    between atoms: N_17  and  C_24
   17  A    between atoms: C_19  and  C_48
   18  A    between atoms: C_19  and  C_51
   19  A    between atoms: C_21  and  N_53
   20  A    between atoms: C_24  and  C_39
   21  A    between atoms: C_38  and  C_51
   22  A    between atoms: C_44  and  C_45
                            x       y       z     vdW  Elec       q    Type
                         _______ _______ _______ _____ _____    ______ ____

>  <TORSDO>
F 22

$$$$
=
 OpenBabel11062418343D

 54 59  0  0  1  0  0  0  0  0999 V2000
  190.4810  172.5890  141.7350 C   0  0  0  0  0  2  0  0  0  0  0  0
  189.1450  172.3640  142.4260 C   0  0  0  0  0  2  0  0  0  0  0  0
  188.1850  175.4620  141.5350 C   0  0  2  0  0  3  0  0  0  0  0  0
  188.2180  174.9160  140.1220 C   0  0  0  0  0  2  0  0  0  0  0  0
  188.5190  173.4440  140.2860 C   0  0  2  0  0  3  0  0  0  0  0  0
  187.6270  174.3340  142.3770 C   0  0  0  0  0  2  0  0  0  0  0  0
  187.8490  172.7140  139.3030 O   0  0  0  0  0  1  0  0  0  0  0  0
  188.0190  173.0470  141.6640 C   0  0  2  0  0  3  0  0  0  0  0  0
  187.3130  176.6270  141.6230 N   0  0  0  0  0  2  0  0  0  0  0  0
  187.7960  177.4370  142.6640 N   0  0  0  0  0  2  0  0  0  0  0  0
  186.7250  178.3400  143.0500 C   0  0  0  0  0  2  0  0  0  0  0  0
  186.9380  176.9020  145.0950 C   0  0  0  0  0  2  0  0  0  0  0  0
  185.5190  179.0200  146.5350 C   0  0  2  0  0  3  0  0  0  0  0  0
  186.4710  177.9700  147.1010 C   0  0  0  0  0  2  0  0  0  0  0  0
  184.2760  178.3330  146.0040 C   0  0  0  0  0  2  0  0  0  0  0  0
  185.2710  178.9070  145.0160 C   0  0  2  0  0  3  0  0  0  0  0  0
  185.9910  177.7730  144.2530 C   0  0  1  0  0  3  0  0  0  0  0  0
  187.5440  177.6930  146.1540 N   0  0  0  0  0  0  0  0  0  0  0  0
  188.5110  176.8310  146.8180 C   0  0  0  0  0  2  0  0  0  0  0  0
  188.3140  175.5040  146.4250 O   0  0  0  0  0  0  0  0  0  0  0  0
  190.9480  175.2010  144.0580 O   0  0  0  0  0  1  0  0  0  0  0  0
  191.1920  174.3870  145.1700 C   0  0  1  0  0  3  0  0  0  0  0  0
  191.6560  175.2150  146.3530 C   0  0  2  0  0  3  0  0  0  0  0  0
  190.5250  175.7840  146.9540 O   0  0  0  0  0  0  0  0  0  0  0  0
  189.8840  173.8630  145.6780 C   0  0  0  0  0  2  0  0  0  0  0  0
  189.4930  174.8400  146.7820 C   0  0  2  0  0  3  0  0  0  0  0  0
  192.6650  176.2880  145.9700 C   0  0  0  0  0  1  0  0  0  0  0  0
  191.5810  171.7640  142.3930 C   0  0  0  0  0  2  0  0  0  0  0  0
  191.8450  170.4870  141.6020 C   0  0  2  0  0  3  0  0  0  0  0  0
  193.3070  170.3270  141.3250 C   0  0  0  0  0  0  0  0  0  0  0  0
  193.9050  170.4910  138.8390 O   0  0  0  0  0  1  0  0  0  0  0  0
  193.0870  170.4860  139.9630 C   0  0  0  0  0  0  0  0  0  0  0  0
  191.6310  170.6970  140.2000 C   0  0  1  0  0  3  0  0  0  0  0  0
  194.5240  170.1000  142.1540 C   0  0  1  0  0  3  0  0  0  0  0  0
  195.3380  169.1210  141.5720 O   0  0  0  0  0  1  0  0  0  0  0  0
  196.2870  171.7230  141.5500 C   0  0  0  0  0  2  0  0  0  0  0  0
  195.2830  171.3790  142.3720 C   0  0  0  0  0  0  0  0  0  0  0  0
  195.0100  172.1500  143.6430 C   0  0  2  0  0  3  0  0  0  0  0  0
  194.3760  174.5580  143.0400 C   0  0  0  0  0  3  0  0  0  0  0  0
  196.0980  175.9120  143.5050 C   0  0  0  0  0  0  0  0  0  0  0  0
  195.2790  173.6280  143.5420 C   0  0  0  0  0  0  0  0  0  0  0  0
  194.8390  175.8340  143.0250 N   0  0  0  0  0  0  0  0  0  0  0  0
  196.7070  174.4200  143.9670 S   0  0  0  0  0  0  0  0  0  0  0  0
  196.8200  177.1340  143.6020 N   0  0  0  0  0  1  0  0  0  0  0  0
  194.8570  170.9690  145.8250 C   0  0  0  0  0  2  0  0  0  0  0  0
  195.6100  171.5080  144.8680 C   0  0  0  0  0  3  0  0  0  0  0  0
  190.7430  169.6200  139.5490 C   0  0  0  0  0  2  0  0  0  0  0  0
  189.7490  170.1300  138.5010 C   0  0  0  0  0  2  0  0  0  0  0  0
  190.4430  170.5490  137.2450 C   0  0  0  0  0  0  0  0  0  0  0  0
  190.3060  171.6880  136.8300 O   0  0  0  0  0  0  0  0  0  0  0  0
  191.3320  169.5900  136.5300 C   0  0  0  0  0  2  0  0  0  0  0  0
  192.3260  170.3460  135.6580 C   0  0  0  0  0  2  0  0  0  0  0  0
  193.1540  168.1660  135.7920 C   0  0  0  0  0  1  0  0  0  0  0  0
  193.2370  169.4020  135.0320 N   0  0  0  0  0  2  0  0  0  0  0  0
  1 28  1  0  0  0  0
  1  2  1  0  0  0  0
  3  9  1  6  0  0  0
  3  6  1  0  0  0  0
  4  5  1  0  0  0  0
  4  3  1  0  0  0  0
  5  7  1  6  0  0  0
  5  8  1  0  0  0  0
  8  6  1  0  0  0  0
  8  2  1  1  0  0  0
  9 10  1  0  0  0  0
 10 11  1  0  0  0  0
 12 18  1  0  0  0  0
 13 15  1  1  0  0  0
 13 14  1  0  0  0  0
 16 15  1  1  0  0  0
 16 13  1  0  0  0  0
 17 11  1  6  0  0  0
 17 16  1  0  0  0  0
 17 12  1  0  0  0  0
 18 19  1  0  0  0  0
 18 14  1  0  0  0  0
 20 19  1  0  0  0  0
 22 21  1  6  0  0  0
 22 25  1  0  0  0  0
 22 23  1  0  0  0  0
 23 27  1  6  0  0  0
 23 24  1  0  0  0  0
 25 26  1  0  0  0  0
 26 20  1  6  0  0  0
 26 24  1  0  0  0  0
 29 28  1  1  0  0  0
 30 29  1  0  0  0  0
 30 34  1  0  0  0  0
 31 32  1  0  0  0  0
 32 33  1  0  0  0  0
 32 30  2  0  0  0  0
 33 47  1  6  0  0  0
 33 29  1  0  0  0  0
 34 35  1  6  0  0  0
 34 37  1  0  0  0  0
 36 37  2  0  0  0  0
 37 38  1  0  0  0  0
 38 46  1  1  0  0  0
 39 41  2  0  0  0  0
 40 44  1  0  0  0  0
 40 43  1  0  0  0  0
 41 38  1  0  0  0  0
 41 43  1  0  0  0  0
 42 39  1  0  0  0  0
 42 40  2  0  0  0  0
 46 45  2  0  0  0  0
 48 47  1  0  0  0  0
 49 48  1  0  0  0  0
 50 49  2  0  0  0  0
 51 49  1  0  0  0  0
 52 51  1  0  0  0  0
 54 52  1  0  0  0  0
 54 53  1  0  0  0  0
M  END
>  <MODEL>
3

>  <REMARK>
 VINA RESULT:      -6.2      2.930      8.761
  Name = 
  22 active torsions:
  status: ('A' for Active; 'I' for Inactive)
    1  A    between atoms: C_1  and  C_20
    2  A    between atoms: C_1  and  C_54
    3  A    between atoms: C_2  and  C_18
    4  A    between atoms: C_2  and  C_49
    5  A    between atoms: C_2  and  C_52
    6  A    between atoms: C_3  and  C_48
    7  A    between atoms: N_4  and  N_6
    8  A    between atoms: N_4  and  C_44
    9  A    between atoms: N_6  and  C_9
   10  A    between atoms: C_7  and  C_20
   11  A    between atoms: C_7  and  C_39
   12  A    between atoms: O_10  and  C_21
   13  A    between atoms: O_10  and  C_43
   14  A    between atoms: C_14  and  C_23
   15  A    between atoms: C_14  and  C_49
   16  A    between atoms: N_17  and  C_24
   17  A    between atoms: C_19  and  C_48
   18  A    between atoms: C_19  and  C_51
   19  A    between atoms: C_21  and  N_53
   20  A    between atoms: C_24  and  C_39
   21  A    between atoms: C_38  and  C_51
   22  A    between atoms: C_44  and  C_45
                            x       y       z     vdW  Elec       q    Type
                         _______ _______ _______ _____ _____    ______ ____

>  <TORSDO>
F 22

$$$$
=
 OpenBabel11062418343D

 54 59  0  0  1  0  0  0  0  0999 V2000
  187.1300  176.3180  143.7650 C   0  0  0  0  0  2  0  0  0  0  0  0
  187.7150  175.1820  142.9380 C   0  0  0  0  0  2  0  0  0  0  0  0
  188.6180  174.1250  139.8750 C   0  0  2  0  0  3  0  0  0  0  0  0
  187.7780  175.2840  139.3790 C   0  0  0  0  0  2  0  0  0  0  0  0
  187.3470  176.0110  140.6320 C   0  0  2  0  0  3  0  0  0  0  0  0
  189.3170  174.6500  141.1120 C   0  0  0  0  0  2  0  0  0  0  0  0
  187.2850  177.3830  140.3830 O   0  0  0  0  0  1  0  0  0  0  0  0
  188.3980  175.7180  141.6890 C   0  0  2  0  0  3  0  0  0  0  0  0
  189.6030  173.7300  138.8760 N   0  0  0  0  0  2  0  0  0  0  0  0
  190.8040  173.4610  139.5520 N   0  0  0  0  0  2  0  0  0  0  0  0
  190.8930  172.0230  139.7340 C   0  0  0  0  0  2  0  0  0  0  0  0
  193.2690  172.8260  139.7710 C   0  0  0  0  0  2  0  0  0  0  0  0
  193.4800  171.5790  142.4120 C   0  0  2  0  0  3  0  0  0  0  0  0
  194.3080  172.7290  141.8440 C   0  0  0  0  0  2  0  0  0  0  0  0
  193.7670  170.3170  141.6210 C   0  0  0  0  0  2  0  0  0  0  0  0
  192.4280  171.0050  141.4390 C   0  0  2  0  0  3  0  0  0  0  0  0
  192.3320  171.6370  140.0320 C   0  0  1  0  0  3  0  0  0  0  0  0
  193.4820  173.5800  140.9970 N   0  0  0  0  0  0  0  0  0  0  0  0
  194.2720  174.7480  140.6370 C   0  0  0  0  0  2  0  0  0  0  0  0
  195.5980  174.5690  141.0430 O   0  0  0  0  0  0  0  0  0  0  0  0
  197.2340  172.8820  138.3770 O   0  0  0  0  0  1  0  0  0  0  0  0
  197.6810  174.2050  138.4670 C   0  0  1  0  0  3  0  0  0  0  0  0
  196.6450  175.1620  137.9100 C   0  0  2  0  0  3  0  0  0  0  0  0
  195.6720  175.3700  138.8980 O   0  0  0  0  0  0  0  0  0  0  0  0
  197.7030  174.6060  139.9100 C   0  0  0  0  0  2  0  0  0  0  0  0
  196.3610  175.2990  140.1250 C   0  0  2  0  0  3  0  0  0  0  0  0
  196.0100  174.6690  136.6190 C   0  0  0  0  0  1  0  0  0  0  0  0
  188.1810  177.3840  144.0460 C   0  0  0  0  0  2  0  0  0  0  0  0
  188.4180  177.5280  145.5460 C   0  0  2  0  0  3  0  0  0  0  0  0
  189.3820  176.4920  146.0320 C   0  0  0  0  0  0  0  0  0  0  0  0
  188.3370  174.7880  147.6350 O   0  0  0  0  0  1  0  0  0  0  0  0
  188.3860  175.8900  146.7910 C   0  0  0  0  0  0  0  0  0  0  0  0
  187.3830  176.8750  146.2940 C   0  0  1  0  0  3  0  0  0  0  0  0
  190.8240  176.1970  145.8030 C   0  0  1  0  0  3  0  0  0  0  0  0
  191.4470  175.8320  147.0040 O   0  0  0  0  0  1  0  0  0  0  0  0
  190.2910  174.0000  144.8040 C   0  0  0  0  0  2  0  0  0  0  0  0
  191.0050  175.1360  144.7530 C   0  0  0  0  0  0  0  0  0  0  0  0
  192.1410  175.3070  143.7700 C   0  0  2  0  0  3  0  0  0  0  0  0
  194.5800  176.0100  144.1170 C   0  0  0  0  0  3  0  0  0  0  0  0
  195.5730  174.5650  145.5090 C   0  0  0  0  0  0  0  0  0  0  0  0
  193.5120  175.1580  144.3750 C   0  0  0  0  0  0  0  0  0  0  0  0
  195.7280  175.6740  144.7570 N   0  0  0  0  0  0  0  0  0  0  0  0
  194.0200  173.9390  145.4240 S   0  0  0  0  0  0  0  0  0  0  0  0
  196.6210  173.9970  146.2860 N   0  0  0  0  0  1  0  0  0  0  0  0
  191.5780  177.6970  143.3830 C   0  0  0  0  0  2  0  0  0  0  0  0
  191.9920  176.5280  142.8990 C   0  0  0  0  0  3  0  0  0  0  0  0
  186.7860  177.7550  147.4080 C   0  0  0  0  0  2  0  0  0  0  0  0
  186.1400  179.0630  146.9410 C   0  0  0  0  0  2  0  0  0  0  0  0
  185.0080  178.8090  145.9970 C   0  0  0  0  0  0  0  0  0  0  0  0
  184.0620  178.1290  146.3570 O   0  0  0  0  0  0  0  0  0  0  0  0
  185.0200  179.4220  144.6390 C   0  0  0  0  0  2  0  0  0  0  0  0
  184.0020  178.7310  143.7420 C   0  0  0  0  0  2  0  0  0  0  0  0
  183.6990  178.1540  141.4990 C   0  0  0  0  0  1  0  0  0  0  0  0
  184.6750  178.1810  142.5770 N   0  0  0  0  0  2  0  0  0  0  0  0
  1 28  1  0  0  0  0
  2  1  1  0  0  0  0
  3  9  1  6  0  0  0
  3  6  1  0  0  0  0
  4  3  1  0  0  0  0
  4  5  1  0  0  0  0
  5  7  1  6  0  0  0
  5  8  1  0  0  0  0
  6  8  1  0  0  0  0
  8  2  1  1  0  0  0
  9 10  1  0  0  0  0
 10 11  1  0  0  0  0
 12 17  1  0  0  0  0
 12 18  1  0  0  0  0
 13 15  1  6  0  0  0
 14 13  1  0  0  0  0
 16 15  1  6  0  0  0
 16 13  1  0  0  0  0
 17 11  1  1  0  0  0
 17 16  1  0  0  0  0
 18 14  1  0  0  0  0
 19 18  1  0  0  0  0
 19 20  1  0  0  0  0
 22 21  1  1  0  0  0
 22 25  1  0  0  0  0
 23 27  1  6  0  0  0
 23 22  1  0  0  0  0
 23 24  1  0  0  0  0
 24 26  1  0  0  0  0
 25 26  1  0  0  0  0
 26 20  1  1  0  0  0
 29 28  1  6  0  0  0
 29 30  1  0  0  0  0
 29 33  1  0  0  0  0
 30 32  2  0  0  0  0
 32 31  1  0  0  0  0
 33 32  1  0  0  0  0
 33 47  1  1  0  0  0
 34 30  1  0  0  0  0
 34 35  1  1  0  0  0
 37 36  2  0  0  0  0
 37 34  1  0  0  0  0
 38 46  1  1  0  0  0
 38 41  1  0  0  0  0
 38 37  1  0  0  0  0
 39 41  2  0  0  0  0
 39 42  1  0  0  0  0
 40 44  1  0  0  0  0
 41 43  1  0  0  0  0
 42 40  2  0  0  0  0
 43 40  1  0  0  0  0
 46 45  2  0  0  0  0
 48 47  1  0  0  0  0
 49 50  2  0  0  0  0
 49 48  1  0  0  0  0
 51 49  1  0  0  0  0
 52 51  1  0  0  0  0
 53 54  1  0  0  0  0
 54 52  1  0  0  0  0
M  END
>  <MODEL>
4

>  <REMARK>
 VINA RESULT:      -6.2      2.189      4.086
  Name = 
  22 active torsions:
  status: ('A' for Active; 'I' for Inactive)
    1  A    between atoms: C_1  and  C_20
    2  A    between atoms: C_1  and  C_54
    3  A    between atoms: C_2  and  C_18
    4  A    between atoms: C_2  and  C_49
    5  A    between atoms: C_2  and  C_52
    6  A    between atoms: C_3  and  C_48
    7  A    between atoms: N_4  and  N_6
    8  A    between atoms: N_4  and  C_44
    9  A    between atoms: N_6  and  C_9
   10  A    between atoms: C_7  and  C_20
   11  A    between atoms: C_7  and  C_39
   12  A    between atoms: O_10  and  C_21
   13  A    between atoms: O_10  and  C_43
   14  A    between atoms: C_14  and  C_23
   15  A    between atoms: C_14  and  C_49
   16  A    between atoms: N_17  and  C_24
   17  A    between atoms: C_19  and  C_48
   18  A    between atoms: C_19  and  C_51
   19  A    between atoms: C_21  and  N_53
   20  A    between atoms: C_24  and  C_39
   21  A    between atoms: C_38  and  C_51
   22  A    between atoms: C_44  and  C_45
                            x       y       z     vdW  Elec       q    Type
                         _______ _______ _______ _____ _____    ______ ____

>  <TORSDO>
F 22

$$$$
=
 OpenBabel11062418343D

 54 59  0  0  1  0  0  0  0  0999 V2000
  190.5710  172.9790  142.1760 C   0  0  0  0  0  2  0  0  0  0  0  0
  189.2120  172.4160  142.5660 C   0  0  0  0  0  2  0  0  0  0  0  0
  188.2980  175.4590  141.4620 C   0  0  2  0  0  3  0  0  0  0  0  0
  188.3420  174.8210  140.0890 C   0  0  0  0  0  2  0  0  0  0  0  0
  188.6250  173.3600  140.3520 C   0  0  2  0  0  3  0  0  0  0  0  0
  187.7180  174.3940  142.3690 C   0  0  0  0  0  2  0  0  0  0  0  0
  187.9590  172.5740  139.4100 O   0  0  0  0  0  1  0  0  0  0  0  0
  188.1040  173.0590  141.7470 C   0  0  2  0  0  3  0  0  0  0  0  0
  187.4390  176.6360  141.4630 N   0  0  0  0  0  2  0  0  0  0  0  0
  187.7710  177.4000  142.5940 N   0  0  0  0  0  2  0  0  0  0  0  0
  186.6720  178.3170  142.8420 C   0  0  0  0  0  2  0  0  0  0  0  0
  186.7210  176.8700  144.8900 C   0  0  0  0  0  2  0  0  0  0  0  0
  185.5810  179.1490  146.3310 C   0  0  2  0  0  3  0  0  0  0  0  0
  186.4020  177.9930  146.8960 C   0  0  0  0  0  2  0  0  0  0  0  0
  184.2590  178.6180  145.8110 C   0  0  0  0  0  2  0  0  0  0  0  0
  185.3110  179.0630  144.8140 C   0  0  2  0  0  3  0  0  0  0  0  0
  185.8820  177.8470  144.0510 C   0  0  1  0  0  3  0  0  0  0  0  0
  187.4260  177.5840  145.9430 N   0  0  0  0  0  0  0  0  0  0  0  0
  188.2850  176.6130  146.6040 C   0  0  0  0  0  2  0  0  0  0  0  0
  189.6270  176.9100  146.3440 O   0  0  0  0  0  0  0  0  0  0  0  0
  192.6290  177.0740  144.4510 O   0  0  0  0  0  1  0  0  0  0  0  0
  192.0210  175.8230  144.2990 C   0  0  1  0  0  3  0  0  0  0  0  0
  192.2370  174.9650  145.5310 C   0  0  2  0  0  3  0  0  0  0  0  0
  191.3030  175.3570  146.5000 O   0  0  0  0  0  0  0  0  0  0  0  0
  190.5350  176.0050  144.3270 C   0  0  0  0  0  2  0  0  0  0  0  0
  190.1550  175.7430  145.7810 C   0  0  2  0  0  3  0  0  0  0  0  0
  193.6540  175.0510  146.0770 C   0  0  0  0  0  1  0  0  0  0  0  0
  191.6880  172.0090  142.5410 C   0  0  0  0  0  2  0  0  0  0  0  0
  192.0790  171.1580  141.3380 C   0  0  2  0  0  3  0  0  0  0  0  0
  193.5500  170.8840  141.3370 C   0  0  0  0  0  0  0  0  0  0  0  0
  194.7960  171.9730  139.3810 O   0  0  0  0  0  1  0  0  0  0  0  0
  193.7110  171.6350  140.1800 C   0  0  0  0  0  0  0  0  0  0  0  0
  192.2580  171.9700  140.1700 C   0  0  1  0  0  3  0  0  0  0  0  0
  194.4880  170.1270  142.2140 C   0  0  1  0  0  3  0  0  0  0  0  0
  194.8250  168.9010  141.6280 O   0  0  0  0  0  1  0  0  0  0  0  0
  196.8430  170.7630  141.8180 C   0  0  0  0  0  2  0  0  0  0  0  0
  195.7160  170.9360  142.5270 C   0  0  0  0  0  0  0  0  0  0  0  0
  195.6950  171.7910  143.7730 C   0  0  2  0  0  3  0  0  0  0  0  0
  194.9020  173.9630  142.6710 C   0  0  0  0  0  3  0  0  0  0  0  0
  196.2340  175.6450  143.3130 C   0  0  0  0  0  0  0  0  0  0  0  0
  195.7680  173.2710  143.5100 C   0  0  0  0  0  0  0  0  0  0  0  0
  195.1660  175.2910  142.5680 N   0  0  0  0  0  0  0  0  0  0  0  0
  196.9100  174.3470  144.1320 S   0  0  0  0  0  0  0  0  0  0  0  0
  196.7250  176.9780  143.3870 N   0  0  0  0  0  1  0  0  0  0  0  0
  196.2450  170.9630  146.0520 C   0  0  0  0  0  2  0  0  0  0  0  0
  196.6540  171.3160  144.8350 C   0  0  0  0  0  3  0  0  0  0  0  0
  191.5150  171.4340  138.9320 C   0  0  0  0  0  2  0  0  0  0  0  0
  191.8180  172.1560  137.6160 C   0  0  0  0  0  2  0  0  0  0  0  0
  190.5700  172.6650  136.9700 C   0  0  0  0  0  0  0  0  0  0  0  0
  189.7000  171.8810  136.6320 O   0  0  0  0  0  0  0  0  0  0  0  0
  190.3760  174.1310  136.7790 C   0  0  0  0  0  2  0  0  0  0  0  0
  188.9080  174.4360  136.5110 C   0  0  0  0  0  2  0  0  0  0  0  0
  187.5380  176.1230  135.6570 C   0  0  0  0  0  1  0  0  0  0  0  0
  188.8040  175.4360  135.4620 N   0  0  0  0  0  2  0  0  0  0  0  0
  1 28  1  0  0  0  0
  1  2  1  0  0  0  0
  3  9  1  6  0  0  0
  3  6  1  0  0  0  0
  4  5  1  0  0  0  0
  4  3  1  0  0  0  0
  5  7  1  6  0  0  0
  5  8  1  0  0  0  0
  8  6  1  0  0  0  0
  8  2  1  1  0  0  0
  9 10  1  0  0  0  0
 10 11  1  0  0  0  0
 12 18  1  0  0  0  0
 13 15  1  1  0  0  0
 13 14  1  0  0  0  0
 16 15  1  1  0  0  0
 16 13  1  0  0  0  0
 17 11  1  6  0  0  0
 17 16  1  0  0  0  0
 17 12  1  0  0  0  0
 18 19  1  0  0  0  0
 18 14  1  0  0  0  0
 20 19  1  0  0  0  0
 22 25  1  0  0  0  0
 22 21  1  1  0  0  0
 22 23  1  0  0  0  0
 23 27  1  1  0  0  0
 23 24  1  0  0  0  0
 25 26  1  0  0  0  0
 26 20  1  1  0  0  0
 26 24  1  0  0  0  0
 29 28  1  1  0  0  0
 30 29  1  0  0  0  0
 30 34  1  0  0  0  0
 31 32  1  0  0  0  0
 32 30  2  0  0  0  0
 33 47  1  6  0  0  0
 33 32  1  0  0  0  0
 33 29  1  0  0  0  0
 34 35  1  6  0  0  0
 34 37  1  0  0  0  0
 36 37  2  0  0  0  0
 37 38  1  0  0  0  0
 38 46  1  1  0  0  0
 39 41  2  0  0  0  0
 40 44  1  0  0  0  0
 40 43  1  0  0  0  0
 41 38  1  0  0  0  0
 41 43  1  0  0  0  0
 42 39  1  0  0  0  0
 42 40  2  0  0  0  0
 46 45  2  0  0  0  0
 48 47  1  0  0  0  0
 49 48  1  0  0  0  0
 50 49  2  0  0  0  0
 51 49  1  0  0  0  0
 52 51  1  0  0  0  0
 54 53  1  0  0  0  0
 54 52  1  0  0  0  0
M  END
>  <MODEL>
5

>  <REMARK>
 VINA RESULT:      -6.1      2.704      8.234
  Name = 
  22 active torsions:
  status: ('A' for Active; 'I' for Inactive)
    1  A    between atoms: C_1  and  C_20
    2  A    between atoms: C_1  and  C_54
    3  A    between atoms: C_2  and  C_18
    4  A    between atoms: C_2  and  C_49
    5  A    between atoms: C_2  and  C_52
    6  A    between atoms: C_3  and  C_48
    7  A    between atoms: N_4  and  N_6
    8  A    between atoms: N_4  and  C_44
    9  A    between atoms: N_6  and  C_9
   10  A    between atoms: C_7  and  C_20
   11  A    between atoms: C_7  and  C_39
   12  A    between atoms: O_10  and  C_21
   13  A    between atoms: O_10  and  C_43
   14  A    between atoms: C_14  and  C_23
   15  A    between atoms: C_14  and  C_49
   16  A    between atoms: N_17  and  C_24
   17  A    between atoms: C_19  and  C_48
   18  A    between atoms: C_19  and  C_51
   19  A    between atoms: C_21  and  N_53
   20  A    between atoms: C_24  and  C_39
   21  A    between atoms: C_38  and  C_51
   22  A    between atoms: C_44  and  C_45
                            x       y       z     vdW  Elec       q    Type
                         _______ _______ _______ _____ _____    ______ ____

>  <TORSDO>
F 22

$$$$
=
 OpenBabel11062418343D

 54 59  0  0  1  0  0  0  0  0999 V2000
  189.4180  172.2930  144.1360 C   0  0  0  0  0  2  0  0  0  0  0  0
  190.5360  171.5550  143.4120 C   0  0  0  0  0  2  0  0  0  0  0  0
  190.0450  173.3940  140.6390 C   0  0  2  0  0  3  0  0  0  0  0  0
  191.1410  172.5360  140.0430 C   0  0  0  0  0  2  0  0  0  0  0  0
  191.4500  171.5100  141.1090 C   0  0  2  0  0  3  0  0  0  0  0  0
  189.2280  172.4470  141.4940 C   0  0  0  0  0  2  0  0  0  0  0  0
  191.7820  170.2940  140.5120 O   0  0  0  0  0  1  0  0  0  0  0  0
  190.1900  171.3570  141.9440 C   0  0  2  0  0  3  0  0  0  0  0  0
  189.2070  173.9690  139.5940 N   0  0  0  0  0  2  0  0  0  0  0  0
  188.8760  172.9360  138.7020 N   0  0  0  0  0  2  0  0  0  0  0  0
  188.4000  173.5520  137.4750 C   0  0  0  0  0  2  0  0  0  0  0  0
  190.3600  174.2460  136.0710 C   0  0  0  0  0  2  0  0  0  0  0  0
  191.3890  171.5320  136.4540 C   0  0  2  0  0  3  0  0  0  0  0  0
  192.1740  172.8010  136.1330 C   0  0  0  0  0  2  0  0  0  0  0  0
  190.4870  171.1920  135.2840 C   0  0  0  0  0  2  0  0  0  0  0  0
  189.8630  171.7310  136.5550 C   0  0  2  0  0  3  0  0  0  0  0  0
  189.3080  173.1550  136.3230 C   0  0  1  0  0  3  0  0  0  0  0  0
  191.5800  173.9500  136.8050 N   0  0  0  0  0  0  0  0  0  0  0  0
  192.4700  175.0850  136.6120 C   0  0  0  0  0  2  0  0  0  0  0  0
  193.5270  174.7240  135.7690 O   0  0  0  0  0  0  0  0  0  0  0  0
  195.9640  173.0310  137.7230 O   0  0  0  0  0  1  0  0  0  0  0  0
  196.1720  174.4140  137.7710 C   0  0  1  0  0  3  0  0  0  0  0  0
  196.8000  174.9100  136.4820 C   0  0  2  0  0  3  0  0  0  0  0  0
  195.7820  175.0450  135.5280 O   0  0  0  0  0  0  0  0  0  0  0  0
  194.8410  175.1000  137.7300 C   0  0  0  0  0  2  0  0  0  0  0  0
  194.6350  175.4260  136.2540 C   0  0  2  0  0  3  0  0  0  0  0  0
  197.9060  174.0010  135.9700 C   0  0  0  0  0  1  0  0  0  0  0  0
  189.9510  173.5390  144.8340 C   0  0  0  0  0  2  0  0  0  0  0  0
  189.8050  174.7630  143.9380 C   0  0  2  0  0  3  0  0  0  0  0  0
  190.6850  175.8760  144.4140 C   0  0  0  0  0  0  0  0  0  0  0  0
  189.3900  177.9130  145.2750 O   0  0  0  0  0  1  0  0  0  0  0  0
  189.5740  176.6460  144.7360 C   0  0  0  0  0  0  0  0  0  0  0  0
  188.6620  175.5430  144.3170 C   0  0  1  0  0  3  0  0  0  0  0  0
  192.1550  176.0930  144.5190 C   0  0  1  0  0  3  0  0  0  0  0  0
  192.4420  177.4580  144.6490 O   0  0  0  0  0  1  0  0  0  0  0  0
  192.3310  175.5160  146.9160 C   0  0  0  0  0  2  0  0  0  0  0  0
  192.7430  175.3040  145.6560 C   0  0  0  0  0  0  0  0  0  0  0  0
  193.9330  174.4210  145.3560 C   0  0  2  0  0  3  0  0  0  0  0  0
  195.8070  175.9730  144.5540 C   0  0  0  0  0  3  0  0  0  0  0  0
  196.1670  175.6270  142.3710 C   0  0  0  0  0  0  0  0  0  0  0  0
  194.8690  174.9740  144.3150 C   0  0  0  0  0  0  0  0  0  0  0  0
  196.5320  176.3300  143.4630 N   0  0  0  0  0  0  0  0  0  0  0  0
  194.9350  174.5340  142.6870 S   0  0  0  0  0  0  0  0  0  0  0  0
  196.7690  175.8030  141.0940 N   0  0  0  0  0  1  0  0  0  0  0  0
  194.3540  171.9750  145.4960 C   0  0  0  0  0  2  0  0  0  0  0  0
  193.5590  172.9780  145.1290 C   0  0  0  0  0  3  0  0  0  0  0  0
  187.7570  175.9170  143.1280 C   0  0  0  0  0  2  0  0  0  0  0  0
  186.4740  176.6730  143.4880 C   0  0  0  0  0  2  0  0  0  0  0  0
  186.5200  178.0890  143.0120 C   0  0  0  0  0  0  0  0  0  0  0  0
  187.4740  178.4780  142.3590 O   0  0  0  0  0  0  0  0  0  0  0  0
  185.3830  179.0090  143.3030 C   0  0  0  0  0  2  0  0  0  0  0  0
  185.3440  179.3440  144.7870 C   0  0  0  0  0  2  0  0  0  0  0  0
  184.3920  178.0540  146.4860 C   0  0  0  0  0  1  0  0  0  0  0  0
  184.0780  178.9060  145.3510 N   0  0  0  0  0  2  0  0  0  0  0  0
  1 28  1  0  0  0  0
  2  1  1  0  0  0  0
  3  9  1  6  0  0  0
  3  6  1  0  0  0  0
  4  3  1  0  0  0  0
  4  5  1  0  0  0  0
  5  7  1  6  0  0  0
  5  8  1  0  0  0  0
  6  8  1  0  0  0  0
  8  2  1  1  0  0  0
 10  9  1  0  0  0  0
 11 10  1  0  0  0  0
 12 17  1  0  0  0  0
 12 18  1  0  0  0  0
 13 15  1  6  0  0  0
 13 16  1  0  0  0  0
 14 13  1  0  0  0  0
 14 18  1  0  0  0  0
 16 15  1  6  0  0  0
 17 16  1  0  0  0  0
 17 11  1  1  0  0  0
 19 18  1  0  0  0  0
 20 19  1  0  0  0  0
 22 21  1  6  0  0  0
 23 27  1  6  0  0  0
 23 22  1  0  0  0  0
 24 26  1  0  0  0  0
 24 23  1  0  0  0  0
 25 22  1  0  0  0  0
 26 20  1  6  0  0  0
 26 25  1  0  0  0  0
 29 33  1  0  0  0  0
 29 30  1  0  0  0  0
 29 28  1  1  0  0  0
 30 34  1  0  0  0  0
 30 32  2  0  0  0  0
 32 31  1  0  0  0  0
 33 47  1  6  0  0  0
 33 32  1  0  0  0  0
 34 35  1  1  0  0  0
 34 37  1  0  0  0  0
 37 36  2  0  0  0  0
 38 46  1  6  0  0  0
 38 37  1  0  0  0  0
 40 43  1  0  0  0  0
 40 42  2  0  0  0  0
 41 39  2  0  0  0  0
 41 38  1  0  0  0  0
 42 39  1  0  0  0  0
 43 41  1  0  0  0  0
 44 40  1  0  0  0  0
 46 45  2  0  0  0  0
 47 48  1  0  0  0  0
 49 51  1  0  0  0  0
 49 48  1  0  0  0  0
 50 49  2  0  0  0  0
 51 52  1  0  0  0  0
 52 54  1  0  0  0  0
 54 53  1  0  0  0  0
M  END
>  <MODEL>
6

>  <REMARK>
 VINA RESULT:      -6.0      3.143      5.507
  Name = 
  22 active torsions:
  status: ('A' for Active; 'I' for Inactive)
    1  A    between atoms: C_1  and  C_20
    2  A    between atoms: C_1  and  C_54
    3  A    between atoms: C_2  and  C_18
    4  A    between atoms: C_2  and  C_49
    5  A    between atoms: C_2  and  C_52
    6  A    between atoms: C_3  and  C_48
    7  A    between atoms: N_4  and  N_6
    8  A    between atoms: N_4  and  C_44
    9  A    between atoms: N_6  and  C_9
   10  A    between atoms: C_7  and  C_20
   11  A    between atoms: C_7  and  C_39
   12  A    between atoms: O_10  and  C_21
   13  A    between atoms: O_10  and  C_43
   14  A    between atoms: C_14  and  C_23
   15  A    between atoms: C_14  and  C_49
   16  A    between atoms: N_17  and  C_24
   17  A    between atoms: C_19  and  C_48
   18  A    between atoms: C_19  and  C_51
   19  A    between atoms: C_21  and  N_53
   20  A    between atoms: C_24  and  C_39
   21  A    between atoms: C_38  and  C_51
   22  A    between atoms: C_44  and  C_45
                            x       y       z     vdW  Elec       q    Type
                         _______ _______ _______ _____ _____    ______ ____

>  <TORSDO>
F 22

$$$$
=
 OpenBabel11062418343D

 54 59  0  0  1  0  0  0  0  0999 V2000
  188.6870  173.5780  142.3270 C   0  0  0  0  0  2  0  0  0  0  0  0
  188.0830  174.4370  141.2260 C   0  0  0  0  0  2  0  0  0  0  0  0
  188.9710  177.2940  142.7630 C   0  0  2  0  0  3  0  0  0  0  0  0
  188.2310  177.9720  141.6280 C   0  0  0  0  0  2  0  0  0  0  0  0
  187.6150  176.8400  140.8400 C   0  0  2  0  0  3  0  0  0  0  0  0
  188.1390  176.0730  143.0980 C   0  0  0  0  0  2  0  0  0  0  0  0
  186.3790  177.2390  140.3290 O   0  0  0  0  0  1  0  0  0  0  0  0
  187.4320  175.6830  141.8080 C   0  0  2  0  0  3  0  0  0  0  0  0
  189.0600  178.1700  143.9250 N   0  0  0  0  0  2  0  0  0  0  0  0
  190.4200  178.4390  144.1470 N   0  0  0  0  0  2  0  0  0  0  0  0
  191.1780  177.2980  143.6630 C   0  0  0  0  0  2  0  0  0  0  0  0
  190.5900  176.6240  146.0060 C   0  0  0  0  0  2  0  0  0  0  0  0
  190.9480  173.8550  145.1280 C   0  0  2  0  0  3  0  0  0  0  0  0
  190.1050  174.3730  146.2900 C   0  0  0  0  0  2  0  0  0  0  0  0
  192.4130  174.1160  145.4170 C   0  0  0  0  0  2  0  0  0  0  0  0
  191.7170  174.9470  144.3570 C   0  0  2  0  0  3  0  0  0  0  0  0
  191.5590  176.4090  144.8340 C   0  0  1  0  0  3  0  0  0  0  0  0
  189.5050  175.6570  145.9500 N   0  0  0  0  0  0  0  0  0  0  0  0
  188.5760  176.0090  147.0140 C   0  0  0  0  0  2  0  0  0  0  0  0
  187.2690  176.0260  146.5170 O   0  0  0  0  0  0  0  0  0  0  0  0
  186.2950  179.1840  145.2110 O   0  0  0  0  0  1  0  0  0  0  0  0
  186.1200  179.1520  146.5990 C   0  0  1  0  0  3  0  0  0  0  0  0
  184.8880  178.3470  146.9680 C   0  0  2  0  0  3  0  0  0  0  0  0
  185.2310  176.9890  146.9300 O   0  0  0  0  0  0  0  0  0  0  0  0
  187.2060  178.3160  147.2010 C   0  0  0  0  0  2  0  0  0  0  0  0
  186.5810  176.9300  147.3330 C   0  0  2  0  0  3  0  0  0  0  0  0
  183.6970  178.6310  146.0670 C   0  0  0  0  0  1  0  0  0  0  0  0
  189.5650  172.4790  141.7400 C   0  0  0  0  0  2  0  0  0  0  0  0
  190.4650  173.0340  140.6420 C   0  0  2  0  0  3  0  0  0  0  0  0
  190.4880  172.1150  139.4610 C   0  0  0  0  0  0  0  0  0  0  0  0
  192.7750  171.0350  139.0450 O   0  0  0  0  0  1  0  0  0  0  0  0
  191.8320  171.8370  139.6770 C   0  0  0  0  0  0  0  0  0  0  0  0
  191.8390  172.7060  140.8880 C   0  0  1  0  0  3  0  0  0  0  0  0
  189.4900  171.6600  138.4530 C   0  0  1  0  0  3  0  0  0  0  0  0
  188.1880  171.9240  138.8980 O   0  0  0  0  0  1  0  0  0  0  0  0
  189.8400  171.5230  136.0100 C   0  0  0  0  0  2  0  0  0  0  0  0
  189.7430  172.2870  137.1100 C   0  0  0  0  0  0  0  0  0  0  0  0
  190.0760  173.7610  137.0750 C   0  0  2  0  0  3  0  0  0  0  0  0
  187.8050  174.9270  137.2960 C   0  0  0  0  0  3  0  0  0  0  0  0
  187.3700  176.0550  135.4110 C   0  0  0  0  0  0  0  0  0  0  0  0
  188.9580  174.6370  136.5750 C   0  0  0  0  0  0  0  0  0  0  0  0
  186.9230  175.7230  136.6400 N   0  0  0  0  0  0  0  0  0  0  0  0
  188.8680  175.3850  135.0650 S   0  0  0  0  0  0  0  0  0  0  0  0
  186.6400  176.8840  134.5140 N   0  0  0  0  0  1  0  0  0  0  0  0
  192.4290  174.5600  137.1230 C   0  0  0  0  0  2  0  0  0  0  0  0
  191.4080  174.0540  136.4340 C   0  0  0  0  0  3  0  0  0  0  0  0
  192.7860  173.9150  140.7680 C   0  0  0  0  0  2  0  0  0  0  0  0
  194.0090  173.8890  141.6890 C   0  0  0  0  0  2  0  0  0  0  0  0
  195.2440  173.4860  140.9510 C   0  0  0  0  0  0  0  0  0  0  0  0
  195.4010  172.3210  140.6250 O   0  0  0  0  0  0  0  0  0  0  0  0
  196.2580  174.5130  140.5790 C   0  0  0  0  0  2  0  0  0  0  0  0
  197.2560  174.7010  141.7140 C   0  0  0  0  0  2  0  0  0  0  0  0
  196.2480  176.7830  141.3930 C   0  0  0  0  0  1  0  0  0  0  0  0
  197.0710  176.0130  142.3110 N   0  0  0  0  0  2  0  0  0  0  0  0
  2  1  1  0  0  0  0
  3  6  1  0  0  0  0
  3  9  1  1  0  0  0
  4  3  1  0  0  0  0
  5  7  1  1  0  0  0
  5  4  1  0  0  0  0
  5  8  1  0  0  0  0
  8  2  1  6  0  0  0
  8  6  1  0  0  0  0
  9 10  1  0  0  0  0
 11 10  1  0  0  0  0
 13 15  1  1  0  0  0
 13 14  1  0  0  0  0
 16 17  1  0  0  0  0
 16 13  1  0  0  0  0
 16 15  1  1  0  0  0
 17 11  1  6  0  0  0
 17 12  1  0  0  0  0
 18 12  1  0  0  0  0
 18 14  1  0  0  0  0
 18 19  1  0  0  0  0
 20 19  1  0  0  0  0
 22 21  1  6  0  0  0
 22 23  1  0  0  0  0
 22 25  1  0  0  0  0
 23 27  1  6  0  0  0
 24 23  1  0  0  0  0
 24 26  1  0  0  0  0
 25 26  1  0  0  0  0
 26 20  1  6  0  0  0
 28  1  1  0  0  0  0
 29 33  1  0  0  0  0
 29 28  1  1  0  0  0
 30 32  2  0  0  0  0
 30 29  1  0  0  0  0
 31 32  1  0  0  0  0
 32 33  1  0  0  0  0
 33 47  1  6  0  0  0
 34 35  1  1  0  0  0
 34 30  1  0  0  0  0
 36 37  2  0  0  0  0
 37 34  1  0  0  0  0
 38 46  1  6  0  0  0
 38 37  1  0  0  0  0
 40 42  2  0  0  0  0
 41 38  1  0  0  0  0
 41 39  2  0  0  0  0
 42 39  1  0  0  0  0
 43 40  1  0  0  0  0
 43 41  1  0  0  0  0
 44 40  1  0  0  0  0
 46 45  2  0  0  0  0
 47 48  1  0  0  0  0
 49 48  1  0  0  0  0
 50 49  2  0  0  0  0
 51 49  1  0  0  0  0
 51 52  1  0  0  0  0
 52 54  1  0  0  0  0
 53 54  1  0  0  0  0
M  END
>  <MODEL>
7

>  <REMARK>
 VINA RESULT:      -5.9      3.112      9.701
  Name = 
  22 active torsions:
  status: ('A' for Active; 'I' for Inactive)
    1  A    between atoms: C_1  and  C_20
    2  A    between atoms: C_1  and  C_54
    3  A    between atoms: C_2  and  C_18
    4  A    between atoms: C_2  and  C_49
    5  A    between atoms: C_2  and  C_52
    6  A    between atoms: C_3  and  C_48
    7  A    between atoms: N_4  and  N_6
    8  A    between atoms: N_4  and  C_44
    9  A    between atoms: N_6  and  C_9
   10  A    between atoms: C_7  and  C_20
   11  A    between atoms: C_7  and  C_39
   12  A    between atoms: O_10  and  C_21
   13  A    between atoms: O_10  and  C_43
   14  A    between atoms: C_14  and  C_23
   15  A    between atoms: C_14  and  C_49
   16  A    between atoms: N_17  and  C_24
   17  A    between atoms: C_19  and  C_48
   18  A    between atoms: C_19  and  C_51
   19  A    between atoms: C_21  and  N_53
   20  A    between atoms: C_24  and  C_39
   21  A    between atoms: C_38  and  C_51
   22  A    between atoms: C_44  and  C_45
                            x       y       z     vdW  Elec       q    Type
                         _______ _______ _______ _____ _____    ______ ____

>  <TORSDO>
F 22

$$$$
=
 OpenBabel11062418343D

 54 59  0  0  1  0  0  0  0  0999 V2000
  190.4320  171.8470  142.7760 C   0  0  0  0  0  2  0  0  0  0  0  0
  189.4040  172.8970  143.1750 C   0  0  0  0  0  2  0  0  0  0  0  0
  187.7780  175.7940  142.6520 C   0  0  2  0  0  3  0  0  0  0  0  0
  189.1650  176.4020  142.5950 C   0  0  0  0  0  2  0  0  0  0  0  0
  190.1060  175.2230  142.6880 C   0  0  2  0  0  3  0  0  0  0  0  0
  187.9080  174.4590  141.9490 C   0  0  0  0  0  2  0  0  0  0  0  0
  191.2410  175.4640  141.9140 O   0  0  0  0  0  1  0  0  0  0  0  0
  189.3510  174.0200  142.1500 C   0  0  2  0  0  3  0  0  0  0  0  0
  186.8120  176.6330  141.9530 N   0  0  0  0  0  2  0  0  0  0  0  0
  185.6840  176.7550  142.7800 N   0  0  0  0  0  2  0  0  0  0  0  0
  185.8710  177.9350  143.6060 C   0  0  0  0  0  2  0  0  0  0  0  0
  186.6430  176.6380  145.6100 C   0  0  0  0  0  2  0  0  0  0  0  0
  186.1560  179.0670  147.1700 C   0  0  2  0  0  3  0  0  0  0  0  0
  187.1050  177.9160  147.4910 C   0  0  0  0  0  2  0  0  0  0  0  0
  184.7260  178.5640  147.2150 C   0  0  0  0  0  2  0  0  0  0  0  0
  185.3460  178.8850  145.8690 C   0  0  2  0  0  3  0  0  0  0  0  0
  185.5730  177.5920  145.0560 C   0  0  1  0  0  3  0  0  0  0  0  0
  187.6990  177.3900  146.2670 N   0  0  0  0  0  0  0  0  0  0  0  0
  188.7230  176.4290  146.6490 C   0  0  0  0  0  2  0  0  0  0  0  0
  189.7750  177.0850  147.2950 O   0  0  0  0  0  0  0  0  0  0  0  0
  192.2360  176.9590  144.7350 O   0  0  0  0  0  1  0  0  0  0  0  0
  192.3370  175.8390  145.5680 C   0  0  1  0  0  3  0  0  0  0  0  0
  192.9870  176.2050  146.8880 C   0  0  2  0  0  3  0  0  0  0  0  0
  192.0090  176.7880  147.7060 O   0  0  0  0  0  0  0  0  0  0  0  0
  190.9630  175.4500  146.0180 C   0  0  0  0  0  2  0  0  0  0  0  0
  190.8040  176.1400  147.3690 C   0  0  2  0  0  3  0  0  0  0  0  0
  194.1820  177.1320  146.7270 C   0  0  0  0  0  1  0  0  0  0  0  0
  191.4800  171.6680  143.8680 C   0  0  0  0  0  2  0  0  0  0  0  0
  192.8860  171.7080  143.2790 C   0  0  2  0  0  3  0  0  0  0  0  0
  193.7500  172.6680  144.0350 C   0  0  0  0  0  0  0  0  0  0  0  0
  194.4750  174.7030  142.6580 O   0  0  0  0  0  1  0  0  0  0  0  0
  193.8410  173.4950  142.9230 C   0  0  0  0  0  0  0  0  0  0  0  0
  192.9450  172.5900  142.1500 C   0  0  1  0  0  3  0  0  0  0  0  0
  194.2970  172.7360  145.4200 C   0  0  1  0  0  3  0  0  0  0  0  0
  193.9740  171.5750  146.1330 O   0  0  0  0  0  1  0  0  0  0  0  0
  196.2780  174.1960  145.6550 C   0  0  0  0  0  2  0  0  0  0  0  0
  195.7820  172.9720  145.4100 C   0  0  0  0  0  0  0  0  0  0  0  0
  196.6680  171.8470  144.9290 C   0  0  2  0  0  3  0  0  0  0  0  0
  196.6710  170.7790  142.6000 C   0  0  0  0  0  3  0  0  0  0  0  0
  197.5160  172.2340  141.1230 C   0  0  0  0  0  0  0  0  0  0  0  0
  196.9270  171.8520  143.4450 C   0  0  0  0  0  0  0  0  0  0  0  0
  197.0000  171.0000  141.3020 N   0  0  0  0  0  0  0  0  0  0  0  0
  197.5990  173.1130  142.5480 S   0  0  0  0  0  0  0  0  0  0  0  0
  197.9410  172.7240  139.8560 N   0  0  0  0  0  1  0  0  0  0  0  0
  196.9080  169.9150  146.4740 C   0  0  0  0  0  2  0  0  0  0  0  0
  196.2620  170.4990  145.4670 C   0  0  0  0  0  3  0  0  0  0  0  0
  193.6250  171.9620  140.9190 C   0  0  0  0  0  2  0  0  0  0  0  0
  192.7080  171.6980  139.7210 C   0  0  0  0  0  2  0  0  0  0  0  0
  192.0060  172.9440  139.2830 C   0  0  0  0  0  0  0  0  0  0  0  0
  190.7880  172.9620  139.2230 O   0  0  0  0  0  0  0  0  0  0  0  0
  192.7930  174.1680  138.9620 C   0  0  0  0  0  2  0  0  0  0  0  0
  193.6710  173.9230  137.7430 C   0  0  0  0  0  2  0  0  0  0  0  0
  195.1820  175.0350  139.1340 C   0  0  0  0  0  1  0  0  0  0  0  0
  195.0700  173.9880  138.1310 N   0  0  0  0  0  2  0  0  0  0  0  0
  1  2  1  0  0  0  0
  1 28  1  0  0  0  0
  3  9  1  6  0  0  0
  4  3  1  0  0  0  0
  4  5  1  0  0  0  0
  5  7  1  6  0  0  0
  6  8  1  0  0  0  0
  6  3  1  0  0  0  0
  8  5  1  0  0  0  0
  8  2  1  1  0  0  0
  9 10  1  0  0  0  0
 10 11  1  0  0  0  0
 12 18  1  0  0  0  0
 13 15  1  1  0  0  0
 13 14  1  0  0  0  0
 16 13  1  0  0  0  0
 16 15  1  1  0  0  0
 17 11  1  6  0  0  0
 17 12  1  0  0  0  0
 17 16  1  0  0  0  0
 18 19  1  0  0  0  0
 18 14  1  0  0  0  0
 19 20  1  0  0  0  0
 22 21  1  6  0  0  0
 22 25  1  0  0  0  0
 22 23  1  0  0  0  0
 23 27  1  6  0  0  0
 23 24  1  0  0  0  0
 25 26  1  0  0  0  0
 26 20  1  6  0  0  0
 26 24  1  0  0  0  0
 29 28  1  1  0  0  0
 29 30  1  0  0  0  0
 30 34  1  0  0  0  0
 31 32  1  0  0  0  0
 32 30  2  0  0  0  0
 33 47  1  6  0  0  0
 33 32  1  0  0  0  0
 33 29  1  0  0  0  0
 34 35  1  6  0  0  0
 37 34  1  0  0  0  0
 37 36  2  0  0  0  0
 38 37  1  0  0  0  0
 38 46  1  6  0  0  0
 39 41  2  0  0  0  0
 40 42  2  0  0  0  0
 40 43  1  0  0  0  0
 41 38  1  0  0  0  0
 42 39  1  0  0  0  0
 43 41  1  0  0  0  0
 44 40  1  0  0  0  0
 46 45  2  0  0  0  0
 48 47  1  0  0  0  0
 49 48  1  0  0  0  0
 50 49  2  0  0  0  0
 51 49  1  0  0  0  0
 52 54  1  0  0  0  0
 52 51  1  0  0  0  0
 54 53  1  0  0  0  0
M  END
>  <MODEL>
8

>  <REMARK>
 VINA RESULT:      -5.9      2.591      8.415
  Name = 
  22 active torsions:
  status: ('A' for Active; 'I' for Inactive)
    1  A    between atoms: C_1  and  C_20
    2  A    between atoms: C_1  and  C_54
    3  A    between atoms: C_2  and  C_18
    4  A    between atoms: C_2  and  C_49
    5  A    between atoms: C_2  and  C_52
    6  A    between atoms: C_3  and  C_48
    7  A    between atoms: N_4  and  N_6
    8  A    between atoms: N_4  and  C_44
    9  A    between atoms: N_6  and  C_9
   10  A    between atoms: C_7  and  C_20
   11  A    between atoms: C_7  and  C_39
   12  A    between atoms: O_10  and  C_21
   13  A    between atoms: O_10  and  C_43
   14  A    between atoms: C_14  and  C_23
   15  A    between atoms: C_14  and  C_49
   16  A    between atoms: N_17  and  C_24
   17  A    between atoms: C_19  and  C_48
   18  A    between atoms: C_19  and  C_51
   19  A    between atoms: C_21  and  N_53
   20  A    between atoms: C_24  and  C_39
   21  A    between atoms: C_38  and  C_51
   22  A    between atoms: C_44  and  C_45
                            x       y       z     vdW  Elec       q    Type
                         _______ _______ _______ _____ _____    ______ ____

>  <TORSDO>
F 22

$$$$
=
 OpenBabel11062418343D

 54 59  0  0  1  0  0  0  0  0999 V2000
  190.5210  172.4980  143.9780 C   0  0  0  0  0  2  0  0  0  0  0  0
  190.7600  171.2510  143.1400 C   0  0  0  0  0  2  0  0  0  0  0  0
  193.6290  170.4620  144.7100 C   0  0  2  0  0  3  0  0  0  0  0  0
  193.7350  169.3660  143.6700 C   0  0  0  0  0  2  0  0  0  0  0  0
  192.5690  169.6060  142.7380 C   0  0  2  0  0  3  0  0  0  0  0  0
  193.0710  171.6560  143.9640 C   0  0  0  0  0  2  0  0  0  0  0  0
  192.9320  169.2690  141.4330 O   0  0  0  0  0  1  0  0  0  0  0  0
  192.2390  171.0860  142.8250 C   0  0  2  0  0  3  0  0  0  0  0  0
  194.9380  170.7870  145.2620 N   0  0  0  0  0  2  0  0  0  0  0  0
  195.3180  172.0350  144.7420 N   0  0  0  0  0  2  0  0  0  0  0  0
  196.3170  172.5960  145.6340 C   0  0  0  0  0  2  0  0  0  0  0  0
  196.9360  174.8230  144.6590 C   0  0  0  0  0  2  0  0  0  0  0  0
  194.0850  175.4820  144.7680 C   0  0  2  0  0  3  0  0  0  0  0  0
  195.1540  176.0730  143.8530 C   0  0  0  0  0  2  0  0  0  0  0  0
  194.3870  175.8640  146.2030 C   0  0  0  0  0  2  0  0  0  0  0  0
  194.6080  174.4290  145.7680 C   0  0  2  0  0  3  0  0  0  0  0  0
  196.1170  174.0980  145.7390 C   0  0  1  0  0  3  0  0  0  0  0  0
  196.1220  175.0500  143.4760 N   0  0  0  0  0  0  0  0  0  0  0  0
  197.0020  175.6230  142.4670 C   0  0  0  0  0  2  0  0  0  0  0  0
  197.3420  174.6480  141.5230 O   0  0  0  0  0  0  0  0  0  0  0  0
  195.7400  172.7710  138.9670 O   0  0  0  0  0  1  0  0  0  0  0  0
  196.2500  173.9670  138.4500 C   0  0  1  0  0  3  0  0  0  0  0  0
  195.3780  175.1420  138.8480 C   0  0  2  0  0  3  0  0  0  0  0  0
  195.7130  175.5060  140.1590 O   0  0  0  0  0  0  0  0  0  0  0  0
  197.5240  174.2940  139.1660 C   0  0  0  0  0  2  0  0  0  0  0  0
  197.0920  175.2420  140.2810 C   0  0  2  0  0  3  0  0  0  0  0  0
  193.8900  174.8470  138.7320 C   0  0  0  0  0  1  0  0  0  0  0  0
  189.3930  173.3400  143.3930 C   0  0  0  0  0  2  0  0  0  0  0  0
  189.9030  174.2050  142.2460 C   0  0  2  0  0  3  0  0  0  0  0  0
  189.0730  175.4410  142.1040 C   0  0  0  0  0  0  0  0  0  0  0  0
  187.7400  175.5390  139.9180 O   0  0  0  0  0  1  0  0  0  0  0  0
  188.6110  175.0140  140.8660 C   0  0  0  0  0  0  0  0  0  0  0  0
  189.3860  173.7480  140.9890 C   0  0  1  0  0  3  0  0  0  0  0  0
  188.8190  176.6490  142.9400 C   0  0  1  0  0  3  0  0  0  0  0  0
  188.8610  177.8070  142.1540 O   0  0  0  0  0  1  0  0  0  0  0  0
  186.4100  176.1060  143.0440 C   0  0  0  0  0  2  0  0  0  0  0  0
  187.5130  176.5390  143.6760 C   0  0  0  0  0  0  0  0  0  0  0  0
  187.4440  177.1090  145.0740 C   0  0  2  0  0  3  0  0  0  0  0  0
  189.5660  177.6970  146.3840 C   0  0  0  0  0  3  0  0  0  0  0  0
  190.4150  175.8320  147.2860 C   0  0  0  0  0  0  0  0  0  0  0  0
  188.6280  176.7710  145.9400 C   0  0  0  0  0  0  0  0  0  0  0  0
  190.5610  177.1650  147.1380 N   0  0  0  0  0  0  0  0  0  0  0  0
  189.0620  175.2380  146.4950 S   0  0  0  0  0  0  0  0  0  0  0  0
  191.3210  175.0280  148.0330 N   0  0  0  0  0  1  0  0  0  0  0  0
  185.8270  177.3860  146.9420 C   0  0  0  0  0  2  0  0  0  0  0  0
  186.1150  176.8740  145.7460 C   0  0  0  0  0  3  0  0  0  0  0  0
  190.4690  173.5860  139.9060 C   0  0  0  0  0  2  0  0  0  0  0  0
  190.1530  172.5710  138.8030 C   0  0  0  0  0  2  0  0  0  0  0  0
  190.6670  173.0250  137.4750 C   0  0  0  0  0  0  0  0  0  0  0  0
  190.5720  174.1990  137.1590 O   0  0  0  0  0  0  0  0  0  0  0  0
  191.3300  172.0520  136.5610 C   0  0  0  0  0  2  0  0  0  0  0  0
  191.6840  172.7260  135.2430 C   0  0  0  0  0  2  0  0  0  0  0  0
  193.9300  172.3780  135.7790 C   0  0  0  0  0  1  0  0  0  0  0  0
  192.9340  172.1820  134.7390 N   0  0  0  0  0  2  0  0  0  0  0  0
  2  1  1  0  0  0  0
  3  9  1  6  0  0  0
  4  3  1  0  0  0  0
  5  7  1  6  0  0  0
  5  8  1  0  0  0  0
  5  4  1  0  0  0  0
  6  3  1  0  0  0  0
  8  2  1  1  0  0  0
  8  6  1  0  0  0  0
 10  9  1  0  0  0  0
 10 11  1  0  0  0  0
 12 17  1  0  0  0  0
 13 14  1  6  0  0  0
 13 16  1  0  0  0  0
 13 15  1  0  0  0  0
 16 15  1  1  0  0  0
 17 11  1  6  0  0  0
 17 16  1  0  0  0  0
 18 14  1  0  0  0  0
 18 12  1  0  0  0  0
 19 18  1  0  0  0  0
 20 19  1  0  0  0  0
 22 23  1  0  0  0  0
 22 21  1  1  0  0  0
 22 25  1  0  0  0  0
 23 27  1  1  0  0  0
 23 24  1  0  0  0  0
 24 26  1  0  0  0  0
 25 26  1  0  0  0  0
 26 20  1  1  0  0  0
 28  1  1  0  0  0  0
 29 28  1  1  0  0  0
 30 29  1  0  0  0  0
 30 34  1  0  0  0  0
 31 32  1  0  0  0  0
 32 33  1  0  0  0  0
 32 30  2  0  0  0  0
 33 47  1  6  0  0  0
 33 29  1  0  0  0  0
 34 35  1  6  0  0  0
 34 37  1  0  0  0  0
 36 37  2  0  0  0  0
 37 38  1  0  0  0  0
 38 46  1  1  0  0  0
 38 41  1  0  0  0  0
 39 42  1  0  0  0  0
 40 44  1  0  0  0  0
 41 39  2  0  0  0  0
 41 43  1  0  0  0  0
 42 40  2  0  0  0  0
 43 40  1  0  0  0  0
 46 45  2  0  0  0  0
 48 47  1  0  0  0  0
 49 48  1  0  0  0  0
 50 49  2  0  0  0  0
 51 49  1  0  0  0  0
 52 51  1  0  0  0  0
 54 52  1  0  0  0  0
 54 53  1  0  0  0  0
M  END
>  <MODEL>
9

>  <REMARK>
 VINA RESULT:      -5.9      2.875      6.630
  Name = 
  22 active torsions:
  status: ('A' for Active; 'I' for Inactive)
    1  A    between atoms: C_1  and  C_20
    2  A    between atoms: C_1  and  C_54
    3  A    between atoms: C_2  and  C_18
    4  A    between atoms: C_2  and  C_49
    5  A    between atoms: C_2  and  C_52
    6  A    between atoms: C_3  and  C_48
    7  A    between atoms: N_4  and  N_6
    8  A    between atoms: N_4  and  C_44
    9  A    between atoms: N_6  and  C_9
   10  A    between atoms: C_7  and  C_20
   11  A    between atoms: C_7  and  C_39
   12  A    between atoms: O_10  and  C_21
   13  A    between atoms: O_10  and  C_43
   14  A    between atoms: C_14  and  C_23
   15  A    between atoms: C_14  and  C_49
   16  A    between atoms: N_17  and  C_24
   17  A    between atoms: C_19  and  C_48
   18  A    between atoms: C_19  and  C_51
   19  A    between atoms: C_21  and  N_53
   20  A    between atoms: C_24  and  C_39
   21  A    between atoms: C_38  and  C_51
   22  A    between atoms: C_44  and  C_45
                            x       y       z     vdW  Elec       q    Type
                         _______ _______ _______ _____ _____    ______ ____

>  <TORSDO>
F 22

$$$$
