=
 OpenBabel11062422063D

 34 39  0  0  1  0  0  0  0  0999 V2000
  189.7810  175.1780  143.5040 C   0  0  0  0  0  0  0  0  0  0  0  0
  192.3170  174.6680  143.1660 C   0  0  2  0  0  3  0  0  0  0  0  0
  191.2220  172.9560  141.7600 C   0  0  0  0  0  0  0  0  0  0  0  0
  188.6430  175.7790  144.2620 C   0  0  0  0  0  0  0  0  0  0  0  0
  191.8760  176.0070  146.0350 C   0  0  0  0  0  2  0  0  0  0  0  0
  184.4190  178.3130  145.4450 C   0  0  0  0  0  0  0  0  0  0  0  0
  189.1940  173.5040  140.4630 N   0  0  0  0  0  2  0  0  0  0  0  0
  189.5720  175.0880  146.5670 C   0  0  2  0  0  3  0  0  0  0  0  0
  191.1730  175.1170  144.1170 C   0  0  1  0  0  3  0  0  0  0  0  0
  191.3300  175.4710  148.3450 C   0  0  0  0  0  1  0  0  0  0  0  0
  191.4600  176.3420  144.7380 O   0  0  0  0  0  0  0  0  0  0  0  0
  190.2880  177.4370  147.3160 C   0  0  0  0  0  1  0  0  0  0  0  0
  187.4680  176.4100  146.3090 C   0  0  0  0  0  3  0  0  0  0  0  0
  186.5620  177.0540  144.1580 C   0  0  0  0  0  0  0  0  0  0  0  0
  185.5730  177.6910  143.4050 C   0  0  0  0  0  3  0  0  0  0  0  0
  188.3890  174.1890  141.4450 C   0  0  0  0  0  2  0  0  0  0  0  0
  188.5520  175.7700  145.6820 C   0  0  0  0  0  0  0  0  0  0  0  0
  186.4800  177.0480  145.5630 C   0  0  0  0  0  0  0  0  0  0  0  0
  188.9340  174.4330  147.6270 O   0  0  0  0  0  1  0  0  0  0  0  0
  192.1440  173.3110  142.7470 O   0  0  0  0  0  0  0  0  0  0  0  0
  191.1660  171.7340  141.3420 N   0  0  0  0  0  2  0  0  0  0  0  0
  190.3340  174.0140  141.1840 C   0  0  1  0  0  3  0  0  0  0  0  0
  185.4080  177.6770  146.2030 C   0  0  0  0  0  3  0  0  0  0  0  0
  189.5470  174.6350  142.3010 C   0  0  0  0  0  0  0  0  0  0  0  0
  183.3800  178.9230  146.0640 F   0  0  0  0  0  0  0  0  0  0  0  0
  184.5020  178.3200  144.0480 C   0  0  0  0  0  3  0  0  0  0  0  0
  190.7340  176.0050  147.0510 C   0  0  0  0  0  0  0  0  0  0  0  0
  187.6350  176.4290  143.5270 C   0  0  0  0  0  3  0  0  0  0  0  0
  194.3810  175.7680  143.5240 O   0  0  0  0  0  0  0  0  0  0  0  0
  193.6710  174.8100  143.7930 C   0  0  0  0  0  0  0  0  0  0  0  0
  194.1530  173.7630  144.7420 C   0  0  0  0  0  2  0  0  0  0  0  0
  196.1220  172.5710  145.6380 C   0  0  0  0  0  2  0  0  0  0  0  0
  196.3110  174.0480  145.9040 C   0  0  0  0  0  2  0  0  0  0  0  0
  195.6550  173.5900  144.6180 C   0  0  0  0  0  3  0  0  0  0  0  0
  1  4  1  0  0  0  0
  2 30  1  1  0  0  0
  2  9  1  0  0  0  0
  3 20  1  0  0  0  0
  4 17  1  0  0  0  0
  5 27  1  0  0  0  0
  6 25  1  0  0  0  0
  6 23  1  0  0  0  0
  7 16  1  0  0  0  0
  8 27  1  0  0  0  0
  8 19  1  1  0  0  0
  9  1  1  6  0  0  0
  9 11  1  0  0  0  0
 11  5  1  0  0  0  0
 14 18  1  0  0  0  0
 15 26  1  0  0  0  0
 15 14  2  0  0  0  0
 16 24  1  0  0  0  0
 17 13  2  0  0  0  0
 17  8  1  0  0  0  0
 18 23  2  0  0  0  0
 18 13  1  0  0  0  0
 20  2  1  0  0  0  0
 21  3  2  0  0  0  0
 22  7  1  6  0  0  0
 22  3  1  0  0  0  0
 22 24  1  0  0  0  0
 24  1  2  0  0  0  0
 26  6  2  0  0  0  0
 27 12  1  0  0  0  0
 27 10  1  0  0  0  0
 28 14  1  0  0  0  0
 28  4  2  0  0  0  0
 29 30  2  0  0  0  0
 30 31  1  0  0  0  0
 32 33  1  0  0  0  0
 34 31  1  0  0  0  0
 34 32  1  0  0  0  0
 34 33  1  0  0  0  0
M  END
>  <MODEL>
1

>  <REMARK>
 VINA RESULT:      -9.5      0.000      0.000
  Name = 
  3 active torsions:
  status: ('A' for Active; 'I' for Inactive)
    1  A    between atoms: C_3  and  C_4
    2  A    between atoms: C_4  and  C_7
    3  A    between atoms: C_7  and  C_33
                            x       y       z     vdW  Elec       q    Type
                         _______ _______ _______ _____ _____    ______ ____

>  <TORSDO>
F 3

$$$$
=
 OpenBabel11062422063D

 34 39  0  0  1  0  0  0  0  0999 V2000
  189.7230  175.2580  143.5040 C   0  0  0  0  0  0  0  0  0  0  0  0
  192.2560  174.7490  143.1420 C   0  0  2  0  0  3  0  0  0  0  0  0
  191.1490  173.0670  141.7080 C   0  0  0  0  0  0  0  0  0  0  0  0
  188.5910  175.8460  144.2810 C   0  0  0  0  0  0  0  0  0  0  0  0
  191.8350  176.0320  146.0390 C   0  0  0  0  0  2  0  0  0  0  0  0
  184.3800  178.3660  145.5370 C   0  0  0  0  0  0  0  0  0  0  0  0
  189.1150  173.6460  140.4340 N   0  0  0  0  0  2  0  0  0  0  0  0
  189.5320  175.1080  146.5650 C   0  0  2  0  0  3  0  0  0  0  0  0
  191.1190  175.1810  144.1080 C   0  0  1  0  0  3  0  0  0  0  0  0
  191.3010  175.4510  148.3400 C   0  0  0  0  0  1  0  0  0  0  0  0
  191.4130  176.3930  144.7510 O   0  0  0  0  0  0  0  0  0  0  0  0
  190.2580  177.4400  147.3570 C   0  0  0  0  0  1  0  0  0  0  0  0
  187.4290  176.4390  146.3460 C   0  0  0  0  0  3  0  0  0  0  0  0
  186.5130  177.1280  144.2140 C   0  0  0  0  0  0  0  0  0  0  0  0
  185.5210  177.7820  143.4790 C   0  0  0  0  0  3  0  0  0  0  0  0
  188.3170  174.3130  141.4340 C   0  0  0  0  0  2  0  0  0  0  0  0
  188.5080  175.8100  145.7010 C   0  0  0  0  0  0  0  0  0  0  0  0
  186.4390  177.0940  145.6190 C   0  0  0  0  0  0  0  0  0  0  0  0
  188.8980  174.4330  147.6170 O   0  0  0  0  0  1  0  0  0  0  0  0
  192.0770  173.4010  142.6970 O   0  0  0  0  0  0  0  0  0  0  0  0
  191.0880  171.8540  141.2660 N   0  0  0  0  0  2  0  0  0  0  0  0
  190.2600  174.1380  141.1590 C   0  0  1  0  0  3  0  0  0  0  0  0
  185.3720  177.7130  146.2770 C   0  0  0  0  0  3  0  0  0  0  0  0
  189.4810  174.7390  142.2920 C   0  0  0  0  0  0  0  0  0  0  0  0
  183.3470  178.9660  146.1740 F   0  0  0  0  0  0  0  0  0  0  0  0
  184.4550  178.4010  144.1400 C   0  0  0  0  0  3  0  0  0  0  0  0
  190.6990  176.0120  147.0610 C   0  0  0  0  0  0  0  0  0  0  0  0
  187.5810  176.5140  143.5640 C   0  0  0  0  0  3  0  0  0  0  0  0
  194.0130  174.0340  144.5560 O   0  0  0  0  0  0  0  0  0  0  0  0
  193.6140  174.8750  143.7630 C   0  0  0  0  0  0  0  0  0  0  0  0
  194.4740  176.0440  143.4150 C   0  0  0  0  0  2  0  0  0  0  0  0
  196.8180  176.7920  143.1900 C   0  0  0  0  0  2  0  0  0  0  0  0
  196.7390  175.3570  142.7170 C   0  0  0  0  0  2  0  0  0  0  0  0
  195.8970  175.8130  143.8890 C   0  0  0  0  0  3  0  0  0  0  0  0
  1  4  1  0  0  0  0
  2 30  1  1  0  0  0
  2  9  1  0  0  0  0
  3 20  1  0  0  0  0
  4 17  1  0  0  0  0
  5 27  1  0  0  0  0
  6 25  1  0  0  0  0
  6 23  1  0  0  0  0
  7 16  1  0  0  0  0
  8 27  1  0  0  0  0
  8 19  1  1  0  0  0
  9  1  1  6  0  0  0
  9 11  1  0  0  0  0
 11  5  1  0  0  0  0
 14 18  1  0  0  0  0
 15 26  1  0  0  0  0
 15 14  2  0  0  0  0
 16 24  1  0  0  0  0
 17 13  2  0  0  0  0
 17  8  1  0  0  0  0
 18 23  2  0  0  0  0
 18 13  1  0  0  0  0
 20  2  1  0  0  0  0
 21  3  2  0  0  0  0
 22  7  1  6  0  0  0
 22  3  1  0  0  0  0
 22 24  1  0  0  0  0
 24  1  2  0  0  0  0
 26  6  2  0  0  0  0
 27 12  1  0  0  0  0
 27 10  1  0  0  0  0
 28 14  1  0  0  0  0
 28  4  2  0  0  0  0
 30 29  2  0  0  0  0
 31 30  1  0  0  0  0
 31 34  1  0  0  0  0
 32 34  1  0  0  0  0
 33 32  1  0  0  0  0
 33 34  1  0  0  0  0
M  END
>  <MODEL>
2

>  <REMARK>
 VINA RESULT:      -9.4      0.999      1.254
  Name = 
  3 active torsions:
  status: ('A' for Active; 'I' for Inactive)
    1  A    between atoms: C_3  and  C_4
    2  A    between atoms: C_4  and  C_7
    3  A    between atoms: C_7  and  C_33
                            x       y       z     vdW  Elec       q    Type
                         _______ _______ _______ _____ _____    ______ ____

>  <TORSDO>
F 3

$$$$
=
 OpenBabel11062422063D

 34 39  0  0  1  0  0  0  0  0999 V2000
  189.9900  175.5310  145.5490 C   0  0  0  0  0  0  0  0  0  0  0  0
  191.7510  173.6740  145.0460 C   0  0  2  0  0  3  0  0  0  0  0  0
  193.0620  175.3430  146.3140 C   0  0  0  0  0  0  0  0  0  0  0  0
  188.7000  176.2370  145.2830 C   0  0  0  0  0  0  0  0  0  0  0  0
  189.5160  173.6630  142.7620 C   0  0  0  0  0  2  0  0  0  0  0  0
  184.2010  178.4830  145.8900 C   0  0  0  0  0  0  0  0  0  0  0  0
  192.0510  176.5540  148.2130 N   0  0  0  0  0  2  0  0  0  0  0  0
  188.9610  176.1380  142.7190 C   0  0  2  0  0  3  0  0  0  0  0  0
  190.5190  174.4920  144.5700 C   0  0  1  0  0  3  0  0  0  0  0  0
  188.9300  174.7000  140.6400 C   0  0  0  0  0  1  0  0  0  0  0  0
  189.4650  173.6600  144.1630 O   0  0  0  0  0  0  0  0  0  0  0  0
  187.1650  174.3510  142.3060 C   0  0  0  0  0  1  0  0  0  0  0  0
  186.9480  177.1180  143.8280 C   0  0  0  0  0  3  0  0  0  0  0  0
  186.6860  177.2420  146.2310 C   0  0  0  0  0  0  0  0  0  0  0  0
  185.9330  177.6150  147.3480 C   0  0  0  0  0  3  0  0  0  0  0  0
  190.7830  176.9660  147.6630 C   0  0  0  0  0  2  0  0  0  0  0  0
  188.1990  176.4950  143.9770 C   0  0  0  0  0  0  0  0  0  0  0  0
  186.1930  177.4900  144.9370 C   0  0  0  0  0  0  0  0  0  0  0  0
  188.8330  177.1590  141.7690 O   0  0  0  0  0  1  0  0  0  0  0  0
  192.9020  174.5100  145.2050 O   0  0  0  0  0  0  0  0  0  0  0  0
  194.1600  176.0080  146.4670 N   0  0  0  0  0  2  0  0  0  0  0  0
  191.9600  175.4230  147.3240 C   0  0  1  0  0  3  0  0  0  0  0  0
  184.9510  178.1100  144.7700 C   0  0  0  0  0  3  0  0  0  0  0  0
  190.7080  175.8720  146.6280 C   0  0  0  0  0  0  0  0  0  0  0  0
  182.9980  179.0830  145.7300 F   0  0  0  0  0  0  0  0  0  0  0  0
  184.6910  178.2350  147.1780 C   0  0  0  0  0  3  0  0  0  0  0  0
  188.6290  174.7360  142.1300 C   0  0  0  0  0  0  0  0  0  0  0  0
  187.9220  176.6200  146.3910 C   0  0  0  0  0  3  0  0  0  0  0  0
  191.6800  171.4250  144.3150 O   0  0  0  0  0  0  0  0  0  0  0  0
  192.0940  172.5570  144.1080 C   0  0  0  0  0  0  0  0  0  0  0  0
  192.9570  172.8330  142.9220 C   0  0  0  0  0  2  0  0  0  0  0  0
  193.6980  171.9890  140.7220 C   0  0  0  0  0  2  0  0  0  0  0  0
  192.3430  172.6370  140.5400 C   0  0  0  0  0  2  0  0  0  0  0  0
  192.6450  171.8570  141.8020 C   0  0  0  0  0  3  0  0  0  0  0  0
  1 24  2  0  0  0  0
  2 30  1  6  0  0  0
  2 20  1  0  0  0  0
  3 21  2  0  0  0  0
  4  1  1  0  0  0  0
  4 28  1  0  0  0  0
  5 11  1  0  0  0  0
  6 26  1  0  0  0  0
  8 19  1  6  0  0  0
  8 17  1  0  0  0  0
  9 11  1  1  0  0  0
  9  2  1  0  0  0  0
  9  1  1  0  0  0  0
 10 27  1  0  0  0  0
 13 17  1  0  0  0  0
 13 18  2  0  0  0  0
 14 28  2  0  0  0  0
 14 15  1  0  0  0  0
 16  7  1  0  0  0  0
 17  4  2  0  0  0  0
 18 14  1  0  0  0  0
 20  3  1  0  0  0  0
 22  3  1  6  0  0  0
 22  7  1  0  0  0  0
 23 18  1  0  0  0  0
 23  6  2  0  0  0  0
 24 22  1  0  0  0  0
 24 16  1  0  0  0  0
 25  6  1  0  0  0  0
 26 15  2  0  0  0  0
 27 12  1  0  0  0  0
 27  8  1  0  0  0  0
 27  5  1  0  0  0  0
 30 29  2  0  0  0  0
 31 30  1  0  0  0  0
 32 34  1  0  0  0  0
 33 32  1  0  0  0  0
 33 34  1  0  0  0  0
 34 31  1  0  0  0  0
M  END
>  <MODEL>
3

>  <REMARK>
 VINA RESULT:      -8.4      2.606      4.593
  Name = 
  3 active torsions:
  status: ('A' for Active; 'I' for Inactive)
    1  A    between atoms: C_3  and  C_4
    2  A    between atoms: C_4  and  C_7
    3  A    between atoms: C_7  and  C_33
                            x       y       z     vdW  Elec       q    Type
                         _______ _______ _______ _____ _____    ______ ____

>  <TORSDO>
F 3

$$$$
=
 OpenBabel11062422063D

 34 40  0  0  1  0  0  0  0  0999 V2000
  190.0350  175.7250  145.4240 C   0  0  0  0  0  0  0  0  0  0  0  0
  191.8370  173.9320  144.8420 C   0  0  2  0  0  3  0  0  0  0  0  0
  193.1360  175.6310  146.0810 C   0  0  0  0  0  0  0  0  0  0  0  0
  188.7140  176.3890  145.2100 C   0  0  0  0  0  0  0  0  0  0  0  0
  189.5260  173.8670  142.6360 C   0  0  0  0  0  2  0  0  0  0  0  0
  184.1670  178.4790  145.9960 C   0  0  0  0  0  0  0  0  0  0  0  0
  192.1520  176.7910  148.0260 N   0  0  0  0  0  2  0  0  0  0  0  0
  188.8880  176.3230  142.6380 C   0  0  2  0  0  3  0  0  0  0  0  0
  190.5630  174.7130  144.4170 C   0  0  1  0  0  3  0  0  0  0  0  0
  188.8320  174.9030  140.5460 C   0  0  0  0  0  1  0  0  0  0  0  0
  189.5240  173.8490  144.0380 O   0  0  0  0  0  0  0  0  0  0  0  0
  187.1390  174.4810  142.2690 C   0  0  0  0  0  1  0  0  0  0  0  0
  186.8840  177.2260  143.8250 C   0  0  0  0  0  3  0  0  0  0  0  0
  186.7020  177.3180  146.2380 C   0  0  0  0  0  0  0  0  0  0  0  0
  185.9770  177.6550  147.3840 C   0  0  0  0  0  3  0  0  0  0  0  0
  190.8530  177.1650  147.5240 C   0  0  2  0  0  3  0  0  0  0  0  0
  188.1590  176.6430  143.9250 C   0  0  0  0  0  0  0  0  0  0  0  0
  186.1560  177.5620  144.9640 C   0  0  0  0  0  0  0  0  0  0  0  0
  188.6940  177.3470  141.7030 O   0  0  0  0  0  1  0  0  0  0  0  0
  192.9650  174.8040  144.9690 O   0  0  0  0  0  0  0  0  0  0  0  0
  194.2160  176.3310  146.2030 N   0  0  0  0  0  2  0  0  0  0  0  0
  192.0670  175.6650  147.1290 C   0  0  1  0  0  0  0  0  0  0  0  0
  184.8890  178.1420  144.8460 C   0  0  0  0  0  3  0  0  0  0  0  0
  190.7780  176.0790  146.4820 C   0  0  0  0  0  0  0  0  0  0  0  0
  182.9400  179.0410  145.8830 F   0  0  0  0  0  0  0  0  0  0  0  0
  184.7100  178.2360  147.2620 C   0  0  0  0  0  3  0  0  0  0  0  0
  188.5820  174.9150  142.0470 C   0  0  0  0  0  0  0  0  0  0  0  0
  187.9620  176.7360  146.3480 C   0  0  0  0  0  3  0  0  0  0  0  0
  192.6670  173.0970  142.7890 O   0  0  0  0  0  0  0  0  0  0  0  0
  192.1840  172.8350  143.8810 C   0  0  0  0  0  0  0  0  0  0  0  0
  191.9220  171.4160  144.2630 C   0  0  0  0  0  2  0  0  0  0  0  0
  193.0670  169.2600  144.6370 C   0  0  0  0  0  2  0  0  0  0  0  0
  194.0490  170.3680  144.9460 C   0  0  0  0  0  2  0  0  0  0  0  0
  193.0640  170.5270  143.8070 C   0  0  0  0  0  3  0  0  0  0  0  0
  1 24  2  0  0  0  0
  2 30  1  6  0  0  0
  2 20  1  0  0  0  0
  3 21  2  0  0  0  0
  4  1  1  0  0  0  0
  4 28  1  0  0  0  0
  5 11  1  0  0  0  0
  6 26  1  0  0  0  0
  8 19  1  6  0  0  0
  8 17  1  0  0  0  0
  9 11  1  1  0  0  0
  9  2  1  0  0  0  0
  9  1  1  0  0  0  0
 10 27  1  0  0  0  0
 13 17  1  0  0  0  0
 13 18  2  0  0  0  0
 14 28  2  0  0  0  0
 14 15  1  0  0  0  0
 16 24  1  6  0  0  0
 16  7  1  0  0  0  0
 17  4  2  0  0  0  0
 18 14  1  0  0  0  0
 20  3  1  0  0  0  0
 22  3  1  6  0  0  0
 22 16  1  0  0  0  0
 22  7  1  0  0  0  0
 23 18  1  0  0  0  0
 23  6  2  0  0  0  0
 24 22  1  0  0  0  0
 25  6  1  0  0  0  0
 26 15  2  0  0  0  0
 27 12  1  0  0  0  0
 27  5  1  0  0  0  0
 27  8  1  0  0  0  0
 29 30  2  0  0  0  0
 30 31  1  0  0  0  0
 32 33  1  0  0  0  0
 34 31  1  0  0  0  0
 34 32  1  0  0  0  0
 34 33  1  0  0  0  0
M  END
>  <MODEL>
4

>  <REMARK>
 VINA RESULT:      -8.2      2.646      4.426
  Name = 
  3 active torsions:
  status: ('A' for Active; 'I' for Inactive)
    1  A    between atoms: C_3  and  C_4
    2  A    between atoms: C_4  and  C_7
    3  A    between atoms: C_7  and  C_33
                            x       y       z     vdW  Elec       q    Type
                         _______ _______ _______ _____ _____    ______ ____

>  <TORSDO>
F 3

$$$$
=
 OpenBabel11062422063D

 34 39  0  0  1  0  0  0  0  0999 V2000
  190.2810  175.4810  144.6500 C   0  0  0  0  0  0  0  0  0  0  0  0
  188.6880  177.3110  143.6930 C   0  0  2  0  0  3  0  0  0  0  0  0
  188.3190  177.4850  146.1310 C   0  0  0  0  0  0  0  0  0  0  0  0
  191.1020  174.2400  144.5140 C   0  0  0  0  0  0  0  0  0  0  0  0
  189.0770  175.0000  141.5200 C   0  0  0  0  0  2  0  0  0  0  0  0
  194.9080  170.9070  144.7620 C   0  0  0  0  0  0  0  0  0  0  0  0
  190.2020  177.2250  147.7070 N   0  0  0  0  0  2  0  0  0  0  0  0
  189.3470  173.0150  143.0750 C   0  0  2  0  0  3  0  0  0  0  0  0
  189.3290  175.9040  143.5400 C   0  0  1  0  0  3  0  0  0  0  0  0
  188.1960  172.8390  140.8310 C   0  0  0  0  0  1  0  0  0  0  0  0
  189.9670  175.7530  142.3000 O   0  0  0  0  0  0  0  0  0  0  0  0
  190.6260  173.1650  140.8540 C   0  0  0  0  0  1  0  0  0  0  0  0
  191.5580  172.0030  143.6480 C   0  0  0  0  0  3  0  0  0  0  0  0
  193.2160  173.1210  145.0120 C   0  0  0  0  0  0  0  0  0  0  0  0
  194.4680  173.1270  145.6320 C   0  0  0  0  0  3  0  0  0  0  0  0
  190.8500  176.0380  147.2040 C   0  0  0  0  0  2  0  0  0  0  0  0
  190.6930  173.1040  143.7620 C   0  0  0  0  0  0  0  0  0  0  0  0
  192.8080  172.0030  144.2620 C   0  0  0  0  0  0  0  0  0  0  0  0
  188.8130  171.7290  143.2220 O   0  0  0  0  0  1  0  0  0  0  0  0
  187.8220  177.3690  144.8310 O   0  0  0  0  0  0  0  0  0  0  0  0
  187.5020  177.6320  147.1220 N   0  0  0  0  0  2  0  0  0  0  0  0
  189.8010  177.4670  146.3440 C   0  0  1  0  0  3  0  0  0  0  0  0
  193.6560  170.8980  144.1390 C   0  0  0  0  0  3  0  0  0  0  0  0
  190.3460  176.1830  145.7900 C   0  0  0  0  0  0  0  0  0  0  0  0
  195.7300  169.8370  144.6440 F   0  0  0  0  0  0  0  0  0  0  0  0
  195.3130  172.0200  145.5080 C   0  0  0  0  0  3  0  0  0  0  0  0
  189.3360  173.4960  141.5950 C   0  0  0  0  0  0  0  0  0  0  0  0
  192.3690  174.2210  145.1270 C   0  0  0  0  0  3  0  0  0  0  0  0
  188.4420  178.3920  141.6030 O   0  0  0  0  0  0  0  0  0  0  0  0
  187.9130  177.7220  142.4770 C   0  0  0  0  0  0  0  0  0  0  0  0
  186.4820  177.3160  142.3480 C   0  0  0  0  0  2  0  0  0  0  0  0
  184.4900  178.3100  143.4180 C   0  0  0  0  0  2  0  0  0  0  0  0
  184.1910  178.1370  141.9450 C   0  0  0  0  0  2  0  0  0  0  0  0
  185.5810  178.5360  142.3920 C   0  0  0  0  0  3  0  0  0  0  0  0
  1 24  2  0  0  0  0
  2 30  1  6  0  0  0
  2 20  1  0  0  0  0
  3 22  1  0  0  0  0
  3 21  2  0  0  0  0
  4  1  1  0  0  0  0
  4 28  1  0  0  0  0
  5 27  1  0  0  0  0
  5 11  1  0  0  0  0
  6 26  1  0  0  0  0
  8 19  1  6  0  0  0
  8 17  1  0  0  0  0
  9 11  1  6  0  0  0
  9  2  1  0  0  0  0
  9  1  1  0  0  0  0
 10 27  1  0  0  0  0
 12 27  1  0  0  0  0
 13 17  1  0  0  0  0
 13 18  2  0  0  0  0
 14 28  2  0  0  0  0
 14 15  1  0  0  0  0
 16  7  1  0  0  0  0
 17  4  2  0  0  0  0
 18 14  1  0  0  0  0
 20  3  1  0  0  0  0
 22 24  1  6  0  0  0
 22  7  1  0  0  0  0
 23 18  1  0  0  0  0
 23  6  2  0  0  0  0
 24 16  1  0  0  0  0
 25  6  1  0  0  0  0
 26 15  2  0  0  0  0
 27  8  1  0  0  0  0
 29 30  2  0  0  0  0
 31 34  1  0  0  0  0
 31 30  1  0  0  0  0
 33 34  1  0  0  0  0
 33 32  1  0  0  0  0
 34 32  1  0  0  0  0
M  END
>  <MODEL>
5

>  <REMARK>
 VINA RESULT:      -7.9      3.808      8.172
  Name = 
  3 active torsions:
  status: ('A' for Active; 'I' for Inactive)
    1  A    between atoms: C_3  and  C_4
    2  A    between atoms: C_4  and  C_7
    3  A    between atoms: C_7  and  C_33
                            x       y       z     vdW  Elec       q    Type
                         _______ _______ _______ _____ _____    ______ ____

>  <TORSDO>
F 3

$$$$
=
 OpenBabel11062422063D

 34 40  0  0  1  0  0  0  0  0999 V2000
  191.8640  173.6260  143.7950 C   0  0  0  0  0  0  0  0  0  0  0  0
  190.1390  175.5760  143.6320 C   0  0  2  0  0  3  0  0  0  0  0  0
  189.6240  174.2190  141.6310 C   0  0  0  0  0  0  0  0  0  0  0  0
  193.1340  173.0230  144.3010 C   0  0  0  0  0  0  0  0  0  0  0  0
  192.7350  176.5840  145.2000 C   0  0  0  0  0  2  0  0  0  0  0  0
  196.5050  169.8120  146.2980 C   0  0  0  0  0  0  0  0  0  0  0  0
  189.7180  171.7540  141.7260 N   0  0  0  0  0  2  0  0  0  0  0  0
  194.4960  175.1940  144.0160 C   0  0  2  0  0  3  0  0  0  0  0  0
  191.5710  175.1040  144.0090 C   0  0  1  0  0  3  0  0  0  0  0  0
  194.9450  177.5390  144.8480 C   0  0  0  0  0  1  0  0  0  0  0  0
  191.9080  175.4580  145.3240 O   0  0  0  0  0  0  0  0  0  0  0  0
  194.6850  175.7580  146.5130 C   0  0  0  0  0  1  0  0  0  0  0  0
  195.4800  173.1080  144.9740 C   0  0  0  0  0  3  0  0  0  0  0  0
  194.2310  171.0500  145.2360 C   0  0  0  0  0  0  0  0  0  0  0  0
  194.1750  169.7120  145.6320 C   0  0  0  0  0  3  0  0  0  0  0  0
  190.9790  171.5300  142.3890 C   0  0  2  0  0  3  0  0  0  0  0  0
  194.3500  173.7480  144.4370 C   0  0  0  0  0  0  0  0  0  0  0  0
  195.4300  171.7740  145.3730 C   0  0  0  0  0  0  0  0  0  0  0  0
  195.7350  175.3960  143.3950 O   0  0  0  0  0  1  0  0  0  0  0  0
  189.9030  175.4510  142.2260 O   0  0  0  0  0  0  0  0  0  0  0  0
  189.3210  174.1650  140.3750 N   0  0  0  0  0  2  0  0  0  0  0  0
  189.6530  172.9840  142.4750 C   0  0  1  0  0  0  0  0  0  0  0  0
  196.5640  171.1530  145.9040 C   0  0  0  0  0  3  0  0  0  0  0  0
  191.0150  172.8620  143.0930 C   0  0  0  0  0  0  0  0  0  0  0  0
  197.6030  169.2090  146.8130 F   0  0  0  0  0  0  0  0  0  0  0  0
  195.3120  169.0930  146.1630 C   0  0  0  0  0  3  0  0  0  0  0  0
  194.2220  176.2340  145.1420 C   0  0  0  0  0  0  0  0  0  0  0  0
  193.1030  171.6770  144.7100 C   0  0  0  0  0  3  0  0  0  0  0  0
  190.2890  177.9210  143.3590 O   0  0  0  0  0  0  0  0  0  0  0  0
  189.8770  176.9940  144.0400 C   0  0  0  0  0  0  0  0  0  0  0  0
  189.1170  177.2670  145.2950 C   0  0  0  0  0  2  0  0  0  0  0  0
  187.4320  176.4160  146.8890 C   0  0  0  0  0  2  0  0  0  0  0  0
  188.6390  175.5060  146.9570 C   0  0  0  0  0  2  0  0  0  0  0  0
  188.2110  176.0960  145.6300 C   0  0  0  0  0  3  0  0  0  0  0  0
  1  4  1  0  0  0  0
  2  9  1  0  0  0  0
  2 30  1  6  0  0  0
  3 20  1  0  0  0  0
  4 17  2  0  0  0  0
  4 28  1  0  0  0  0
  5 11  1  0  0  0  0
  6 25  1  0  0  0  0
  7 22  1  0  0  0  0
  8 19  1  1  0  0  0
  8 17  1  0  0  0  0
  8 27  1  0  0  0  0
  9  1  1  1  0  0  0
  9 11  1  0  0  0  0
 10 27  1  0  0  0  0
 13 18  2  0  0  0  0
 14 18  1  0  0  0  0
 14 15  1  0  0  0  0
 15 26  2  0  0  0  0
 16  7  1  6  0  0  0
 16 22  1  0  0  0  0
 16 24  1  0  0  0  0
 17 13  1  0  0  0  0
 18 23  1  0  0  0  0
 20  2  1  0  0  0  0
 21  3  2  0  0  0  0
 22  3  1  6  0  0  0
 22 24  1  0  0  0  0
 23  6  2  0  0  0  0
 24  1  2  0  0  0  0
 26  6  1  0  0  0  0
 27  5  1  0  0  0  0
 27 12  1  0  0  0  0
 28 14  2  0  0  0  0
 29 30  2  0  0  0  0
 30 31  1  0  0  0  0
 31 34  1  0  0  0  0
 32 33  1  0  0  0  0
 34 32  1  0  0  0  0
 34 33  1  0  0  0  0
M  END
>  <MODEL>
6

>  <REMARK>
 VINA RESULT:      -7.9      3.574      7.597
  Name = 
  3 active torsions:
  status: ('A' for Active; 'I' for Inactive)
    1  A    between atoms: C_3  and  C_4
    2  A    between atoms: C_4  and  C_7
    3  A    between atoms: C_7  and  C_33
                            x       y       z     vdW  Elec       q    Type
                         _______ _______ _______ _____ _____    ______ ____

>  <TORSDO>
F 3

$$$$
=
 OpenBabel11062422063D

 34 39  0  0  1  0  0  0  0  0999 V2000
  189.4700  174.8730  143.8970 C   0  0  0  0  0  0  0  0  0  0  0  0
  187.2490  176.1880  144.2740 C   0  0  2  0  0  3  0  0  0  0  0  0
  187.5420  176.3010  141.8220 C   0  0  0  0  0  0  0  0  0  0  0  0
  190.7670  174.3050  144.3720 C   0  0  0  0  0  0  0  0  0  0  0  0
  189.0750  176.4170  146.8870 C   0  0  0  0  0  2  0  0  0  0  0  0
  194.6380  171.1580  145.2520 C   0  0  0  0  0  0  0  0  0  0  0  0
  188.4280  174.3640  140.5730 N   0  0  0  0  0  2  0  0  0  0  0  0
  191.3630  176.3730  145.7930 C   0  0  2  0  0  3  0  0  0  0  0  0
  188.6740  175.8270  144.7760 C   0  0  1  0  0  3  0  0  0  0  0  0
  190.8720  177.7320  147.8680 C   0  0  0  0  0  1  0  0  0  0  0  0
  188.6570  175.3400  146.0920 O   0  0  0  0  0  0  0  0  0  0  0  0
  190.9480  175.2910  148.0830 C   0  0  0  0  0  1  0  0  0  0  0  0
  192.8120  174.3390  145.7080 C   0  0  0  0  0  3  0  0  0  0  0  0
  192.2870  172.3930  144.3680 C   0  0  0  0  0  0  0  0  0  0  0  0
  192.6130  171.1100  143.9190 C   0  0  0  0  0  3  0  0  0  0  0  0
  189.5670  173.9880  141.3740 C   0  0  0  0  0  2  0  0  0  0  0  0
  191.6370  174.9780  145.2750 C   0  0  0  0  0  0  0  0  0  0  0  0
  193.1410  173.0610  145.2650 C   0  0  0  0  0  0  0  0  0  0  0  0
  192.5500  177.1160  145.8340 O   0  0  0  0  0  1  0  0  0  0  0  0
  187.2990  176.9240  143.0480 O   0  0  0  0  0  0  0  0  0  0  0  0
  187.4820  176.9860  140.7280 N   0  0  0  0  0  2  0  0  0  0  0  0
  187.8400  174.8340  141.8030 C   0  0  1  0  0  3  0  0  0  0  0  0
  194.3140  172.4410  145.7050 C   0  0  0  0  0  3  0  0  0  0  0  0
  189.0460  174.5810  142.6590 C   0  0  0  0  0  0  0  0  0  0  0  0
  195.7740  170.5570  145.6780 F   0  0  0  0  0  0  0  0  0  0  0  0
  193.7880  170.4930  144.3610 C   0  0  0  0  0  3  0  0  0  0  0  0
  190.5830  176.4290  147.1390 C   0  0  0  0  0  0  0  0  0  0  0  0
  191.1170  173.0130  143.9370 C   0  0  0  0  0  3  0  0  0  0  0  0
  185.7460  176.4160  146.0870 O   0  0  0  0  0  0  0  0  0  0  0  0
  186.4710  176.9800  145.2810 C   0  0  0  0  0  0  0  0  0  0  0  0
  186.5780  178.4690  145.2830 C   0  0  0  0  0  2  0  0  0  0  0  0
  184.5850  178.9020  143.8900 C   0  0  0  0  0  2  0  0  0  0  0  0
  185.1920  180.2360  144.2630 C   0  0  0  0  0  2  0  0  0  0  0  0
  185.1980  179.0980  145.2610 C   0  0  0  0  0  3  0  0  0  0  0  0
  1  4  1  0  0  0  0
  2  9  1  0  0  0  0
  2 30  1  1  0  0  0
  3 20  1  0  0  0  0
  4 17  1  0  0  0  0
  5 27  1  0  0  0  0
  6 25  1  0  0  0  0
  6 23  1  0  0  0  0
  7 16  1  0  0  0  0
  8 19  1  1  0  0  0
  8 27  1  0  0  0  0
  9  1  1  6  0  0  0
  9 11  1  0  0  0  0
 11  5  1  0  0  0  0
 14 18  1  0  0  0  0
 15 26  1  0  0  0  0
 15 14  2  0  0  0  0
 16 24  1  0  0  0  0
 17 13  2  0  0  0  0
 17  8  1  0  0  0  0
 18 23  2  0  0  0  0
 18 13  1  0  0  0  0
 20  2  1  0  0  0  0
 21  3  2  0  0  0  0
 22  7  1  6  0  0  0
 22  3  1  0  0  0  0
 22 24  1  0  0  0  0
 24  1  2  0  0  0  0
 26  6  2  0  0  0  0
 27 10  1  0  0  0  0
 27 12  1  0  0  0  0
 28 14  1  0  0  0  0
 28  4  2  0  0  0  0
 30 31  1  0  0  0  0
 30 29  2  0  0  0  0
 32 33  1  0  0  0  0
 32 34  1  0  0  0  0
 33 34  1  0  0  0  0
 34 31  1  0  0  0  0
M  END
>  <MODEL>
7

>  <REMARK>
 VINA RESULT:      -7.8      3.193      7.331
  Name = 
  3 active torsions:
  status: ('A' for Active; 'I' for Inactive)
    1  A    between atoms: C_3  and  C_4
    2  A    between atoms: C_4  and  C_7
    3  A    between atoms: C_7  and  C_33
                            x       y       z     vdW  Elec       q    Type
                         _______ _______ _______ _____ _____    ______ ____

>  <TORSDO>
F 3

$$$$
=
 OpenBabel11062422063D

 34 39  0  0  1  0  0  0  0  0999 V2000
  192.2400  174.5300  144.8420 C   0  0  0  0  0  0  0  0  0  0  0  0
  194.0510  172.6530  144.8840 C   0  0  2  0  0  3  0  0  0  0  0  0
  195.4040  174.7210  144.9440 C   0  0  0  0  0  0  0  0  0  0  0  0
  190.8600  175.0290  144.5610 C   0  0  0  0  0  0  0  0  0  0  0  0
  191.4430  171.5760  143.3840 C   0  0  0  0  0  2  0  0  0  0  0  0
  186.3530  177.2980  145.0060 C   0  0  0  0  0  0  0  0  0  0  0  0
  194.6490  176.6780  146.2460 N   0  0  0  0  0  2  0  0  0  0  0  0
  190.6490  173.7450  142.3340 C   0  0  2  0  0  3  0  0  0  0  0  0
  192.6780  173.1540  144.3590 C   0  0  1  0  0  3  0  0  0  0  0  0
  190.3730  171.5020  141.1990 C   0  0  0  0  0  1  0  0  0  0  0  0
  191.6540  172.2270  144.6080 O   0  0  0  0  0  0  0  0  0  0  0  0
  188.9920  171.9710  143.1700 C   0  0  0  0  0  1  0  0  0  0  0  0
  188.7900  175.1290  143.2680 C   0  0  0  0  0  3  0  0  0  0  0  0
  188.9680  176.3600  145.3450 C   0  0  0  0  0  0  0  0  0  0  0  0
  188.4030  177.2110  146.2980 C   0  0  0  0  0  3  0  0  0  0  0  0
  193.2660  176.7850  145.8480 C   0  0  0  0  0  2  0  0  0  0  0  0
  190.1020  174.6480  143.4190 C   0  0  0  0  0  0  0  0  0  0  0  0
  188.2210  175.9750  144.2160 C   0  0  0  0  0  0  0  0  0  0  0  0
  190.2470  174.2040  141.0730 O   0  0  0  0  0  1  0  0  0  0  0  0
  195.1230  173.4670  144.3980 O   0  0  0  0  0  0  0  0  0  0  0  0
  196.4400  175.3810  144.5420 N   0  0  0  0  0  2  0  0  0  0  0  0
  194.5060  175.2630  146.0120 C   0  0  1  0  0  3  0  0  0  0  0  0
  186.9150  176.4460  144.0490 C   0  0  0  0  0  3  0  0  0  0  0  0
  193.1090  175.3350  145.4690 C   0  0  0  0  0  0  0  0  0  0  0  0
  185.0880  177.7540  144.8450 F   0  0  0  0  0  0  0  0  0  0  0  0
  187.0960  177.6800  146.1290 C   0  0  0  0  0  3  0  0  0  0  0  0
  190.3520  172.2300  142.5350 C   0  0  0  0  0  0  0  0  0  0  0  0
  190.2670  175.8850  145.5070 C   0  0  0  0  0  3  0  0  0  0  0  0
  194.5240  170.9190  143.3460 O   0  0  0  0  0  0  0  0  0  0  0  0
  194.3220  171.2270  144.5110 C   0  0  0  0  0  0  0  0  0  0  0  0
  194.3310  170.1800  145.5750 C   0  0  0  0  0  2  0  0  0  0  0  0
  196.0900  169.2670  147.0490 C   0  0  0  0  0  2  0  0  0  0  0  0
  196.6990  170.3890  146.2370 C   0  0  0  0  0  2  0  0  0  0  0  0
  195.6720  169.4710  145.6080 C   0  0  0  0  0  3  0  0  0  0  0  0
  1 24  2  0  0  0  0
  2 30  1  6  0  0  0
  4  1  1  0  0  0  0
  4 28  1  0  0  0  0
  5 11  1  0  0  0  0
  6 26  1  0  0  0  0
  8 19  1  6  0  0  0
  8 27  1  0  0  0  0
  8 17  1  0  0  0  0
  9 11  1  1  0  0  0
  9  1  1  0  0  0  0
  9  2  1  0  0  0  0
 10 27  1  0  0  0  0
 13 17  1  0  0  0  0
 13 18  2  0  0  0  0
 14 28  2  0  0  0  0
 14 15  1  0  0  0  0
 16  7  1  0  0  0  0
 17  4  2  0  0  0  0
 18 14  1  0  0  0  0
 20  2  1  0  0  0  0
 20  3  1  0  0  0  0
 21  3  2  0  0  0  0
 22  3  1  6  0  0  0
 22  7  1  0  0  0  0
 23 18  1  0  0  0  0
 23  6  2  0  0  0  0
 24 16  1  0  0  0  0
 24 22  1  0  0  0  0
 25  6  1  0  0  0  0
 26 15  2  0  0  0  0
 27 12  1  0  0  0  0
 27  5  1  0  0  0  0
 29 30  2  0  0  0  0
 30 31  1  0  0  0  0
 31 34  1  0  0  0  0
 33 32  1  0  0  0  0
 34 33  1  0  0  0  0
 34 32  1  0  0  0  0
M  END
>  <MODEL>
8

>  <REMARK>
 VINA RESULT:      -7.7      2.691      4.734
  Name = 
  3 active torsions:
  status: ('A' for Active; 'I' for Inactive)
    1  A    between atoms: C_3  and  C_4
    2  A    between atoms: C_4  and  C_7
    3  A    between atoms: C_7  and  C_33
                            x       y       z     vdW  Elec       q    Type
                         _______ _______ _______ _____ _____    ______ ____

>  <TORSDO>
F 3

$$$$
=
 OpenBabel11062422063D

 34 40  0  0  1  0  0  0  0  0999 V2000
  189.9070  174.0420  141.8960 C   0  0  0  0  0  0  0  0  0  0  0  0
  187.8010  175.4820  141.3560 C   0  0  2  0  0  3  0  0  0  0  0  0
  188.1930  174.2710  139.2370 C   0  0  0  0  0  0  0  0  0  0  0  0
  191.1300  173.7370  142.6980 C   0  0  0  0  0  0  0  0  0  0  0  0
  189.5420  176.9490  143.5990 C   0  0  0  0  0  2  0  0  0  0  0  0
  194.6680  171.3110  145.3920 C   0  0  0  0  0  0  0  0  0  0  0  0
  188.9470  171.9200  139.2560 N   0  0  0  0  0  2  0  0  0  0  0  0
  191.8560  176.2060  142.8720 C   0  0  2  0  0  3  0  0  0  0  0  0
  189.1680  175.3600  142.0820 C   0  0  1  0  0  3  0  0  0  0  0  0
  191.4120  178.4790  143.8870 C   0  0  0  0  0  1  0  0  0  0  0  0
  189.0590  175.6410  143.4530 O   0  0  0  0  0  0  0  0  0  0  0  0
  191.2610  176.5170  145.3500 C   0  0  0  0  0  1  0  0  0  0  0  0
  193.1190  174.3530  143.9750 C   0  0  0  0  0  3  0  0  0  0  0  0
  192.4720  172.0260  143.8120 C   0  0  0  0  0  0  0  0  0  0  0  0
  192.6970  170.6840  144.1250 C   0  0  0  0  0  3  0  0  0  0  0  0
  190.0180  171.9590  140.2220 C   0  0  2  0  0  3  0  0  0  0  0  0
  192.0230  174.7340  143.1820 C   0  0  0  0  0  0  0  0  0  0  0  0
  193.3480  173.0170  144.2920 C   0  0  0  0  0  0  0  0  0  0  0  0
  193.1020  176.7900  142.6130 O   0  0  0  0  0  1  0  0  0  0  0  0
  187.9610  175.4580  139.9340 O   0  0  0  0  0  0  0  0  0  0  0  0
  188.2350  174.2800  137.9460 N   0  0  0  0  0  2  0  0  0  0  0  0
  188.3590  172.9990  140.0100 C   0  0  1  0  0  0  0  0  0  0  0  0
  194.4440  172.6560  145.0810 C   0  0  0  0  0  3  0  0  0  0  0  0
  189.5050  173.1670  140.9630 C   0  0  0  0  0  0  0  0  0  0  0  0
  195.7290  170.9600  146.1560 F   0  0  0  0  0  0  0  0  0  0  0  0
  193.7950  170.3260  144.9150 C   0  0  0  0  0  3  0  0  0  0  0  0
  191.0340  177.0060  143.9250 C   0  0  0  0  0  0  0  0  0  0  0  0
  191.3780  172.3930  143.0300 C   0  0  0  0  0  3  0  0  0  0  0  0
  187.2980  177.7870  141.1720 O   0  0  0  0  0  0  0  0  0  0  0  0
  187.0600  176.7290  141.7360 C   0  0  0  0  0  0  0  0  0  0  0  0
  186.0340  176.6710  142.8190 C   0  0  0  0  0  2  0  0  0  0  0  0
  185.1110  177.8620  144.7760 C   0  0  0  0  0  2  0  0  0  0  0  0
  184.4410  178.4130  143.5370 C   0  0  0  0  0  2  0  0  0  0  0  0
  185.9040  178.0230  143.4960 C   0  0  0  0  0  3  0  0  0  0  0  0
  1  4  1  0  0  0  0
  2 30  1  6  0  0  0
  2  9  1  0  0  0  0
  3 20  1  0  0  0  0
  4 28  2  0  0  0  0
  4 17  1  0  0  0  0
  5 27  1  0  0  0  0
  6 25  1  0  0  0  0
  7 22  1  0  0  0  0
  8 19  1  1  0  0  0
  8 17  1  0  0  0  0
  8 27  1  0  0  0  0
  9  1  1  1  0  0  0
  9 11  1  0  0  0  0
 10 27  1  0  0  0  0
 11  5  1  0  0  0  0
 13 18  1  0  0  0  0
 14 15  2  0  0  0  0
 14 18  1  0  0  0  0
 15 26  1  0  0  0  0
 16  7  1  6  0  0  0
 16 24  1  0  0  0  0
 17 13  2  0  0  0  0
 18 23  2  0  0  0  0
 20  2  1  0  0  0  0
 21  3  2  0  0  0  0
 22  3  1  6  0  0  0
 22 16  1  0  0  0  0
 22 24  1  0  0  0  0
 23  6  1  0  0  0  0
 24  1  2  0  0  0  0
 26  6  2  0  0  0  0
 27 12  1  0  0  0  0
 28 14  1  0  0  0  0
 29 30  2  0  0  0  0
 30 31  1  0  0  0  0
 31 34  1  0  0  0  0
 33 32  1  0  0  0  0
 34 33  1  0  0  0  0
 34 32  1  0  0  0  0
M  END
>  <MODEL>
9

>  <REMARK>
 VINA RESULT:      -7.6      3.376      7.372
  Name = 
  3 active torsions:
  status: ('A' for Active; 'I' for Inactive)
    1  A    between atoms: C_3  and  C_4
    2  A    between atoms: C_4  and  C_7
    3  A    between atoms: C_7  and  C_33
                            x       y       z     vdW  Elec       q    Type
                         _______ _______ _______ _____ _____    ______ ____

>  <TORSDO>
F 3

$$$$
