=
 OpenBabel11062423013D

 62 65  0  0  1  0  0  0  0  0999 V2000
  193.2690  175.5010  143.9090 C   0  0  1  0  0  3  0  0  0  0  0  0
  193.1210  176.0950  145.3020 C   0  0  1  0  0  3  0  0  0  0  0  0
  192.7420  176.9200  144.0810 C   0  0  0  0  0  2  0  0  0  0  0  0
  194.6830  175.5160  143.5710 N   0  0  0  0  0  2  0  0  0  0  0  0
  197.1140  172.4340  145.0580 C   0  0  0  0  0  3  0  0  0  0  0  0
  196.9410  173.5960  145.8120 C   0  0  0  0  0  3  0  0  0  0  0  0
  195.7960  173.3320  143.2950 C   0  0  0  0  0  0  0  0  0  0  0  0
  196.1740  174.6410  145.2950 C   0  0  0  0  0  3  0  0  0  0  0  0
  196.5460  172.3290  143.8290 N   0  0  0  0  0  0  0  0  0  0  0  0
  195.6020  174.5240  144.0300 C   0  0  0  0  0  0  0  0  0  0  0  0
  195.1910  173.1350  141.9380 C   0  0  2  0  0  3  0  0  0  0  0  0
  195.5800  171.8000  141.3780 C   0  0  0  0  0  3  0  0  0  0  0  0
  193.7960  170.2400  140.2800 C   0  0  0  0  0  3  0  0  0  0  0  0
  194.7010  170.9990  140.8370 C   0  0  0  0  0  0  0  0  0  0  0  0
  193.5960  170.2880  138.8010 C   0  0  0  0  0  2  0  0  0  0  0  0
  192.8210  169.0670  138.3270 C   0  0  0  0  0  2  0  0  0  0  0  0
  191.6000  168.9310  139.0960 N   0  0  0  0  0  1  0  0  0  0  0  0
  195.5750  174.2350  141.0550 N   0  0  0  0  0  2  0  0  0  0  0  0
  196.1520  173.6700  139.8410 C   0  0  0  0  0  2  0  0  0  0  0  0
  195.7610  174.4650  138.6040 C   0  0  1  0  0  3  0  0  0  0  0  0
  196.7970  174.3020  137.4920 C   0  0  0  0  0  2  0  0  0  0  0  0
  194.0830  174.2560  136.6720 C   0  0  2  0  0  3  0  0  0  0  0  0
  195.9970  177.4240  134.9260 Cl  0  0  0  0  0  0  0  0  0  0  0  0
  194.3760  174.0080  138.1520 C   0  0  0  0  0  2  0  0  0  0  0  0
  196.8140  175.4840  136.5670 C   0  0  0  0  0  3  0  0  0  0  0  0
  195.7310  176.0660  136.0080 C   0  0  0  0  0  0  0  0  0  0  0  0
  194.2940  175.7210  136.3270 C   0  0  0  0  0  2  0  0  0  0  0  0
  192.6510  173.8500  136.3560 C   0  0  0  0  0  2  0  0  0  0  0  0
  190.6410  173.3050  137.7870 C   0  0  0  0  0  0  0  0  0  0  0  0
  192.0460  173.2280  137.5260 N   0  0  0  0  0  2  0  0  0  0  0  0
  189.9500  174.1880  137.2130 O   0  0  0  0  0  0  0  0  0  0  0  0
  188.5590  172.7300  139.0270 C   0  0  0  0  0  1  0  0  0  0  0  0
  190.7510  172.3090  140.0760 C   0  0  0  0  0  1  0  0  0  0  0  0
  190.0020  172.3460  138.7540 C   0  0  0  0  0  3  0  0  0  0  0  0
  191.8710  175.6350  146.0800 C   0  0  2  0  0  3  0  0  0  0  0  0
  192.2010  175.4900  147.4910 N   0  0  0  0  0  2  0  0  0  0  0  0
  191.5420  177.4310  148.8110 C   0  0  0  0  0  1  0  0  0  0  0  0
  191.1250  176.0760  148.2750 C   0  0  0  0  0  2  0  0  0  0  0  0
  191.2020  174.3420  145.5970 C   0  0  0  0  0  2  0  0  0  0  0  0
  189.6820  174.3970  145.7160 C   0  0  0  0  0  2  0  0  0  0  0  0
  189.1420  175.6960  145.1360 C   0  0  0  0  0  2  0  0  0  0  0  0
  188.7400  175.4560  143.6950 C   0  0  0  0  0  2  0  0  0  0  0  0
  190.0710  175.2240  141.7400 O   0  0  0  0  0  1  0  0  0  0  0  0
  189.7380  176.1220  142.7590 C   0  0  1  0  0  3  0  0  0  0  0  0
  189.1270  177.3730  142.1360 C   0  0  0  0  0  2  0  0  0  0  0  0
  187.2240  176.8680  140.5740 C   0  0  0  0  0  1  0  0  0  0  0  0
  187.6170  177.2610  141.9850 C   0  0  2  0  0  3  0  0  0  0  0  0
  186.8450  178.4680  142.5430 C   0  0  0  0  0  2  0  0  0  0  0  0
  185.6210  176.8720  143.8950 O   0  0  0  0  0  1  0  0  0  0  0  0
  185.8490  178.2430  143.7030 C   0  0  1  0  0  0  0  0  0  0  0  0
  185.5790  179.3490  145.8260 O   0  0  0  0  0  1  0  0  0  0  0  0
  186.5140  178.7560  144.9750 C   0  0  0  0  0  2  0  0  0  0  0  0
  184.6400  178.9700  143.5340 O   0  0  0  0  0  0  0  0  0  0  0  0
  183.6480  178.1720  142.9300 C   0  0  0  0  0  2  0  0  0  0  0  0
  183.1470  178.8150  141.6420 C   0  0  0  0  0  2  0  0  0  0  0  0
  181.9540  178.0470  141.0770 C   0  0  0  0  0  2  0  0  0  0  0  0
  179.6760  177.6630  141.7050 O   0  0  0  0  0  0  0  0  0  0  0  0
  178.9020  178.9730  139.9080 C   0  0  0  0  0  2  0  0  0  0  0  0
  178.5080  178.1030  141.0650 C   0  0  1  0  0  3  0  0  0  0  0  0
  177.6980  176.9190  140.5830 C   0  0  0  0  0  1  0  0  0  0  0  0
  180.6350  178.6790  141.5040 C   0  0  2  0  0  3  0  0  0  0  0  0
  180.1390  179.6290  140.4240 C   0  0  0  0  0  2  0  0  0  0  0  0
  1  4  1  6  0  0  0
  1  3  1  0  0  0  0
  1  2  1  0  0  0  0
  2 35  1  1  0  0  0
  3  2  1  0  0  0  0
  4 10  1  0  0  0  0
  5  6  1  0  0  0  0
  7  9  1  0  0  0  0
  7 10  2  0  0  0  0
  8  6  2  0  0  0  0
  9  5  2  0  0  0  0
 10  8  1  0  0  0  0
 11 12  1  6  0  0  0
 11  7  1  0  0  0  0
 13 14  2  0  0  0  0
 14 12  2  0  0  0  0
 15 13  1  0  0  0  0
 16 15  1  0  0  0  0
 16 17  1  0  0  0  0
 18 11  1  0  0  0  0
 19 18  1  0  0  0  0
 20 19  1  1  0  0  0
 21 20  1  0  0  0  0
 22 28  1  1  0  0  0
 22 24  1  0  0  0  0
 23 26  1  0  0  0  0
 24 20  1  0  0  0  0
 25 21  1  0  0  0  0
 26 27  1  0  0  0  0
 26 25  2  0  0  0  0
 27 22  1  0  0  0  0
 28 30  1  0  0  0  0
 29 34  1  0  0  0  0
 30 29  1  0  0  0  0
 31 29  2  0  0  0  0
 34 32  1  0  0  0  0
 34 33  1  0  0  0  0
 35 39  1  6  0  0  0
 35 36  1  0  0  0  0
 36 38  1  0  0  0  0
 38 37  1  0  0  0  0
 39 40  1  0  0  0  0
 41 40  1  0  0  0  0
 42 41  1  0  0  0  0
 44 43  1  6  0  0  0
 44 42  1  0  0  0  0
 45 44  1  0  0  0  0
 47 46  1  6  0  0  0
 47 45  1  0  0  0  0
 47 48  1  0  0  0  0
 48 50  1  0  0  0  0
 50 49  1  1  0  0  0
 50 52  1  0  0  0  0
 52 51  1  0  0  0  0
 53 50  1  0  0  0  0
 54 53  1  0  0  0  0
 55 54  1  0  0  0  0
 56 55  1  0  0  0  0
 58 62  1  0  0  0  0
 58 59  1  0  0  0  0
 59 60  1  6  0  0  0
 59 57  1  0  0  0  0
 61 56  1  6  0  0  0
 61 57  1  0  0  0  0
 62 61  1  0  0  0  0
M  END
>  <MODEL>
1

>  <REMARK>
 VINA RESULT:      -5.3      0.000      0.000
  Name = 
  30 active torsions:
  status: ('A' for Active; 'I' for Inactive)
    1  A    between atoms: C_1  and  C_51
    2  A    between atoms: C_2  and  C_50
    3  A    between atoms: C_2  and  C_60
    4  A    between atoms: C_4  and  C_33
    5  A    between atoms: C_4  and  C_47
    6  A    between atoms: C_5  and  C_12
    7  A    between atoms: C_5  and  C_44
    8  A    between atoms: O_6  and  C_30
    9  A    between atoms: O_6  and  C_42
   10  A    between atoms: C_10  and  C_16
   11  A    between atoms: C_10  and  N_20
   12  A    between atoms: C_12  and  C_31
   13  A    between atoms: C_13  and  C_35
   14  A    between atoms: C_19  and  C_54
   15  A    between atoms: C_21  and  N_58
   16  A    between atoms: C_22  and  C_56
   17  A    between atoms: N_24  and  C_34
   18  A    between atoms: N_24  and  C_51
   19  A    between atoms: C_26  and  C_47
   20  A    between atoms: C_26  and  C_56
   21  A    between atoms: C_29  and  C_34
   22  A    between atoms: C_30  and  C_50
   23  A    between atoms: C_31  and  C_42
   24  A    between atoms: C_33  and  C_44
   25  A    between atoms: C_34  and  C_55
   26  A    between atoms: C_35  and  C_59
   27  A    between atoms: C_42  and  C_48
   28  A    between atoms: N_45  and  C_53
   29  A    between atoms: N_45  and  C_56
   30  A    between atoms: C_46  and  N_58
                            x       y       z     vdW  Elec       q    Type
                         _______ _______ _______ _____ _____    ______ ____

>  <TORSDO>
F 30

$$$$
=
 OpenBabel11062423013D

 62 65  0  0  1  0  0  0  0  0999 V2000
  191.7200  176.0280  144.3200 C   0  0  1  0  0  3  0  0  0  0  0  0
  192.0270  176.9140  145.5190 C   0  0  1  0  0  3  0  0  0  0  0  0
  191.2110  177.4630  144.3580 C   0  0  0  0  0  2  0  0  0  0  0  0
  192.9310  175.9340  143.5210 N   0  0  0  0  0  2  0  0  0  0  0  0
  196.2950  173.9870  145.1060 C   0  0  0  0  0  3  0  0  0  0  0  0
  195.7170  175.0430  145.8130 C   0  0  0  0  0  3  0  0  0  0  0  0
  194.7500  174.2800  143.3230 C   0  0  0  0  0  0  0  0  0  0  0  0
  194.6300  175.7220  145.2620 C   0  0  0  0  0  3  0  0  0  0  0  0
  195.8070  173.6340  143.8890 N   0  0  0  0  0  0  0  0  0  0  0  0
  194.1410  175.3550  144.0100 C   0  0  0  0  0  0  0  0  0  0  0  0
  194.2600  173.8230  141.9820 C   0  0  2  0  0  3  0  0  0  0  0  0
  194.9780  172.5760  141.5580 C   0  0  0  0  0  3  0  0  0  0  0  0
  194.0680  170.2190  142.2210 C   0  0  0  0  0  3  0  0  0  0  0  0
  194.5470  171.3880  141.8910 C   0  0  0  0  0  0  0  0  0  0  0  0
  193.1840  169.4840  141.2680 C   0  0  0  0  0  2  0  0  0  0  0  0
  192.2510  168.5460  142.0200 C   0  0  0  0  0  2  0  0  0  0  0  0
  192.5400  168.5990  143.4390 N   0  0  0  0  0  1  0  0  0  0  0  0
  194.4030  174.8990  141.0040 N   0  0  0  0  0  2  0  0  0  0  0  0
  194.8840  174.3240  139.7540 C   0  0  0  0  0  2  0  0  0  0  0  0
  193.8870  174.5110  138.6210 C   0  0  1  0  0  3  0  0  0  0  0  0
  194.4990  175.3120  137.4720 C   0  0  0  0  0  2  0  0  0  0  0  0
  192.8940  173.0980  136.7210 C   0  0  2  0  0  3  0  0  0  0  0  0
  191.2370  176.5520  135.2810 Cl  0  0  0  0  0  0  0  0  0  0  0  0
  193.4170  173.1340  138.1560 C   0  0  0  0  0  2  0  0  0  0  0  0
  193.4520  176.0420  136.6800 C   0  0  0  0  0  3  0  0  0  0  0  0
  192.3000  175.5110  136.2150 C   0  0  0  0  0  0  0  0  0  0  0  0
  191.7890  174.1240  136.5310 C   0  0  0  0  0  2  0  0  0  0  0  0
  192.3700  171.7060  136.3980 C   0  0  0  0  0  2  0  0  0  0  0  0
  193.4690  169.4860  136.8990 C   0  0  0  0  0  0  0  0  0  0  0  0
  193.4850  170.7760  136.2790 N   0  0  0  0  0  2  0  0  0  0  0  0
  192.6560  169.2570  137.8340 O   0  0  0  0  0  0  0  0  0  0  0  0
  195.4950  168.1660  137.4920 C   0  0  0  0  0  1  0  0  0  0  0  0
  195.1100  168.8070  135.1420 C   0  0  0  0  0  1  0  0  0  0  0  0
  194.4270  168.4210  136.4440 C   0  0  0  0  0  3  0  0  0  0  0  0
  191.1430  176.6660  146.7590 C   0  0  2  0  0  3  0  0  0  0  0  0
  191.8500  177.1010  147.9560 N   0  0  0  0  0  2  0  0  0  0  0  0
  191.5840  178.2330  150.0980 C   0  0  0  0  0  1  0  0  0  0  0  0
  190.8840  177.6980  148.8650 C   0  0  0  0  0  2  0  0  0  0  0  0
  190.6540  175.2280  146.9730 C   0  0  0  0  0  2  0  0  0  0  0  0
  189.1410  175.1510  147.1490 C   0  0  0  0  0  2  0  0  0  0  0  0
  188.4280  175.4940  145.8480 C   0  0  0  0  0  2  0  0  0  0  0  0
  187.9830  176.9400  145.9040 C   0  0  0  0  0  2  0  0  0  0  0  0
  186.6440  177.8430  147.6470 O   0  0  0  0  0  1  0  0  0  0  0  0
  186.5890  177.0320  146.5090 C   0  0  1  0  0  3  0  0  0  0  0  0
  185.6160  177.6490  145.5100 C   0  0  0  0  0  2  0  0  0  0  0  0
  185.3600  179.9490  144.5290 C   0  0  0  0  0  1  0  0  0  0  0  0
  186.2670  178.7430  144.6750 C   0  0  2  0  0  3  0  0  0  0  0  0
  186.8680  178.2410  143.3520 C   0  0  0  0  0  2  0  0  0  0  0  0
  184.8090  177.0210  142.9750 O   0  0  0  0  0  1  0  0  0  0  0  0
  185.9440  177.5380  142.3320 C   0  0  1  0  0  0  0  0  0  0  0  0
  185.8630  178.3270  140.0580 O   0  0  0  0  0  1  0  0  0  0  0  0
  185.4480  178.6030  141.3630 C   0  0  0  0  0  2  0  0  0  0  0  0
  186.6240  176.5530  141.5680 O   0  0  0  0  0  0  0  0  0  0  0  0
  187.8580  176.2140  142.1590 C   0  0  0  0  0  2  0  0  0  0  0  0
  188.4110  174.9280  141.5540 C   0  0  0  0  0  2  0  0  0  0  0  0
  189.7070  174.5130  142.2490 C   0  0  0  0  0  2  0  0  0  0  0  0
  190.0560  173.7450  140.0090 O   0  0  0  0  0  0  0  0  0  0  0  0
  190.2290  171.5140  140.7400 C   0  0  0  0  0  2  0  0  0  0  0  0
  190.2180  172.4290  139.5510 C   0  0  1  0  0  3  0  0  0  0  0  0
  189.0910  172.0590  138.6110 C   0  0  0  0  0  1  0  0  0  0  0  0
  190.6420  173.7860  141.2910 C   0  0  2  0  0  3  0  0  0  0  0  0
  190.8840  172.3650  141.7760 C   0  0  0  0  0  2  0  0  0  0  0  0
  1  4  1  6  0  0  0
  1  3  1  0  0  0  0
  1  2  1  0  0  0  0
  2 35  1  1  0  0  0
  3  2  1  0  0  0  0
  4 10  1  0  0  0  0
  5  6  1  0  0  0  0
  7  9  1  0  0  0  0
  7 10  2  0  0  0  0
  8  6  2  0  0  0  0
  9  5  2  0  0  0  0
 10  8  1  0  0  0  0
 11 12  1  6  0  0  0
 11  7  1  0  0  0  0
 12 14  2  0  0  0  0
 14 13  2  0  0  0  0
 15 16  1  0  0  0  0
 15 13  1  0  0  0  0
 16 17  1  0  0  0  0
 18 11  1  0  0  0  0
 19 18  1  0  0  0  0
 20 19  1  1  0  0  0
 21 20  1  0  0  0  0
 22 28  1  1  0  0  0
 22 24  1  0  0  0  0
 23 26  1  0  0  0  0
 24 20  1  0  0  0  0
 25 21  1  0  0  0  0
 26 27  1  0  0  0  0
 26 25  2  0  0  0  0
 27 22  1  0  0  0  0
 29 31  2  0  0  0  0
 30 28  1  0  0  0  0
 30 29  1  0  0  0  0
 33 34  1  0  0  0  0
 34 29  1  0  0  0  0
 34 32  1  0  0  0  0
 35 39  1  1  0  0  0
 35 36  1  0  0  0  0
 36 38  1  0  0  0  0
 38 37  1  0  0  0  0
 39 40  1  0  0  0  0
 41 42  1  0  0  0  0
 41 40  1  0  0  0  0
 42 44  1  0  0  0  0
 44 43  1  1  0  0  0
 45 44  1  0  0  0  0
 47 46  1  6  0  0  0
 47 45  1  0  0  0  0
 48 47  1  0  0  0  0
 50 49  1  1  0  0  0
 50 48  1  0  0  0  0
 51 52  1  0  0  0  0
 52 50  1  0  0  0  0
 53 54  1  0  0  0  0
 53 50  1  0  0  0  0
 55 54  1  0  0  0  0
 55 56  1  0  0  0  0
 57 61  1  0  0  0  0
 58 62  1  0  0  0  0
 59 60  1  6  0  0  0
 59 57  1  0  0  0  0
 59 58  1  0  0  0  0
 61 62  1  0  0  0  0
 61 56  1  1  0  0  0
M  END
>  <MODEL>
2

>  <REMARK>
 VINA RESULT:      -4.8      2.633      5.227
  Name = 
  30 active torsions:
  status: ('A' for Active; 'I' for Inactive)
    1  A    between atoms: C_1  and  C_51
    2  A    between atoms: C_2  and  C_50
    3  A    between atoms: C_2  and  C_60
    4  A    between atoms: C_4  and  C_33
    5  A    between atoms: C_4  and  C_47
    6  A    between atoms: C_5  and  C_12
    7  A    between atoms: C_5  and  C_44
    8  A    between atoms: O_6  and  C_30
    9  A    between atoms: O_6  and  C_42
   10  A    between atoms: C_10  and  C_16
   11  A    between atoms: C_10  and  N_20
   12  A    between atoms: C_12  and  C_31
   13  A    between atoms: C_13  and  C_35
   14  A    between atoms: C_19  and  C_54
   15  A    between atoms: C_21  and  N_58
   16  A    between atoms: C_22  and  C_56
   17  A    between atoms: N_24  and  C_34
   18  A    between atoms: N_24  and  C_51
   19  A    between atoms: C_26  and  C_47
   20  A    between atoms: C_26  and  C_56
   21  A    between atoms: C_29  and  C_34
   22  A    between atoms: C_30  and  C_50
   23  A    between atoms: C_31  and  C_42
   24  A    between atoms: C_33  and  C_44
   25  A    between atoms: C_34  and  C_55
   26  A    between atoms: C_35  and  C_59
   27  A    between atoms: C_42  and  C_48
   28  A    between atoms: N_45  and  C_53
   29  A    between atoms: N_45  and  C_56
   30  A    between atoms: C_46  and  N_58
                            x       y       z     vdW  Elec       q    Type
                         _______ _______ _______ _____ _____    ______ ____

>  <TORSDO>
F 30

$$$$
=
 OpenBabel11062423013D

 62 65  0  0  1  0  0  0  0  0999 V2000
  192.9680  171.4510  139.1010 C   0  0  1  0  0  3  0  0  0  0  0  0
  194.0200  171.8370  138.0720 C   0  0  1  0  0  3  0  0  0  0  0  0
  193.6640  172.8040  139.1910 C   0  0  0  0  0  2  0  0  0  0  0  0
  191.6640  171.5850  138.4710 N   0  0  0  0  0  2  0  0  0  0  0  0
  190.7410  170.5280  134.5150 C   0  0  0  0  0  3  0  0  0  0  0  0
  191.7490  169.8390  135.1920 C   0  0  0  0  0  3  0  0  0  0  0  0
  190.4200  171.9710  136.3760 C   0  0  0  0  0  0  0  0  0  0  0  0
  192.0900  170.2240  136.4890 C   0  0  0  0  0  3  0  0  0  0  0  0
  190.1080  171.5690  135.1140 N   0  0  0  0  0  0  0  0  0  0  0  0
  191.4370  171.2970  137.0910 C   0  0  0  0  0  0  0  0  0  0  0  0
  189.6660  173.1200  136.9740 C   0  0  2  0  0  3  0  0  0  0  0  0
  190.0100  174.3990  136.2690 C   0  0  0  0  0  3  0  0  0  0  0  0
  192.4350  175.3650  136.3630 C   0  0  0  0  0  3  0  0  0  0  0  0
  191.2130  174.9060  136.3150 C   0  0  0  0  0  0  0  0  0  0  0  0
  193.3930  175.0390  135.2660 C   0  0  0  0  0  2  0  0  0  0  0  0
  194.6540  174.4010  135.8300 C   0  0  0  0  0  2  0  0  0  0  0  0
  195.1170  175.1570  136.9760 N   0  0  0  0  0  1  0  0  0  0  0  0
  189.9260  173.1970  138.4100 N   0  0  0  0  0  2  0  0  0  0  0  0
  188.7700  173.8050  139.0550 C   0  0  0  0  0  2  0  0  0  0  0  0
  188.9420  173.8940  140.5640 C   0  0  1  0  0  3  0  0  0  0  0  0
  190.3100  173.3670  140.9960 C   0  0  0  0  0  2  0  0  0  0  0  0
  189.4170  175.7160  142.3110 C   0  0  2  0  0  3  0  0  0  0  0  0
  189.8830  172.7020  145.0400 Cl  0  0  0  0  0  0  0  0  0  0  0  0
  188.7420  175.3470  140.9900 C   0  0  0  0  0  2  0  0  0  0  0  0
  190.2900  172.8510  142.4070 C   0  0  0  0  0  3  0  0  0  0  0  0
  189.7630  173.4890  143.4740 C   0  0  0  0  0  0  0  0  0  0  0  0
  188.9710  174.7740  143.4170 C   0  0  0  0  0  2  0  0  0  0  0  0
  189.0750  177.1520  142.6810 C   0  0  0  0  0  2  0  0  0  0  0  0
  186.8110  178.1550  143.1850 C   0  0  0  0  0  0  0  0  0  0  0  0
  187.6950  177.4380  142.3160 N   0  0  0  0  0  2  0  0  0  0  0  0
  187.0910  178.2550  144.4090 O   0  0  0  0  0  0  0  0  0  0  0  0
  184.4530  178.7800  143.6840 C   0  0  0  0  0  1  0  0  0  0  0  0
  185.0510  178.0150  141.4170 C   0  0  0  0  0  1  0  0  0  0  0  0
  185.5530  178.7690  142.6370 C   0  0  0  0  0  3  0  0  0  0  0  0
  195.4130  171.2100  138.2930 C   0  0  2  0  0  3  0  0  0  0  0  0
  196.2300  171.4070  137.1030 N   0  0  0  0  0  2  0  0  0  0  0  0
  197.2800  170.2130  135.2560 C   0  0  0  0  0  1  0  0  0  0  0  0
  196.2070  170.1780  136.3260 C   0  0  0  0  0  2  0  0  0  0  0  0
  195.4410  169.7230  138.6670 C   0  0  0  0  0  2  0  0  0  0  0  0
  196.2480  169.4600  139.9350 C   0  0  0  0  0  2  0  0  0  0  0  0
  195.3670  169.5750  141.1700 C   0  0  0  0  0  2  0  0  0  0  0  0
  195.6240  170.9150  141.8280 C   0  0  0  0  0  2  0  0  0  0  0  0
  194.2030  170.7100  143.7210 O   0  0  0  0  0  1  0  0  0  0  0  0
  194.3600  171.4060  142.5190 C   0  0  1  0  0  3  0  0  0  0  0  0
  194.4660  172.8980  142.8210 C   0  0  0  0  0  2  0  0  0  0  0  0
  196.4430  173.4360  144.2770 C   0  0  0  0  0  1  0  0  0  0  0  0
  195.9110  173.3750  142.8590 C   0  0  2  0  0  3  0  0  0  0  0  0
  196.1670  174.6460  142.0320 C   0  0  0  0  0  2  0  0  0  0  0  0
  196.6870  176.7990  143.0160 O   0  0  0  0  0  1  0  0  0  0  0  0
  195.6310  175.9970  142.5560 C   0  0  1  0  0  0  0  0  0  0  0  0
  194.7810  175.8530  140.3070 O   0  0  0  0  0  1  0  0  0  0  0  0
  195.0140  176.7280  141.3700 C   0  0  0  0  0  2  0  0  0  0  0  0
  194.6120  175.8390  143.5330 O   0  0  0  0  0  0  0  0  0  0  0  0
  193.3790  176.3390  143.0660 C   0  0  0  0  0  2  0  0  0  0  0  0
  192.5300  176.8490  144.2250 C   0  0  0  0  0  2  0  0  0  0  0  0
  192.5270  175.8490  145.3800 C   0  0  0  0  0  2  0  0  0  0  0  0
  191.1110  175.2800  147.2240 O   0  0  0  0  0  0  0  0  0  0  0  0
  189.3630  176.6000  146.3630 C   0  0  0  0  0  2  0  0  0  0  0  0
  189.7800  175.6600  147.4540 C   0  0  1  0  0  3  0  0  0  0  0  0
  188.8840  174.4410  147.4720 C   0  0  0  0  0  1  0  0  0  0  0  0
  191.7170  176.3680  146.5620 C   0  0  2  0  0  3  0  0  0  0  0  0
  190.6370  177.3220  146.0740 C   0  0  0  0  0  2  0  0  0  0  0  0
  1  4  1  6  0  0  0
  1  3  1  0  0  0  0
  2 35  1  1  0  0  0
  2  1  1  0  0  0  0
  2  3  1  0  0  0  0
  5  9  2  0  0  0  0
  5  6  1  0  0  0  0
  6  8  2  0  0  0  0
  7 11  1  0  0  0  0
  7 10  2  0  0  0  0
  8 10  1  0  0  0  0
  9  7  1  0  0  0  0
 10  4  1  0  0  0  0
 11 12  1  6  0  0  0
 11 18  1  0  0  0  0
 12 14  2  0  0  0  0
 14 13  2  0  0  0  0
 15 16  1  0  0  0  0
 15 13  1  0  0  0  0
 16 17  1  0  0  0  0
 18 19  1  0  0  0  0
 20 19  1  6  0  0  0
 20 24  1  0  0  0  0
 20 21  1  0  0  0  0
 21 25  1  0  0  0  0
 22 28  1  1  0  0  0
 22 27  1  0  0  0  0
 24 22  1  0  0  0  0
 25 26  2  0  0  0  0
 26 23  1  0  0  0  0
 27 26  1  0  0  0  0
 29 31  2  0  0  0  0
 30 28  1  0  0  0  0
 30 29  1  0  0  0  0
 33 34  1  0  0  0  0
 34 29  1  0  0  0  0
 34 32  1  0  0  0  0
 35 39  1  6  0  0  0
 36 35  1  0  0  0  0
 37 38  1  0  0  0  0
 38 36  1  0  0  0  0
 39 40  1  0  0  0  0
 40 41  1  0  0  0  0
 41 42  1  0  0  0  0
 42 44  1  0  0  0  0
 44 45  1  0  0  0  0
 44 43  1  1  0  0  0
 45 47  1  0  0  0  0
 47 46  1  1  0  0  0
 48 50  1  0  0  0  0
 48 47  1  0  0  0  0
 50 49  1  1  0  0  0
 50 53  1  0  0  0  0
 51 52  1  0  0  0  0
 52 50  1  0  0  0  0
 54 53  1  0  0  0  0
 54 55  1  0  0  0  0
 55 56  1  0  0  0  0
 57 59  1  0  0  0  0
 58 59  1  0  0  0  0
 59 60  1  6  0  0  0
 61 56  1  6  0  0  0
 61 57  1  0  0  0  0
 62 58  1  0  0  0  0
 62 61  1  0  0  0  0
M  END
>  <MODEL>
3

>  <REMARK>
 VINA RESULT:      -4.6      3.552      9.666
  Name = 
  30 active torsions:
  status: ('A' for Active; 'I' for Inactive)
    1  A    between atoms: C_1  and  C_51
    2  A    between atoms: C_2  and  C_50
    3  A    between atoms: C_2  and  C_60
    4  A    between atoms: C_4  and  C_33
    5  A    between atoms: C_4  and  C_47
    6  A    between atoms: C_5  and  C_12
    7  A    between atoms: C_5  and  C_44
    8  A    between atoms: O_6  and  C_30
    9  A    between atoms: O_6  and  C_42
   10  A    between atoms: C_10  and  C_16
   11  A    between atoms: C_10  and  N_20
   12  A    between atoms: C_12  and  C_31
   13  A    between atoms: C_13  and  C_35
   14  A    between atoms: C_19  and  C_54
   15  A    between atoms: C_21  and  N_58
   16  A    between atoms: C_22  and  C_56
   17  A    between atoms: N_24  and  C_34
   18  A    between atoms: N_24  and  C_51
   19  A    between atoms: C_26  and  C_47
   20  A    between atoms: C_26  and  C_56
   21  A    between atoms: C_29  and  C_34
   22  A    between atoms: C_30  and  C_50
   23  A    between atoms: C_31  and  C_42
   24  A    between atoms: C_33  and  C_44
   25  A    between atoms: C_34  and  C_55
   26  A    between atoms: C_35  and  C_59
   27  A    between atoms: C_42  and  C_48
   28  A    between atoms: N_45  and  C_53
   29  A    between atoms: N_45  and  C_56
   30  A    between atoms: C_46  and  N_58
                            x       y       z     vdW  Elec       q    Type
                         _______ _______ _______ _____ _____    ______ ____

>  <TORSDO>
F 30

$$$$
=
 OpenBabel11062423013D

 62 65  0  0  1  0  0  0  0  0999 V2000
  193.8210  176.6760  144.3120 C   0  0  1  0  0  3  0  0  0  0  0  0
  193.9960  175.1910  144.0310 C   0  0  1  0  0  3  0  0  0  0  0  0
  193.6160  176.1380  142.9020 C   0  0  0  0  0  2  0  0  0  0  0  0
  192.5450  176.8490  144.9870 N   0  0  0  0  0  2  0  0  0  0  0  0
  189.0500  176.9750  142.6670 C   0  0  0  0  0  3  0  0  0  0  0  0
  189.9160  178.0690  142.6620 C   0  0  0  0  0  3  0  0  0  0  0  0
  190.4060  175.8560  144.2670 C   0  0  0  0  0  0  0  0  0  0  0  0
  191.0520  178.0470  143.4720 C   0  0  0  0  0  3  0  0  0  0  0  0
  189.3090  175.9050  143.4630 N   0  0  0  0  0  0  0  0  0  0  0  0
  191.3040  176.9470  144.2880 C   0  0  0  0  0  0  0  0  0  0  0  0
  190.6300  174.6340  145.1060 C   0  0  2  0  0  3  0  0  0  0  0  0
  190.9480  173.4520  144.2390 C   0  0  0  0  0  3  0  0  0  0  0  0
  189.0390  172.0160  143.1830 C   0  0  0  0  0  3  0  0  0  0  0  0
  190.0090  172.7130  143.7130 C   0  0  0  0  0  0  0  0  0  0  0  0
  188.5750  172.3260  141.7980 C   0  0  0  0  0  2  0  0  0  0  0  0
  189.7600  172.4470  140.8510 C   0  0  0  0  0  2  0  0  0  0  0  0
  189.8330  173.7960  140.3260 N   0  0  0  0  0  1  0  0  0  0  0  0
  189.4680  174.3930  145.9590 N   0  0  0  0  0  2  0  0  0  0  0  0
  189.6470  175.1330  147.2010 C   0  0  0  0  0  2  0  0  0  0  0  0
  188.6020  176.2260  147.3680 C   0  0  1  0  0  3  0  0  0  0  0  0
  189.2040  177.6080  147.1190 C   0  0  0  0  0  2  0  0  0  0  0  0
  186.6200  177.1680  146.0350 C   0  0  2  0  0  3  0  0  0  0  0  0
  186.4630  180.1950  148.7860 Cl  0  0  0  0  0  0  0  0  0  0  0  0
  187.4440  175.9380  146.4150 C   0  0  0  0  0  2  0  0  0  0  0  0
  188.4560  178.6830  147.8550 C   0  0  0  0  0  3  0  0  0  0  0  0
  187.1160  178.8400  147.8780 C   0  0  0  0  0  0  0  0  0  0  0  0
  186.1150  177.8760  147.2820 C   0  0  0  0  0  2  0  0  0  0  0  0
  185.4450  176.7520  145.1630 C   0  0  0  0  0  2  0  0  0  0  0  0
  185.3050  177.4680  142.7440 C   0  0  0  0  0  0  0  0  0  0  0  0
  185.2090  177.7620  144.1410 N   0  0  0  0  0  2  0  0  0  0  0  0
  185.9250  176.4370  142.3680 O   0  0  0  0  0  0  0  0  0  0  0  0
  183.1870  178.1630  141.6350 C   0  0  0  0  0  1  0  0  0  0  0  0
  185.2960  178.2050  140.3560 C   0  0  0  0  0  1  0  0  0  0  0  0
  184.6840  178.3940  141.7350 C   0  0  0  0  0  3  0  0  0  0  0  0
  195.4590  174.7170  143.8980 C   0  0  2  0  0  3  0  0  0  0  0  0
  195.7240  174.3390  142.5170 N   0  0  0  0  0  2  0  0  0  0  0  0
  196.8400  175.9610  141.0790 C   0  0  0  0  0  1  0  0  0  0  0  0
  197.0160  174.8870  142.1330 C   0  0  0  0  0  2  0  0  0  0  0  0
  195.8900  173.5650  144.8140 C   0  0  0  0  0  2  0  0  0  0  0  0
  194.7830  173.1460  145.7760 C   0  0  0  0  0  2  0  0  0  0  0  0
  194.5730  171.6390  145.7350 C   0  0  0  0  0  2  0  0  0  0  0  0
  195.3500  171.0720  144.5650 C   0  0  0  0  0  2  0  0  0  0  0  0
  194.9740  169.1350  145.8890 O   0  0  0  0  0  1  0  0  0  0  0  0
  195.2980  169.5510  144.5940 C   0  0  1  0  0  3  0  0  0  0  0  0
  194.2340  169.0370  143.6290 C   0  0  0  0  0  2  0  0  0  0  0  0
  196.2530  168.2930  142.3300 C   0  0  0  0  0  1  0  0  0  0  0  0
  194.8060  168.7370  142.2510 C   0  0  2  0  0  3  0  0  0  0  0  0
  194.5390  169.8390  141.2130 C   0  0  0  0  0  2  0  0  0  0  0  0
  192.3560  170.0620  142.2410 O   0  0  0  0  0  1  0  0  0  0  0  0
  193.1350  170.4810  141.1510 C   0  0  1  0  0  0  0  0  0  0  0  0
  193.2470  172.6260  140.0620 O   0  0  0  0  0  1  0  0  0  0  0  0
  193.3190  171.9860  141.3010 C   0  0  0  0  0  2  0  0  0  0  0  0
  192.4850  170.2560  139.9080 O   0  0  0  0  0  0  0  0  0  0  0  0
  193.2540  169.4140  139.0790 C   0  0  0  0  0  2  0  0  0  0  0  0
  192.6450  169.3290  137.6840 C   0  0  0  0  0  2  0  0  0  0  0  0
  191.3680  170.1610  137.5940 C   0  0  0  0  0  2  0  0  0  0  0  0
  191.1370  172.4510  136.9370 O   0  0  0  0  0  0  0  0  0  0  0  0
  189.4340  171.8990  135.4080 C   0  0  0  0  0  2  0  0  0  0  0  0
  190.2320  173.0110  136.0220 C   0  0  1  0  0  3  0  0  0  0  0  0
  189.3180  173.9920  136.7240 C   0  0  0  0  0  1  0  0  0  0  0  0
  191.4370  171.1630  136.4480 C   0  0  2  0  0  3  0  0  0  0  0  0
  190.4320  170.7900  135.3690 C   0  0  0  0  0  2  0  0  0  0  0  0
  1  4  1  1  0  0  0
  2 35  1  6  0  0  0
  2  1  1  0  0  0  0
  3  2  1  0  0  0  0
  3  1  1  0  0  0  0
  5  9  1  0  0  0  0
  6  5  2  0  0  0  0
  6  8  1  0  0  0  0
  7 10  1  0  0  0  0
  7 11  1  0  0  0  0
  8 10  2  0  0  0  0
  9  7  2  0  0  0  0
 10  4  1  0  0  0  0
 11 12  1  6  0  0  0
 11 18  1  0  0  0  0
 13 14  2  0  0  0  0
 14 12  2  0  0  0  0
 15 13  1  0  0  0  0
 16 15  1  0  0  0  0
 17 16  1  0  0  0  0
 18 19  1  0  0  0  0
 20 19  1  6  0  0  0
 21 20  1  0  0  0  0
 21 25  1  0  0  0  0
 22 28  1  6  0  0  0
 22 24  1  0  0  0  0
 22 27  1  0  0  0  0
 24 20  1  0  0  0  0
 25 26  2  0  0  0  0
 26 23  1  0  0  0  0
 27 26  1  0  0  0  0
 29 30  1  0  0  0  0
 30 28  1  0  0  0  0
 31 29  2  0  0  0  0
 32 34  1  0  0  0  0
 33 34  1  0  0  0  0
 34 29  1  0  0  0  0
 35 39  1  1  0  0  0
 36 35  1  0  0  0  0
 37 38  1  0  0  0  0
 38 36  1  0  0  0  0
 39 40  1  0  0  0  0
 41 40  1  0  0  0  0
 42 44  1  0  0  0  0
 42 41  1  0  0  0  0
 44 43  1  1  0  0  0
 45 44  1  0  0  0  0
 47 46  1  1  0  0  0
 47 45  1  0  0  0  0
 48 47  1  0  0  0  0
 50 48  1  0  0  0  0
 50 52  1  0  0  0  0
 50 49  1  1  0  0  0
 51 52  1  0  0  0  0
 53 50  1  0  0  0  0
 54 53  1  0  0  0  0
 55 54  1  0  0  0  0
 56 55  1  0  0  0  0
 58 59  1  0  0  0  0
 59 60  1  1  0  0  0
 59 57  1  0  0  0  0
 61 57  1  0  0  0  0
 61 56  1  1  0  0  0
 62 58  1  0  0  0  0
 62 61  1  0  0  0  0
M  END
>  <MODEL>
4

>  <REMARK>
 VINA RESULT:      -4.6      3.623      9.927
  Name = 
  30 active torsions:
  status: ('A' for Active; 'I' for Inactive)
    1  A    between atoms: C_1  and  C_51
    2  A    between atoms: C_2  and  C_50
    3  A    between atoms: C_2  and  C_60
    4  A    between atoms: C_4  and  C_33
    5  A    between atoms: C_4  and  C_47
    6  A    between atoms: C_5  and  C_12
    7  A    between atoms: C_5  and  C_44
    8  A    between atoms: O_6  and  C_30
    9  A    between atoms: O_6  and  C_42
   10  A    between atoms: C_10  and  C_16
   11  A    between atoms: C_10  and  N_20
   12  A    between atoms: C_12  and  C_31
   13  A    between atoms: C_13  and  C_35
   14  A    between atoms: C_19  and  C_54
   15  A    between atoms: C_21  and  N_58
   16  A    between atoms: C_22  and  C_56
   17  A    between atoms: N_24  and  C_34
   18  A    between atoms: N_24  and  C_51
   19  A    between atoms: C_26  and  C_47
   20  A    between atoms: C_26  and  C_56
   21  A    between atoms: C_29  and  C_34
   22  A    between atoms: C_30  and  C_50
   23  A    between atoms: C_31  and  C_42
   24  A    between atoms: C_33  and  C_44
   25  A    between atoms: C_34  and  C_55
   26  A    between atoms: C_35  and  C_59
   27  A    between atoms: C_42  and  C_48
   28  A    between atoms: N_45  and  C_53
   29  A    between atoms: N_45  and  C_56
   30  A    between atoms: C_46  and  N_58
                            x       y       z     vdW  Elec       q    Type
                         _______ _______ _______ _____ _____    ______ ____

>  <TORSDO>
F 30

$$$$
=
 OpenBabel11062423013D

 62 65  0  0  1  0  0  0  0  0999 V2000
  195.8880  176.4510  143.8910 C   0  0  1  0  0  3  0  0  0  0  0  0
  194.5960  175.7040  144.1900 C   0  0  1  0  0  3  0  0  0  0  0  0
  195.5640  176.0260  145.3180 C   0  0  0  0  0  2  0  0  0  0  0  0
  196.8080  175.5100  143.2710 N   0  0  0  0  0  2  0  0  0  0  0  0
  196.7790  174.1500  139.3010 C   0  0  0  0  0  3  0  0  0  0  0  0
  197.1430  175.4700  139.5710 C   0  0  0  0  0  3  0  0  0  0  0  0
  196.3280  173.7590  141.6020 C   0  0  0  0  0  0  0  0  0  0  0  0
  197.1040  175.9360  140.8860 C   0  0  0  0  0  3  0  0  0  0  0  0
  196.3810  173.3330  140.3100 N   0  0  0  0  0  0  0  0  0  0  0  0
  196.6890  175.0900  141.9120 C   0  0  0  0  0  0  0  0  0  0  0  0
  195.8920  172.7930  142.6620 C   0  0  2  0  0  3  0  0  0  0  0  0
  196.8290  171.6230  142.7240 C   0  0  0  0  0  3  0  0  0  0  0  0
  197.7020  170.7320  145.0180 C   0  0  0  0  0  3  0  0  0  0  0  0
  197.2880  171.1710  143.8600 C   0  0  0  0  0  0  0  0  0  0  0  0
  196.9840  169.6050  145.6840 C   0  0  0  0  0  2  0  0  0  0  0  0
  196.8690  168.4140  144.7440 C   0  0  0  0  0  2  0  0  0  0  0  0
  195.4790  168.1890  144.4030 N   0  0  0  0  0  1  0  0  0  0  0  0
  194.5110  172.3800  142.4240 N   0  0  0  0  0  2  0  0  0  0  0  0
  194.4900  171.4880  141.2710 C   0  0  0  0  0  2  0  0  0  0  0  0
  193.2160  171.6440  140.4550 C   0  0  1  0  0  3  0  0  0  0  0  0
  192.6230  173.0440  140.6180 C   0  0  0  0  0  2  0  0  0  0  0  0
  192.5760  171.9770  137.9910 C   0  0  2  0  0  3  0  0  0  0  0  0
  188.7470  172.6400  139.2760 Cl  0  0  0  0  0  0  0  0  0  0  0  0
  193.5360  171.3380  138.9940 C   0  0  0  0  0  2  0  0  0  0  0  0
  191.1380  173.0510  140.3900 C   0  0  0  0  0  3  0  0  0  0  0  0
  190.4950  172.4740  139.3530 C   0  0  0  0  0  0  0  0  0  0  0  0
  191.1400  171.5920  138.3090 C   0  0  0  0  0  2  0  0  0  0  0  0
  192.9330  171.5300  136.5800 C   0  0  0  0  0  2  0  0  0  0  0  0
  193.1040  174.0030  136.0870 C   0  0  0  0  0  0  0  0  0  0  0  0
  193.4980  172.6490  135.8380 N   0  0  0  0  0  2  0  0  0  0  0  0
  192.0270  174.2330  136.6990 O   0  0  0  0  0  0  0  0  0  0  0  0
  195.2760  175.1870  136.3690 C   0  0  0  0  0  1  0  0  0  0  0  0
  193.2620  176.4750  135.7640 C   0  0  0  0  0  1  0  0  0  0  0  0
  193.9660  175.1370  135.6050 C   0  0  0  0  0  3  0  0  0  0  0  0
  193.3320  176.5870  144.2650 C   0  0  2  0  0  3  0  0  0  0  0  0
  193.0050  176.8500  145.6590 N   0  0  0  0  0  2  0  0  0  0  0  0
  191.7850  175.7340  147.4500 C   0  0  0  0  0  1  0  0  0  0  0  0
  192.7890  175.5760  146.3270 C   0  0  0  0  0  2  0  0  0  0  0  0
  192.0810  176.0490  143.5600 C   0  0  0  0  0  2  0  0  0  0  0  0
  191.9350  174.5380  143.7110 C   0  0  0  0  0  2  0  0  0  0  0  0
  190.5480  174.1780  144.2250 C   0  0  0  0  0  2  0  0  0  0  0  0
  189.5470  175.1570  143.6500 C   0  0  0  0  0  2  0  0  0  0  0  0
  188.7770  173.0690  142.8170 O   0  0  0  0  0  1  0  0  0  0  0  0
  188.6460  174.4500  142.6470 C   0  0  1  0  0  3  0  0  0  0  0  0
  187.1890  174.8400  142.8760 C   0  0  0  0  0  2  0  0  0  0  0  0
  187.7210  176.2350  140.8540 C   0  0  0  0  0  1  0  0  0  0  0  0
  186.7680  176.0220  142.0130 C   0  0  2  0  0  3  0  0  0  0  0  0
  186.4520  177.2950  142.8150 C   0  0  0  0  0  2  0  0  0  0  0  0
  185.8170  178.5490  140.8410 O   0  0  0  0  0  1  0  0  0  0  0  0
  185.5090  178.3510  142.1960 C   0  0  1  0  0  0  0  0  0  0  0  0
  183.2710  178.4040  141.3070 O   0  0  0  0  0  1  0  0  0  0  0  0
  184.0980  177.7790  142.2430 C   0  0  0  0  0  2  0  0  0  0  0  0
  185.4970  179.5690  142.9270 O   0  0  0  0  0  0  0  0  0  0  0  0
  186.0030  179.3830  144.2300 C   0  0  0  0  0  2  0  0  0  0  0  0
  184.9170  179.6310  145.2710 C   0  0  0  0  0  2  0  0  0  0  0  0
  185.5140  179.6980  146.6750 C   0  0  0  0  0  2  0  0  0  0  0  0
  186.6920  177.8340  147.6090 O   0  0  0  0  0  0  0  0  0  0  0  0
  185.5980  176.3420  146.1540 C   0  0  0  0  0  2  0  0  0  0  0  0
  186.6300  176.4840  147.2330 C   0  0  1  0  0  3  0  0  0  0  0  0
  187.9810  176.0170  146.7360 C   0  0  0  0  0  1  0  0  0  0  0  0
  185.4000  178.3580  147.3920 C   0  0  2  0  0  3  0  0  0  0  0  0
  184.6000  177.3810  146.5440 C   0  0  0  0  0  2  0  0  0  0  0  0
  1  4  1  6  0  0  0
  1  2  1  0  0  0  0
  1  3  1  0  0  0  0
  2 35  1  1  0  0  0
  2  3  1  0  0  0  0
  5  6  2  0  0  0  0
  5  9  1  0  0  0  0
  6  8  1  0  0  0  0
  7 10  1  0  0  0  0
  7 11  1  0  0  0  0
  8 10  2  0  0  0  0
  9  7  2  0  0  0  0
 10  4  1  0  0  0  0
 11 12  1  6  0  0  0
 12 14  2  0  0  0  0
 13 15  1  0  0  0  0
 14 13  2  0  0  0  0
 16 15  1  0  0  0  0
 17 16  1  0  0  0  0
 18 11  1  0  0  0  0
 19 18  1  0  0  0  0
 20 21  1  0  0  0  0
 20 19  1  1  0  0  0
 22 28  1  6  0  0  0
 22 27  1  0  0  0  0
 22 24  1  0  0  0  0
 23 26  1  0  0  0  0
 24 20  1  0  0  0  0
 25 21  1  0  0  0  0
 26 25  2  0  0  0  0
 27 26  1  0  0  0  0
 29 31  2  0  0  0  0
 30 29  1  0  0  0  0
 30 28  1  0  0  0  0
 34 33  1  0  0  0  0
 34 29  1  0  0  0  0
 34 32  1  0  0  0  0
 35 39  1  1  0  0  0
 35 36  1  0  0  0  0
 36 38  1  0  0  0  0
 38 37  1  0  0  0  0
 39 40  1  0  0  0  0
 40 41  1  0  0  0  0
 42 41  1  0  0  0  0
 44 43  1  1  0  0  0
 44 45  1  0  0  0  0
 44 42  1  0  0  0  0
 47 46  1  6  0  0  0
 47 48  1  0  0  0  0
 47 45  1  0  0  0  0
 50 49  1  6  0  0  0
 50 52  1  0  0  0  0
 50 48  1  0  0  0  0
 50 53  1  0  0  0  0
 51 52  1  0  0  0  0
 53 54  1  0  0  0  0
 54 55  1  0  0  0  0
 55 56  1  0  0  0  0
 58 62  1  0  0  0  0
 58 59  1  0  0  0  0
 59 60  1  6  0  0  0
 59 57  1  0  0  0  0
 61 56  1  6  0  0  0
 61 57  1  0  0  0  0
 62 61  1  0  0  0  0
M  END
>  <MODEL>
5

>  <REMARK>
 VINA RESULT:      -4.4      2.639      5.058
  Name = 
  30 active torsions:
  status: ('A' for Active; 'I' for Inactive)
    1  A    between atoms: C_1  and  C_51
    2  A    between atoms: C_2  and  C_50
    3  A    between atoms: C_2  and  C_60
    4  A    between atoms: C_4  and  C_33
    5  A    between atoms: C_4  and  C_47
    6  A    between atoms: C_5  and  C_12
    7  A    between atoms: C_5  and  C_44
    8  A    between atoms: O_6  and  C_30
    9  A    between atoms: O_6  and  C_42
   10  A    between atoms: C_10  and  C_16
   11  A    between atoms: C_10  and  N_20
   12  A    between atoms: C_12  and  C_31
   13  A    between atoms: C_13  and  C_35
   14  A    between atoms: C_19  and  C_54
   15  A    between atoms: C_21  and  N_58
   16  A    between atoms: C_22  and  C_56
   17  A    between atoms: N_24  and  C_34
   18  A    between atoms: N_24  and  C_51
   19  A    between atoms: C_26  and  C_47
   20  A    between atoms: C_26  and  C_56
   21  A    between atoms: C_29  and  C_34
   22  A    between atoms: C_30  and  C_50
   23  A    between atoms: C_31  and  C_42
   24  A    between atoms: C_33  and  C_44
   25  A    between atoms: C_34  and  C_55
   26  A    between atoms: C_35  and  C_59
   27  A    between atoms: C_42  and  C_48
   28  A    between atoms: N_45  and  C_53
   29  A    between atoms: N_45  and  C_56
   30  A    between atoms: C_46  and  N_58
                            x       y       z     vdW  Elec       q    Type
                         _______ _______ _______ _____ _____    ______ ____

>  <TORSDO>
F 30

$$$$
=
 OpenBabel11062423013D

 62 65  0  0  1  0  0  0  0  0999 V2000
  192.0420  176.0460  143.0660 C   0  0  1  0  0  3  0  0  0  0  0  0
  192.5190  176.5260  144.4290 C   0  0  1  0  0  3  0  0  0  0  0  0
  191.6880  177.4470  143.5480 C   0  0  0  0  0  2  0  0  0  0  0  0
  193.1810  176.0860  142.1620 N   0  0  0  0  0  2  0  0  0  0  0  0
  196.9180  174.6540  143.4270 C   0  0  0  0  0  3  0  0  0  0  0  0
  196.1650  175.4570  144.2850 C   0  0  0  0  0  3  0  0  0  0  0  0
  195.2860  174.8820  141.7130 C   0  0  0  0  0  0  0  0  0  0  0  0
  194.9450  175.9740  143.8450 C   0  0  0  0  0  3  0  0  0  0  0  0
  196.4690  174.3890  142.1730 N   0  0  0  0  0  0  0  0  0  0  0  0
  194.4980  175.7000  142.5550 C   0  0  0  0  0  0  0  0  0  0  0  0
  194.8520  174.5330  140.3220 C   0  0  2  0  0  3  0  0  0  0  0  0
  194.7980  173.0440  140.1450 C   0  0  0  0  0  3  0  0  0  0  0  0
  192.5090  171.7880  140.0810 C   0  0  0  0  0  3  0  0  0  0  0  0
  193.6650  172.3960  140.1240 C   0  0  0  0  0  0  0  0  0  0  0  0
  191.8690  171.5060  138.7620 C   0  0  0  0  0  2  0  0  0  0  0  0
  190.6280  170.6440  138.9430 C   0  0  0  0  0  2  0  0  0  0  0  0
  189.5120  171.2350  138.2320 N   0  0  0  0  0  1  0  0  0  0  0  0
  195.7350  175.1700  139.3480 N   0  0  0  0  0  2  0  0  0  0  0  0
  195.7990  174.3250  138.1620 C   0  0  0  0  0  2  0  0  0  0  0  0
  194.5310  174.4220  137.3260 C   0  0  1  0  0  3  0  0  0  0  0  0
  194.5710  175.6370  136.4000 C   0  0  0  0  0  2  0  0  0  0  0  0
  193.5240  173.2540  135.2740 C   0  0  2  0  0  3  0  0  0  0  0  0
  190.6400  176.1590  135.2800 Cl  0  0  0  0  0  0  0  0  0  0  0  0
  194.3680  173.1230  136.5410 C   0  0  0  0  0  2  0  0  0  0  0  0
  193.1920  176.1270  136.0610 C   0  0  0  0  0  3  0  0  0  0  0  0
  192.1600  175.3590  135.6520 C   0  0  0  0  0  0  0  0  0  0  0  0
  192.1630  173.8480  135.6000 C   0  0  0  0  0  2  0  0  0  0  0  0
  193.3510  171.8880  134.6250 C   0  0  0  0  0  2  0  0  0  0  0  0
  193.2760  169.4770  135.3770 C   0  0  0  0  0  0  0  0  0  0  0  0
  193.6440  170.8430  135.5960 N   0  0  0  0  0  2  0  0  0  0  0  0
  192.3990  169.2010  134.5150 O   0  0  0  0  0  0  0  0  0  0  0  0
  193.8970  168.7140  137.6640 C   0  0  0  0  0  1  0  0  0  0  0  0
  195.3680  168.1660  135.7620 C   0  0  0  0  0  1  0  0  0  0  0  0
  193.9230  168.3850  136.1830 C   0  0  0  0  0  3  0  0  0  0  0  0
  191.7000  176.0070  145.6290 C   0  0  2  0  0  3  0  0  0  0  0  0
  192.4370  176.2470  146.8620 N   0  0  0  0  0  2  0  0  0  0  0  0
  191.7810  177.6220  148.7650 C   0  0  0  0  0  1  0  0  0  0  0  0
  191.4790  176.3820  147.9490 C   0  0  0  0  0  2  0  0  0  0  0  0
  191.2830  174.5320  145.5850 C   0  0  0  0  0  2  0  0  0  0  0  0
  189.7900  174.3440  145.8320 C   0  0  0  0  0  2  0  0  0  0  0  0
  188.9720  175.0430  144.7560 C   0  0  0  0  0  2  0  0  0  0  0  0
  188.4860  176.3710  145.2990 C   0  0  0  0  0  2  0  0  0  0  0  0
  188.1560  176.6710  147.6320 O   0  0  0  0  0  1  0  0  0  0  0  0
  187.5600  176.1400  146.4840 C   0  0  1  0  0  3  0  0  0  0  0  0
  186.2210  176.8350  146.2560 C   0  0  0  0  0  2  0  0  0  0  0  0
  185.6640  179.1750  146.9840 C   0  0  0  0  0  1  0  0  0  0  0  0
  186.3880  178.3200  145.9630 C   0  0  2  0  0  3  0  0  0  0  0  0
  186.1010  178.7010  144.5010 C   0  0  0  0  0  2  0  0  0  0  0  0
  184.9040  176.5990  144.3660 O   0  0  0  0  0  1  0  0  0  0  0  0
  185.2690  177.7360  143.6280 C   0  0  1  0  0  0  0  0  0  0  0  0
  183.4070  177.9130  142.1110 O   0  0  0  0  0  1  0  0  0  0  0  0
  183.9750  178.4540  143.2660 C   0  0  0  0  0  2  0  0  0  0  0  0
  185.9220  177.3990  142.4120 O   0  0  0  0  0  0  0  0  0  0  0  0
  186.8750  178.3760  142.0610 C   0  0  0  0  0  2  0  0  0  0  0  0
  187.9830  177.7670  141.2070 C   0  0  0  0  0  2  0  0  0  0  0  0
  188.5510  176.5120  141.8660 C   0  0  0  0  0  2  0  0  0  0  0  0
  187.5570  174.3350  141.8650 O   0  0  0  0  0  0  0  0  0  0  0  0
  189.6050  173.3380  141.2700 C   0  0  0  0  0  2  0  0  0  0  0  0
  188.1690  173.0940  141.6280 C   0  0  1  0  0  3  0  0  0  0  0  0
  188.0740  172.2210  142.8600 C   0  0  0  0  0  1  0  0  0  0  0  0
  188.2350  175.2640  141.0500 C   0  0  2  0  0  3  0  0  0  0  0  0
  189.5230  174.6370  140.5390 C   0  0  0  0  0  2  0  0  0  0  0  0
  1  4  1  6  0  0  0
  1  3  1  0  0  0  0
  1  2  1  0  0  0  0
  2 35  1  1  0  0  0
  3  2  1  0  0  0  0
  4 10  1  0  0  0  0
  5  6  1  0  0  0  0
  7  9  1  0  0  0  0
  7 10  2  0  0  0  0
  8  6  2  0  0  0  0
  9  5  2  0  0  0  0
 10  8  1  0  0  0  0
 11 12  1  1  0  0  0
 11  7  1  0  0  0  0
 13 14  2  0  0  0  0
 14 12  2  0  0  0  0
 15 16  1  0  0  0  0
 15 13  1  0  0  0  0
 17 16  1  0  0  0  0
 18 11  1  0  0  0  0
 19 18  1  0  0  0  0
 20 19  1  6  0  0  0
 21 20  1  0  0  0  0
 22 28  1  1  0  0  0
 22 27  1  0  0  0  0
 22 24  1  0  0  0  0
 23 26  1  0  0  0  0
 24 20  1  0  0  0  0
 25 21  1  0  0  0  0
 26 25  2  0  0  0  0
 27 26  1  0  0  0  0
 28 30  1  0  0  0  0
 29 30  1  0  0  0  0
 29 34  1  0  0  0  0
 31 29  2  0  0  0  0
 33 34  1  0  0  0  0
 34 32  1  0  0  0  0
 35 39  1  6  0  0  0
 35 36  1  0  0  0  0
 36 38  1  0  0  0  0
 38 37  1  0  0  0  0
 39 40  1  0  0  0  0
 41 42  1  0  0  0  0
 41 40  1  0  0  0  0
 42 44  1  0  0  0  0
 44 43  1  1  0  0  0
 45 44  1  0  0  0  0
 47 45  1  0  0  0  0
 47 46  1  1  0  0  0
 48 47  1  0  0  0  0
 50 49  1  1  0  0  0
 50 48  1  0  0  0  0
 51 52  1  0  0  0  0
 52 50  1  0  0  0  0
 53 50  1  0  0  0  0
 54 53  1  0  0  0  0
 55 56  1  0  0  0  0
 55 54  1  0  0  0  0
 58 59  1  0  0  0  0
 59 57  1  0  0  0  0
 59 60  1  1  0  0  0
 61 57  1  0  0  0  0
 61 56  1  1  0  0  0
 62 61  1  0  0  0  0
 62 58  1  0  0  0  0
M  END
>  <MODEL>
6

>  <REMARK>
 VINA RESULT:      -4.2      2.504      4.652
  Name = 
  30 active torsions:
  status: ('A' for Active; 'I' for Inactive)
    1  A    between atoms: C_1  and  C_51
    2  A    between atoms: C_2  and  C_50
    3  A    between atoms: C_2  and  C_60
    4  A    between atoms: C_4  and  C_33
    5  A    between atoms: C_4  and  C_47
    6  A    between atoms: C_5  and  C_12
    7  A    between atoms: C_5  and  C_44
    8  A    between atoms: O_6  and  C_30
    9  A    between atoms: O_6  and  C_42
   10  A    between atoms: C_10  and  C_16
   11  A    between atoms: C_10  and  N_20
   12  A    between atoms: C_12  and  C_31
   13  A    between atoms: C_13  and  C_35
   14  A    between atoms: C_19  and  C_54
   15  A    between atoms: C_21  and  N_58
   16  A    between atoms: C_22  and  C_56
   17  A    between atoms: N_24  and  C_34
   18  A    between atoms: N_24  and  C_51
   19  A    between atoms: C_26  and  C_47
   20  A    between atoms: C_26  and  C_56
   21  A    between atoms: C_29  and  C_34
   22  A    between atoms: C_30  and  C_50
   23  A    between atoms: C_31  and  C_42
   24  A    between atoms: C_33  and  C_44
   25  A    between atoms: C_34  and  C_55
   26  A    between atoms: C_35  and  C_59
   27  A    between atoms: C_42  and  C_48
   28  A    between atoms: N_45  and  C_53
   29  A    between atoms: N_45  and  C_56
   30  A    between atoms: C_46  and  N_58
                            x       y       z     vdW  Elec       q    Type
                         _______ _______ _______ _____ _____    ______ ____

>  <TORSDO>
F 30

$$$$
=
 OpenBabel11062423013D

 62 65  0  0  1  0  0  0  0  0999 V2000
  192.9770  175.8680  142.7840 C   0  0  1  0  0  3  0  0  0  0  0  0
  193.7020  175.7230  144.1150 C   0  0  1  0  0  3  0  0  0  0  0  0
  192.6770  176.8320  143.9250 C   0  0  0  0  0  2  0  0  0  0  0  0
  193.9070  176.4640  141.8390 N   0  0  0  0  0  2  0  0  0  0  0  0
  197.8360  174.9930  141.7220 C   0  0  0  0  0  3  0  0  0  0  0  0
  197.5450  176.1100  142.5060 C   0  0  0  0  0  3  0  0  0  0  0  0
  195.5950  174.9100  140.9340 C   0  0  0  0  0  0  0  0  0  0  0  0
  196.2500  176.6290  142.5050 C   0  0  0  0  0  3  0  0  0  0  0  0
  196.8670  174.4250  140.9600 N   0  0  0  0  0  0  0  0  0  0  0  0
  195.2650  176.0410  141.7140 C   0  0  0  0  0  0  0  0  0  0  0  0
  194.5780  174.2190  140.0770 C   0  0  2  0  0  3  0  0  0  0  0  0
  194.0050  175.1720  139.0700 C   0  0  0  0  0  3  0  0  0  0  0  0
  194.9700  175.2920  136.6460 C   0  0  0  0  0  3  0  0  0  0  0  0
  194.4820  175.2570  137.8570 C   0  0  0  0  0  0  0  0  0  0  0  0
  194.3300  174.4850  135.5650 C   0  0  0  0  0  2  0  0  0  0  0  0
  194.4770  172.9980  135.8510 C   0  0  0  0  0  2  0  0  0  0  0  0
  194.5340  172.2610  134.6040 N   0  0  0  0  0  1  0  0  0  0  0  0
  193.5430  173.6180  140.9160 N   0  0  0  0  0  2  0  0  0  0  0  0
  193.6950  172.1700  140.8670 C   0  0  0  0  0  2  0  0  0  0  0  0
  193.2380  171.5940  139.5350 C   0  0  1  0  0  3  0  0  0  0  0  0
  193.3550  170.0700  139.5210 C   0  0  0  0  0  2  0  0  0  0  0  0
  191.0150  171.1430  138.3320 C   0  0  2  0  0  3  0  0  0  0  0  0
  193.1770  169.0990  135.5210 Cl  0  0  0  0  0  0  0  0  0  0  0  0
  191.8030  172.0480  139.2790 C   0  0  0  0  0  2  0  0  0  0  0  0
  193.5370  169.5370  138.1290 C   0  0  0  0  0  3  0  0  0  0  0  0
  192.8030  169.8810  137.0500 C   0  0  0  0  0  0  0  0  0  0  0  0
  191.7580  170.9730  137.0170 C   0  0  0  0  0  2  0  0  0  0  0  0
  189.6380  171.7380  138.0770 C   0  0  0  0  0  2  0  0  0  0  0  0
  189.2590  173.6690  136.4920 C   0  0  0  0  0  0  0  0  0  0  0  0
  189.5850  172.2960  136.7330 N   0  0  0  0  0  2  0  0  0  0  0  0
  188.6810  174.3370  137.3900 O   0  0  0  0  0  0  0  0  0  0  0  0
  190.8440  173.6810  134.5710 C   0  0  0  0  0  1  0  0  0  0  0  0
  189.8150  175.7980  135.3080 C   0  0  0  0  0  1  0  0  0  0  0  0
  189.5940  174.3000  135.1680 C   0  0  0  0  0  3  0  0  0  0  0  0
  193.1610  174.6110  145.0370 C   0  0  2  0  0  3  0  0  0  0  0  0
  194.1920  174.2250  145.9910 N   0  0  0  0  0  2  0  0  0  0  0  0
  196.4490  173.5660  145.3480 C   0  0  0  0  0  1  0  0  0  0  0  0
  194.9890  173.1630  145.3950 C   0  0  0  0  0  2  0  0  0  0  0  0
  192.6320  173.3480  144.3470 C   0  0  0  0  0  2  0  0  0  0  0  0
  191.3550  172.8240  144.9960 C   0  0  0  0  0  2  0  0  0  0  0  0
  190.1660  173.7020  144.6350 C   0  0  0  0  0  2  0  0  0  0  0  0
  190.2400  174.9790  145.4470 C   0  0  0  0  0  2  0  0  0  0  0  0
  190.8910  175.3110  147.7080 O   0  0  0  0  0  1  0  0  0  0  0  0
  189.9300  174.6840  146.9080 C   0  0  1  0  0  3  0  0  0  0  0  0
  188.5520  175.2220  147.2770 C   0  0  0  0  0  2  0  0  0  0  0  0
  188.9420  177.5930  146.5410 C   0  0  0  0  0  1  0  0  0  0  0  0
  188.1050  176.3440  146.3500 C   0  0  2  0  0  3  0  0  0  0  0  0
  186.5880  176.5910  146.3590 C   0  0  0  0  0  2  0  0  0  0  0  0
  185.7610  176.9720  148.6050 O   0  0  0  0  0  1  0  0  0  0  0  0
  186.0030  177.6000  147.3730 C   0  0  1  0  0  0  0  0  0  0  0  0
  186.7240  179.4720  148.7050 O   0  0  0  0  0  1  0  0  0  0  0  0
  187.0700  178.6580  147.6240 C   0  0  0  0  0  2  0  0  0  0  0  0
  184.8520  178.2690  146.8760 O   0  0  0  0  0  0  0  0  0  0  0  0
  184.6690  178.0110  145.5020 C   0  0  0  0  0  2  0  0  0  0  0  0
  183.7380  179.0450  144.8780 C   0  0  0  0  0  2  0  0  0  0  0  0
  184.0830  179.2720  143.4080 C   0  0  0  0  0  2  0  0  0  0  0  0
  185.7290  177.5340  143.3650 O   0  0  0  0  0  0  0  0  0  0  0  0
  186.2980  178.0500  141.1400 C   0  0  0  0  0  2  0  0  0  0  0  0
  186.6070  177.1870  142.3270 C   0  0  1  0  0  3  0  0  0  0  0  0
  188.0410  177.3860  142.7660 C   0  0  0  0  0  1  0  0  0  0  0  0
  184.5470  177.9820  142.7410 C   0  0  2  0  0  3  0  0  0  0  0  0
  184.8210  178.2290  141.2650 C   0  0  0  0  0  2  0  0  0  0  0  0
  1  4  1  6  0  0  0
  1  3  1  0  0  0  0
  1  2  1  0  0  0  0
  2 35  1  1  0  0  0
  3  2  1  0  0  0  0
  5  6  1  0  0  0  0
  7  9  1  0  0  0  0
  7 10  2  0  0  0  0
  8  6  2  0  0  0  0
  9  5  2  0  0  0  0
 10  4  1  0  0  0  0
 10  8  1  0  0  0  0
 11 12  1  6  0  0  0
 11 18  1  0  0  0  0
 11  7  1  0  0  0  0
 13 14  2  0  0  0  0
 14 12  2  0  0  0  0
 15 16  1  0  0  0  0
 15 13  1  0  0  0  0
 17 16  1  0  0  0  0
 19 18  1  0  0  0  0
 20 19  1  1  0  0  0
 21 20  1  0  0  0  0
 22 28  1  6  0  0  0
 22 24  1  0  0  0  0
 23 26  1  0  0  0  0
 24 20  1  0  0  0  0
 25 21  1  0  0  0  0
 26 25  2  0  0  0  0
 27 26  1  0  0  0  0
 27 22  1  0  0  0  0
 29 30  1  0  0  0  0
 29 31  2  0  0  0  0
 30 28  1  0  0  0  0
 32 34  1  0  0  0  0
 34 33  1  0  0  0  0
 34 29  1  0  0  0  0
 35 39  1  6  0  0  0
 35 36  1  0  0  0  0
 37 38  1  0  0  0  0
 38 36  1  0  0  0  0
 39 40  1  0  0  0  0
 41 40  1  0  0  0  0
 41 42  1  0  0  0  0
 42 44  1  0  0  0  0
 44 45  1  0  0  0  0
 44 43  1  1  0  0  0
 47 48  1  0  0  0  0
 47 46  1  1  0  0  0
 47 45  1  0  0  0  0
 48 50  1  0  0  0  0
 50 52  1  0  0  0  0
 50 49  1  1  0  0  0
 52 51  1  0  0  0  0
 53 50  1  0  0  0  0
 54 53  1  0  0  0  0
 55 54  1  0  0  0  0
 56 55  1  0  0  0  0
 58 62  1  0  0  0  0
 58 59  1  0  0  0  0
 59 60  1  1  0  0  0
 59 57  1  0  0  0  0
 61 57  1  0  0  0  0
 61 56  1  1  0  0  0
 62 61  1  0  0  0  0
M  END
>  <MODEL>
7

>  <REMARK>
 VINA RESULT:      -3.5      2.813      4.700
  Name = 
  30 active torsions:
  status: ('A' for Active; 'I' for Inactive)
    1  A    between atoms: C_1  and  C_51
    2  A    between atoms: C_2  and  C_50
    3  A    between atoms: C_2  and  C_60
    4  A    between atoms: C_4  and  C_33
    5  A    between atoms: C_4  and  C_47
    6  A    between atoms: C_5  and  C_12
    7  A    between atoms: C_5  and  C_44
    8  A    between atoms: O_6  and  C_30
    9  A    between atoms: O_6  and  C_42
   10  A    between atoms: C_10  and  C_16
   11  A    between atoms: C_10  and  N_20
   12  A    between atoms: C_12  and  C_31
   13  A    between atoms: C_13  and  C_35
   14  A    between atoms: C_19  and  C_54
   15  A    between atoms: C_21  and  N_58
   16  A    between atoms: C_22  and  C_56
   17  A    between atoms: N_24  and  C_34
   18  A    between atoms: N_24  and  C_51
   19  A    between atoms: C_26  and  C_47
   20  A    between atoms: C_26  and  C_56
   21  A    between atoms: C_29  and  C_34
   22  A    between atoms: C_30  and  C_50
   23  A    between atoms: C_31  and  C_42
   24  A    between atoms: C_33  and  C_44
   25  A    between atoms: C_34  and  C_55
   26  A    between atoms: C_35  and  C_59
   27  A    between atoms: C_42  and  C_48
   28  A    between atoms: N_45  and  C_53
   29  A    between atoms: N_45  and  C_56
   30  A    between atoms: C_46  and  N_58
                            x       y       z     vdW  Elec       q    Type
                         _______ _______ _______ _____ _____    ______ ____

>  <TORSDO>
F 30

$$$$
=
 OpenBabel11062423013D

 62 65  0  0  1  0  0  0  0  0999 V2000
  192.9360  171.1460  139.2480 C   0  0  1  0  0  3  0  0  0  0  0  0
  194.1110  171.2560  138.2880 C   0  0  1  0  0  3  0  0  0  0  0  0
  193.6240  172.4890  139.0350 C   0  0  0  0  0  2  0  0  0  0  0  0
  191.7230  171.0580  138.4510 N   0  0  0  0  0  2  0  0  0  0  0  0
  191.4080  169.5960  134.5300 C   0  0  0  0  0  3  0  0  0  0  0  0
  192.1540  168.8830  135.4690 C   0  0  0  0  0  3  0  0  0  0  0  0
  190.9670  171.3090  136.1170 C   0  0  0  0  0  0  0  0  0  0  0  0
  192.3000  169.3960  136.7590 C   0  0  0  0  0  3  0  0  0  0  0  0
  190.8390  170.7810  134.8690 N   0  0  0  0  0  0  0  0  0  0  0  0
  191.7170  170.6150  137.0940 C   0  0  0  0  0  0  0  0  0  0  0  0
  190.2970  172.6160  136.4180 C   0  0  2  0  0  3  0  0  0  0  0  0
  190.6280  173.6310  135.3650 C   0  0  0  0  0  3  0  0  0  0  0  0
  188.8240  175.3240  134.5280 C   0  0  0  0  0  3  0  0  0  0  0  0
  189.7370  174.4780  134.9230 C   0  0  0  0  0  0  0  0  0  0  0  0
  188.7460  176.6770  135.1550 C   0  0  0  0  0  2  0  0  0  0  0  0
  187.4300  176.8440  135.9020 C   0  0  0  0  0  2  0  0  0  0  0  0
  186.5230  175.7710  135.5460 N   0  0  0  0  0  1  0  0  0  0  0  0
  190.6680  173.0710  137.7570 N   0  0  0  0  0  2  0  0  0  0  0  0
  189.5440  173.8080  138.3200 C   0  0  0  0  0  2  0  0  0  0  0  0
  189.4310  173.6090  139.8240 C   0  0  1  0  0  3  0  0  0  0  0  0
  190.6830  174.1100  140.5440 C   0  0  0  0  0  2  0  0  0  0  0  0
  188.2110  174.7180  141.7930 C   0  0  2  0  0  3  0  0  0  0  0  0
  190.4590  172.3520  144.2640 Cl  0  0  0  0  0  0  0  0  0  0  0  0
  188.1770  174.3290  140.3150 C   0  0  0  0  0  2  0  0  0  0  0  0
  190.9010  173.3980  141.8480 C   0  0  0  0  0  3  0  0  0  0  0  0
  189.9650  173.1850  142.7970 C   0  0  0  0  0  0  0  0  0  0  0  0
  188.4930  173.4990  142.6570 C   0  0  0  0  0  2  0  0  0  0  0  0
  186.8820  175.3410  142.1930 C   0  0  0  0  0  2  0  0  0  0  0  0
  185.9700  176.8250  144.0230 C   0  0  0  0  0  0  0  0  0  0  0  0
  187.0300  176.0490  143.4560 N   0  0  0  0  0  2  0  0  0  0  0  0
  185.0130  177.1960  143.2910 O   0  0  0  0  0  0  0  0  0  0  0  0
  184.9290  178.2200  145.8040 C   0  0  0  0  0  1  0  0  0  0  0  0
  187.3580  177.7940  145.8610 C   0  0  0  0  0  1  0  0  0  0  0  0
  186.0090  177.2050  145.4770 C   0  0  0  0  0  3  0  0  0  0  0  0
  195.4610  170.7590  138.8470 C   0  0  2  0  0  3  0  0  0  0  0  0
  196.5490  171.3000  138.0450 N   0  0  0  0  0  2  0  0  0  0  0  0
  196.8120  173.3530  136.7570 C   0  0  0  0  0  1  0  0  0  0  0  0
  195.9740  172.1110  136.9830 C   0  0  0  0  0  2  0  0  0  0  0  0
  195.6380  169.2390  138.9530 C   0  0  0  0  0  2  0  0  0  0  0  0
  196.1130  168.8060  140.3360 C   0  0  0  0  0  2  0  0  0  0  0  0
  194.9630  168.8260  141.3330 C   0  0  0  0  0  2  0  0  0  0  0  0
  195.5240  169.0630  142.7190 C   0  0  0  0  0  2  0  0  0  0  0  0
  194.9170  170.0170  144.8090 O   0  0  0  0  0  1  0  0  0  0  0  0
  194.7160  170.1390  143.4310 C   0  0  1  0  0  3  0  0  0  0  0  0
  195.1700  171.5250  142.9860 C   0  0  0  0  0  2  0  0  0  0  0  0
  197.3610  171.3980  144.2120 C   0  0  0  0  0  1  0  0  0  0  0  0
  196.6850  171.6250  142.8740 C   0  0  2  0  0  3  0  0  0  0  0  0
  197.1730  172.8760  142.1250 C   0  0  0  0  0  2  0  0  0  0  0  0
  197.9410  174.9090  143.1960 O   0  0  0  0  0  1  0  0  0  0  0  0
  196.8030  174.2700  142.6800 C   0  0  1  0  0  0  0  0  0  0  0  0
  194.9310  175.0920  141.4080 O   0  0  0  0  0  1  0  0  0  0  0  0
  196.3240  175.1120  141.5050 C   0  0  0  0  0  2  0  0  0  0  0  0
  195.7430  174.2180  143.6240 O   0  0  0  0  0  0  0  0  0  0  0  0
  196.1710  174.6600  144.8920 C   0  0  0  0  0  2  0  0  0  0  0  0
  194.9870  175.1510  145.7210 C   0  0  0  0  0  2  0  0  0  0  0  0
  193.7160  175.2030  144.8760 C   0  0  0  0  0  2  0  0  0  0  0  0
  192.2140  176.1280  146.4940 O   0  0  0  0  0  0  0  0  0  0  0  0
  190.5000  176.2980  144.8890 C   0  0  0  0  0  2  0  0  0  0  0  0
  190.8700  176.4960  146.3290 C   0  0  1  0  0  3  0  0  0  0  0  0
  189.9840  175.6540  147.2220 C   0  0  0  0  0  1  0  0  0  0  0  0
  192.8430  176.3920  145.2590 C   0  0  2  0  0  3  0  0  0  0  0  0
  191.7810  176.6230  144.1950 C   0  0  0  0  0  2  0  0  0  0  0  0
  1  4  1  6  0  0  0
  2 35  1  1  0  0  0
  2  3  1  0  0  0  0
  2  1  1  0  0  0  0
  3  1  1  0  0  0  0
  5  9  2  0  0  0  0
  5  6  1  0  0  0  0
  6  8  2  0  0  0  0
  7 11  1  0  0  0  0
  7 10  2  0  0  0  0
  8 10  1  0  0  0  0
  9  7  1  0  0  0  0
 10  4  1  0  0  0  0
 11 12  1  6  0  0  0
 11 18  1  0  0  0  0
 13 14  2  0  0  0  0
 13 15  1  0  0  0  0
 14 12  2  0  0  0  0
 15 16  1  0  0  0  0
 17 16  1  0  0  0  0
 18 19  1  0  0  0  0
 20 19  1  6  0  0  0
 20 24  1  0  0  0  0
 20 21  1  0  0  0  0
 21 25  1  0  0  0  0
 22 28  1  1  0  0  0
 22 27  1  0  0  0  0
 24 22  1  0  0  0  0
 25 26  2  0  0  0  0
 26 23  1  0  0  0  0
 27 26  1  0  0  0  0
 28 30  1  0  0  0  0
 29 34  1  0  0  0  0
 30 29  1  0  0  0  0
 31 29  2  0  0  0  0
 34 32  1  0  0  0  0
 34 33  1  0  0  0  0
 35 39  1  6  0  0  0
 36 35  1  0  0  0  0
 37 38  1  0  0  0  0
 38 36  1  0  0  0  0
 39 40  1  0  0  0  0
 40 41  1  0  0  0  0
 41 42  1  0  0  0  0
 42 44  1  0  0  0  0
 44 43  1  1  0  0  0
 45 44  1  0  0  0  0
 47 45  1  0  0  0  0
 47 46  1  1  0  0  0
 48 50  1  0  0  0  0
 48 47  1  0  0  0  0
 50 49  1  1  0  0  0
 50 53  1  0  0  0  0
 51 52  1  0  0  0  0
 52 50  1  0  0  0  0
 53 54  1  0  0  0  0
 54 55  1  0  0  0  0
 56 55  1  0  0  0  0
 58 59  1  0  0  0  0
 59 57  1  0  0  0  0
 59 60  1  1  0  0  0
 61 56  1  6  0  0  0
 61 57  1  0  0  0  0
 62 58  1  0  0  0  0
 62 61  1  0  0  0  0
M  END
>  <MODEL>
8

>  <REMARK>
 VINA RESULT:      -3.4      3.861     10.164
  Name = 
  30 active torsions:
  status: ('A' for Active; 'I' for Inactive)
    1  A    between atoms: C_1  and  C_51
    2  A    between atoms: C_2  and  C_50
    3  A    between atoms: C_2  and  C_60
    4  A    between atoms: C_4  and  C_33
    5  A    between atoms: C_4  and  C_47
    6  A    between atoms: C_5  and  C_12
    7  A    between atoms: C_5  and  C_44
    8  A    between atoms: O_6  and  C_30
    9  A    between atoms: O_6  and  C_42
   10  A    between atoms: C_10  and  C_16
   11  A    between atoms: C_10  and  N_20
   12  A    between atoms: C_12  and  C_31
   13  A    between atoms: C_13  and  C_35
   14  A    between atoms: C_19  and  C_54
   15  A    between atoms: C_21  and  N_58
   16  A    between atoms: C_22  and  C_56
   17  A    between atoms: N_24  and  C_34
   18  A    between atoms: N_24  and  C_51
   19  A    between atoms: C_26  and  C_47
   20  A    between atoms: C_26  and  C_56
   21  A    between atoms: C_29  and  C_34
   22  A    between atoms: C_30  and  C_50
   23  A    between atoms: C_31  and  C_42
   24  A    between atoms: C_33  and  C_44
   25  A    between atoms: C_34  and  C_55
   26  A    between atoms: C_35  and  C_59
   27  A    between atoms: C_42  and  C_48
   28  A    between atoms: N_45  and  C_53
   29  A    between atoms: N_45  and  C_56
   30  A    between atoms: C_46  and  N_58
                            x       y       z     vdW  Elec       q    Type
                         _______ _______ _______ _____ _____    ______ ____

>  <TORSDO>
F 30

$$$$
=
 OpenBabel11062423013D

 62 65  0  0  1  0  0  0  0  0999 V2000
  190.3280  170.7410  139.9970 C   0  0  1  0  0  3  0  0  0  0  0  0
  191.3410  170.5510  138.8770 C   0  0  1  0  0  3  0  0  0  0  0  0
  191.6470  170.0320  140.2740 C   0  0  0  0  0  2  0  0  0  0  0  0
  190.3940  172.1310  140.4180 N   0  0  0  0  0  2  0  0  0  0  0  0
  189.9180  173.1790  144.4550 C   0  0  0  0  0  3  0  0  0  0  0  0
  189.2310  172.0760  143.9470 C   0  0  0  0  0  3  0  0  0  0  0  0
  190.8200  173.6580  142.3080 C   0  0  0  0  0  0  0  0  0  0  0  0
  189.3500  171.7580  142.5930 C   0  0  0  0  0  3  0  0  0  0  0  0
  190.6870  173.9400  143.6330 N   0  0  0  0  0  0  0  0  0  0  0  0
  190.1370  172.5490  141.7600 C   0  0  0  0  0  0  0  0  0  0  0  0
  191.6980  174.5370  141.4690 C   0  0  2  0  0  3  0  0  0  0  0  0
  192.9840  173.8370  141.1430 C   0  0  0  0  0  3  0  0  0  0  0  0
  193.7310  173.5030  138.6630 C   0  0  0  0  0  3  0  0  0  0  0  0
  193.3690  173.6470  139.9090 C   0  0  0  0  0  0  0  0  0  0  0  0
  194.6490  174.5000  138.0370 C   0  0  0  0  0  2  0  0  0  0  0  0
  196.0920  174.2180  138.4300 C   0  0  0  0  0  2  0  0  0  0  0  0
  196.5810  175.2750  139.2930 N   0  0  0  0  0  1  0  0  0  0  0  0
  191.9230  175.8120  142.1470 N   0  0  0  0  0  2  0  0  0  0  0  0
  193.3410  176.1380  142.0550 C   0  0  0  0  0  2  0  0  0  0  0  0
  194.1180  175.6380  143.2630 C   0  0  1  0  0  3  0  0  0  0  0  0
  195.4580  176.3610  143.3960 C   0  0  0  0  0  2  0  0  0  0  0  0
  194.0410  175.9250  145.8140 C   0  0  2  0  0  3  0  0  0  0  0  0
  197.6300  173.9620  145.9460 Cl  0  0  0  0  0  0  0  0  0  0  0  0
  193.2540  175.8270  144.5080 C   0  0  0  0  0  2  0  0  0  0  0  0
  196.4770  175.5230  144.1140 C   0  0  0  0  0  3  0  0  0  0  0  0
  196.2770  174.8560  145.2710 C   0  0  0  0  0  0  0  0  0  0  0  0
  194.9490  174.7160  145.9790 C   0  0  0  0  0  2  0  0  0  0  0  0
  193.0800  176.0160  146.9900 C   0  0  0  0  0  2  0  0  0  0  0  0
  190.5530  176.0400  147.0120 C   0  0  0  0  0  0  0  0  0  0  0  0
  191.8030  176.5540  146.5410 N   0  0  0  0  0  2  0  0  0  0  0  0
  190.5140  174.9020  147.5520 O   0  0  0  0  0  0  0  0  0  0  0  0
  188.4310  176.2900  145.7350 C   0  0  0  0  0  1  0  0  0  0  0  0
  189.6110  178.3040  146.5310 C   0  0  0  0  0  1  0  0  0  0  0  0
  189.2970  176.8500  146.8480 C   0  0  0  0  0  3  0  0  0  0  0  0
  191.0300  169.3940  137.9040 C   0  0  2  0  0  3  0  0  0  0  0  0
  192.1930  168.5240  137.7950 N   0  0  0  0  0  2  0  0  0  0  0  0
  194.5750  168.9790  138.0410 C   0  0  0  0  0  1  0  0  0  0  0  0
  193.3050  169.3110  137.2840 C   0  0  0  0  0  2  0  0  0  0  0  0
  190.5800  169.7910  136.4920 C   0  0  0  0  0  2  0  0  0  0  0  0
  190.5460  171.3040  136.2990 C   0  0  0  0  0  2  0  0  0  0  0  0
  191.2870  171.7040  135.0310 C   0  0  0  0  0  2  0  0  0  0  0  0
  191.4390  173.2100  135.0110 C   0  0  0  0  0  2  0  0  0  0  0  0
  189.0740  172.9940  135.0380 O   0  0  0  0  0  1  0  0  0  0  0  0
  190.1060  173.8630  134.6740 C   0  0  1  0  0  3  0  0  0  0  0  0
  189.9460  175.1700  135.4440 C   0  0  0  0  0  2  0  0  0  0  0  0
  189.6200  173.8540  137.5600 C   0  0  0  0  0  1  0  0  0  0  0  0
  189.1100  174.9970  136.7040 C   0  0  2  0  0  3  0  0  0  0  0  0
  187.5950  174.9650  136.4460 C   0  0  0  0  0  2  0  0  0  0  0  0
  187.6200  177.3830  136.6140 O   0  0  0  0  0  1  0  0  0  0  0  0
  186.7770  176.2610  136.6490 C   0  0  1  0  0  0  0  0  0  0  0  0
  184.6370  175.7040  135.6960 O   0  0  0  0  0  1  0  0  0  0  0  0
  185.8310  176.3880  135.4620 C   0  0  0  0  0  2  0  0  0  0  0  0
  185.9800  176.2250  137.8250 O   0  0  0  0  0  0  0  0  0  0  0  0
  186.7170  176.6450  138.9500 C   0  0  0  0  0  2  0  0  0  0  0  0
  186.0810  177.8780  139.5830 C   0  0  0  0  0  2  0  0  0  0  0  0
  185.1680  177.4860  140.7430 C   0  0  0  0  0  2  0  0  0  0  0  0
  185.0590  177.2120  143.1190 O   0  0  0  0  0  0  0  0  0  0  0  0
  186.3110  179.1760  143.4590 C   0  0  0  0  0  2  0  0  0  0  0  0
  185.5680  178.0530  144.1200 C   0  0  1  0  0  3  0  0  0  0  0  0
  184.4400  178.5950  144.9710 C   0  0  0  0  0  1  0  0  0  0  0  0
  185.9570  177.3100  142.0350 C   0  0  2  0  0  3  0  0  0  0  0  0
  186.8740  178.5040  142.2510 C   0  0  0  0  0  2  0  0  0  0  0  0
  1  3  1  0  0  0  0
  1  4  1  1  0  0  0
  2 35  1  6  0  0  0
  2  1  1  0  0  0  0
  2  3  1  0  0  0  0
  4 10  1  0  0  0  0
  6  5  1  0  0  0  0
  7  9  1  0  0  0  0
  8  6  2  0  0  0  0
  9  5  2  0  0  0  0
 10  7  2  0  0  0  0
 10  8  1  0  0  0  0
 11 12  1  1  0  0  0
 11 18  1  0  0  0  0
 11  7  1  0  0  0  0
 13 14  2  0  0  0  0
 14 12  2  0  0  0  0
 15 16  1  0  0  0  0
 15 13  1  0  0  0  0
 16 17  1  0  0  0  0
 19 18  1  0  0  0  0
 20 19  1  6  0  0  0
 20 21  1  0  0  0  0
 20 24  1  0  0  0  0
 21 25  1  0  0  0  0
 22 27  1  0  0  0  0
 22 28  1  1  0  0  0
 24 22  1  0  0  0  0
 25 26  2  0  0  0  0
 26 23  1  0  0  0  0
 26 27  1  0  0  0  0
 29 31  2  0  0  0  0
 30 28  1  0  0  0  0
 30 29  1  0  0  0  0
 32 34  1  0  0  0  0
 33 34  1  0  0  0  0
 34 29  1  0  0  0  0
 35 39  1  6  0  0  0
 36 35  1  0  0  0  0
 38 36  1  0  0  0  0
 38 37  1  0  0  0  0
 40 39  1  0  0  0  0
 41 40  1  0  0  0  0
 42 41  1  0  0  0  0
 44 42  1  0  0  0  0
 44 43  1  1  0  0  0
 44 45  1  0  0  0  0
 45 47  1  0  0  0  0
 47 46  1  6  0  0  0
 48 50  1  0  0  0  0
 48 47  1  0  0  0  0
 50 49  1  1  0  0  0
 50 53  1  0  0  0  0
 52 51  1  0  0  0  0
 52 50  1  0  0  0  0
 53 54  1  0  0  0  0
 54 55  1  0  0  0  0
 55 56  1  0  0  0  0
 57 59  1  0  0  0  0
 58 59  1  0  0  0  0
 59 60  1  6  0  0  0
 61 56  1  6  0  0  0
 61 62  1  0  0  0  0
 61 57  1  0  0  0  0
 62 58  1  0  0  0  0
M  END
>  <MODEL>
9

>  <REMARK>
 VINA RESULT:      -3.3      3.217      7.988
  Name = 
  30 active torsions:
  status: ('A' for Active; 'I' for Inactive)
    1  A    between atoms: C_1  and  C_51
    2  A    between atoms: C_2  and  C_50
    3  A    between atoms: C_2  and  C_60
    4  A    between atoms: C_4  and  C_33
    5  A    between atoms: C_4  and  C_47
    6  A    between atoms: C_5  and  C_12
    7  A    between atoms: C_5  and  C_44
    8  A    between atoms: O_6  and  C_30
    9  A    between atoms: O_6  and  C_42
   10  A    between atoms: C_10  and  C_16
   11  A    between atoms: C_10  and  N_20
   12  A    between atoms: C_12  and  C_31
   13  A    between atoms: C_13  and  C_35
   14  A    between atoms: C_19  and  C_54
   15  A    between atoms: C_21  and  N_58
   16  A    between atoms: C_22  and  C_56
   17  A    between atoms: N_24  and  C_34
   18  A    between atoms: N_24  and  C_51
   19  A    between atoms: C_26  and  C_47
   20  A    between atoms: C_26  and  C_56
   21  A    between atoms: C_29  and  C_34
   22  A    between atoms: C_30  and  C_50
   23  A    between atoms: C_31  and  C_42
   24  A    between atoms: C_33  and  C_44
   25  A    between atoms: C_34  and  C_55
   26  A    between atoms: C_35  and  C_59
   27  A    between atoms: C_42  and  C_48
   28  A    between atoms: N_45  and  C_53
   29  A    between atoms: N_45  and  C_56
   30  A    between atoms: C_46  and  N_58
                            x       y       z     vdW  Elec       q    Type
                         _______ _______ _______ _____ _____    ______ ____

>  <TORSDO>
F 30

$$$$
