=
 OpenBabel11062421303D

 55 63  0  0  1  0  0  0  0  0999 V2000
  193.4360  169.9960  141.4770 C   0  0  0  0  0  0  0  0  0  0  0  0
  191.1110  171.6330  137.1610 C   0  0  0  0  0  3  0  0  0  0  0  0
  195.1130  173.7360  142.9690 O   0  0  0  0  0  0  0  0  0  0  0  0
  190.6170  171.9160  143.7240 C   0  0  0  0  0  1  0  0  0  0  0  0
  190.6620  172.8840  142.5620 C   0  0  1  0  0  3  0  0  0  0  0  0
  195.3980  171.5110  142.0120 C   0  0  2  0  0  3  0  0  0  0  0  0
  193.8670  168.1660  139.8820 C   0  0  0  0  0  1  0  0  0  0  0  0
  191.8830  171.4780  138.4260 C   0  0  0  0  0  2  0  0  0  0  0  0
  191.0130  171.4770  139.6560 C   0  0  0  0  0  0  0  0  0  0  0  0
  194.0070  174.5880  143.0880 C   0  0  2  0  0  0  0  0  0  0  0  0
  190.0820  173.7400  139.1200 C   0  0  0  0  0  3  0  0  0  0  0  0
  192.6150  170.9740  141.3570 N   0  0  0  0  0  0  0  0  0  0  0  0
  191.6630  175.1880  142.2040 C   0  0  0  0  0  2  0  0  0  0  0  0
  193.0220  174.5430  141.9570 C   0  0  1  0  0  3  0  0  0  0  0  0
  194.7770  170.1900  141.9400 N   0  0  0  0  0  2  0  0  0  0  0  0
  194.6520  172.4060  143.0270 C   0  0  1  0  0  3  0  0  0  0  0  0
  192.8970  168.7480  140.9030 C   0  0  2  0  0  3  0  0  0  0  0  0
  191.6580  169.1600  140.2250 N   0  0  0  0  0  2  0  0  0  0  0  0
  189.2290  172.5640  141.4740 S   0  0  0  0  0  0  0  0  0  0  0  0
  190.7740  174.3210  143.0930 C   0  0  1  0  0  3  0  0  0  0  0  0
  190.1610  173.8360  137.7920 C   0  0  0  0  0  3  0  0  0  0  0  0
  190.3820  172.7130  136.8700 C   0  0  0  0  0  3  0  0  0  0  0  0
  190.1920  172.5200  139.9430 C   0  0  0  0  0  0  0  0  0  0  0  0
  191.3890  170.5090  140.7440 C   0  0  2  0  0  3  0  0  0  0  0  0
  194.7940  171.9100  144.3260 O   0  0  0  0  0  1  0  0  0  0  0  0
  194.0350  175.5060  142.0180 O   0  0  0  0  0  0  0  0  0  0  0  0
  194.5360  176.5860  144.5330 C   0  0  0  0  0  3  0  0  0  0  0  0
  193.1540  175.5540  146.7040 C   0  0  0  0  0  3  0  0  0  0  0  0
  193.7900  176.7500  146.8130 N   0  0  0  0  0  0  0  0  0  0  0  0
  193.2130  174.8270  145.5070 C   0  0  0  0  0  3  0  0  0  0  0  0
  193.8940  175.3510  144.4030 C   0  0  0  0  0  0  0  0  0  0  0  0
  194.4770  177.2720  145.7560 C   0  0  0  0  0  3  0  0  0  0  0  0
  195.4320  172.1250  140.6240 C   0  0  0  0  0  3  0  0  0  0  0  0
  196.8240  172.6200  140.2950 C   0  0  0  0  0  2  0  0  0  0  0  0
  196.3450  171.2860  139.7460 C   0  0  0  0  0  2  0  0  0  0  0  0
  189.5380  174.9580  143.3070 O   0  0  0  0  0  0  0  0  0  0  0  0
  189.0810  174.5320  144.5700 C   0  0  0  0  0  2  0  0  0  0  0  0
  189.6240  175.3710  145.7180 C   0  0  2  0  0  3  0  0  0  0  0  0
  186.5830  176.6740  147.0790 O   0  0  0  0  0  0  0  0  0  0  0  0
  187.7010  176.4900  146.5360 C   0  0  0  0  0  0  0  0  0  0  0  0
  188.5660  175.3020  146.8170 C   0  0  0  0  0  2  0  0  0  0  0  0
  188.2400  177.3660  145.5510 N   0  0  0  0  0  0  0  0  0  0  0  0
  190.5500  177.5450  145.2590 O   0  0  0  0  0  0  0  0  0  0  0  0
  189.5270  176.8090  145.3140 C   0  0  0  0  0  0  0  0  0  0  0  0
  187.3860  177.7780  144.4230 C   0  0  1  0  0  3  0  0  0  0  0  0
  186.0350  177.6440  141.8890 N   0  0  2  0  0  0  0  0  0  0  0  0
  184.1270  179.4120  144.7900 C   0  0  0  0  0  1  0  0  0  0  0  0
  183.6680  178.0530  142.2250 C   0  0  0  0  0  2  0  0  0  0  0  0
  183.9410  177.9290  140.7500 C   0  0  0  0  0  2  0  0  0  0  0  0
  187.2720  178.4300  141.9810 C   0  0  0  0  0  2  0  0  0  0  0  0
  185.4350  178.0290  140.6240 C   0  0  0  0  0  2  0  0  0  0  0  0
  185.2970  179.1670  143.8510 C   0  0  2  0  0  3  0  0  0  0  0  0
  185.0120  177.9410  142.9250 C   0  0  2  0  0  3  0  0  0  0  0  0
  186.5550  179.0260  144.7430 C   0  0  0  0  0  2  0  0  0  0  0  0
  188.1690  177.9420  143.1100 C   0  0  0  0  0  2  0  0  0  0  0  0
  1 15  1  0  0  0  0
  2  8  1  0  0  0  0
  3 16  1  0  0  0  0
  3 10  1  0  0  0  0
  5 20  1  0  0  0  0
  5  4  1  1  0  0  0
  6 33  1  6  0  0  0
  6 16  1  0  0  0  0
  8  9  1  0  0  0  0
  9 23  2  0  0  0  0
 10 31  1  1  0  0  0
 11 23  1  0  0  0  0
 12  1  2  0  0  0  0
 13 20  1  0  0  0  0
 14 26  1  0  0  0  0
 14 13  1  1  0  0  0
 14 10  1  0  0  0  0
 15  6  1  0  0  0  0
 16 25  1  1  0  0  0
 17  7  1  6  0  0  0
 17  1  1  0  0  0  0
 18 24  1  0  0  0  0
 18 17  1  0  0  0  0
 19  5  1  0  0  0  0
 20 36  1  6  0  0  0
 21 11  2  0  0  0  0
 22  2  2  0  0  0  0
 22 21  1  0  0  0  0
 23 19  1  0  0  0  0
 24  9  1  6  0  0  0
 24 12  1  0  0  0  0
 26 10  1  0  0  0  0
 27 32  1  0  0  0  0
 28 29  1  0  0  0  0
 30 28  2  0  0  0  0
 31 27  2  0  0  0  0
 31 30  1  0  0  0  0
 32 29  2  0  0  0  0
 34 33  1  0  0  0  0
 35 34  1  0  0  0  0
 35 33  1  0  0  0  0
 36 37  1  0  0  0  0
 38 37  1  6  0  0  0
 38 41  1  0  0  0  0
 40 41  1  0  0  0  0
 40 39  2  0  0  0  0
 42 40  1  0  0  0  0
 43 44  2  0  0  0  0
 44 42  1  0  0  0  0
 44 38  1  0  0  0  0
 45 55  1  6  0  0  0
 45 54  1  0  0  0  0
 45 42  1  0  0  0  0
 46 51  1  6  0  0  0
 46 50  1  0  0  0  0
 46 53  1  0  0  0  0
 49 48  1  0  0  0  0
 50 55  1  0  0  0  0
 51 49  1  0  0  0  0
 52 54  1  0  0  0  0
 52 47  1  1  0  0  0
 53 48  1  6  0  0  0
 53 52  1  0  0  0  0
M  END
>  <MODEL>
1

>  <REMARK>
 VINA RESULT:      -9.4      0.000      0.000
  Name = 
  6 active torsions:
  status: ('A' for Active; 'I' for Inactive)
    1  A    between atoms: C_5  and  C_49
    2  A    between atoms: C_7  and  C_8
    3  A    between atoms: C_10  and  N_32
    4  A    between atoms: C_14  and  C_48
    5  A    between atoms: O_18  and  C_39
    6  A    between atoms: O_18  and  C_49
                            x       y       z     vdW  Elec       q    Type
                         _______ _______ _______ _____ _____    ______ ____

>  <TORSDO>
F 6

$$$$
=
 OpenBabel11062421303D

 55 63  0  0  1  0  0  0  0  0999 V2000
  193.2000  169.7430  139.7520 C   0  0  0  0  0  0  0  0  0  0  0  0
  189.6140  171.9570  136.7590 C   0  0  0  0  0  3  0  0  0  0  0  0
  195.4270  173.2470  141.0860 O   0  0  0  0  0  0  0  0  0  0  0  0
  191.3860  171.2880  143.0690 C   0  0  0  0  0  1  0  0  0  0  0  0
  191.0720  172.4140  142.1080 C   0  0  1  0  0  3  0  0  0  0  0  0
  195.2840  171.1870  139.7900 C   0  0  2  0  0  3  0  0  0  0  0  0
  192.9930  168.1660  137.8680 C   0  0  0  0  0  1  0  0  0  0  0  0
  190.7630  171.6310  137.6510 C   0  0  0  0  0  2  0  0  0  0  0  0
  190.3630  171.4430  139.0910 C   0  0  0  0  0  0  0  0  0  0  0  0
  194.4610  174.0620  141.6930 C   0  0  2  0  0  0  0  0  0  0  0  0
  189.3930  173.7500  139.2240 C   0  0  0  0  0  3  0  0  0  0  0  0
  192.4250  170.7180  140.0560 N   0  0  0  0  0  0  0  0  0  0  0  0
  191.9810  174.7570  141.7540 C   0  0  0  0  0  2  0  0  0  0  0  0
  193.1500  174.1680  140.9700 C   0  0  1  0  0  3  0  0  0  0  0  0
  194.6250  169.8830  139.7520 N   0  0  0  0  0  2  0  0  0  0  0  0
  194.9610  171.9180  141.1130 C   0  0  1  0  0  3  0  0  0  0  0  0
  192.4500  168.5850  139.2280 C   0  0  2  0  0  3  0  0  0  0  0  0
  191.0710  169.0760  139.0770 N   0  0  0  0  0  2  0  0  0  0  0  0
  189.3430  172.2380  141.5400 S   0  0  0  0  0  0  0  0  0  0  0  0
  191.4130  173.7610  142.7630 C   0  0  1  0  0  3  0  0  0  0  0  0
  189.0210  174.0370  137.9760 C   0  0  0  0  0  3  0  0  0  0  0  0
  188.8720  173.0600  136.8880 C   0  0  0  0  0  3  0  0  0  0  0  0
  189.7280  172.4250  139.7820 C   0  0  0  0  0  0  0  0  0  0  0  0
  191.0470  170.3330  139.8400 C   0  0  2  0  0  3  0  0  0  0  0  0
  195.5160  171.2420  142.2030 O   0  0  0  0  0  1  0  0  0  0  0  0
  194.1600  175.1240  140.8160 O   0  0  0  0  0  0  0  0  0  0  0  0
  194.8760  173.7680  144.1620 C   0  0  0  0  0  3  0  0  0  0  0  0
  195.3850  176.4680  144.5370 C   0  0  0  0  0  3  0  0  0  0  0  0
  195.4190  175.6190  145.5980 N   0  0  0  0  0  0  0  0  0  0  0  0
  195.0700  175.9900  143.2580 C   0  0  0  0  0  3  0  0  0  0  0  0
  194.8300  174.6260  143.0600 C   0  0  0  0  0  0  0  0  0  0  0  0
  195.1680  174.2870  145.4330 C   0  0  0  0  0  3  0  0  0  0  0  0
  194.8690  171.9940  138.5740 C   0  0  0  0  0  3  0  0  0  0  0  0
  196.0870  172.4750  137.8140 C   0  0  0  0  0  2  0  0  0  0  0  0
  195.3210  171.2550  137.3260 C   0  0  0  0  0  2  0  0  0  0  0  0
  190.3480  174.3460  143.4720 O   0  0  0  0  0  0  0  0  0  0  0  0
  190.7880  174.4980  144.8020 C   0  0  0  0  0  2  0  0  0  0  0  0
  191.7590  175.6560  144.9840 C   0  0  2  0  0  3  0  0  0  0  0  0
  190.4980  177.1080  148.0000 O   0  0  0  0  0  0  0  0  0  0  0  0
  190.8560  176.8450  146.8240 C   0  0  0  0  0  0  0  0  0  0  0  0
  191.9100  175.8360  146.4920 C   0  0  0  0  0  2  0  0  0  0  0  0
  190.2560  177.4400  145.6770 N   0  0  0  0  0  0  0  0  0  0  0  0
  191.4620  177.6630  143.6900 O   0  0  0  0  0  0  0  0  0  0  0  0
  191.0400  176.9140  144.6130 C   0  0  0  0  0  0  0  0  0  0  0  0
  188.7870  177.4680  145.5790 C   0  0  1  0  0  3  0  0  0  0  0  0
  186.0530  177.9390  146.3350 N   0  0  2  0  0  0  0  0  0  0  0  0
  186.9350  178.4540  142.5750 C   0  0  0  0  0  1  0  0  0  0  0  0
  184.9610  179.2420  144.6050 C   0  0  0  0  0  2  0  0  0  0  0  0
  183.9450  178.8620  145.6500 C   0  0  0  0  0  2  0  0  0  0  0  0
  186.5880  176.5780  146.4620 C   0  0  0  0  0  2  0  0  0  0  0  0
  184.6150  177.7940  146.4690 C   0  0  0  0  0  2  0  0  0  0  0  0
  186.8610  177.6890  143.8870 C   0  0  2  0  0  3  0  0  0  0  0  0
  186.2710  178.5910  145.0180 C   0  0  2  0  0  3  0  0  0  0  0  0
  188.2880  177.1530  144.1640 C   0  0  0  0  0  2  0  0  0  0  0  0
  188.1010  176.5790  146.6300 C   0  0  0  0  0  2  0  0  0  0  0  0
  1 15  1  0  0  0  0
  1 12  2  0  0  0  0
  2 22  2  0  0  0  0
  2  8  1  0  0  0  0
  3 16  1  0  0  0  0
  3 10  1  0  0  0  0
  5 20  1  0  0  0  0
  5  4  1  1  0  0  0
  6 33  1  6  0  0  0
  6 16  1  0  0  0  0
  8  9  1  0  0  0  0
  9 23  2  0  0  0  0
  9 24  1  0  0  0  0
 10 31  1  1  0  0  0
 11 23  1  0  0  0  0
 13 20  1  0  0  0  0
 14 10  1  0  0  0  0
 14 13  1  1  0  0  0
 15  6  1  0  0  0  0
 16 25  1  1  0  0  0
 17  7  1  6  0  0  0
 17  1  1  0  0  0  0
 18 17  1  0  0  0  0
 19  5  1  0  0  0  0
 20 36  1  6  0  0  0
 21 11  2  0  0  0  0
 22 21  1  0  0  0  0
 23 19  1  0  0  0  0
 24 18  1  6  0  0  0
 24 12  1  0  0  0  0
 26 14  1  0  0  0  0
 26 10  1  0  0  0  0
 27 32  1  0  0  0  0
 28 29  1  0  0  0  0
 30 28  2  0  0  0  0
 31 30  1  0  0  0  0
 31 27  2  0  0  0  0
 32 29  2  0  0  0  0
 34 33  1  0  0  0  0
 35 34  1  0  0  0  0
 35 33  1  0  0  0  0
 36 37  1  0  0  0  0
 38 37  1  1  0  0  0
 38 41  1  0  0  0  0
 40 39  2  0  0  0  0
 41 40  1  0  0  0  0
 42 40  1  0  0  0  0
 43 44  2  0  0  0  0
 44 38  1  0  0  0  0
 44 42  1  0  0  0  0
 45 54  1  6  0  0  0
 45 42  1  0  0  0  0
 45 55  1  0  0  0  0
 46 50  1  6  0  0  0
 46 51  1  0  0  0  0
 48 49  1  0  0  0  0
 49 51  1  0  0  0  0
 50 55  1  0  0  0  0
 52 47  1  6  0  0  0
 52 54  1  0  0  0  0
 52 53  1  0  0  0  0
 53 48  1  6  0  0  0
 53 46  1  0  0  0  0
M  END
>  <MODEL>
2

>  <REMARK>
 VINA RESULT:      -9.2      1.692      2.490
  Name = 
  6 active torsions:
  status: ('A' for Active; 'I' for Inactive)
    1  A    between atoms: C_5  and  C_49
    2  A    between atoms: C_7  and  C_8
    3  A    between atoms: C_10  and  N_32
    4  A    between atoms: C_14  and  C_48
    5  A    between atoms: O_18  and  C_39
    6  A    between atoms: O_18  and  C_49
                            x       y       z     vdW  Elec       q    Type
                         _______ _______ _______ _____ _____    ______ ____

>  <TORSDO>
F 6

$$$$
=
 OpenBabel11062421303D

 55 63  0  0  1  0  0  0  0  0999 V2000
  194.4810  170.3340  138.8310 C   0  0  0  0  0  0  0  0  0  0  0  0
  190.6090  172.2300  135.9820 C   0  0  0  0  0  3  0  0  0  0  0  0
  195.7960  173.9300  140.9190 O   0  0  0  0  0  0  0  0  0  0  0  0
  192.2310  170.8110  142.2070 C   0  0  0  0  0  1  0  0  0  0  0  0
  191.7080  171.9980  141.4290 C   0  0  1  0  0  3  0  0  0  0  0  0
  196.1780  172.1630  139.2830 C   0  0  2  0  0  3  0  0  0  0  0  0
  194.7150  169.1240  136.6950 C   0  0  0  0  0  1  0  0  0  0  0  0
  191.7650  172.0020  136.8940 C   0  0  0  0  0  2  0  0  0  0  0  0
  191.3600  171.4700  138.2440 C   0  0  0  0  0  0  0  0  0  0  0  0
  194.6450  174.3900  141.5760 C   0  0  2  0  0  0  0  0  0  0  0  0
  189.8860  173.4470  138.6900 C   0  0  0  0  0  3  0  0  0  0  0  0
  193.4930  171.0450  139.2340 N   0  0  0  0  0  0  0  0  0  0  0  0
  192.0720  174.5070  141.5540 C   0  0  0  0  0  2  0  0  0  0  0  0
  193.3750  174.3410  140.7790 C   0  0  1  0  0  3  0  0  0  0  0  0
  195.8350  170.7770  138.9700 N   0  0  0  0  0  2  0  0  0  0  0  0
  195.6440  172.5510  140.6810 C   0  0  1  0  0  3  0  0  0  0  0  0
  194.0370  169.1580  138.0590 C   0  0  2  0  0  3  0  0  0  0  0  0
  192.5890  169.3570  137.8840 N   0  0  0  0  0  2  0  0  0  0  0  0
  190.0890  171.5590  140.7020 S   0  0  0  0  0  0  0  0  0  0  0  0
  191.7060  173.2430  142.3300 C   0  0  1  0  0  3  0  0  0  0  0  0
  189.5080  173.8710  137.4830 C   0  0  0  0  0  3  0  0  0  0  0  0
  189.6300  173.1030  136.2360 C   0  0  0  0  0  3  0  0  0  0  0  0
  190.4910  172.1460  139.0390 C   0  0  0  0  0  0  0  0  0  0  0  0
  192.2490  170.4160  138.8450 C   0  0  2  0  0  3  0  0  0  0  0  0
  196.2940  171.8210  141.6810 O   0  0  0  0  0  1  0  0  0  0  0  0
  194.1460  175.5040  140.8710 O   0  0  0  0  0  0  0  0  0  0  0  0
  194.8210  173.7450  144.0070 C   0  0  0  0  0  3  0  0  0  0  0  0
  195.0650  176.3830  144.8300 C   0  0  0  0  0  3  0  0  0  0  0  0
  195.0560  175.3840  145.7510 N   0  0  0  0  0  0  0  0  0  0  0  0
  194.9260  176.0890  143.4660 C   0  0  0  0  0  3  0  0  0  0  0  0
  194.8210  174.7590  143.0440 C   0  0  0  0  0  0  0  0  0  0  0  0
  194.9340  174.0800  145.3650 C   0  0  0  0  0  3  0  0  0  0  0  0
  195.6400  173.0710  138.1930 C   0  0  0  0  0  3  0  0  0  0  0  0
  196.7460  173.9340  137.6240 C   0  0  0  0  0  2  0  0  0  0  0  0
  196.2950  172.6880  136.8770 C   0  0  0  0  0  2  0  0  0  0  0  0
  190.5080  173.4430  143.0400 O   0  0  0  0  0  0  0  0  0  0  0  0
  190.4820  174.8030  143.4060 C   0  0  0  0  0  2  0  0  0  0  0  0
  191.3370  175.1130  144.6260 C   0  0  2  0  0  3  0  0  0  0  0  0
  189.0610  174.2790  147.2570 O   0  0  0  0  0  0  0  0  0  0  0  0
  189.8310  174.8380  146.4350 C   0  0  0  0  0  0  0  0  0  0  0  0
  190.9100  174.1100  145.6960 C   0  0  0  0  0  2  0  0  0  0  0  0
  189.7230  176.2120  146.0780 N   0  0  0  0  0  0  0  0  0  0  0  0
  191.5960  177.3960  145.3410 O   0  0  0  0  0  0  0  0  0  0  0  0
  190.8390  176.3940  145.2160 C   0  0  0  0  0  0  0  0  0  0  0  0
  188.4010  176.7480  145.7120 C   0  0  1  0  0  3  0  0  0  0  0  0
  186.1550  178.5410  145.6450 N   0  0  2  0  0  0  0  0  0  0  0  0
  187.0270  176.7130  142.3160 C   0  0  0  0  0  1  0  0  0  0  0  0
  185.6500  179.1000  143.3390 C   0  0  0  0  0  2  0  0  0  0  0  0
  184.6110  179.7210  144.2340 C   0  0  0  0  0  2  0  0  0  0  0  0
  186.0680  177.3440  146.4910 C   0  0  0  0  0  2  0  0  0  0  0  0
  184.7960  179.0470  145.5650 C   0  0  0  0  0  2  0  0  0  0  0  0
  186.6860  176.8080  143.7940 C   0  0  2  0  0  3  0  0  0  0  0  0
  186.5770  178.3010  144.2400 C   0  0  2  0  0  3  0  0  0  0  0  0
  187.7620  175.9850  144.5460 C   0  0  0  0  0  2  0  0  0  0  0  0
  187.4450  176.8500  146.9120 C   0  0  0  0  0  2  0  0  0  0  0  0
  1 15  1  0  0  0  0
  1 12  2  0  0  0  0
  2 22  2  0  0  0  0
  2  8  1  0  0  0  0
  3 10  1  0  0  0  0
  5  4  1  1  0  0  0
  5 20  1  0  0  0  0
  6 33  1  6  0  0  0
  6 16  1  0  0  0  0
  8  9  1  0  0  0  0
  9 24  1  0  0  0  0
  9 23  2  0  0  0  0
 10 31  1  1  0  0  0
 11 23  1  0  0  0  0
 13 20  1  0  0  0  0
 14 26  1  0  0  0  0
 14 13  1  1  0  0  0
 14 10  1  0  0  0  0
 15  6  1  0  0  0  0
 16  3  1  0  0  0  0
 16 25  1  1  0  0  0
 17  7  1  6  0  0  0
 17  1  1  0  0  0  0
 18 17  1  0  0  0  0
 19  5  1  0  0  0  0
 20 36  1  6  0  0  0
 21 11  2  0  0  0  0
 22 21  1  0  0  0  0
 23 19  1  0  0  0  0
 24 18  1  6  0  0  0
 24 12  1  0  0  0  0
 26 10  1  0  0  0  0
 27 32  1  0  0  0  0
 28 29  1  0  0  0  0
 30 28  2  0  0  0  0
 31 30  1  0  0  0  0
 31 27  2  0  0  0  0
 32 29  2  0  0  0  0
 34 33  1  0  0  0  0
 35 34  1  0  0  0  0
 35 33  1  0  0  0  0
 36 37  1  0  0  0  0
 38 37  1  6  0  0  0
 38 44  1  0  0  0  0
 38 41  1  0  0  0  0
 40 39  2  0  0  0  0
 41 40  1  0  0  0  0
 42 40  1  0  0  0  0
 44 43  2  0  0  0  0
 44 42  1  0  0  0  0
 45 54  1  6  0  0  0
 45 42  1  0  0  0  0
 45 55  1  0  0  0  0
 46 51  1  6  0  0  0
 46 50  1  0  0  0  0
 48 49  1  0  0  0  0
 49 51  1  0  0  0  0
 50 55  1  0  0  0  0
 52 47  1  6  0  0  0
 52 53  1  0  0  0  0
 52 54  1  0  0  0  0
 53 48  1  6  0  0  0
 53 46  1  0  0  0  0
M  END
>  <MODEL>
3

>  <REMARK>
 VINA RESULT:      -8.2      1.793      2.628
  Name = 
  6 active torsions:
  status: ('A' for Active; 'I' for Inactive)
    1  A    between atoms: C_5  and  C_49
    2  A    between atoms: C_7  and  C_8
    3  A    between atoms: C_10  and  N_32
    4  A    between atoms: C_14  and  C_48
    5  A    between atoms: O_18  and  C_39
    6  A    between atoms: O_18  and  C_49
                            x       y       z     vdW  Elec       q    Type
                         _______ _______ _______ _____ _____    ______ ____

>  <TORSDO>
F 6

$$$$
=
 OpenBabel11062421303D

 55 63  0  0  1  0  0  0  0  0999 V2000
  195.4060  171.2610  137.0570 C   0  0  0  0  0  0  0  0  0  0  0  0
  190.8340  172.7800  135.1870 C   0  0  0  0  0  3  0  0  0  0  0  0
  196.4130  174.6530  139.6070 O   0  0  0  0  0  0  0  0  0  0  0  0
  193.7190  170.7080  140.7350 C   0  0  0  0  0  1  0  0  0  0  0  0
  192.8720  171.8770  140.2830 C   0  0  1  0  0  3  0  0  0  0  0  0
  196.8120  173.2950  137.6210 C   0  0  2  0  0  3  0  0  0  0  0  0
  195.4780  170.4940  134.7150 C   0  0  0  0  0  1  0  0  0  0  0  0
  192.1500  172.6420  135.8710 C   0  0  0  0  0  2  0  0  0  0  0  0
  192.0810  171.8240  137.1340 C   0  0  0  0  0  0  0  0  0  0  0  0
  195.3300  174.7550  140.4910 C   0  0  2  0  0  0  0  0  0  0  0  0
  190.3850  173.3600  138.1530 C   0  0  0  0  0  3  0  0  0  0  0  0
  194.3930  171.6810  137.7220 N   0  0  0  0  0  0  0  0  0  0  0  0
  192.8110  174.3510  140.8440 C   0  0  0  0  0  2  0  0  0  0  0  0
  193.9700  174.5830  139.8810 C   0  0  1  0  0  3  0  0  0  0  0  0
  196.6660  171.9400  137.0930 N   0  0  0  0  0  2  0  0  0  0  0  0
  196.4650  173.3300  139.1270 C   0  0  1  0  0  3  0  0  0  0  0  0
  195.0480  170.1630  136.1380 C   0  0  2  0  0  3  0  0  0  0  0  0
  193.5790  170.0920  136.2040 N   0  0  0  0  0  2  0  0  0  0  0  0
  191.2540  171.2460  139.7120 S   0  0  0  0  0  0  0  0  0  0  0  0
  192.8080  172.9290  141.4010 C   0  0  1  0  0  3  0  0  0  0  0  0
  189.7380  173.8930  137.1160 C   0  0  0  0  0  3  0  0  0  0  0  0
  189.7770  173.3820  135.7380 C   0  0  0  0  0  3  0  0  0  0  0  0
  191.2580  172.1690  138.1560 C   0  0  0  0  0  0  0  0  0  0  0  0
  193.2300  170.8870  137.3910 C   0  0  2  0  0  3  0  0  0  0  0  0
  197.3940  172.5920  139.8680 O   0  0  0  0  0  1  0  0  0  0  0  0
  194.5320  175.8460  140.0920 O   0  0  0  0  0  0  0  0  0  0  0  0
  195.7230  176.1810  142.5330 C   0  0  0  0  0  3  0  0  0  0  0  0
  196.3820  173.9910  144.1030 C   0  0  0  0  0  3  0  0  0  0  0  0
  196.4160  175.2410  144.6360 N   0  0  0  0  0  0  0  0  0  0  0  0
  196.0390  173.8050  142.7570 C   0  0  0  0  0  3  0  0  0  0  0  0
  195.6880  174.9040  141.9660 C   0  0  0  0  0  0  0  0  0  0  0  0
  196.0980  176.3310  143.8780 C   0  0  0  0  0  3  0  0  0  0  0  0
  195.9450  174.2430  136.8130 C   0  0  0  0  0  3  0  0  0  0  0  0
  196.7600  175.4190  136.3190 C   0  0  0  0  0  2  0  0  0  0  0  0
  196.4530  174.2620  135.3810 C   0  0  0  0  0  2  0  0  0  0  0  0
  191.7330  172.7620  142.2930 O   0  0  0  0  0  0  0  0  0  0  0  0
  191.4350  174.0410  142.8040 C   0  0  0  0  0  2  0  0  0  0  0  0
  192.1190  174.3310  144.1320 C   0  0  2  0  0  3  0  0  0  0  0  0
  189.3150  174.2380  146.3530 O   0  0  0  0  0  0  0  0  0  0  0  0
  190.3080  174.5470  145.6460 C   0  0  0  0  0  0  0  0  0  0  0  0
  191.3270  173.5550  145.1830 C   0  0  0  0  0  2  0  0  0  0  0  0
  190.5370  175.8670  145.1620 N   0  0  0  0  0  0  0  0  0  0  0  0
  192.7050  176.5970  144.6910 O   0  0  0  0  0  0  0  0  0  0  0  0
  191.7950  175.7410  144.5110 C   0  0  0  0  0  0  0  0  0  0  0  0
  189.4280  176.5870  144.5130 C   0  0  1  0  0  3  0  0  0  0  0  0
  187.4710  177.2710  142.5220 N   0  0  2  0  0  0  0  0  0  0  0  0
  186.3980  177.7060  146.2420 C   0  0  0  0  0  1  0  0  0  0  0  0
  185.2750  177.3350  143.5520 C   0  0  0  0  0  2  0  0  0  0  0  0
  185.1580  177.7760  142.1170 C   0  0  0  0  0  2  0  0  0  0  0  0
  188.7020  178.0680  142.5940 C   0  0  0  0  0  2  0  0  0  0  0  0
  186.5720  178.0370  141.6770 C   0  0  0  0  0  2  0  0  0  0  0  0
  187.2830  177.9140  145.0240 C   0  0  2  0  0  3  0  0  0  0  0  0
  186.7520  177.0870  143.8100 C   0  0  2  0  0  3  0  0  0  0  0  0
  188.7260  177.5630  145.4650 C   0  0  0  0  0  2  0  0  0  0  0  0
  189.8500  177.2790  143.2060 C   0  0  0  0  0  2  0  0  0  0  0  0
  1 15  1  0  0  0  0
  1 12  2  0  0  0  0
  2 22  2  0  0  0  0
  2  8  1  0  0  0  0
  3 10  1  0  0  0  0
  5  4  1  1  0  0  0
  5 20  1  0  0  0  0
  6 33  1  6  0  0  0
  6 16  1  0  0  0  0
  8  9  1  0  0  0  0
  9 24  1  0  0  0  0
  9 23  2  0  0  0  0
 10 31  1  1  0  0  0
 11 23  1  0  0  0  0
 13 20  1  0  0  0  0
 14 26  1  0  0  0  0
 14 10  1  0  0  0  0
 14 13  1  1  0  0  0
 15  6  1  0  0  0  0
 16  3  1  0  0  0  0
 16 25  1  1  0  0  0
 17  7  1  6  0  0  0
 17 18  1  0  0  0  0
 17  1  1  0  0  0  0
 19  5  1  0  0  0  0
 20 36  1  6  0  0  0
 21 11  2  0  0  0  0
 22 21  1  0  0  0  0
 23 19  1  0  0  0  0
 24 18  1  6  0  0  0
 24 12  1  0  0  0  0
 26 10  1  0  0  0  0
 27 32  1  0  0  0  0
 28 29  1  0  0  0  0
 30 28  2  0  0  0  0
 31 27  2  0  0  0  0
 31 30  1  0  0  0  0
 32 29  2  0  0  0  0
 34 33  1  0  0  0  0
 35 34  1  0  0  0  0
 35 33  1  0  0  0  0
 36 37  1  0  0  0  0
 38 37  1  6  0  0  0
 38 44  1  0  0  0  0
 38 41  1  0  0  0  0
 40 39  2  0  0  0  0
 41 40  1  0  0  0  0
 42 40  1  0  0  0  0
 44 43  2  0  0  0  0
 44 42  1  0  0  0  0
 45 55  1  6  0  0  0
 45 42  1  0  0  0  0
 45 54  1  0  0  0  0
 46 51  1  6  0  0  0
 46 50  1  0  0  0  0
 46 53  1  0  0  0  0
 49 48  1  0  0  0  0
 50 55  1  0  0  0  0
 51 49  1  0  0  0  0
 52 54  1  0  0  0  0
 52 47  1  1  0  0  0
 53 48  1  6  0  0  0
 53 52  1  0  0  0  0
M  END
>  <MODEL>
4

>  <REMARK>
 VINA RESULT:      -8.1      2.602      3.415
  Name = 
  6 active torsions:
  status: ('A' for Active; 'I' for Inactive)
    1  A    between atoms: C_5  and  C_49
    2  A    between atoms: C_7  and  C_8
    3  A    between atoms: C_10  and  N_32
    4  A    between atoms: C_14  and  C_48
    5  A    between atoms: O_18  and  C_39
    6  A    between atoms: O_18  and  C_49
                            x       y       z     vdW  Elec       q    Type
                         _______ _______ _______ _____ _____    ______ ____

>  <TORSDO>
F 6

$$$$
=
 OpenBabel11062421303D

 55 63  0  0  1  0  0  0  0  0999 V2000
  195.7130  172.1690  140.1400 C   0  0  0  0  0  0  0  0  0  0  0  0
  196.9970  168.6410  143.6920 C   0  0  0  0  0  3  0  0  0  0  0  0
  191.3850  171.6480  139.9990 O   0  0  0  0  0  0  0  0  0  0  0  0
  194.0000  174.4720  143.0470 C   0  0  0  0  0  1  0  0  0  0  0  0
  193.6910  173.1130  143.6370 C   0  0  1  0  0  3  0  0  0  0  0  0
  193.5840  171.4540  138.9620 C   0  0  2  0  0  3  0  0  0  0  0  0
  197.8190  171.2340  139.2620 C   0  0  0  0  0  1  0  0  0  0  0  0
  196.3200  169.5350  142.7110 C   0  0  0  0  0  2  0  0  0  0  0  0
  196.0500  170.9140  143.2530 C   0  0  0  0  0  0  0  0  0  0  0  0
  190.9690  171.8500  141.3220 C   0  0  2  0  0  0  0  0  0  0  0  0
  194.6870  170.0090  145.1500 C   0  0  0  0  0  3  0  0  0  0  0  0
  195.2080  172.0210  141.3090 N   0  0  0  0  0  0  0  0  0  0  0  0
  191.6020  171.6830  143.8130 C   0  0  0  0  0  2  0  0  0  0  0  0
  191.8220  171.2130  142.3800 C   0  0  1  0  0  3  0  0  0  0  0  0
  194.9200  172.0470  138.9540 N   0  0  0  0  0  2  0  0  0  0  0  0
  192.6190  172.3030  139.8220 C   0  0  1  0  0  3  0  0  0  0  0  0
  197.1850  172.2680  140.1830 C   0  0  2  0  0  3  0  0  0  0  0  0
  197.5340  171.9640  141.5800 N   0  0  0  0  0  2  0  0  0  0  0  0
  194.8980  172.7610  144.9650 S   0  0  0  0  0  0  0  0  0  0  0  0
  192.2160  173.0600  144.0610 C   0  0  1  0  0  3  0  0  0  0  0  0
  195.1720  168.7850  145.3660 C   0  0  0  0  0  3  0  0  0  0  0  0
  196.4520  168.2760  144.8550 C   0  0  0  0  0  3  0  0  0  0  0  0
  195.3090  171.1000  144.3760 C   0  0  0  0  0  0  0  0  0  0  0  0
  196.2580  172.0620  142.3030 C   0  0  2  0  0  3  0  0  0  0  0  0
  192.4130  173.5590  139.2440 O   0  0  0  0  0  1  0  0  0  0  0  0
  190.6670  170.5940  141.8900 O   0  0  0  0  0  0  0  0  0  0  0  0
  189.9800  174.1670  141.4150 C   0  0  0  0  0  3  0  0  0  0  0  0
  187.4470  173.2110  142.0160 C   0  0  0  0  0  3  0  0  0  0  0  0
  187.6610  174.5500  141.9260 N   0  0  0  0  0  0  0  0  0  0  0  0
  188.5050  172.3100  141.8310 C   0  0  0  0  0  3  0  0  0  0  0  0
  189.7810  172.7870  141.5100 C   0  0  0  0  0  0  0  0  0  0  0  0
  188.9020  175.0390  141.6330 C   0  0  0  0  0  3  0  0  0  0  0  0
  193.6750  170.0200  139.4520 C   0  0  0  0  0  3  0  0  0  0  0  0
  192.9940  169.0810  138.4800 C   0  0  0  0  0  2  0  0  0  0  0  0
  194.5080  169.2230  138.4620 C   0  0  0  0  0  2  0  0  0  0  0  0
  191.9790  173.4620  145.3890 O   0  0  0  0  0  0  0  0  0  0  0  0
  191.2480  174.6640  145.3190 C   0  0  0  0  0  2  0  0  0  0  0  0
  192.1220  175.9050  145.4240 C   0  0  2  0  0  3  0  0  0  0  0  0
  190.6790  177.4890  148.2890 O   0  0  0  0  0  0  0  0  0  0  0  0
  191.0850  177.1620  147.1450 C   0  0  0  0  0  0  0  0  0  0  0  0
  192.2210  176.2160  146.9160 C   0  0  0  0  0  2  0  0  0  0  0  0
  190.4700  177.6150  145.9430 N   0  0  0  0  0  0  0  0  0  0  0  0
  191.7040  177.7740  143.9660 O   0  0  0  0  0  0  0  0  0  0  0  0
  191.3180  177.0700  144.9400 C   0  0  0  0  0  0  0  0  0  0  0  0
  189.0060  177.5200  145.8160 C   0  0  1  0  0  3  0  0  0  0  0  0
  186.2280  177.7790  146.5090 N   0  0  2  0  0  0  0  0  0  0  0  0
  187.1430  178.2930  142.7570 C   0  0  0  0  0  1  0  0  0  0  0  0
  185.0690  178.9540  144.7310 C   0  0  0  0  0  2  0  0  0  0  0  0
  184.0660  178.5120  145.7640 C   0  0  0  0  0  2  0  0  0  0  0  0
  186.8700  176.4690  146.6740 C   0  0  0  0  0  2  0  0  0  0  0  0
  184.8030  177.5190  146.6170 C   0  0  0  0  0  2  0  0  0  0  0  0
  187.1050  177.5500  144.0820 C   0  0  2  0  0  3  0  0  0  0  0  0
  186.4190  178.4210  145.1820 C   0  0  2  0  0  3  0  0  0  0  0  0
  188.5640  177.1390  144.3990 C   0  0  0  0  0  2  0  0  0  0  0  0
  188.3730  176.5980  146.8720 C   0  0  0  0  0  2  0  0  0  0  0  0
  1 17  1  0  0  0  0
  1 12  2  0  0  0  0
  2 22  2  0  0  0  0
  3 10  1  0  0  0  0
  5  4  1  1  0  0  0
  5 20  1  0  0  0  0
  5 19  1  0  0  0  0
  6 33  1  1  0  0  0
  6 16  1  0  0  0  0
  8  9  1  0  0  0  0
  8  2  1  0  0  0  0
  9 23  2  0  0  0  0
 10 31  1  1  0  0  0
 10 26  1  0  0  0  0
 10 14  1  0  0  0  0
 11 21  2  0  0  0  0
 13 20  1  0  0  0  0
 14 13  1  1  0  0  0
 15  6  1  0  0  0  0
 15  1  1  0  0  0  0
 16 25  1  6  0  0  0
 16  3  1  0  0  0  0
 17  7  1  6  0  0  0
 17 18  1  0  0  0  0
 18 24  1  0  0  0  0
 20 36  1  1  0  0  0
 22 21  1  0  0  0  0
 23 19  1  0  0  0  0
 23 11  1  0  0  0  0
 24 12  1  6  0  0  0
 24  9  1  0  0  0  0
 26 14  1  0  0  0  0
 27 31  2  0  0  0  0
 27 32  1  0  0  0  0
 29 28  1  0  0  0  0
 30 28  2  0  0  0  0
 31 30  1  0  0  0  0
 32 29  2  0  0  0  0
 34 33  1  0  0  0  0
 35 34  1  0  0  0  0
 35 33  1  0  0  0  0
 37 36  1  0  0  0  0
 38 37  1  1  0  0  0
 38 41  1  0  0  0  0
 40 39  2  0  0  0  0
 41 40  1  0  0  0  0
 42 40  1  0  0  0  0
 43 44  2  0  0  0  0
 44 38  1  0  0  0  0
 44 42  1  0  0  0  0
 45 54  1  6  0  0  0
 45 42  1  0  0  0  0
 45 55  1  0  0  0  0
 46 51  1  6  0  0  0
 46 50  1  0  0  0  0
 48 49  1  0  0  0  0
 49 51  1  0  0  0  0
 50 55  1  0  0  0  0
 52 47  1  6  0  0  0
 52 54  1  0  0  0  0
 52 53  1  0  0  0  0
 53 48  1  6  0  0  0
 53 46  1  0  0  0  0
M  END
>  <MODEL>
5

>  <REMARK>
 VINA RESULT:      -8.1      2.510      5.255
  Name = 
  6 active torsions:
  status: ('A' for Active; 'I' for Inactive)
    1  A    between atoms: C_5  and  C_49
    2  A    between atoms: C_7  and  C_8
    3  A    between atoms: C_10  and  N_32
    4  A    between atoms: C_14  and  C_48
    5  A    between atoms: O_18  and  C_39
    6  A    between atoms: O_18  and  C_49
                            x       y       z     vdW  Elec       q    Type
                         _______ _______ _______ _____ _____    ______ ____

>  <TORSDO>
F 6

$$$$
=
 OpenBabel11062421303D

 55 63  0  0  1  0  0  0  0  0999 V2000
  194.1030  170.9490  137.5900 C   0  0  0  0  0  0  0  0  0  0  0  0
  189.0310  171.8300  138.0540 C   0  0  0  0  0  3  0  0  0  0  0  0
  195.7240  174.7230  139.0570 O   0  0  0  0  0  0  0  0  0  0  0  0
  194.4420  170.7610  141.6560 C   0  0  0  0  0  1  0  0  0  0  0  0
  193.3330  171.7870  141.5800 C   0  0  1  0  0  3  0  0  0  0  0  0
  195.3180  173.1470  137.2410 C   0  0  2  0  0  3  0  0  0  0  0  0
  193.1650  169.8830  135.5750 C   0  0  0  0  0  1  0  0  0  0  0  0
  190.5200  171.8920  138.0230 C   0  0  0  0  0  2  0  0  0  0  0  0
  191.1660  171.2470  139.2220 C   0  0  0  0  0  0  0  0  0  0  0  0
  195.1830  174.8560  140.3440 C   0  0  2  0  0  0  0  0  0  0  0  0
  189.9600  172.7650  140.8100 C   0  0  0  0  0  3  0  0  0  0  0  0
  193.4770  171.3720  138.6270 N   0  0  0  0  0  0  0  0  0  0  0  0
  193.2090  174.3010  141.9030 C   0  0  0  0  0  2  0  0  0  0  0  0
  193.7340  174.4940  140.4840 C   0  0  1  0  0  3  0  0  0  0  0  0
  195.1260  171.7260  136.9580 N   0  0  0  0  0  2  0  0  0  0  0  0
  195.7220  173.3560  138.7180 C   0  0  1  0  0  3  0  0  0  0  0  0
  193.5050  169.7130  137.0500 C   0  0  2  0  0  3  0  0  0  0  0  0
  192.2670  169.5330  137.8240 N   0  0  0  0  0  2  0  0  0  0  0  0
  191.7390  170.9570  141.9150 S   0  0  0  0  0  0  0  0  0  0  0  0
  193.6620  172.9710  142.5010 C   0  0  1  0  0  3  0  0  0  0  0  0
  188.8360  173.0990  140.1770 C   0  0  0  0  0  3  0  0  0  0  0  0
  188.2880  172.4130  138.9980 C   0  0  0  0  0  3  0  0  0  0  0  0
  190.8830  171.6600  140.4840 C   0  0  0  0  0  0  0  0  0  0  0  0
  192.4140  170.4490  138.9640 C   0  0  2  0  0  3  0  0  0  0  0  0
  196.9800  172.8020  138.9730 O   0  0  0  0  0  1  0  0  0  0  0  0
  194.1520  175.8160  140.2970 O   0  0  0  0  0  0  0  0  0  0  0  0
  197.0570  174.2610  141.9220 C   0  0  0  0  0  3  0  0  0  0  0  0
  197.0890  176.7920  143.0550 C   0  0  0  0  0  3  0  0  0  0  0  0
  197.9400  175.8360  143.5120 N   0  0  0  0  0  0  0  0  0  0  0  0
  196.1780  176.5000  142.0310 C   0  0  0  0  0  3  0  0  0  0  0  0
  196.1700  175.2300  141.4440 C   0  0  0  0  0  0  0  0  0  0  0  0
  197.9360  174.5840  142.9680 C   0  0  0  0  0  3  0  0  0  0  0  0
  194.0530  173.9050  136.8810 C   0  0  0  0  0  3  0  0  0  0  0  0
  194.3640  175.0330  135.9200 C   0  0  0  0  0  2  0  0  0  0  0  0
  193.7890  173.7270  135.3960 C   0  0  0  0  0  2  0  0  0  0  0  0
  193.1690  172.8390  143.8130 O   0  0  0  0  0  0  0  0  0  0  0  0
  192.5090  174.0470  144.1150 C   0  0  0  0  0  2  0  0  0  0  0  0
  193.1600  174.8160  145.2560 C   0  0  2  0  0  3  0  0  0  0  0  0
  190.3490  175.2960  147.4170 O   0  0  0  0  0  0  0  0  0  0  0  0
  191.3250  175.4120  146.6320 C   0  0  0  0  0  0  0  0  0  0  0  0
  192.4140  174.3920  146.5190 C   0  0  0  0  0  2  0  0  0  0  0  0
  191.4690  176.5020  145.7270 N   0  0  0  0  0  0  0  0  0  0  0  0
  193.5860  177.1720  145.0040 O   0  0  0  0  0  0  0  0  0  0  0  0
  192.7380  176.2470  145.1380 C   0  0  0  0  0  0  0  0  0  0  0  0
  190.3190  176.8830  144.8870 C   0  0  1  0  0  3  0  0  0  0  0  0
  188.5320  176.9170  142.6360 N   0  0  2  0  0  0  0  0  0  0  0  0
  186.9170  177.3890  146.1500 C   0  0  0  0  0  1  0  0  0  0  0  0
  186.2650  176.5430  143.4120 C   0  0  0  0  0  2  0  0  0  0  0  0
  186.2380  176.8250  141.9340 C   0  0  0  0  0  2  0  0  0  0  0  0
  189.5320  177.9860  142.7500 C   0  0  0  0  0  2  0  0  0  0  0  0
  187.6010  177.3760  141.6210 C   0  0  0  0  0  2  0  0  0  0  0  0
  187.8830  177.7000  145.0180 C   0  0  2  0  0  3  0  0  0  0  0  0
  187.7140  176.6740  143.8520 C   0  0  2  0  0  3  0  0  0  0  0  0
  189.2990  177.7390  145.6460 C   0  0  0  0  0  2  0  0  0  0  0  0
  190.7400  177.5450  143.5640 C   0  0  0  0  0  2  0  0  0  0  0  0
  1 12  2  0  0  0  0
  2 22  2  0  0  0  0
  3 10  1  0  0  0  0
  5  4  1  1  0  0  0
  5 19  1  0  0  0  0
  5 20  1  0  0  0  0
  6 33  1  1  0  0  0
  6 16  1  0  0  0  0
  8  2  1  0  0  0  0
  8  9  1  0  0  0  0
  9 23  2  0  0  0  0
 10 14  1  0  0  0  0
 10 31  1  1  0  0  0
 12 24  1  0  0  0  0
 13 20  1  0  0  0  0
 14 13  1  1  0  0  0
 15  6  1  0  0  0  0
 15  1  1  0  0  0  0
 16 25  1  6  0  0  0
 16  3  1  0  0  0  0
 17  7  1  6  0  0  0
 17  1  1  0  0  0  0
 17 18  1  0  0  0  0
 20 36  1  1  0  0  0
 21 11  2  0  0  0  0
 22 21  1  0  0  0  0
 23 11  1  0  0  0  0
 23 19  1  0  0  0  0
 24 18  1  6  0  0  0
 24  9  1  0  0  0  0
 26 10  1  0  0  0  0
 26 14  1  0  0  0  0
 27 32  1  0  0  0  0
 28 29  1  0  0  0  0
 30 28  2  0  0  0  0
 31 27  2  0  0  0  0
 31 30  1  0  0  0  0
 32 29  2  0  0  0  0
 34 33  1  0  0  0  0
 35 34  1  0  0  0  0
 35 33  1  0  0  0  0
 36 37  1  0  0  0  0
 38 37  1  6  0  0  0
 38 41  1  0  0  0  0
 40 39  2  0  0  0  0
 41 40  1  0  0  0  0
 42 40  1  0  0  0  0
 43 44  2  0  0  0  0
 44 38  1  0  0  0  0
 44 42  1  0  0  0  0
 45 55  1  6  0  0  0
 45 54  1  0  0  0  0
 45 42  1  0  0  0  0
 46 51  1  6  0  0  0
 46 50  1  0  0  0  0
 46 53  1  0  0  0  0
 49 48  1  0  0  0  0
 50 55  1  0  0  0  0
 51 49  1  0  0  0  0
 52 54  1  0  0  0  0
 52 47  1  1  0  0  0
 53 48  1  6  0  0  0
 53 52  1  0  0  0  0
M  END
>  <MODEL>
6

>  <REMARK>
 VINA RESULT:      -8.0      2.511      3.662
  Name = 
  6 active torsions:
  status: ('A' for Active; 'I' for Inactive)
    1  A    between atoms: C_5  and  C_49
    2  A    between atoms: C_7  and  C_8
    3  A    between atoms: C_10  and  N_32
    4  A    between atoms: C_14  and  C_48
    5  A    between atoms: O_18  and  C_39
    6  A    between atoms: O_18  and  C_49
                            x       y       z     vdW  Elec       q    Type
                         _______ _______ _______ _____ _____    ______ ____

>  <TORSDO>
F 6

$$$$
=
 OpenBabel11062421303D

 55 63  0  0  1  0  0  0  0  0999 V2000
  190.5540  174.7330  145.4590 C   0  0  0  0  0  0  0  0  0  0  0  0
  194.9250  177.4900  145.3590 C   0  0  0  0  0  3  0  0  0  0  0  0
  189.8870  174.1060  141.1950 O   0  0  0  0  0  0  0  0  0  0  0  0
  192.6180  171.4170  144.2630 C   0  0  0  0  0  1  0  0  0  0  0  0
  193.4310  172.4560  143.5230 C   0  0  1  0  0  3  0  0  0  0  0  0
  189.2530  175.1250  143.3170 C   0  0  2  0  0  3  0  0  0  0  0  0
  190.2170  176.3800  147.2630 C   0  0  0  0  0  1  0  0  0  0  0  0
  193.6870  176.7170  145.0550 C   0  0  0  0  0  2  0  0  0  0  0  0
  193.8770  175.2270  145.1580 C   0  0  0  0  0  0  0  0  0  0  0  0
  191.0600  173.4820  140.7480 C   0  0  2  0  0  0  0  0  0  0  0  0
  195.7000  175.2430  143.4390 C   0  0  0  0  0  3  0  0  0  0  0  0
  191.6390  174.4500  144.8380 N   0  0  0  0  0  0  0  0  0  0  0  0
  193.5950  173.1920  141.0990 C   0  0  0  0  0  2  0  0  0  0  0  0
  192.3430  174.0420  141.2880 C   0  0  1  0  0  3  0  0  0  0  0  0
  189.3170  174.9280  144.7640 N   0  0  0  0  0  2  0  0  0  0  0  0
  189.7600  173.8660  142.5770 C   0  0  1  0  0  3  0  0  0  0  0  0
  190.7920  175.0200  146.8860 C   0  0  2  0  0  3  0  0  0  0  0  0
  192.2580  175.0530  147.0160 N   0  0  0  0  0  2  0  0  0  0  0  0
  194.9670  172.7780  144.4600 S   0  0  0  0  0  0  0  0  0  0  0  0
  193.6330  172.0100  142.0670 C   0  0  1  0  0  3  0  0  0  0  0  0
  196.2400  176.4590  143.5250 C   0  0  0  0  0  3  0  0  0  0  0  0
  196.0450  177.3990  144.6380 C   0  0  0  0  0  3  0  0  0  0  0  0
  194.8120  174.5810  144.4150 C   0  0  0  0  0  0  0  0  0  0  0  0
  192.7470  174.4460  145.7700 C   0  0  2  0  0  3  0  0  0  0  0  0
  188.9040  172.7830  142.7950 O   0  0  0  0  0  1  0  0  0  0  0  0
  191.8300  174.4320  140.0470 O   0  0  0  0  0  0  0  0  0  0  0  0
  190.8400  172.3910  138.4860 C   0  0  0  0  0  3  0  0  0  0  0  0
  190.4600  169.8730  139.5850 C   0  0  0  0  0  3  0  0  0  0  0  0
  190.4310  170.0340  138.2360 N   0  0  0  0  0  0  0  0  0  0  0  0
  190.6560  170.9770  140.4260 C   0  0  0  0  0  3  0  0  0  0  0  0
  190.8660  172.2470  139.8760 C   0  0  0  0  0  0  0  0  0  0  0  0
  190.6140  171.2660  137.6770 C   0  0  0  0  0  3  0  0  0  0  0  0
  190.0440  176.3650  142.9450 C   0  0  0  0  0  3  0  0  0  0  0  0
  189.1370  177.4130  142.3360 C   0  0  0  0  0  2  0  0  0  0  0  0
  189.5530  177.5250  143.7940 C   0  0  0  0  0  2  0  0  0  0  0  0
  194.7950  171.2470  141.8500 O   0  0  0  0  0  0  0  0  0  0  0  0
  195.2210  171.5300  140.5370 C   0  0  0  0  0  2  0  0  0  0  0  0
  196.7350  171.5980  140.3990 C   0  0  2  0  0  3  0  0  0  0  0  0
  197.2070  175.1250  140.0320 O   0  0  0  0  0  0  0  0  0  0  0  0
  197.1370  173.8780  139.8920 C   0  0  0  0  0  0  0  0  0  0  0  0
  197.1490  172.9200  141.0410 C   0  0  0  0  0  2  0  0  0  0  0  0
  196.9830  173.2450  138.6250 N   0  0  0  0  0  0  0  0  0  0  0  0
  197.7550  171.0680  138.2850 O   0  0  0  0  0  0  0  0  0  0  0  0
  197.0480  171.8650  138.9610 C   0  0  0  0  0  0  0  0  0  0  0  0
  195.9440  173.7420  137.7060 C   0  0  1  0  0  3  0  0  0  0  0  0
  193.3450  174.5330  136.7670 N   0  0  2  0  0  0  0  0  0  0  0  0
  196.3770  176.5950  135.4480 C   0  0  0  0  0  1  0  0  0  0  0  0
  193.4740  176.7820  135.8650 C   0  0  0  0  0  2  0  0  0  0  0  0
  192.0880  176.2390  135.6380 C   0  0  0  0  0  2  0  0  0  0  0  0
  193.8500  173.2070  136.3900 C   0  0  0  0  0  2  0  0  0  0  0  0
  192.2030  174.7640  135.9000 C   0  0  0  0  0  2  0  0  0  0  0  0
  195.5750  175.3320  135.7170 C   0  0  2  0  0  3  0  0  0  0  0  0
  194.2740  175.6660  136.5160 C   0  0  2  0  0  3  0  0  0  0  0  0
  196.5340  174.3440  136.4260 C   0  0  0  0  0  2  0  0  0  0  0  0
  194.8710  172.6860  137.3920 C   0  0  0  0  0  2  0  0  0  0  0  0
  1 17  1  0  0  0  0
  3 16  1  0  0  0  0
  5  4  1  1  0  0  0
  5 19  1  0  0  0  0
  6 33  1  1  0  0  0
  6 15  1  0  0  0  0
  8  9  1  0  0  0  0
  8  2  1  0  0  0  0
  9 24  1  0  0  0  0
 10 31  1  6  0  0  0
 10  3  1  0  0  0  0
 10 14  1  0  0  0  0
 11 21  2  0  0  0  0
 11 23  1  0  0  0  0
 12  1  2  0  0  0  0
 13 20  1  0  0  0  0
 14 13  1  6  0  0  0
 15  1  1  0  0  0  0
 16 25  1  6  0  0  0
 16  6  1  0  0  0  0
 17 18  1  0  0  0  0
 17  7  1  6  0  0  0
 20 36  1  1  0  0  0
 20  5  1  0  0  0  0
 21 22  1  0  0  0  0
 22  2  2  0  0  0  0
 23 19  1  0  0  0  0
 23  9  2  0  0  0  0
 24 12  1  6  0  0  0
 24 18  1  0  0  0  0
 26 10  1  0  0  0  0
 26 14  1  0  0  0  0
 27 31  1  0  0  0  0
 28 30  1  0  0  0  0
 29 28  2  0  0  0  0
 31 30  2  0  0  0  0
 32 29  1  0  0  0  0
 32 27  2  0  0  0  0
 33 35  1  0  0  0  0
 34 33  1  0  0  0  0
 34 35  1  0  0  0  0
 37 36  1  0  0  0  0
 38 37  1  6  0  0  0
 38 41  1  0  0  0  0
 40 39  2  0  0  0  0
 40 41  1  0  0  0  0
 42 44  1  0  0  0  0
 42 40  1  0  0  0  0
 43 44  2  0  0  0  0
 44 38  1  0  0  0  0
 45 54  1  6  0  0  0
 45 42  1  0  0  0  0
 46 51  1  6  0  0  0
 49 48  1  0  0  0  0
 49 51  1  0  0  0  0
 50 46  1  0  0  0  0
 50 55  1  0  0  0  0
 52 47  1  1  0  0  0
 52 54  1  0  0  0  0
 52 53  1  0  0  0  0
 53 48  1  6  0  0  0
 53 46  1  0  0  0  0
 55 45  1  0  0  0  0
M  END
>  <MODEL>
7

>  <REMARK>
 VINA RESULT:      -7.8      2.953      9.052
  Name = 
  6 active torsions:
  status: ('A' for Active; 'I' for Inactive)
    1  A    between atoms: C_5  and  C_49
    2  A    between atoms: C_7  and  C_8
    3  A    between atoms: C_10  and  N_32
    4  A    between atoms: C_14  and  C_48
    5  A    between atoms: O_18  and  C_39
    6  A    between atoms: O_18  and  C_49
                            x       y       z     vdW  Elec       q    Type
                         _______ _______ _______ _____ _____    ______ ____

>  <TORSDO>
F 6

$$$$
=
 OpenBabel11062421303D

 55 63  0  0  1  0  0  0  0  0999 V2000
  195.6420  172.6740  139.7370 C   0  0  0  0  0  0  0  0  0  0  0  0
  197.9140  171.2840  144.1660 C   0  0  0  0  0  3  0  0  0  0  0  0
  191.5270  171.4550  140.5120 O   0  0  0  0  0  0  0  0  0  0  0  0
  193.7020  175.6980  141.6810 C   0  0  0  0  0  1  0  0  0  0  0  0
  193.7360  174.6990  142.8160 C   0  0  1  0  0  3  0  0  0  0  0  0
  193.6320  171.1890  139.3100 C   0  0  2  0  0  3  0  0  0  0  0  0
  197.8260  171.8030  138.9950 C   0  0  0  0  0  1  0  0  0  0  0  0
  196.9890  171.5450  143.0270 C   0  0  0  0  0  2  0  0  0  0  0  0
  196.4730  172.9600  142.9930 C   0  0  0  0  0  0  0  0  0  0  0  0
  191.1780  172.1390  141.6850 C   0  0  2  0  0  0  0  0  0  0  0  0
  195.4820  172.7570  145.2860 C   0  0  0  0  0  3  0  0  0  0  0  0
  195.2700  172.9670  140.9280 N   0  0  0  0  0  0  0  0  0  0  0  0
  192.0190  173.1700  143.8910 C   0  0  0  0  0  2  0  0  0  0  0  0
  192.2250  172.1680  142.7600 C   0  0  1  0  0  3  0  0  0  0  0  0
  194.8060  171.9270  138.8470 N   0  0  0  0  0  2  0  0  0  0  0  0
  192.5760  172.1590  139.8890 C   0  0  1  0  0  3  0  0  0  0  0  0
  197.0580  173.0180  139.5000 C   0  0  2  0  0  3  0  0  0  0  0  0
  197.5680  173.4070  140.8240 N   0  0  0  0  0  2  0  0  0  0  0  0
  195.0860  175.1530  143.9610 S   0  0  0  0  0  0  0  0  0  0  0  0
  192.3420  174.5970  143.4530 C   0  0  1  0  0  3  0  0  0  0  0  0
  196.2310  171.8420  145.9020 C   0  0  0  0  0  3  0  0  0  0  0  0
  197.5490  171.3760  145.4470 C   0  0  0  0  0  3  0  0  0  0  0  0
  195.7970  173.4910  144.0440 C   0  0  0  0  0  0  0  0  0  0  0  0
  196.3600  173.6020  141.6380 C   0  0  2  0  0  3  0  0  0  0  0  0
  192.0640  172.9900  138.8890 O   0  0  0  0  0  1  0  0  0  0  0  0
  191.1940  171.2220  142.7560 O   0  0  0  0  0  0  0  0  0  0  0  0
  189.7590  174.1380  141.0960 C   0  0  0  0  0  3  0  0  0  0  0  0
  187.4780  173.0180  142.2080 C   0  0  0  0  0  3  0  0  0  0  0  0
  187.4240  174.2610  141.6610 N   0  0  0  0  0  0  0  0  0  0  0  0
  188.6870  172.3080  142.2350 C   0  0  0  0  0  3  0  0  0  0  0  0
  189.8360  172.8610  141.6600 C   0  0  0  0  0  0  0  0  0  0  0  0
  188.5370  174.8290  141.1110 C   0  0  0  0  0  3  0  0  0  0  0  0
  194.0630  170.1430  140.3210 C   0  0  0  0  0  3  0  0  0  0  0  0
  193.5870  168.7690  139.9020 C   0  0  0  0  0  2  0  0  0  0  0  0
  195.0270  169.1840  139.6440 C   0  0  0  0  0  2  0  0  0  0  0  0
  192.1260  175.4890  144.5200 O   0  0  0  0  0  0  0  0  0  0  0  0
  191.0100  175.0030  145.2290 C   0  0  0  0  0  2  0  0  0  0  0  0
  190.9620  175.4800  146.6730 C   0  0  2  0  0  3  0  0  0  0  0  0
  187.4650  175.1630  147.3580 O   0  0  0  0  0  0  0  0  0  0  0  0
  188.6410  175.5540  147.1500 C   0  0  0  0  0  0  0  0  0  0  0  0
  189.8420  174.6800  147.3360 C   0  0  0  0  0  2  0  0  0  0  0  0
  188.9530  176.8540  146.6600 N   0  0  0  0  0  0  0  0  0  0  0  0
  191.0150  177.8400  147.1420 O   0  0  0  0  0  0  0  0  0  0  0  0
  190.3750  176.8560  146.6780 C   0  0  0  0  0  0  0  0  0  0  0  0
  188.2200  177.3660  145.4900 C   0  0  1  0  0  3  0  0  0  0  0  0
  187.2070  177.4980  142.8030 N   0  0  2  0  0  0  0  0  0  0  0  0
  184.8380  178.7700  145.6230 C   0  0  0  0  0  1  0  0  0  0  0  0
  184.7940  177.7380  142.8710 C   0  0  0  0  0  2  0  0  0  0  0  0
  185.2560  177.8230  141.4410 C   0  0  0  0  0  2  0  0  0  0  0  0
  188.3680  178.3260  143.1530 C   0  0  0  0  0  2  0  0  0  0  0  0
  186.7450  178.0140  141.5270 C   0  0  0  0  0  2  0  0  0  0  0  0
  186.1300  178.7100  144.8230 C   0  0  2  0  0  3  0  0  0  0  0  0
  186.0460  177.6030  143.7230 C   0  0  2  0  0  3  0  0  0  0  0  0
  187.2740  178.5170  145.8480 C   0  0  0  0  0  2  0  0  0  0  0  0
  189.1470  177.7400  144.3210 C   0  0  0  0  0  2  0  0  0  0  0  0
  1 12  2  0  0  0  0
  2 22  2  0  0  0  0
  3 10  1  0  0  0  0
  5  4  1  6  0  0  0
  5 20  1  0  0  0  0
  5 19  1  0  0  0  0
  6 16  1  0  0  0  0
  6 33  1  1  0  0  0
  8  2  1  0  0  0  0
  9  8  1  0  0  0  0
  9 23  2  0  0  0  0
 10 31  1  6  0  0  0
 10 26  1  0  0  0  0
 10 14  1  0  0  0  0
 11 21  2  0  0  0  0
 12 24  1  0  0  0  0
 14 13  1  1  0  0  0
 15  6  1  0  0  0  0
 15  1  1  0  0  0  0
 16 25  1  6  0  0  0
 16  3  1  0  0  0  0
 17  7  1  1  0  0  0
 17  1  1  0  0  0  0
 17 18  1  0  0  0  0
 19 23  1  0  0  0  0
 20 13  1  0  0  0  0
 20 36  1  1  0  0  0
 22 21  1  0  0  0  0
 23 11  1  0  0  0  0
 24 18  1  6  0  0  0
 24  9  1  0  0  0  0
 26 14  1  0  0  0  0
 27 32  2  0  0  0  0
 27 31  1  0  0  0  0
 28 30  1  0  0  0  0
 29 28  2  0  0  0  0
 31 30  2  0  0  0  0
 32 29  1  0  0  0  0
 34 33  1  0  0  0  0
 35 34  1  0  0  0  0
 35 33  1  0  0  0  0
 36 37  1  0  0  0  0
 38 37  1  6  0  0  0
 38 44  1  0  0  0  0
 38 41  1  0  0  0  0
 40 41  1  0  0  0  0
 40 39  2  0  0  0  0
 42 44  1  0  0  0  0
 42 40  1  0  0  0  0
 44 43  2  0  0  0  0
 45 55  1  6  0  0  0
 45 54  1  0  0  0  0
 45 42  1  0  0  0  0
 46 51  1  6  0  0  0
 46 50  1  0  0  0  0
 46 53  1  0  0  0  0
 49 51  1  0  0  0  0
 49 48  1  0  0  0  0
 50 55  1  0  0  0  0
 52 47  1  1  0  0  0
 52 54  1  0  0  0  0
 53 48  1  6  0  0  0
 53 52  1  0  0  0  0
M  END
>  <MODEL>
8

>  <REMARK>
 VINA RESULT:      -7.4      2.392      4.975
  Name = 
  6 active torsions:
  status: ('A' for Active; 'I' for Inactive)
    1  A    between atoms: C_5  and  C_49
    2  A    between atoms: C_7  and  C_8
    3  A    between atoms: C_10  and  N_32
    4  A    between atoms: C_14  and  C_48
    5  A    between atoms: O_18  and  C_39
    6  A    between atoms: O_18  and  C_49
                            x       y       z     vdW  Elec       q    Type
                         _______ _______ _______ _____ _____    ______ ____

>  <TORSDO>
F 6

$$$$
=
 OpenBabel11062421303D

 55 63  0  0  1  0  0  0  0  0999 V2000
  195.3070  169.8220  136.9220 C   0  0  0  0  0  0  0  0  0  0  0  0
  190.8490  170.8400  134.5130 C   0  0  0  0  0  3  0  0  0  0  0  0
  196.2530  173.7430  138.5790 O   0  0  0  0  0  0  0  0  0  0  0  0
  193.4450  170.2240  140.5360 C   0  0  0  0  0  1  0  0  0  0  0  0
  192.6390  171.2450  139.7630 C   0  0  1  0  0  3  0  0  0  0  0  0
  196.7190  171.9250  137.0220 C   0  0  2  0  0  3  0  0  0  0  0  0
  195.4710  168.4870  134.8560 C   0  0  0  0  0  1  0  0  0  0  0  0
  192.1310  170.8740  135.2720 C   0  0  0  0  0  2  0  0  0  0  0  0
  191.9910  170.4010  136.6950 C   0  0  0  0  0  0  0  0  0  0  0  0
  195.1330  174.0710  139.3560 C   0  0  2  0  0  0  0  0  0  0  0  0
  190.2760  172.1530  137.2120 C   0  0  0  0  0  3  0  0  0  0  0  0
  194.2720  170.4010  137.4110 N   0  0  0  0  0  0  0  0  0  0  0  0
  192.5940  173.7810  139.6780 C   0  0  0  0  0  2  0  0  0  0  0  0
  193.7990  173.7560  138.7450 C   0  0  1  0  0  3  0  0  0  0  0  0
  196.5750  170.4820  136.8470 N   0  0  0  0  0  2  0  0  0  0  0  0
  196.3050  172.3420  138.4520 C   0  0  1  0  0  3  0  0  0  0  0  0
  194.9710  168.5290  136.2940 C   0  0  2  0  0  3  0  0  0  0  0  0
  193.5000  168.4840  136.3060 N   0  0  0  0  0  2  0  0  0  0  0  0
  191.0380  170.4980  139.2930 S   0  0  0  0  0  0  0  0  0  0  0  0
  192.5420  172.5460  140.5750 C   0  0  1  0  0  3  0  0  0  0  0  0
  189.6860  172.4090  136.0430 C   0  0  0  0  0  3  0  0  0  0  0  0
  189.7780  171.5670  134.8420 C   0  0  0  0  0  3  0  0  0  0  0  0
  191.1280  170.9980  137.5570 C   0  0  0  0  0  0  0  0  0  0  0  0
  193.1110  169.5540  137.2350 C   0  0  2  0  0  3  0  0  0  0  0  0
  197.1870  171.8110  139.3990 O   0  0  0  0  0  1  0  0  0  0  0  0
  194.3710  175.0300  138.6570 O   0  0  0  0  0  0  0  0  0  0  0  0
  195.4810  175.9650  140.9840 C   0  0  0  0  0  3  0  0  0  0  0  0
  195.9840  174.2390  143.0960 C   0  0  0  0  0  3  0  0  0  0  0  0
  196.0390  175.5830  143.2920 N   0  0  0  0  0  0  0  0  0  0  0  0
  195.6980  173.7200  141.8250 C   0  0  0  0  0  3  0  0  0  0  0  0
  195.4260  174.5860  140.7610 C   0  0  0  0  0  0  0  0  0  0  0  0
  195.7980  176.4470  142.2630 C   0  0  0  0  0  3  0  0  0  0  0  0
  195.9050  172.6430  135.9600 C   0  0  0  0  0  3  0  0  0  0  0  0
  196.8150  173.3510  134.9810 C   0  0  0  0  0  2  0  0  0  0  0  0
  196.2040  172.0090  134.6120 C   0  0  0  0  0  2  0  0  0  0  0  0
  191.4250  172.6150  141.4280 O   0  0  0  0  0  0  0  0  0  0  0  0
  190.5950  173.6320  140.9180 C   0  0  0  0  0  2  0  0  0  0  0  0
  189.1370  173.2130  140.7970 C   0  0  2  0  0  3  0  0  0  0  0  0
  187.5150  176.3950  140.9910 O   0  0  0  0  0  0  0  0  0  0  0  0
  187.9520  175.2310  141.1720 C   0  0  0  0  0  0  0  0  0  0  0  0
  188.4370  174.3530  140.0620 C   0  0  0  0  0  2  0  0  0  0  0  0
  188.0860  174.6430  142.4620 N   0  0  0  0  0  0  0  0  0  0  0  0
  187.9990  172.3240  142.7230 O   0  0  0  0  0  0  0  0  0  0  0  0
  188.5190  173.3240  142.1560 C   0  0  0  0  0  0  0  0  0  0  0  0
  188.7430  175.4160  143.5300 C   0  0  1  0  0  3  0  0  0  0  0  0
  189.3600  176.3540  146.1760 N   0  0  2  0  0  0  0  0  0  0  0  0
  192.3460  176.0650  143.6890 C   0  0  0  0  0  1  0  0  0  0  0  0
  191.7440  176.1310  146.5660 C   0  0  0  0  0  2  0  0  0  0  0  0
  191.1150  176.8160  147.7490 C   0  0  0  0  0  2  0  0  0  0  0  0
  188.4950  177.1810  145.3260 C   0  0  0  0  0  2  0  0  0  0  0  0
  189.7440  177.2170  147.2790 C   0  0  0  0  0  2  0  0  0  0  0  0
  190.9770  176.5290  144.1590 C   0  0  2  0  0  3  0  0  0  0  0  0
  190.6340  175.9090  145.5520 C   0  0  2  0  0  3  0  0  0  0  0  0
  189.9800  176.1720  143.0290 C   0  0  0  0  0  2  0  0  0  0  0  0
  187.7750  176.3490  144.2750 C   0  0  0  0  0  2  0  0  0  0  0  0
  1 12  2  0  0  0  0
  2 22  2  0  0  0  0
  2  8  1  0  0  0  0
  3 10  1  0  0  0  0
  5  4  1  1  0  0  0
  5 20  1  0  0  0  0
  6 33  1  6  0  0  0
  6 16  1  0  0  0  0
  8  9  1  0  0  0  0
  9 24  1  0  0  0  0
  9 23  2  0  0  0  0
 10 31  1  1  0  0  0
 11 23  1  0  0  0  0
 13 20  1  0  0  0  0
 14 10  1  0  0  0  0
 14 13  1  1  0  0  0
 15  1  1  0  0  0  0
 15  6  1  0  0  0  0
 16  3  1  0  0  0  0
 16 25  1  1  0  0  0
 17  7  1  6  0  0  0
 17 18  1  0  0  0  0
 17  1  1  0  0  0  0
 19  5  1  0  0  0  0
 20 36  1  6  0  0  0
 21 11  2  0  0  0  0
 22 21  1  0  0  0  0
 23 19  1  0  0  0  0
 24 18  1  6  0  0  0
 24 12  1  0  0  0  0
 26 14  1  0  0  0  0
 26 10  1  0  0  0  0
 27 32  1  0  0  0  0
 28 29  1  0  0  0  0
 30 28  2  0  0  0  0
 31 27  2  0  0  0  0
 31 30  1  0  0  0  0
 32 29  2  0  0  0  0
 34 33  1  0  0  0  0
 35 34  1  0  0  0  0
 35 33  1  0  0  0  0
 37 36  1  0  0  0  0
 38 37  1  1  0  0  0
 38 44  1  0  0  0  0
 39 40  2  0  0  0  0
 40 42  1  0  0  0  0
 41 38  1  0  0  0  0
 41 40  1  0  0  0  0
 44 42  1  0  0  0  0
 44 43  2  0  0  0  0
 45 42  1  6  0  0  0
 45 55  1  0  0  0  0
 46 50  1  6  0  0  0
 46 51  1  0  0  0  0
 48 49  1  0  0  0  0
 51 49  1  0  0  0  0
 52 47  1  6  0  0  0
 52 53  1  0  0  0  0
 53 46  1  0  0  0  0
 53 48  1  1  0  0  0
 54 45  1  0  0  0  0
 54 52  1  0  0  0  0
 55 50  1  0  0  0  0
M  END
>  <MODEL>
9

>  <REMARK>
 VINA RESULT:      -7.4      2.944      4.972
  Name = 
  6 active torsions:
  status: ('A' for Active; 'I' for Inactive)
    1  A    between atoms: C_5  and  C_49
    2  A    between atoms: C_7  and  C_8
    3  A    between atoms: C_10  and  N_32
    4  A    between atoms: C_14  and  C_48
    5  A    between atoms: O_18  and  C_39
    6  A    between atoms: O_18  and  C_49
                            x       y       z     vdW  Elec       q    Type
                         _______ _______ _______ _____ _____    ______ ____

>  <TORSDO>
F 6

$$$$
