=
 OpenBabel11062420333D

 53 60  0  0  1  0  0  0  0  0999 V2000
  188.6130  176.1080  143.5740 C   0  0  2  0  0  3  0  0  0  0  0  0
  188.3660  176.0740  145.0880 C   0  0  1  0  0  3  0  0  0  0  0  0
  188.8440  174.8850  141.7740 C   0  0  1  0  0  3  0  0  0  0  0  0
  190.0820  176.1400  147.1460 C   0  0  2  0  0  0  0  0  0  0  0  0
  187.4120  176.3700  142.8730 O   0  0  0  0  0  0  0  0  0  0  0  0
  191.3500  175.5420  147.7690 C   0  0  1  0  0  3  0  0  0  0  0  0
  192.9100  172.3700  144.7320 C   0  0  2  0  0  3  0  0  0  0  0  0
  187.5320  175.6260  141.6970 C   0  0  1  0  0  3  0  0  0  0  0  0
  189.5280  172.4180  141.7220 O   0  0  0  0  0  0  0  0  0  0  0  0
  191.9250  176.9350  145.6850 N   0  0  0  0  0  2  0  0  0  0  0  0
  193.6270  173.2610  143.7280 C   0  0  2  0  0  3  0  0  0  0  0  0
  191.7740  173.3050  141.9030 C   0  0  1  0  0  3  0  0  0  0  0  0
  187.9390  173.2320  140.3000 O   0  0  0  0  0  0  0  0  0  0  0  0
  189.1770  174.9020  143.1260 O   0  0  0  0  0  0  0  0  0  0  0  0
  190.1560  177.5480  147.1010 O   0  0  0  0  0  0  0  0  0  0  0  0
  190.6340  172.5830  142.6090 C   0  0  0  0  0  2  0  0  0  0  0  0
  189.6150  175.5080  145.8030 C   0  0  1  0  0  3  0  0  0  0  0  0
  192.5510  174.6360  145.6390 C   0  0  1  0  0  3  0  0  0  0  0  0
  193.6120  173.6230  145.2240 C   0  0  1  0  0  3  0  0  0  0  0  0
  189.4260  174.1310  145.9670 O   0  0  0  0  0  1  0  0  0  0  0  0
  192.0620  174.3650  147.0580 C   0  0  0  0  0  2  0  0  0  0  0  0
  188.7290  173.4700  141.2510 C   0  0  0  0  0  0  0  0  0  0  0  0
  191.3990  176.9030  147.0590 C   0  0  1  0  0  0  0  0  0  0  0  0
  192.6620  174.0970  142.8720 C   0  0  0  0  0  2  0  0  0  0  0  0
  193.0690  176.0500  145.5470 C   0  0  0  0  0  2  0  0  0  0  0  0
  187.4470  176.5220  140.4650 C   0  0  0  0  0  2  0  0  0  0  0  0
  186.3910  177.6020  140.6100 C   0  0  0  0  0  1  0  0  0  0  0  0
  192.0570  171.3190  140.6760 O   0  0  0  0  0  0  0  0  0  0  0  0
  192.5020  172.4320  140.9160 C   0  0  0  0  0  0  0  0  0  0  0  0
  193.8050  172.8670  140.3070 C   0  0  1  0  0  3  0  0  0  0  0  0
  194.6500  171.6540  139.9520 C   0  0  0  0  0  1  0  0  0  0  0  0
  192.5110  173.7600  138.2680 C   0  0  0  0  0  3  0  0  0  0  0  0
  193.9290  175.3790  137.6850 C   0  0  0  0  0  3  0  0  0  0  0  0
  194.4350  174.7820  138.7850 N   0  0  0  0  0  0  0  0  0  0  0  0
  192.7290  174.7750  137.3460 C   0  0  0  0  0  3  0  0  0  0  0  0
  193.6040  173.7820  139.1250 C   0  0  0  0  0  0  0  0  0  0  0  0
  195.7180  175.1020  139.4280 C   0  0  0  0  0  2  0  0  0  0  0  0
  195.5070  175.7360  140.7780 C   0  0  0  0  0  0  0  0  0  0  0  0
  194.7640  176.7510  140.8540 O   0  0  0  0  0  0  0  0  0  0  0  0
  196.8220  173.9750  141.9770 C   0  0  0  0  0  3  0  0  0  0  0  0
  196.6330  175.3900  144.3800 C   0  0  0  0  0  3  0  0  0  0  0  0
  197.3190  174.1730  144.3430 C   0  0  0  0  0  3  0  0  0  0  0  0
  196.1330  175.1960  142.0010 C   0  0  0  0  0  0  0  0  0  0  0  0
  196.0430  175.8990  143.2140 C   0  0  0  0  0  3  0  0  0  0  0  0
  197.4130  173.4650  143.1400 C   0  0  0  0  0  3  0  0  0  0  0  0
  193.7080  171.1110  145.0940 C   0  0  0  0  0  2  0  0  0  0  0  0
  194.8840  171.3850  145.8010 O   0  0  0  0  0  1  0  0  0  0  0  0
  187.9030  177.4530  145.5510 C   0  0  0  0  0  2  0  0  0  0  0  0
  185.6610  176.4970  145.6740 N   0  0  0  0  0  1  0  0  0  0  0  0
  186.6120  177.3670  146.3500 C   0  0  2  0  0  3  0  0  0  0  0  0
  186.0250  179.3180  147.7690 O   0  0  0  0  0  1  0  0  0  0  0  0
  186.0260  178.7230  146.5140 C   0  0  0  0  0  0  0  0  0  0  0  0
  185.5680  179.3470  145.5200 O   0  0  0  0  0  0  0  0  0  0  0  0
  1  5  1  6  0  0  0
  1  2  1  0  0  0  0
  2 48  1  1  0  0  0
  2 17  1  0  0  0  0
  3 22  1  1  0  0  0
  3 14  1  0  0  0  0
  4 15  1  1  0  0  0
  4  6  1  0  0  0  0
  6 21  1  6  0  0  0
  7 46  1  1  0  0  0
  7 19  1  0  0  0  0
  8 26  1  6  0  0  0
  8  3  1  0  0  0  0
  8  5  1  0  0  0  0
  9 16  1  0  0  0  0
 10 23  1  0  0  0  0
 11 24  1  6  0  0  0
 11  7  1  0  0  0  0
 11 19  1  0  0  0  0
 12 29  1  1  0  0  0
 12 16  1  0  0  0  0
 12 24  1  0  0  0  0
 13 22  2  0  0  0  0
 14  1  1  0  0  0  0
 17 20  1  1  0  0  0
 17  4  1  0  0  0  0
 18 25  1  1  0  0  0
 18 21  1  0  0  0  0
 19 18  1  0  0  0  0
 22  9  1  0  0  0  0
 23 15  1  0  0  0  0
 23  4  1  0  0  0  0
 23  6  1  0  0  0  0
 25 10  1  0  0  0  0
 26 27  1  0  0  0  0
 28 29  2  0  0  0  0
 30 29  1  0  0  0  0
 31 30  1  0  0  0  0
 32 36  2  0  0  0  0
 33 34  1  0  0  0  0
 34 36  1  0  0  0  0
 34 37  1  0  0  0  0
 35 33  2  0  0  0  0
 35 32  1  0  0  0  0
 36 30  1  0  0  0  0
 37 38  1  0  0  0  0
 38 39  2  0  0  0  0
 38 43  1  0  0  0  0
 40 43  2  0  0  0  0
 40 45  1  0  0  0  0
 42 41  1  0  0  0  0
 43 44  1  0  0  0  0
 44 41  2  0  0  0  0
 45 42  2  0  0  0  0
 46 47  1  0  0  0  0
 48 50  1  0  0  0  0
 49 50  1  0  0  0  0
 50 52  1  0  0  0  0
 52 51  1  0  0  0  0
 53 52  2  0  0  0  0
M  END
>  <MODEL>
1

>  <REMARK>
 VINA RESULT:      -7.4      0.000      0.000
  Name = 
  11 active torsions:
  status: ('A' for Active; 'I' for Inactive)
    1  A    between atoms: C_2  and  C_17
    2  A    between atoms: C_5  and  C_38
    3  A    between atoms: C_12  and  C_15
    4  A    between atoms: C_16  and  CA_44
    5  A    between atoms: N_21  and  C_39
    6  A    between atoms: C_25  and  C_50
    7  A    between atoms: C_27  and  C_28
    8  A    between atoms: C_28  and  C_39
    9  A    between atoms: C_29  and  C_31
   10  A    between atoms: C_29  and  C_50
   11  A    between atoms: C_38  and  CA_44
                            x       y       z     vdW  Elec       q    Type
                         _______ _______ _______ _____ _____    ______ ____

>  <TORSDO>
F 11

$$$$
=
 OpenBabel11062420333D

 53 60  0  0  1  0  0  0  0  0999 V2000
  193.7540  174.0990  144.1120 C   0  0  2  0  0  3  0  0  0  0  0  0
  194.6800  173.0180  143.5390 C   0  0  1  0  0  3  0  0  0  0  0  0
  191.7560  174.4970  144.9120 C   0  0  1  0  0  3  0  0  0  0  0  0
  195.2250  172.3430  141.0030 C   0  0  2  0  0  0  0  0  0  0  0  0
  194.0140  174.3090  145.4870 O   0  0  0  0  0  0  0  0  0  0  0  0
  194.6510  171.9770  139.6290 C   0  0  1  0  0  3  0  0  0  0  0  0
  190.0190  172.3000  140.0370 C   0  0  2  0  0  3  0  0  0  0  0  0
  192.7610  174.5960  146.0330 C   0  0  1  0  0  3  0  0  0  0  0  0
  189.6660  173.0840  144.4820 O   0  0  0  0  0  0  0  0  0  0  0  0
  194.2640  174.4660  140.1490 N   0  0  0  0  0  2  0  0  0  0  0  0
  189.8230  173.8020  139.9010 C   0  0  2  0  0  3  0  0  0  0  0  0
  189.5420  174.3570  142.4270 C   0  0  1  0  0  3  0  0  0  0  0  0
  190.0710  173.9980  146.5350 O   0  0  0  0  0  0  0  0  0  0  0  0
  192.4040  173.7590  143.9260 O   0  0  0  0  0  0  0  0  0  0  0  0
  196.1970  173.3590  140.8910 O   0  0  0  0  0  0  0  0  0  0  0  0
  189.8580  173.0130  143.0710 C   0  0  0  0  0  2  0  0  0  0  0  0
  194.1890  172.6090  142.1310 C   0  0  1  0  0  3  0  0  0  0  0  0
  192.3220  173.1420  139.7560 C   0  0  1  0  0  3  0  0  0  0  0  0
  190.9380  173.0860  139.1190 C   0  0  1  0  0  3  0  0  0  0  0  0
  193.3510  171.4970  142.2780 O   0  0  0  0  0  1  0  0  0  0  0  0
  193.1160  171.8760  139.4510 C   0  0  0  0  0  2  0  0  0  0  0  0
  190.4750  173.8260  145.3550 C   0  0  0  0  0  0  0  0  0  0  0  0
  195.2220  173.3790  139.8850 C   0  0  1  0  0  0  0  0  0  0  0  0
  190.3220  174.5870  141.1260 C   0  0  0  0  0  2  0  0  0  0  0  0
  193.0980  174.3480  139.2890 C   0  0  0  0  0  2  0  0  0  0  0  0
  192.7500  175.9680  146.6990 C   0  0  0  0  0  2  0  0  0  0  0  0
  194.0810  176.6850  146.5640 C   0  0  0  0  0  1  0  0  0  0  0  0
  187.3240  173.8080  141.8740 O   0  0  0  0  0  0  0  0  0  0  0  0
  188.0660  174.6470  142.3630 C   0  0  0  0  0  0  0  0  0  0  0  0
  187.5160  175.9770  142.7950 C   0  0  1  0  0  3  0  0  0  0  0  0
  188.5980  176.7940  143.4850 C   0  0  0  0  0  1  0  0  0  0  0  0
  187.4000  176.8260  140.3680 C   0  0  0  0  0  3  0  0  0  0  0  0
  185.4550  177.9080  140.5110 C   0  0  0  0  0  3  0  0  0  0  0  0
  185.6940  177.3570  141.7190 N   0  0  0  0  0  0  0  0  0  0  0  0
  186.4900  177.5880  139.6460 C   0  0  0  0  0  3  0  0  0  0  0  0
  186.8820  176.7300  141.6530 C   0  0  0  0  0  0  0  0  0  0  0  0
  184.8570  177.5060  142.9180 C   0  0  0  0  0  2  0  0  0  0  0  0
  185.3980  178.5750  143.8310 C   0  0  0  0  0  0  0  0  0  0  0  0
  185.6730  179.7020  143.3390 O   0  0  0  0  0  0  0  0  0  0  0  0
  185.7240  179.4140  146.1670 C   0  0  0  0  0  3  0  0  0  0  0  0
  185.8760  176.8010  147.1450 C   0  0  0  0  0  3  0  0  0  0  0  0
  185.9950  177.8790  148.0260 C   0  0  0  0  0  3  0  0  0  0  0  0
  185.6010  178.3400  145.2740 C   0  0  0  0  0  0  0  0  0  0  0  0
  185.6810  177.0300  145.7750 C   0  0  0  0  0  3  0  0  0  0  0  0
  185.9180  179.1870  147.5360 C   0  0  0  0  0  3  0  0  0  0  0  0
  188.9980  171.4850  139.2340 C   0  0  0  0  0  2  0  0  0  0  0  0
  189.5890  170.5840  138.3410 O   0  0  0  0  0  1  0  0  0  0  0  0
  196.1260  173.5020  143.6220 C   0  0  0  0  0  2  0  0  0  0  0  0
  196.6280  171.1220  143.8050 N   0  0  0  0  0  1  0  0  0  0  0  0
  197.0290  172.4500  144.2440 C   0  0  2  0  0  3  0  0  0  0  0  0
  196.7580  171.3730  146.4650 O   0  0  0  0  0  1  0  0  0  0  0  0
  196.9580  172.5330  145.7270 C   0  0  0  0  0  0  0  0  0  0  0  0
  197.1160  173.6350  146.3150 O   0  0  0  0  0  0  0  0  0  0  0  0
  1 14  1  1  0  0  0
  1  5  1  0  0  0  0
  2 48  1  6  0  0  0
  2  1  1  0  0  0  0
  3 14  1  6  0  0  0
  3 22  1  0  0  0  0
  3  8  1  0  0  0  0
  4 15  1  1  0  0  0
  4 17  1  0  0  0  0
  5  8  1  0  0  0  0
  6 21  1  1  0  0  0
  6 23  1  0  0  0  0
  6  4  1  0  0  0  0
  7 46  1  6  0  0  0
  8 26  1  6  0  0  0
  9 22  1  0  0  0  0
 11  7  1  0  0  0  0
 11 24  1  1  0  0  0
 12 29  1  6  0  0  0
 12 16  1  0  0  0  0
 16  9  1  0  0  0  0
 17 20  1  1  0  0  0
 17  2  1  0  0  0  0
 18 25  1  6  0  0  0
 19 18  1  0  0  0  0
 19 11  1  0  0  0  0
 19  7  1  0  0  0  0
 21 18  1  0  0  0  0
 22 13  2  0  0  0  0
 23 10  1  0  0  0  0
 23 15  1  0  0  0  0
 23  4  1  0  0  0  0
 24 12  1  0  0  0  0
 25 10  1  0  0  0  0
 27 26  1  0  0  0  0
 28 29  2  0  0  0  0
 29 30  1  0  0  0  0
 30 31  1  0  0  0  0
 32 36  2  0  0  0  0
 33 34  1  0  0  0  0
 34 37  1  0  0  0  0
 35 32  1  0  0  0  0
 35 33  2  0  0  0  0
 36 34  1  0  0  0  0
 36 30  1  0  0  0  0
 37 38  1  0  0  0  0
 38 43  1  0  0  0  0
 39 38  2  0  0  0  0
 40 45  1  0  0  0  0
 41 42  1  0  0  0  0
 43 44  1  0  0  0  0
 43 40  2  0  0  0  0
 44 41  2  0  0  0  0
 45 42  2  0  0  0  0
 47 46  1  0  0  0  0
 48 50  1  0  0  0  0
 49 50  1  0  0  0  0
 50 52  1  0  0  0  0
 52 53  2  0  0  0  0
 52 51  1  0  0  0  0
M  END
>  <MODEL>
2

>  <REMARK>
 VINA RESULT:      -7.3      2.176      8.634
  Name = 
  11 active torsions:
  status: ('A' for Active; 'I' for Inactive)
    1  A    between atoms: C_2  and  C_17
    2  A    between atoms: C_5  and  C_38
    3  A    between atoms: C_12  and  C_15
    4  A    between atoms: C_16  and  CA_44
    5  A    between atoms: N_21  and  C_39
    6  A    between atoms: C_25  and  C_50
    7  A    between atoms: C_27  and  C_28
    8  A    between atoms: C_28  and  C_39
    9  A    between atoms: C_29  and  C_31
   10  A    between atoms: C_29  and  C_50
   11  A    between atoms: C_38  and  CA_44
                            x       y       z     vdW  Elec       q    Type
                         _______ _______ _______ _____ _____    ______ ____

>  <TORSDO>
F 11

$$$$
=
 OpenBabel11062420333D

 53 60  0  0  1  0  0  0  0  0999 V2000
  189.6580  174.6710  141.7280 C   0  0  2  0  0  3  0  0  0  0  0  0
  189.0620  175.0770  143.0820 C   0  0  1  0  0  3  0  0  0  0  0  0
  190.4410  173.0010  140.5500 C   0  0  1  0  0  3  0  0  0  0  0  0
  190.2210  176.1060  145.2690 C   0  0  2  0  0  0  0  0  0  0  0  0
  188.6380  174.4730  140.7670 O   0  0  0  0  0  0  0  0  0  0  0  0
  191.3600  175.9800  146.2880 C   0  0  1  0  0  3  0  0  0  0  0  0
  193.9290  172.3430  144.9090 C   0  0  2  0  0  3  0  0  0  0  0  0
  189.1140  173.4280  139.9720 C   0  0  1  0  0  3  0  0  0  0  0  0
  191.3770  170.8150  141.4970 O   0  0  0  0  0  0  0  0  0  0  0  0
  192.2630  176.7150  143.9950 N   0  0  0  0  0  2  0  0  0  0  0  0
  194.7650  172.9820  143.8110 C   0  0  2  0  0  3  0  0  0  0  0  0
  193.4070  172.1050  141.7720 C   0  0  1  0  0  3  0  0  0  0  0  0
  190.0950  170.8290  139.6080 O   0  0  0  0  0  0  0  0  0  0  0  0
  190.4380  173.5090  141.8460 O   0  0  0  0  0  0  0  0  0  0  0  0
  190.1520  177.4150  144.7480 O   0  0  0  0  0  0  0  0  0  0  0  0
  192.2150  171.4510  142.4600 C   0  0  0  0  0  2  0  0  0  0  0  0
  190.1570  175.0060  144.1710 C   0  0  1  0  0  3  0  0  0  0  0  0
  193.1240  174.6760  144.8790 C   0  0  1  0  0  3  0  0  0  0  0  0
  194.3550  173.7940  145.0530 C   0  0  1  0  0  3  0  0  0  0  0  0
  190.0840  173.7430  144.7700 O   0  0  0  0  0  1  0  0  0  0  0  0
  192.3420  174.7870  146.1840 C   0  0  0  0  0  2  0  0  0  0  0  0
  190.6060  171.4970  140.5450 C   0  0  0  0  0  0  0  0  0  0  0  0
  191.4310  177.0280  145.1680 C   0  0  1  0  0  0  0  0  0  0  0  0
  193.9490  173.3120  142.5500 C   0  0  0  0  0  2  0  0  0  0  0  0
  193.4950  176.0560  144.3950 C   0  0  0  0  0  2  0  0  0  0  0  0
  189.2290  173.8530  138.5120 C   0  0  0  0  0  2  0  0  0  0  0  0
  187.9690  174.5310  138.0070 C   0  0  0  0  0  1  0  0  0  0  0  0
  194.5610  170.0620  141.9280 O   0  0  0  0  0  0  0  0  0  0  0  0
  194.4380  171.1100  141.3110 C   0  0  0  0  0  0  0  0  0  0  0  0
  195.3720  171.4290  140.1780 C   0  0  1  0  0  3  0  0  0  0  0  0
  196.3570  170.2890  139.9720 C   0  0  0  0  0  1  0  0  0  0  0  0
  193.5970  171.0320  138.3570 C   0  0  0  0  0  3  0  0  0  0  0  0
  194.0010  172.8490  137.1280 C   0  0  0  0  0  3  0  0  0  0  0  0
  194.8470  172.8820  138.1800 N   0  0  0  0  0  0  0  0  0  0  0  0
  193.2040  171.7180  137.2150 C   0  0  0  0  0  3  0  0  0  0  0  0
  194.6340  171.7730  138.9090 C   0  0  0  0  0  0  0  0  0  0  0  0
  195.8840  173.8950  138.4220 C   0  0  0  0  0  2  0  0  0  0  0  0
  195.4180  174.9230  139.4200 C   0  0  0  0  0  0  0  0  0  0  0  0
  194.3390  175.5330  139.1940 O   0  0  0  0  0  0  0  0  0  0  0  0
  197.2200  174.3800  141.0710 C   0  0  0  0  0  3  0  0  0  0  0  0
  196.5920  176.6420  142.5860 C   0  0  0  0  0  3  0  0  0  0  0  0
  197.6270  175.7970  142.9960 C   0  0  0  0  0  3  0  0  0  0  0  0
  196.1820  175.2210  140.6480 C   0  0  0  0  0  0  0  0  0  0  0  0
  195.8730  176.3550  141.4170 C   0  0  0  0  0  3  0  0  0  0  0  0
  197.9410  174.6650  142.2380 C   0  0  0  0  0  3  0  0  0  0  0  0
  194.7470  171.4330  145.8340 C   0  0  0  0  0  2  0  0  0  0  0  0
  194.8400  170.1160  145.3710 O   0  0  0  0  0  1  0  0  0  0  0  0
  188.3570  176.4240  142.9360 C   0  0  0  0  0  2  0  0  0  0  0  0
  186.0230  176.8140  142.3430 N   0  0  0  0  0  1  0  0  0  0  0  0
  186.9110  176.3470  143.3970 C   0  0  2  0  0  3  0  0  0  0  0  0
  186.7050  176.5590  145.8630 O   0  0  0  0  0  1  0  0  0  0  0  0
  186.7240  177.1750  144.6180 C   0  0  0  0  0  0  0  0  0  0  0  0
  186.6210  178.4280  144.5330 O   0  0  0  0  0  0  0  0  0  0  0  0
  1  5  1  6  0  0  0
  1 14  1  0  0  0  0
  1  2  1  0  0  0  0
  2 48  1  6  0  0  0
  2 17  1  0  0  0  0
  3 22  1  1  0  0  0
  3 14  1  0  0  0  0
  4 15  1  1  0  0  0
  4  6  1  0  0  0  0
  6 21  1  6  0  0  0
  7 19  1  0  0  0  0
  7 46  1  1  0  0  0
  8 26  1  6  0  0  0
  8  3  1  0  0  0  0
  8  5  1  0  0  0  0
  9 16  1  0  0  0  0
 10 25  1  0  0  0  0
 10 23  1  0  0  0  0
 11 24  1  6  0  0  0
 11  7  1  0  0  0  0
 11 19  1  0  0  0  0
 12 29  1  1  0  0  0
 12 16  1  0  0  0  0
 12 24  1  0  0  0  0
 13 22  2  0  0  0  0
 15 23  1  0  0  0  0
 17 20  1  1  0  0  0
 17  4  1  0  0  0  0
 18 25  1  1  0  0  0
 18 19  1  0  0  0  0
 18 21  1  0  0  0  0
 22  9  1  0  0  0  0
 23  4  1  0  0  0  0
 23  6  1  0  0  0  0
 27 26  1  0  0  0  0
 29 28  2  0  0  0  0
 30 29  1  0  0  0  0
 31 30  1  0  0  0  0
 32 36  2  0  0  0  0
 33 35  2  0  0  0  0
 33 34  1  0  0  0  0
 34 37  1  0  0  0  0
 34 36  1  0  0  0  0
 35 32  1  0  0  0  0
 36 30  1  0  0  0  0
 37 38  1  0  0  0  0
 38 43  1  0  0  0  0
 39 38  2  0  0  0  0
 40 45  1  0  0  0  0
 41 42  1  0  0  0  0
 43 40  2  0  0  0  0
 43 44  1  0  0  0  0
 44 41  2  0  0  0  0
 45 42  2  0  0  0  0
 47 46  1  0  0  0  0
 48 50  1  0  0  0  0
 49 50  1  0  0  0  0
 50 52  1  0  0  0  0
 52 51  1  0  0  0  0
 53 52  2  0  0  0  0
M  END
>  <MODEL>
3

>  <REMARK>
 VINA RESULT:      -7.0      1.778      2.310
  Name = 
  11 active torsions:
  status: ('A' for Active; 'I' for Inactive)
    1  A    between atoms: C_2  and  C_17
    2  A    between atoms: C_5  and  C_38
    3  A    between atoms: C_12  and  C_15
    4  A    between atoms: C_16  and  CA_44
    5  A    between atoms: N_21  and  C_39
    6  A    between atoms: C_25  and  C_50
    7  A    between atoms: C_27  and  C_28
    8  A    between atoms: C_28  and  C_39
    9  A    between atoms: C_29  and  C_31
   10  A    between atoms: C_29  and  C_50
   11  A    between atoms: C_38  and  CA_44
                            x       y       z     vdW  Elec       q    Type
                         _______ _______ _______ _____ _____    ______ ____

>  <TORSDO>
F 11

$$$$
=
 OpenBabel11062420333D

 53 60  0  0  1  0  0  0  0  0999 V2000
  191.9460  172.9210  141.1900 C   0  0  2  0  0  3  0  0  0  0  0  0
  193.4210  172.9640  140.7720 C   0  0  1  0  0  3  0  0  0  0  0  0
  190.2220  174.1310  141.7850 C   0  0  1  0  0  3  0  0  0  0  0  0
  195.6590  172.6450  142.2110 C   0  0  2  0  0  0  0  0  0  0  0  0
  191.1030  172.8270  140.0560 O   0  0  0  0  0  0  0  0  0  0  0  0
  196.4420  173.0640  143.4620 C   0  0  1  0  0  3  0  0  0  0  0  0
  193.7020  176.0540  145.7590 C   0  0  2  0  0  3  0  0  0  0  0  0
  189.9720  173.5670  140.4070 C   0  0  1  0  0  3  0  0  0  0  0  0
  190.3240  176.4890  142.7770 O   0  0  0  0  0  0  0  0  0  0  0  0
  194.3960  171.6410  144.0980 N   0  0  0  0  0  2  0  0  0  0  0  0
  192.7610  175.0930  146.4700 C   0  0  2  0  0  3  0  0  0  0  0  0
  190.7340  175.3170  144.8550 C   0  0  1  0  0  3  0  0  0  0  0  0
  188.7040  175.9100  141.2760 O   0  0  0  0  0  0  0  0  0  0  0  0
  191.6020  174.0500  141.9500 O   0  0  0  0  0  0  0  0  0  0  0  0
  195.5810  171.2400  142.1100 O   0  0  0  0  0  0  0  0  0  0  0  0
  191.3260  176.1690  143.7400 C   0  0  0  0  0  2  0  0  0  0  0  0
  194.2920  173.3520  141.9890 C   0  0  1  0  0  3  0  0  0  0  0  0
  194.4930  173.8400  145.0110 C   0  0  1  0  0  3  0  0  0  0  0  0
  194.2340  174.7130  146.2330 C   0  0  1  0  0  3  0  0  0  0  0  0
  194.4750  174.7390  141.9590 O   0  0  0  0  0  1  0  0  0  0  0  0
  195.8540  174.1500  144.3960 C   0  0  0  0  0  2  0  0  0  0  0  0
  189.7310  175.5570  141.9120 C   0  0  0  0  0  0  0  0  0  0  0  0
  195.7010  171.7190  143.4220 C   0  0  1  0  0  0  0  0  0  0  0  0
  191.7740  174.4020  145.5150 C   0  0  0  0  0  2  0  0  0  0  0  0
  194.4180  172.3720  145.3530 C   0  0  0  0  0  2  0  0  0  0  0  0
  188.7120  172.7090  140.3550 C   0  0  0  0  0  2  0  0  0  0  0  0
  188.2010  172.5190  138.9390 C   0  0  0  0  0  1  0  0  0  0  0  0
  190.2550  177.1960  146.1840 O   0  0  0  0  0  0  0  0  0  0  0  0
  189.8640  176.1030  145.7990 C   0  0  0  0  0  0  0  0  0  0  0  0
  188.5890  175.5260  146.3440 C   0  0  1  0  0  3  0  0  0  0  0  0
  188.8660  174.7550  147.6250 C   0  0  0  0  0  1  0  0  0  0  0  0
  187.2750  177.2610  147.7180 C   0  0  0  0  0  3  0  0  0  0  0  0
  185.9030  177.9620  146.1040 C   0  0  0  0  0  3  0  0  0  0  0  0
  186.7150  177.0290  145.5620 N   0  0  0  0  0  0  0  0  0  0  0  0
  186.2330  178.1370  147.4390 C   0  0  0  0  0  3  0  0  0  0  0  0
  187.5240  176.5760  146.5350 C   0  0  0  0  0  0  0  0  0  0  0  0
  186.6510  176.5260  144.1820 C   0  0  0  0  0  2  0  0  0  0  0  0
  186.6180  177.6590  143.1900 C   0  0  0  0  0  0  0  0  0  0  0  0
  187.6160  178.4250  143.1200 O   0  0  0  0  0  0  0  0  0  0  0  0
  184.1770  178.0840  142.8270 C   0  0  0  0  0  3  0  0  0  0  0  0
  184.5360  178.1070  140.0560 C   0  0  0  0  0  3  0  0  0  0  0  0
  183.2610  178.3070  140.5920 C   0  0  0  0  0  3  0  0  0  0  0  0
  185.4610  177.8850  142.3000 C   0  0  0  0  0  0  0  0  0  0  0  0
  185.6310  177.8960  140.9060 C   0  0  0  0  0  3  0  0  0  0  0  0
  183.0820  178.2960  141.9790 C   0  0  0  0  0  3  0  0  0  0  0  0
  194.1920  177.1930  146.6610 C   0  0  0  0  0  2  0  0  0  0  0  0
  194.9650  178.1420  145.9840 O   0  0  0  0  0  1  0  0  0  0  0  0
  193.7860  171.6490  140.0860 C   0  0  0  0  0  2  0  0  0  0  0  0
  194.4520  173.3080  138.4250 N   0  0  0  0  0  1  0  0  0  0  0  0
  194.2980  171.8820  138.6750 C   0  0  2  0  0  3  0  0  0  0  0  0
  192.3370  170.4580  138.1320 O   0  0  0  0  0  1  0  0  0  0  0  0
  193.3510  171.2980  137.6880 C   0  0  0  0  0  0  0  0  0  0  0  0
  193.4380  171.5900  136.4660 O   0  0  0  0  0  0  0  0  0  0  0  0
  1  5  1  6  0  0  0
  1 14  1  0  0  0  0
  2 48  1  1  0  0  0
  2  1  1  0  0  0  0
  2 17  1  0  0  0  0
  3 22  1  6  0  0  0
  3 14  1  0  0  0  0
  4 15  1  6  0  0  0
  4 23  1  0  0  0  0
  4  6  1  0  0  0  0
  5  8  1  0  0  0  0
  6 21  1  1  0  0  0
  7 19  1  0  0  0  0
  7 11  1  0  0  0  0
  7 46  1  1  0  0  0
  8 26  1  1  0  0  0
  8  3  1  0  0  0  0
  9 16  1  0  0  0  0
 10 25  1  0  0  0  0
 11 24  1  6  0  0  0
 12 24  1  0  0  0  0
 12 29  1  1  0  0  0
 13 22  2  0  0  0  0
 15 23  1  0  0  0  0
 16 12  1  0  0  0  0
 17 20  1  6  0  0  0
 17  4  1  0  0  0  0
 18 21  1  1  0  0  0
 18 25  1  0  0  0  0
 18 19  1  0  0  0  0
 19 11  1  0  0  0  0
 22  9  1  0  0  0  0
 23  6  1  0  0  0  0
 23 10  1  0  0  0  0
 27 26  1  0  0  0  0
 29 28  2  0  0  0  0
 29 30  1  0  0  0  0
 30 36  1  0  0  0  0
 30 31  1  0  0  0  0
 33 35  2  0  0  0  0
 34 33  1  0  0  0  0
 34 36  1  0  0  0  0
 35 32  1  0  0  0  0
 36 32  2  0  0  0  0
 37 34  1  0  0  0  0
 38 37  1  0  0  0  0
 39 38  2  0  0  0  0
 41 42  2  0  0  0  0
 41 44  1  0  0  0  0
 42 45  1  0  0  0  0
 43 40  1  0  0  0  0
 43 38  1  0  0  0  0
 44 43  2  0  0  0  0
 45 40  2  0  0  0  0
 47 46  1  0  0  0  0
 49 50  1  0  0  0  0
 50 48  1  0  0  0  0
 52 51  1  0  0  0  0
 52 50  1  0  0  0  0
 53 52  2  0  0  0  0
M  END
>  <MODEL>
4

>  <REMARK>
 VINA RESULT:      -7.0      2.215      8.702
  Name = 
  11 active torsions:
  status: ('A' for Active; 'I' for Inactive)
    1  A    between atoms: C_2  and  C_17
    2  A    between atoms: C_5  and  C_38
    3  A    between atoms: C_12  and  C_15
    4  A    between atoms: C_16  and  CA_44
    5  A    between atoms: N_21  and  C_39
    6  A    between atoms: C_25  and  C_50
    7  A    between atoms: C_27  and  C_28
    8  A    between atoms: C_28  and  C_39
    9  A    between atoms: C_29  and  C_31
   10  A    between atoms: C_29  and  C_50
   11  A    between atoms: C_38  and  CA_44
                            x       y       z     vdW  Elec       q    Type
                         _______ _______ _______ _____ _____    ______ ____

>  <TORSDO>
F 11

$$$$
=
 OpenBabel11062420333D

 53 60  0  0  1  0  0  0  0  0999 V2000
  190.1450  175.6590  143.3770 C   0  0  2  0  0  3  0  0  0  0  0  0
  190.6460  175.8180  144.8190 C   0  0  1  0  0  3  0  0  0  0  0  0
  189.3380  174.2450  141.9140 C   0  0  1  0  0  3  0  0  0  0  0  0
  193.1280  175.7540  145.8270 C   0  0  2  0  0  0  0  0  0  0  0  0
  188.7970  176.0760  143.2630 O   0  0  0  0  0  0  0  0  0  0  0  0
  194.4550  174.9880  145.9020 C   0  0  1  0  0  3  0  0  0  0  0  0
  193.9770  171.2980  143.0950 C   0  0  2  0  0  3  0  0  0  0  0  0
  188.2500  175.2130  142.3110 C   0  0  1  0  0  3  0  0  0  0  0  0
  189.6050  171.7010  141.9900 O   0  0  0  0  0  0  0  0  0  0  0  0
  194.1350  176.0370  143.5760 N   0  0  0  0  0  2  0  0  0  0  0  0
  194.2330  171.9340  141.7380 C   0  0  2  0  0  3  0  0  0  0  0  0
  191.7550  172.1550  140.9740 C   0  0  1  0  0  3  0  0  0  0  0  0
  187.6440  172.6620  141.3250 O   0  0  0  0  0  0  0  0  0  0  0  0
  190.2730  174.3300  142.9410 O   0  0  0  0  0  0  0  0  0  0  0  0
  193.3450  177.1110  145.5090 O   0  0  0  0  0  0  0  0  0  0  0  0
  191.0100  171.7360  142.2350 C   0  0  0  0  0  2  0  0  0  0  0  0
  192.0050  175.0970  144.9760 C   0  0  1  0  0  3  0  0  0  0  0  0
  194.3760  173.6680  143.6550 C   0  0  1  0  0  3  0  0  0  0  0  0
  194.9760  172.4360  142.9880 C   0  0  1  0  0  3  0  0  0  0  0  0
  191.7490  173.8030  145.4460 O   0  0  0  0  0  1  0  0  0  0  0  0
  194.5920  173.6340  145.1640 C   0  0  0  0  0  2  0  0  0  0  0  0
  188.8140  172.8350  141.7560 C   0  0  0  0  0  0  0  0  0  0  0  0
  194.3270  176.2400  145.0210 C   0  0  1  0  0  0  0  0  0  0  0  0
  193.0880  172.8530  141.2800 C   0  0  0  0  0  2  0  0  0  0  0  0
  194.9570  174.9410  143.0920 C   0  0  0  0  0  2  0  0  0  0  0  0
  187.6990  175.9850  141.1160 C   0  0  0  0  0  2  0  0  0  0  0  0
  187.3570  177.4210  141.4660 C   0  0  0  0  0  1  0  0  0  0  0  0
  191.7760  169.9020  140.3020 O   0  0  0  0  0  0  0  0  0  0  0  0
  191.8120  171.0680  139.9340 C   0  0  0  0  0  0  0  0  0  0  0  0
  192.0100  171.3920  138.4810 C   0  0  1  0  0  3  0  0  0  0  0  0
  192.1670  170.1130  137.6740 C   0  0  0  0  0  1  0  0  0  0  0  0
  189.5900  172.2630  138.3660 C   0  0  0  0  0  3  0  0  0  0  0  0
  189.8890  173.8030  136.7810 C   0  0  0  0  0  3  0  0  0  0  0  0
  191.0870  173.2250  137.0070 N   0  0  0  0  0  0  0  0  0  0  0  0
  188.9400  173.2360  137.6170 C   0  0  0  0  0  3  0  0  0  0  0  0
  190.9120  172.2720  137.9380 C   0  0  0  0  0  0  0  0  0  0  0  0
  192.3360  173.5160  136.2880 C   0  0  0  0  0  2  0  0  0  0  0  0
  193.1020  174.6290  136.9530 C   0  0  0  0  0  0  0  0  0  0  0  0
  192.7390  175.8170  136.7430 O   0  0  0  0  0  0  0  0  0  0  0  0
  194.9950  173.1840  137.7250 C   0  0  0  0  0  3  0  0  0  0  0  0
  195.6880  175.0440  139.6920 C   0  0  0  0  0  3  0  0  0  0  0  0
  196.4270  173.8650  139.5600 C   0  0  0  0  0  3  0  0  0  0  0  0
  194.2480  174.3640  137.8460 C   0  0  0  0  0  0  0  0  0  0  0  0
  194.6030  175.2920  138.8390 C   0  0  0  0  0  3  0  0  0  0  0  0
  196.0800  172.9350  138.5750 C   0  0  0  0  0  3  0  0  0  0  0  0
  194.6890  169.9510  143.2710 C   0  0  0  0  0  2  0  0  0  0  0  0
  195.8170  170.0250  144.0950 O   0  0  0  0  0  1  0  0  0  0  0  0
  190.6330  177.2990  145.1920 C   0  0  0  0  0  2  0  0  0  0  0  0
  190.4110  176.7520  147.5600 N   0  0  0  0  0  1  0  0  0  0  0  0
  189.8520  177.5420  146.4730 C   0  0  2  0  0  3  0  0  0  0  0  0
  187.9110  176.0530  146.8990 O   0  0  0  0  0  1  0  0  0  0  0  0
  188.4240  177.1810  146.2710 C   0  0  0  0  0  0  0  0  0  0  0  0
  187.6720  177.9100  145.5710 O   0  0  0  0  0  0  0  0  0  0  0  0
  1 14  1  1  0  0  0
  1  2  1  0  0  0  0
  2 17  1  0  0  0  0
  2 48  1  6  0  0  0
  3 22  1  1  0  0  0
  3  8  1  0  0  0  0
  3 14  1  0  0  0  0
  4 15  1  1  0  0  0
  4  6  1  0  0  0  0
  5  1  1  0  0  0  0
  6 21  1  6  0  0  0
  7 46  1  6  0  0  0
  8 26  1  6  0  0  0
  8  5  1  0  0  0  0
  9 16  1  0  0  0  0
 10 23  1  0  0  0  0
 11 24  1  1  0  0  0
 11 19  1  0  0  0  0
 11  7  1  0  0  0  0
 12 29  1  6  0  0  0
 12 24  1  0  0  0  0
 12 16  1  0  0  0  0
 13 22  2  0  0  0  0
 17 20  1  1  0  0  0
 17  4  1  0  0  0  0
 18 25  1  6  0  0  0
 18 21  1  0  0  0  0
 19  7  1  0  0  0  0
 19 18  1  0  0  0  0
 22  9  1  0  0  0  0
 23 15  1  0  0  0  0
 23  4  1  0  0  0  0
 23  6  1  0  0  0  0
 25 10  1  0  0  0  0
 26 27  1  0  0  0  0
 29 28  2  0  0  0  0
 30 29  1  0  0  0  0
 31 30  1  0  0  0  0
 33 34  1  0  0  0  0
 33 35  2  0  0  0  0
 34 36  1  0  0  0  0
 35 32  1  0  0  0  0
 36 32  2  0  0  0  0
 36 30  1  0  0  0  0
 37 38  1  0  0  0  0
 37 34  1  0  0  0  0
 38 43  1  0  0  0  0
 39 38  2  0  0  0  0
 40 43  2  0  0  0  0
 40 45  1  0  0  0  0
 42 41  1  0  0  0  0
 43 44  1  0  0  0  0
 44 41  2  0  0  0  0
 45 42  2  0  0  0  0
 46 47  1  0  0  0  0
 48 50  1  0  0  0  0
 50 49  1  0  0  0  0
 52 50  1  0  0  0  0
 52 51  1  0  0  0  0
 53 52  2  0  0  0  0
M  END
>  <MODEL>
5

>  <REMARK>
 VINA RESULT:      -6.7      2.051      3.187
  Name = 
  11 active torsions:
  status: ('A' for Active; 'I' for Inactive)
    1  A    between atoms: C_2  and  C_17
    2  A    between atoms: C_5  and  C_38
    3  A    between atoms: C_12  and  C_15
    4  A    between atoms: C_16  and  CA_44
    5  A    between atoms: N_21  and  C_39
    6  A    between atoms: C_25  and  C_50
    7  A    between atoms: C_27  and  C_28
    8  A    between atoms: C_28  and  C_39
    9  A    between atoms: C_29  and  C_31
   10  A    between atoms: C_29  and  C_50
   11  A    between atoms: C_38  and  CA_44
                            x       y       z     vdW  Elec       q    Type
                         _______ _______ _______ _____ _____    ______ ____

>  <TORSDO>
F 11

$$$$
=
 OpenBabel11062420333D

 53 60  0  0  1  0  0  0  0  0999 V2000
  190.1590  175.5410  144.8520 C   0  0  2  0  0  3  0  0  0  0  0  0
  189.5520  175.9630  143.5080 C   0  0  1  0  0  3  0  0  0  0  0  0
  192.0270  175.1920  145.9360 C   0  0  1  0  0  3  0  0  0  0  0  0
  188.6590  174.4950  141.4500 C   0  0  2  0  0  0  0  0  0  0  0  0
  190.1940  176.6310  145.7540 O   0  0  0  0  0  0  0  0  0  0  0  0
  188.9620  173.3540  140.4710 C   0  0  1  0  0  3  0  0  0  0  0  0
  193.1410  171.6850  141.6860 C   0  0  2  0  0  3  0  0  0  0  0  0
  191.3640  176.4300  146.4900 C   0  0  1  0  0  3  0  0  0  0  0  0
  194.3000  174.6850  144.8730 O   0  0  0  0  0  0  0  0  0  0  0  0
  188.5810  172.4440  142.8460 N   0  0  0  0  0  2  0  0  0  0  0  0
  192.7650  170.7960  142.8610 C   0  0  2  0  0  3  0  0  0  0  0  0
  193.4570  172.4180  144.7740 C   0  0  1  0  0  3  0  0  0  0  0  0
  194.1300  176.0370  146.7040 O   0  0  0  0  0  0  0  0  0  0  0  0
  191.4510  175.0170  144.6820 O   0  0  0  0  0  0  0  0  0  0  0  0
  187.4000  174.3160  142.0620 O   0  0  0  0  0  0  0  0  0  0  0  0
  193.7980  173.6810  143.9930 C   0  0  0  0  0  2  0  0  0  0  0  0
  189.7870  174.8490  142.4620 C   0  0  1  0  0  3  0  0  0  0  0  0
  190.6970  171.9830  141.8530 C   0  0  1  0  0  3  0  0  0  0  0  0
  191.8090  170.9570  141.6660 C   0  0  1  0  0  3  0  0  0  0  0  0
  190.9650  175.1530  141.7710 O   0  0  0  0  0  1  0  0  0  0  0  0
  190.3400  172.6510  140.5290 C   0  0  0  0  0  2  0  0  0  0  0  0
  193.5290  175.3470  145.8400 C   0  0  0  0  0  0  0  0  0  0  0  0
  188.0250  173.1260  141.6660 C   0  0  1  0  0  0  0  0  0  0  0  0
  192.3480  171.5930  144.1080 C   0  0  0  0  0  2  0  0  0  0  0  0
  189.4610  171.3580  142.4500 C   0  0  0  0  0  2  0  0  0  0  0  0
  191.0650  176.3080  147.9810 C   0  0  0  0  0  2  0  0  0  0  0  0
  191.5660  177.5030  148.7690 C   0  0  0  0  0  1  0  0  0  0  0  0
  194.5790  170.8730  146.1460 O   0  0  0  0  0  0  0  0  0  0  0  0
  194.6760  171.6450  145.2040 C   0  0  0  0  0  0  0  0  0  0  0  0
  196.0130  171.8830  144.5610 C   0  0  1  0  0  3  0  0  0  0  0  0
  197.0720  172.1240  145.6260 C   0  0  0  0  0  1  0  0  0  0  0  0
  195.9260  169.4650  143.6820 C   0  0  0  0  0  3  0  0  0  0  0  0
  197.3210  169.7100  141.9600 C   0  0  0  0  0  3  0  0  0  0  0  0
  197.2140  170.9140  142.5620 N   0  0  0  0  0  0  0  0  0  0  0  0
  196.5250  168.7920  142.6250 C   0  0  0  0  0  3  0  0  0  0  0  0
  196.4010  170.7690  143.6220 C   0  0  0  0  0  0  0  0  0  0  0  0
  197.9410  172.1350  142.1850 C   0  0  0  0  0  2  0  0  0  0  0  0
  197.2160  172.8880  141.1010 C   0  0  0  0  0  0  0  0  0  0  0  0
  197.1930  172.3960  139.9410 O   0  0  0  0  0  0  0  0  0  0  0  0
  195.3830  174.5310  140.6430 C   0  0  0  0  0  3  0  0  0  0  0  0
  196.3760  176.2690  142.5930 C   0  0  0  0  0  3  0  0  0  0  0  0
  195.2320  176.6170  141.8690 C   0  0  0  0  0  3  0  0  0  0  0  0
  196.5300  174.1690  141.3630 C   0  0  0  0  0  0  0  0  0  0  0  0
  197.0220  175.0500  142.3400 C   0  0  0  0  0  3  0  0  0  0  0  0
  194.7350  175.7470  140.8940 C   0  0  0  0  0  3  0  0  0  0  0  0
  194.1460  171.0270  140.7320 C   0  0  0  0  0  2  0  0  0  0  0  0
  193.6580  170.8840  139.4280 O   0  0  0  0  0  1  0  0  0  0  0  0
  188.0970  176.3760  143.7230 C   0  0  0  0  0  2  0  0  0  0  0  0
  187.1250  178.4890  144.4600 N   0  0  0  0  0  1  0  0  0  0  0  0
  187.8840  177.8460  143.3980 C   0  0  2  0  0  3  0  0  0  0  0  0
  185.7990  178.2720  142.1180 O   0  0  0  0  0  1  0  0  0  0  0  0
  187.1570  177.9800  142.1080 C   0  0  0  0  0  0  0  0  0  0  0  0
  187.7700  177.8690  141.0130 O   0  0  0  0  0  0  0  0  0  0  0  0
  1 14  1  6  0  0  0
  1  5  1  0  0  0  0
  2 48  1  1  0  0  0
  2  1  1  0  0  0  0
  3 14  1  6  0  0  0
  3  8  1  0  0  0  0
  4 23  1  0  0  0  0
  4 15  1  6  0  0  0
  4 17  1  0  0  0  0
  5  8  1  0  0  0  0
  6 21  1  1  0  0  0
  6  4  1  0  0  0  0
  6 23  1  0  0  0  0
  7 46  1  6  0  0  0
  7 11  1  0  0  0  0
  8 26  1  1  0  0  0
  9 22  1  0  0  0  0
 11 24  1  1  0  0  0
 12 29  1  6  0  0  0
 16 12  1  0  0  0  0
 16  9  1  0  0  0  0
 17 20  1  6  0  0  0
 17  2  1  0  0  0  0
 18 21  1  6  0  0  0
 18 25  1  0  0  0  0
 19  7  1  0  0  0  0
 19 18  1  0  0  0  0
 19 11  1  0  0  0  0
 22  3  1  0  0  0  0
 22 13  2  0  0  0  0
 23 15  1  0  0  0  0
 23 10  1  0  0  0  0
 24 12  1  0  0  0  0
 25 10  1  0  0  0  0
 26 27  1  0  0  0  0
 29 28  2  0  0  0  0
 30 29  1  0  0  0  0
 30 31  1  0  0  0  0
 33 34  1  0  0  0  0
 33 35  2  0  0  0  0
 34 36  1  0  0  0  0
 35 32  1  0  0  0  0
 36 32  2  0  0  0  0
 36 30  1  0  0  0  0
 37 34  1  0  0  0  0
 38 43  1  0  0  0  0
 38 37  1  0  0  0  0
 39 38  2  0  0  0  0
 40 45  2  0  0  0  0
 40 43  1  0  0  0  0
 42 41  2  0  0  0  0
 43 44  2  0  0  0  0
 44 41  1  0  0  0  0
 45 42  1  0  0  0  0
 47 46  1  0  0  0  0
 50 48  1  0  0  0  0
 50 49  1  0  0  0  0
 52 51  1  0  0  0  0
 52 50  1  0  0  0  0
 53 52  2  0  0  0  0
M  END
>  <MODEL>
6

>  <REMARK>
 VINA RESULT:      -6.7      2.362      5.429
  Name = 
  11 active torsions:
  status: ('A' for Active; 'I' for Inactive)
    1  A    between atoms: C_2  and  C_17
    2  A    between atoms: C_5  and  C_38
    3  A    between atoms: C_12  and  C_15
    4  A    between atoms: C_16  and  CA_44
    5  A    between atoms: N_21  and  C_39
    6  A    between atoms: C_25  and  C_50
    7  A    between atoms: C_27  and  C_28
    8  A    between atoms: C_28  and  C_39
    9  A    between atoms: C_29  and  C_31
   10  A    between atoms: C_29  and  C_50
   11  A    between atoms: C_38  and  CA_44
                            x       y       z     vdW  Elec       q    Type
                         _______ _______ _______ _____ _____    ______ ____

>  <TORSDO>
F 11

$$$$
=
 OpenBabel11062420333D

 53 60  0  0  1  0  0  0  0  0999 V2000
  188.4160  176.2390  143.7150 C   0  0  2  0  0  3  0  0  0  0  0  0
  188.1740  176.1240  145.2250 C   0  0  1  0  0  3  0  0  0  0  0  0
  188.7120  175.1120  141.8620 C   0  0  1  0  0  3  0  0  0  0  0  0
  189.8880  176.1960  147.2850 C   0  0  2  0  0  0  0  0  0  0  0  0
  187.2000  176.4640  143.0250 O   0  0  0  0  0  0  0  0  0  0  0  0
  191.1890  175.6440  147.8810 C   0  0  1  0  0  3  0  0  0  0  0  0
  192.9210  172.7030  144.7070 C   0  0  2  0  0  3  0  0  0  0  0  0
  187.3600  175.7800  141.8170 C   0  0  1  0  0  3  0  0  0  0  0  0
  189.5350  172.6930  141.7010 O   0  0  0  0  0  0  0  0  0  0  0  0
  191.6790  177.1580  145.8610 N   0  0  0  0  0  2  0  0  0  0  0  0
  193.5830  173.6770  143.7440 C   0  0  2  0  0  3  0  0  0  0  0  0
  191.7270  173.6970  141.9220 C   0  0  1  0  0  3  0  0  0  0  0  0
  187.8990  173.4780  140.3150 O   0  0  0  0  0  0  0  0  0  0  0  0
  189.0460  175.0890  143.2140 O   0  0  0  0  0  0  0  0  0  0  0  0
  189.8810  177.6060  147.3030 O   0  0  0  0  0  0  0  0  0  0  0  0
  190.6310  172.8810  142.5950 C   0  0  0  0  0  2  0  0  0  0  0  0
  189.4540  175.5990  145.9150 C   0  0  1  0  0  3  0  0  0  0  0  0
  192.4350  174.9030  145.7140 C   0  0  1  0  0  3  0  0  0  0  0  0
  193.5510  173.9720  145.2550 C   0  0  1  0  0  3  0  0  0  0  0  0
  189.3450  174.2070  146.0180 O   0  0  0  0  0  1  0  0  0  0  0  0
  191.9650  174.5420  147.1200 C   0  0  0  0  0  2  0  0  0  0  0  0
  188.6770  173.7180  141.2760 C   0  0  0  0  0  0  0  0  0  0  0  0
  191.1590  177.0360  147.2320 C   0  0  1  0  0  0  0  0  0  0  0  0
  192.5710  174.4950  142.9250 C   0  0  0  0  0  2  0  0  0  0  0  0
  192.8720  176.3470  145.6850 C   0  0  0  0  0  2  0  0  0  0  0  0
  187.2210  176.7240  140.6270 C   0  0  0  0  0  2  0  0  0  0  0  0
  186.2830  177.8800  140.9140 C   0  0  0  0  0  1  0  0  0  0  0  0
  193.3450  172.1150  141.2830 O   0  0  0  0  0  0  0  0  0  0  0  0
  192.5020  172.9110  140.8970 C   0  0  0  0  0  0  0  0  0  0  0  0
  192.3230  173.1630  139.4270 C   0  0  1  0  0  3  0  0  0  0  0  0
  193.6750  173.1970  138.7320 C   0  0  0  0  0  1  0  0  0  0  0  0
  191.4630  170.7910  138.9180 C   0  0  0  0  0  3  0  0  0  0  0  0
  189.7110  171.3580  137.6610 C   0  0  0  0  0  3  0  0  0  0  0  0
  190.3060  172.5030  138.0560 N   0  0  0  0  0  0  0  0  0  0  0  0
  190.3990  170.2770  138.1880 C   0  0  0  0  0  3  0  0  0  0  0  0
  191.3840  172.1720  138.7880 C   0  0  0  0  0  0  0  0  0  0  0  0
  189.9060  173.8640  137.6680 C   0  0  0  0  0  2  0  0  0  0  0  0
  190.3110  174.1660  136.2480 C   0  0  0  0  0  0  0  0  0  0  0  0
  189.4120  174.2220  135.3680 O   0  0  0  0  0  0  0  0  0  0  0  0
  192.4740  173.4060  135.2430 C   0  0  0  0  0  3  0  0  0  0  0  0
  193.6620  175.8750  135.7920 C   0  0  0  0  0  3  0  0  0  0  0  0
  194.4040  174.8720  135.1630 C   0  0  0  0  0  3  0  0  0  0  0  0
  191.7180  174.4050  135.8720 C   0  0  0  0  0  0  0  0  0  0  0  0
  192.3250  175.6430  136.1450 C   0  0  0  0  0  3  0  0  0  0  0  0
  193.8100  173.6370  134.8880 C   0  0  0  0  0  3  0  0  0  0  0  0
  193.7890  171.4770  145.0140 C   0  0  0  0  0  2  0  0  0  0  0  0
  193.3570  170.3170  144.3620 O   0  0  0  0  0  1  0  0  0  0  0  0
  187.6340  177.4530  145.7490 C   0  0  0  0  0  2  0  0  0  0  0  0
  185.4240  176.4260  145.8770 N   0  0  0  0  0  1  0  0  0  0  0  0
  186.3860  177.2510  146.5920 C   0  0  2  0  0  3  0  0  0  0  0  0
  184.5760  178.9300  146.3180 O   0  0  0  0  0  0  0  0  0  0  0  0
  185.7760  178.5680  146.9180 C   0  0  0  0  0  0  0  0  0  0  0  0
  186.3180  179.3350  147.7580 O   0  0  0  0  0  1  0  0  0  0  0  0
  1  5  1  6  0  0  0
  1  2  1  0  0  0  0
  2 48  1  1  0  0  0
  2 17  1  0  0  0  0
  3 22  1  1  0  0  0
  3 14  1  0  0  0  0
  4 15  1  1  0  0  0
  4  6  1  0  0  0  0
  6 21  1  6  0  0  0
  7 46  1  1  0  0  0
  7 19  1  0  0  0  0
  8 26  1  6  0  0  0
  8  3  1  0  0  0  0
  8  5  1  0  0  0  0
  9 16  1  0  0  0  0
 10 23  1  0  0  0  0
 11 24  1  6  0  0  0
 11  7  1  0  0  0  0
 11 19  1  0  0  0  0
 12 29  1  1  0  0  0
 12 16  1  0  0  0  0
 12 24  1  0  0  0  0
 13 22  2  0  0  0  0
 14  1  1  0  0  0  0
 17 20  1  1  0  0  0
 17  4  1  0  0  0  0
 18 25  1  1  0  0  0
 18 21  1  0  0  0  0
 19 18  1  0  0  0  0
 22  9  1  0  0  0  0
 23  4  1  0  0  0  0
 23 15  1  0  0  0  0
 23  6  1  0  0  0  0
 25 10  1  0  0  0  0
 26 27  1  0  0  0  0
 29 28  2  0  0  0  0
 30 29  1  0  0  0  0
 31 30  1  0  0  0  0
 33 34  1  0  0  0  0
 33 35  2  0  0  0  0
 34 36  1  0  0  0  0
 35 32  1  0  0  0  0
 36 32  2  0  0  0  0
 36 30  1  0  0  0  0
 37 34  1  0  0  0  0
 38 37  1  0  0  0  0
 39 38  2  0  0  0  0
 40 43  1  0  0  0  0
 41 44  1  0  0  0  0
 42 41  2  0  0  0  0
 43 44  2  0  0  0  0
 43 38  1  0  0  0  0
 45 42  1  0  0  0  0
 45 40  2  0  0  0  0
 47 46  1  0  0  0  0
 48 50  1  0  0  0  0
 49 50  1  0  0  0  0
 50 52  1  0  0  0  0
 51 52  2  0  0  0  0
 52 53  1  0  0  0  0
M  END
>  <MODEL>
7

>  <REMARK>
 VINA RESULT:      -6.6      1.825      3.705
  Name = 
  11 active torsions:
  status: ('A' for Active; 'I' for Inactive)
    1  A    between atoms: C_2  and  C_17
    2  A    between atoms: C_5  and  C_38
    3  A    between atoms: C_12  and  C_15
    4  A    between atoms: C_16  and  CA_44
    5  A    between atoms: N_21  and  C_39
    6  A    between atoms: C_25  and  C_50
    7  A    between atoms: C_27  and  C_28
    8  A    between atoms: C_28  and  C_39
    9  A    between atoms: C_29  and  C_31
   10  A    between atoms: C_29  and  C_50
   11  A    between atoms: C_38  and  CA_44
                            x       y       z     vdW  Elec       q    Type
                         _______ _______ _______ _____ _____    ______ ____

>  <TORSDO>
F 11

$$$$
=
 OpenBabel11062420333D

 53 60  0  0  1  0  0  0  0  0999 V2000
  190.4610  175.4070  144.5480 C   0  0  2  0  0  3  0  0  0  0  0  0
  189.2360  175.8010  143.7130 C   0  0  1  0  0  3  0  0  0  0  0  0
  192.6240  175.6560  144.7710 C   0  0  1  0  0  3  0  0  0  0  0  0
  188.0250  174.5420  141.6800 C   0  0  2  0  0  0  0  0  0  0  0  0
  190.5560  176.2070  145.7120 O   0  0  0  0  0  0  0  0  0  0  0  0
  188.1990  173.8530  140.3210 C   0  0  1  0  0  3  0  0  0  0  0  0
  192.7770  173.8650  139.4450 C   0  0  2  0  0  3  0  0  0  0  0  0
  191.9300  176.3670  145.9070 C   0  0  1  0  0  3  0  0  0  0  0  0
  194.2450  176.3660  142.9210 O   0  0  0  0  0  0  0  0  0  0  0  0
  189.1780  172.4090  142.2100 N   0  0  0  0  0  2  0  0  0  0  0  0
  193.2330  172.6830  140.2860 C   0  0  2  0  0  3  0  0  0  0  0  0
  194.1660  174.0240  142.3110 C   0  0  1  0  0  3  0  0  0  0  0  0
  194.4910  177.1260  145.0600 O   0  0  0  0  0  0  0  0  0  0  0  0
  191.6420  175.5140  143.7950 O   0  0  0  0  0  0  0  0  0  0  0  0
  187.2740  173.7370  142.5630 O   0  0  0  0  0  0  0  0  0  0  0  0
  193.7380  175.4430  141.9590 C   0  0  0  0  0  2  0  0  0  0  0  0
  189.3150  175.1200  142.3260 C   0  0  1  0  0  3  0  0  0  0  0  0
  190.6840  173.0800  140.4890 C   0  0  1  0  0  3  0  0  0  0  0  0
  191.8540  172.6700  139.6040 C   0  0  1  0  0  3  0  0  0  0  0  0
  189.9260  176.0190  141.4440 O   0  0  0  0  0  1  0  0  0  0  0  0
  189.6060  173.7910  139.6770 C   0  0  0  0  0  2  0  0  0  0  0  0
  193.8120  176.4380  144.2530 C   0  0  0  0  0  0  0  0  0  0  0  0
  187.9890  173.0200  141.5940 C   0  0  1  0  0  0  0  0  0  0  0  0
  193.1810  172.9650  141.7970 C   0  0  0  0  0  2  0  0  0  0  0  0
  190.0800  171.8910  141.1950 C   0  0  0  0  0  2  0  0  0  0  0  0
  192.3600  175.8350  147.2710 C   0  0  0  0  0  2  0  0  0  0  0  0
  191.1910  175.2910  148.0720 C   0  0  0  0  0  1  0  0  0  0  0  0
  196.1890  174.4520  141.1900 O   0  0  0  0  0  0  0  0  0  0  0  0
  195.6200  173.7590  142.0220 C   0  0  0  0  0  0  0  0  0  0  0  0
  196.3410  172.6060  142.6590 C   0  0  1  0  0  3  0  0  0  0  0  0
  197.6360  172.3200  141.9160 C   0  0  0  0  0  1  0  0  0  0  0  0
  196.7270  174.0570  144.7490 C   0  0  0  0  0  3  0  0  0  0  0  0
  196.8170  172.4150  146.2560 C   0  0  0  0  0  3  0  0  0  0  0  0
  196.5940  171.8430  145.0540 N   0  0  0  0  0  0  0  0  0  0  0  0
  196.8940  173.7900  146.1020 C   0  0  0  0  0  3  0  0  0  0  0  0
  196.5710  172.8220  144.1340 C   0  0  0  0  0  0  0  0  0  0  0  0
  196.4980  170.4000  144.7890 C   0  0  0  0  0  2  0  0  0  0  0  0
  195.0720  169.9230  144.8760 C   0  0  0  0  0  0  0  0  0  0  0  0
  194.5660  169.7480  146.0160 O   0  0  0  0  0  0  0  0  0  0  0  0
  192.8580  169.6870  143.7310 C   0  0  0  0  0  3  0  0  0  0  0  0
  194.1130  169.1610  141.2900 C   0  0  0  0  0  3  0  0  0  0  0  0
  192.7170  169.1820  141.3630 C   0  0  0  0  0  3  0  0  0  0  0  0
  194.2590  169.6710  143.6690 C   0  0  0  0  0  0  0  0  0  0  0  0
  194.8800  169.4040  142.4380 C   0  0  0  0  0  3  0  0  0  0  0  0
  192.0900  169.4450  142.5840 C   0  0  0  0  0  3  0  0  0  0  0  0
  193.4140  173.8910  138.0500 C   0  0  0  0  0  2  0  0  0  0  0  0
  193.8690  175.1590  137.6730 O   0  0  0  0  0  1  0  0  0  0  0  0
  187.9690  175.5190  144.5190 C   0  0  0  0  0  2  0  0  0  0  0  0
  187.7940  177.9230  144.1420 N   0  0  0  0  0  1  0  0  0  0  0  0
  187.0680  176.7410  144.5810 C   0  0  2  0  0  3  0  0  0  0  0  0
  187.4710  177.3320  146.9600 O   0  0  0  0  0  1  0  0  0  0  0  0
  186.5770  176.9390  145.9710 C   0  0  0  0  0  0  0  0  0  0  0  0
  185.3570  176.7910  146.2460 O   0  0  0  0  0  0  0  0  0  0  0  0
  1 14  1  6  0  0  0
  1  5  1  0  0  0  0
  2 48  1  1  0  0  0
  2  1  1  0  0  0  0
  3 14  1  6  0  0  0
  3  8  1  0  0  0  0
  4 17  1  0  0  0  0
  4 15  1  1  0  0  0
  5  8  1  0  0  0  0
  6 21  1  1  0  0  0
  6 23  1  0  0  0  0
  6  4  1  0  0  0  0
  7 46  1  6  0  0  0
  7 19  1  0  0  0  0
  7 11  1  0  0  0  0
  8 26  1  1  0  0  0
  9 22  1  0  0  0  0
 11 24  1  1  0  0  0
 12 29  1  6  0  0  0
 16 12  1  0  0  0  0
 16  9  1  0  0  0  0
 17 20  1  6  0  0  0
 17  2  1  0  0  0  0
 18 21  1  6  0  0  0
 18 25  1  0  0  0  0
 19 11  1  0  0  0  0
 19 18  1  0  0  0  0
 22  3  1  0  0  0  0
 22 13  2  0  0  0  0
 23  4  1  0  0  0  0
 23 10  1  0  0  0  0
 23 15  1  0  0  0  0
 24 12  1  0  0  0  0
 25 10  1  0  0  0  0
 26 27  1  0  0  0  0
 28 29  2  0  0  0  0
 29 30  1  0  0  0  0
 30 36  1  0  0  0  0
 31 30  1  0  0  0  0
 32 35  1  0  0  0  0
 34 33  1  0  0  0  0
 35 33  2  0  0  0  0
 36 32  2  0  0  0  0
 36 34  1  0  0  0  0
 37 38  1  0  0  0  0
 37 34  1  0  0  0  0
 38 39  2  0  0  0  0
 41 42  2  0  0  0  0
 41 44  1  0  0  0  0
 42 45  1  0  0  0  0
 43 40  1  0  0  0  0
 43 38  1  0  0  0  0
 44 43  2  0  0  0  0
 45 40  2  0  0  0  0
 47 46  1  0  0  0  0
 48 50  1  0  0  0  0
 49 50  1  0  0  0  0
 50 52  1  0  0  0  0
 52 53  2  0  0  0  0
 52 51  1  0  0  0  0
M  END
>  <MODEL>
8

>  <REMARK>
 VINA RESULT:      -6.5      2.371      6.082
  Name = 
  11 active torsions:
  status: ('A' for Active; 'I' for Inactive)
    1  A    between atoms: C_2  and  C_17
    2  A    between atoms: C_5  and  C_38
    3  A    between atoms: C_12  and  C_15
    4  A    between atoms: C_16  and  CA_44
    5  A    between atoms: N_21  and  C_39
    6  A    between atoms: C_25  and  C_50
    7  A    between atoms: C_27  and  C_28
    8  A    between atoms: C_28  and  C_39
    9  A    between atoms: C_29  and  C_31
   10  A    between atoms: C_29  and  C_50
   11  A    between atoms: C_38  and  CA_44
                            x       y       z     vdW  Elec       q    Type
                         _______ _______ _______ _____ _____    ______ ____

>  <TORSDO>
F 11

$$$$
=
 OpenBabel11062420333D

 53 60  0  0  1  0  0  0  0  0999 V2000
  194.1970  172.8260  138.6340 C   0  0  2  0  0  3  0  0  0  0  0  0
  195.2030  173.9500  138.3560 C   0  0  1  0  0  3  0  0  0  0  0  0
  192.1220  172.3780  139.1700 C   0  0  1  0  0  3  0  0  0  0  0  0
  196.9940  175.1340  139.9600 C   0  0  2  0  0  0  0  0  0  0  0  0
  193.6770  172.3030  137.4260 O   0  0  0  0  0  0  0  0  0  0  0  0
  197.2390  175.8260  141.3060 C   0  0  1  0  0  3  0  0  0  0  0  0
  193.1760  175.6930  143.5860 C   0  0  2  0  0  3  0  0  0  0  0  0
  192.3550  171.9760  137.7330 C   0  0  1  0  0  3  0  0  0  0  0  0
  190.5090  173.9720  140.3580 O   0  0  0  0  0  0  0  0  0  0  0  0
  196.8150  173.3110  141.6360 N   0  0  0  0  0  2  0  0  0  0  0  0
  193.1970  174.2720  144.1280 C   0  0  2  0  0  3  0  0  0  0  0  0
  191.6230  173.1920  142.3600 C   0  0  1  0  0  3  0  0  0  0  0  0
  189.7920  172.6060  138.6750 O   0  0  0  0  0  0  0  0  0  0  0  0
  193.1470  173.2770  139.4510 O   0  0  0  0  0  0  0  0  0  0  0  0
  197.9410  174.1120  139.7370 O   0  0  0  0  0  0  0  0  0  0  0  0
  191.4360  174.3400  141.3780 C   0  0  0  0  0  2  0  0  0  0  0  0
  195.5320  174.6870  139.6750 C   0  0  1  0  0  3  0  0  0  0  0  0
  195.3120  174.8010  142.7320 C   0  0  1  0  0  3  0  0  0  0  0  0
  194.5030  175.0760  143.9940 C   0  0  1  0  0  3  0  0  0  0  0  0
  194.6720  175.7870  139.7750 O   0  0  0  0  0  1  0  0  0  0  0  0
  196.0490  176.0540  142.2700 C   0  0  0  0  0  2  0  0  0  0  0  0
  190.7620  173.0090  139.3700 C   0  0  0  0  0  0  0  0  0  0  0  0
  197.6780  174.3710  141.0890 C   0  0  1  0  0  0  0  0  0  0  0  0
  193.0020  173.2090  143.0340 C   0  0  0  0  0  2  0  0  0  0  0  0
  196.3040  173.6830  142.9440 C   0  0  0  0  0  2  0  0  0  0  0  0
  192.0820  170.4940  137.4970 C   0  0  0  0  0  2  0  0  0  0  0  0
  191.1230  170.2600  136.3460 C   0  0  0  0  0  1  0  0  0  0  0  0
  190.3490  171.9640  143.9100 O   0  0  0  0  0  0  0  0  0  0  0  0
  190.4480  173.0100  143.2850 C   0  0  0  0  0  0  0  0  0  0  0  0
  189.3600  174.0420  143.3700 C   0  0  1  0  0  3  0  0  0  0  0  0
  188.0150  173.4160  143.0360 C   0  0  0  0  0  1  0  0  0  0  0  0
  189.6060  174.1440  145.9300 C   0  0  0  0  0  3  0  0  0  0  0  0
  189.1900  176.3190  146.1960 C   0  0  0  0  0  3  0  0  0  0  0  0
  189.1250  176.0580  144.8730 N   0  0  0  0  0  0  0  0  0  0  0  0
  189.4980  175.1530  146.8780 C   0  0  0  0  0  3  0  0  0  0  0  0
  189.3410  174.7430  144.7050 C   0  0  0  0  0  0  0  0  0  0  0  0
  188.7760  177.0220  143.8190 C   0  0  0  0  0  2  0  0  0  0  0  0
  187.2930  177.0290  143.5570 C   0  0  0  0  0  0  0  0  0  0  0  0
  186.8730  176.5320  142.4780 O   0  0  0  0  0  0  0  0  0  0  0  0
  185.7400  176.7700  145.5040 C   0  0  0  0  0  3  0  0  0  0  0  0
  185.0690  179.4810  145.4010 C   0  0  0  0  0  3  0  0  0  0  0  0
  184.4890  178.6580  146.3710 C   0  0  0  0  0  3  0  0  0  0  0  0
  186.3300  177.5860  144.5280 C   0  0  0  0  0  0  0  0  0  0  0  0
  185.9850  178.9470  144.4830 C   0  0  0  0  0  3  0  0  0  0  0  0
  184.8260  177.3020  146.4220 C   0  0  0  0  0  3  0  0  0  0  0  0
  192.7040  176.7230  144.6200 C   0  0  0  0  0  2  0  0  0  0  0  0
  192.7480  176.2480  145.9350 O   0  0  0  0  0  1  0  0  0  0  0  0
  196.3990  173.3750  137.6000 C   0  0  0  0  0  2  0  0  0  0  0  0
  197.5790  173.2970  135.4650 N   0  0  0  0  0  1  0  0  0  0  0  0
  196.4490  173.8860  136.1700 C   0  0  2  0  0  3  0  0  0  0  0  0
  197.7950  175.9530  136.4610 O   0  0  0  0  0  1  0  0  0  0  0  0
  196.5700  175.3680  136.1650 C   0  0  0  0  0  0  0  0  0  0  0  0
  195.5850  176.0900  135.8580 O   0  0  0  0  0  0  0  0  0  0  0  0
  1  5  1  6  0  0  0
  1 14  1  0  0  0  0
  2 48  1  1  0  0  0
  2  1  1  0  0  0  0
  2 17  1  0  0  0  0
  3 22  1  6  0  0  0
  3 14  1  0  0  0  0
  4 15  1  6  0  0  0
  4 23  1  0  0  0  0
  4  6  1  0  0  0  0
  5  8  1  0  0  0  0
  6 21  1  1  0  0  0
  7 19  1  0  0  0  0
  7 11  1  0  0  0  0
  7 46  1  1  0  0  0
  8 26  1  1  0  0  0
  8  3  1  0  0  0  0
  9 16  1  0  0  0  0
 10 25  1  0  0  0  0
 11 24  1  6  0  0  0
 12 24  1  0  0  0  0
 12 29  1  1  0  0  0
 13 22  2  0  0  0  0
 15 23  1  0  0  0  0
 16 12  1  0  0  0  0
 17 20  1  6  0  0  0
 17  4  1  0  0  0  0
 18 21  1  1  0  0  0
 18 25  1  0  0  0  0
 18 19  1  0  0  0  0
 19 11  1  0  0  0  0
 22  9  1  0  0  0  0
 23  6  1  0  0  0  0
 23 10  1  0  0  0  0
 27 26  1  0  0  0  0
 29 30  1  0  0  0  0
 29 28  2  0  0  0  0
 30 36  1  0  0  0  0
 31 30  1  0  0  0  0
 32 35  1  0  0  0  0
 33 35  2  0  0  0  0
 34 33  1  0  0  0  0
 36 34  1  0  0  0  0
 36 32  2  0  0  0  0
 37 34  1  0  0  0  0
 38 37  1  0  0  0  0
 38 43  1  0  0  0  0
 39 38  2  0  0  0  0
 40 45  1  0  0  0  0
 41 42  1  0  0  0  0
 42 45  2  0  0  0  0
 43 40  2  0  0  0  0
 44 43  1  0  0  0  0
 44 41  2  0  0  0  0
 46 47  1  0  0  0  0
 49 50  1  0  0  0  0
 50 48  1  0  0  0  0
 52 50  1  0  0  0  0
 52 51  1  0  0  0  0
 53 52  2  0  0  0  0
M  END
>  <MODEL>
9

>  <REMARK>
 VINA RESULT:      -6.4      2.383      8.912
  Name = 
  11 active torsions:
  status: ('A' for Active; 'I' for Inactive)
    1  A    between atoms: C_2  and  C_17
    2  A    between atoms: C_5  and  C_38
    3  A    between atoms: C_12  and  C_15
    4  A    between atoms: C_16  and  CA_44
    5  A    between atoms: N_21  and  C_39
    6  A    between atoms: C_25  and  C_50
    7  A    between atoms: C_27  and  C_28
    8  A    between atoms: C_28  and  C_39
    9  A    between atoms: C_29  and  C_31
   10  A    between atoms: C_29  and  C_50
   11  A    between atoms: C_38  and  CA_44
                            x       y       z     vdW  Elec       q    Type
                         _______ _______ _______ _____ _____    ______ ____

>  <TORSDO>
F 11

$$$$
