=
 OpenBabel11062420173D

 25 28  0  0  1  0  0  0  0  0999 V2000
  186.3980  177.9140  142.8490 C   0  0  0  0  0  0  0  0  0  0  0  0
  187.6620  177.3580  142.7560 C   0  0  0  0  0  0  0  0  0  0  0  0
  188.2380  177.3080  143.9810 N   0  0  0  0  0  0  0  0  0  0  0  0
  186.3550  178.6680  146.9700 C   0  0  0  0  0  0  0  0  0  0  0  0
  186.1990  178.2010  144.1840 C   0  0  0  0  0  0  0  0  0  0  0  0
  185.2630  179.0830  146.2940 C   0  0  0  0  0  3  0  0  0  0  0  0
  186.5590  179.1490  148.3670 C   0  0  0  0  0  1  0  0  0  0  0  0
  187.3890  177.7410  146.3550 C   0  0  2  0  0  3  0  0  0  0  0  0
  187.3320  177.8030  144.8560 C   0  0  0  0  0  0  0  0  0  0  0  0
  187.1450  176.3160  146.8220 C   0  0  0  0  0  1  0  0  0  0  0  0
  184.9510  178.6460  144.8790 C   0  0  0  0  0  2  0  0  0  0  0  0
  185.4400  178.0960  141.7600 C   0  0  0  0  0  0  0  0  0  0  0  0
  184.1580  178.2550  141.3410 O   0  0  0  0  0  0  0  0  0  0  0  0
  185.1870  178.2290  140.4600 N   0  0  0  0  0  0  0  0  0  0  0  0
  190.7050  177.3720  144.4060 C   0  0  0  0  0  0  0  0  0  0  0  0
  189.4570  176.6780  144.2940 N   0  0  0  0  0  2  0  0  0  0  0  0
  190.8210  178.5440  143.9550 O   0  0  0  0  0  0  0  0  0  0  0  0
  193.1090  176.6910  144.3620 C   0  0  0  0  0  3  0  0  0  0  0  0
  192.8520  175.4300  146.7760 N   0  0  0  0  0  0  0  0  0  0  0  0
  194.0480  175.4370  146.1310 C   0  0  0  0  0  3  0  0  0  0  0  0
  191.8690  176.6970  145.0050 C   0  0  0  0  0  0  0  0  0  0  0  0
  191.7670  176.0450  146.2370 C   0  0  0  0  0  3  0  0  0  0  0  0
  194.1710  176.0650  144.9320 N   0  0  0  0  0  0  0  0  0  0  0  0
  188.1110  175.5700  141.0940 C   0  0  0  0  0  1  0  0  0  0  0  0
  188.2310  176.9040  141.5600 O   0  0  0  0  0  0  0  0  0  0  0  0
  1  5  1  0  0  0  0
  2  1  2  0  0  0  0
  2  3  1  0  0  0  0
  3 16  1  0  0  0  0
  3  9  1  0  0  0  0
  4  7  1  0  0  0  0
  5  9  2  0  0  0  0
  5 11  1  0  0  0  0
  6  4  2  0  0  0  0
  8 10  1  6  0  0  0
  8  4  1  0  0  0  0
  9  8  1  0  0  0  0
 11  6  1  0  0  0  0
 12  1  1  0  0  0  0
 13 12  1  0  0  0  0
 14 13  1  0  0  0  0
 14 12  2  0  0  0  0
 15 21  1  0  0  0  0
 16 15  1  0  0  0  0
 17 15  2  0  0  0  0
 18 23  2  0  0  0  0
 18 21  1  0  0  0  0
 20 19  2  0  0  0  0
 21 22  2  0  0  0  0
 22 19  1  0  0  0  0
 23 20  1  0  0  0  0
 24 25  1  0  0  0  0
 25  2  1  0  0  0  0
M  END
>  <MODEL>
1

>  <REMARK>
 VINA RESULT:      -7.3      0.000      0.000
  Name = 
  4 active torsions:
  status: ('A' for Active; 'I' for Inactive)
    1  A    between atoms: C_2  and  C_3
    2  A    between atoms: C_4  and  O_25
    3  A    between atoms: N_6  and  N_15
    4  A    between atoms: C_9  and  C_12
                            x       y       z     vdW  Elec       q    Type
                         _______ _______ _______ _____ _____    ______ ____

>  <TORSDO>
F 4

$$$$
=
 OpenBabel11062420173D

 25 28  0  0  1  0  0  0  0  0999 V2000
  185.8420  178.1690  142.7520 C   0  0  0  0  0  0  0  0  0  0  0  0
  187.1670  177.8580  142.4990 C   0  0  0  0  0  0  0  0  0  0  0  0
  187.8670  177.8320  143.6580 N   0  0  0  0  0  0  0  0  0  0  0  0
  186.0980  178.6280  146.9090 C   0  0  0  0  0  0  0  0  0  0  0  0
  185.7370  178.3260  144.1190 C   0  0  0  0  0  0  0  0  0  0  0  0
  184.8870  178.8820  146.3710 C   0  0  0  0  0  3  0  0  0  0  0  0
  186.3600  179.0440  148.3170 C   0  0  0  0  0  1  0  0  0  0  0  0
  187.2070  177.9460  146.1270 C   0  0  2  0  0  3  0  0  0  0  0  0
  186.9850  178.0950  144.6490 C   0  0  0  0  0  0  0  0  0  0  0  0
  187.2640  176.4720  146.4930 C   0  0  0  0  0  1  0  0  0  0  0  0
  184.5090  178.4910  144.9590 C   0  0  0  0  0  2  0  0  0  0  0  0
  184.7590  178.2470  141.7730 C   0  0  0  0  0  0  0  0  0  0  0  0
  183.4360  178.1520  141.4790 O   0  0  0  0  0  0  0  0  0  0  0  0
  184.3490  178.4620  140.5260 N   0  0  0  0  0  0  0  0  0  0  0  0
  189.6280  176.0510  143.6770 C   0  0  0  0  0  0  0  0  0  0  0  0
  189.2020  177.4130  143.8050 N   0  0  0  0  0  2  0  0  0  0  0  0
  188.7790  175.1180  143.7010 O   0  0  0  0  0  0  0  0  0  0  0  0
  191.9240  176.5500  142.8270 C   0  0  0  0  0  3  0  0  0  0  0  0
  192.9290  174.3430  144.0930 N   0  0  0  0  0  0  0  0  0  0  0  0
  193.7480  175.1480  143.3670 C   0  0  0  0  0  3  0  0  0  0  0  0
  191.0610  175.7370  143.5670 C   0  0  0  0  0  0  0  0  0  0  0  0
  191.6040  174.6160  144.2040 C   0  0  0  0  0  3  0  0  0  0  0  0
  193.2440  176.2430  142.7400 N   0  0  0  0  0  0  0  0  0  0  0  0
  187.5150  176.3530  140.5550 C   0  0  0  0  0  1  0  0  0  0  0  0
  187.6780  177.5940  141.2230 O   0  0  0  0  0  0  0  0  0  0  0  0
  1  5  1  0  0  0  0
  2  1  2  0  0  0  0
  2  3  1  0  0  0  0
  3 16  1  0  0  0  0
  3  9  1  0  0  0  0
  4  7  1  0  0  0  0
  5  9  2  0  0  0  0
  5 11  1  0  0  0  0
  6  4  2  0  0  0  0
  8 10  1  6  0  0  0
  8  4  1  0  0  0  0
  9  8  1  0  0  0  0
 11  6  1  0  0  0  0
 12  1  1  0  0  0  0
 13 12  1  0  0  0  0
 14 13  1  0  0  0  0
 14 12  2  0  0  0  0
 15 17  2  0  0  0  0
 15 16  1  0  0  0  0
 18 21  1  0  0  0  0
 19 22  1  0  0  0  0
 20 19  2  0  0  0  0
 21 15  1  0  0  0  0
 21 22  2  0  0  0  0
 23 18  2  0  0  0  0
 23 20  1  0  0  0  0
 24 25  1  0  0  0  0
 25  2  1  0  0  0  0
M  END
>  <MODEL>
2

>  <REMARK>
 VINA RESULT:      -7.0      1.575      1.581
  Name = 
  4 active torsions:
  status: ('A' for Active; 'I' for Inactive)
    1  A    between atoms: C_2  and  C_3
    2  A    between atoms: C_4  and  O_25
    3  A    between atoms: N_6  and  N_15
    4  A    between atoms: C_9  and  C_12
                            x       y       z     vdW  Elec       q    Type
                         _______ _______ _______ _____ _____    ______ ____

>  <TORSDO>
F 4

$$$$
=
 OpenBabel11062420173D

 25 28  0  0  1  0  0  0  0  0999 V2000
  185.7630  177.5760  144.8020 C   0  0  0  0  0  0  0  0  0  0  0  0
  186.9030  176.9000  145.2000 C   0  0  0  0  0  0  0  0  0  0  0  0
  187.6520  176.5760  144.1180 N   0  0  0  0  0  0  0  0  0  0  0  0
  186.4120  177.5050  140.6630 C   0  0  0  0  0  0  0  0  0  0  0  0
  185.8320  177.6750  143.4270 C   0  0  0  0  0  0  0  0  0  0  0  0
  185.2500  178.0650  141.0580 C   0  0  0  0  0  3  0  0  0  0  0  0
  186.5950  177.1720  139.2220 C   0  0  0  0  0  1  0  0  0  0  0  0
  187.5340  177.1910  141.6370 C   0  0  2  0  0  3  0  0  0  0  0  0
  187.0050  177.0720  143.0370 C   0  0  0  0  0  0  0  0  0  0  0  0
  188.5900  178.2820  141.5760 C   0  0  0  0  0  1  0  0  0  0  0  0
  184.9640  178.4560  142.4920 C   0  0  0  0  0  2  0  0  0  0  0  0
  184.7290  178.1350  145.6720 C   0  0  0  0  0  0  0  0  0  0  0  0
  183.5710  178.8290  145.8190 O   0  0  0  0  0  0  0  0  0  0  0  0
  184.2360  178.3350  146.8910 N   0  0  0  0  0  0  0  0  0  0  0  0
  190.1130  176.7330  144.5490 C   0  0  0  0  0  0  0  0  0  0  0  0
  188.9410  176.0150  144.1460 N   0  0  0  0  0  2  0  0  0  0  0  0
  190.0870  177.9920  144.6330 O   0  0  0  0  0  0  0  0  0  0  0  0
  192.6030  176.6470  144.7390 C   0  0  0  0  0  3  0  0  0  0  0  0
  192.5130  173.9960  145.4090 N   0  0  0  0  0  0  0  0  0  0  0  0
  193.7060  174.6410  145.3260 C   0  0  0  0  0  3  0  0  0  0  0  0
  191.3640  176.0060  144.8170 C   0  0  0  0  0  0  0  0  0  0  0  0
  191.3490  174.6510  145.1630 C   0  0  0  0  0  3  0  0  0  0  0  0
  193.7460  175.9580  144.9930 N   0  0  0  0  0  0  0  0  0  0  0  0
  187.8930  177.5360  147.3860 C   0  0  0  0  0  1  0  0  0  0  0  0
  187.2220  176.6210  146.5340 O   0  0  0  0  0  0  0  0  0  0  0  0
  1  2  2  0  0  0  0
  1 12  1  0  0  0  0
  2 25  1  0  0  0  0
  3 16  1  0  0  0  0
  3  2  1  0  0  0  0
  4  6  2  0  0  0  0
  4  8  1  0  0  0  0
  5  1  1  0  0  0  0
  6 11  1  0  0  0  0
  7  4  1  0  0  0  0
  8 10  1  1  0  0  0
  8  9  1  0  0  0  0
  9  5  2  0  0  0  0
  9  3  1  0  0  0  0
 11  5  1  0  0  0  0
 12 13  1  0  0  0  0
 12 14  2  0  0  0  0
 13 14  1  0  0  0  0
 15 17  2  0  0  0  0
 15 21  1  0  0  0  0
 16 15  1  0  0  0  0
 18 21  2  0  0  0  0
 18 23  1  0  0  0  0
 20 19  1  0  0  0  0
 21 22  1  0  0  0  0
 22 19  2  0  0  0  0
 23 20  2  0  0  0  0
 25 24  1  0  0  0  0
M  END
>  <MODEL>
3

>  <REMARK>
 VINA RESULT:      -6.8      2.056      3.984
  Name = 
  4 active torsions:
  status: ('A' for Active; 'I' for Inactive)
    1  A    between atoms: C_2  and  C_3
    2  A    between atoms: C_4  and  O_25
    3  A    between atoms: N_6  and  N_15
    4  A    between atoms: C_9  and  C_12
                            x       y       z     vdW  Elec       q    Type
                         _______ _______ _______ _____ _____    ______ ____

>  <TORSDO>
F 4

$$$$
=
 OpenBabel11062420173D

 25 28  0  0  1  0  0  0  0  0999 V2000
  186.8580  177.4800  145.3890 C   0  0  0  0  0  0  0  0  0  0  0  0
  186.6500  176.7770  144.2140 C   0  0  0  0  0  0  0  0  0  0  0  0
  187.7640  176.0780  143.8890 N   0  0  0  0  0  0  0  0  0  0  0  0
  190.8250  176.3340  146.1020 C   0  0  0  0  0  0  0  0  0  0  0  0
  188.1430  177.1830  145.7940 C   0  0  0  0  0  0  0  0  0  0  0  0
  190.3090  177.2160  146.9840 C   0  0  0  0  0  3  0  0  0  0  0  0
  192.2970  176.0980  146.1010 C   0  0  0  0  0  1  0  0  0  0  0  0
  189.9610  175.5840  145.1030 C   0  0  2  0  0  3  0  0  0  0  0  0
  188.6670  176.3090  144.8700 C   0  0  0  0  0  0  0  0  0  0  0  0
  189.6810  174.1810  145.6150 C   0  0  0  0  0  1  0  0  0  0  0  0
  188.8290  177.5200  147.0810 C   0  0  0  0  0  2  0  0  0  0  0  0
  185.8850  178.3130  146.0940 C   0  0  0  0  0  0  0  0  0  0  0  0
  185.6100  179.4020  146.8570 O   0  0  0  0  0  0  0  0  0  0  0  0
  184.6290  178.5580  146.4560 N   0  0  0  0  0  0  0  0  0  0  0  0
  188.1950  175.4920  141.4930 C   0  0  0  0  0  0  0  0  0  0  0  0
  187.8730  175.1420  142.8450 N   0  0  0  0  0  2  0  0  0  0  0  0
  188.1230  176.6940  141.1160 O   0  0  0  0  0  0  0  0  0  0  0  0
  189.2930  173.3190  140.9290 C   0  0  0  0  0  3  0  0  0  0  0  0
  188.5350  173.5550  138.3110 N   0  0  0  0  0  0  0  0  0  0  0  0
  189.2460  172.4720  138.7240 C   0  0  0  0  0  3  0  0  0  0  0  0
  188.5630  174.4420  140.5300 C   0  0  0  0  0  0  0  0  0  0  0  0
  188.1890  174.5350  139.1860 C   0  0  0  0  0  3  0  0  0  0  0  0
  189.6200  172.3600  140.0250 N   0  0  0  0  0  0  0  0  0  0  0  0
  185.1180  177.7890  142.5440 C   0  0  0  0  0  1  0  0  0  0  0  0
  185.4480  176.7910  143.4970 O   0  0  0  0  0  0  0  0  0  0  0  0
  1  5  1  0  0  0  0
  1 12  1  0  0  0  0
  2  1  2  0  0  0  0
  3  2  1  0  0  0  0
  3  9  1  0  0  0  0
  4  6  2  0  0  0  0
  5 11  1  0  0  0  0
  6 11  1  0  0  0  0
  7  4  1  0  0  0  0
  8 10  1  1  0  0  0
  8  4  1  0  0  0  0
  9  8  1  0  0  0  0
  9  5  2  0  0  0  0
 12 14  2  0  0  0  0
 12 13  1  0  0  0  0
 14 13  1  0  0  0  0
 15 16  1  0  0  0  0
 16  3  1  0  0  0  0
 17 15  2  0  0  0  0
 19 20  2  0  0  0  0
 19 22  1  0  0  0  0
 20 23  1  0  0  0  0
 21 18  1  0  0  0  0
 21 15  1  0  0  0  0
 22 21  2  0  0  0  0
 23 18  2  0  0  0  0
 24 25  1  0  0  0  0
 25  2  1  0  0  0  0
M  END
>  <MODEL>
4

>  <REMARK>
 VINA RESULT:      -6.6      2.866      5.334
  Name = 
  4 active torsions:
  status: ('A' for Active; 'I' for Inactive)
    1  A    between atoms: C_2  and  C_3
    2  A    between atoms: C_4  and  O_25
    3  A    between atoms: N_6  and  N_15
    4  A    between atoms: C_9  and  C_12
                            x       y       z     vdW  Elec       q    Type
                         _______ _______ _______ _____ _____    ______ ____

>  <TORSDO>
F 4

$$$$
=
 OpenBabel11062420173D

 25 28  0  0  1  0  0  0  0  0999 V2000
  187.1130  177.4130  145.7550 C   0  0  0  0  0  0  0  0  0  0  0  0
  188.2530  176.6280  145.7370 C   0  0  0  0  0  0  0  0  0  0  0  0
  188.6250  176.3790  144.4580 N   0  0  0  0  0  0  0  0  0  0  0  0
  186.5320  177.7540  141.6190 C   0  0  0  0  0  0  0  0  0  0  0  0
  186.7910  177.6560  144.4350 C   0  0  0  0  0  0  0  0  0  0  0  0
  185.5880  178.3380  142.3870 C   0  0  0  0  0  3  0  0  0  0  0  0
  186.2600  177.5690  140.1650 C   0  0  0  0  0  1  0  0  0  0  0  0
  187.8540  177.2660  142.1860 C   0  0  2  0  0  3  0  0  0  0  0  0
  187.7420  177.0280  143.6650 C   0  0  0  0  0  0  0  0  0  0  0  0
  188.9410  178.2910  141.9100 C   0  0  0  0  0  1  0  0  0  0  0  0
  185.7650  178.5870  143.8700 C   0  0  0  0  0  2  0  0  0  0  0  0
  186.4290  177.9360  146.9360 C   0  0  0  0  0  0  0  0  0  0  0  0
  185.8390  177.7210  148.1400 O   0  0  0  0  0  0  0  0  0  0  0  0
  185.9330  178.9670  147.6160 N   0  0  0  0  0  0  0  0  0  0  0  0
  191.1160  176.3110  144.2090 C   0  0  0  0  0  0  0  0  0  0  0  0
  189.8110  175.7390  144.0550 N   0  0  0  0  0  2  0  0  0  0  0  0
  191.2420  177.5410  144.4630 O   0  0  0  0  0  0  0  0  0  0  0  0
  192.2150  174.0810  143.9570 C   0  0  0  0  0  3  0  0  0  0  0  0
  194.6730  175.2590  143.7320 N   0  0  0  0  0  0  0  0  0  0  0  0
  194.5530  173.9070  143.6710 C   0  0  0  0  0  3  0  0  0  0  0  0
  192.3110  175.4730  144.0240 C   0  0  0  0  0  0  0  0  0  0  0  0
  193.5810  176.0470  143.9050 C   0  0  0  0  0  3  0  0  0  0  0  0
  193.3300  173.3260  143.7830 N   0  0  0  0  0  0  0  0  0  0  0  0
  188.9820  174.8240  147.2770 C   0  0  0  0  0  1  0  0  0  0  0  0
  188.9160  176.1860  146.8880 O   0  0  0  0  0  0  0  0  0  0  0  0
  1 12  1  0  0  0  0
  2  1  2  0  0  0  0
  2 25  1  0  0  0  0
  3  2  1  0  0  0  0
  4  8  1  0  0  0  0
  4  6  2  0  0  0  0
  5  1  1  0  0  0  0
  6 11  1  0  0  0  0
  7  4  1  0  0  0  0
  8 10  1  1  0  0  0
  8  9  1  0  0  0  0
  9  5  2  0  0  0  0
  9  3  1  0  0  0  0
 11  5  1  0  0  0  0
 12 14  2  0  0  0  0
 12 13  1  0  0  0  0
 14 13  1  0  0  0  0
 15 17  2  0  0  0  0
 16 15  1  0  0  0  0
 16  3  1  0  0  0  0
 18 21  1  0  0  0  0
 19 22  1  0  0  0  0
 20 19  2  0  0  0  0
 20 23  1  0  0  0  0
 21 15  1  0  0  0  0
 22 21  2  0  0  0  0
 23 18  2  0  0  0  0
 25 24  1  0  0  0  0
M  END
>  <MODEL>
5

>  <REMARK>
 VINA RESULT:      -6.6      2.443      4.201
  Name = 
  4 active torsions:
  status: ('A' for Active; 'I' for Inactive)
    1  A    between atoms: C_2  and  C_3
    2  A    between atoms: C_4  and  O_25
    3  A    between atoms: N_6  and  N_15
    4  A    between atoms: C_9  and  C_12
                            x       y       z     vdW  Elec       q    Type
                         _______ _______ _______ _____ _____    ______ ____

>  <TORSDO>
F 4

$$$$
=
 OpenBabel11062420173D

 25 28  0  0  1  0  0  0  0  0999 V2000
  186.2740  177.8000  145.6410 C   0  0  0  0  0  0  0  0  0  0  0  0
  187.0680  176.7910  145.1250 C   0  0  0  0  0  0  0  0  0  0  0  0
  186.6640  176.4780  143.8700 N   0  0  0  0  0  0  0  0  0  0  0  0
  183.6960  178.2900  142.3740 C   0  0  0  0  0  0  0  0  0  0  0  0
  185.3620  178.1170  144.6540 C   0  0  0  0  0  0  0  0  0  0  0  0
  183.4190  179.0550  143.4510 C   0  0  0  0  0  3  0  0  0  0  0  0
  182.6760  178.1790  141.2920 C   0  0  0  0  0  1  0  0  0  0  0  0
  185.0020  177.5280  142.2330 C   0  0  2  0  0  3  0  0  0  0  0  0
  185.6360  177.3070  143.5770 C   0  0  0  0  0  0  0  0  0  0  0  0
  185.9530  178.2990  141.3340 C   0  0  0  0  0  1  0  0  0  0  0  0
  184.3860  179.2490  144.5990 C   0  0  0  0  0  2  0  0  0  0  0  0
  186.4180  178.4480  146.9440 C   0  0  0  0  0  0  0  0  0  0  0  0
  187.0800  178.5740  148.1230 O   0  0  0  0  0  0  0  0  0  0  0  0
  186.0000  179.3410  147.8370 N   0  0  0  0  0  0  0  0  0  0  0  0
  188.5540  175.9190  142.3250 C   0  0  0  0  0  0  0  0  0  0  0  0
  187.3230  175.6040  142.9870 N   0  0  0  0  0  2  0  0  0  0  0  0
  188.9650  177.1120  142.2880 O   0  0  0  0  0  0  0  0  0  0  0  0
  188.8020  174.2110  140.5180 C   0  0  0  0  0  3  0  0  0  0  0  0
  191.2660  173.4910  141.4650 N   0  0  0  0  0  0  0  0  0  0  0  0
  190.7460  172.8750  140.3700 C   0  0  0  0  0  3  0  0  0  0  0  0
  189.3150  174.8590  141.6450 C   0  0  0  0  0  0  0  0  0  0  0  0
  190.5770  174.4700  142.1050 C   0  0  0  0  0  3  0  0  0  0  0  0
  189.5220  173.2360  139.9040 N   0  0  0  0  0  0  0  0  0  0  0  0
  189.4540  176.7400  145.8090 C   0  0  0  0  0  1  0  0  0  0  0  0
  188.1390  176.2080  145.8140 O   0  0  0  0  0  0  0  0  0  0  0  0
  1 12  1  0  0  0  0
  2  1  2  0  0  0  0
  2 25  1  0  0  0  0
  3  2  1  0  0  0  0
  4  6  2  0  0  0  0
  5  1  1  0  0  0  0
  6 11  1  0  0  0  0
  7  4  1  0  0  0  0
  8 10  1  6  0  0  0
  8  4  1  0  0  0  0
  8  9  1  0  0  0  0
  9  3  1  0  0  0  0
  9  5  2  0  0  0  0
 11  5  1  0  0  0  0
 12 14  2  0  0  0  0
 12 13  1  0  0  0  0
 14 13  1  0  0  0  0
 15 16  1  0  0  0  0
 16  3  1  0  0  0  0
 17 15  2  0  0  0  0
 18 21  1  0  0  0  0
 19 22  1  0  0  0  0
 20 19  2  0  0  0  0
 21 22  2  0  0  0  0
 21 15  1  0  0  0  0
 23 20  1  0  0  0  0
 23 18  2  0  0  0  0
 24 25  1  0  0  0  0
M  END
>  <MODEL>
6

>  <REMARK>
 VINA RESULT:      -6.5      2.811      4.977
  Name = 
  4 active torsions:
  status: ('A' for Active; 'I' for Inactive)
    1  A    between atoms: C_2  and  C_3
    2  A    between atoms: C_4  and  O_25
    3  A    between atoms: N_6  and  N_15
    4  A    between atoms: C_9  and  C_12
                            x       y       z     vdW  Elec       q    Type
                         _______ _______ _______ _____ _____    ______ ____

>  <TORSDO>
F 4

$$$$
=
 OpenBabel11062420173D

 25 28  0  0  1  0  0  0  0  0999 V2000
  186.8230  176.8550  144.5680 C   0  0  0  0  0  0  0  0  0  0  0  0
  187.1370  176.5500  143.2550 C   0  0  0  0  0  0  0  0  0  0  0  0
  188.3600  175.9700  143.1940 N   0  0  0  0  0  0  0  0  0  0  0  0
  190.3460  175.4940  146.3810 C   0  0  0  0  0  0  0  0  0  0  0  0
  187.8920  176.4310  145.3300 C   0  0  0  0  0  0  0  0  0  0  0  0
  189.4520  176.0690  147.2120 C   0  0  0  0  0  3  0  0  0  0  0  0
  191.7320  175.2510  146.8760 C   0  0  0  0  0  1  0  0  0  0  0  0
  189.9960  175.0980  144.9580 C   0  0  2  0  0  3  0  0  0  0  0  0
  188.8090  175.8770  144.4670 C   0  0  0  0  0  0  0  0  0  0  0  0
  189.6970  173.6100  144.8960 C   0  0  0  0  0  1  0  0  0  0  0  0
  188.0170  176.3480  146.8190 C   0  0  0  0  0  2  0  0  0  0  0  0
  185.5770  177.4440  145.0550 C   0  0  0  0  0  0  0  0  0  0  0  0
  184.6420  177.5680  146.0330 O   0  0  0  0  0  0  0  0  0  0  0  0
  184.5330  178.2480  144.8670 N   0  0  0  0  0  0  0  0  0  0  0  0
  188.4450  174.2210  141.4040 C   0  0  0  0  0  0  0  0  0  0  0  0
  188.9440  175.3980  142.0490 N   0  0  0  0  0  2  0  0  0  0  0  0
  187.6170  173.4760  141.9980 O   0  0  0  0  0  0  0  0  0  0  0  0
  190.1560  173.1900  139.9020 C   0  0  0  0  0  3  0  0  0  0  0  0
  188.6600  173.8000  137.6940 N   0  0  0  0  0  0  0  0  0  0  0  0
  189.8500  173.1570  137.5590 C   0  0  0  0  0  3  0  0  0  0  0  0
  188.9360  173.8520  140.0670 C   0  0  0  0  0  0  0  0  0  0  0  0
  188.1930  174.1500  138.9200 C   0  0  0  0  0  3  0  0  0  0  0  0
  190.5900  172.8560  138.6590 N   0  0  0  0  0  0  0  0  0  0  0  0
  186.4100  177.9350  141.3280 C   0  0  0  0  0  1  0  0  0  0  0  0
  186.2900  176.7990  142.1700 O   0  0  0  0  0  0  0  0  0  0  0  0
  1 12  1  0  0  0  0
  1  5  1  0  0  0  0
  2  1  2  0  0  0  0
  3  2  1  0  0  0  0
  3  9  1  0  0  0  0
  4  7  1  0  0  0  0
  4  6  2  0  0  0  0
  5 11  1  0  0  0  0
  8 10  1  1  0  0  0
  8  4  1  0  0  0  0
  9  8  1  0  0  0  0
  9  5  2  0  0  0  0
 11  6  1  0  0  0  0
 12 13  1  0  0  0  0
 14 12  2  0  0  0  0
 14 13  1  0  0  0  0
 15 17  2  0  0  0  0
 15 16  1  0  0  0  0
 16  3  1  0  0  0  0
 18 21  1  0  0  0  0
 19 22  1  0  0  0  0
 20 19  2  0  0  0  0
 20 23  1  0  0  0  0
 21 15  1  0  0  0  0
 22 21  2  0  0  0  0
 23 18  2  0  0  0  0
 24 25  1  0  0  0  0
 25  2  1  0  0  0  0
M  END
>  <MODEL>
7

>  <REMARK>
 VINA RESULT:      -6.5      3.085      5.373
  Name = 
  4 active torsions:
  status: ('A' for Active; 'I' for Inactive)
    1  A    between atoms: C_2  and  C_3
    2  A    between atoms: C_4  and  O_25
    3  A    between atoms: N_6  and  N_15
    4  A    between atoms: C_9  and  C_12
                            x       y       z     vdW  Elec       q    Type
                         _______ _______ _______ _____ _____    ______ ____

>  <TORSDO>
F 4

$$$$
=
 OpenBabel11062420173D

 25 28  0  0  1  0  0  0  0  0999 V2000
  191.8040  172.6080  144.5450 C   0  0  0  0  0  0  0  0  0  0  0  0
  190.4990  173.0690  144.5530 C   0  0  0  0  0  0  0  0  0  0  0  0
  190.4600  174.3440  145.0100 N   0  0  0  0  0  0  0  0  0  0  0  0
  193.6780  176.0280  146.0790 C   0  0  0  0  0  0  0  0  0  0  0  0
  192.5850  173.6500  145.0030 C   0  0  0  0  0  0  0  0  0  0  0  0
  194.4900  174.9750  145.8510 C   0  0  0  0  0  3  0  0  0  0  0  0
  194.1930  177.1690  146.8880 C   0  0  0  0  0  1  0  0  0  0  0  0
  192.2550  176.0850  145.5520 C   0  0  2  0  0  3  0  0  0  0  0  0
  191.7400  174.7050  145.2610 C   0  0  0  0  0  0  0  0  0  0  0  0
  192.2070  176.9290  144.2900 C   0  0  0  0  0  1  0  0  0  0  0  0
  194.0760  173.7710  145.0320 C   0  0  0  0  0  2  0  0  0  0  0  0
  192.2680  171.3030  144.0780 C   0  0  0  0  0  0  0  0  0  0  0  0
  192.0700  170.1880  143.3290 O   0  0  0  0  0  0  0  0  0  0  0  0
  193.1910  170.3440  144.0740 N   0  0  0  0  0  0  0  0  0  0  0  0
  188.6250  175.5510  146.2120 C   0  0  0  0  0  0  0  0  0  0  0  0
  189.3300  175.1810  145.0210 N   0  0  0  0  0  2  0  0  0  0  0  0
  188.8200  174.9170  147.2860 O   0  0  0  0  0  0  0  0  0  0  0  0
  187.5500  177.4980  145.0720 C   0  0  0  0  0  3  0  0  0  0  0  0
  185.8450  177.8580  147.1810 N   0  0  0  0  0  0  0  0  0  0  0  0
  185.7800  178.6790  146.0990 C   0  0  0  0  0  3  0  0  0  0  0  0
  187.6370  176.6410  146.1730 C   0  0  0  0  0  0  0  0  0  0  0  0
  186.7520  176.8490  147.2350 C   0  0  0  0  0  3  0  0  0  0  0  0
  186.6290  178.4960  145.0540 N   0  0  0  0  0  0  0  0  0  0  0  0
  188.9370  172.2900  142.7890 C   0  0  0  0  0  1  0  0  0  0  0  0
  189.4000  172.3130  144.1290 O   0  0  0  0  0  0  0  0  0  0  0  0
  1  2  2  0  0  0  0
  1  5  1  0  0  0  0
  2  3  1  0  0  0  0
  3 16  1  0  0  0  0
  3  9  1  0  0  0  0
  4  7  1  0  0  0  0
  5 11  1  0  0  0  0
  5  9  2  0  0  0  0
  6  4  2  0  0  0  0
  8 10  1  6  0  0  0
  8  4  1  0  0  0  0
  9  8  1  0  0  0  0
 11  6  1  0  0  0  0
 12  1  1  0  0  0  0
 13 14  1  0  0  0  0
 13 12  1  0  0  0  0
 14 12  2  0  0  0  0
 15 17  2  0  0  0  0
 16 15  1  0  0  0  0
 18 21  1  0  0  0  0
 19 22  1  0  0  0  0
 20 19  2  0  0  0  0
 21 15  1  0  0  0  0
 21 22  2  0  0  0  0
 23 18  2  0  0  0  0
 23 20  1  0  0  0  0
 24 25  1  0  0  0  0
 25  2  1  0  0  0  0
M  END
>  <MODEL>
8

>  <REMARK>
 VINA RESULT:      -6.3      3.322      7.266
  Name = 
  4 active torsions:
  status: ('A' for Active; 'I' for Inactive)
    1  A    between atoms: C_2  and  C_3
    2  A    between atoms: C_4  and  O_25
    3  A    between atoms: N_6  and  N_15
    4  A    between atoms: C_9  and  C_12
                            x       y       z     vdW  Elec       q    Type
                         _______ _______ _______ _____ _____    ______ ____

>  <TORSDO>
F 4

$$$$
=
 OpenBabel11062420173D

 25 28  0  0  1  0  0  0  0  0999 V2000
  187.1030  177.4780  144.6860 C   0  0  0  0  0  0  0  0  0  0  0  0
  187.1650  176.5470  143.6630 C   0  0  0  0  0  0  0  0  0  0  0  0
  188.2400  175.7410  143.8340 N   0  0  0  0  0  0  0  0  0  0  0  0
  190.5450  176.3250  146.7800 C   0  0  0  0  0  0  0  0  0  0  0  0
  188.1760  177.2150  145.5130 C   0  0  0  0  0  0  0  0  0  0  0  0
  189.8990  177.4020  147.2750 C   0  0  0  0  0  3  0  0  0  0  0  0
  191.9190  176.0250  147.2730 C   0  0  0  0  0  1  0  0  0  0  0  0
  189.9270  175.4180  145.7310 C   0  0  2  0  0  3  0  0  0  0  0  0
  188.8430  176.1370  144.9790 C   0  0  0  0  0  0  0  0  0  0  0  0
  189.3570  174.1760  146.3950 C   0  0  0  0  0  1  0  0  0  0  0  0
  188.4970  177.7910  146.8560 C   0  0  0  0  0  2  0  0  0  0  0  0
  186.0680  178.4900  144.8870 C   0  0  0  0  0  0  0  0  0  0  0  0
  185.5900  179.7400  144.6530 O   0  0  0  0  0  0  0  0  0  0  0  0
  184.9100  178.8610  145.4280 N   0  0  0  0  0  0  0  0  0  0  0  0
  189.7300  174.4510  142.2900 C   0  0  0  0  0  0  0  0  0  0  0  0
  188.5400  174.5960  143.0750 N   0  0  0  0  0  2  0  0  0  0  0  0
  190.4380  175.4600  142.0200 O   0  0  0  0  0  0  0  0  0  0  0  0
  190.5000  172.9760  140.4250 C   0  0  0  0  0  3  0  0  0  0  0  0
  190.4160  170.7810  142.0560 N   0  0  0  0  0  0  0  0  0  0  0  0
  190.8000  170.6560  140.7590 C   0  0  0  0  0  3  0  0  0  0  0  0
  190.1010  173.1310  141.7550 C   0  0  0  0  0  0  0  0  0  0  0  0
  190.0690  171.9910  142.5650 C   0  0  0  0  0  3  0  0  0  0  0  0
  190.8410  171.7490  139.9520 N   0  0  0  0  0  0  0  0  0  0  0  0
  186.3280  177.2040  141.4210 C   0  0  0  0  0  1  0  0  0  0  0  0
  186.2290  176.4620  142.6260 O   0  0  0  0  0  0  0  0  0  0  0  0
  1 12  1  0  0  0  0
  1  5  1  0  0  0  0
  2  3  1  0  0  0  0
  2  1  2  0  0  0  0
  3  9  1  0  0  0  0
  4  7  1  0  0  0  0
  4  6  2  0  0  0  0
  5 11  1  0  0  0  0
  8 10  1  1  0  0  0
  8  4  1  0  0  0  0
  9  5  2  0  0  0  0
  9  8  1  0  0  0  0
 11  6  1  0  0  0  0
 12 14  2  0  0  0  0
 13 12  1  0  0  0  0
 13 14  1  0  0  0  0
 15 16  1  0  0  0  0
 16  3  1  0  0  0  0
 17 15  2  0  0  0  0
 18 21  1  0  0  0  0
 19 22  1  0  0  0  0
 20 19  2  0  0  0  0
 21 15  1  0  0  0  0
 21 22  2  0  0  0  0
 23 18  2  0  0  0  0
 23 20  1  0  0  0  0
 24 25  1  0  0  0  0
 25  2  1  0  0  0  0
M  END
>  <MODEL>
9

>  <REMARK>
 VINA RESULT:      -6.2      3.175      4.495
  Name = 
  4 active torsions:
  status: ('A' for Active; 'I' for Inactive)
    1  A    between atoms: C_2  and  C_3
    2  A    between atoms: C_4  and  O_25
    3  A    between atoms: N_6  and  N_15
    4  A    between atoms: C_9  and  C_12
                            x       y       z     vdW  Elec       q    Type
                         _______ _______ _______ _____ _____    ______ ____

>  <TORSDO>
F 4

$$$$
