=
 OpenBabel11062420363D

 32 35  0  0  1  0  0  0  0  0999 V2000
  188.4030  177.6180  145.7140 N   0  0  0  0  0  2  0  0  0  0  0  0
  193.7240  176.1890  142.1970 C   0  0  0  0  0  2  0  0  0  0  0  0
  190.5860  176.7000  145.0860 C   0  0  0  0  0  0  0  0  0  0  0  0
  191.1840  176.8350  148.1520 C   0  0  2  0  0  3  0  0  0  0  0  0
  191.4270  175.4320  145.1160 C   0  0  1  0  0  3  0  0  0  0  0  0
  191.6760  177.5830  149.2200 O   0  0  0  0  0  1  0  0  0  0  0  0
  190.7930  177.6510  144.1570 C   0  0  0  0  0  3  0  0  0  0  0  0
  191.8340  177.5190  143.1240 C   0  0  0  0  0  3  0  0  0  0  0  0
  193.4670  174.4120  143.9060 C   0  0  0  0  0  2  0  0  0  0  0  0
  194.3100  174.8670  142.7040 C   0  0  2  0  0  3  0  0  0  0  0  0
  192.5570  175.5040  144.1870 N   0  0  0  0  0  0  0  0  0  0  0  0
  195.7430  175.0850  143.1460 C   0  0  0  0  0  1  0  0  0  0  0  0
  192.6590  176.4800  143.1740 C   0  0  0  0  0  0  0  0  0  0  0  0
  189.5960  176.9210  146.1930 C   0  0  1  0  0  3  0  0  0  0  0  0
  191.9080  175.0630  146.5290 C   0  0  0  0  0  2  0  0  0  0  0  0
  192.3570  176.2700  147.3510 C   0  0  0  0  0  2  0  0  0  0  0  0
  190.2630  177.7170  147.3070 C   0  0  0  0  0  2  0  0  0  0  0  0
  187.3530  176.6740  145.3110 C   0  0  2  0  0  3  0  0  0  0  0  0
  186.8780  176.8910  143.8650 C   0  0  2  0  0  3  0  0  0  0  0  0
  187.8550  176.3260  142.8370 C   0  0  2  0  0  3  0  0  0  0  0  0
  187.3190  175.0890  142.2230 C   0  0  0  0  0  2  0  0  0  0  0  0
  188.2720  175.0470  143.2530 O   0  0  0  0  0  0  0  0  0  0  0  0
  185.8060  178.8340  142.7030 C   0  0  0  0  0  3  0  0  0  0  0  0
  186.6640  178.3580  143.6160 C   0  0  0  0  0  3  0  0  0  0  0  0
  185.2680  178.2140  140.4820 O   0  0  0  0  0  1  0  0  0  0  0  0
  183.5080  178.2380  142.0730 C   0  0  0  0  0  1  0  0  0  0  0  0
  184.9740  177.9570  141.8210 C   0  0  2  0  0  3  0  0  0  0  0  0
  186.2480  176.6250  146.2660 N   0  0  0  0  0  2  0  0  0  0  0  0
  186.5030  177.6410  147.2730 C   0  0  0  0  0  2  0  0  0  0  0  0
  185.4740  178.7530  147.1570 C   0  0  0  0  0  2  0  0  0  0  0  0
  184.1550  178.2200  146.6260 C   0  0  0  0  0  2  0  0  0  0  0  0
  183.7530  178.9650  145.5170 O   0  0  0  0  0  1  0  0  0  0  0  0
  2 10  1  0  0  0  0
  2 13  1  0  0  0  0
  3  5  1  0  0  0  0
  3 14  1  0  0  0  0
  4  6  1  1  0  0  0
  5 15  1  1  0  0  0
  7  3  2  0  0  0  0
  8 13  2  0  0  0  0
  8  7  1  0  0  0  0
  9 11  1  0  0  0  0
 10 12  1  1  0  0  0
 10  9  1  0  0  0  0
 11  5  1  0  0  0  0
 13 11  1  0  0  0  0
 14  1  1  6  0  0  0
 14 17  1  0  0  0  0
 15 16  1  0  0  0  0
 16  4  1  0  0  0  0
 17  4  1  0  0  0  0
 18  1  1  1  0  0  0
 18 28  1  0  0  0  0
 19 24  1  6  0  0  0
 19 18  1  0  0  0  0
 20 22  1  0  0  0  0
 20 19  1  1  0  0  0
 21 20  1  0  0  0  0
 21 22  1  0  0  0  0
 23 24  2  0  0  0  0
 25 27  1  0  0  0  0
 27 26  1  6  0  0  0
 27 23  1  0  0  0  0
 28 29  1  0  0  0  0
 30 29  1  0  0  0  0
 31 30  1  0  0  0  0
 32 31  1  0  0  0  0
M  END
>  <MODEL>
1

>  <REMARK>
 VINA RESULT:      -6.9      0.000      0.000
  Name = 
  10 active torsions:
  status: ('A' for Active; 'I' for Inactive)
    1  A    between atoms: C_3  and  C_13
    2  A    between atoms: C_4  and  C_13
    3  A    between atoms: C_4  and  N_21
    4  A    between atoms: C_4  and  N_30
    5  A    between atoms: C_6  and  C_8
    6  A    between atoms: C_6  and  C_18
    7  A    between atoms: C_13  and  C_28
    8  A    between atoms: C_18  and  N_30
    9  A    between atoms: C_19  and  C_32
   10  A    between atoms: N_21  and  C_26
                            x       y       z     vdW  Elec       q    Type
                         _______ _______ _______ _____ _____    ______ ____

>  <TORSDO>
F 10

$$$$
=
 OpenBabel11062420363D

 32 35  0  0  1  0  0  0  0  0999 V2000
  189.4800  177.6450  142.9980 N   0  0  0  0  0  2  0  0  0  0  0  0
  194.8500  175.6740  146.1620 C   0  0  0  0  0  2  0  0  0  0  0  0
  191.4660  176.3420  143.6010 C   0  0  0  0  0  0  0  0  0  0  0  0
  189.9540  173.9740  142.2270 C   0  0  2  0  0  3  0  0  0  0  0  0
  192.7180  175.6970  143.0260 C   0  0  1  0  0  3  0  0  0  0  0  0
  189.0690  172.9080  142.3690 O   0  0  0  0  0  1  0  0  0  0  0  0
  191.4090  176.7270  144.8890 C   0  0  0  0  0  3  0  0  0  0  0  0
  192.5470  176.5500  145.8070 C   0  0  0  0  0  3  0  0  0  0  0  0
  195.0300  174.8680  143.8240 C   0  0  0  0  0  2  0  0  0  0  0  0
  195.7610  174.9350  145.1740 C   0  0  2  0  0  3  0  0  0  0  0  0
  193.6970  175.3800  144.0700 N   0  0  0  0  0  0  0  0  0  0  0  0
  196.0210  173.5300  145.6780 C   0  0  0  0  0  1  0  0  0  0  0  0
  193.6210  175.9000  145.3790 C   0  0  0  0  0  0  0  0  0  0  0  0
  190.2480  176.4310  142.7270 C   0  0  1  0  0  3  0  0  0  0  0  0
  192.4170  174.4560  142.1700 C   0  0  0  0  0  2  0  0  0  0  0  0
  191.3260  173.5630  142.7600 C   0  0  0  0  0  2  0  0  0  0  0  0
  189.3840  175.1960  142.9490 C   0  0  0  0  0  2  0  0  0  0  0  0
  188.1570  177.3320  143.5560 C   0  0  2  0  0  3  0  0  0  0  0  0
  187.0040  177.8900  142.7070 C   0  0  2  0  0  3  0  0  0  0  0  0
  187.3340  177.9170  141.2160 C   0  0  2  0  0  3  0  0  0  0  0  0
  186.1480  177.5520  140.4070 C   0  0  0  0  0  2  0  0  0  0  0  0
  187.1650  176.6240  140.6850 O   0  0  0  0  0  0  0  0  0  0  0  0
  185.5210  179.5610  143.8390 C   0  0  0  0  0  3  0  0  0  0  0  0
  186.6500  179.2740  143.1780 C   0  0  0  0  0  3  0  0  0  0  0  0
  183.3850  178.6830  143.3170 O   0  0  0  0  0  1  0  0  0  0  0  0
  184.0250  178.7330  145.6020 C   0  0  0  0  0  1  0  0  0  0  0  0
  184.4790  178.5400  144.1710 C   0  0  2  0  0  3  0  0  0  0  0  0
  188.0460  177.6940  144.9670 N   0  0  0  0  0  2  0  0  0  0  0  0
  187.4110  176.5790  145.6490 C   0  0  0  0  0  2  0  0  0  0  0  0
  188.1340  176.2920  146.9550 C   0  0  0  0  0  2  0  0  0  0  0  0
  188.8690  174.9650  146.8890 C   0  0  0  0  0  2  0  0  0  0  0  0
  190.0160  175.0180  147.6820 O   0  0  0  0  0  1  0  0  0  0  0  0
  3  7  2  0  0  0  0
  4  6  1  1  0  0  0
  4 16  1  0  0  0  0
  4 17  1  0  0  0  0
  5 15  1  1  0  0  0
  5  3  1  0  0  0  0
  5 11  1  0  0  0  0
  7  8  1  0  0  0  0
  9 11  1  0  0  0  0
  9 10  1  0  0  0  0
 10 12  1  1  0  0  0
 10  2  1  0  0  0  0
 11 13  1  0  0  0  0
 13  8  2  0  0  0  0
 13  2  1  0  0  0  0
 14 17  1  0  0  0  0
 14  1  1  1  0  0  0
 14  3  1  0  0  0  0
 15 16  1  0  0  0  0
 18  1  1  6  0  0  0
 18 28  1  0  0  0  0
 19 24  1  1  0  0  0
 19 18  1  0  0  0  0
 20 19  1  1  0  0  0
 21 22  1  0  0  0  0
 21 20  1  0  0  0  0
 22 20  1  0  0  0  0
 23 27  1  0  0  0  0
 24 23  2  0  0  0  0
 25 27  1  0  0  0  0
 27 26  1  1  0  0  0
 28 29  1  0  0  0  0
 29 30  1  0  0  0  0
 31 30  1  0  0  0  0
 31 32  1  0  0  0  0
M  END
>  <MODEL>
2

>  <REMARK>
 VINA RESULT:      -6.6      1.982      3.808
  Name = 
  10 active torsions:
  status: ('A' for Active; 'I' for Inactive)
    1  A    between atoms: C_3  and  C_13
    2  A    between atoms: C_4  and  C_13
    3  A    between atoms: C_4  and  N_21
    4  A    between atoms: C_4  and  N_30
    5  A    between atoms: C_6  and  C_8
    6  A    between atoms: C_6  and  C_18
    7  A    between atoms: C_13  and  C_28
    8  A    between atoms: C_18  and  N_30
    9  A    between atoms: C_19  and  C_32
   10  A    between atoms: N_21  and  C_26
                            x       y       z     vdW  Elec       q    Type
                         _______ _______ _______ _____ _____    ______ ____

>  <TORSDO>
F 10

$$$$
=
 OpenBabel11062420363D

 32 35  0  0  1  0  0  0  0  0999 V2000
  188.7960  177.5400  143.4180 N   0  0  0  0  0  2  0  0  0  0  0  0
  195.0310  175.8150  144.3580 C   0  0  0  0  0  2  0  0  0  0  0  0
  190.7650  176.2520  144.1050 C   0  0  0  0  0  0  0  0  0  0  0  0
  188.8630  175.0950  146.3000 C   0  0  2  0  0  3  0  0  0  0  0  0
  191.3720  174.8570  144.0890 C   0  0  1  0  0  3  0  0  0  0  0  0
  188.3480  175.2160  147.5890 O   0  0  0  0  0  1  0  0  0  0  0  0
  191.5410  177.3490  144.1730 C   0  0  0  0  0  3  0  0  0  0  0  0
  193.0100  177.2630  144.2330 C   0  0  0  0  0  3  0  0  0  0  0  0
  193.6870  173.7320  144.3030 C   0  0  0  0  0  2  0  0  0  0  0  0
  195.1170  174.2850  144.4130 C   0  0  2  0  0  3  0  0  0  0  0  0
  192.8110  174.8860  144.3650 N   0  0  0  0  0  0  0  0  0  0  0  0
  195.7230  173.8590  145.7350 C   0  0  0  0  0  1  0  0  0  0  0  0
  193.5790  176.0680  144.3260 C   0  0  0  0  0  0  0  0  0  0  0  0
  189.2690  176.3750  144.1630 C   0  0  1  0  0  3  0  0  0  0  0  0
  190.6570  173.8790  145.0350 C   0  0  0  0  0  2  0  0  0  0  0  0
  190.2700  174.5040  146.3740 C   0  0  0  0  0  2  0  0  0  0  0  0
  188.8330  176.4650  145.6190 C   0  0  0  0  0  2  0  0  0  0  0  0
  187.6740  177.1950  142.5340 C   0  0  2  0  0  3  0  0  0  0  0  0
  186.3650  177.8940  142.9320 C   0  0  2  0  0  3  0  0  0  0  0  0
  185.7140  178.6290  141.7620 C   0  0  2  0  0  3  0  0  0  0  0  0
  184.3200  178.1690  141.5600 C   0  0  0  0  0  2  0  0  0  0  0  0
  185.3760  177.6950  140.7640 O   0  0  0  0  0  0  0  0  0  0  0  0
  185.9030  178.8780  145.1890 C   0  0  0  0  0  3  0  0  0  0  0  0
  186.6240  178.8550  144.0600 C   0  0  0  0  0  3  0  0  0  0  0  0
  183.6640  178.6850  145.9360 O   0  0  0  0  0  1  0  0  0  0  0  0
  185.1580  176.9210  146.4730 C   0  0  0  0  0  1  0  0  0  0  0  0
  184.7510  177.9580  145.4490 C   0  0  2  0  0  3  0  0  0  0  0  0
  187.5170  175.7530  142.3690 N   0  0  0  0  0  2  0  0  0  0  0  0
  188.0120  175.4130  141.0450 C   0  0  0  0  0  2  0  0  0  0  0  0
  189.0880  174.3450  141.1540 C   0  0  0  0  0  2  0  0  0  0  0  0
  188.4780  172.9540  141.1180 C   0  0  0  0  0  2  0  0  0  0  0  0
  188.6670  172.3220  142.3460 O   0  0  0  0  0  1  0  0  0  0  0  0
  2 10  1  0  0  0  0
  3 14  1  0  0  0  0
  3  7  2  0  0  0  0
  4 16  1  0  0  0  0
  4  6  1  1  0  0  0
  5  3  1  0  0  0  0
  5 11  1  0  0  0  0
  5 15  1  1  0  0  0
  7  8  1  0  0  0  0
  8 13  2  0  0  0  0
  9 11  1  0  0  0  0
  9 10  1  0  0  0  0
 10 12  1  1  0  0  0
 13  2  1  0  0  0  0
 13 11  1  0  0  0  0
 14  1  1  6  0  0  0
 14 17  1  0  0  0  0
 15 16  1  0  0  0  0
 17  4  1  0  0  0  0
 18 28  1  1  0  0  0
 18 19  1  0  0  0  0
 18  1  1  0  0  0  0
 19 24  1  1  0  0  0
 20 19  1  1  0  0  0
 21 20  1  0  0  0  0
 22 21  1  0  0  0  0
 22 20  1  0  0  0  0
 23 27  1  0  0  0  0
 24 23  2  0  0  0  0
 27 25  1  0  0  0  0
 27 26  1  1  0  0  0
 29 30  1  0  0  0  0
 29 28  1  0  0  0  0
 31 30  1  0  0  0  0
 31 32  1  0  0  0  0
M  END
>  <MODEL>
3

>  <REMARK>
 VINA RESULT:      -6.5      1.896      4.010
  Name = 
  10 active torsions:
  status: ('A' for Active; 'I' for Inactive)
    1  A    between atoms: C_3  and  C_13
    2  A    between atoms: C_4  and  C_13
    3  A    between atoms: C_4  and  N_21
    4  A    between atoms: C_4  and  N_30
    5  A    between atoms: C_6  and  C_8
    6  A    between atoms: C_6  and  C_18
    7  A    between atoms: C_13  and  C_28
    8  A    between atoms: C_18  and  N_30
    9  A    between atoms: C_19  and  C_32
   10  A    between atoms: N_21  and  C_26
                            x       y       z     vdW  Elec       q    Type
                         _______ _______ _______ _____ _____    ______ ____

>  <TORSDO>
F 10

$$$$
=
 OpenBabel11062420363D

 32 35  0  0  1  0  0  0  0  0999 V2000
  190.3900  175.2390  143.1480 N   0  0  0  0  0  2  0  0  0  0  0  0
  184.5810  178.2380  143.1590 C   0  0  0  0  0  2  0  0  0  0  0  0
  188.4210  176.4730  143.9290 C   0  0  0  0  0  0  0  0  0  0  0  0
  189.1340  175.2430  146.7140 C   0  0  2  0  0  3  0  0  0  0  0  0
  187.9890  177.6910  144.7300 C   0  0  1  0  0  3  0  0  0  0  0  0
  188.9700  174.1850  147.6070 O   0  0  0  0  0  1  0  0  0  0  0  0
  187.6340  175.9540  142.9690 C   0  0  0  0  0  3  0  0  0  0  0  0
  186.3200  176.5320  142.6410 C   0  0  0  0  0  3  0  0  0  0  0  0
  185.9290  179.2260  144.9910 C   0  0  0  0  0  2  0  0  0  0  0  0
  184.5830  179.3120  144.2540 C   0  0  2  0  0  3  0  0  0  0  0  0
  186.5920  178.0480  144.4690 N   0  0  0  0  0  0  0  0  0  0  0  0
  183.4540  179.0420  145.2280 C   0  0  0  0  0  1  0  0  0  0  0  0
  185.8560  177.5310  143.3820 C   0  0  0  0  0  0  0  0  0  0  0  0
  189.7010  175.7870  144.3150 C   0  0  1  0  0  3  0  0  0  0  0  0
  188.2360  177.5380  146.2400 C   0  0  0  0  0  2  0  0  0  0  0  0
  187.9020  176.1450  146.7700 C   0  0  0  0  0  2  0  0  0  0  0  0
  189.3910  174.6800  145.3150 C   0  0  0  0  0  2  0  0  0  0  0  0
  191.3500  174.1950  143.5310 C   0  0  2  0  0  3  0  0  0  0  0  0
  192.7100  174.7650  143.9640 C   0  0  2  0  0  3  0  0  0  0  0  0
  193.7990  174.5400  142.9170 C   0  0  2  0  0  3  0  0  0  0  0  0
  194.6990  175.7140  142.8310 C   0  0  0  0  0  2  0  0  0  0  0  0
  193.6670  175.5070  141.9020 O   0  0  0  0  0  0  0  0  0  0  0  0
  193.2520  174.8530  146.4080 C   0  0  0  0  0  3  0  0  0  0  0  0
  193.1250  174.1520  145.2730 C   0  0  0  0  0  3  0  0  0  0  0  0
  194.2090  176.9930  146.7330 O   0  0  0  0  0  1  0  0  0  0  0  0
  192.0470  176.6090  147.6320 C   0  0  0  0  0  1  0  0  0  0  0  0
  193.0070  176.3270  146.4970 C   0  0  2  0  0  3  0  0  0  0  0  0
  191.4730  173.1500  142.5170 N   0  0  0  0  0  2  0  0  0  0  0  0
  190.6070  173.5200  141.4100 C   0  0  0  0  0  2  0  0  0  0  0  0
  189.3950  172.6030  141.3730 C   0  0  0  0  0  2  0  0  0  0  0  0
  188.5600  172.8560  140.1300 C   0  0  0  0  0  2  0  0  0  0  0  0
  188.3710  174.2270  139.9560 O   0  0  0  0  0  1  0  0  0  0  0  0
  1 18  1  0  0  0  0
  2 13  1  0  0  0  0
  2 10  1  0  0  0  0
  3 14  1  0  0  0  0
  3  5  1  0  0  0  0
  4 16  1  0  0  0  0
  4  6  1  1  0  0  0
  5 15  1  1  0  0  0
  7  3  2  0  0  0  0
  8  7  1  0  0  0  0
  8 13  2  0  0  0  0
 10  9  1  0  0  0  0
 10 12  1  1  0  0  0
 11  5  1  0  0  0  0
 11  9  1  0  0  0  0
 13 11  1  0  0  0  0
 14  1  1  6  0  0  0
 14 17  1  0  0  0  0
 15 16  1  0  0  0  0
 17  4  1  0  0  0  0
 18 28  1  6  0  0  0
 18 19  1  0  0  0  0
 19 24  1  1  0  0  0
 20 19  1  1  0  0  0
 21 20  1  0  0  0  0
 22 21  1  0  0  0  0
 22 20  1  0  0  0  0
 23 27  1  0  0  0  0
 24 23  2  0  0  0  0
 27 25  1  0  0  0  0
 27 26  1  1  0  0  0
 29 28  1  0  0  0  0
 30 29  1  0  0  0  0
 31 30  1  0  0  0  0
 32 31  1  0  0  0  0
M  END
>  <MODEL>
4

>  <REMARK>
 VINA RESULT:      -6.4      2.393      7.388
  Name = 
  10 active torsions:
  status: ('A' for Active; 'I' for Inactive)
    1  A    between atoms: C_3  and  C_13
    2  A    between atoms: C_4  and  C_13
    3  A    between atoms: C_4  and  N_21
    4  A    between atoms: C_4  and  N_30
    5  A    between atoms: C_6  and  C_8
    6  A    between atoms: C_6  and  C_18
    7  A    between atoms: C_13  and  C_28
    8  A    between atoms: C_18  and  N_30
    9  A    between atoms: C_19  and  C_32
   10  A    between atoms: N_21  and  C_26
                            x       y       z     vdW  Elec       q    Type
                         _______ _______ _______ _____ _____    ______ ____

>  <TORSDO>
F 10

$$$$
=
 OpenBabel11062420363D

 32 35  0  0  1  0  0  0  0  0999 V2000
  191.3820  174.9260  143.8650 N   0  0  0  0  0  2  0  0  0  0  0  0
  185.7690  177.4280  141.6360 C   0  0  0  0  0  2  0  0  0  0  0  0
  189.2380  176.1130  143.8010 C   0  0  0  0  0  0  0  0  0  0  0  0
  189.1040  175.4040  146.8440 C   0  0  2  0  0  3  0  0  0  0  0  0
  188.5520  177.4070  144.2110 C   0  0  1  0  0  3  0  0  0  0  0  0
  188.7040  174.4940  147.8200 O   0  0  0  0  0  1  0  0  0  0  0  0
  188.7930  175.3870  142.7590 C   0  0  0  0  0  3  0  0  0  0  0  0
  187.6260  175.8020  141.9620 C   0  0  0  0  0  3  0  0  0  0  0  0
  186.4710  178.7990  143.5800 C   0  0  0  0  0  2  0  0  0  0  0  0
  185.4110  178.6600  142.4750 C   0  0  2  0  0  3  0  0  0  0  0  0
  187.2910  177.6080  143.4910 N   0  0  0  0  0  0  0  0  0  0  0  0
  184.0470  178.4640  143.1060 C   0  0  0  0  0  1  0  0  0  0  0  0
  186.9340  176.8670  142.3460 C   0  0  0  0  0  0  0  0  0  0  0  0
  190.3570  175.5990  144.6610 C   0  0  1  0  0  3  0  0  0  0  0  0
  188.3330  177.5170  145.7290 C   0  0  0  0  0  2  0  0  0  0  0  0
  187.8900  176.2050  146.3740 C   0  0  0  0  0  2  0  0  0  0  0  0
  189.7870  174.6460  145.7040 C   0  0  0  0  0  2  0  0  0  0  0  0
  192.5900  174.6590  144.6560 C   0  0  2  0  0  3  0  0  0  0  0  0
  193.6790  175.7260  144.4630 C   0  0  2  0  0  3  0  0  0  0  0  0
  193.3930  177.0040  145.2490 C   0  0  2  0  0  3  0  0  0  0  0  0
  194.5530  177.3740  146.0940 C   0  0  0  0  0  2  0  0  0  0  0  0
  193.4330  176.7150  146.6260 O   0  0  0  0  0  0  0  0  0  0  0  0
  194.9970  176.0430  142.3560 C   0  0  0  0  0  3  0  0  0  0  0  0
  193.8220  176.0470  143.0000 C   0  0  0  0  0  3  0  0  0  0  0  0
  196.8840  176.9060  143.4960 O   0  0  0  0  0  1  0  0  0  0  0  0
  197.2310  175.0770  142.0250 C   0  0  0  0  0  1  0  0  0  0  0  0
  196.3000  175.7310  143.0230 C   0  0  2  0  0  3  0  0  0  0  0  0
  193.0920  173.3000  144.4680 N   0  0  0  0  0  2  0  0  0  0  0  0
  194.1310  173.0830  145.4610 C   0  0  0  0  0  2  0  0  0  0  0  0
  195.3530  172.4650  144.8040 C   0  0  0  0  0  2  0  0  0  0  0  0
  196.6300  172.9380  145.4770 C   0  0  0  0  0  2  0  0  0  0  0  0
  196.4050  174.1560  146.1180 O   0  0  0  0  0  1  0  0  0  0  0  0
  2 13  1  0  0  0  0
  2 10  1  0  0  0  0
  3  5  1  0  0  0  0
  3 14  1  0  0  0  0
  4  6  1  1  0  0  0
  5 15  1  1  0  0  0
  7  3  2  0  0  0  0
  8 13  2  0  0  0  0
  8  7  1  0  0  0  0
 10 12  1  1  0  0  0
 10  9  1  0  0  0  0
 11  9  1  0  0  0  0
 11  5  1  0  0  0  0
 13 11  1  0  0  0  0
 14  1  1  6  0  0  0
 14 17  1  0  0  0  0
 15 16  1  0  0  0  0
 16  4  1  0  0  0  0
 17  4  1  0  0  0  0
 18  1  1  6  0  0  0
 19 24  1  6  0  0  0
 19 18  1  0  0  0  0
 20 19  1  6  0  0  0
 20 21  1  0  0  0  0
 20 22  1  0  0  0  0
 21 22  1  0  0  0  0
 23 24  2  0  0  0  0
 23 27  1  0  0  0  0
 27 26  1  6  0  0  0
 27 25  1  0  0  0  0
 28 18  1  0  0  0  0
 28 29  1  0  0  0  0
 30 29  1  0  0  0  0
 30 31  1  0  0  0  0
 31 32  1  0  0  0  0
M  END
>  <MODEL>
5

>  <REMARK>
 VINA RESULT:      -6.4      2.866      8.119
  Name = 
  10 active torsions:
  status: ('A' for Active; 'I' for Inactive)
    1  A    between atoms: C_3  and  C_13
    2  A    between atoms: C_4  and  C_13
    3  A    between atoms: C_4  and  N_21
    4  A    between atoms: C_4  and  N_30
    5  A    between atoms: C_6  and  C_8
    6  A    between atoms: C_6  and  C_18
    7  A    between atoms: C_13  and  C_28
    8  A    between atoms: C_18  and  N_30
    9  A    between atoms: C_19  and  C_32
   10  A    between atoms: N_21  and  C_26
                            x       y       z     vdW  Elec       q    Type
                         _______ _______ _______ _____ _____    ______ ____

>  <TORSDO>
F 10

$$$$
=
 OpenBabel11062420363D

 32 35  0  0  1  0  0  0  0  0999 V2000
  189.5780  177.2730  142.9060 N   0  0  0  0  0  2  0  0  0  0  0  0
  195.5520  174.8220  143.9270 C   0  0  0  0  0  2  0  0  0  0  0  0
  191.4630  176.1360  143.9840 C   0  0  0  0  0  0  0  0  0  0  0  0
  190.0400  176.9600  146.6450 C   0  0  2  0  0  3  0  0  0  0  0  0
  191.8490  174.8740  144.7420 C   0  0  1  0  0  3  0  0  0  0  0  0
  189.8910  177.9150  147.6480 O   0  0  0  0  0  1  0  0  0  0  0  0
  192.3730  176.8320  143.2790 C   0  0  0  0  0  3  0  0  0  0  0  0
  193.7820  176.4150  143.2000 C   0  0  0  0  0  3  0  0  0  0  0  0
  193.9660  173.5090  145.3080 C   0  0  0  0  0  2  0  0  0  0  0  0
  195.4390  173.6310  144.8850 C   0  0  2  0  0  3  0  0  0  0  0  0
  193.3010  174.6760  144.7660 N   0  0  0  0  0  0  0  0  0  0  0  0
  196.2970  173.8820  146.1090 C   0  0  0  0  0  1  0  0  0  0  0  0
  194.1880  175.3810  143.9260 C   0  0  0  0  0  0  0  0  0  0  0  0
  190.0620  176.6550  144.1390 C   0  0  1  0  0  3  0  0  0  0  0  0
  191.2710  174.8260  146.1660 C   0  0  0  0  0  2  0  0  0  0  0  0
  191.3260  176.1710  146.8880 C   0  0  0  0  0  2  0  0  0  0  0  0
  190.0260  177.6590  145.2840 C   0  0  0  0  0  2  0  0  0  0  0  0
  188.4550  176.5220  142.3310 C   0  0  2  0  0  3  0  0  0  0  0  0
  187.2020  177.3870  142.1240 C   0  0  2  0  0  3  0  0  0  0  0  0
  187.0670  177.8890  140.6880 C   0  0  2  0  0  3  0  0  0  0  0  0
  185.7220  177.5820  140.1460 C   0  0  0  0  0  2  0  0  0  0  0  0
  186.8400  176.7900  139.8370 O   0  0  0  0  0  0  0  0  0  0  0  0
  186.5580  178.5760  144.2330 C   0  0  0  0  0  3  0  0  0  0  0  0
  187.2280  178.5540  143.0730 C   0  0  0  0  0  3  0  0  0  0  0  0
  184.4410  177.9290  145.0740 O   0  0  0  0  0  1  0  0  0  0  0  0
  186.3500  176.7900  145.9070 C   0  0  0  0  0  1  0  0  0  0  0  0
  185.6980  177.4470  144.7090 C   0  0  2  0  0  3  0  0  0  0  0  0
  188.1740  175.2890  143.0630 N   0  0  0  0  0  2  0  0  0  0  0  0
  188.1840  174.2030  142.0980 C   0  0  0  0  0  2  0  0  0  0  0  0
  189.4750  173.4110  142.2230 C   0  0  0  0  0  2  0  0  0  0  0  0
  189.2390  172.0980  142.9510 C   0  0  0  0  0  2  0  0  0  0  0  0
  189.4940  172.2580  144.3130 O   0  0  0  0  0  1  0  0  0  0  0  0
  2 10  1  0  0  0  0
  3 14  1  0  0  0  0
  3  5  1  0  0  0  0
  4 16  1  0  0  0  0
  4  6  1  1  0  0  0
  5 11  1  0  0  0  0
  5 15  1  1  0  0  0
  7  3  2  0  0  0  0
  8  7  1  0  0  0  0
  8 13  2  0  0  0  0
 10  9  1  0  0  0  0
 10 12  1  1  0  0  0
 11  9  1  0  0  0  0
 13  2  1  0  0  0  0
 13 11  1  0  0  0  0
 14  1  1  6  0  0  0
 14 17  1  0  0  0  0
 15 16  1  0  0  0  0
 17  4  1  0  0  0  0
 18  1  1  1  0  0  0
 18 28  1  0  0  0  0
 19 18  1  0  0  0  0
 19 24  1  1  0  0  0
 20 19  1  1  0  0  0
 21 20  1  0  0  0  0
 22 21  1  0  0  0  0
 22 20  1  0  0  0  0
 23 27  1  0  0  0  0
 24 23  2  0  0  0  0
 27 25  1  0  0  0  0
 27 26  1  1  0  0  0
 29 30  1  0  0  0  0
 29 28  1  0  0  0  0
 30 31  1  0  0  0  0
 31 32  1  0  0  0  0
M  END
>  <MODEL>
6

>  <REMARK>
 VINA RESULT:      -6.4      1.892      3.828
  Name = 
  10 active torsions:
  status: ('A' for Active; 'I' for Inactive)
    1  A    between atoms: C_3  and  C_13
    2  A    between atoms: C_4  and  C_13
    3  A    between atoms: C_4  and  N_21
    4  A    between atoms: C_4  and  N_30
    5  A    between atoms: C_6  and  C_8
    6  A    between atoms: C_6  and  C_18
    7  A    between atoms: C_13  and  C_28
    8  A    between atoms: C_18  and  N_30
    9  A    between atoms: C_19  and  C_32
   10  A    between atoms: N_21  and  C_26
                            x       y       z     vdW  Elec       q    Type
                         _______ _______ _______ _____ _____    ______ ____

>  <TORSDO>
F 10

$$$$
=
 OpenBabel11062420363D

 32 35  0  0  1  0  0  0  0  0999 V2000
  188.9270  175.1220  144.5120 N   0  0  0  0  0  2  0  0  0  0  0  0
  195.3360  174.9860  145.7940 C   0  0  0  0  0  2  0  0  0  0  0  0
  191.3520  174.9780  144.1870 C   0  0  0  0  0  0  0  0  0  0  0  0
  190.6050  173.2960  141.6580 C   0  0  2  0  0  3  0  0  0  0  0  0
  192.4980  175.5000  143.3330 C   0  0  1  0  0  3  0  0  0  0  0  0
  190.3410  172.0370  141.1230 O   0  0  0  0  0  1  0  0  0  0  0  0
  191.5620  174.5410  145.4420 C   0  0  0  0  0  3  0  0  0  0  0  0
  192.8990  174.5460  146.0560 C   0  0  0  0  0  3  0  0  0  0  0  0
  195.0660  175.7470  143.4490 C   0  0  0  0  0  2  0  0  0  0  0  0
  196.0970  175.4790  144.5570 C   0  0  2  0  0  3  0  0  0  0  0  0
  193.8000  175.2620  143.9620 N   0  0  0  0  0  0  0  0  0  0  0  0
  197.0650  174.4070  144.0970 C   0  0  0  0  0  1  0  0  0  0  0  0
  193.9440  174.8960  145.3160 C   0  0  0  0  0  0  0  0  0  0  0  0
  189.9970  174.8480  143.5530 C   0  0  1  0  0  3  0  0  0  0  0  0
  192.4800  174.9480  141.8980 C   0  0  0  0  0  2  0  0  0  0  0  0
  192.1150  173.4660  141.8240 C   0  0  0  0  0  2  0  0  0  0  0  0
  189.8470  173.4460  142.9780 C   0  0  0  0  0  2  0  0  0  0  0  0
  188.4450  176.5050  144.4010 C   0  0  2  0  0  3  0  0  0  0  0  0
  187.9140  177.0600  145.7320 C   0  0  2  0  0  3  0  0  0  0  0  0
  188.8950  176.8570  146.8850 C   0  0  2  0  0  3  0  0  0  0  0  0
  189.2390  178.1510  147.5200 C   0  0  0  0  0  2  0  0  0  0  0  0
  190.0950  177.5330  146.5920 O   0  0  0  0  0  0  0  0  0  0  0  0
  185.4750  177.1090  146.3010 C   0  0  0  0  0  3  0  0  0  0  0  0
  186.5960  176.4150  146.0620 C   0  0  0  0  0  3  0  0  0  0  0  0
  185.6150  179.1070  147.5640 O   0  0  0  0  0  1  0  0  0  0  0  0
  184.0520  179.0430  145.7790 C   0  0  0  0  0  1  0  0  0  0  0  0
  185.4120  178.6050  146.2790 C   0  0  2  0  0  3  0  0  0  0  0  0
  187.5030  176.6810  143.3000 N   0  0  0  0  0  2  0  0  0  0  0  0
  187.6360  178.0510  142.8330 C   0  0  0  0  0  2  0  0  0  0  0  0
  186.2610  178.6540  142.5980 C   0  0  0  0  0  2  0  0  0  0  0  0
  185.1860  177.5790  142.6140 C   0  0  0  0  0  2  0  0  0  0  0  0
  183.9500  178.1400  142.2970 O   0  0  0  0  0  1  0  0  0  0  0  0
  3  7  2  0  0  0  0
  4  6  1  1  0  0  0
  4 16  1  0  0  0  0
  4 17  1  0  0  0  0
  5 15  1  6  0  0  0
  5 11  1  0  0  0  0
  5  3  1  0  0  0  0
  7  8  1  0  0  0  0
  9 11  1  0  0  0  0
  9 10  1  0  0  0  0
 10 12  1  6  0  0  0
 10  2  1  0  0  0  0
 11 13  1  0  0  0  0
 13  2  1  0  0  0  0
 13  8  2  0  0  0  0
 14  3  1  0  0  0  0
 14  1  1  1  0  0  0
 16 15  1  0  0  0  0
 17 14  1  0  0  0  0
 18 28  1  6  0  0  0
 18  1  1  0  0  0  0
 18 19  1  0  0  0  0
 19 24  1  1  0  0  0
 20 19  1  6  0  0  0
 20 21  1  0  0  0  0
 22 20  1  0  0  0  0
 22 21  1  0  0  0  0
 24 23  2  0  0  0  0
 27 26  1  1  0  0  0
 27 23  1  0  0  0  0
 27 25  1  0  0  0  0
 29 28  1  0  0  0  0
 30 31  1  0  0  0  0
 30 29  1  0  0  0  0
 32 31  1  0  0  0  0
M  END
>  <MODEL>
7

>  <REMARK>
 VINA RESULT:      -6.3      2.016      4.440
  Name = 
  10 active torsions:
  status: ('A' for Active; 'I' for Inactive)
    1  A    between atoms: C_3  and  C_13
    2  A    between atoms: C_4  and  C_13
    3  A    between atoms: C_4  and  N_21
    4  A    between atoms: C_4  and  N_30
    5  A    between atoms: C_6  and  C_8
    6  A    between atoms: C_6  and  C_18
    7  A    between atoms: C_13  and  C_28
    8  A    between atoms: C_18  and  N_30
    9  A    between atoms: C_19  and  C_32
   10  A    between atoms: N_21  and  C_26
                            x       y       z     vdW  Elec       q    Type
                         _______ _______ _______ _____ _____    ______ ____

>  <TORSDO>
F 10

$$$$
=
 OpenBabel11062420363D

 32 35  0  0  1  0  0  0  0  0999 V2000
  188.2830  177.4570  144.9880 N   0  0  0  0  0  2  0  0  0  0  0  0
  193.9340  176.0290  142.0300 C   0  0  0  0  0  2  0  0  0  0  0  0
  190.5210  176.5440  144.5870 C   0  0  0  0  0  0  0  0  0  0  0  0
  190.8090  176.6990  147.6970 C   0  0  2  0  0  3  0  0  0  0  0  0
  191.3590  175.2790  144.7090 C   0  0  1  0  0  3  0  0  0  0  0  0
  191.1890  177.4550  148.8040 O   0  0  0  0  0  1  0  0  0  0  0  0
  190.8170  177.4900  143.6780 C   0  0  0  0  0  3  0  0  0  0  0  0
  191.9570  177.3570  142.7550 C   0  0  0  0  0  3  0  0  0  0  0  0
  193.5130  174.2610  143.7160 C   0  0  0  0  0  2  0  0  0  0  0  0
  194.4710  174.7120  142.6010 C   0  0  2  0  0  3  0  0  0  0  0  0
  192.5770  175.3510  143.8970 N   0  0  0  0  0  0  0  0  0  0  0  0
  195.8520  174.9380  143.1830 C   0  0  0  0  0  1  0  0  0  0  0  0
  192.7750  176.3210  142.8940 C   0  0  0  0  0  0  0  0  0  0  0  0
  189.4240  176.7680  145.5880 C   0  0  1  0  0  3  0  0  0  0  0  0
  191.6980  174.9200  146.1650 C   0  0  0  0  0  2  0  0  0  0  0  0
  192.0570  176.1340  147.0210 C   0  0  0  0  0  2  0  0  0  0  0  0
  189.9740  177.5720  146.7590 C   0  0  0  0  0  2  0  0  0  0  0  0
  187.2530  176.5090  144.5440 C   0  0  2  0  0  3  0  0  0  0  0  0
  187.3030  176.2390  143.0320 C   0  0  2  0  0  3  0  0  0  0  0  0
  186.2910  177.0770  142.2540 C   0  0  2  0  0  3  0  0  0  0  0  0
  186.8680  177.5460  140.9720 C   0  0  0  0  0  2  0  0  0  0  0  0
  186.7970  178.3810  142.0980 O   0  0  0  0  0  0  0  0  0  0  0  0
  187.8350  174.0430  141.9510 C   0  0  0  0  0  3  0  0  0  0  0  0
  187.0680  174.7770  142.7680 C   0  0  0  0  0  3  0  0  0  0  0  0
  188.7720  174.5090  139.8280 O   0  0  0  0  0  1  0  0  0  0  0  0
  190.2470  173.8060  141.5490 C   0  0  0  0  0  1  0  0  0  0  0  0
  189.0050  174.5980  141.2000 C   0  0  2  0  0  3  0  0  0  0  0  0
  185.9170  176.8760  145.0080 N   0  0  0  0  0  2  0  0  0  0  0  0
  186.0850  177.7630  146.1470 C   0  0  0  0  0  2  0  0  0  0  0  0
  184.9520  178.7740  146.1860 C   0  0  0  0  0  2  0  0  0  0  0  0
  184.4720  179.1090  144.7840 C   0  0  0  0  0  2  0  0  0  0  0  0
  185.2250  180.1620  144.2640 O   0  0  0  0  0  1  0  0  0  0  0  0
  2 10  1  0  0  0  0
  2 13  1  0  0  0  0
  3  5  1  0  0  0  0
  3 14  1  0  0  0  0
  4  6  1  1  0  0  0
  5 15  1  1  0  0  0
  7  3  2  0  0  0  0
  8 13  2  0  0  0  0
  8  7  1  0  0  0  0
  9 11  1  0  0  0  0
 10 12  1  1  0  0  0
 10  9  1  0  0  0  0
 11  5  1  0  0  0  0
 13 11  1  0  0  0  0
 14  1  1  6  0  0  0
 14 17  1  0  0  0  0
 15 16  1  0  0  0  0
 16  4  1  0  0  0  0
 17  4  1  0  0  0  0
 18  1  1  6  0  0  0
 18 28  1  0  0  0  0
 19 24  1  1  0  0  0
 19 18  1  0  0  0  0
 20 19  1  1  0  0  0
 21 22  1  0  0  0  0
 21 20  1  0  0  0  0
 22 20  1  0  0  0  0
 23 24  2  0  0  0  0
 25 27  1  0  0  0  0
 27 26  1  6  0  0  0
 27 23  1  0  0  0  0
 28 29  1  0  0  0  0
 29 30  1  0  0  0  0
 31 30  1  0  0  0  0
 32 31  1  0  0  0  0
M  END
>  <MODEL>
8

>  <REMARK>
 VINA RESULT:      -6.3      1.368      2.541
  Name = 
  10 active torsions:
  status: ('A' for Active; 'I' for Inactive)
    1  A    between atoms: C_3  and  C_13
    2  A    between atoms: C_4  and  C_13
    3  A    between atoms: C_4  and  N_21
    4  A    between atoms: C_4  and  N_30
    5  A    between atoms: C_6  and  C_8
    6  A    between atoms: C_6  and  C_18
    7  A    between atoms: C_13  and  C_28
    8  A    between atoms: C_18  and  N_30
    9  A    between atoms: C_19  and  C_32
   10  A    between atoms: N_21  and  C_26
                            x       y       z     vdW  Elec       q    Type
                         _______ _______ _______ _____ _____    ______ ____

>  <TORSDO>
F 10

$$$$
=
 OpenBabel11062420363D

 32 35  0  0  1  0  0  0  0  0999 V2000
  191.6470  175.3510  143.2220 N   0  0  0  0  0  2  0  0  0  0  0  0
  185.8060  177.5130  141.2350 C   0  0  0  0  0  2  0  0  0  0  0  0
  189.4020  176.3350  143.2680 C   0  0  0  0  0  0  0  0  0  0  0  0
  189.3630  175.3480  146.2350 C   0  0  2  0  0  3  0  0  0  0  0  0
  188.6040  177.5180  143.7940 C   0  0  1  0  0  3  0  0  0  0  0  0
  189.0570  174.3200  147.1250 O   0  0  0  0  0  1  0  0  0  0  0  0
  189.0150  175.6680  142.1650 C   0  0  0  0  0  3  0  0  0  0  0  0
  187.8080  176.0430  141.4110 C   0  0  0  0  0  3  0  0  0  0  0  0
  186.3980  178.7630  143.2930 C   0  0  0  0  0  2  0  0  0  0  0  0
  185.3440  178.6270  142.1820 C   0  0  2  0  0  3  0  0  0  0  0  0
  187.3230  177.6650  143.0970 N   0  0  0  0  0  0  0  0  0  0  0  0
  184.0100  178.2500  142.7940 C   0  0  0  0  0  1  0  0  0  0  0  0
  187.0240  177.0010  141.8890 C   0  0  0  0  0  0  0  0  0  0  0  0
  190.5720  175.8520  144.0770 C   0  0  1  0  0  3  0  0  0  0  0  0
  188.3910  177.4720  145.3160 C   0  0  0  0  0  2  0  0  0  0  0  0
  188.0760  176.0720  145.8410 C   0  0  0  0  0  2  0  0  0  0  0  0
  190.1010  174.7610  145.0300 C   0  0  0  0  0  2  0  0  0  0  0  0
  192.8320  176.2150  143.2850 C   0  0  2  0  0  3  0  0  0  0  0  0
  194.1450  175.4440  143.0750 C   0  0  2  0  0  3  0  0  0  0  0  0
  194.6080  175.4630  141.6200 C   0  0  2  0  0  3  0  0  0  0  0  0
  195.9290  176.1230  141.4950 C   0  0  0  0  0  2  0  0  0  0  0  0
  194.7350  176.7990  141.1950 O   0  0  0  0  0  0  0  0  0  0  0  0
  194.9350  173.3480  144.1960 C   0  0  0  0  0  3  0  0  0  0  0  0
  193.9810  174.0240  143.5420 C   0  0  0  0  0  3  0  0  0  0  0  0
  197.2750  173.2120  143.8650 O   0  0  0  0  0  1  0  0  0  0  0  0
  196.5050  173.8460  146.0180 C   0  0  0  0  0  1  0  0  0  0  0  0
  196.2760  173.9270  144.5240 C   0  0  2  0  0  3  0  0  0  0  0  0
  192.8530  177.0480  144.4860 N   0  0  0  0  0  2  0  0  0  0  0  0
  194.2130  177.0340  144.9970 C   0  0  0  0  0  2  0  0  0  0  0  0
  194.2000  176.7980  146.4980 C   0  0  0  0  0  2  0  0  0  0  0  0
  193.0020  175.9560  146.9050 C   0  0  0  0  0  2  0  0  0  0  0  0
  192.1600  176.6990  147.7330 O   0  0  0  0  0  1  0  0  0  0  0  0
  2 13  1  0  0  0  0
  2 10  1  0  0  0  0
  3  5  1  0  0  0  0
  3 14  1  0  0  0  0
  4  6  1  1  0  0  0
  5 15  1  1  0  0  0
  7  3  2  0  0  0  0
  8 13  2  0  0  0  0
  8  7  1  0  0  0  0
 10 12  1  1  0  0  0
 10  9  1  0  0  0  0
 11  9  1  0  0  0  0
 11  5  1  0  0  0  0
 13 11  1  0  0  0  0
 14  1  1  6  0  0  0
 14 17  1  0  0  0  0
 15 16  1  0  0  0  0
 16  4  1  0  0  0  0
 17  4  1  0  0  0  0
 18  1  1  1  0  0  0
 18 28  1  0  0  0  0
 19 18  1  0  0  0  0
 19 24  1  6  0  0  0
 20 19  1  1  0  0  0
 21 20  1  0  0  0  0
 22 21  1  0  0  0  0
 22 20  1  0  0  0  0
 23 27  1  0  0  0  0
 24 23  2  0  0  0  0
 25 27  1  0  0  0  0
 27 26  1  1  0  0  0
 28 29  1  0  0  0  0
 29 30  1  0  0  0  0
 30 31  1  0  0  0  0
 31 32  1  0  0  0  0
M  END
>  <MODEL>
9

>  <REMARK>
 VINA RESULT:      -6.3      2.778      7.810
  Name = 
  10 active torsions:
  status: ('A' for Active; 'I' for Inactive)
    1  A    between atoms: C_3  and  C_13
    2  A    between atoms: C_4  and  C_13
    3  A    between atoms: C_4  and  N_21
    4  A    between atoms: C_4  and  N_30
    5  A    between atoms: C_6  and  C_8
    6  A    between atoms: C_6  and  C_18
    7  A    between atoms: C_13  and  C_28
    8  A    between atoms: C_18  and  N_30
    9  A    between atoms: C_19  and  C_32
   10  A    between atoms: N_21  and  C_26
                            x       y       z     vdW  Elec       q    Type
                         _______ _______ _______ _____ _____    ______ ____

>  <TORSDO>
F 10

$$$$
