=
 OpenBabel11062421103D

 33 36  0  0  1  0  0  0  0  0999 V2000
  188.4470  175.8300  146.5860 C   0  0  0  0  0  2  0  0  0  0  0  0
  188.5540  177.3350  144.5550 N   0  0  0  0  0  0  0  0  0  0  0  0
  186.6090  178.2690  144.5880 C   0  0  0  0  0  0  0  0  0  0  0  0
  189.7870  176.2550  147.1620 C   0  0  0  0  0  2  0  0  0  0  0  0
  187.7660  178.1760  143.9030 N   0  0  0  0  0  0  0  0  0  0  0  0
  190.9900  177.0350  145.0940 C   0  0  0  0  0  2  0  0  0  0  0  0
  187.9110  176.8650  145.6480 C   0  0  0  0  0  0  0  0  0  0  0  0
  189.8710  176.9540  144.0480 C   0  0  1  0  0  3  0  0  0  0  0  0
  186.6510  177.4430  145.6950 C   0  0  0  0  0  0  0  0  0  0  0  0
  190.9070  175.9660  146.1770 C   0  0  0  0  0  2  0  0  0  0  0  0
  188.5980  173.8180  142.3250 C   0  0  0  0  0  3  0  0  0  0  0  0
  190.9890  175.2760  142.5160 C   0  0  0  0  0  0  0  0  0  0  0  0
  188.6550  174.9620  143.1150 C   0  0  0  0  0  3  0  0  0  0  0  0
  190.9380  174.0930  141.7320 C   0  0  0  0  0  0  0  0  0  0  0  0
  189.7310  173.3830  141.6320 C   0  0  0  0  0  0  0  0  0  0  0  0
  192.4260  176.3030  142.5520 Cl  0  0  0  0  0  0  0  0  0  0  0  0
  189.8400  175.6960  143.2200 C   0  0  0  0  0  0  0  0  0  0  0  0
  189.3780  172.3040  139.5330 O   0  0  0  0  0  1  0  0  0  0  0  0
  189.6730  172.2350  140.8390 O   0  0  0  0  0  0  0  0  0  0  0  0
  193.0850  172.8290  141.6070 C   0  0  0  0  0  1  0  0  0  0  0  0
  192.0390  173.5890  141.0230 O   0  0  0  0  0  0  0  0  0  0  0  0
  185.7140  180.4200  144.1180 O   0  0  0  0  0  1  0  0  0  0  0  0
  185.4230  179.0540  144.1220 C   0  0  1  0  0  3  0  0  0  0  0  0
  183.1970  178.0800  141.0250 C   0  0  0  0  0  0  0  0  0  0  0  0
  184.1530  177.8170  140.1320 C   0  0  0  0  0  3  0  0  0  0  0  0
  181.8680  177.9660  140.6440 O   0  0  0  0  0  1  0  0  0  0  0  0
  184.9920  178.6080  142.7630 C   0  0  0  0  0  0  0  0  0  0  0  0
  183.5140  178.5010  142.4410 C   0  0  0  0  0  2  0  0  0  0  0  0
  186.4610  177.6790  139.6480 O   0  0  0  0  0  0  0  0  0  0  0  0
  185.5660  177.9300  140.4970 C   0  0  0  0  0  0  0  0  0  0  0  0
  185.9330  178.3460  141.8530 C   0  0  0  0  0  3  0  0  0  0  0  0
  185.2010  178.1330  147.5590 C   0  0  0  0  0  2  0  0  0  0  0  0
  185.5540  177.2290  146.6550 C   0  0  0  0  0  3  0  0  0  0  0  0
  1  4  1  0  0  0  0
  2  7  1  0  0  0  0
  3  9  1  0  0  0  0
  5  2  1  0  0  0  0
  5  3  2  0  0  0  0
  6 10  1  0  0  0  0
  7  9  2  0  0  0  0
  7  1  1  0  0  0  0
  8 17  1  1  0  0  0
  8  2  1  0  0  0  0
  8  6  1  0  0  0  0
  9 33  1  0  0  0  0
 10  4  1  0  0  0  0
 11 13  1  0  0  0  0
 12 16  1  0  0  0  0
 12 17  1  0  0  0  0
 13 17  2  0  0  0  0
 14 12  2  0  0  0  0
 15 14  1  0  0  0  0
 15 11  2  0  0  0  0
 18 19  1  0  0  0  0
 19 15  1  0  0  0  0
 21 20  1  0  0  0  0
 21 14  1  0  0  0  0
 23 22  1  6  0  0  0
 23  3  1  0  0  0  0
 24 28  1  0  0  0  0
 25 30  1  0  0  0  0
 25 24  2  0  0  0  0
 26 24  1  0  0  0  0
 27 23  1  0  0  0  0
 28 27  1  0  0  0  0
 29 30  2  0  0  0  0
 30 31  1  0  0  0  0
 31 27  2  0  0  0  0
 33 32  2  0  0  0  0
M  END
>  <MODEL>
1

>  <REMARK>
 VINA RESULT:      -8.0      0.000      0.000
  Name = 
  6 active torsions:
  status: ('A' for Active; 'I' for Inactive)
    1  A    between atoms: C_9  and  C_23
    2  A    between atoms: C_15  and  C_23
    3  A    between atoms: C_16  and  O_22
    4  A    between atoms: C_19  and  C_33
    5  A    between atoms: C_20  and  O_21
    6  A    between atoms: C_25  and  C_26
                            x       y       z     vdW  Elec       q    Type
                         _______ _______ _______ _____ _____    ______ ____

>  <TORSDO>
F 6

$$$$
=
 OpenBabel11062421103D

 33 36  0  0  1  0  0  0  0  0999 V2000
  188.4590  175.8150  146.5930 C   0  0  0  0  0  2  0  0  0  0  0  0
  188.5600  177.3400  144.5760 N   0  0  0  0  0  0  0  0  0  0  0  0
  186.6060  178.2560  144.6100 C   0  0  0  0  0  0  0  0  0  0  0  0
  189.7920  176.2460  147.1780 C   0  0  0  0  0  2  0  0  0  0  0  0
  187.7660  178.1800  143.9300 N   0  0  0  0  0  0  0  0  0  0  0  0
  190.9960  177.0570  145.1220 C   0  0  0  0  0  2  0  0  0  0  0  0
  187.9170  176.8540  145.6620 C   0  0  0  0  0  0  0  0  0  0  0  0
  189.8820  176.9760  144.0710 C   0  0  1  0  0  3  0  0  0  0  0  0
  186.6510  177.4190  145.7100 C   0  0  0  0  0  0  0  0  0  0  0  0
  190.9190  175.9770  146.1940 C   0  0  0  0  0  2  0  0  0  0  0  0
  188.6550  173.8250  142.3430 C   0  0  0  0  0  3  0  0  0  0  0  0
  191.0100  175.3430  142.4980 C   0  0  0  0  0  0  0  0  0  0  0  0
  188.6980  174.9620  143.1430 C   0  0  0  0  0  3  0  0  0  0  0  0
  190.9730  174.1670  141.7030 C   0  0  0  0  0  0  0  0  0  0  0  0
  189.7830  173.4270  141.6210 C   0  0  0  0  0  0  0  0  0  0  0  0
  192.4210  176.4070  142.5140 Cl  0  0  0  0  0  0  0  0  0  0  0  0
  189.8660  175.7260  143.2300 C   0  0  0  0  0  0  0  0  0  0  0  0
  189.0430  172.2660  139.6710 O   0  0  0  0  0  1  0  0  0  0  0  0
  189.7380  172.2850  140.8180 O   0  0  0  0  0  0  0  0  0  0  0  0
  193.1690  172.9970  141.5270 C   0  0  0  0  0  1  0  0  0  0  0  0
  192.0710  173.7000  140.9660 O   0  0  0  0  0  0  0  0  0  0  0  0
  185.6780  180.4050  144.1990 O   0  0  0  0  0  1  0  0  0  0  0  0
  185.4150  179.0340  144.1480 C   0  0  1  0  0  3  0  0  0  0  0  0
  185.5780  177.8860  140.3860 C   0  0  0  0  0  0  0  0  0  0  0  0
  184.2740  177.7880  140.1210 C   0  0  0  0  0  3  0  0  0  0  0  0
  186.4930  177.5770  139.3900 O   0  0  0  0  0  1  0  0  0  0  0  0
  185.0210  178.6300  142.7640 C   0  0  0  0  0  0  0  0  0  0  0  0
  186.0930  178.3230  141.7380 C   0  0  0  0  0  2  0  0  0  0  0  0
  182.0510  178.0080  140.8900 O   0  0  0  0  0  0  0  0  0  0  0  0
  183.2790  178.1020  141.1480 C   0  0  0  0  0  0  0  0  0  0  0  0
  183.7210  178.5200  142.4810 C   0  0  0  0  0  3  0  0  0  0  0  0
  185.1880  178.0770  147.5750 C   0  0  0  0  0  2  0  0  0  0  0  0
  185.5530  177.1860  146.6630 C   0  0  0  0  0  3  0  0  0  0  0  0
  1  4  1  0  0  0  0
  2  7  1  0  0  0  0
  3  9  1  0  0  0  0
  5  2  1  0  0  0  0
  5  3  2  0  0  0  0
  6 10  1  0  0  0  0
  7  9  2  0  0  0  0
  7  1  1  0  0  0  0
  8 17  1  1  0  0  0
  8  2  1  0  0  0  0
  8  6  1  0  0  0  0
  9 33  1  0  0  0  0
 10  4  1  0  0  0  0
 11 13  1  0  0  0  0
 12 16  1  0  0  0  0
 12 17  1  0  0  0  0
 13 17  2  0  0  0  0
 14 12  2  0  0  0  0
 15 14  1  0  0  0  0
 15 11  2  0  0  0  0
 18 19  1  0  0  0  0
 19 15  1  0  0  0  0
 21 20  1  0  0  0  0
 21 14  1  0  0  0  0
 23 22  1  6  0  0  0
 23  3  1  0  0  0  0
 24 28  1  0  0  0  0
 25 24  2  0  0  0  0
 25 30  1  0  0  0  0
 26 24  1  0  0  0  0
 27 23  1  0  0  0  0
 28 27  1  0  0  0  0
 29 30  2  0  0  0  0
 30 31  1  0  0  0  0
 31 27  2  0  0  0  0
 33 32  2  0  0  0  0
M  END
>  <MODEL>
2

>  <REMARK>
 VINA RESULT:      -8.0      0.131      1.444
  Name = 
  6 active torsions:
  status: ('A' for Active; 'I' for Inactive)
    1  A    between atoms: C_9  and  C_23
    2  A    between atoms: C_15  and  C_23
    3  A    between atoms: C_16  and  O_22
    4  A    between atoms: C_19  and  C_33
    5  A    between atoms: C_20  and  O_21
    6  A    between atoms: C_25  and  C_26
                            x       y       z     vdW  Elec       q    Type
                         _______ _______ _______ _____ _____    ______ ____

>  <TORSDO>
F 6

$$$$
=
 OpenBabel11062421103D

 33 36  0  0  1  0  0  0  0  0999 V2000
  189.7620  173.6450  144.1770 C   0  0  0  0  0  2  0  0  0  0  0  0
  190.5110  175.9990  143.6280 N   0  0  0  0  0  0  0  0  0  0  0  0
  192.5020  176.0410  144.4610 C   0  0  0  0  0  0  0  0  0  0  0  0
  189.2520  173.3190  142.7850 C   0  0  0  0  0  2  0  0  0  0  0  0
  191.5650  176.7760  143.8300 N   0  0  0  0  0  0  0  0  0  0  0  0
  188.7320  175.6150  141.8970 C   0  0  0  0  0  2  0  0  0  0  0  0
  190.7490  174.7700  144.1390 C   0  0  0  0  0  0  0  0  0  0  0  0
  189.2810  176.5020  143.0200 C   0  0  1  0  0  3  0  0  0  0  0  0
  192.0220  174.7640  144.6900 C   0  0  0  0  0  0  0  0  0  0  0  0
  188.1550  174.2890  142.3780 C   0  0  0  0  0  2  0  0  0  0  0  0
  187.4430  176.9520  146.3120 C   0  0  0  0  0  3  0  0  0  0  0  0
  187.2800  177.9080  143.6790 C   0  0  0  0  0  0  0  0  0  0  0  0
  188.3440  176.5030  145.3530 C   0  0  0  0  0  3  0  0  0  0  0  0
  186.3440  178.3450  144.6530 C   0  0  0  0  0  0  0  0  0  0  0  0
  186.4480  177.8720  145.9710 C   0  0  0  0  0  0  0  0  0  0  0  0
  187.3070  178.5880  142.0480 Cl  0  0  0  0  0  0  0  0  0  0  0  0
  188.2730  176.9700  144.0360 C   0  0  0  0  0  0  0  0  0  0  0  0
  185.7950  179.4160  147.6690 O   0  0  0  0  0  1  0  0  0  0  0  0
  185.5440  178.3220  146.9350 O   0  0  0  0  0  0  0  0  0  0  0  0
  184.0160  178.8780  143.9330 C   0  0  0  0  0  1  0  0  0  0  0  0
  185.3110  179.2530  144.3770 O   0  0  0  0  0  0  0  0  0  0  0  0
  193.9360  176.3890  146.3240 O   0  0  0  0  0  1  0  0  0  0  0  0
  193.8060  176.5890  144.9470 C   0  0  1  0  0  3  0  0  0  0  0  0
  196.2480  175.4290  142.0860 C   0  0  0  0  0  0  0  0  0  0  0  0
  197.1820  174.8190  142.8170 C   0  0  0  0  0  3  0  0  0  0  0  0
  196.4000  175.4850  140.7080 O   0  0  0  0  0  1  0  0  0  0  0  0
  194.9510  175.9620  144.2190 C   0  0  0  0  0  0  0  0  0  0  0  0
  195.0270  176.0650  142.7090 C   0  0  0  0  0  2  0  0  0  0  0  0
  197.9410  174.1640  144.9570 O   0  0  0  0  0  0  0  0  0  0  0  0
  197.0570  174.7430  144.2750 C   0  0  0  0  0  0  0  0  0  0  0  0
  195.8990  175.3520  144.9340 C   0  0  0  0  0  3  0  0  0  0  0  0
  193.2680  172.6460  144.7890 C   0  0  0  0  0  2  0  0  0  0  0  0
  192.7330  173.6910  145.4050 C   0  0  0  0  0  3  0  0  0  0  0  0
  2  5  1  0  0  0  0
  2  7  1  0  0  0  0
  3  9  1  0  0  0  0
  3 23  1  0  0  0  0
  4  1  1  0  0  0  0
  5  3  2  0  0  0  0
  6 10  1  0  0  0  0
  6  8  1  0  0  0  0
  7  1  1  0  0  0  0
  7  9  2  0  0  0  0
  8  2  1  0  0  0  0
  8 17  1  1  0  0  0
  9 33  1  0  0  0  0
 10  4  1  0  0  0  0
 12 17  2  0  0  0  0
 12 14  1  0  0  0  0
 13 11  2  0  0  0  0
 14 15  2  0  0  0  0
 15 11  1  0  0  0  0
 15 19  1  0  0  0  0
 16 12  1  0  0  0  0
 17 13  1  0  0  0  0
 19 18  1  0  0  0  0
 20 21  1  0  0  0  0
 21 14  1  0  0  0  0
 23 22  1  1  0  0  0
 24 28  1  0  0  0  0
 24 25  2  0  0  0  0
 25 30  1  0  0  0  0
 26 24  1  0  0  0  0
 27 31  2  0  0  0  0
 27 23  1  0  0  0  0
 28 27  1  0  0  0  0
 30 31  1  0  0  0  0
 30 29  2  0  0  0  0
 32 33  2  0  0  0  0
M  END
>  <MODEL>
3

>  <REMARK>
 VINA RESULT:      -8.0      3.335      8.585
  Name = 
  6 active torsions:
  status: ('A' for Active; 'I' for Inactive)
    1  A    between atoms: C_9  and  C_23
    2  A    between atoms: C_15  and  C_23
    3  A    between atoms: C_16  and  O_22
    4  A    between atoms: C_19  and  C_33
    5  A    between atoms: C_20  and  O_21
    6  A    between atoms: C_25  and  C_26
                            x       y       z     vdW  Elec       q    Type
                         _______ _______ _______ _____ _____    ______ ____

>  <TORSDO>
F 6

$$$$
=
 OpenBabel11062421103D

 33 36  0  0  1  0  0  0  0  0999 V2000
  189.7740  174.4350  144.7280 C   0  0  0  0  0  2  0  0  0  0  0  0
  190.3310  176.8700  144.3210 N   0  0  0  0  0  0  0  0  0  0  0  0
  188.6460  177.5230  143.1420 C   0  0  0  0  0  0  0  0  0  0  0  0
  190.0380  174.4650  146.2230 C   0  0  0  0  0  2  0  0  0  0  0  0
  189.8240  177.9060  143.6720 N   0  0  0  0  0  0  0  0  0  0  0  0
  191.6550  176.3860  146.4020 C   0  0  0  0  0  2  0  0  0  0  0  0
  189.5010  175.8090  144.2010 C   0  0  0  0  0  0  0  0  0  0  0  0
  191.6420  176.9220  144.9650 C   0  0  1  0  0  3  0  0  0  0  0  0
  188.4070  176.1940  143.4400 C   0  0  0  0  0  0  0  0  0  0  0  0
  191.4740  174.8760  146.5030 C   0  0  0  0  0  2  0  0  0  0  0  0
  193.4930  175.6300  141.9110 C   0  0  0  0  0  3  0  0  0  0  0  0
  194.0830  176.3900  144.5470 C   0  0  0  0  0  0  0  0  0  0  0  0
  192.4730  176.0520  142.7580 C   0  0  0  0  0  3  0  0  0  0  0  0
  195.1190  175.9340  143.6900 C   0  0  0  0  0  0  0  0  0  0  0  0
  194.8120  175.5740  142.3680 C   0  0  0  0  0  0  0  0  0  0  0  0
  194.4250  177.0140  146.1650 Cl  0  0  0  0  0  0  0  0  0  0  0  0
  192.7530  176.4320  144.0740 C   0  0  0  0  0  0  0  0  0  0  0  0
  196.6340  176.0310  140.8960 O   0  0  0  0  0  1  0  0  0  0  0  0
  195.8350  175.1510  141.5160 O   0  0  0  0  0  0  0  0  0  0  0  0
  197.0270  174.6970  144.7160 C   0  0  0  0  0  1  0  0  0  0  0  0
  196.4610  175.8360  144.0870 O   0  0  0  0  0  0  0  0  0  0  0  0
  187.7650  177.8610  140.9610 O   0  0  0  0  0  1  0  0  0  0  0  0
  187.8090  178.3880  142.2540 C   0  0  1  0  0  3  0  0  0  0  0  0
  183.8860  178.4350  142.5810 C   0  0  0  0  0  0  0  0  0  0  0  0
  183.7690  178.7480  143.8720 C   0  0  0  0  0  3  0  0  0  0  0  0
  182.7370  178.2270  141.8300 O   0  0  0  0  0  1  0  0  0  0  0  0
  186.4270  178.5340  142.8050 C   0  0  0  0  0  0  0  0  0  0  0  0
  185.2310  178.2980  141.9050 C   0  0  0  0  0  2  0  0  0  0  0  0
  184.8390  179.2670  145.9130 O   0  0  0  0  0  0  0  0  0  0  0  0
  184.9590  178.9710  144.6960 C   0  0  0  0  0  0  0  0  0  0  0  0
  186.2890  178.8400  144.0970 C   0  0  0  0  0  3  0  0  0  0  0  0
  187.3290  174.5020  142.0160 C   0  0  0  0  0  2  0  0  0  0  0  0
  187.2510  175.4030  142.9870 C   0  0  0  0  0  3  0  0  0  0  0  0
  1  4  1  0  0  0  0
  2  8  1  0  0  0  0
  3  9  1  0  0  0  0
  3  5  2  0  0  0  0
  4 10  1  0  0  0  0
  5  2  1  0  0  0  0
  6 10  1  0  0  0  0
  7  2  1  0  0  0  0
  7  1  1  0  0  0  0
  8 17  1  6  0  0  0
  8  6  1  0  0  0  0
  9  7  2  0  0  0  0
 11 15  2  0  0  0  0
 11 13  1  0  0  0  0
 12 16  1  0  0  0  0
 13 17  2  0  0  0  0
 14 21  1  0  0  0  0
 14 12  2  0  0  0  0
 15 14  1  0  0  0  0
 17 12  1  0  0  0  0
 18 19  1  0  0  0  0
 19 15  1  0  0  0  0
 21 20  1  0  0  0  0
 23 22  1  6  0  0  0
 23 27  1  0  0  0  0
 23  3  1  0  0  0  0
 24 25  2  0  0  0  0
 25 30  1  0  0  0  0
 26 24  1  0  0  0  0
 27 31  2  0  0  0  0
 28 24  1  0  0  0  0
 28 27  1  0  0  0  0
 30 29  2  0  0  0  0
 31 30  1  0  0  0  0
 32 33  2  0  0  0  0
 33  9  1  0  0  0  0
M  END
>  <MODEL>
4

>  <REMARK>
 VINA RESULT:      -7.8      2.603      4.126
  Name = 
  6 active torsions:
  status: ('A' for Active; 'I' for Inactive)
    1  A    between atoms: C_9  and  C_23
    2  A    between atoms: C_15  and  C_23
    3  A    between atoms: C_16  and  O_22
    4  A    between atoms: C_19  and  C_33
    5  A    between atoms: C_20  and  O_21
    6  A    between atoms: C_25  and  C_26
                            x       y       z     vdW  Elec       q    Type
                         _______ _______ _______ _____ _____    ______ ____

>  <TORSDO>
F 6

$$$$
=
 OpenBabel11062421103D

 33 36  0  0  1  0  0  0  0  0999 V2000
  194.0430  176.3920  146.5430 C   0  0  0  0  0  2  0  0  0  0  0  0
  192.5650  175.0740  144.9670 N   0  0  0  0  0  0  0  0  0  0  0  0
  190.6510  175.1780  145.9570 C   0  0  0  0  0  0  0  0  0  0  0  0
  194.6780  177.2570  145.4690 C   0  0  0  0  0  2  0  0  0  0  0  0
  191.3070  174.6690  144.8950 N   0  0  0  0  0  0  0  0  0  0  0  0
  194.4260  175.7920  143.4380 C   0  0  0  0  0  2  0  0  0  0  0  0
  192.7380  175.8260  146.0770 C   0  0  0  0  0  0  0  0  0  0  0  0
  193.5750  174.6470  144.0000 C   0  0  1  0  0  3  0  0  0  0  0  0
  191.5230  175.9080  146.7420 C   0  0  0  0  0  0  0  0  0  0  0  0
  195.3980  176.3950  144.4450 C   0  0  0  0  0  2  0  0  0  0  0  0
  196.1110  172.4380  145.7620 C   0  0  0  0  0  3  0  0  0  0  0  0
  193.9310  172.1400  144.0210 C   0  0  0  0  0  0  0  0  0  0  0  0
  195.4210  173.5590  145.3140 C   0  0  0  0  0  3  0  0  0  0  0  0
  194.6530  170.9980  144.4580 C   0  0  0  0  0  0  0  0  0  0  0  0
  195.7310  171.1600  145.3430 C   0  0  0  0  0  0  0  0  0  0  0  0
  192.4670  171.9920  143.0420 Cl  0  0  0  0  0  0  0  0  0  0  0  0
  194.3340  173.4250  144.4440 C   0  0  0  0  0  0  0  0  0  0  0  0
  196.0600  169.3950  146.9150 O   0  0  0  0  0  1  0  0  0  0  0  0
  196.4240  170.0350  145.7950 O   0  0  0  0  0  0  0  0  0  0  0  0
  193.2940  168.9140  144.6340 C   0  0  0  0  0  1  0  0  0  0  0  0
  194.3370  169.6890  144.0650 O   0  0  0  0  0  0  0  0  0  0  0  0
  189.0920  174.5410  147.6340 O   0  0  0  0  0  1  0  0  0  0  0  0
  189.2230  174.8720  146.2830 C   0  0  1  0  0  3  0  0  0  0  0  0
  187.3870  177.7280  144.2910 C   0  0  0  0  0  0  0  0  0  0  0  0
  186.5960  178.2040  145.2540 C   0  0  0  0  0  3  0  0  0  0  0  0
  187.3260  178.2950  143.0260 O   0  0  0  0  0  1  0  0  0  0  0  0
  188.3400  176.0270  145.9400 C   0  0  0  0  0  0  0  0  0  0  0  0
  188.3490  176.5880  144.5320 C   0  0  0  0  0  2  0  0  0  0  0  0
  185.8820  178.0850  147.5030 O   0  0  0  0  0  0  0  0  0  0  0  0
  186.6300  177.6290  146.6000 C   0  0  0  0  0  0  0  0  0  0  0  0
  187.5360  176.5140  146.8880 C   0  0  0  0  0  3  0  0  0  0  0  0
  190.7610  177.8210  148.0890 C   0  0  0  0  0  2  0  0  0  0  0  0
  191.1910  176.5690  148.0160 C   0  0  0  0  0  3  0  0  0  0  0  0
  2  7  1  0  0  0  0
  3 23  1  0  0  0  0
  3  9  1  0  0  0  0
  4  1  1  0  0  0  0
  5  2  1  0  0  0  0
  5  3  2  0  0  0  0
  6  8  1  0  0  0  0
  6 10  1  0  0  0  0
  7  1  1  0  0  0  0
  7  9  2  0  0  0  0
  8 17  1  1  0  0  0
  8  2  1  0  0  0  0
  9 33  1  0  0  0  0
 10  4  1  0  0  0  0
 12 17  2  0  0  0  0
 12 14  1  0  0  0  0
 13 11  2  0  0  0  0
 14 15  2  0  0  0  0
 15 11  1  0  0  0  0
 15 19  1  0  0  0  0
 16 12  1  0  0  0  0
 17 13  1  0  0  0  0
 19 18  1  0  0  0  0
 21 14  1  0  0  0  0
 21 20  1  0  0  0  0
 23 22  1  1  0  0  0
 24 28  1  0  0  0  0
 24 25  2  0  0  0  0
 25 30  1  0  0  0  0
 26 24  1  0  0  0  0
 27 23  1  0  0  0  0
 27 31  2  0  0  0  0
 28 27  1  0  0  0  0
 30 31  1  0  0  0  0
 30 29  2  0  0  0  0
 33 32  2  0  0  0  0
M  END
>  <MODEL>
5

>  <REMARK>
 VINA RESULT:      -7.7      3.877      6.040
  Name = 
  6 active torsions:
  status: ('A' for Active; 'I' for Inactive)
    1  A    between atoms: C_9  and  C_23
    2  A    between atoms: C_15  and  C_23
    3  A    between atoms: C_16  and  O_22
    4  A    between atoms: C_19  and  C_33
    5  A    between atoms: C_20  and  O_21
    6  A    between atoms: C_25  and  C_26
                            x       y       z     vdW  Elec       q    Type
                         _______ _______ _______ _____ _____    ______ ____

>  <TORSDO>
F 6

$$$$
=
 OpenBabel11062421103D

 33 36  0  0  1  0  0  0  0  0999 V2000
  190.5080  173.4410  142.8190 C   0  0  0  0  0  2  0  0  0  0  0  0
  190.9690  175.5790  144.0920 N   0  0  0  0  0  0  0  0  0  0  0  0
  189.2970  176.8140  143.5110 C   0  0  0  0  0  0  0  0  0  0  0  0
  190.7200  172.5110  144.0000 C   0  0  0  0  0  2  0  0  0  0  0  0
  190.4380  176.7840  144.2280 N   0  0  0  0  0  0  0  0  0  0  0  0
  192.2410  173.8930  145.4520 C   0  0  0  0  0  2  0  0  0  0  0  0
  190.1910  174.8300  143.2770 C   0  0  0  0  0  0  0  0  0  0  0  0
  192.2530  175.2240  144.6920 C   0  0  1  0  0  3  0  0  0  0  0  0
  189.1080  175.5990  142.8790 C   0  0  0  0  0  0  0  0  0  0  0  0
  192.1250  172.6650  144.5560 C   0  0  0  0  0  2  0  0  0  0  0  0
  194.2400  175.8710  141.5210 C   0  0  0  0  0  3  0  0  0  0  0  0
  194.7360  175.4550  144.2510 C   0  0  0  0  0  0  0  0  0  0  0  0
  193.1810  175.6420  142.3930 C   0  0  0  0  0  3  0  0  0  0  0  0
  195.8180  175.6610  143.3550 C   0  0  0  0  0  0  0  0  0  0  0  0
  195.5550  175.8860  141.9950 C   0  0  0  0  0  0  0  0  0  0  0  0
  194.9880  175.3320  145.9960 Cl  0  0  0  0  0  0  0  0  0  0  0  0
  193.4150  175.4320  143.7560 C   0  0  0  0  0  0  0  0  0  0  0  0
  196.5900  175.6630  139.8560 O   0  0  0  0  0  1  0  0  0  0  0  0
  196.6160  176.1170  141.1180 O   0  0  0  0  0  0  0  0  0  0  0  0
  197.9150  174.5090  144.0620 C   0  0  0  0  0  1  0  0  0  0  0  0
  197.1620  175.6730  143.7590 O   0  0  0  0  0  0  0  0  0  0  0  0
  188.1180  178.2090  141.9900 O   0  0  0  0  0  1  0  0  0  0  0  0
  188.4510  178.0360  143.3360 C   0  0  1  0  0  3  0  0  0  0  0  0
  185.9970  177.4010  146.3470 C   0  0  0  0  0  0  0  0  0  0  0  0
  184.8600  177.8490  145.8120 C   0  0  0  0  0  3  0  0  0  0  0  0
  185.9860  176.9200  147.6490 O   0  0  0  0  0  1  0  0  0  0  0  0
  187.2160  177.9520  144.1730 C   0  0  0  0  0  0  0  0  0  0  0  0
  187.3000  177.4000  145.5820 C   0  0  0  0  0  2  0  0  0  0  0  0
  183.7560  178.7860  143.9450 O   0  0  0  0  0  0  0  0  0  0  0  0
  184.8330  178.3670  144.4430 C   0  0  0  0  0  0  0  0  0  0  0  0
  186.0690  178.4010  143.6580 C   0  0  0  0  0  3  0  0  0  0  0  0
  188.1890  175.0080  140.6740 C   0  0  0  0  0  2  0  0  0  0  0  0
  188.0040  175.2660  141.9620 C   0  0  0  0  0  3  0  0  0  0  0  0
  1  7  1  0  0  0  0
  1  4  1  0  0  0  0
  2  5  1  0  0  0  0
  2  8  1  0  0  0  0
  3  5  2  0  0  0  0
  4 10  1  0  0  0  0
  7  2  1  0  0  0  0
  8 17  1  6  0  0  0
  8  6  1  0  0  0  0
  9  7  2  0  0  0  0
  9  3  1  0  0  0  0
 10  6  1  0  0  0  0
 11 15  2  0  0  0  0
 11 13  1  0  0  0  0
 12 16  1  0  0  0  0
 13 17  2  0  0  0  0
 14 21  1  0  0  0  0
 14 12  2  0  0  0  0
 15 14  1  0  0  0  0
 17 12  1  0  0  0  0
 18 19  1  0  0  0  0
 19 15  1  0  0  0  0
 21 20  1  0  0  0  0
 23 22  1  6  0  0  0
 23  3  1  0  0  0  0
 23 27  1  0  0  0  0
 24 26  1  0  0  0  0
 25 24  2  0  0  0  0
 27 28  1  0  0  0  0
 28 24  1  0  0  0  0
 29 30  2  0  0  0  0
 30 25  1  0  0  0  0
 31 27  2  0  0  0  0
 31 30  1  0  0  0  0
 32 33  2  0  0  0  0
 33  9  1  0  0  0  0
M  END
>  <MODEL>
6

>  <REMARK>
 VINA RESULT:      -7.5      3.099      5.104
  Name = 
  6 active torsions:
  status: ('A' for Active; 'I' for Inactive)
    1  A    between atoms: C_9  and  C_23
    2  A    between atoms: C_15  and  C_23
    3  A    between atoms: C_16  and  O_22
    4  A    between atoms: C_19  and  C_33
    5  A    between atoms: C_20  and  O_21
    6  A    between atoms: C_25  and  C_26
                            x       y       z     vdW  Elec       q    Type
                         _______ _______ _______ _____ _____    ______ ____

>  <TORSDO>
F 6

$$$$
=
 OpenBabel11062421103D

 33 36  0  0  1  0  0  0  0  0999 V2000
  191.8480  176.3430  145.1080 C   0  0  0  0  0  2  0  0  0  0  0  0
  189.9620  174.6620  144.9620 N   0  0  0  0  0  0  0  0  0  0  0  0
  190.7030  173.2870  143.4730 C   0  0  0  0  0  0  0  0  0  0  0  0
  191.9380  176.3420  146.6240 C   0  0  0  0  0  2  0  0  0  0  0  0
  189.6560  173.5750  144.2720 N   0  0  0  0  0  0  0  0  0  0  0  0
  189.6100  175.6230  147.2570 C   0  0  0  0  0  2  0  0  0  0  0  0
  191.1930  175.0950  144.6060 C   0  0  0  0  0  0  0  0  0  0  0  0
  189.0160  175.2890  145.8840 C   0  0  1  0  0  3  0  0  0  0  0  0
  191.6960  174.2340  143.6410 C   0  0  0  0  0  0  0  0  0  0  0  0
  190.6140  176.7690  147.2370 C   0  0  0  0  0  2  0  0  0  0  0  0
  187.6790  177.7110  143.2820 C   0  0  0  0  0  3  0  0  0  0  0  0
  187.1770  177.0280  145.9570 C   0  0  0  0  0  0  0  0  0  0  0  0
  188.4430  176.7290  143.9050 C   0  0  0  0  0  3  0  0  0  0  0  0
  186.4160  178.0490  145.3290 C   0  0  0  0  0  0  0  0  0  0  0  0
  186.6660  178.3680  143.9850 C   0  0  0  0  0  0  0  0  0  0  0  0
  186.8040  176.4650  147.5900 Cl  0  0  0  0  0  0  0  0  0  0  0  0
  188.2040  176.3810  145.2380 C   0  0  0  0  0  0  0  0  0  0  0  0
  184.7930  179.0410  142.6680 O   0  0  0  0  0  1  0  0  0  0  0  0
  185.8990  179.3530  143.3590 O   0  0  0  0  0  0  0  0  0  0  0  0
  184.0670  178.2880  146.1360 C   0  0  0  0  0  1  0  0  0  0  0  0
  185.3960  178.7610  145.9790 O   0  0  0  0  0  0  0  0  0  0  0  0
  189.8250  171.1670  142.8530 O   0  0  0  0  0  1  0  0  0  0  0  0
  190.7080  172.1790  142.4670 C   0  0  1  0  0  3  0  0  0  0  0  0
  188.9020  174.0790  139.5310 C   0  0  0  0  0  0  0  0  0  0  0  0
  189.6980  173.7390  138.5160 C   0  0  0  0  0  3  0  0  0  0  0  0
  187.8180  174.9120  139.2880 O   0  0  0  0  0  1  0  0  0  0  0  0
  190.3510  172.6930  141.1100 C   0  0  0  0  0  0  0  0  0  0  0  0
  189.1410  173.5880  140.9400 C   0  0  0  0  0  2  0  0  0  0  0  0
  191.5980  172.5480  137.7710 O   0  0  0  0  0  0  0  0  0  0  0  0
  190.8530  172.8650  138.7350 C   0  0  0  0  0  0  0  0  0  0  0  0
  191.1400  172.3690  140.0820 C   0  0  0  0  0  3  0  0  0  0  0  0
  193.1730  175.1120  141.8810 C   0  0  0  0  0  2  0  0  0  0  0  0
  192.9680  174.2910  142.9020 C   0  0  0  0  0  3  0  0  0  0  0  0
  1  4  1  0  0  0  0
  2  8  1  0  0  0  0
  3  9  1  0  0  0  0
  3  5  2  0  0  0  0
  4 10  1  0  0  0  0
  5  2  1  0  0  0  0
  7  2  1  0  0  0  0
  7  1  1  0  0  0  0
  8 17  1  6  0  0  0
  8  6  1  0  0  0  0
  9  7  2  0  0  0  0
 10  6  1  0  0  0  0
 11 13  2  0  0  0  0
 11 15  1  0  0  0  0
 12 16  1  0  0  0  0
 13 17  1  0  0  0  0
 14 12  1  0  0  0  0
 14 21  1  0  0  0  0
 15 14  2  0  0  0  0
 17 12  2  0  0  0  0
 18 19  1  0  0  0  0
 19 15  1  0  0  0  0
 21 20  1  0  0  0  0
 23 22  1  1  0  0  0
 23  3  1  0  0  0  0
 24 28  1  0  0  0  0
 25 30  1  0  0  0  0
 25 24  2  0  0  0  0
 26 24  1  0  0  0  0
 27 23  1  0  0  0  0
 28 27  1  0  0  0  0
 29 30  2  0  0  0  0
 30 31  1  0  0  0  0
 31 27  2  0  0  0  0
 32 33  2  0  0  0  0
 33  9  1  0  0  0  0
M  END
>  <MODEL>
7

>  <REMARK>
 VINA RESULT:      -7.5      2.738      6.879
  Name = 
  6 active torsions:
  status: ('A' for Active; 'I' for Inactive)
    1  A    between atoms: C_9  and  C_23
    2  A    between atoms: C_15  and  C_23
    3  A    between atoms: C_16  and  O_22
    4  A    between atoms: C_19  and  C_33
    5  A    between atoms: C_20  and  O_21
    6  A    between atoms: C_25  and  C_26
                            x       y       z     vdW  Elec       q    Type
                         _______ _______ _______ _____ _____    ______ ____

>  <TORSDO>
F 6

$$$$
=
 OpenBabel11062421103D

 33 36  0  0  1  0  0  0  0  0999 V2000
  191.1740  177.0060  142.9400 C   0  0  0  0  0  2  0  0  0  0  0  0
  189.5330  175.1470  143.4410 N   0  0  0  0  0  0  0  0  0  0  0  0
  190.3870  173.4910  142.3510 C   0  0  0  0  0  0  0  0  0  0  0  0
  191.3330  177.4630  144.3790 C   0  0  0  0  0  2  0  0  0  0  0  0
  189.3480  173.8760  143.1190 N   0  0  0  0  0  0  0  0  0  0  0  0
  189.1570  176.6940  145.3840 C   0  0  0  0  0  2  0  0  0  0  0  0
  190.6750  175.5970  142.8730 C   0  0  0  0  0  0  0  0  0  0  0  0
  188.5530  175.9010  144.2200 C   0  0  1  0  0  3  0  0  0  0  0  0
  191.2470  174.5560  142.1570 C   0  0  0  0  0  0  0  0  0  0  0  0
  189.9930  177.8930  144.9530 C   0  0  0  0  0  2  0  0  0  0  0  0
  186.9440  177.5290  141.1890 C   0  0  0  0  0  3  0  0  0  0  0  0
  186.3450  177.0980  143.8970 C   0  0  0  0  0  0  0  0  0  0  0  0
  187.8560  176.8700  142.0070 C   0  0  0  0  0  3  0  0  0  0  0  0
  185.4260  177.7940  143.0670 C   0  0  0  0  0  0  0  0  0  0  0  0
  185.7310  177.9880  141.7110 C   0  0  0  0  0  0  0  0  0  0  0  0
  185.9500  176.6770  145.5670 Cl  0  0  0  0  0  0  0  0  0  0  0  0
  187.5700  176.6500  143.3590 C   0  0  0  0  0  0  0  0  0  0  0  0
  183.9400  177.9690  140.1340 O   0  0  0  0  0  1  0  0  0  0  0  0
  184.8160  178.6480  140.8880 O   0  0  0  0  0  0  0  0  0  0  0  0
  184.0690  179.3620  144.4540 C   0  0  0  0  0  1  0  0  0  0  0  0
  184.1990  178.2960  143.5270 O   0  0  0  0  0  0  0  0  0  0  0  0
  189.7410  171.2050  142.4130 O   0  0  0  0  0  1  0  0  0  0  0  0
  190.4980  172.1450  141.7090 C   0  0  1  0  0  3  0  0  0  0  0  0
  188.7230  173.2340  138.3680 C   0  0  0  0  0  0  0  0  0  0  0  0
  189.2710  172.3590  137.5240 C   0  0  0  0  0  3  0  0  0  0  0  0
  187.8170  174.1660  137.8800 O   0  0  0  0  0  1  0  0  0  0  0  0
  190.0620  172.2000  140.2800 C   0  0  0  0  0  0  0  0  0  0  0  0
  189.0580  173.2470  139.8420 C   0  0  0  0  0  2  0  0  0  0  0  0
  190.7440  170.5400  137.1980 O   0  0  0  0  0  0  0  0  0  0  0  0
  190.2330  171.3630  138.0010 C   0  0  0  0  0  0  0  0  0  0  0  0
  190.6040  171.3370  139.4180 C   0  0  0  0  0  3  0  0  0  0  0  0
  193.6690  174.2830  141.8190 C   0  0  0  0  0  2  0  0  0  0  0  0
  192.4640  174.5420  141.3280 C   0  0  0  0  0  3  0  0  0  0  0  0
  1  4  1  0  0  0  0
  2  8  1  0  0  0  0
  3  5  2  0  0  0  0
  4 10  1  0  0  0  0
  5  2  1  0  0  0  0
  7  1  1  0  0  0  0
  7  2  1  0  0  0  0
  8 17  1  6  0  0  0
  8  6  1  0  0  0  0
  9  3  1  0  0  0  0
  9  7  2  0  0  0  0
 10  6  1  0  0  0  0
 11 15  2  0  0  0  0
 11 13  1  0  0  0  0
 12 16  1  0  0  0  0
 13 17  2  0  0  0  0
 14 21  1  0  0  0  0
 14 12  2  0  0  0  0
 15 14  1  0  0  0  0
 17 12  1  0  0  0  0
 18 19  1  0  0  0  0
 19 15  1  0  0  0  0
 21 20  1  0  0  0  0
 23  3  1  0  0  0  0
 23 22  1  1  0  0  0
 24 28  1  0  0  0  0
 25 30  1  0  0  0  0
 25 24  2  0  0  0  0
 26 24  1  0  0  0  0
 27 23  1  0  0  0  0
 28 27  1  0  0  0  0
 29 30  2  0  0  0  0
 30 31  1  0  0  0  0
 31 27  2  0  0  0  0
 33 32  2  0  0  0  0
 33  9  1  0  0  0  0
M  END
>  <MODEL>
8

>  <REMARK>
 VINA RESULT:      -7.4      2.532      7.058
  Name = 
  6 active torsions:
  status: ('A' for Active; 'I' for Inactive)
    1  A    between atoms: C_9  and  C_23
    2  A    between atoms: C_15  and  C_23
    3  A    between atoms: C_16  and  O_22
    4  A    between atoms: C_19  and  C_33
    5  A    between atoms: C_20  and  O_21
    6  A    between atoms: C_25  and  C_26
                            x       y       z     vdW  Elec       q    Type
                         _______ _______ _______ _____ _____    ______ ____

>  <TORSDO>
F 6

$$$$
=
 OpenBabel11062421103D

 33 36  0  0  1  0  0  0  0  0999 V2000
  193.6560  176.5990  144.7610 C   0  0  0  0  0  2  0  0  0  0  0  0
  192.1770  174.5470  144.7860 N   0  0  0  0  0  0  0  0  0  0  0  0
  192.8810  173.4670  143.0560 C   0  0  0  0  0  0  0  0  0  0  0  0
  194.0430  176.5270  146.2280 C   0  0  0  0  0  2  0  0  0  0  0  0
  191.9760  173.4620  144.0550 N   0  0  0  0  0  0  0  0  0  0  0  0
  192.0920  175.2640  147.1930 C   0  0  0  0  0  2  0  0  0  0  0  0
  193.1930  175.2670  144.2600 C   0  0  0  0  0  0  0  0  0  0  0  0
  191.3220  174.8870  145.9220 C   0  0  1  0  0  3  0  0  0  0  0  0
  193.6650  174.6020  143.1380 C   0  0  0  0  0  0  0  0  0  0  0  0
  192.8080  176.6070  147.1100 C   0  0  0  0  0  2  0  0  0  0  0  0
  189.2800  177.5130  144.0900 C   0  0  0  0  0  3  0  0  0  0  0  0
  188.9650  175.7510  146.2520 C   0  0  0  0  0  0  0  0  0  0  0  0
  190.3300  176.6840  144.4710 C   0  0  0  0  0  3  0  0  0  0  0  0
  187.9020  176.6170  145.8790 C   0  0  0  0  0  0  0  0  0  0  0  0
  188.0670  177.4800  144.7850 C   0  0  0  0  0  0  0  0  0  0  0  0
  188.7650  174.5270  147.5110 Cl  0  0  0  0  0  0  0  0  0  0  0  0
  190.1870  175.8030  145.5480 C   0  0  0  0  0  0  0  0  0  0  0  0
  186.7350  178.5320  143.1080 O   0  0  0  0  0  1  0  0  0  0  0  0
  187.0140  178.3110  144.4010 O   0  0  0  0  0  0  0  0  0  0  0  0
  186.3750  177.4840  147.6520 C   0  0  0  0  0  1  0  0  0  0  0  0
  186.6660  176.6490  146.5410 O   0  0  0  0  0  0  0  0  0  0  0  0
  192.6880  171.1720  142.4690 O   0  0  0  0  0  1  0  0  0  0  0  0
  192.9190  172.4510  141.9580 C   0  0  1  0  0  3  0  0  0  0  0  0
  189.5220  172.9700  140.0370 C   0  0  0  0  0  0  0  0  0  0  0  0
  189.9840  173.4660  138.8890 C   0  0  0  0  0  3  0  0  0  0  0  0
  188.1530  172.8180  140.2050 O   0  0  0  0  0  1  0  0  0  0  0  0
  191.9180  172.7780  140.8970 C   0  0  0  0  0  0  0  0  0  0  0  0
  190.4420  172.5670  141.1670 C   0  0  0  0  0  2  0  0  0  0  0  0
  191.8490  174.1110  137.5890 O   0  0  0  0  0  0  0  0  0  0  0  0
  191.4220  173.6430  138.6770 C   0  0  0  0  0  0  0  0  0  0  0  0
  192.3600  173.2810  139.7420 C   0  0  0  0  0  3  0  0  0  0  0  0
  194.5570  175.9240  141.2640 C   0  0  0  0  0  2  0  0  0  0  0  0
  194.7240  174.9900  142.1910 C   0  0  0  0  0  3  0  0  0  0  0  0
  1  4  1  0  0  0  0
  2  8  1  0  0  0  0
  3  9  1  0  0  0  0
  3  5  2  0  0  0  0
  4 10  1  0  0  0  0
  5  2  1  0  0  0  0
  7  1  1  0  0  0  0
  7  2  1  0  0  0  0
  8 17  1  6  0  0  0
  8  6  1  0  0  0  0
  9  7  2  0  0  0  0
 10  6  1  0  0  0  0
 11 13  2  0  0  0  0
 11 15  1  0  0  0  0
 12 16  1  0  0  0  0
 13 17  1  0  0  0  0
 14 12  1  0  0  0  0
 14 21  1  0  0  0  0
 15 14  2  0  0  0  0
 17 12  2  0  0  0  0
 18 19  1  0  0  0  0
 19 15  1  0  0  0  0
 21 20  1  0  0  0  0
 23 22  1  1  0  0  0
 23  3  1  0  0  0  0
 24 26  1  0  0  0  0
 24 28  1  0  0  0  0
 25 24  2  0  0  0  0
 27 28  1  0  0  0  0
 27 23  1  0  0  0  0
 29 30  2  0  0  0  0
 30 25  1  0  0  0  0
 30 31  1  0  0  0  0
 31 27  2  0  0  0  0
 32 33  2  0  0  0  0
 33  9  1  0  0  0  0
M  END
>  <MODEL>
9

>  <REMARK>
 VINA RESULT:      -7.4      3.323      7.279
  Name = 
  6 active torsions:
  status: ('A' for Active; 'I' for Inactive)
    1  A    between atoms: C_9  and  C_23
    2  A    between atoms: C_15  and  C_23
    3  A    between atoms: C_16  and  O_22
    4  A    between atoms: C_19  and  C_33
    5  A    between atoms: C_20  and  O_21
    6  A    between atoms: C_25  and  C_26
                            x       y       z     vdW  Elec       q    Type
                         _______ _______ _______ _____ _____    ______ ____

>  <TORSDO>
F 6

$$$$
