=
 OpenBabel11062423103D

 28 31  0  0  1  0  0  0  0  0999 V2000
  190.3820  176.3910  143.8330 C   0  0  0  0  0  3  0  0  0  0  0  0
  186.4910  178.7190  141.8910 C   0  0  0  0  0  3  0  0  0  0  0  0
  191.5410  176.0230  144.3720 C   0  0  0  0  0  0  0  0  0  0  0  0
  189.8110  175.7980  142.5880 C   0  0  1  0  0  3  0  0  0  0  0  0
  190.5050  174.4970  142.2510 C   0  0  0  0  0  0  0  0  0  0  0  0
  191.6700  174.1930  142.7470 N   0  0  0  0  0  0  0  0  0  0  0  0
  188.5380  173.9420  140.8470 C   0  0  0  0  0  2  0  0  0  0  0  0
  191.8910  176.4990  145.7280 C   0  0  0  0  0  0  0  0  0  0  0  0
  189.5500  176.2060  146.6120 C   0  0  0  0  0  0  0  0  0  0  0  0
  189.8260  173.5660  141.4130 N   0  0  0  0  0  2  0  0  0  0  0  0
  187.4960  176.7960  142.9840 C   0  0  0  0  0  0  0  0  0  0  0  0
  187.3060  176.5260  145.5160 C   0  0  0  0  0  2  0  0  0  0  0  0
  188.6210  176.9940  146.0520 C   0  0  0  0  0  3  0  0  0  0  0  0
  193.1010  176.6830  146.0260 O   0  0  0  0  0  0  0  0  0  0  0  0
  190.8790  176.7350  146.7290 N   0  0  0  0  0  2  0  0  0  0  0  0
  192.4410  175.1000  143.6040 C   0  0  0  0  0  2  0  0  0  0  0  0
  187.6250  174.4980  141.9420 C   0  0  0  0  0  2  0  0  0  0  0  0
  187.2360  177.5430  141.8260 C   0  0  0  0  0  3  0  0  0  0  0  0
  188.3100  175.5320  142.8640 C   0  0  1  0  0  3  0  0  0  0  0  0
  186.0010  179.1660  143.1160 C   0  0  0  0  0  3  0  0  0  0  0  0
  186.2530  178.4450  144.2930 C   0  0  0  0  0  0  0  0  0  0  0  0
  187.0000  177.2530  144.2340 C   0  0  0  0  0  0  0  0  0  0  0  0
  189.3410  174.7610  146.8650 C   0  0  0  0  0  0  0  0  0  0  0  0
  188.8500  174.3870  147.9630 O   0  0  0  0  0  1  0  0  0  0  0  0
  189.6490  173.8030  145.9070 O   0  0  0  0  0  0  0  0  0  0  0  0
  185.7690  178.8970  145.5290 O   0  0  0  0  0  0  0  0  0  0  0  0
  184.4060  178.3120  147.3560 N   0  0  0  0  0  1  0  0  0  0  0  0
  184.4260  178.7100  145.9600 C   0  0  0  0  0  2  0  0  0  0  0  0
  1  3  2  0  0  0  0
  2 20  1  0  0  0  0
  3  8  1  0  0  0  0
  4 19  1  0  0  0  0
  4  1  1  1  0  0  0
  5  4  1  0  0  0  0
  5  6  2  0  0  0  0
  6 16  1  0  0  0  0
  7 10  1  0  0  0  0
  7 17  1  0  0  0  0
  8 14  2  0  0  0  0
  8 15  1  0  0  0  0
  9 15  1  0  0  0  0
  9 23  1  0  0  0  0
 10  5  1  0  0  0  0
 11 22  2  0  0  0  0
 12 13  1  0  0  0  0
 13  9  2  0  0  0  0
 16  3  1  0  0  0  0
 18  2  2  0  0  0  0
 18 11  1  0  0  0  0
 19 17  1  6  0  0  0
 19 11  1  0  0  0  0
 20 21  2  0  0  0  0
 21 26  1  0  0  0  0
 22 21  1  0  0  0  0
 22 12  1  0  0  0  0
 23 24  1  0  0  0  0
 25 23  2  0  0  0  0
 26 28  1  0  0  0  0
 28 27  1  0  0  0  0
M  END
>  <MODEL>
1

>  <REMARK>
 VINA RESULT:      -7.7      0.000      0.000
  Name = 
  3 active torsions:
  status: ('A' for Active; 'I' for Inactive)
    1  A    between atoms: CA_10  and  C_13
    2  A    between atoms: O_17  and  C_25
    3  A    between atoms: O_17  and  C_27
                            x       y       z     vdW  Elec       q    Type
                         _______ _______ _______ _____ _____    ______ ____

>  <TORSDO>
F 3

$$$$
=
 OpenBabel11062423103D

 28 31  0  0  1  0  0  0  0  0999 V2000
  186.7770  176.2960  144.9180 C   0  0  0  0  0  3  0  0  0  0  0  0
  188.0620  172.7020  141.7920 C   0  0  0  0  0  3  0  0  0  0  0  0
  186.2670  177.0650  145.8740 C   0  0  0  0  0  0  0  0  0  0  0  0
  186.7720  176.6480  143.4670 C   0  0  1  0  0  3  0  0  0  0  0  0
  186.4780  178.1200  143.2770 C   0  0  0  0  0  0  0  0  0  0  0  0
  185.9190  178.8330  144.2130 N   0  0  0  0  0  0  0  0  0  0  0  0
  187.4760  177.9130  141.0170 C   0  0  0  0  0  2  0  0  0  0  0  0
  186.5420  176.7360  147.2900 C   0  0  0  0  0  0  0  0  0  0  0  0
  188.9430  176.1120  146.8480 C   0  0  0  0  0  0  0  0  0  0  0  0
  186.8800  178.7390  142.0590 N   0  0  0  0  0  2  0  0  0  0  0  0
  188.4730  174.8450  142.8590 C   0  0  0  0  0  0  0  0  0  0  0  0
  190.0320  174.9870  144.8760 C   0  0  0  0  0  2  0  0  0  0  0  0
  189.1230  175.0410  146.0620 C   0  0  0  0  0  3  0  0  0  0  0  0
  185.6850  177.0180  148.1690 O   0  0  0  0  0  0  0  0  0  0  0  0
  187.7840  176.1220  147.6930 N   0  0  0  0  0  2  0  0  0  0  0  0
  185.4600  178.2710  145.4880 C   0  0  0  0  0  2  0  0  0  0  0  0
  188.5830  177.0370  141.6090 C   0  0  0  0  0  2  0  0  0  0  0  0
  187.8280  174.0730  141.8830 C   0  0  0  0  0  3  0  0  0  0  0  0
  188.1850  176.3250  142.9200 C   0  0  1  0  0  3  0  0  0  0  0  0
  188.9390  172.0850  142.6810 C   0  0  0  0  0  3  0  0  0  0  0  0
  189.5920  172.8310  143.6750 C   0  0  0  0  0  0  0  0  0  0  0  0
  189.3650  174.2170  143.7680 C   0  0  0  0  0  0  0  0  0  0  0  0
  189.7140  177.3680  146.6940 C   0  0  0  0  0  0  0  0  0  0  0  0
  190.3540  177.8280  147.6770 O   0  0  0  0  0  1  0  0  0  0  0  0
  189.7740  178.0410  145.4800 O   0  0  0  0  0  0  0  0  0  0  0  0
  190.4700  172.2110  144.5760 O   0  0  0  0  0  0  0  0  0  0  0  0
  192.7970  172.5590  144.6020 N   0  0  0  0  0  1  0  0  0  0  0  0
  191.7270  171.6650  144.1950 C   0  0  0  0  0  2  0  0  0  0  0  0
  1  3  2  0  0  0  0
  2 18  2  0  0  0  0
  2 20  1  0  0  0  0
  3  8  1  0  0  0  0
  4  1  1  1  0  0  0
  5  4  1  0  0  0  0
  5  6  2  0  0  0  0
  6 16  1  0  0  0  0
  7 17  1  0  0  0  0
  7 10  1  0  0  0  0
  8 15  1  0  0  0  0
  8 14  2  0  0  0  0
  9 15  1  0  0  0  0
 10  5  1  0  0  0  0
 11 19  1  0  0  0  0
 11 22  2  0  0  0  0
 12 13  1  0  0  0  0
 13  9  2  0  0  0  0
 16  3  1  0  0  0  0
 18 11  1  0  0  0  0
 19 17  1  6  0  0  0
 19  4  1  0  0  0  0
 20 21  2  0  0  0  0
 21 22  1  0  0  0  0
 21 26  1  0  0  0  0
 22 12  1  0  0  0  0
 23  9  1  0  0  0  0
 23 24  1  0  0  0  0
 25 23  2  0  0  0  0
 28 26  1  0  0  0  0
 28 27  1  0  0  0  0
M  END
>  <MODEL>
2

>  <REMARK>
 VINA RESULT:      -6.7      2.364      5.606
  Name = 
  3 active torsions:
  status: ('A' for Active; 'I' for Inactive)
    1  A    between atoms: CA_10  and  C_13
    2  A    between atoms: O_17  and  C_25
    3  A    between atoms: O_17  and  C_27
                            x       y       z     vdW  Elec       q    Type
                         _______ _______ _______ _____ _____    ______ ____

>  <TORSDO>
F 3

$$$$
=
 OpenBabel11062423103D

 28 31  0  0  1  0  0  0  0  0999 V2000
  188.2010  177.6010  144.0300 C   0  0  0  0  0  3  0  0  0  0  0  0
  191.2330  176.9530  147.8670 C   0  0  0  0  0  3  0  0  0  0  0  0
  187.5890  177.9450  142.9000 C   0  0  0  0  0  0  0  0  0  0  0  0
  187.5870  177.7240  145.3850 C   0  0  1  0  0  3  0  0  0  0  0  0
  186.0900  177.9080  145.2770 C   0  0  0  0  0  0  0  0  0  0  0  0
  185.5270  178.3070  144.1720 N   0  0  0  0  0  0  0  0  0  0  0  0
  185.9410  177.1650  147.6380 C   0  0  0  0  0  2  0  0  0  0  0  0
  188.1910  177.5570  141.6050 C   0  0  0  0  0  0  0  0  0  0  0  0
  188.8800  175.2750  142.4250 C   0  0  0  0  0  0  0  0  0  0  0  0
  185.2840  177.5800  146.4060 N   0  0  0  0  0  2  0  0  0  0  0  0
  189.3550  176.2540  146.4930 C   0  0  0  0  0  0  0  0  0  0  0  0
  189.6910  174.4920  144.6760 C   0  0  0  0  0  2  0  0  0  0  0  0
  189.7970  175.2680  143.4020 C   0  0  0  0  0  3  0  0  0  0  0  0
  188.0210  178.2930  140.5980 O   0  0  0  0  0  0  0  0  0  0  0  0
  188.9500  176.3380  141.4630 N   0  0  0  0  0  2  0  0  0  0  0  0
  186.2830  178.6800  142.9720 C   0  0  0  0  0  2  0  0  0  0  0  0
  186.9820  176.0830  147.3420 C   0  0  0  0  0  2  0  0  0  0  0  0
  189.8900  177.0580  147.5090 C   0  0  0  0  0  3  0  0  0  0  0  0
  187.8960  176.4060  146.1390 C   0  0  1  0  0  3  0  0  0  0  0  0
  192.0600  176.0460  147.2070 C   0  0  0  0  0  3  0  0  0  0  0  0
  191.5550  175.2340  146.1800 C   0  0  0  0  0  0  0  0  0  0  0  0
  190.1980  175.3310  145.8180 C   0  0  0  0  0  0  0  0  0  0  0  0
  187.6710  174.4190  142.4420 C   0  0  0  0  0  0  0  0  0  0  0  0
  186.5740  174.9000  142.8310 O   0  0  0  0  0  1  0  0  0  0  0  0
  187.7090  173.0980  142.0140 O   0  0  0  0  0  0  0  0  0  0  0  0
  192.3870  174.3260  145.5090 O   0  0  0  0  0  0  0  0  0  0  0  0
  193.3520  175.7450  143.8990 N   0  0  0  0  0  1  0  0  0  0  0  0
  193.6040  174.7000  144.8740 C   0  0  0  0  0  2  0  0  0  0  0  0
  3 16  1  0  0  0  0
  3  1  2  0  0  0  0
  4  1  1  6  0  0  0
  4 19  1  0  0  0  0
  5  4  1  0  0  0  0
  5 10  1  0  0  0  0
  6  5  2  0  0  0  0
  8  3  1  0  0  0  0
  9 23  1  0  0  0  0
  9 13  2  0  0  0  0
 10  7  1  0  0  0  0
 11 18  2  0  0  0  0
 12 22  1  0  0  0  0
 13 12  1  0  0  0  0
 14  8  2  0  0  0  0
 15  8  1  0  0  0  0
 15  9  1  0  0  0  0
 16  6  1  0  0  0  0
 17  7  1  0  0  0  0
 18  2  1  0  0  0  0
 19 11  1  0  0  0  0
 19 17  1  1  0  0  0
 20  2  2  0  0  0  0
 21 20  1  0  0  0  0
 22 21  2  0  0  0  0
 22 11  1  0  0  0  0
 23 24  1  0  0  0  0
 25 23  2  0  0  0  0
 26 21  1  0  0  0  0
 27 28  1  0  0  0  0
 28 26  1  0  0  0  0
M  END
>  <MODEL>
3

>  <REMARK>
 VINA RESULT:      -6.6      2.276      6.268
  Name = 
  3 active torsions:
  status: ('A' for Active; 'I' for Inactive)
    1  A    between atoms: CA_10  and  C_13
    2  A    between atoms: O_17  and  C_25
    3  A    between atoms: O_17  and  C_27
                            x       y       z     vdW  Elec       q    Type
                         _______ _______ _______ _____ _____    ______ ____

>  <TORSDO>
F 3

$$$$
=
 OpenBabel11062423103D

 28 31  0  0  1  0  0  0  0  0999 V2000
  190.2530  173.3190  144.3920 C   0  0  0  0  0  3  0  0  0  0  0  0
  187.2280  176.5800  146.5240 C   0  0  0  0  0  3  0  0  0  0  0  0
  190.8700  172.2530  143.8910 C   0  0  0  0  0  0  0  0  0  0  0  0
  190.8830  174.2790  145.3450 C   0  0  1  0  0  3  0  0  0  0  0  0
  192.3860  174.1120  145.3560 C   0  0  0  0  0  0  0  0  0  0  0  0
  192.9580  173.0270  144.9150 N   0  0  0  0  0  0  0  0  0  0  0  0
  192.5210  176.3880  146.3290 C   0  0  0  0  0  2  0  0  0  0  0  0
  190.2410  171.5120  142.7760 C   0  0  0  0  0  0  0  0  0  0  0  0
  189.4590  173.6050  141.6110 C   0  0  0  0  0  0  0  0  0  0  0  0
  193.1860  175.1990  145.8130 N   0  0  0  0  0  2  0  0  0  0  0  0
  189.0610  176.0380  145.0250 C   0  0  0  0  0  0  0  0  0  0  0  0
  188.6320  175.8030  142.5190 C   0  0  0  0  0  2  0  0  0  0  0  0
  188.5500  174.3290  142.2790 C   0  0  0  0  0  3  0  0  0  0  0  0
  190.4360  170.2720  142.6690 O   0  0  0  0  0  0  0  0  0  0  0  0
  189.4280  172.1810  141.7900 N   0  0  0  0  0  2  0  0  0  0  0  0
  192.2090  171.8580  144.4430 C   0  0  0  0  0  2  0  0  0  0  0  0
  191.4310  176.8460  145.3570 C   0  0  0  0  0  2  0  0  0  0  0  0
  188.5710  176.2710  146.3170 C   0  0  0  0  0  3  0  0  0  0  0  0
  190.5220  175.7030  144.8530 C   0  0  1  0  0  3  0  0  0  0  0  0
  186.3560  176.6530  145.4390 C   0  0  0  0  0  3  0  0  0  0  0  0
  186.8160  176.4160  144.1350 C   0  0  0  0  0  0  0  0  0  0  0  0
  188.1720  176.1090  143.9190 C   0  0  0  0  0  0  0  0  0  0  0  0
  190.6290  174.2040  140.9270 C   0  0  0  0  0  0  0  0  0  0  0  0
  190.7050  174.1590  139.6710 O   0  0  0  0  0  0  0  0  0  0  0  0
  191.6380  174.8430  141.6370 O   0  0  0  0  0  1  0  0  0  0  0  0
  185.9390  176.4810  143.0420 O   0  0  0  0  0  0  0  0  0  0  0  0
  186.0920  178.7360  142.3870 N   0  0  0  0  0  1  0  0  0  0  0  0
  185.1900  177.6430  142.7070 C   0  0  0  0  0  2  0  0  0  0  0  0
  3  1  2  0  0  0  0
  3 16  1  0  0  0  0
  4  1  1  6  0  0  0
  4  5  1  0  0  0  0
  5 10  1  0  0  0  0
  6  5  2  0  0  0  0
  8  3  1  0  0  0  0
  9 15  1  0  0  0  0
  9 13  2  0  0  0  0
 10  7  1  0  0  0  0
 11 18  2  0  0  0  0
 12 22  1  0  0  0  0
 13 12  1  0  0  0  0
 14  8  2  0  0  0  0
 15  8  1  0  0  0  0
 16  6  1  0  0  0  0
 17  7  1  0  0  0  0
 18  2  1  0  0  0  0
 19 11  1  0  0  0  0
 19  4  1  0  0  0  0
 19 17  1  1  0  0  0
 20  2  2  0  0  0  0
 21 20  1  0  0  0  0
 22 21  2  0  0  0  0
 22 11  1  0  0  0  0
 23  9  1  0  0  0  0
 23 25  1  0  0  0  0
 24 23  2  0  0  0  0
 26 21  1  0  0  0  0
 27 28  1  0  0  0  0
 28 26  1  0  0  0  0
M  END
>  <MODEL>
4

>  <REMARK>
 VINA RESULT:      -6.5      2.709      4.864
  Name = 
  3 active torsions:
  status: ('A' for Active; 'I' for Inactive)
    1  A    between atoms: CA_10  and  C_13
    2  A    between atoms: O_17  and  C_25
    3  A    between atoms: O_17  and  C_27
                            x       y       z     vdW  Elec       q    Type
                         _______ _______ _______ _____ _____    ______ ____

>  <TORSDO>
F 3

$$$$
=
 OpenBabel11062423103D

 28 31  0  0  1  0  0  0  0  0999 V2000
  189.2810  174.8120  145.2440 C   0  0  0  0  0  3  0  0  0  0  0  0
  185.6070  176.8680  147.8140 C   0  0  0  0  0  3  0  0  0  0  0  0
  190.0940  174.0400  144.5280 C   0  0  0  0  0  0  0  0  0  0  0  0
  189.6570  175.4470  146.5410 C   0  0  1  0  0  3  0  0  0  0  0  0
  191.1580  175.4240  146.7310 C   0  0  0  0  0  0  0  0  0  0  0  0
  191.9210  174.6100  146.0590 N   0  0  0  0  0  0  0  0  0  0  0  0
  190.8630  177.2380  148.3950 C   0  0  0  0  0  2  0  0  0  0  0  0
  189.7070  173.6650  143.1500 C   0  0  0  0  0  0  0  0  0  0  0  0
  188.7840  175.9480  142.6150 C   0  0  0  0  0  0  0  0  0  0  0  0
  191.7410  176.3610  147.6330 N   0  0  0  0  0  2  0  0  0  0  0  0
  187.6590  177.0350  146.5250 C   0  0  0  0  0  0  0  0  0  0  0  0
  187.5620  177.6240  144.0420 C   0  0  0  0  0  2  0  0  0  0  0  0
  187.7130  176.3170  143.3310 C   0  0  0  0  0  3  0  0  0  0  0  0
  190.0820  172.5590  142.6810 O   0  0  0  0  0  0  0  0  0  0  0  0
  188.9300  174.5520  142.3190 N   0  0  0  0  0  2  0  0  0  0  0  0
  191.4010  173.6050  145.1250 C   0  0  0  0  0  2  0  0  0  0  0  0
  189.8400  177.8970  147.4650 C   0  0  0  0  0  2  0  0  0  0  0  0
  186.9950  176.7710  147.7310 C   0  0  0  0  0  3  0  0  0  0  0  0
  189.1630  176.9140  146.4840 C   0  0  1  0  0  3  0  0  0  0  0  0
  184.8660  177.2240  146.6890 C   0  0  0  0  0  3  0  0  0  0  0  0
  185.5020  177.4850  145.4660 C   0  0  0  0  0  0  0  0  0  0  0  0
  186.9040  177.3950  145.3770 C   0  0  0  0  0  0  0  0  0  0  0  0
  189.9320  176.8480  142.3520 C   0  0  0  0  0  0  0  0  0  0  0  0
  189.7190  178.0420  142.0130 O   0  0  0  0  0  0  0  0  0  0  0  0
  191.2440  176.4150  142.4970 O   0  0  0  0  0  1  0  0  0  0  0  0
  184.7580  177.8350  144.3300 O   0  0  0  0  0  0  0  0  0  0  0  0
  185.0870  180.1650  144.2610 N   0  0  0  0  0  1  0  0  0  0  0  0
  184.1110  179.0930  144.1750 C   0  0  0  0  0  2  0  0  0  0  0  0
  3 16  1  0  0  0  0
  3  1  2  0  0  0  0
  4  1  1  6  0  0  0
  4  5  1  0  0  0  0
  5 10  1  0  0  0  0
  6  5  2  0  0  0  0
  8  3  1  0  0  0  0
  9 13  2  0  0  0  0
 10  7  1  0  0  0  0
 11 18  2  0  0  0  0
 12 22  1  0  0  0  0
 13 12  1  0  0  0  0
 14  8  2  0  0  0  0
 15  9  1  0  0  0  0
 15  8  1  0  0  0  0
 16  6  1  0  0  0  0
 17  7  1  0  0  0  0
 18  2  1  0  0  0  0
 19 11  1  0  0  0  0
 19  4  1  0  0  0  0
 19 17  1  1  0  0  0
 20  2  2  0  0  0  0
 21 20  1  0  0  0  0
 22 21  2  0  0  0  0
 22 11  1  0  0  0  0
 23 25  1  0  0  0  0
 23  9  1  0  0  0  0
 24 23  2  0  0  0  0
 26 21  1  0  0  0  0
 28 27  1  0  0  0  0
 28 26  1  0  0  0  0
M  END
>  <MODEL>
5

>  <REMARK>
 VINA RESULT:      -6.5      2.283      4.594
  Name = 
  3 active torsions:
  status: ('A' for Active; 'I' for Inactive)
    1  A    between atoms: CA_10  and  C_13
    2  A    between atoms: O_17  and  C_25
    3  A    between atoms: O_17  and  C_27
                            x       y       z     vdW  Elec       q    Type
                         _______ _______ _______ _____ _____    ______ ____

>  <TORSDO>
F 3

$$$$
=
 OpenBabel11062423103D

 28 31  0  0  1  0  0  0  0  0999 V2000
  189.1430  175.3450  144.7720 C   0  0  0  0  0  3  0  0  0  0  0  0
  188.3520  172.9960  140.5070 C   0  0  0  0  0  3  0  0  0  0  0  0
  189.3310  175.7210  146.0340 C   0  0  0  0  0  0  0  0  0  0  0  0
  188.1350  175.9570  143.8580 C   0  0  1  0  0  3  0  0  0  0  0  0
  187.6470  177.2780  144.4100 C   0  0  0  0  0  0  0  0  0  0  0  0
  187.7900  177.5900  145.6670 N   0  0  0  0  0  0  0  0  0  0  0  0
  186.8910  177.8320  142.1150 C   0  0  0  0  0  2  0  0  0  0  0  0
  190.5130  175.2190  146.7690 C   0  0  0  0  0  0  0  0  0  0  0  0
  192.0480  175.4500  144.7840 C   0  0  0  0  0  0  0  0  0  0  0  0
  187.0670  178.2170  143.5080 N   0  0  0  0  0  2  0  0  0  0  0  0
  189.1580  174.9100  141.7680 C   0  0  0  0  0  0  0  0  0  0  0  0
  191.6430  175.1180  142.3210 C   0  0  0  0  0  2  0  0  0  0  0  0
  191.7610  174.6600  143.7400 C   0  0  0  0  0  3  0  0  0  0  0  0
  190.4420  175.0500  148.0140 O   0  0  0  0  0  0  0  0  0  0  0  0
  191.7580  174.9420  146.0940 N   0  0  0  0  0  2  0  0  0  0  0  0
  188.3600  176.6770  146.6630 C   0  0  0  0  0  2  0  0  0  0  0  0
  188.1890  177.2340  141.5650 C   0  0  0  0  0  2  0  0  0  0  0  0
  188.1070  174.1870  141.1900 C   0  0  0  0  0  3  0  0  0  0  0  0
  188.8420  176.1910  142.5000 C   0  0  1  0  0  3  0  0  0  0  0  0
  189.6540  172.5120  140.4000 C   0  0  0  0  0  3  0  0  0  0  0  0
  190.7270  173.2090  140.9770 C   0  0  0  0  0  0  0  0  0  0  0  0
  190.4860  174.4150  141.6620 C   0  0  0  0  0  0  0  0  0  0  0  0
  192.3900  176.8850  144.6430 C   0  0  0  0  0  0  0  0  0  0  0  0
  193.5610  177.2720  144.9000 O   0  0  0  0  0  1  0  0  0  0  0  0
  191.4570  177.8160  144.2070 O   0  0  0  0  0  0  0  0  0  0  0  0
  192.0370  172.7200  140.8780 O   0  0  0  0  0  0  0  0  0  0  0  0
  192.1490  171.2120  142.6800 N   0  0  0  0  0  1  0  0  0  0  0  0
  192.4130  171.4040  141.2650 C   0  0  0  0  0  2  0  0  0  0  0  0
  1  3  2  0  0  0  0
  2 18  1  0  0  0  0
  3 16  1  0  0  0  0
  3  8  1  0  0  0  0
  4  5  1  0  0  0  0
  4  1  1  1  0  0  0
  5  6  2  0  0  0  0
  6 16  1  0  0  0  0
  7 10  1  0  0  0  0
  8 14  2  0  0  0  0
  9 15  1  0  0  0  0
 10  5  1  0  0  0  0
 11 19  1  0  0  0  0
 12 13  1  0  0  0  0
 13  9  2  0  0  0  0
 15  8  1  0  0  0  0
 17  7  1  0  0  0  0
 18 11  2  0  0  0  0
 19 17  1  6  0  0  0
 19  4  1  0  0  0  0
 20  2  2  0  0  0  0
 20 21  1  0  0  0  0
 21 22  2  0  0  0  0
 22 11  1  0  0  0  0
 22 12  1  0  0  0  0
 23  9  1  0  0  0  0
 23 24  1  0  0  0  0
 25 23  2  0  0  0  0
 26 21  1  0  0  0  0
 26 28  1  0  0  0  0
 28 27  1  0  0  0  0
M  END
>  <MODEL>
6

>  <REMARK>
 VINA RESULT:      -6.4      2.159      5.689
  Name = 
  3 active torsions:
  status: ('A' for Active; 'I' for Inactive)
    1  A    between atoms: CA_10  and  C_13
    2  A    between atoms: O_17  and  C_25
    3  A    between atoms: O_17  and  C_27
                            x       y       z     vdW  Elec       q    Type
                         _______ _______ _______ _____ _____    ______ ____

>  <TORSDO>
F 3

$$$$
=
 OpenBabel11062423103D

 28 31  0  0  1  0  0  0  0  0999 V2000
  191.8080  173.6230  144.8260 C   0  0  0  0  0  3  0  0  0  0  0  0
  188.9230  177.1940  146.6310 C   0  0  0  0  0  3  0  0  0  0  0  0
  192.3790  172.4900  144.4260 C   0  0  0  0  0  0  0  0  0  0  0  0
  192.4750  174.6330  145.7000 C   0  0  1  0  0  3  0  0  0  0  0  0
  193.9690  174.3970  145.7440 C   0  0  0  0  0  0  0  0  0  0  0  0
  194.4920  173.2540  145.4050 N   0  0  0  0  0  0  0  0  0  0  0  0
  194.2030  176.7410  146.5180 C   0  0  0  0  0  2  0  0  0  0  0  0
  191.7240  171.6850  143.3720 C   0  0  0  0  0  0  0  0  0  0  0  0
  191.0510  173.7030  142.0210 C   0  0  0  0  0  0  0  0  0  0  0  0
  194.8150  175.4820  146.1140 N   0  0  0  0  0  2  0  0  0  0  0  0
  190.7410  176.4400  145.2070 C   0  0  0  0  0  0  0  0  0  0  0  0
  190.3220  176.0080  142.7250 C   0  0  0  0  0  2  0  0  0  0  0  0
  190.1720  174.5240  142.6130 C   0  0  0  0  0  3  0  0  0  0  0  0
  191.8610  170.4330  143.3750 O   0  0  0  0  0  0  0  0  0  0  0  0
  190.9510  172.3030  142.3220 N   0  0  0  0  0  2  0  0  0  0  0  0
  193.6920  172.0830  145.0270 C   0  0  0  0  0  2  0  0  0  0  0  0
  193.1440  177.1630  145.4970 C   0  0  0  0  0  2  0  0  0  0  0  0
  190.2520  176.8060  146.4680 C   0  0  0  0  0  3  0  0  0  0  0  0
  192.1860  176.0240  145.0820 C   0  0  1  0  0  3  0  0  0  0  0  0
  188.0650  177.2130  145.5340 C   0  0  0  0  0  3  0  0  0  0  0  0
  188.5230  176.8420  144.2600 C   0  0  0  0  0  0  0  0  0  0  0  0
  189.8650  176.4550  144.0880 C   0  0  0  0  0  0  0  0  0  0  0  0
  192.2530  174.1860  141.3020 C   0  0  0  0  0  0  0  0  0  0  0  0
  192.2750  174.1650  140.0430 O   0  0  0  0  0  0  0  0  0  0  0  0
  193.3550  174.6890  141.9830 O   0  0  0  0  0  1  0  0  0  0  0  0
  187.6590  176.8530  143.1550 O   0  0  0  0  0  0  0  0  0  0  0  0
  185.3290  177.1680  143.0770 N   0  0  0  0  0  1  0  0  0  0  0  0
  186.4010  176.1900  143.1390 C   0  0  0  0  0  2  0  0  0  0  0  0
  3  1  2  0  0  0  0
  3 16  1  0  0  0  0
  4  1  1  6  0  0  0
  4  5  1  0  0  0  0
  5 10  1  0  0  0  0
  6  5  2  0  0  0  0
  8 14  2  0  0  0  0
  8  3  1  0  0  0  0
  9 15  1  0  0  0  0
  9 13  2  0  0  0  0
 10  7  1  0  0  0  0
 11 18  2  0  0  0  0
 12 22  1  0  0  0  0
 13 12  1  0  0  0  0
 15  8  1  0  0  0  0
 16  6  1  0  0  0  0
 17  7  1  0  0  0  0
 18  2  1  0  0  0  0
 19 11  1  0  0  0  0
 19 17  1  1  0  0  0
 19  4  1  0  0  0  0
 20  2  2  0  0  0  0
 21 20  1  0  0  0  0
 22 21  2  0  0  0  0
 22 11  1  0  0  0  0
 23 25  1  0  0  0  0
 23  9  1  0  0  0  0
 24 23  2  0  0  0  0
 26 21  1  0  0  0  0
 27 28  1  0  0  0  0
 28 26  1  0  0  0  0
M  END
>  <MODEL>
7

>  <REMARK>
 VINA RESULT:      -6.3      2.827      5.260
  Name = 
  3 active torsions:
  status: ('A' for Active; 'I' for Inactive)
    1  A    between atoms: CA_10  and  C_13
    2  A    between atoms: O_17  and  C_25
    3  A    between atoms: O_17  and  C_27
                            x       y       z     vdW  Elec       q    Type
                         _______ _______ _______ _____ _____    ______ ____

>  <TORSDO>
F 3

$$$$
=
 OpenBabel11062423103D

 28 31  0  0  1  0  0  0  0  0999 V2000
  189.0940  175.1670  144.0700 C   0  0  0  0  0  3  0  0  0  0  0  0
  192.4330  171.5380  144.1920 C   0  0  0  0  0  3  0  0  0  0  0  0
  188.1240  176.0480  144.2930 C   0  0  0  0  0  0  0  0  0  0  0  0
  189.1840  174.3110  142.8510 C   0  0  1  0  0  3  0  0  0  0  0  0
  188.2800  174.8390  141.7600 C   0  0  0  0  0  0  0  0  0  0  0  0
  187.2970  175.6540  142.0200 N   0  0  0  0  0  0  0  0  0  0  0  0
  189.6440  173.5360  140.1520 C   0  0  0  0  0  2  0  0  0  0  0  0
  188.2630  177.0100  145.4080 C   0  0  0  0  0  0  0  0  0  0  0  0
  190.7140  177.4020  144.9780 C   0  0  0  0  0  0  0  0  0  0  0  0
  188.5590  174.4720  140.4120 N   0  0  0  0  0  2  0  0  0  0  0  0
  191.6050  173.6420  143.3040 C   0  0  0  0  0  0  0  0  0  0  0  0
  192.5330  175.8510  144.1860 C   0  0  0  0  0  2  0  0  0  0  0  0
  191.5080  176.3380  145.1610 C   0  0  0  0  0  3  0  0  0  0  0  0
  187.2320  177.4210  146.0030 O   0  0  0  0  0  0  0  0  0  0  0  0
  189.5540  177.5110  145.8140 N   0  0  0  0  0  2  0  0  0  0  0  0
  186.9330  176.0690  143.3790 C   0  0  0  0  0  2  0  0  0  0  0  0
  190.9060  173.9720  140.9000 C   0  0  0  0  0  2  0  0  0  0  0  0
  191.5780  172.2410  143.3460 C   0  0  0  0  0  3  0  0  0  0  0  0
  190.6570  174.3590  142.3750 C   0  0  1  0  0  3  0  0  0  0  0  0
  193.3230  172.2280  145.0130 C   0  0  0  0  0  3  0  0  0  0  0  0
  193.3660  173.6310  145.0000 C   0  0  0  0  0  0  0  0  0  0  0  0
  192.5090  174.3470  144.1440 C   0  0  0  0  0  0  0  0  0  0  0  0
  190.8280  178.3060  143.8090 C   0  0  0  0  0  0  0  0  0  0  0  0
  191.5520  179.3340  143.8860 O   0  0  0  0  0  1  0  0  0  0  0  0
  190.1760  178.0340  142.6130 O   0  0  0  0  0  0  0  0  0  0  0  0
  194.2550  174.3280  145.8310 O   0  0  0  0  0  0  0  0  0  0  0  0
  196.0720  175.2840  144.6810 N   0  0  0  0  0  1  0  0  0  0  0  0
  195.6680  174.2980  145.6670 C   0  0  0  0  0  2  0  0  0  0  0  0
  1  3  2  0  0  0  0
  2 20  1  0  0  0  0
  3  8  1  0  0  0  0
  4  1  1  1  0  0  0
  5  6  2  0  0  0  0
  5  4  1  0  0  0  0
  6 16  1  0  0  0  0
  7 10  1  0  0  0  0
  7 17  1  0  0  0  0
  8 15  1  0  0  0  0
  8 14  2  0  0  0  0
  9 13  2  0  0  0  0
  9 15  1  0  0  0  0
 10  5  1  0  0  0  0
 11 18  1  0  0  0  0
 11 22  2  0  0  0  0
 12 13  1  0  0  0  0
 16  3  1  0  0  0  0
 18  2  2  0  0  0  0
 19 17  1  6  0  0  0
 19  4  1  0  0  0  0
 19 11  1  0  0  0  0
 21 20  2  0  0  0  0
 21 26  1  0  0  0  0
 22 12  1  0  0  0  0
 22 21  1  0  0  0  0
 23 24  1  0  0  0  0
 23  9  1  0  0  0  0
 25 23  2  0  0  0  0
 27 28  1  0  0  0  0
 28 26  1  0  0  0  0
M  END
>  <MODEL>
8

>  <REMARK>
 VINA RESULT:      -6.2      2.499      6.200
  Name = 
  3 active torsions:
  status: ('A' for Active; 'I' for Inactive)
    1  A    between atoms: CA_10  and  C_13
    2  A    between atoms: O_17  and  C_25
    3  A    between atoms: O_17  and  C_27
                            x       y       z     vdW  Elec       q    Type
                         _______ _______ _______ _____ _____    ______ ____

>  <TORSDO>
F 3

$$$$
=
 OpenBabel11062423103D

 28 31  0  0  1  0  0  0  0  0999 V2000
  190.4460  176.6260  143.8070 C   0  0  0  0  0  3  0  0  0  0  0  0
  195.3050  176.7900  144.6400 C   0  0  0  0  0  3  0  0  0  0  0  0
  189.2010  176.7330  143.3530 C   0  0  0  0  0  0  0  0  0  0  0  0
  190.8670  176.9890  145.1920 C   0  0  1  0  0  3  0  0  0  0  0  0
  189.6630  177.1140  146.0990 C   0  0  0  0  0  0  0  0  0  0  0  0
  188.4620  177.2820  145.6240 N   0  0  0  0  0  0  0  0  0  0  0  0
  191.2150  176.8300  148.0120 C   0  0  0  0  0  2  0  0  0  0  0  0
  188.8500  176.1210  142.0530 C   0  0  0  0  0  0  0  0  0  0  0  0
  190.2290  174.0540  142.4710 C   0  0  0  0  0  0  0  0  0  0  0  0
  189.8590  176.9870  147.5050 N   0  0  0  0  0  2  0  0  0  0  0  0
  193.1160  175.7990  144.9920 C   0  0  0  0  0  0  0  0  0  0  0  0
  192.4240  173.7320  143.6620 C   0  0  0  0  0  2  0  0  0  0  0  0
  191.5510  174.2540  142.5650 C   0  0  0  0  0  3  0  0  0  0  0  0
  187.9540  176.6480  141.3420 O   0  0  0  0  0  0  0  0  0  0  0  0
  189.4930  174.9150  141.5900 N   0  0  0  0  0  2  0  0  0  0  0  0
  188.1760  177.4380  144.1940 C   0  0  0  0  0  2  0  0  0  0  0  0
  191.9460  175.7360  147.2300 C   0  0  0  0  0  2  0  0  0  0  0  0
  194.0620  176.7930  145.2710 C   0  0  0  0  0  3  0  0  0  0  0  0
  191.7830  175.8470  145.6980 C   0  0  1  0  0  3  0  0  0  0  0  0
  195.6140  175.7940  143.7160 C   0  0  0  0  0  3  0  0  0  0  0  0
  194.6830  174.7900  143.4090 C   0  0  0  0  0  0  0  0  0  0  0  0
  193.4280  174.7850  144.0470 C   0  0  0  0  0  0  0  0  0  0  0  0
  189.4720  173.1880  143.4050 C   0  0  0  0  0  0  0  0  0  0  0  0
  188.9760  172.1080  142.9870 O   0  0  0  0  0  0  0  0  0  0  0  0
  189.3170  173.5230  144.7440 O   0  0  0  0  0  1  0  0  0  0  0  0
  194.9870  173.7910  142.4730 O   0  0  0  0  0  0  0  0  0  0  0  0
  194.4450  174.7380  140.3880 N   0  0  0  0  0  1  0  0  0  0  0  0
  195.4720  174.0650  141.1640 C   0  0  0  0  0  2  0  0  0  0  0  0
  2 18  1  0  0  0  0
  3  1  2  0  0  0  0
  3 16  1  0  0  0  0
  4  1  1  6  0  0  0
  4 19  1  0  0  0  0
  4  5  1  0  0  0  0
  5 10  1  0  0  0  0
  6  5  2  0  0  0  0
  8  3  1  0  0  0  0
  9 13  2  0  0  0  0
  9 23  1  0  0  0  0
 10  7  1  0  0  0  0
 11 18  2  0  0  0  0
 11 19  1  0  0  0  0
 12 22  1  0  0  0  0
 13 12  1  0  0  0  0
 14  8  2  0  0  0  0
 15  8  1  0  0  0  0
 15  9  1  0  0  0  0
 16  6  1  0  0  0  0
 17  7  1  0  0  0  0
 19 17  1  1  0  0  0
 20  2  2  0  0  0  0
 21 20  1  0  0  0  0
 21 22  2  0  0  0  0
 22 11  1  0  0  0  0
 23 25  1  0  0  0  0
 24 23  2  0  0  0  0
 26 21  1  0  0  0  0
 27 28  1  0  0  0  0
 28 26  1  0  0  0  0
M  END
>  <MODEL>
9

>  <REMARK>
 VINA RESULT:      -6.2      2.494      7.026
  Name = 
  3 active torsions:
  status: ('A' for Active; 'I' for Inactive)
    1  A    between atoms: CA_10  and  C_13
    2  A    between atoms: O_17  and  C_25
    3  A    between atoms: O_17  and  C_27
                            x       y       z     vdW  Elec       q    Type
                         _______ _______ _______ _____ _____    ______ ____

>  <TORSDO>
F 3

$$$$
