=
 OpenBabel11062423093D

 28 31  0  0  1  0  0  0  0  0999 V2000
  191.0190  176.4960  145.6420 C   0  0  0  0  0  0  0  0  0  0  0  0
  189.1710  175.0550  146.1820 C   0  0  0  0  0  3  0  0  0  0  0  0
  189.7110  174.8570  147.4130 N   0  0  0  0  0  0  0  0  0  0  0  0
  189.7740  177.3260  143.2640 N   0  0  0  0  0  2  0  0  0  0  0  0
  189.7940  175.9110  145.2690 C   0  0  0  0  0  0  0  0  0  0  0  0
  191.2320  177.2670  143.2710 C   0  0  0  0  0  2  0  0  0  0  0  0
  189.2550  176.0960  143.8660 C   0  0  1  0  0  3  0  0  0  0  0  0
  191.7450  177.4210  144.7010 C   0  0  2  0  0  3  0  0  0  0  0  0
  191.5110  176.2820  146.8920 N   0  0  0  0  0  0  0  0  0  0  0  0
  190.8680  175.4700  147.7720 C   0  0  0  0  0  3  0  0  0  0  0  0
  187.7250  176.1330  143.8550 C   0  0  0  0  0  2  0  0  0  0  0  0
  186.8220  178.1880  141.8120 C   0  0  0  0  0  1  0  0  0  0  0  0
  185.3760  178.7910  147.3000 N   0  0  0  0  0  1  0  0  0  0  0  0
  187.1510  177.5090  144.2100 C   0  0  2  0  0  3  0  0  0  0  0  0
  186.5360  177.4860  145.6120 C   0  0  0  0  0  2  0  0  0  0  0  0
  184.9410  179.2920  144.9640 C   0  0  0  0  0  2  0  0  0  0  0  0
  185.5770  179.3800  143.5810 C   0  0  0  0  0  2  0  0  0  0  0  0
  185.9840  178.8560  145.9850 C   0  0  1  0  0  3  0  0  0  0  0  0
  186.1480  178.0260  143.1620 C   0  0  1  0  0  3  0  0  0  0  0  0
  193.1750  177.1510  144.7290 N   0  0  0  0  0  2  0  0  0  0  0  0
  193.4190  176.0010  143.8710 C   0  0  0  0  0  2  0  0  0  0  0  0
  195.9020  175.8740  143.6630 C   0  0  0  0  0  3  0  0  0  0  0  0
  194.7260  175.3650  144.2200 C   0  0  0  0  0  0  0  0  0  0  0  0
  193.3670  173.5450  145.7980 Cl  0  0  0  0  0  0  0  0  0  0  0  0
  197.1010  175.3000  143.9490 N   0  0  0  0  0  0  0  0  0  0  0  0
  197.1950  174.2210  144.7720 C   0  0  0  0  0  3  0  0  0  0  0  0
  194.8010  174.2470  145.0680 C   0  0  0  0  0  0  0  0  0  0  0  0
  196.0450  173.6760  145.3450 C   0  0  0  0  0  3  0  0  0  0  0  0
  1  9  1  0  0  0  0
  2  3  2  0  0  0  0
  3 10  1  0  0  0  0
  4  6  1  0  0  0  0
  4  7  1  0  0  0  0
  5  1  2  0  0  0  0
  5  2  1  0  0  0  0
  6  8  1  0  0  0  0
  7 11  1  1  0  0  0
  7  5  1  0  0  0  0
  8 20  1  6  0  0  0
  8  1  1  0  0  0  0
  9 10  2  0  0  0  0
 14 11  1  6  0  0  0
 14 15  1  0  0  0  0
 15 18  1  0  0  0  0
 16 18  1  0  0  0  0
 17 16  1  0  0  0  0
 18 13  1  1  0  0  0
 19 12  1  6  0  0  0
 19 17  1  0  0  0  0
 19 14  1  0  0  0  0
 21 23  1  0  0  0  0
 21 20  1  0  0  0  0
 22 25  2  0  0  0  0
 22 23  1  0  0  0  0
 23 27  2  0  0  0  0
 25 26  1  0  0  0  0
 26 28  2  0  0  0  0
 27 28  1  0  0  0  0
 27 24  1  0  0  0  0
M  END
>  <MODEL>
1

>  <REMARK>
 VINA RESULT:      -7.4      0.000      0.000
  Name = 
  5 active torsions:
  status: ('A' for Active; 'I' for Inactive)
    1  A    between atoms: C_3  and  C_23
    2  A    between atoms: C_7  and  C_17
    3  A    between atoms: C_13  and  C_17
    4  A    between atoms: C_15  and  N_19
    5  A    between atoms: N_19  and  C_23
                            x       y       z     vdW  Elec       q    Type
                         _______ _______ _______ _____ _____    ______ ____

>  <TORSDO>
F 5

$$$$
=
 OpenBabel11062423093D

 28 31  0  0  1  0  0  0  0  0999 V2000
  190.7780  174.3850  145.2760 C   0  0  0  0  0  0  0  0  0  0  0  0
  189.5180  174.2360  143.2330 C   0  0  0  0  0  3  0  0  0  0  0  0
  190.1650  173.0780  142.9420 N   0  0  0  0  0  0  0  0  0  0  0  0
  189.1940  176.5210  146.1840 N   0  0  0  0  0  2  0  0  0  0  0  0
  189.7820  174.9090  144.4300 C   0  0  0  0  0  0  0  0  0  0  0  0
  190.5930  176.5020  146.5980 C   0  0  0  0  0  2  0  0  0  0  0  0
  189.1290  176.2360  144.7490 C   0  0  1  0  0  3  0  0  0  0  0  0
  191.1160  175.0670  146.5760 C   0  0  2  0  0  3  0  0  0  0  0  0
  191.3860  173.2130  144.9500 N   0  0  0  0  0  0  0  0  0  0  0  0
  191.0880  172.5630  143.7950 C   0  0  0  0  0  3  0  0  0  0  0  0
  187.6670  176.2660  144.2930 C   0  0  0  0  0  2  0  0  0  0  0  0
  187.2010  178.4850  142.2740 C   0  0  0  0  0  1  0  0  0  0  0  0
  184.4270  178.5330  147.2620 N   0  0  0  0  0  1  0  0  0  0  0  0
  186.9620  177.5890  144.6110 C   0  0  2  0  0  3  0  0  0  0  0  0
  186.0240  177.4190  145.8090 C   0  0  0  0  0  2  0  0  0  0  0  0
  184.5560  179.2420  144.9430 C   0  0  0  0  0  2  0  0  0  0  0  0
  185.5070  179.4750  143.7750 C   0  0  0  0  0  2  0  0  0  0  0  0
  185.3360  178.7350  146.1500 C   0  0  1  0  0  3  0  0  0  0  0  0
  186.2240  178.1800  143.3960 C   0  0  1  0  0  3  0  0  0  0  0  0
  192.5570  175.0780  146.7820 N   0  0  0  0  0  2  0  0  0  0  0  0
  193.0810  176.2710  146.1330 C   0  0  0  0  0  2  0  0  0  0  0  0
  195.3330  175.3510  145.5790 C   0  0  0  0  0  3  0  0  0  0  0  0
  194.1260  175.8970  145.1330 C   0  0  0  0  0  0  0  0  0  0  0  0
  192.4570  176.7990  143.1200 Cl  0  0  0  0  0  0  0  0  0  0  0  0
  196.3070  175.0220  144.6900 N   0  0  0  0  0  0  0  0  0  0  0  0
  196.1450  175.2140  143.3530 C   0  0  0  0  0  3  0  0  0  0  0  0
  193.9420  176.1090  143.7560 C   0  0  0  0  0  0  0  0  0  0  0  0
  194.9590  175.7620  142.8630 C   0  0  0  0  0  3  0  0  0  0  0  0
  1  8  1  0  0  0  0
  2  5  1  0  0  0  0
  3  2  2  0  0  0  0
  3 10  1  0  0  0  0
  4  6  1  0  0  0  0
  5  7  1  0  0  0  0
  5  1  2  0  0  0  0
  7 11  1  1  0  0  0
  7  4  1  0  0  0  0
  8  6  1  0  0  0  0
  8 20  1  6  0  0  0
  9  1  1  0  0  0  0
 10  9  2  0  0  0  0
 14 11  1  6  0  0  0
 14 15  1  0  0  0  0
 15 18  1  0  0  0  0
 16 18  1  0  0  0  0
 17 16  1  0  0  0  0
 18 13  1  1  0  0  0
 19 12  1  6  0  0  0
 19 17  1  0  0  0  0
 19 14  1  0  0  0  0
 21 20  1  0  0  0  0
 23 22  1  0  0  0  0
 23 21  1  0  0  0  0
 24 27  1  0  0  0  0
 25 22  2  0  0  0  0
 26 25  1  0  0  0  0
 27 23  2  0  0  0  0
 28 26  2  0  0  0  0
 28 27  1  0  0  0  0
M  END
>  <MODEL>
2

>  <REMARK>
 VINA RESULT:      -7.0      1.866      2.485
  Name = 
  5 active torsions:
  status: ('A' for Active; 'I' for Inactive)
    1  A    between atoms: C_3  and  C_23
    2  A    between atoms: C_7  and  C_17
    3  A    between atoms: C_13  and  C_17
    4  A    between atoms: C_15  and  N_19
    5  A    between atoms: N_19  and  C_23
                            x       y       z     vdW  Elec       q    Type
                         _______ _______ _______ _____ _____    ______ ____

>  <TORSDO>
F 5

$$$$
=
 OpenBabel11062423093D

 28 31  0  0  1  0  0  0  0  0999 V2000
  188.4350  175.4940  142.1850 C   0  0  0  0  0  0  0  0  0  0  0  0
  189.8570  173.7200  142.9660 C   0  0  0  0  0  3  0  0  0  0  0  0
  188.9070  172.8230  142.5970 N   0  0  0  0  0  0  0  0  0  0  0  0
  190.4950  177.3810  142.4890 N   0  0  0  0  0  2  0  0  0  0  0  0
  189.6620  175.0860  142.7390 C   0  0  0  0  0  0  0  0  0  0  0  0
  189.1280  177.8450  142.6970 C   0  0  0  0  0  2  0  0  0  0  0  0
  190.6720  176.1150  143.2020 C   0  0  1  0  0  3  0  0  0  0  0  0
  188.1590  176.9520  141.9230 C   0  0  2  0  0  3  0  0  0  0  0  0
  187.5200  174.5580  141.8160 N   0  0  0  0  0  0  0  0  0  0  0  0
  187.7490  173.2340  142.0190 C   0  0  0  0  0  3  0  0  0  0  0  0
  192.1070  175.6190  143.0070 C   0  0  0  0  0  2  0  0  0  0  0  0
  195.1390  175.5990  143.1540 C   0  0  0  0  0  1  0  0  0  0  0  0
  192.0580  176.5990  147.8540 N   0  0  0  0  0  1  0  0  0  0  0  0
  192.9080  175.5590  144.3120 C   0  0  2  0  0  3  0  0  0  0  0  0
  192.0770  176.1120  145.4740 C   0  0  0  0  0  2  0  0  0  0  0  0
  194.1600  176.8100  146.6570 C   0  0  0  0  0  2  0  0  0  0  0  0
  195.0120  176.2100  145.5440 C   0  0  0  0  0  2  0  0  0  0  0  0
  192.8550  176.0340  146.7820 C   0  0  1  0  0  3  0  0  0  0  0  0
  194.2730  176.2650  144.2090 C   0  0  1  0  0  3  0  0  0  0  0  0
  186.7930  177.2850  142.3010 N   0  0  0  0  0  2  0  0  0  0  0  0
  186.8540  178.4400  143.1850 C   0  0  0  0  0  2  0  0  0  0  0  0
  184.7000  178.9280  144.3430 C   0  0  0  0  0  3  0  0  0  0  0  0
  185.9240  178.2560  144.3400 C   0  0  0  0  0  0  0  0  0  0  0  0
  187.7860  176.5790  145.5120 Cl  0  0  0  0  0  0  0  0  0  0  0  0
  183.8460  178.7930  145.3930 N   0  0  0  0  0  0  0  0  0  0  0  0
  184.1520  178.0120  146.4630 C   0  0  0  0  0  3  0  0  0  0  0  0
  186.2620  177.4480  145.4390 C   0  0  0  0  0  0  0  0  0  0  0  0
  185.3670  177.3260  146.5050 C   0  0  0  0  0  3  0  0  0  0  0  0
  1  5  1  0  0  0  0
  3  2  1  0  0  0  0
  4  6  1  0  0  0  0
  4  7  1  0  0  0  0
  5  2  2  0  0  0  0
  5  7  1  0  0  0  0
  7 11  1  6  0  0  0
  8  1  1  0  0  0  0
  8 20  1  1  0  0  0
  8  6  1  0  0  0  0
  9 10  1  0  0  0  0
  9  1  2  0  0  0  0
 10  3  2  0  0  0  0
 14 11  1  6  0  0  0
 14 15  1  0  0  0  0
 15 18  1  0  0  0  0
 16 18  1  0  0  0  0
 17 16  1  0  0  0  0
 18 13  1  1  0  0  0
 19 12  1  6  0  0  0
 19 14  1  0  0  0  0
 19 17  1  0  0  0  0
 20 21  1  0  0  0  0
 21 23  1  0  0  0  0
 22 25  1  0  0  0  0
 23 22  2  0  0  0  0
 23 27  1  0  0  0  0
 25 26  2  0  0  0  0
 26 28  1  0  0  0  0
 27 24  1  0  0  0  0
 27 28  2  0  0  0  0
M  END
>  <MODEL>
3

>  <REMARK>
 VINA RESULT:      -7.0      2.503      7.738
  Name = 
  5 active torsions:
  status: ('A' for Active; 'I' for Inactive)
    1  A    between atoms: C_3  and  C_23
    2  A    between atoms: C_7  and  C_17
    3  A    between atoms: C_13  and  C_17
    4  A    between atoms: C_15  and  N_19
    5  A    between atoms: N_19  and  C_23
                            x       y       z     vdW  Elec       q    Type
                         _______ _______ _______ _____ _____    ______ ____

>  <TORSDO>
F 5

$$$$
=
 OpenBabel11062423093D

 28 31  0  0  1  0  0  0  0  0999 V2000
  189.3250  175.7750  142.6800 C   0  0  0  0  0  0  0  0  0  0  0  0
  190.2510  173.6160  143.1900 C   0  0  0  0  0  3  0  0  0  0  0  0
  189.1930  173.0360  142.5670 N   0  0  0  0  0  0  0  0  0  0  0  0
  191.6690  177.0670  143.5350 N   0  0  0  0  0  2  0  0  0  0  0  0
  190.3660  175.0090  143.2360 C   0  0  0  0  0  0  0  0  0  0  0  0
  190.4080  177.7760  143.7220 C   0  0  0  0  0  2  0  0  0  0  0  0
  191.4960  175.6840  143.9830 C   0  0  1  0  0  3  0  0  0  0  0  0
  189.3830  177.2800  142.7030 C   0  0  2  0  0  3  0  0  0  0  0  0
  188.2940  175.1500  142.0510 N   0  0  0  0  0  0  0  0  0  0  0  0
  188.2230  173.7940  141.9930 C   0  0  0  0  0  3  0  0  0  0  0  0
  192.8150  174.9260  143.8080 C   0  0  0  0  0  2  0  0  0  0  0  0
  194.7180  176.5250  145.5510 C   0  0  0  0  0  1  0  0  0  0  0  0
  195.9120  175.6960  140.0310 N   0  0  0  0  0  1  0  0  0  0  0  0
  193.9490  175.8050  143.2680 C   0  0  2  0  0  3  0  0  0  0  0  0
  194.3850  175.3210  141.8820 C   0  0  0  0  0  2  0  0  0  0  0  0
  196.6860  176.2030  142.2770 C   0  0  0  0  0  2  0  0  0  0  0  0
  196.2600  176.7510  143.6340 C   0  0  0  0  0  2  0  0  0  0  0  0
  195.4960  176.2020  141.3250 C   0  0  1  0  0  3  0  0  0  0  0  0
  195.1440  175.8980  144.2350 C   0  0  1  0  0  3  0  0  0  0  0  0
  188.0760  177.8330  143.0290 N   0  0  0  0  0  2  0  0  0  0  0  0
  187.9680  177.8720  144.4800 C   0  0  0  0  0  2  0  0  0  0  0  0
  185.8080  179.0570  144.0910 C   0  0  0  0  0  3  0  0  0  0  0  0
  186.5650  178.1910  144.8840 C   0  0  0  0  0  0  0  0  0  0  0  0
  186.8890  176.5820  147.1110 Cl  0  0  0  0  0  0  0  0  0  0  0  0
  184.5370  179.3800  144.4490 N   0  0  0  0  0  0  0  0  0  0  0  0
  183.9670  178.8810  145.5790 C   0  0  0  0  0  3  0  0  0  0  0  0
  185.9970  177.6690  146.0580 C   0  0  0  0  0  0  0  0  0  0  0  0
  184.6890  178.0170  146.4040 C   0  0  0  0  0  3  0  0  0  0  0  0
  1  8  1  0  0  0  0
  1  5  1  0  0  0  0
  2  5  2  0  0  0  0
  3  2  1  0  0  0  0
  4  6  1  0  0  0  0
  4  7  1  0  0  0  0
  5  7  1  0  0  0  0
  7 11  1  6  0  0  0
  8 20  1  1  0  0  0
  8  6  1  0  0  0  0
  9  1  2  0  0  0  0
 10  9  1  0  0  0  0
 10  3  2  0  0  0  0
 14 11  1  1  0  0  0
 14 19  1  0  0  0  0
 15 14  1  0  0  0  0
 16 17  1  0  0  0  0
 17 19  1  0  0  0  0
 18 13  1  6  0  0  0
 18 15  1  0  0  0  0
 18 16  1  0  0  0  0
 19 12  1  1  0  0  0
 20 21  1  0  0  0  0
 21 23  1  0  0  0  0
 22 25  2  0  0  0  0
 22 23  1  0  0  0  0
 23 27  2  0  0  0  0
 25 26  1  0  0  0  0
 26 28  2  0  0  0  0
 27 28  1  0  0  0  0
 27 24  1  0  0  0  0
M  END
>  <MODEL>
4

>  <REMARK>
 VINA RESULT:      -6.9      2.655      8.368
  Name = 
  5 active torsions:
  status: ('A' for Active; 'I' for Inactive)
    1  A    between atoms: C_3  and  C_23
    2  A    between atoms: C_7  and  C_17
    3  A    between atoms: C_13  and  C_17
    4  A    between atoms: C_15  and  N_19
    5  A    between atoms: N_19  and  C_23
                            x       y       z     vdW  Elec       q    Type
                         _______ _______ _______ _____ _____    ______ ____

>  <TORSDO>
F 5

$$$$
=
 OpenBabel11062423093D

 28 31  0  0  1  0  0  0  0  0999 V2000
  191.4670  176.4680  145.5790 C   0  0  0  0  0  0  0  0  0  0  0  0
  189.3200  175.9600  146.5340 C   0  0  0  0  0  3  0  0  0  0  0  0
  189.9480  175.3460  147.5700 N   0  0  0  0  0  0  0  0  0  0  0  0
  190.2970  178.1390  143.6470 N   0  0  0  0  0  2  0  0  0  0  0  0
  190.0650  176.5710  145.5210 C   0  0  0  0  0  0  0  0  0  0  0  0
  191.5100  177.4240  143.2660 C   0  0  0  0  0  2  0  0  0  0  0  0
  189.3950  177.2030  144.3190 C   0  0  1  0  0  3  0  0  0  0  0  0
  192.3280  177.0970  144.5150 C   0  0  2  0  0  3  0  0  0  0  0  0
  192.0510  175.8580  146.6450 N   0  0  0  0  0  0  0  0  0  0  0  0
  191.3030  175.2990  147.6320 C   0  0  0  0  0  3  0  0  0  0  0  0
  188.1080  177.9330  144.7140 C   0  0  0  0  0  2  0  0  0  0  0  0
  185.2150  177.9630  145.6310 C   0  0  0  0  0  1  0  0  0  0  0  0
  186.4460  177.7140  140.0630 N   0  0  0  0  0  1  0  0  0  0  0  0
  186.9150  177.5830  143.8190 C   0  0  2  0  0  3  0  0  0  0  0  0
  187.2670  177.8150  142.3460 C   0  0  0  0  0  2  0  0  0  0  0  0
  184.8690  178.2660  141.8250 C   0  0  0  0  0  2  0  0  0  0  0  0
  184.4830  177.9760  143.2710 C   0  0  0  0  0  2  0  0  0  0  0  0
  186.0950  177.4460  141.4450 C   0  0  1  0  0  3  0  0  0  0  0  0
  185.6300  178.3300  144.2170 C   0  0  1  0  0  3  0  0  0  0  0  0
  193.4200  176.2050  144.1530 N   0  0  0  0  0  2  0  0  0  0  0  0
  194.6290  176.7190  144.7800 C   0  0  0  0  0  2  0  0  0  0  0  0
  195.6540  174.7400  145.9000 C   0  0  0  0  0  3  0  0  0  0  0  0
  195.6720  175.6510  144.8410 C   0  0  0  0  0  0  0  0  0  0  0  0
  196.7850  176.6710  142.5230 Cl  0  0  0  0  0  0  0  0  0  0  0  0
  196.6050  173.7720  145.9890 N   0  0  0  0  0  0  0  0  0  0  0  0
  197.5960  173.6620  145.0640 C   0  0  0  0  0  3  0  0  0  0  0  0
  196.6910  175.5570  143.8780 C   0  0  0  0  0  0  0  0  0  0  0  0
  197.6560  174.5540  143.9930 C   0  0  0  0  0  3  0  0  0  0  0  0
  1  9  1  0  0  0  0
  2  3  2  0  0  0  0
  3 10  1  0  0  0  0
  4  7  1  0  0  0  0
  5  1  2  0  0  0  0
  5  2  1  0  0  0  0
  6  4  1  0  0  0  0
  6  8  1  0  0  0  0
  7 11  1  1  0  0  0
  7  5  1  0  0  0  0
  8 20  1  6  0  0  0
  8  1  1  0  0  0  0
  9 10  2  0  0  0  0
 14 19  1  0  0  0  0
 14 11  1  1  0  0  0
 15 14  1  0  0  0  0
 16 17  1  0  0  0  0
 17 19  1  0  0  0  0
 18 13  1  6  0  0  0
 18 16  1  0  0  0  0
 18 15  1  0  0  0  0
 19 12  1  1  0  0  0
 20 21  1  0  0  0  0
 21 23  1  0  0  0  0
 22 25  1  0  0  0  0
 23 22  2  0  0  0  0
 24 27  1  0  0  0  0
 26 25  2  0  0  0  0
 27 28  2  0  0  0  0
 27 23  1  0  0  0  0
 28 26  1  0  0  0  0
M  END
>  <MODEL>
5

>  <REMARK>
 VINA RESULT:      -6.9      1.885      2.639
  Name = 
  5 active torsions:
  status: ('A' for Active; 'I' for Inactive)
    1  A    between atoms: C_3  and  C_23
    2  A    between atoms: C_7  and  C_17
    3  A    between atoms: C_13  and  C_17
    4  A    between atoms: C_15  and  N_19
    5  A    between atoms: N_19  and  C_23
                            x       y       z     vdW  Elec       q    Type
                         _______ _______ _______ _____ _____    ______ ____

>  <TORSDO>
F 5

$$$$
=
 OpenBabel11062423093D

 28 31  0  0  1  0  0  0  0  0999 V2000
  191.6370  174.9020  144.7640 C   0  0  0  0  0  0  0  0  0  0  0  0
  189.5650  173.6820  144.7470 C   0  0  0  0  0  3  0  0  0  0  0  0
  190.2660  172.5330  144.5620 N   0  0  0  0  0  0  0  0  0  0  0  0
  190.3350  177.2500  145.5920 N   0  0  0  0  0  2  0  0  0  0  0  0
  190.2350  174.9010  144.8880 C   0  0  0  0  0  0  0  0  0  0  0  0
  191.5090  177.4010  144.7410 C   0  0  0  0  0  2  0  0  0  0  0  0
  189.4790  176.2050  145.0250 C   0  0  1  0  0  3  0  0  0  0  0  0
  192.4180  176.1830  144.8970 C   0  0  2  0  0  3  0  0  0  0  0  0
  192.2970  173.7240  144.5960 N   0  0  0  0  0  0  0  0  0  0  0  0
  191.6220  172.5490  144.4930 C   0  0  0  0  0  3  0  0  0  0  0  0
  188.2330  176.0410  145.8980 C   0  0  0  0  0  2  0  0  0  0  0  0
  186.1560  177.3550  147.6810 C   0  0  0  0  0  1  0  0  0  0  0  0
  186.4170  178.6880  142.1370 N   0  0  0  0  0  1  0  0  0  0  0  0
  187.0250  176.8300  145.3810 C   0  0  2  0  0  3  0  0  0  0  0  0
  187.3080  177.3820  143.9810 C   0  0  0  0  0  2  0  0  0  0  0  0
  185.7480  179.2850  144.3940 C   0  0  0  0  0  2  0  0  0  0  0  0
  185.4010  178.7230  145.7680 C   0  0  0  0  0  2  0  0  0  0  0  0
  186.1040  178.1470  143.4460 C   0  0  1  0  0  3  0  0  0  0  0  0
  186.5800  177.9440  146.3470 C   0  0  1  0  0  3  0  0  0  0  0  0
  193.4730  176.2400  143.8950 N   0  0  0  0  0  2  0  0  0  0  0  0
  194.7270  176.4740  144.5950 C   0  0  0  0  0  2  0  0  0  0  0  0
  196.1130  176.4190  142.5210 C   0  0  0  0  0  3  0  0  0  0  0  0
  195.8690  175.9230  143.8050 C   0  0  0  0  0  0  0  0  0  0  0  0
  196.4380  174.2150  145.9050 Cl  0  0  0  0  0  0  0  0  0  0  0  0
  197.1330  175.9190  141.7750 N   0  0  0  0  0  0  0  0  0  0  0  0
  197.9380  174.9280  142.2440 C   0  0  0  0  0  3  0  0  0  0  0  0
  196.6870  174.8960  144.3050 C   0  0  0  0  0  0  0  0  0  0  0  0
  197.7280  174.3990  143.5180 C   0  0  0  0  0  3  0  0  0  0  0  0
  1  5  1  0  0  0  0
  1  8  1  0  0  0  0
  2  5  2  0  0  0  0
  3  2  1  0  0  0  0
  5  7  1  0  0  0  0
  6  8  1  0  0  0  0
  6  4  1  0  0  0  0
  7  4  1  0  0  0  0
  7 11  1  1  0  0  0
  8 20  1  6  0  0  0
  9  1  2  0  0  0  0
 10  3  2  0  0  0  0
 10  9  1  0  0  0  0
 14 11  1  1  0  0  0
 14 19  1  0  0  0  0
 15 14  1  0  0  0  0
 16 17  1  0  0  0  0
 17 19  1  0  0  0  0
 18 13  1  6  0  0  0
 18 15  1  0  0  0  0
 18 16  1  0  0  0  0
 19 12  1  1  0  0  0
 20 21  1  0  0  0  0
 22 23  1  0  0  0  0
 23 27  2  0  0  0  0
 23 21  1  0  0  0  0
 25 26  1  0  0  0  0
 25 22  2  0  0  0  0
 26 28  2  0  0  0  0
 27 24  1  0  0  0  0
 28 27  1  0  0  0  0
M  END
>  <MODEL>
6

>  <REMARK>
 VINA RESULT:      -6.8      1.965      2.701
  Name = 
  5 active torsions:
  status: ('A' for Active; 'I' for Inactive)
    1  A    between atoms: C_3  and  C_23
    2  A    between atoms: C_7  and  C_17
    3  A    between atoms: C_13  and  C_17
    4  A    between atoms: C_15  and  N_19
    5  A    between atoms: N_19  and  C_23
                            x       y       z     vdW  Elec       q    Type
                         _______ _______ _______ _____ _____    ______ ____

>  <TORSDO>
F 5

$$$$
=
 OpenBabel11062423093D

 28 31  0  0  1  0  0  0  0  0999 V2000
  191.0320  175.7130  145.4350 C   0  0  0  0  0  0  0  0  0  0  0  0
  189.8060  177.1560  146.9170 C   0  0  0  0  0  3  0  0  0  0  0  0
  190.8200  177.0610  147.8160 N   0  0  0  0  0  0  0  0  0  0  0  0
  189.2220  176.2010  143.3410 N   0  0  0  0  0  2  0  0  0  0  0  0
  189.8980  176.5100  145.6800 C   0  0  0  0  0  0  0  0  0  0  0  0
  189.8540  174.8870  143.3860 C   0  0  0  0  0  2  0  0  0  0  0  0
  188.7560  176.5400  144.6870 C   0  0  1  0  0  3  0  0  0  0  0  0
  191.1870  174.9830  144.1260 C   0  0  2  0  0  3  0  0  0  0  0  0
  192.0290  175.6620  146.3580 N   0  0  0  0  0  0  0  0  0  0  0  0
  191.9280  176.3260  147.5390 C   0  0  0  0  0  3  0  0  0  0  0  0
  188.0750  177.9110  144.6570 C   0  0  0  0  0  2  0  0  0  0  0  0
  186.3160  178.3780  147.0860 C   0  0  0  0  0  1  0  0  0  0  0  0
  184.0100  178.2690  141.8660 N   0  0  0  0  0  1  0  0  0  0  0  0
  186.5450  177.8260  144.6440 C   0  0  2  0  0  3  0  0  0  0  0  0
  186.0080  178.0870  143.2340 C   0  0  0  0  0  2  0  0  0  0  0  0
  183.8790  178.9720  144.1870 C   0  0  0  0  0  2  0  0  0  0  0  0
  184.3640  178.6630  145.5990 C   0  0  0  0  0  2  0  0  0  0  0  0
  184.4890  177.9800  143.2040 C   0  0  1  0  0  3  0  0  0  0  0  0
  185.8870  178.7560  145.6790 C   0  0  1  0  0  3  0  0  0  0  0  0
  191.7090  173.6430  144.3520 N   0  0  0  0  0  2  0  0  0  0  0  0
  192.7990  173.4340  143.4100 C   0  0  0  0  0  2  0  0  0  0  0  0
  194.7010  175.0190  143.7140 C   0  0  0  0  0  3  0  0  0  0  0  0
  194.1030  173.7990  144.0410 C   0  0  0  0  0  0  0  0  0  0  0  0
  194.0770  171.3810  145.3850 Cl  0  0  0  0  0  0  0  0  0  0  0  0
  195.8970  175.3640  144.2590 N   0  0  0  0  0  0  0  0  0  0  0  0
  196.5470  174.5430  145.1270 C   0  0  0  0  0  3  0  0  0  0  0  0
  194.7610  172.9340  144.9320 C   0  0  0  0  0  0  0  0  0  0  0  0
  195.9900  173.3130  145.4780 C   0  0  0  0  0  3  0  0  0  0  0  0
  1  5  2  0  0  0  0
  1  9  1  0  0  0  0
  2  3  2  0  0  0  0
  4  6  1  0  0  0  0
  4  7  1  0  0  0  0
  5  2  1  0  0  0  0
  6  8  1  0  0  0  0
  7 11  1  6  0  0  0
  7  5  1  0  0  0  0
  8 20  1  1  0  0  0
  8  1  1  0  0  0  0
  9 10  2  0  0  0  0
 10  3  1  0  0  0  0
 14 11  1  6  0  0  0
 14 19  1  0  0  0  0
 15 14  1  0  0  0  0
 16 17  1  0  0  0  0
 17 19  1  0  0  0  0
 18 13  1  6  0  0  0
 18 15  1  0  0  0  0
 18 16  1  0  0  0  0
 19 12  1  1  0  0  0
 21 23  1  0  0  0  0
 21 20  1  0  0  0  0
 22 23  2  0  0  0  0
 22 25  1  0  0  0  0
 23 27  1  0  0  0  0
 25 26  2  0  0  0  0
 26 28  1  0  0  0  0
 27 24  1  0  0  0  0
 27 28  2  0  0  0  0
M  END
>  <MODEL>
7

>  <REMARK>
 VINA RESULT:      -6.8      1.808      2.428
  Name = 
  5 active torsions:
  status: ('A' for Active; 'I' for Inactive)
    1  A    between atoms: C_3  and  C_23
    2  A    between atoms: C_7  and  C_17
    3  A    between atoms: C_13  and  C_17
    4  A    between atoms: C_15  and  N_19
    5  A    between atoms: N_19  and  C_23
                            x       y       z     vdW  Elec       q    Type
                         _______ _______ _______ _____ _____    ______ ____

>  <TORSDO>
F 5

$$$$
=
 OpenBabel11062423093D

 28 31  0  0  1  0  0  0  0  0999 V2000
  190.2160  174.4510  142.0250 C   0  0  0  0  0  0  0  0  0  0  0  0
  188.1910  175.2520  141.0050 C   0  0  0  0  0  3  0  0  0  0  0  0
  188.4890  174.5290  139.8940 N   0  0  0  0  0  0  0  0  0  0  0  0
  189.4800  175.5310  144.5120 N   0  0  0  0  0  2  0  0  0  0  0  0
  189.0330  175.2070  142.1210 C   0  0  0  0  0  0  0  0  0  0  0  0
  190.9040  175.4810  144.2000 C   0  0  0  0  0  2  0  0  0  0  0  0
  188.7650  176.0540  143.3460 C   0  0  1  0  0  3  0  0  0  0  0  0
  191.1700  174.3680  143.1890 C   0  0  2  0  0  3  0  0  0  0  0  0
  190.4630  173.7300  140.8980 N   0  0  0  0  0  0  0  0  0  0  0  0
  189.6110  173.7670  139.8400 C   0  0  0  0  0  3  0  0  0  0  0  0
  187.2680  176.1270  143.6610 C   0  0  0  0  0  2  0  0  0  0  0  0
  186.2110  178.6650  142.3740 C   0  0  0  0  0  1  0  0  0  0  0  0
  185.7450  177.9130  148.0130 N   0  0  0  0  0  1  0  0  0  0  0  0
  186.8750  177.3890  144.4360 C   0  0  2  0  0  3  0  0  0  0  0  0
  186.5000  177.0350  145.8780 C   0  0  0  0  0  2  0  0  0  0  0  0
  184.9720  179.0040  145.9860 C   0  0  0  0  0  2  0  0  0  0  0  0
  185.3770  179.4160  144.5750 C   0  0  0  0  0  2  0  0  0  0  0  0
  186.1310  178.2850  146.6660 C   0  0  1  0  0  3  0  0  0  0  0  0
  185.7580  178.1920  143.7440 C   0  0  1  0  0  3  0  0  0  0  0  0
  192.5460  174.4600  142.7230 N   0  0  0  0  0  2  0  0  0  0  0  0
  192.8940  175.8720  142.6700 C   0  0  0  0  0  2  0  0  0  0  0  0
  195.0670  176.3070  141.5240 C   0  0  0  0  0  3  0  0  0  0  0  0
  194.3790  176.0390  142.7100 C   0  0  0  0  0  0  0  0  0  0  0  0
  194.3120  175.5570  145.4330 Cl  0  0  0  0  0  0  0  0  0  0  0  0
  196.4200  176.4420  141.5320 N   0  0  0  0  0  0  0  0  0  0  0  0
  197.1410  176.3180  142.6790 C   0  0  0  0  0  3  0  0  0  0  0  0
  195.1060  175.9020  143.9050 C   0  0  0  0  0  0  0  0  0  0  0  0
  196.4950  176.0450  143.8860 C   0  0  0  0  0  3  0  0  0  0  0  0
  1  5  1  0  0  0  0
  1  8  1  0  0  0  0
  2  5  2  0  0  0  0
  3  2  1  0  0  0  0
  5  7  1  0  0  0  0
  6  4  1  0  0  0  0
  7 11  1  1  0  0  0
  7  4  1  0  0  0  0
  8 20  1  6  0  0  0
  8  6  1  0  0  0  0
  9  1  2  0  0  0  0
 10  3  2  0  0  0  0
 10  9  1  0  0  0  0
 14 11  1  6  0  0  0
 14 15  1  0  0  0  0
 15 18  1  0  0  0  0
 16 18  1  0  0  0  0
 17 16  1  0  0  0  0
 18 13  1  1  0  0  0
 19 12  1  6  0  0  0
 19 14  1  0  0  0  0
 19 17  1  0  0  0  0
 21 23  1  0  0  0  0
 21 20  1  0  0  0  0
 22 25  2  0  0  0  0
 22 23  1  0  0  0  0
 23 27  2  0  0  0  0
 25 26  1  0  0  0  0
 26 28  2  0  0  0  0
 27 24  1  0  0  0  0
 28 27  1  0  0  0  0
M  END
>  <MODEL>
8

>  <REMARK>
 VINA RESULT:      -6.8      2.235      3.322
  Name = 
  5 active torsions:
  status: ('A' for Active; 'I' for Inactive)
    1  A    between atoms: C_3  and  C_23
    2  A    between atoms: C_7  and  C_17
    3  A    between atoms: C_13  and  C_17
    4  A    between atoms: C_15  and  N_19
    5  A    between atoms: N_19  and  C_23
                            x       y       z     vdW  Elec       q    Type
                         _______ _______ _______ _____ _____    ______ ____

>  <TORSDO>
F 5

$$$$
=
 OpenBabel11062423093D

 28 31  0  0  1  0  0  0  0  0999 V2000
  191.0020  175.1580  143.8070 C   0  0  0  0  0  0  0  0  0  0  0  0
  189.0160  173.9520  143.1880 C   0  0  0  0  0  3  0  0  0  0  0  0
  189.6930  172.7870  143.3650 N   0  0  0  0  0  0  0  0  0  0  0  0
  189.5870  177.5840  143.9090 N   0  0  0  0  0  2  0  0  0  0  0  0
  189.6440  175.1760  143.4370 C   0  0  0  0  0  0  0  0  0  0  0  0
  190.9880  177.6430  143.5070 C   0  0  0  0  0  2  0  0  0  0  0  0
  188.9390  176.4910  143.1810 C   0  0  1  0  0  3  0  0  0  0  0  0
  191.7390  176.4440  144.0810 C   0  0  2  0  0  3  0  0  0  0  0  0
  191.6330  173.9670  143.9890 N   0  0  0  0  0  0  0  0  0  0  0  0
  190.9890  172.7900  143.7700 C   0  0  0  0  0  3  0  0  0  0  0  0
  187.4620  176.4220  143.5800 C   0  0  0  0  0  2  0  0  0  0  0  0
  186.2610  179.0540  142.6620 C   0  0  0  0  0  1  0  0  0  0  0  0
  185.9900  177.5540  148.1630 N   0  0  0  0  0  1  0  0  0  0  0  0
  187.0380  177.5530  144.5230 C   0  0  2  0  0  3  0  0  0  0  0  0
  186.7200  176.9970  145.9140 C   0  0  0  0  0  2  0  0  0  0  0  0
  185.1130  178.8630  146.3150 C   0  0  0  0  0  2  0  0  0  0  0  0
  185.4590  179.4720  144.9610 C   0  0  0  0  0  2  0  0  0  0  0  0
  186.3200  178.1160  146.8670 C   0  0  1  0  0  3  0  0  0  0  0  0
  185.8680  178.3860  143.9680 C   0  0  1  0  0  3  0  0  0  0  0  0
  193.0750  176.3940  143.5060 N   0  0  0  0  0  2  0  0  0  0  0  0
  194.0240  176.6290  144.5850 C   0  0  0  0  0  2  0  0  0  0  0  0
  196.2470  176.6970  143.4560 C   0  0  0  0  0  3  0  0  0  0  0  0
  195.3400  176.0010  144.2600 C   0  0  0  0  0  0  0  0  0  0  0  0
  194.5880  173.7760  145.7200 Cl  0  0  0  0  0  0  0  0  0  0  0  0
  197.4430  176.1390  143.1290 N   0  0  0  0  0  0  0  0  0  0  0  0
  197.7910  174.8980  143.5640 C   0  0  0  0  0  3  0  0  0  0  0  0
  195.6790  174.7160  144.7140 C   0  0  0  0  0  0  0  0  0  0  0  0
  196.9140  174.1650  144.3640 C   0  0  0  0  0  3  0  0  0  0  0  0
  1  9  1  0  0  0  0
  1  8  1  0  0  0  0
  2  3  2  0  0  0  0
  2  5  1  0  0  0  0
  3 10  1  0  0  0  0
  5  1  2  0  0  0  0
  6  4  1  0  0  0  0
  6  8  1  0  0  0  0
  7  5  1  0  0  0  0
  7 11  1  1  0  0  0
  7  4  1  0  0  0  0
  8 20  1  6  0  0  0
 10  9  2  0  0  0  0
 14 11  1  6  0  0  0
 14 15  1  0  0  0  0
 15 18  1  0  0  0  0
 16 18  1  0  0  0  0
 17 16  1  0  0  0  0
 18 13  1  1  0  0  0
 19 12  1  6  0  0  0
 19 14  1  0  0  0  0
 19 17  1  0  0  0  0
 20 21  1  0  0  0  0
 22 23  1  0  0  0  0
 23 21  1  0  0  0  0
 23 27  2  0  0  0  0
 25 22  2  0  0  0  0
 25 26  1  0  0  0  0
 26 28  2  0  0  0  0
 27 24  1  0  0  0  0
 28 27  1  0  0  0  0
M  END
>  <MODEL>
9

>  <REMARK>
 VINA RESULT:      -6.8      1.712      1.933
  Name = 
  5 active torsions:
  status: ('A' for Active; 'I' for Inactive)
    1  A    between atoms: C_3  and  C_23
    2  A    between atoms: C_7  and  C_17
    3  A    between atoms: C_13  and  C_17
    4  A    between atoms: C_15  and  N_19
    5  A    between atoms: N_19  and  C_23
                            x       y       z     vdW  Elec       q    Type
                         _______ _______ _______ _____ _____    ______ ____

>  <TORSDO>
F 5

$$$$
