=
 OpenBabel11072409123D

 39 41  0  0  1  0  0  0  0  0999 V2000
  192.7820  175.0480  146.3390 C   0  0  0  0  0  2  0  0  0  0  0  0
  189.6220  177.0930  146.4330 C   0  0  0  0  0  2  0  0  0  0  0  0
  188.5260  175.2540  143.4110 C   0  0  0  0  0  1  0  0  0  0  0  0
  189.3620  176.2920  144.1520 C   0  0  2  0  0  3  0  0  0  0  0  0
  191.6490  175.9070  146.9490 C   0  0  2  0  0  3  0  0  0  0  0  0
  190.8980  176.6210  145.9140 N   0  0  1  0  0  0  0  0  0  0  0  0
  192.2050  176.8240  147.8420 O   0  0  0  0  0  1  0  0  0  0  0  0
  191.7520  175.3760  144.0040 C   0  0  1  0  0  3  0  0  0  0  0  0
  190.5310  175.6710  144.8760 C   0  0  2  0  0  3  0  0  0  0  0  0
  193.0410  175.3440  144.8470 C   0  0  1  0  0  3  0  0  0  0  0  0
  188.6310  177.0450  145.2710 C   0  0  1  0  0  3  0  0  0  0  0  0
  191.5550  173.7760  143.1650 S   0  0  0  0  0  0  0  0  0  0  0  0
  191.7390  174.5310  141.5260 C   0  0  2  0  0  3  0  0  0  0  0  0
  189.7930  173.5810  140.5750 O   0  0  0  0  0  0  0  0  0  0  0  0
  191.0060  173.6960  140.5220 C   0  0  0  0  0  3  0  0  0  0  0  0
  193.9560  173.4090  141.7320 C   0  0  0  0  0  1  0  0  0  0  0  0
  193.2160  174.6150  141.1820 C   0  0  0  0  0  2  0  0  0  0  0  0
  187.2810  176.4640  145.7200 C   0  0  0  0  0  2  0  0  0  0  0  0
  186.8400  176.9740  147.0870 C   0  0  0  0  0  2  0  0  0  0  0  0
  185.9400  179.1250  147.5550 O   0  0  0  0  0  0  0  0  0  0  0  0
  185.8200  178.0430  146.9210 C   0  0  0  0  0  0  0  0  0  0  0  0
  184.7280  177.8460  146.0210 N   0  0  0  0  0  2  0  0  0  0  0  0
  183.7720  178.8470  145.7970 N   0  0  0  0  0  2  0  0  0  0  0  0
  183.6630  179.0090  144.4090 N   0  0  0  0  0  2  0  0  0  0  0  0
  187.8890  177.8280  140.9570 F   0  0  0  0  0  0  0  0  0  0  0  0
  187.0050  179.1420  142.7390 C   0  0  0  0  0  3  0  0  0  0  0  0
  184.7510  178.7170  143.5320 C   0  0  0  0  0  0  0  0  0  0  0  0
  184.6170  177.6950  142.5870 C   0  0  0  0  0  3  0  0  0  0  0  0
  185.6720  177.3950  141.7200 C   0  0  0  0  0  3  0  0  0  0  0  0
  186.8670  178.1190  141.7960 C   0  0  0  0  0  0  0  0  0  0  0  0
  185.9500  179.4420  143.6060 C   0  0  0  0  0  3  0  0  0  0  0  0
  193.7500  176.6040  144.7050 N   0  0  0  0  0  2  0  0  0  0  0  0
  195.0530  176.3880  145.1710 N   0  0  0  0  0  2  0  0  0  0  0  0
  195.8070  175.8170  144.0660 C   0  0  1  0  0  3  0  0  0  0  0  0
  196.5460  176.8210  143.4410 O   0  0  0  0  0  0  0  0  0  0  0  0
  196.2900  176.6580  142.0800 C   0  0  0  0  0  1  0  0  0  0  0  0
  196.7510  174.7450  144.5870 C   0  0  0  0  0  2  0  0  0  0  0  0
  196.3980  174.3890  145.8880 O   0  0  0  0  0  0  0  0  0  0  0  0
  196.8200  173.0660  146.0130 C   0  0  0  0  0  1  0  0  0  0  0  0
  1  5  1  0  0  0  0
  4  3  1  1  0  0  0
  4  9  1  0  0  0  0
  4 11  1  0  0  0  0
  5  7  1  1  0  0  0
  6  2  1  1  0  0  0
  6  5  1  0  0  0  0
  8 12  1  1  0  0  0
  8 10  1  0  0  0  0
  8  9  1  0  0  0  0
  9  6  1  0  0  0  0
 10  1  1  0  0  0  0
 11 18  1  0  0  0  0
 11  2  1  0  0  0  0
 13 12  1  0  0  0  0
 15 14  2  0  0  0  0
 15 13  1  0  0  0  0
 17 13  1  0  0  0  0
 17 16  1  0  0  0  0
 18 19  1  0  0  0  0
 21 19  1  0  0  0  0
 21 20  2  0  0  0  0
 22 21  1  0  0  0  0
 23 22  1  0  0  0  0
 24 23  1  0  0  0  0
 25 30  1  0  0  0  0
 26 31  1  0  0  0  0
 27 31  2  0  0  0  0
 27 24  1  0  0  0  0
 28 27  1  0  0  0  0
 29 30  1  0  0  0  0
 29 28  2  0  0  0  0
 30 26  2  0  0  0  0
 32 10  1  0  0  0  0
 32 33  1  0  0  0  0
 34 37  1  0  0  0  0
 34 33  1  0  0  0  0
 35 34  1  0  0  0  0
 36 35  1  0  0  0  0
 37 38  1  0  0  0  0
 38 39  1  0  0  0  0
M  END
>  <MODEL>
1

>  <REMARK>
 VINA RESULT:      -6.5      0.000      0.000
  Name = 
  16 active torsions:
  status: ('A' for Active; 'I' for Inactive)
    1  A    between atoms: O_4  and  C_23
    2  A    between atoms: C_6  and  C_32
    3  A    between atoms: O_9  and  C_27
    4  A    between atoms: N_11  and  C_20
    5  A    between atoms: N_11  and  N_25
    6  A    between atoms: C_16  and  C_32
    7  A    between atoms: C_16  and  C_36
    8  A    between atoms: C_18  and  S_30
    9  A    between atoms: C_21  and  N_22
   10  A    between atoms: N_22  and  N_38
   11  A    between atoms: C_23  and  C_27
   12  A    between atoms: N_25  and  C_27
   13  A    between atoms: C_26  and  S_30
   14  A    between atoms: C_26  and  C_31
   15  A    between atoms: C_26  and  C_37
   16  A    between atoms: N_28  and  N_38
                            x       y       z     vdW  Elec       q    Type
                         _______ _______ _______ _____ _____    ______ ____

>  <TORSDO>
F 16

$$$$
=
 OpenBabel11072409123D

 39 41  0  0  1  0  0  0  0  0999 V2000
  191.6610  177.3970  143.3110 C   0  0  0  0  0  2  0  0  0  0  0  0
  188.2280  176.5910  144.6320 C   0  0  0  0  0  2  0  0  0  0  0  0
  189.8910  174.8920  147.4720 C   0  0  0  0  0  1  0  0  0  0  0  0
  189.4370  175.0020  146.0210 C   0  0  2  0  0  3  0  0  0  0  0  0
  190.1360  177.5490  143.5250 C   0  0  2  0  0  3  0  0  0  0  0  0
  189.5450  176.3240  144.0680 N   0  0  1  0  0  0  0  0  0  0  0  0
  189.5340  177.8600  142.3050 O   0  0  0  0  0  1  0  0  0  0  0  0
  191.6270  175.2360  144.7080 C   0  0  1  0  0  3  0  0  0  0  0  0
  190.3400  175.8960  145.2070 C   0  0  2  0  0  3  0  0  0  0  0  0
  192.1570  175.9420  143.4450 C   0  0  1  0  0  3  0  0  0  0  0  0
  188.0550  175.6360  145.8120 C   0  0  1  0  0  3  0  0  0  0  0  0
  192.9050  175.2940  145.9990 S   0  0  0  0  0  0  0  0  0  0  0  0
  194.2410  175.1200  144.7840 C   0  0  2  0  0  3  0  0  0  0  0  0
  195.9690  173.5610  145.2060 O   0  0  0  0  0  0  0  0  0  0  0  0
  194.8070  173.7370  144.8790 C   0  0  0  0  0  3  0  0  0  0  0  0
  194.7190  177.3260  145.8420 C   0  0  0  0  0  1  0  0  0  0  0  0
  195.3100  176.1610  145.0710 C   0  0  0  0  0  2  0  0  0  0  0  0
  187.4430  176.3570  147.0210 C   0  0  0  0  0  2  0  0  0  0  0  0
  187.5460  177.8750  146.9230 C   0  0  0  0  0  2  0  0  0  0  0  0
  185.9620  179.4790  147.6830 O   0  0  0  0  0  0  0  0  0  0  0  0
  186.1860  178.4750  146.9540 C   0  0  0  0  0  0  0  0  0  0  0  0
  185.1520  177.9280  146.1350 N   0  0  0  0  0  2  0  0  0  0  0  0
  183.8700  178.4930  146.0960 N   0  0  0  0  0  2  0  0  0  0  0  0
  183.8220  179.3290  144.9710 N   0  0  0  0  0  2  0  0  0  0  0  0
  186.2590  177.9020  140.1550 F   0  0  0  0  0  0  0  0  0  0  0  0
  184.3150  177.9420  141.5340 C   0  0  0  0  0  3  0  0  0  0  0  0
  184.4330  178.9580  143.7350 C   0  0  0  0  0  0  0  0  0  0  0  0
  185.7810  179.2590  143.5180 C   0  0  0  0  0  3  0  0  0  0  0  0
  186.3960  178.9040  142.3140 C   0  0  0  0  0  3  0  0  0  0  0  0
  185.6630  178.2450  141.3220 C   0  0  0  0  0  0  0  0  0  0  0  0
  183.7000  178.2970  142.7390 C   0  0  0  0  0  3  0  0  0  0  0  0
  191.7880  175.1790  142.2660 N   0  0  0  0  0  2  0  0  0  0  0  0
  191.8130  173.8280  142.6370 N   0  0  0  0  0  2  0  0  0  0  0  0
  190.6500  173.2020  142.0290 C   0  0  1  0  0  3  0  0  0  0  0  0
  189.6570  173.0360  142.9940 O   0  0  0  0  0  0  0  0  0  0  0  0
  188.5700  172.5060  142.2990 C   0  0  0  0  0  1  0  0  0  0  0  0
  190.1210  174.0790  140.9060 C   0  0  0  0  0  2  0  0  0  0  0  0
  190.4680  173.5340  139.6700 O   0  0  0  0  0  0  0  0  0  0  0  0
  189.3330  173.7110  138.8810 C   0  0  0  0  0  1  0  0  0  0  0  0
  1 10  1  0  0  0  0
  1  5  1  0  0  0  0
  2 11  1  0  0  0  0
  4  3  1  1  0  0  0
  5  7  1  6  0  0  0
  5  6  1  0  0  0  0
  6  2  1  1  0  0  0
  6  9  1  0  0  0  0
  8  9  1  0  0  0  0
  8 12  1  1  0  0  0
  9  4  1  0  0  0  0
 10  8  1  0  0  0  0
 11  4  1  0  0  0  0
 11 18  1  0  0  0  0
 13 15  1  0  0  0  0
 13 17  1  0  0  0  0
 13 12  1  0  0  0  0
 15 14  2  0  0  0  0
 17 16  1  0  0  0  0
 19 21  1  0  0  0  0
 19 18  1  0  0  0  0
 21 20  2  0  0  0  0
 22 21  1  0  0  0  0
 23 22  1  0  0  0  0
 24 23  1  0  0  0  0
 25 30  1  0  0  0  0
 26 31  1  0  0  0  0
 27 24  1  0  0  0  0
 28 27  1  0  0  0  0
 29 28  2  0  0  0  0
 30 26  2  0  0  0  0
 30 29  1  0  0  0  0
 31 27  2  0  0  0  0
 32 33  1  0  0  0  0
 32 10  1  0  0  0  0
 34 33  1  0  0  0  0
 34 35  1  0  0  0  0
 36 35  1  0  0  0  0
 37 34  1  0  0  0  0
 38 37  1  0  0  0  0
 39 38  1  0  0  0  0
M  END
>  <MODEL>
2

>  <REMARK>
 VINA RESULT:      -6.0      2.110      4.460
  Name = 
  16 active torsions:
  status: ('A' for Active; 'I' for Inactive)
    1  A    between atoms: O_4  and  C_23
    2  A    between atoms: C_6  and  C_32
    3  A    between atoms: O_9  and  C_27
    4  A    between atoms: N_11  and  C_20
    5  A    between atoms: N_11  and  N_25
    6  A    between atoms: C_16  and  C_32
    7  A    between atoms: C_16  and  C_36
    8  A    between atoms: C_18  and  S_30
    9  A    between atoms: C_21  and  N_22
   10  A    between atoms: N_22  and  N_38
   11  A    between atoms: C_23  and  C_27
   12  A    between atoms: N_25  and  C_27
   13  A    between atoms: C_26  and  S_30
   14  A    between atoms: C_26  and  C_31
   15  A    between atoms: C_26  and  C_37
   16  A    between atoms: N_28  and  N_38
                            x       y       z     vdW  Elec       q    Type
                         _______ _______ _______ _____ _____    ______ ____

>  <TORSDO>
F 16

$$$$
=
 OpenBabel11072409123D

 39 41  0  0  1  0  0  0  0  0999 V2000
  192.1840  173.5690  141.2010 C   0  0  0  0  0  2  0  0  0  0  0  0
  189.2280  175.4310  142.6040 C   0  0  0  0  0  2  0  0  0  0  0  0
  191.5750  178.1390  143.5400 C   0  0  0  0  0  1  0  0  0  0  0  0
  190.9390  176.7630  143.7060 C   0  0  2  0  0  3  0  0  0  0  0  0
  190.7050  173.9850  141.3750 C   0  0  2  0  0  3  0  0  0  0  0  0
  190.4930  174.7090  142.6300 N   0  0  1  0  0  0  0  0  0  0  0  0
  189.9050  172.8420  141.3530 O   0  0  0  0  0  1  0  0  0  0  0  0
  192.8360  175.1350  143.1360 C   0  0  1  0  0  3  0  0  0  0  0  0
  191.4980  175.7550  142.7310 C   0  0  2  0  0  3  0  0  0  0  0  0
  193.0280  173.7540  142.4800 C   0  0  1  0  0  3  0  0  0  0  0  0
  189.4310  176.7010  143.4300 C   0  0  1  0  0  3  0  0  0  0  0  0
  194.2070  176.2200  142.6410 S   0  0  0  0  0  0  0  0  0  0  0  0
  194.9430  176.1660  144.2980 C   0  0  2  0  0  3  0  0  0  0  0  0
  196.3200  174.4830  143.3690 O   0  0  0  0  0  0  0  0  0  0  0  0
  196.1650  175.3020  144.2600 C   0  0  0  0  0  3  0  0  0  0  0  0
  193.9300  176.4190  146.5620 C   0  0  0  0  0  1  0  0  0  0  0  0
  193.9220  175.6130  145.2760 C   0  0  0  0  0  2  0  0  0  0  0  0
  188.8110  177.9190  142.7300 C   0  0  0  0  0  2  0  0  0  0  0  0
  187.3390  177.7240  142.3880 C   0  0  0  0  0  2  0  0  0  0  0  0
  185.9150  176.3750  143.7340 O   0  0  0  0  0  0  0  0  0  0  0  0
  186.5660  177.4490  143.6280 C   0  0  0  0  0  0  0  0  0  0  0  0
  186.5920  178.3900  144.7030 N   0  0  0  0  0  2  0  0  0  0  0  0
  185.9190  178.1480  145.9080 N   0  0  0  0  0  2  0  0  0  0  0  0
  186.8720  178.2180  146.9340 N   0  0  0  0  0  2  0  0  0  0  0  0
  191.2570  174.7700  147.1440 F   0  0  0  0  0  0  0  0  0  0  0  0
  188.9090  175.0840  146.8830 C   0  0  0  0  0  3  0  0  0  0  0  0
  187.9850  177.3260  146.9860 C   0  0  0  0  0  0  0  0  0  0  0  0
  189.2680  177.8390  147.1960 C   0  0  0  0  0  3  0  0  0  0  0  0
  190.3700  176.9800  147.2490 C   0  0  0  0  0  3  0  0  0  0  0  0
  190.1900  175.6020  147.0930 C   0  0  0  0  0  0  0  0  0  0  0  0
  187.8070  175.9430  146.8290 C   0  0  0  0  0  3  0  0  0  0  0  0
  192.7150  172.7090  143.4400 N   0  0  0  0  0  2  0  0  0  0  0  0
  193.9380  172.2230  143.9180 N   0  0  0  0  0  2  0  0  0  0  0  0
  193.6290  171.2210  144.9260 C   0  0  1  0  0  3  0  0  0  0  0  0
  193.0650  170.1040  144.3100 O   0  0  0  0  0  0  0  0  0  0  0  0
  193.6750  169.0110  144.9260 C   0  0  0  0  0  1  0  0  0  0  0  0
  194.9010  170.8090  145.6490 C   0  0  0  0  0  2  0  0  0  0  0  0
  195.7720  171.8950  145.7410 O   0  0  0  0  0  0  0  0  0  0  0  0
  197.0440  171.3270  145.6910 C   0  0  0  0  0  1  0  0  0  0  0  0
  1  5  1  0  0  0  0
  1 10  1  0  0  0  0
  2 11  1  0  0  0  0
  4  3  1  6  0  0  0
  5  7  1  1  0  0  0
  5  6  1  0  0  0  0
  6  2  1  6  0  0  0
  6  9  1  0  0  0  0
  8 12  1  6  0  0  0
  9  8  1  0  0  0  0
  9  4  1  0  0  0  0
 10  8  1  0  0  0  0
 10 32  1  0  0  0  0
 11  4  1  0  0  0  0
 12 13  1  0  0  0  0
 13 17  1  0  0  0  0
 14 15  2  0  0  0  0
 15 13  1  0  0  0  0
 17 16  1  0  0  0  0
 18 11  1  0  0  0  0
 19 18  1  0  0  0  0
 19 21  1  0  0  0  0
 21 20  2  0  0  0  0
 21 22  1  0  0  0  0
 22 23  1  0  0  0  0
 23 24  1  0  0  0  0
 24 27  1  0  0  0  0
 26 30  1  0  0  0  0
 27 28  2  0  0  0  0
 28 29  1  0  0  0  0
 30 25  1  0  0  0  0
 30 29  2  0  0  0  0
 31 26  2  0  0  0  0
 31 27  1  0  0  0  0
 32 33  1  0  0  0  0
 33 34  1  0  0  0  0
 34 37  1  0  0  0  0
 35 36  1  0  0  0  0
 35 34  1  0  0  0  0
 37 38  1  0  0  0  0
 39 38  1  0  0  0  0
M  END
>  <MODEL>
3

>  <REMARK>
 VINA RESULT:      -6.0      2.803      5.041
  Name = 
  16 active torsions:
  status: ('A' for Active; 'I' for Inactive)
    1  A    between atoms: O_4  and  C_23
    2  A    between atoms: C_6  and  C_32
    3  A    between atoms: O_9  and  C_27
    4  A    between atoms: N_11  and  C_20
    5  A    between atoms: N_11  and  N_25
    6  A    between atoms: C_16  and  C_32
    7  A    between atoms: C_16  and  C_36
    8  A    between atoms: C_18  and  S_30
    9  A    between atoms: C_21  and  N_22
   10  A    between atoms: N_22  and  N_38
   11  A    between atoms: C_23  and  C_27
   12  A    between atoms: N_25  and  C_27
   13  A    between atoms: C_26  and  S_30
   14  A    between atoms: C_26  and  C_31
   15  A    between atoms: C_26  and  C_37
   16  A    between atoms: N_28  and  N_38
                            x       y       z     vdW  Elec       q    Type
                         _______ _______ _______ _____ _____    ______ ____

>  <TORSDO>
F 16

$$$$
=
 OpenBabel11072409123D

 39 41  0  0  1  0  0  0  0  0999 V2000
  193.3870  174.9980  141.8090 C   0  0  0  0  0  2  0  0  0  0  0  0
  189.9210  173.5290  141.8250 C   0  0  0  0  0  2  0  0  0  0  0  0
  189.0560  175.9910  144.4530 C   0  0  0  0  0  1  0  0  0  0  0  0
  189.7220  174.7210  143.9360 C   0  0  2  0  0  3  0  0  0  0  0  0
  192.1430  174.2560  141.2660 C   0  0  2  0  0  3  0  0  0  0  0  0
  191.2400  173.8560  142.3480 N   0  0  1  0  0  0  0  0  0  0  0  0
  192.5610  173.1250  140.5620 O   0  0  0  0  0  1  0  0  0  0  0  0
  192.2300  175.2310  144.0960 C   0  0  1  0  0  3  0  0  0  0  0  0
  191.0090  175.0100  143.2020 C   0  0  2  0  0  3  0  0  0  0  0  0
  193.5350  174.9070  143.3430 C   0  0  1  0  0  3  0  0  0  0  0  0
  188.9110  173.9320  142.8990 C   0  0  1  0  0  3  0  0  0  0  0  0
  192.2880  176.9560  144.6650 S   0  0  0  0  0  0  0  0  0  0  0  0
  192.7100  176.4590  146.3580 C   0  0  2  0  0  3  0  0  0  0  0  0
  194.9210  177.1010  145.8170 O   0  0  0  0  0  0  0  0  0  0  0  0
  194.1990  176.3770  146.4840 C   0  0  0  0  0  3  0  0  0  0  0  0
  191.0670  175.2440  147.7850 C   0  0  0  0  0  1  0  0  0  0  0  0
  192.0700  175.1140  146.6540 C   0  0  0  0  0  2  0  0  0  0  0  0
  187.7040  174.6510  142.2810 C   0  0  0  0  0  2  0  0  0  0  0  0
  188.0950  175.6310  141.1800 C   0  0  0  0  0  2  0  0  0  0  0  0
  188.2660  177.9770  141.5290 O   0  0  0  0  0  0  0  0  0  0  0  0
  187.5130  176.9680  141.4660 C   0  0  0  0  0  0  0  0  0  0  0  0
  186.1020  177.1050  141.6380 N   0  0  0  0  0  2  0  0  0  0  0  0
  185.5060  178.3550  141.8590 N   0  0  0  0  0  2  0  0  0  0  0  0
  184.5920  178.1950  142.9100 N   0  0  0  0  0  2  0  0  0  0  0  0
  186.2410  178.0620  148.2420 F   0  0  0  0  0  0  0  0  0  0  0  0
  185.5930  179.3290  146.3290 C   0  0  0  0  0  3  0  0  0  0  0  0
  185.0140  178.1750  144.2740 C   0  0  0  0  0  0  0  0  0  0  0  0
  185.2630  176.9490  144.8980 C   0  0  0  0  0  3  0  0  0  0  0  0
  185.6760  176.9100  146.2330 C   0  0  0  0  0  3  0  0  0  0  0  0
  185.8410  178.1000  146.9490 C   0  0  0  0  0  0  0  0  0  0  0  0
  185.1800  179.3670  144.9940 C   0  0  0  0  0  3  0  0  0  0  0  0
  194.0030  173.5860  143.7220 N   0  0  0  0  0  2  0  0  0  0  0  0
  195.2670  173.4250  143.1410 N   0  0  0  0  0  2  0  0  0  0  0  0
  196.1880  174.2570  143.8990 C   0  0  1  0  0  3  0  0  0  0  0  0
  197.0530  173.4430  144.6300 O   0  0  0  0  0  0  0  0  0  0  0  0
  196.7130  173.6690  145.9640 C   0  0  0  0  0  1  0  0  0  0  0  0
  196.9970  175.1260  142.9490 C   0  0  0  0  0  2  0  0  0  0  0  0
  196.7010  176.4720  143.1630 O   0  0  0  0  0  0  0  0  0  0  0  0
  197.9410  177.1080  143.1410 C   0  0  0  0  0  1  0  0  0  0  0  0
  1 10  1  0  0  0  0
  2 11  1  0  0  0  0
  4  3  1  6  0  0  0
  5  7  1  1  0  0  0
  5  1  1  0  0  0  0
  5  6  1  0  0  0  0
  6  2  1  6  0  0  0
  6  9  1  0  0  0  0
  8 12  1  6  0  0  0
  9  4  1  0  0  0  0
  9  8  1  0  0  0  0
 10 32  1  0  0  0  0
 10  8  1  0  0  0  0
 11  4  1  0  0  0  0
 12 13  1  0  0  0  0
 13 15  1  0  0  0  0
 13 17  1  0  0  0  0
 14 15  2  0  0  0  0
 17 16  1  0  0  0  0
 18 11  1  0  0  0  0
 19 21  1  0  0  0  0
 19 18  1  0  0  0  0
 21 20  2  0  0  0  0
 21 22  1  0  0  0  0
 22 23  1  0  0  0  0
 23 24  1  0  0  0  0
 24 27  1  0  0  0  0
 26 30  1  0  0  0  0
 27 28  2  0  0  0  0
 27 31  1  0  0  0  0
 28 29  1  0  0  0  0
 29 30  2  0  0  0  0
 30 25  1  0  0  0  0
 31 26  2  0  0  0  0
 33 32  1  0  0  0  0
 33 34  1  0  0  0  0
 34 35  1  0  0  0  0
 35 36  1  0  0  0  0
 37 38  1  0  0  0  0
 37 34  1  0  0  0  0
 39 38  1  0  0  0  0
M  END
>  <MODEL>
4

>  <REMARK>
 VINA RESULT:      -5.9      2.539      4.670
  Name = 
  16 active torsions:
  status: ('A' for Active; 'I' for Inactive)
    1  A    between atoms: O_4  and  C_23
    2  A    between atoms: C_6  and  C_32
    3  A    between atoms: O_9  and  C_27
    4  A    between atoms: N_11  and  C_20
    5  A    between atoms: N_11  and  N_25
    6  A    between atoms: C_16  and  C_32
    7  A    between atoms: C_16  and  C_36
    8  A    between atoms: C_18  and  S_30
    9  A    between atoms: C_21  and  N_22
   10  A    between atoms: N_22  and  N_38
   11  A    between atoms: C_23  and  C_27
   12  A    between atoms: N_25  and  C_27
   13  A    between atoms: C_26  and  S_30
   14  A    between atoms: C_26  and  C_31
   15  A    between atoms: C_26  and  C_37
   16  A    between atoms: N_28  and  N_38
                            x       y       z     vdW  Elec       q    Type
                         _______ _______ _______ _____ _____    ______ ____

>  <TORSDO>
F 16

$$$$
=
 OpenBabel11072409123D

 39 41  0  0  1  0  0  0  0  0999 V2000
  193.3840  173.4730  145.7520 C   0  0  0  0  0  2  0  0  0  0  0  0
  192.0030  176.8900  144.9790 C   0  0  0  0  0  2  0  0  0  0  0  0
  189.0160  175.1970  143.5900 C   0  0  0  0  0  1  0  0  0  0  0  0
  190.4720  175.6470  143.5550 C   0  0  2  0  0  3  0  0  0  0  0  0
  193.1880  175.0020  145.8820 C   0  0  2  0  0  3  0  0  0  0  0  0
  192.5370  175.5640  144.6960 N   0  0  1  0  0  0  0  0  0  0  0  0
  194.4320  175.6070  146.0650 O   0  0  0  0  0  1  0  0  0  0  0  0
  191.7960  173.4570  143.7270 C   0  0  1  0  0  3  0  0  0  0  0  0
  191.3620  174.7630  144.3950 C   0  0  2  0  0  3  0  0  0  0  0  0
  193.1170  172.9400  144.3290 C   0  0  1  0  0  3  0  0  0  0  0  0
  190.7410  177.0430  144.1310 C   0  0  1  0  0  3  0  0  0  0  0  0
  190.5130  172.1870  143.9350 S   0  0  0  0  0  0  0  0  0  0  0  0
  190.4320  171.8750  142.1500 C   0  0  2  0  0  3  0  0  0  0  0  0
  192.0540  170.1610  142.2980 O   0  0  0  0  0  0  0  0  0  0  0  0
  190.9640  170.5030  141.8720 C   0  0  0  0  0  3  0  0  0  0  0  0
  190.5410  173.3690  140.1580 C   0  0  0  0  0  1  0  0  0  0  0  0
  191.2510  172.9280  141.4240 C   0  0  0  0  0  2  0  0  0  0  0  0
  189.6040  177.6800  144.9430 C   0  0  0  0  0  2  0  0  0  0  0  0
  189.6750  177.3470  146.4290 C   0  0  0  0  0  2  0  0  0  0  0  0
  188.2890  175.5200  147.0570 O   0  0  0  0  0  0  0  0  0  0  0  0
  188.3840  176.7630  146.8770 C   0  0  0  0  0  0  0  0  0  0  0  0
  187.2690  177.6200  147.1300 N   0  0  0  0  0  2  0  0  0  0  0  0
  186.0480  177.1170  147.6010 N   0  0  0  0  0  2  0  0  0  0  0  0
  185.0450  177.6090  146.7540 N   0  0  0  0  0  2  0  0  0  0  0  0
  186.0110  178.7170  141.3680 F   0  0  0  0  0  0  0  0  0  0  0  0
  185.7980  177.1200  143.1250 C   0  0  0  0  0  3  0  0  0  0  0  0
  185.2940  177.8790  145.3750 C   0  0  0  0  0  0  0  0  0  0  0  0
  185.2750  179.2010  144.9190 C   0  0  0  0  0  3  0  0  0  0  0  0
  185.5170  179.4840  143.5710 C   0  0  0  0  0  3  0  0  0  0  0  0
  185.7780  178.4430  142.6740 C   0  0  0  0  0  0  0  0  0  0  0  0
  185.5570  176.8370  144.4730 C   0  0  0  0  0  3  0  0  0  0  0  0
  194.2220  173.2830  143.4510 N   0  0  0  0  0  2  0  0  0  0  0  0
  195.3390  172.5760  143.9140 N   0  0  0  0  0  2  0  0  0  0  0  0
  196.3870  173.5540  144.1580 C   0  0  1  0  0  3  0  0  0  0  0  0
  197.3890  172.9750  144.9360 O   0  0  0  0  0  0  0  0  0  0  0  0
  197.1000  173.3680  146.2420 C   0  0  0  0  0  1  0  0  0  0  0  0
  196.9780  174.0150  142.8350 C   0  0  0  0  0  2  0  0  0  0  0  0
  197.6510  175.2240  143.0080 O   0  0  0  0  0  0  0  0  0  0  0  0
  196.6370  176.1740  143.1210 C   0  0  0  0  0  1  0  0  0  0  0  0
  1  5  1  0  0  0  0
  4  3  1  1  0  0  0
  4 11  1  0  0  0  0
  4  9  1  0  0  0  0
  5  7  1  6  0  0  0
  6  2  1  1  0  0  0
  6  5  1  0  0  0  0
  8 12  1  1  0  0  0
  8 10  1  0  0  0  0
  8  9  1  0  0  0  0
  9  6  1  0  0  0  0
 10  1  1  0  0  0  0
 11 18  1  0  0  0  0
 11  2  1  0  0  0  0
 13 12  1  0  0  0  0
 15 13  1  0  0  0  0
 15 14  2  0  0  0  0
 16 17  1  0  0  0  0
 17 13  1  0  0  0  0
 18 19  1  0  0  0  0
 19 21  1  0  0  0  0
 21 20  2  0  0  0  0
 21 22  1  0  0  0  0
 22 23  1  0  0  0  0
 24 23  1  0  0  0  0
 25 30  1  0  0  0  0
 26 31  1  0  0  0  0
 27 24  1  0  0  0  0
 28 27  1  0  0  0  0
 29 28  2  0  0  0  0
 30 26  2  0  0  0  0
 30 29  1  0  0  0  0
 31 27  2  0  0  0  0
 32 33  1  0  0  0  0
 32 10  1  0  0  0  0
 33 34  1  0  0  0  0
 34 35  1  0  0  0  0
 35 36  1  0  0  0  0
 37 38  1  0  0  0  0
 37 34  1  0  0  0  0
 38 39  1  0  0  0  0
M  END
>  <MODEL>
5

>  <REMARK>
 VINA RESULT:      -5.8      2.090      2.957
  Name = 
  16 active torsions:
  status: ('A' for Active; 'I' for Inactive)
    1  A    between atoms: O_4  and  C_23
    2  A    between atoms: C_6  and  C_32
    3  A    between atoms: O_9  and  C_27
    4  A    between atoms: N_11  and  C_20
    5  A    between atoms: N_11  and  N_25
    6  A    between atoms: C_16  and  C_32
    7  A    between atoms: C_16  and  C_36
    8  A    between atoms: C_18  and  S_30
    9  A    between atoms: C_21  and  N_22
   10  A    between atoms: N_22  and  N_38
   11  A    between atoms: C_23  and  C_27
   12  A    between atoms: N_25  and  C_27
   13  A    between atoms: C_26  and  S_30
   14  A    between atoms: C_26  and  C_31
   15  A    between atoms: C_26  and  C_37
   16  A    between atoms: N_28  and  N_38
                            x       y       z     vdW  Elec       q    Type
                         _______ _______ _______ _____ _____    ______ ____

>  <TORSDO>
F 16

$$$$
=
 OpenBabel11072409123D

 39 41  0  0  1  0  0  0  0  0999 V2000
  193.6150  173.7300  145.7660 C   0  0  0  0  0  2  0  0  0  0  0  0
  192.0890  177.1270  145.2150 C   0  0  0  0  0  2  0  0  0  0  0  0
  189.4110  175.4400  143.2910 C   0  0  0  0  0  1  0  0  0  0  0  0
  190.8250  175.9750  143.4850 C   0  0  2  0  0  3  0  0  0  0  0  0
  193.2950  175.2180  146.0400 C   0  0  2  0  0  3  0  0  0  0  0  0
  192.7460  175.8780  144.8540 N   0  0  1  0  0  0  0  0  0  0  0  0
  194.4640  175.8680  146.4400 O   0  0  0  0  0  1  0  0  0  0  0  0
  192.2760  173.8620  143.5730 C   0  0  1  0  0  3  0  0  0  0  0  0
  191.6740  175.0520  144.3240 C   0  0  2  0  0  3  0  0  0  0  0  0
  193.5520  173.3550  144.2700 C   0  0  1  0  0  3  0  0  0  0  0  0
  190.9240  177.3070  144.2410 C   0  0  1  0  0  3  0  0  0  0  0  0
  191.0720  172.5040  143.4800 S   0  0  0  0  0  0  0  0  0  0  0  0
  191.4000  172.2380  141.7160 C   0  0  2  0  0  3  0  0  0  0  0  0
  189.1980  172.7900  141.0560 O   0  0  0  0  0  0  0  0  0  0  0  0
  190.1040  171.9750  141.0150 C   0  0  0  0  0  3  0  0  0  0  0  0
  192.3250  170.1970  142.8080 C   0  0  0  0  0  1  0  0  0  0  0  0
  192.3460  171.0590  141.5600 C   0  0  0  0  0  2  0  0  0  0  0  0
  189.6590  177.7750  144.9740 C   0  0  0  0  0  2  0  0  0  0  0  0
  189.6710  177.4330  146.4600 C   0  0  0  0  0  2  0  0  0  0  0  0
  188.2310  175.5900  146.8910 O   0  0  0  0  0  0  0  0  0  0  0  0
  188.3650  176.8430  146.8520 C   0  0  0  0  0  0  0  0  0  0  0  0
  187.2790  177.6990  147.2110 N   0  0  0  0  0  2  0  0  0  0  0  0
  186.0460  177.1840  147.6340 N   0  0  0  0  0  2  0  0  0  0  0  0
  185.0780  177.6350  146.7270 N   0  0  0  0  0  2  0  0  0  0  0  0
  186.2840  178.5900  141.3600 F   0  0  0  0  0  0  0  0  0  0  0  0
  185.9090  177.0390  143.1310 C   0  0  0  0  0  3  0  0  0  0  0  0
  185.3870  177.8660  145.3530 C   0  0  0  0  0  0  0  0  0  0  0  0
  185.4720  179.1790  144.8780 C   0  0  0  0  0  3  0  0  0  0  0  0
  185.7740  179.4230  143.5350 C   0  0  0  0  0  3  0  0  0  0  0  0
  185.9930  178.3530  142.6620 C   0  0  0  0  0  0  0  0  0  0  0  0
  185.6070  176.7940  144.4740 C   0  0  0  0  0  3  0  0  0  0  0  0
  194.7230  173.8640  143.5780 N   0  0  0  0  0  2  0  0  0  0  0  0
  194.3230  174.1490  142.2660 N   0  0  0  0  0  2  0  0  0  0  0  0
  195.2580  175.1330  141.7440 C   0  0  1  0  0  3  0  0  0  0  0  0
  194.6870  175.7770  140.6460 O   0  0  0  0  0  0  0  0  0  0  0  0
  195.2390  175.1420  139.5340 C   0  0  0  0  0  1  0  0  0  0  0  0
  195.5780  176.1590  142.8190 C   0  0  0  0  0  2  0  0  0  0  0  0
  196.7990  176.7760  142.5430 O   0  0  0  0  0  0  0  0  0  0  0  0
  197.7550  175.8120  142.8590 C   0  0  0  0  0  1  0  0  0  0  0  0
  1  5  1  0  0  0  0
  4  3  1  1  0  0  0
  4 11  1  0  0  0  0
  4  9  1  0  0  0  0
  5  7  1  6  0  0  0
  6  2  1  1  0  0  0
  6  5  1  0  0  0  0
  8 12  1  1  0  0  0
  8 10  1  0  0  0  0
  8  9  1  0  0  0  0
  9  6  1  0  0  0  0
 10  1  1  0  0  0  0
 11 18  1  0  0  0  0
 11  2  1  0  0  0  0
 13 12  1  0  0  0  0
 15 14  2  0  0  0  0
 15 13  1  0  0  0  0
 17 13  1  0  0  0  0
 17 16  1  0  0  0  0
 18 19  1  0  0  0  0
 19 21  1  0  0  0  0
 21 20  2  0  0  0  0
 21 22  1  0  0  0  0
 22 23  1  0  0  0  0
 24 23  1  0  0  0  0
 25 30  1  0  0  0  0
 26 31  1  0  0  0  0
 27 24  1  0  0  0  0
 28 27  1  0  0  0  0
 29 28  2  0  0  0  0
 30 26  2  0  0  0  0
 30 29  1  0  0  0  0
 31 27  2  0  0  0  0
 32 10  1  0  0  0  0
 33 32  1  0  0  0  0
 34 33  1  0  0  0  0
 34 37  1  0  0  0  0
 35 34  1  0  0  0  0
 36 35  1  0  0  0  0
 38 37  1  0  0  0  0
 38 39  1  0  0  0  0
M  END
>  <MODEL>
6

>  <REMARK>
 VINA RESULT:      -5.8      2.042      2.730
  Name = 
  16 active torsions:
  status: ('A' for Active; 'I' for Inactive)
    1  A    between atoms: O_4  and  C_23
    2  A    between atoms: C_6  and  C_32
    3  A    between atoms: O_9  and  C_27
    4  A    between atoms: N_11  and  C_20
    5  A    between atoms: N_11  and  N_25
    6  A    between atoms: C_16  and  C_32
    7  A    between atoms: C_16  and  C_36
    8  A    between atoms: C_18  and  S_30
    9  A    between atoms: C_21  and  N_22
   10  A    between atoms: N_22  and  N_38
   11  A    between atoms: C_23  and  C_27
   12  A    between atoms: N_25  and  C_27
   13  A    between atoms: C_26  and  S_30
   14  A    between atoms: C_26  and  C_31
   15  A    between atoms: C_26  and  C_37
   16  A    between atoms: N_28  and  N_38
                            x       y       z     vdW  Elec       q    Type
                         _______ _______ _______ _____ _____    ______ ____

>  <TORSDO>
F 16

$$$$
=
 OpenBabel11072409123D

 39 41  0  0  1  0  0  0  0  0999 V2000
  190.4180  175.1550  146.2840 C   0  0  0  0  0  2  0  0  0  0  0  0
  188.9450  176.9930  143.3460 C   0  0  0  0  0  2  0  0  0  0  0  0
  188.3730  173.6920  141.7660 C   0  0  0  0  0  1  0  0  0  0  0  0
  189.2440  174.8610  142.2140 C   0  0  2  0  0  3  0  0  0  0  0  0
  189.7260  176.3040  145.5140 C   0  0  2  0  0  3  0  0  0  0  0  0
  189.9040  176.1670  144.0660 N   0  0  1  0  0  0  0  0  0  0  0  0
  190.2600  177.5220  145.9380 O   0  0  0  0  0  1  0  0  0  0  0  0
  190.7010  173.8660  144.0740 C   0  0  1  0  0  3  0  0  0  0  0  0
  189.5570  174.8060  143.6890 C   0  0  2  0  0  3  0  0  0  0  0  0
  191.3530  174.3010  145.4010 C   0  0  1  0  0  3  0  0  0  0  0  0
  188.6090  176.2490  142.0540 C   0  0  1  0  0  3  0  0  0  0  0  0
  190.0860  172.1650  144.2480 S   0  0  0  0  0  0  0  0  0  0  0  0
  191.2720  171.5350  143.0280 C   0  0  2  0  0  3  0  0  0  0  0  0
  190.4970  171.0490  140.8470 O   0  0  0  0  0  0  0  0  0  0  0  0
  190.5380  170.7090  142.0180 C   0  0  0  0  0  3  0  0  0  0  0  0
  193.7050  171.2840  143.5080 C   0  0  0  0  0  1  0  0  0  0  0  0
  192.3230  170.7040  143.7430 C   0  0  0  0  0  2  0  0  0  0  0  0
  187.1000  176.2840  141.7720 C   0  0  0  0  0  2  0  0  0  0  0  0
  186.7190  177.3020  140.7030 C   0  0  0  0  0  2  0  0  0  0  0  0
  184.8330  178.6660  140.2140 O   0  0  0  0  0  0  0  0  0  0  0  0
  185.4320  177.9520  141.0620 C   0  0  0  0  0  0  0  0  0  0  0  0
  184.8680  177.7390  142.3580 N   0  0  0  0  0  2  0  0  0  0  0  0
  183.6320  178.2920  142.7210 N   0  0  0  0  0  2  0  0  0  0  0  0
  183.8860  179.2570  143.7060 N   0  0  0  0  0  2  0  0  0  0  0  0
  186.6590  178.0010  148.3860 F   0  0  0  0  0  0  0  0  0  0  0  0
  184.5840  178.3420  147.2630 C   0  0  0  0  0  3  0  0  0  0  0  0
  184.5830  178.9350  144.9090 C   0  0  0  0  0  0  0  0  0  0  0  0
  185.9810  178.8970  144.9050 C   0  0  0  0  0  3  0  0  0  0  0  0
  186.6800  178.5830  146.0740 C   0  0  0  0  0  3  0  0  0  0  0  0
  185.9820  178.3060  147.2530 C   0  0  0  0  0  0  0  0  0  0  0  0
  183.8850  178.6560  146.0930 C   0  0  0  0  0  3  0  0  0  0  0  0
  192.5810  175.0270  145.1280 N   0  0  0  0  0  2  0  0  0  0  0  0
  193.6380  174.1730  145.4700 N   0  0  0  0  0  2  0  0  0  0  0  0
  194.8410  174.7320  144.8770 C   0  0  1  0  0  3  0  0  0  0  0  0
  194.6500  176.0920  144.6350 O   0  0  0  0  0  0  0  0  0  0  0  0
  195.5040  176.3900  143.5730 C   0  0  0  0  0  1  0  0  0  0  0  0
  196.0160  174.5490  145.8250 C   0  0  0  0  0  2  0  0  0  0  0  0
  197.0070  173.7810  145.2140 O   0  0  0  0  0  0  0  0  0  0  0  0
  196.8070  172.4940  145.7110 C   0  0  0  0  0  1  0  0  0  0  0  0
  4  3  1  1  0  0  0
  4  9  1  0  0  0  0
  5  7  1  1  0  0  0
  5  1  1  0  0  0  0
  6  2  1  6  0  0  0
  6  5  1  0  0  0  0
  8 12  1  1  0  0  0
  8 10  1  0  0  0  0
  9  6  1  0  0  0  0
  9  8  1  0  0  0  0
 10  1  1  0  0  0  0
 11  4  1  0  0  0  0
 11  2  1  0  0  0  0
 13 17  1  0  0  0  0
 13 12  1  0  0  0  0
 14 15  2  0  0  0  0
 15 13  1  0  0  0  0
 16 17  1  0  0  0  0
 18 11  1  0  0  0  0
 19 21  1  0  0  0  0
 19 18  1  0  0  0  0
 20 21  2  0  0  0  0
 21 22  1  0  0  0  0
 22 23  1  0  0  0  0
 23 24  1  0  0  0  0
 24 27  1  0  0  0  0
 27 31  1  0  0  0  0
 28 27  2  0  0  0  0
 28 29  1  0  0  0  0
 29 30  2  0  0  0  0
 30 26  1  0  0  0  0
 30 25  1  0  0  0  0
 31 26  2  0  0  0  0
 32 10  1  0  0  0  0
 32 33  1  0  0  0  0
 34 33  1  0  0  0  0
 34 37  1  0  0  0  0
 35 34  1  0  0  0  0
 36 35  1  0  0  0  0
 38 39  1  0  0  0  0
 38 37  1  0  0  0  0
M  END
>  <MODEL>
7

>  <REMARK>
 VINA RESULT:      -5.7      2.544      3.532
  Name = 
  16 active torsions:
  status: ('A' for Active; 'I' for Inactive)
    1  A    between atoms: O_4  and  C_23
    2  A    between atoms: C_6  and  C_32
    3  A    between atoms: O_9  and  C_27
    4  A    between atoms: N_11  and  C_20
    5  A    between atoms: N_11  and  N_25
    6  A    between atoms: C_16  and  C_32
    7  A    between atoms: C_16  and  C_36
    8  A    between atoms: C_18  and  S_30
    9  A    between atoms: C_21  and  N_22
   10  A    between atoms: N_22  and  N_38
   11  A    between atoms: C_23  and  C_27
   12  A    between atoms: N_25  and  C_27
   13  A    between atoms: C_26  and  S_30
   14  A    between atoms: C_26  and  C_31
   15  A    between atoms: C_26  and  C_37
   16  A    between atoms: N_28  and  N_38
                            x       y       z     vdW  Elec       q    Type
                         _______ _______ _______ _____ _____    ______ ____

>  <TORSDO>
F 16

$$$$
=
 OpenBabel11072409123D

 39 41  0  0  1  0  0  0  0  0999 V2000
  191.3130  174.9000  146.3860 C   0  0  0  0  0  2  0  0  0  0  0  0
  189.6350  176.4140  143.3740 C   0  0  0  0  0  2  0  0  0  0  0  0
  190.0880  173.1530  141.6770 C   0  0  0  0  0  1  0  0  0  0  0  0
  190.5770  174.4890  142.2240 C   0  0  2  0  0  3  0  0  0  0  0  0
  190.4010  175.8600  145.5850 C   0  0  2  0  0  3  0  0  0  0  0  0
  190.7210  175.8390  144.1560 N   0  0  1  0  0  0  0  0  0  0  0  0
  190.5570  177.1550  146.0810 O   0  0  0  0  0  1  0  0  0  0  0  0
  192.0990  173.8320  144.1810 C   0  0  1  0  0  3  0  0  0  0  0  0
  190.7790  174.4530  143.7190 C   0  0  2  0  0  3  0  0  0  0  0  0
  192.5070  174.3630  145.5690 C   0  0  1  0  0  3  0  0  0  0  0  0
  189.6110  175.6670  142.0410 C   0  0  1  0  0  3  0  0  0  0  0  0
  191.9480  172.0230  144.2620 S   0  0  0  0  0  0  0  0  0  0  0  0
  193.3460  171.7830  143.1310 C   0  0  2  0  0  3  0  0  0  0  0  0
  192.1560  169.8190  142.5640 O   0  0  0  0  0  0  0  0  0  0  0  0
  193.1390  170.5140  142.3650 C   0  0  0  0  0  3  0  0  0  0  0  0
  194.3770  171.0810  145.2890 C   0  0  0  0  0  1  0  0  0  0  0  0
  194.6310  171.7230  143.9370 C   0  0  0  0  0  2  0  0  0  0  0  0
  188.1730  175.3160  141.6300 C   0  0  0  0  0  2  0  0  0  0  0  0
  187.4450  176.4770  140.9640 C   0  0  0  0  0  2  0  0  0  0  0  0
  185.8950  176.2220  142.7500 O   0  0  0  0  0  0  0  0  0  0  0  0
  186.3680  176.9770  141.8590 C   0  0  0  0  0  0  0  0  0  0  0  0
  185.8990  178.3190  141.7210 N   0  0  0  0  0  2  0  0  0  0  0  0
  184.9210  178.8470  142.5760 N   0  0  0  0  0  2  0  0  0  0  0  0
  185.5940  179.4790  143.6310 N   0  0  0  0  0  2  0  0  0  0  0  0
  185.9350  177.1710  148.7030 F   0  0  0  0  0  0  0  0  0  0  0  0
  184.6600  178.3540  147.0720 C   0  0  0  0  0  3  0  0  0  0  0  0
  185.6680  178.8930  144.9300 C   0  0  0  0  0  0  0  0  0  0  0  0
  186.8520  178.2710  145.3370 C   0  0  0  0  0  3  0  0  0  0  0  0
  186.9430  177.6920  146.6060 C   0  0  0  0  0  3  0  0  0  0  0  0
  185.8470  177.7330  147.4740 C   0  0  0  0  0  0  0  0  0  0  0  0
  184.5700  178.9340  145.8020 C   0  0  0  0  0  3  0  0  0  0  0  0
  193.5150  175.3990  145.4190 N   0  0  0  0  0  2  0  0  0  0  0  0
  194.7260  174.8470  145.8560 N   0  0  0  0  0  2  0  0  0  0  0  0
  195.7710  175.4000  145.0100 C   0  0  1  0  0  3  0  0  0  0  0  0
  196.8190  174.4860  144.9110 O   0  0  0  0  0  0  0  0  0  0  0  0
  196.8090  173.7980  146.1250 C   0  0  0  0  0  1  0  0  0  0  0  0
  195.2150  175.6820  143.6230 C   0  0  0  0  0  2  0  0  0  0  0  0
  196.2330  176.1370  142.7840 O   0  0  0  0  0  0  0  0  0  0  0  0
  195.5850  176.4510  141.5900 C   0  0  0  0  0  1  0  0  0  0  0  0
  4  3  1  1  0  0  0
  4  9  1  0  0  0  0
  5  7  1  1  0  0  0
  5  1  1  0  0  0  0
  6  2  1  6  0  0  0
  6  5  1  0  0  0  0
  8 12  1  1  0  0  0
  8 10  1  0  0  0  0
  9  6  1  0  0  0  0
  9  8  1  0  0  0  0
 10  1  1  0  0  0  0
 11  4  1  0  0  0  0
 11  2  1  0  0  0  0
 13 17  1  0  0  0  0
 13 12  1  0  0  0  0
 15 14  2  0  0  0  0
 15 13  1  0  0  0  0
 17 16  1  0  0  0  0
 18 11  1  0  0  0  0
 19 18  1  0  0  0  0
 19 21  1  0  0  0  0
 21 20  2  0  0  0  0
 22 21  1  0  0  0  0
 22 23  1  0  0  0  0
 23 24  1  0  0  0  0
 24 27  1  0  0  0  0
 26 30  1  0  0  0  0
 27 28  2  0  0  0  0
 27 31  1  0  0  0  0
 28 29  1  0  0  0  0
 29 30  2  0  0  0  0
 30 25  1  0  0  0  0
 31 26  2  0  0  0  0
 32 10  1  0  0  0  0
 32 33  1  0  0  0  0
 34 33  1  0  0  0  0
 35 34  1  0  0  0  0
 35 36  1  0  0  0  0
 37 34  1  0  0  0  0
 38 37  1  0  0  0  0
 39 38  1  0  0  0  0
M  END
>  <MODEL>
8

>  <REMARK>
 VINA RESULT:      -5.7      2.427      3.822
  Name = 
  16 active torsions:
  status: ('A' for Active; 'I' for Inactive)
    1  A    between atoms: O_4  and  C_23
    2  A    between atoms: C_6  and  C_32
    3  A    between atoms: O_9  and  C_27
    4  A    between atoms: N_11  and  C_20
    5  A    between atoms: N_11  and  N_25
    6  A    between atoms: C_16  and  C_32
    7  A    between atoms: C_16  and  C_36
    8  A    between atoms: C_18  and  S_30
    9  A    between atoms: C_21  and  N_22
   10  A    between atoms: N_22  and  N_38
   11  A    between atoms: C_23  and  C_27
   12  A    between atoms: N_25  and  C_27
   13  A    between atoms: C_26  and  S_30
   14  A    between atoms: C_26  and  C_31
   15  A    between atoms: C_26  and  C_37
   16  A    between atoms: N_28  and  N_38
                            x       y       z     vdW  Elec       q    Type
                         _______ _______ _______ _____ _____    ______ ____

>  <TORSDO>
F 16

$$$$
=
 OpenBabel11072409123D

 39 41  0  0  1  0  0  0  0  0999 V2000
  190.7580  172.7960  143.4790 C   0  0  0  0  0  2  0  0  0  0  0  0
  189.2540  175.1080  146.0430 C   0  0  0  0  0  2  0  0  0  0  0  0
  191.0600  177.8790  144.3770 C   0  0  0  0  0  1  0  0  0  0  0  0
  190.9730  176.6430  145.2650 C   0  0  2  0  0  3  0  0  0  0  0  0
  189.7430  173.3030  144.5310 C   0  0  2  0  0  3  0  0  0  0  0  0
  190.3070  174.3790  145.3490 N   0  0  1  0  0  0  0  0  0  0  0  0
  189.3690  172.2380  145.3510 O   0  0  0  0  0  1  0  0  0  0  0  0
  192.2420  174.8470  143.9470 C   0  0  1  0  0  3  0  0  0  0  0  0
  190.8990  175.3670  144.4620 C   0  0  2  0  0  3  0  0  0  0  0  0
  192.1900  173.3260  143.7040 C   0  0  1  0  0  3  0  0  0  0  0  0
  189.7220  176.5580  146.1500 C   0  0  1  0  0  3  0  0  0  0  0  0
  192.6850  175.6780  142.3930 S   0  0  0  0  0  0  0  0  0  0  0  0
  194.4480  175.6910  142.8180 C   0  0  2  0  0  3  0  0  0  0  0  0
  195.6120  176.1820  144.8170 O   0  0  0  0  0  0  0  0  0  0  0  0
  194.6270  176.3900  144.1290 C   0  0  0  0  0  3  0  0  0  0  0  0
  196.5530  175.7190  141.4820 C   0  0  0  0  0  1  0  0  0  0  0  0
  195.2180  176.4010  141.7180 C   0  0  0  0  0  2  0  0  0  0  0  0
  188.5820  177.5330  145.8190 C   0  0  0  0  0  2  0  0  0  0  0  0
  187.4770  177.5330  146.8690 C   0  0  0  0  0  2  0  0  0  0  0  0
  185.2350  176.8190  146.5180 O   0  0  0  0  0  0  0  0  0  0  0  0
  186.1500  177.6260  146.2040 C   0  0  0  0  0  0  0  0  0  0  0  0
  185.9130  178.6500  145.2360 N   0  0  0  0  0  2  0  0  0  0  0  0
  184.6630  178.8050  144.6220 N   0  0  0  0  0  2  0  0  0  0  0  0
  184.7480  178.2060  143.3570 N   0  0  0  0  0  2  0  0  0  0  0  0
  189.4040  175.6570  141.6270 F   0  0  0  0  0  0  0  0  0  0  0  0
  188.1110  177.6510  141.8230 C   0  0  0  0  0  3  0  0  0  0  0  0
  185.9430  177.5660  142.9100 C   0  0  0  0  0  0  0  0  0  0  0  0
  186.1120  176.1950  143.1290 C   0  0  0  0  0  3  0  0  0  0  0  0
  187.2760  175.5520  142.6970 C   0  0  0  0  0  3  0  0  0  0  0  0
  188.2760  176.2800  142.0440 C   0  0  0  0  0  0  0  0  0  0  0  0
  186.9470  178.2940  142.2540 C   0  0  0  0  0  3  0  0  0  0  0  0
  192.8090  172.6320  144.8200 N   0  0  0  0  0  2  0  0  0  0  0  0
  193.8410  171.8490  144.2860 N   0  0  0  0  0  2  0  0  0  0  0  0
  194.7970  171.6220  145.3570 C   0  0  1  0  0  3  0  0  0  0  0  0
  195.4350  170.3980  145.1570 O   0  0  0  0  0  0  0  0  0  0  0  0
  194.4360  169.4410  145.3340 C   0  0  0  0  0  1  0  0  0  0  0  0
  195.8320  172.7350  145.3680 C   0  0  0  0  0  2  0  0  0  0  0  0
  196.2640  172.9990  144.0690 O   0  0  0  0  0  0  0  0  0  0  0  0
  197.6470  173.1360  144.1830 C   0  0  0  0  0  1  0  0  0  0  0  0
  1 10  1  0  0  0  0
  1  5  1  0  0  0  0
  2 11  1  0  0  0  0
  4  3  1  6  0  0  0
  4 11  1  0  0  0  0
  5  6  1  0  0  0  0
  5  7  1  1  0  0  0
  6  2  1  6  0  0  0
  8 12  1  6  0  0  0
  8  9  1  0  0  0  0
  9  4  1  0  0  0  0
  9  6  1  0  0  0  0
 10  8  1  0  0  0  0
 10 32  1  0  0  0  0
 12 13  1  0  0  0  0
 13 15  1  0  0  0  0
 15 14  2  0  0  0  0
 16 17  1  0  0  0  0
 17 13  1  0  0  0  0
 18 11  1  0  0  0  0
 18 19  1  0  0  0  0
 21 20  2  0  0  0  0
 21 19  1  0  0  0  0
 22 21  1  0  0  0  0
 23 22  1  0  0  0  0
 24 23  1  0  0  0  0
 25 30  1  0  0  0  0
 26 30  2  0  0  0  0
 26 31  1  0  0  0  0
 27 28  1  0  0  0  0
 27 24  1  0  0  0  0
 29 28  2  0  0  0  0
 30 29  1  0  0  0  0
 31 27  2  0  0  0  0
 33 32  1  0  0  0  0
 33 34  1  0  0  0  0
 34 37  1  0  0  0  0
 35 36  1  0  0  0  0
 35 34  1  0  0  0  0
 38 39  1  0  0  0  0
 38 37  1  0  0  0  0
M  END
>  <MODEL>
9

>  <REMARK>
 VINA RESULT:      -5.7      2.295      3.490
  Name = 
  16 active torsions:
  status: ('A' for Active; 'I' for Inactive)
    1  A    between atoms: O_4  and  C_23
    2  A    between atoms: C_6  and  C_32
    3  A    between atoms: O_9  and  C_27
    4  A    between atoms: N_11  and  C_20
    5  A    between atoms: N_11  and  N_25
    6  A    between atoms: C_16  and  C_32
    7  A    between atoms: C_16  and  C_36
    8  A    between atoms: C_18  and  S_30
    9  A    between atoms: C_21  and  N_22
   10  A    between atoms: N_22  and  N_38
   11  A    between atoms: C_23  and  C_27
   12  A    between atoms: N_25  and  C_27
   13  A    between atoms: C_26  and  S_30
   14  A    between atoms: C_26  and  C_31
   15  A    between atoms: C_26  and  C_37
   16  A    between atoms: N_28  and  N_38
                            x       y       z     vdW  Elec       q    Type
                         _______ _______ _______ _____ _____    ______ ____

>  <TORSDO>
F 16

$$$$
