=
 OpenBabel11062422123D

 44 48  0  0  1  0  0  0  0  0999 V2000
  189.4860  178.1290  147.1430 C   0  0  0  0  0  3  0  0  0  0  0  0
  189.5500  175.1860  146.4490 C   0  0  0  0  0  3  0  0  0  0  0  0
  188.1130  175.4930  146.5580 C   0  0  0  0  0  3  0  0  0  0  0  0
  188.2950  177.7450  147.4880 N   0  0  0  0  0  0  0  0  0  0  0  0
  190.2330  177.5190  146.0070 C   0  0  0  0  0  2  0  0  0  0  0  0
  190.5280  176.0780  146.2460 C   0  0  0  0  0  0  0  0  0  0  0  0
  187.5450  176.6560  146.9160 C   0  0  0  0  0  0  0  0  0  0  0  0
  184.2920  178.7390  146.2130 S   0  0  0  0  0  0  0  0  0  0  0  0
  185.5430  176.5270  145.4360 C   0  0  0  0  0  2  0  0  0  0  0  0
  185.5030  178.0600  147.3930 C   0  0  0  0  0  2  0  0  0  0  0  0
  186.0400  176.7320  146.8650 C   0  0  2  0  0  3  0  0  0  0  0  0
  185.1100  177.8600  144.8530 C   0  0  2  0  0  3  0  0  0  0  0  0
  185.8380  180.0020  144.0520 O   0  0  0  0  0  1  0  0  0  0  0  0
  186.2840  178.7020  144.3140 C   0  0  2  0  0  3  0  0  0  0  0  0
  186.6650  174.8100  142.7150 F   0  0  0  0  0  0  0  0  0  0  0  0
  186.9910  178.1170  143.0720 C   0  0  1  0  0  0  0  0  0  0  0  0
  187.3050  179.1290  142.1800 F   0  0  0  0  0  0  0  0  0  0  0  0
  188.2670  177.3710  143.4160 C   0  0  0  0  0  2  0  0  0  0  0  0
  188.4150  176.3890  142.2790 C   0  0  2  0  0  3  0  0  0  0  0  0
  186.1000  177.0770  142.3750 C   0  0  2  0  0  3  0  0  0  0  0  0
  187.0010  175.9220  141.9600 C   0  0  2  0  0  3  0  0  0  0  0  0
  185.4630  177.6180  141.2570 O   0  0  0  0  0  1  0  0  0  0  0  0
  189.3720  175.2580  142.6270 C   0  0  0  0  0  3  0  0  0  0  0  0
  190.2300  175.0450  141.5690 O   0  0  0  0  0  0  0  0  0  0  0  0
  190.6630  175.7400  142.6320 O   0  0  0  0  0  0  0  0  0  0  0  0
  191.9000  175.6300  145.9640 C   0  0  0  0  0  3  0  0  0  0  0  0
  192.8120  176.4060  145.3860 C   0  0  0  0  0  3  0  0  0  0  0  0
  195.3020  176.9780  144.6210 O   0  0  0  0  0  0  0  0  0  0  0  0
  195.0190  175.4780  146.5330 O   0  0  0  0  0  0  0  0  0  0  0  0
  194.4700  175.8630  145.1900 S   0  0  0  0  0  0  0  0  0  0  0  0
  194.5030  174.4350  144.1030 C   0  0  2  0  0  3  0  0  0  0  0  0
  194.1960  173.1290  144.7970 C   0  0  0  0  0  3  0  0  0  0  0  0
  193.1060  172.3480  144.6850 C   0  0  0  0  0  3  0  0  0  0  0  0
  190.3570  170.1780  141.9100 O   0  0  0  0  0  1  0  0  0  0  0  0
  190.4630  171.5450  142.1590 C   0  0  2  0  0  3  0  0  0  0  0  0
  190.5920  172.1280  144.5160 C   0  0  0  0  0  2  0  0  0  0  0  0
  191.9070  171.8890  142.4880 C   0  0  0  0  0  2  0  0  0  0  0  0
  191.8710  172.5560  143.8490 C   0  0  2  0  0  3  0  0  0  0  0  0
  189.6240  171.9070  143.3740 C   0  0  0  0  0  2  0  0  0  0  0  0
  195.6820  174.3850  143.3560 O   0  0  0  0  0  0  0  0  0  0  0  0
  195.6920  173.4050  140.7570 O   0  0  0  0  0  0  0  0  0  0  0  0
  193.7260  174.8550  141.6880 O   0  0  0  0  0  1  0  0  0  0  0  0
  195.2270  174.6930  141.7520 P   0  0  0  0  0  0  0  0  0  0  0  0
  195.9620  176.1180  141.2100 O   0  0  0  0  0  1  0  0  0  0  0  0
  1  4  2  0  0  0  0
  2  3  1  0  0  0  0
  3  7  2  0  0  0  0
  5  6  1  0  0  0  0
  5  1  1  0  0  0  0
  6  2  2  0  0  0  0
  7  4  1  0  0  0  0
  8 10  1  0  0  0  0
  9 11  1  0  0  0  0
 11  7  1  6  0  0  0
 11 10  1  0  0  0  0
 12 14  1  1  0  0  0
 12  9  1  0  0  0  0
 12  8  1  0  0  0  0
 14 13  1  6  0  0  0
 16 17  1  6  0  0  0
 16 18  1  0  0  0  0
 16 14  1  0  0  0  0
 19 23  1  1  0  0  0
 19 18  1  0  0  0  0
 20 22  1  6  0  0  0
 20 16  1  0  0  0  0
 21 19  1  0  0  0  0
 21 20  1  0  0  0  0
 21 15  1  1  0  0  0
 23 25  1  0  0  0  0
 24 23  1  0  0  0  0
 24 25  1  0  0  0  0
 26  6  1  0  0  0  0
 27 26  2  0  0  0  0
 28 30  2  0  0  0  0
 30 27  1  0  0  0  0
 30 29  2  0  0  0  0
 31 32  1  1  0  0  0
 31 30  1  0  0  0  0
 33 32  2  0  0  0  0
 35 34  1  1  0  0  0
 35 37  1  0  0  0  0
 35 39  1  0  0  0  0
 37 38  1  0  0  0  0
 38 36  1  0  0  0  0
 38 33  1  1  0  0  0
 39 36  1  0  0  0  0
 40 31  1  0  0  0  0
 41 43  2  0  0  0  0
 42 43  1  0  0  0  0
 43 40  1  0  0  0  0
 44 43  1  0  0  0  0
M  END
>  <MODEL>
1

>  <REMARK>
 VINA RESULT:      -7.4      0.000      0.000
  Name = 
  11 active torsions:
  status: ('A' for Active; 'I' for Inactive)
    1  A    between atoms: C_1  and  C_24
    2  A    between atoms: C_2  and  C_38
    3  A    between atoms: C_6  and  C_30
    4  A    between atoms: C_8  and  S_42
    5  A    between atoms: C_11  and  C_41
    6  A    between atoms: C_17  and  C_20
    7  A    between atoms: C_24  and  O_39
    8  A    between atoms: C_24  and  S_42
    9  A    between atoms: P_27  and  O_39
   10  A    between atoms: C_37  and  C_44
   11  A    between atoms: C_41  and  C_43
                            x       y       z     vdW  Elec       q    Type
                         _______ _______ _______ _____ _____    ______ ____

>  <TORSDO>
F 11

$$$$
=
 OpenBabel11062422123D

 44 48  0  0  1  0  0  0  0  0999 V2000
  194.4340  176.7600  145.8480 C   0  0  0  0  0  3  0  0  0  0  0  0
  192.9420  174.1310  145.7580 C   0  0  0  0  0  3  0  0  0  0  0  0
  194.3600  173.7340  145.7380 C   0  0  0  0  0  3  0  0  0  0  0  0
  195.3500  175.9460  145.4210 N   0  0  0  0  0  0  0  0  0  0  0  0
  193.3540  176.3400  146.7850 C   0  0  0  0  0  2  0  0  0  0  0  0
  192.4640  175.3090  146.1800 C   0  0  0  0  0  0  0  0  0  0  0  0
  195.4380  174.5350  145.6950 C   0  0  0  0  0  0  0  0  0  0  0  0
  197.8920  171.7210  144.4800 S   0  0  0  0  0  0  0  0  0  0  0  0
  197.6900  174.3650  144.6380 C   0  0  0  0  0  2  0  0  0  0  0  0
  196.7020  172.3490  145.7080 C   0  0  0  0  0  2  0  0  0  0  0  0
  196.7910  173.8730  145.7700 C   0  0  2  0  0  3  0  0  0  0  0  0
  197.8020  173.2890  143.5740 C   0  0  2  0  0  3  0  0  0  0  0  0
  196.4600  171.9760  142.0790 O   0  0  0  0  0  1  0  0  0  0  0  0
  196.6070  173.2660  142.6000 C   0  0  2  0  0  3  0  0  0  0  0  0
  193.7010  175.3080  140.3120 F   0  0  0  0  0  0  0  0  0  0  0  0
  196.6750  174.3020  141.4570 C   0  0  1  0  0  0  0  0  0  0  0  0
  197.9410  174.8610  141.3940 F   0  0  0  0  0  0  0  0  0  0  0  0
  196.3480  173.7070  140.1000 C   0  0  0  0  0  2  0  0  0  0  0  0
  195.8390  174.8900  139.3130 C   0  0  2  0  0  3  0  0  0  0  0  0
  195.6340  175.4130  141.6640 C   0  0  2  0  0  3  0  0  0  0  0  0
  195.0250  175.7150  140.3010 C   0  0  2  0  0  3  0  0  0  0  0  0
  196.2140  176.5640  142.1980 O   0  0  0  0  0  1  0  0  0  0  0  0
  195.0570  174.4580  138.0810 C   0  0  0  0  0  3  0  0  0  0  0  0
  195.2400  175.3840  137.0770 O   0  0  0  0  0  0  0  0  0  0  0  0
  195.9330  174.2360  137.0410 O   0  0  0  0  0  0  0  0  0  0  0  0
  191.0160  175.5150  146.3310 C   0  0  0  0  0  3  0  0  0  0  0  0
  190.4510  176.7190  146.3250 C   0  0  0  0  0  3  0  0  0  0  0  0
  188.0800  175.6120  146.8400 O   0  0  0  0  0  0  0  0  0  0  0  0
  188.3580  177.9870  147.3540 O   0  0  0  0  0  0  0  0  0  0  0  0
  188.7050  176.8990  146.3800 S   0  0  0  0  0  0  0  0  0  0  0  0
  188.1020  177.3450  144.7500 C   0  0  2  0  0  3  0  0  0  0  0  0
  189.1900  177.7390  143.7800 C   0  0  0  0  0  3  0  0  0  0  0  0
  189.9140  176.9550  142.9580 C   0  0  0  0  0  3  0  0  0  0  0  0
  189.7240  173.8200  139.7800 O   0  0  0  0  0  1  0  0  0  0  0  0
  189.5200  173.6990  141.1540 C   0  0  2  0  0  3  0  0  0  0  0  0
  191.1940  174.8190  142.5170 C   0  0  0  0  0  2  0  0  0  0  0  0
  188.9160  174.9870  141.6910 C   0  0  0  0  0  2  0  0  0  0  0  0
  189.8580  175.4610  142.7800 C   0  0  2  0  0  3  0  0  0  0  0  0
  190.8570  173.5030  141.8500 C   0  0  0  0  0  2  0  0  0  0  0  0
  187.0770  178.2920  144.8230 O   0  0  0  0  0  0  0  0  0  0  0  0
  184.4260  178.4740  144.0150 O   0  0  0  0  0  1  0  0  0  0  0  0
  185.8770  176.3490  143.5530 O   0  0  0  0  0  0  0  0  0  0  0  0
  185.6360  177.4330  144.5780 P   0  0  0  0  0  0  0  0  0  0  0  0
  185.1370  176.7210  146.0300 O   0  0  0  0  0  1  0  0  0  0  0  0
  1  5  1  0  0  0  0
  2  6  2  0  0  0  0
  3  2  1  0  0  0  0
  4  7  1  0  0  0  0
  4  1  2  0  0  0  0
  6 26  1  0  0  0  0
  6  5  1  0  0  0  0
  7  3  2  0  0  0  0
  8 10  1  0  0  0  0
  9 11  1  0  0  0  0
 10 11  1  0  0  0  0
 11  7  1  6  0  0  0
 12 14  1  6  0  0  0
 12  8  1  0  0  0  0
 12  9  1  0  0  0  0
 14 13  1  6  0  0  0
 16 17  1  6  0  0  0
 16 20  1  0  0  0  0
 16 14  1  0  0  0  0
 18 16  1  0  0  0  0
 19 23  1  6  0  0  0
 19 18  1  0  0  0  0
 19 21  1  0  0  0  0
 20 22  1  6  0  0  0
 21 15  1  1  0  0  0
 21 20  1  0  0  0  0
 24 23  1  0  0  0  0
 25 24  1  0  0  0  0
 25 23  1  0  0  0  0
 27 26  2  0  0  0  0
 27 30  1  0  0  0  0
 30 28  2  0  0  0  0
 30 29  2  0  0  0  0
 31 32  1  6  0  0  0
 31 40  1  0  0  0  0
 31 30  1  0  0  0  0
 33 32  2  0  0  0  0
 35 34  1  6  0  0  0
 35 37  1  0  0  0  0
 35 39  1  0  0  0  0
 36 38  1  0  0  0  0
 37 38  1  0  0  0  0
 38 33  1  6  0  0  0
 39 36  1  0  0  0  0
 41 43  1  0  0  0  0
 42 43  2  0  0  0  0
 43 40  1  0  0  0  0
 43 44  1  0  0  0  0
M  END
>  <MODEL>
2

>  <REMARK>
 VINA RESULT:      -6.8      4.045      8.568
  Name = 
  11 active torsions:
  status: ('A' for Active; 'I' for Inactive)
    1  A    between atoms: C_1  and  C_24
    2  A    between atoms: C_2  and  C_38
    3  A    between atoms: C_6  and  C_30
    4  A    between atoms: C_8  and  S_42
    5  A    between atoms: C_11  and  C_41
    6  A    between atoms: C_17  and  C_20
    7  A    between atoms: C_24  and  O_39
    8  A    between atoms: C_24  and  S_42
    9  A    between atoms: P_27  and  O_39
   10  A    between atoms: C_37  and  C_44
   11  A    between atoms: C_41  and  C_43
                            x       y       z     vdW  Elec       q    Type
                         _______ _______ _______ _____ _____    ______ ____

>  <TORSDO>
F 11

$$$$
=
 OpenBabel11062422123D

 44 48  0  0  1  0  0  0  0  0999 V2000
  189.4090  178.2360  147.1930 C   0  0  0  0  0  3  0  0  0  0  0  0
  189.6320  175.3170  146.4300 C   0  0  0  0  0  3  0  0  0  0  0  0
  188.1790  175.5600  146.4830 C   0  0  0  0  0  3  0  0  0  0  0  0
  188.2230  177.7920  147.4760 N   0  0  0  0  0  0  0  0  0  0  0  0
  190.2300  177.6880  146.0760 C   0  0  0  0  0  2  0  0  0  0  0  0
  190.5780  176.2550  146.2930 C   0  0  0  0  0  0  0  0  0  0  0  0
  187.5470  176.6880  146.8450 C   0  0  0  0  0  0  0  0  0  0  0  0
  184.2460  178.6220  145.9620 S   0  0  0  0  0  0  0  0  0  0  0  0
  185.6160  176.4480  145.2860 C   0  0  0  0  0  2  0  0  0  0  0  0
  185.4310  178.0180  147.2060 C   0  0  0  0  0  2  0  0  0  0  0  0
  186.0430  176.7010  146.7300 C   0  0  2  0  0  3  0  0  0  0  0  0
  185.1540  177.7500  144.6570 C   0  0  2  0  0  3  0  0  0  0  0  0
  185.8320  179.9050  143.8470 O   0  0  0  0  0  1  0  0  0  0  0  0
  186.3160  178.6280  144.1480 C   0  0  2  0  0  3  0  0  0  0  0  0
  186.8360  174.7380  142.5820 F   0  0  0  0  0  0  0  0  0  0  0  0
  187.0930  178.0510  142.9450 C   0  0  1  0  0  0  0  0  0  0  0  0
  187.4350  179.0660  142.0660 F   0  0  0  0  0  0  0  0  0  0  0  0
  188.3610  177.3250  143.3530 C   0  0  0  0  0  2  0  0  0  0  0  0
  188.5810  176.3430  142.2290 C   0  0  2  0  0  3  0  0  0  0  0  0
  186.2530  176.9950  142.2080 C   0  0  2  0  0  3  0  0  0  0  0  0
  187.1910  175.8540  141.8410 C   0  0  2  0  0  3  0  0  0  0  0  0
  185.6640  177.5230  141.0580 O   0  0  0  0  0  1  0  0  0  0  0  0
  189.5370  175.2290  142.6270 C   0  0  0  0  0  3  0  0  0  0  0  0
  190.4060  174.9800  141.5870 O   0  0  0  0  0  0  0  0  0  0  0  0
  190.8260  175.7140  142.6280 O   0  0  0  0  0  0  0  0  0  0  0  0
  191.9780  175.8730  146.0600 C   0  0  0  0  0  3  0  0  0  0  0  0
  192.8130  176.5950  145.3170 C   0  0  0  0  0  3  0  0  0  0  0  0
  195.3520  177.4020  145.2090 O   0  0  0  0  0  0  0  0  0  0  0  0
  194.8830  175.2840  146.3380 O   0  0  0  0  0  0  0  0  0  0  0  0
  194.5080  176.1590  145.1780 S   0  0  0  0  0  0  0  0  0  0  0  0
  194.7670  175.2600  143.6470 C   0  0  2  0  0  3  0  0  0  0  0  0
  193.7800  174.1400  143.4190 C   0  0  0  0  0  3  0  0  0  0  0  0
  193.8010  172.8830  143.9010 C   0  0  0  0  0  3  0  0  0  0  0  0
  194.8700  168.9150  145.6570 O   0  0  0  0  0  1  0  0  0  0  0  0
  195.3530  170.1830  145.9780 C   0  0  2  0  0  3  0  0  0  0  0  0
  195.9430  171.5470  144.0530 C   0  0  0  0  0  2  0  0  0  0  0  0
  194.2550  171.2120  145.7660 C   0  0  0  0  0  2  0  0  0  0  0  0
  194.8220  172.2260  144.7920 C   0  0  2  0  0  3  0  0  0  0  0  0
  196.4950  170.5430  145.0410 C   0  0  0  0  0  2  0  0  0  0  0  0
  196.0940  174.8440  143.5140 O   0  0  0  0  0  0  0  0  0  0  0  0
  197.9250  176.8830  143.0630 O   0  0  0  0  0  1  0  0  0  0  0  0
  197.4620  175.0150  141.2940 O   0  0  0  0  0  0  0  0  0  0  0  0
  196.7830  175.8610  142.3450 P   0  0  0  0  0  0  0  0  0  0  0  0
  195.5750  176.7930  141.6110 O   0  0  0  0  0  1  0  0  0  0  0  0
  1  4  2  0  0  0  0
  2  3  1  0  0  0  0
  3  7  2  0  0  0  0
  5  6  1  0  0  0  0
  5  1  1  0  0  0  0
  6  2  2  0  0  0  0
  7  4  1  0  0  0  0
  8 10  1  0  0  0  0
  9 11  1  0  0  0  0
 11  7  1  6  0  0  0
 11 10  1  0  0  0  0
 12 14  1  1  0  0  0
 12  9  1  0  0  0  0
 12  8  1  0  0  0  0
 14 13  1  6  0  0  0
 16 17  1  6  0  0  0
 16 18  1  0  0  0  0
 16 14  1  0  0  0  0
 19 23  1  1  0  0  0
 19 18  1  0  0  0  0
 20 22  1  6  0  0  0
 20 16  1  0  0  0  0
 21 20  1  0  0  0  0
 21 19  1  0  0  0  0
 21 15  1  1  0  0  0
 23 25  1  0  0  0  0
 24 23  1  0  0  0  0
 24 25  1  0  0  0  0
 26  6  1  0  0  0  0
 27 26  2  0  0  0  0
 30 28  2  0  0  0  0
 30 27  1  0  0  0  0
 30 29  2  0  0  0  0
 31 32  1  1  0  0  0
 31 30  1  0  0  0  0
 32 33  2  0  0  0  0
 35 34  1  6  0  0  0
 36 38  1  0  0  0  0
 36 39  1  0  0  0  0
 37 35  1  0  0  0  0
 38 33  1  6  0  0  0
 38 37  1  0  0  0  0
 39 35  1  0  0  0  0
 40 31  1  0  0  0  0
 42 43  2  0  0  0  0
 43 41  1  0  0  0  0
 43 40  1  0  0  0  0
 44 43  1  0  0  0  0
M  END
>  <MODEL>
3

>  <REMARK>
 VINA RESULT:      -6.6      1.467      2.300
  Name = 
  11 active torsions:
  status: ('A' for Active; 'I' for Inactive)
    1  A    between atoms: C_1  and  C_24
    2  A    between atoms: C_2  and  C_38
    3  A    between atoms: C_6  and  C_30
    4  A    between atoms: C_8  and  S_42
    5  A    between atoms: C_11  and  C_41
    6  A    between atoms: C_17  and  C_20
    7  A    between atoms: C_24  and  O_39
    8  A    between atoms: C_24  and  S_42
    9  A    between atoms: P_27  and  O_39
   10  A    between atoms: C_37  and  C_44
   11  A    between atoms: C_41  and  C_43
                            x       y       z     vdW  Elec       q    Type
                         _______ _______ _______ _____ _____    ______ ____

>  <TORSDO>
F 11

$$$$
=
 OpenBabel11062422123D

 44 48  0  0  1  0  0  0  0  0999 V2000
  190.6550  170.7380  141.5810 C   0  0  0  0  0  3  0  0  0  0  0  0
  190.6200  172.4540  144.0710 C   0  0  0  0  0  3  0  0  0  0  0  0
  191.7930  171.5830  144.2580 C   0  0  0  0  0  3  0  0  0  0  0  0
  191.4120  170.0580  142.3870 N   0  0  0  0  0  0  0  0  0  0  0  0
  190.5770  172.2270  141.6110 C   0  0  0  0  0  2  0  0  0  0  0  0
  190.0260  172.7270  142.9030 C   0  0  0  0  0  0  0  0  0  0  0  0
  192.2120  170.5850  143.4620 C   0  0  0  0  0  0  0  0  0  0  0  0
  195.9920  169.8460  142.7000 S   0  0  0  0  0  0  0  0  0  0  0  0
  194.4210  170.8610  144.5860 C   0  0  0  0  0  2  0  0  0  0  0  0
  194.2440  169.3410  142.6260 C   0  0  0  0  0  2  0  0  0  0  0  0
  193.5010  169.8980  143.8390 C   0  0  2  0  0  3  0  0  0  0  0  0
  195.5390  171.3130  143.6650 C   0  0  2  0  0  3  0  0  0  0  0  0
  195.7620  172.2890  141.4840 O   0  0  0  0  0  1  0  0  0  0  0  0
  195.1270  172.4580  142.7190 C   0  0  2  0  0  3  0  0  0  0  0  0
  196.2970  173.9960  146.4760 F   0  0  0  0  0  0  0  0  0  0  0  0
  195.3820  173.8800  143.2640 C   0  0  1  0  0  0  0  0  0  0  0  0
  195.5280  174.7740  142.2150 F   0  0  0  0  0  0  0  0  0  0  0  0
  194.2670  174.3780  144.1640 C   0  0  0  0  0  2  0  0  0  0  0  0
  194.9560  175.3830  145.0540 C   0  0  2  0  0  3  0  0  0  0  0  0
  196.6430  173.9100  144.1430 C   0  0  2  0  0  3  0  0  0  0  0  0
  196.3300  174.7920  145.3430 C   0  0  2  0  0  3  0  0  0  0  0  0
  197.7400  174.4170  143.4450 O   0  0  0  0  0  1  0  0  0  0  0  0
  194.1420  175.6890  146.3020 C   0  0  0  0  0  3  0  0  0  0  0  0
  194.3470  177.0010  146.6690 O   0  0  0  0  0  0  0  0  0  0  0  0
  193.2230  176.6750  146.0150 O   0  0  0  0  0  0  0  0  0  0  0  0
  188.9840  173.7620  142.8190 C   0  0  0  0  0  3  0  0  0  0  0  0
  189.0980  174.8450  142.0570 C   0  0  0  0  0  3  0  0  0  0  0  0
  187.4080  176.1340  140.4460 O   0  0  0  0  0  0  0  0  0  0  0  0
  186.5810  175.4520  142.6450 O   0  0  0  0  0  0  0  0  0  0  0  0
  187.7700  175.9820  141.8970 S   0  0  0  0  0  0  0  0  0  0  0  0
  188.2540  177.5630  142.5940 C   0  0  2  0  0  3  0  0  0  0  0  0
  187.2150  178.6480  142.4320 C   0  0  0  0  0  3  0  0  0  0  0  0
  186.1470  178.9180  143.2070 C   0  0  0  0  0  3  0  0  0  0  0  0
  185.9070  179.4160  147.6400 O   0  0  0  0  0  1  0  0  0  0  0  0
  185.7030  178.2740  146.8670 C   0  0  2  0  0  3  0  0  0  0  0  0
  184.3020  178.6270  144.9110 C   0  0  0  0  0  2  0  0  0  0  0  0
  186.5990  178.3270  145.6400 C   0  0  0  0  0  2  0  0  0  0  0  0
  185.6720  178.2100  144.4460 C   0  0  2  0  0  3  0  0  0  0  0  0
  184.2650  178.2440  146.3740 C   0  0  0  0  0  2  0  0  0  0  0  0
  189.5180  177.9570  142.1470 O   0  0  0  0  0  0  0  0  0  0  0  0
  191.8060  176.6470  143.0210 O   0  0  0  0  0  0  0  0  0  0  0  0
  191.1690  179.0400  143.8580 O   0  0  0  0  0  1  0  0  0  0  0  0
  190.5670  177.7140  143.4570 P   0  0  0  0  0  0  0  0  0  0  0  0
  189.7090  177.0760  144.7700 O   0  0  0  0  0  1  0  0  0  0  0  0
  1  5  1  0  0  0  0
  1  4  2  0  0  0  0
  2  3  1  0  0  0  0
  4  7  1  0  0  0  0
  5  6  1  0  0  0  0
  6  2  2  0  0  0  0
  7  3  2  0  0  0  0
  8 12  1  0  0  0  0
 10  8  1  0  0  0  0
 10 11  1  0  0  0  0
 11  7  1  6  0  0  0
 11  9  1  0  0  0  0
 12 14  1  6  0  0  0
 12  9  1  0  0  0  0
 14 13  1  6  0  0  0
 14 16  1  0  0  0  0
 16 17  1  6  0  0  0
 16 20  1  0  0  0  0
 16 18  1  0  0  0  0
 18 19  1  0  0  0  0
 19 21  1  0  0  0  0
 19 23  1  1  0  0  0
 20 22  1  6  0  0  0
 20 21  1  0  0  0  0
 21 15  1  1  0  0  0
 23 24  1  0  0  0  0
 25 23  1  0  0  0  0
 25 24  1  0  0  0  0
 26  6  1  0  0  0  0
 27 26  2  0  0  0  0
 28 30  2  0  0  0  0
 30 27  1  0  0  0  0
 30 31  1  0  0  0  0
 30 29  2  0  0  0  0
 31 32  1  6  0  0  0
 32 33  2  0  0  0  0
 35 34  1  1  0  0  0
 36 39  1  0  0  0  0
 37 35  1  0  0  0  0
 38 33  1  6  0  0  0
 38 36  1  0  0  0  0
 38 37  1  0  0  0  0
 39 35  1  0  0  0  0
 40 31  1  0  0  0  0
 40 43  1  0  0  0  0
 41 43  2  0  0  0  0
 43 42  1  0  0  0  0
 43 44  1  0  0  0  0
M  END
>  <MODEL>
4

>  <REMARK>
 VINA RESULT:      -6.5      3.634      8.975
  Name = 
  11 active torsions:
  status: ('A' for Active; 'I' for Inactive)
    1  A    between atoms: C_1  and  C_24
    2  A    between atoms: C_2  and  C_38
    3  A    between atoms: C_6  and  C_30
    4  A    between atoms: C_8  and  S_42
    5  A    between atoms: C_11  and  C_41
    6  A    between atoms: C_17  and  C_20
    7  A    between atoms: C_24  and  O_39
    8  A    between atoms: C_24  and  S_42
    9  A    between atoms: P_27  and  O_39
   10  A    between atoms: C_37  and  C_44
   11  A    between atoms: C_41  and  C_43
                            x       y       z     vdW  Elec       q    Type
                         _______ _______ _______ _____ _____    ______ ____

>  <TORSDO>
F 11

$$$$
=
 OpenBabel11062422123D

 44 48  0  0  1  0  0  0  0  0999 V2000
  189.7460  177.9650  146.7220 C   0  0  0  0  0  3  0  0  0  0  0  0
  189.7680  174.9410  146.7650 C   0  0  0  0  0  3  0  0  0  0  0  0
  188.3420  175.2870  146.8990 C   0  0  0  0  0  3  0  0  0  0  0  0
  188.5860  177.6950  147.2350 N   0  0  0  0  0  0  0  0  0  0  0  0
  190.4090  177.0850  145.7170 C   0  0  0  0  0  2  0  0  0  0  0  0
  190.7260  175.7420  146.2800 C   0  0  0  0  0  0  0  0  0  0  0  0
  187.7990  176.5110  147.0030 C   0  0  0  0  0  0  0  0  0  0  0  0
  184.5220  178.6200  146.5250 S   0  0  0  0  0  0  0  0  0  0  0  0
  185.7100  176.4140  145.6440 C   0  0  0  0  0  2  0  0  0  0  0  0
  185.7970  177.9200  147.6210 C   0  0  0  0  0  2  0  0  0  0  0  0
  186.2940  176.5960  147.0440 C   0  0  2  0  0  3  0  0  0  0  0  0
  185.2500  177.7570  145.1070 C   0  0  2  0  0  3  0  0  0  0  0  0
  185.9520  179.9130  144.3230 O   0  0  0  0  0  1  0  0  0  0  0  0
  186.3950  178.6000  144.5090 C   0  0  2  0  0  3  0  0  0  0  0  0
  186.6030  174.7570  142.7660 F   0  0  0  0  0  0  0  0  0  0  0  0
  186.9980  178.0470  143.2000 C   0  0  1  0  0  0  0  0  0  0  0  0
  187.2570  179.0840  142.3180 F   0  0  0  0  0  0  0  0  0  0  0  0
  188.2870  177.2760  143.4210 C   0  0  0  0  0  2  0  0  0  0  0  0
  188.3350  176.3300  142.2470 C   0  0  2  0  0  3  0  0  0  0  0  0
  186.0430  177.0390  142.5410 C   0  0  2  0  0  3  0  0  0  0  0  0
  186.8950  175.8890  142.0220 C   0  0  2  0  0  3  0  0  0  0  0  0
  185.3310  177.6220  141.4920 O   0  0  0  0  0  1  0  0  0  0  0  0
  189.3010  175.1790  142.4860 C   0  0  0  0  0  3  0  0  0  0  0  0
  190.0590  174.9770  141.3520 O   0  0  0  0  0  0  0  0  0  0  0  0
  190.5950  175.6420  142.3860 O   0  0  0  0  0  0  0  0  0  0  0  0
  192.0740  175.2170  146.0160 C   0  0  0  0  0  3  0  0  0  0  0  0
  192.8460  175.6630  145.0300 C   0  0  0  0  0  3  0  0  0  0  0  0
  195.3090  176.1280  144.1200 O   0  0  0  0  0  0  0  0  0  0  0  0
  195.0890  174.8610  146.2010 O   0  0  0  0  0  0  0  0  0  0  0  0
  194.4950  175.0910  144.8420 S   0  0  0  0  0  0  0  0  0  0  0  0
  194.4880  173.5470  143.9270 C   0  0  2  0  0  3  0  0  0  0  0  0
  195.8660  173.0030  143.6320 C   0  0  0  0  0  3  0  0  0  0  0  0
  196.5910  172.1120  144.3340 C   0  0  0  0  0  3  0  0  0  0  0  0
  194.4820  168.4900  145.8850 O   0  0  0  0  0  1  0  0  0  0  0  0
  194.9340  169.6140  146.5760 C   0  0  2  0  0  3  0  0  0  0  0  0
  197.1920  170.3040  145.9980 C   0  0  0  0  0  2  0  0  0  0  0  0
  194.8450  170.8330  145.6720 C   0  0  0  0  0  2  0  0  0  0  0  0
  196.2450  171.4120  145.6210 C   0  0  2  0  0  3  0  0  0  0  0  0
  196.3970  169.4300  146.9430 C   0  0  0  0  0  2  0  0  0  0  0  0
  193.6860  173.6290  142.7860 O   0  0  0  0  0  0  0  0  0  0  0  0
  191.5110  172.3650  141.6090 O   0  0  0  0  0  0  0  0  0  0  0  0
  193.5080  171.0260  142.6350 O   0  0  0  0  0  1  0  0  0  0  0  0
  192.6730  172.2700  142.8350 P   0  0  0  0  0  0  0  0  0  0  0  0
  191.9000  172.1820  144.3390 O   0  0  0  0  0  1  0  0  0  0  0  0
  1  4  2  0  0  0  0
  2  3  1  0  0  0  0
  3  7  2  0  0  0  0
  5  6  1  0  0  0  0
  5  1  1  0  0  0  0
  6  2  2  0  0  0  0
  7  4  1  0  0  0  0
  8 10  1  0  0  0  0
  9 11  1  0  0  0  0
 11  7  1  6  0  0  0
 11 10  1  0  0  0  0
 12 14  1  1  0  0  0
 12  9  1  0  0  0  0
 12  8  1  0  0  0  0
 14 13  1  6  0  0  0
 16 17  1  6  0  0  0
 16 18  1  0  0  0  0
 16 14  1  0  0  0  0
 19 23  1  1  0  0  0
 19 18  1  0  0  0  0
 20 22  1  6  0  0  0
 20 16  1  0  0  0  0
 21 19  1  0  0  0  0
 21 20  1  0  0  0  0
 21 15  1  1  0  0  0
 24 25  1  0  0  0  0
 24 23  1  0  0  0  0
 25 23  1  0  0  0  0
 26  6  1  0  0  0  0
 27 26  2  0  0  0  0
 28 30  2  0  0  0  0
 30 27  1  0  0  0  0
 30 29  2  0  0  0  0
 31 32  1  6  0  0  0
 31 30  1  0  0  0  0
 32 33  2  0  0  0  0
 35 34  1  6  0  0  0
 35 39  1  0  0  0  0
 36 39  1  0  0  0  0
 37 35  1  0  0  0  0
 38 33  1  6  0  0  0
 38 37  1  0  0  0  0
 38 36  1  0  0  0  0
 40 43  1  0  0  0  0
 40 31  1  0  0  0  0
 41 43  2  0  0  0  0
 42 43  1  0  0  0  0
 43 44  1  0  0  0  0
M  END
>  <MODEL>
5

>  <REMARK>
 VINA RESULT:      -6.5      1.961      2.837
  Name = 
  11 active torsions:
  status: ('A' for Active; 'I' for Inactive)
    1  A    between atoms: C_1  and  C_24
    2  A    between atoms: C_2  and  C_38
    3  A    between atoms: C_6  and  C_30
    4  A    between atoms: C_8  and  S_42
    5  A    between atoms: C_11  and  C_41
    6  A    between atoms: C_17  and  C_20
    7  A    between atoms: C_24  and  O_39
    8  A    between atoms: C_24  and  S_42
    9  A    between atoms: P_27  and  O_39
   10  A    between atoms: C_37  and  C_44
   11  A    between atoms: C_41  and  C_43
                            x       y       z     vdW  Elec       q    Type
                         _______ _______ _______ _____ _____    ______ ____

>  <TORSDO>
F 11

$$$$
=
 OpenBabel11062422123D

 44 48  0  0  1  0  0  0  0  0999 V2000
  189.8150  178.0170  147.0130 C   0  0  0  0  0  3  0  0  0  0  0  0
  189.8510  175.0100  146.6870 C   0  0  0  0  0  3  0  0  0  0  0  0
  188.4180  175.3390  146.7880 C   0  0  0  0  0  3  0  0  0  0  0  0
  188.6300  177.6870  147.4280 N   0  0  0  0  0  0  0  0  0  0  0  0
  190.5340  177.2660  145.9450 C   0  0  0  0  0  2  0  0  0  0  0  0
  190.8280  175.8630  146.3550 C   0  0  0  0  0  0  0  0  0  0  0  0
  187.8630  176.5410  147.0120 C   0  0  0  0  0  0  0  0  0  0  0  0
  184.6050  178.6160  146.3070 S   0  0  0  0  0  0  0  0  0  0  0  0
  185.8360  176.3800  145.5690 C   0  0  0  0  0  2  0  0  0  0  0  0
  185.8330  177.9660  147.4850 C   0  0  0  0  0  2  0  0  0  0  0  0
  186.3570  176.6210  146.9840 C   0  0  2  0  0  3  0  0  0  0  0  0
  185.3970  177.6980  144.9580 C   0  0  2  0  0  3  0  0  0  0  0  0
  186.1320  179.8280  144.1310 O   0  0  0  0  0  1  0  0  0  0  0  0
  186.5640  178.5200  144.3760 C   0  0  2  0  0  3  0  0  0  0  0  0
  186.6840  174.6530  142.6780 F   0  0  0  0  0  0  0  0  0  0  0  0
  187.2160  177.9250  143.1090 C   0  0  1  0  0  0  0  0  0  0  0  0
  187.5760  178.9380  142.2360 F   0  0  0  0  0  0  0  0  0  0  0  0
  188.4490  177.0950  143.4120 C   0  0  0  0  0  2  0  0  0  0  0  0
  188.5200  176.1340  142.2500 C   0  0  2  0  0  3  0  0  0  0  0  0
  186.2520  176.9580  142.4030 C   0  0  2  0  0  3  0  0  0  0  0  0
  187.0750  175.7620  141.9440 C   0  0  2  0  0  3  0  0  0  0  0  0
  185.6320  177.5640  141.3090 O   0  0  0  0  0  1  0  0  0  0  0  0
  189.4120  174.9400  142.5550 C   0  0  0  0  0  3  0  0  0  0  0  0
  190.4860  174.9420  141.6920 O   0  0  0  0  0  0  0  0  0  0  0  0
  190.6550  175.3890  142.9450 O   0  0  0  0  0  0  0  0  0  0  0  0
  192.1910  175.3740  146.1000 C   0  0  0  0  0  3  0  0  0  0  0  0
  193.0540  176.0080  145.3130 C   0  0  0  0  0  3  0  0  0  0  0  0
  195.4980  176.4340  144.3320 O   0  0  0  0  0  0  0  0  0  0  0  0
  195.3250  175.3360  146.5110 O   0  0  0  0  0  0  0  0  0  0  0  0
  194.7090  175.4470  145.1470 S   0  0  0  0  0  0  0  0  0  0  0  0
  194.7140  173.8350  144.3600 C   0  0  2  0  0  3  0  0  0  0  0  0
  193.8980  173.7700  143.0900 C   0  0  0  0  0  3  0  0  0  0  0  0
  194.3020  173.9340  141.8160 C   0  0  0  0  0  3  0  0  0  0  0  0
  196.5520  174.4180  137.9860 O   0  0  0  0  0  1  0  0  0  0  0  0
  197.0380  174.2980  139.2870 C   0  0  2  0  0  3  0  0  0  0  0  0
  195.8870  175.6880  140.9170 C   0  0  0  0  0  2  0  0  0  0  0  0
  196.1040  173.4130  140.0970 C   0  0  0  0  0  2  0  0  0  0  0  0
  195.6780  174.2450  141.2900 C   0  0  2  0  0  3  0  0  0  0  0  0
  197.0510  175.6660  139.9510 C   0  0  0  0  0  2  0  0  0  0  0  0
  194.3870  172.8200  145.2630 O   0  0  0  0  0  0  0  0  0  0  0  0
  196.3200  171.5320  143.7400 O   0  0  0  0  0  0  0  0  0  0  0  0
  196.8140  172.4240  146.1470 O   0  0  0  0  0  1  0  0  0  0  0  0
  195.7320  171.7880  145.3060 P   0  0  0  0  0  0  0  0  0  0  0  0
  195.2950  170.3040  145.9940 O   0  0  0  0  0  1  0  0  0  0  0  0
  1  4  2  0  0  0  0
  2  3  1  0  0  0  0
  3  7  2  0  0  0  0
  5  6  1  0  0  0  0
  5  1  1  0  0  0  0
  6  2  2  0  0  0  0
  7  4  1  0  0  0  0
  8 10  1  0  0  0  0
  9 11  1  0  0  0  0
 11  7  1  6  0  0  0
 11 10  1  0  0  0  0
 12 14  1  1  0  0  0
 12  9  1  0  0  0  0
 12  8  1  0  0  0  0
 14 13  1  6  0  0  0
 16 17  1  6  0  0  0
 16 18  1  0  0  0  0
 16 14  1  0  0  0  0
 19 23  1  1  0  0  0
 19 18  1  0  0  0  0
 20 22  1  6  0  0  0
 20 16  1  0  0  0  0
 21 19  1  0  0  0  0
 21 20  1  0  0  0  0
 21 15  1  1  0  0  0
 23 25  1  0  0  0  0
 24 23  1  0  0  0  0
 24 25  1  0  0  0  0
 26  6  1  0  0  0  0
 27 26  2  0  0  0  0
 28 30  2  0  0  0  0
 30 27  1  0  0  0  0
 30 29  2  0  0  0  0
 31 32  1  6  0  0  0
 31 30  1  0  0  0  0
 31 40  1  0  0  0  0
 33 32  2  0  0  0  0
 35 34  1  6  0  0  0
 35 39  1  0  0  0  0
 35 37  1  0  0  0  0
 36 38  1  0  0  0  0
 37 38  1  0  0  0  0
 38 33  1  6  0  0  0
 39 36  1  0  0  0  0
 40 43  1  0  0  0  0
 41 43  2  0  0  0  0
 43 44  1  0  0  0  0
 43 42  1  0  0  0  0
M  END
>  <MODEL>
6

>  <REMARK>
 VINA RESULT:      -6.3      2.094      3.266
  Name = 
  11 active torsions:
  status: ('A' for Active; 'I' for Inactive)
    1  A    between atoms: C_1  and  C_24
    2  A    between atoms: C_2  and  C_38
    3  A    between atoms: C_6  and  C_30
    4  A    between atoms: C_8  and  S_42
    5  A    between atoms: C_11  and  C_41
    6  A    between atoms: C_17  and  C_20
    7  A    between atoms: C_24  and  O_39
    8  A    between atoms: C_24  and  S_42
    9  A    between atoms: P_27  and  O_39
   10  A    between atoms: C_37  and  C_44
   11  A    between atoms: C_41  and  C_43
                            x       y       z     vdW  Elec       q    Type
                         _______ _______ _______ _____ _____    ______ ____

>  <TORSDO>
F 11

$$$$
=
 OpenBabel11062422123D

 44 48  0  0  1  0  0  0  0  0999 V2000
  190.0380  177.9360  144.0980 C   0  0  0  0  0  3  0  0  0  0  0  0
  191.8240  176.4400  146.0270 C   0  0  0  0  0  3  0  0  0  0  0  0
  190.5570  176.5910  146.7620 C   0  0  0  0  0  3  0  0  0  0  0  0
  189.4310  178.1250  145.2300 N   0  0  0  0  0  0  0  0  0  0  0  0
  190.8030  176.6950  143.7910 C   0  0  0  0  0  2  0  0  0  0  0  0
  191.9740  176.5250  144.6980 C   0  0  0  0  0  0  0  0  0  0  0  0
  189.4530  177.2490  146.3720 C   0  0  0  0  0  0  0  0  0  0  0  0
  185.9390  178.6410  147.4370 S   0  0  0  0  0  0  0  0  0  0  0  0
  187.1180  176.4070  146.6130 C   0  0  0  0  0  2  0  0  0  0  0  0
  187.7420  178.5620  147.6850 C   0  0  0  0  0  2  0  0  0  0  0  0
  188.2520  177.1800  147.2830 C   0  0  2  0  0  3  0  0  0  0  0  0
  186.0510  177.3790  146.1410 C   0  0  2  0  0  3  0  0  0  0  0  0
  185.9350  179.3660  144.8000 O   0  0  0  0  0  1  0  0  0  0  0  0
  186.3840  178.0410  144.7890 C   0  0  2  0  0  3  0  0  0  0  0  0
  186.7080  178.6670  140.6230 F   0  0  0  0  0  0  0  0  0  0  0  0
  185.8410  177.3010  143.5470 C   0  0  1  0  0  0  0  0  0  0  0  0
  185.4130  176.0300  143.8970 F   0  0  0  0  0  0  0  0  0  0  0  0
  184.6850  178.0270  142.8840 C   0  0  0  0  0  2  0  0  0  0  0  0
  184.7510  177.5580  141.4510 C   0  0  2  0  0  3  0  0  0  0  0  0
  186.9190  177.1970  142.4580 C   0  0  2  0  0  3  0  0  0  0  0  0
  186.2360  177.4650  141.1240 C   0  0  2  0  0  3  0  0  0  0  0  0
  187.5160  175.9350  142.4490 O   0  0  0  0  0  1  0  0  0  0  0  0
  183.9710  178.4710  140.5180 C   0  0  0  0  0  3  0  0  0  0  0  0
  182.9570  177.7540  139.9210 O   0  0  0  0  0  0  0  0  0  0  0  0
  182.6670  178.5590  140.9530 O   0  0  0  0  0  0  0  0  0  0  0  0
  193.2520  176.1650  144.0670 C   0  0  0  0  0  3  0  0  0  0  0  0
  194.3980  176.0980  144.7380 C   0  0  0  0  0  3  0  0  0  0  0  0
  196.6350  176.7150  143.4230 O   0  0  0  0  0  0  0  0  0  0  0  0
  196.7160  174.8270  144.9750 O   0  0  0  0  0  0  0  0  0  0  0  0
  195.8690  175.5390  143.9610 S   0  0  0  0  0  0  0  0  0  0  0  0
  195.4480  174.4030  142.6370 C   0  0  2  0  0  3  0  0  0  0  0  0
  195.1460  172.9990  143.1060 C   0  0  0  0  0  3  0  0  0  0  0  0
  193.9560  172.4470  143.4100 C   0  0  0  0  0  3  0  0  0  0  0  0
  189.7160  171.5270  142.3440 O   0  0  0  0  0  1  0  0  0  0  0  0
  190.3100  172.7570  142.6210 C   0  0  2  0  0  3  0  0  0  0  0  0
  191.7400  172.7570  144.5880 C   0  0  0  0  0  2  0  0  0  0  0  0
  191.7590  172.7350  142.1600 C   0  0  0  0  0  2  0  0  0  0  0  0
  192.5870  173.0720  143.3840 C   0  0  2  0  0  3  0  0  0  0  0  0
  190.3190  172.9890  144.1230 C   0  0  0  0  0  2  0  0  0  0  0  0
  196.3950  174.4360  141.6110 O   0  0  0  0  0  0  0  0  0  0  0  0
  194.7540  176.4310  140.5900 O   0  0  0  0  0  1  0  0  0  0  0  0
  196.5680  175.2420  139.1310 O   0  0  0  0  0  0  0  0  0  0  0  0
  195.5700  174.9910  140.2370 P   0  0  0  0  0  0  0  0  0  0  0  0
  194.4570  173.8230  139.7250 O   0  0  0  0  0  1  0  0  0  0  0  0
  1  4  2  0  0  0  0
  2  3  1  0  0  0  0
  4  7  1  0  0  0  0
  5  1  1  0  0  0  0
  5  6  1  0  0  0  0
  6  2  2  0  0  0  0
  7  3  2  0  0  0  0
  8 10  1  0  0  0  0
  9 11  1  0  0  0  0
 11  7  1  6  0  0  0
 11 10  1  0  0  0  0
 12 14  1  6  0  0  0
 12  9  1  0  0  0  0
 12  8  1  0  0  0  0
 14 13  1  1  0  0  0
 16 17  1  1  0  0  0
 16 14  1  0  0  0  0
 18 16  1  0  0  0  0
 19 23  1  6  0  0  0
 19 18  1  0  0  0  0
 20 22  1  6  0  0  0
 20 16  1  0  0  0  0
 21 15  1  1  0  0  0
 21 19  1  0  0  0  0
 21 20  1  0  0  0  0
 23 25  1  0  0  0  0
 24 23  1  0  0  0  0
 24 25  1  0  0  0  0
 26  6  1  0  0  0  0
 26 27  2  0  0  0  0
 28 30  2  0  0  0  0
 30 27  1  0  0  0  0
 30 29  2  0  0  0  0
 31 32  1  1  0  0  0
 31 30  1  0  0  0  0
 32 33  2  0  0  0  0
 35 34  1  1  0  0  0
 35 39  1  0  0  0  0
 37 35  1  0  0  0  0
 37 38  1  0  0  0  0
 38 33  1  1  0  0  0
 38 36  1  0  0  0  0
 39 36  1  0  0  0  0
 40 31  1  0  0  0  0
 42 43  2  0  0  0  0
 43 41  1  0  0  0  0
 43 40  1  0  0  0  0
 44 43  1  0  0  0  0
M  END
>  <MODEL>
7

>  <REMARK>
 VINA RESULT:      -6.3      1.722      3.054
  Name = 
  11 active torsions:
  status: ('A' for Active; 'I' for Inactive)
    1  A    between atoms: C_1  and  C_24
    2  A    between atoms: C_2  and  C_38
    3  A    between atoms: C_6  and  C_30
    4  A    between atoms: C_8  and  S_42
    5  A    between atoms: C_11  and  C_41
    6  A    between atoms: C_17  and  C_20
    7  A    between atoms: C_24  and  O_39
    8  A    between atoms: C_24  and  S_42
    9  A    between atoms: P_27  and  O_39
   10  A    between atoms: C_37  and  C_44
   11  A    between atoms: C_41  and  C_43
                            x       y       z     vdW  Elec       q    Type
                         _______ _______ _______ _____ _____    ______ ____

>  <TORSDO>
F 11

$$$$
=
 OpenBabel11062422123D

 44 48  0  0  1  0  0  0  0  0999 V2000
  189.7910  172.3630  141.4640 C   0  0  0  0  0  3  0  0  0  0  0  0
  191.7300  172.7750  143.7480 C   0  0  0  0  0  3  0  0  0  0  0  0
  192.5740  172.2610  142.6550 C   0  0  0  0  0  3  0  0  0  0  0  0
  190.8010  171.6380  141.0940 N   0  0  0  0  0  0  0  0  0  0  0  0
  189.9440  173.6130  142.2610 C   0  0  0  0  0  2  0  0  0  0  0  0
  190.5270  173.3470  143.6060 C   0  0  0  0  0  0  0  0  0  0  0  0
  192.1830  171.8520  141.4370 C   0  0  0  0  0  0  0  0  0  0  0  0
  194.2540  172.6000  138.1860 S   0  0  0  0  0  0  0  0  0  0  0  0
  194.5700  172.1730  140.7890 C   0  0  0  0  0  2  0  0  0  0  0  0
  192.8850  171.7310  139.0150 C   0  0  0  0  0  2  0  0  0  0  0  0
  193.2650  171.4480  140.4670 C   0  0  2  0  0  3  0  0  0  0  0  0
  194.7990  173.2800  139.7760 C   0  0  2  0  0  3  0  0  0  0  0  0
  193.8180  175.2920  138.9110 O   0  0  0  0  0  1  0  0  0  0  0  0
  194.0170  174.5700  140.0920 C   0  0  2  0  0  3  0  0  0  0  0  0
  195.5700  173.8730  143.9600 F   0  0  0  0  0  0  0  0  0  0  0  0
  194.6530  175.4720  141.1720 C   0  0  1  0  0  0  0  0  0  0  0  0
  195.0370  176.6820  140.6170 F   0  0  0  0  0  0  0  0  0  0  0  0
  193.7180  175.7550  142.3330 C   0  0  0  0  0  2  0  0  0  0  0  0
  194.6590  176.0370  143.4790 C   0  0  2  0  0  3  0  0  0  0  0  0
  195.8750  174.7880  141.8050 C   0  0  2  0  0  3  0  0  0  0  0  0
  195.8180  175.0660  143.3010 C   0  0  2  0  0  3  0  0  0  0  0  0
  197.0680  175.2760  141.2690 O   0  0  0  0  0  1  0  0  0  0  0  0
  193.9620  175.9220  144.8270 C   0  0  0  0  0  3  0  0  0  0  0  0
  194.2130  177.0560  145.5680 O   0  0  0  0  0  0  0  0  0  0  0  0
  193.0310  176.9310  144.9450 O   0  0  0  0  0  0  0  0  0  0  0  0
  189.8690  173.9930  144.7510 C   0  0  0  0  0  3  0  0  0  0  0  0
  190.5390  174.6170  145.7160 C   0  0  0  0  0  3  0  0  0  0  0  0
  188.7680  174.5420  147.7080 O   0  0  0  0  0  0  0  0  0  0  0  0
  190.7030  176.0150  147.9660 O   0  0  0  0  0  0  0  0  0  0  0  0
  189.6960  175.4810  146.9900 S   0  0  0  0  0  0  0  0  0  0  0  0
  188.7790  176.8480  146.2750 C   0  0  2  0  0  3  0  0  0  0  0  0
  189.5170  177.5720  145.1730 C   0  0  0  0  0  3  0  0  0  0  0  0
  189.2300  177.6270  143.8590 C   0  0  0  0  0  3  0  0  0  0  0  0
  185.8470  178.5900  141.1040 O   0  0  0  0  0  1  0  0  0  0  0  0
  186.1100  177.4130  141.8030 C   0  0  2  0  0  3  0  0  0  0  0  0
  188.4180  176.6610  141.6670 C   0  0  0  0  0  2  0  0  0  0  0  0
  186.8000  177.7480  143.1160 C   0  0  0  0  0  2  0  0  0  0  0  0
  188.1030  176.9730  143.1060 C   0  0  2  0  0  3  0  0  0  0  0  0
  187.0660  176.5470  140.9990 C   0  0  0  0  0  2  0  0  0  0  0  0
  188.2970  177.7140  147.2590 O   0  0  0  0  0  0  0  0  0  0  0  0
  186.0900  176.4150  146.1830 O   0  0  0  0  0  1  0  0  0  0  0  0
  185.9420  177.8130  148.3870 O   0  0  0  0  0  1  0  0  0  0  0  0
  186.6170  177.7780  147.0360 P   0  0  0  0  0  0  0  0  0  0  0  0
  186.2050  179.1760  146.1750 O   0  0  0  0  0  0  0  0  0  0  0  0
  1  5  1  0  0  0  0
  3  2  1  0  0  0  0
  4  7  1  0  0  0  0
  4  1  2  0  0  0  0
  5  6  1  0  0  0  0
  6  2  2  0  0  0  0
  6 26  1  0  0  0  0
  7  3  2  0  0  0  0
  8 10  1  0  0  0  0
  8 12  1  0  0  0  0
 10 11  1  0  0  0  0
 11  9  1  0  0  0  0
 11  7  1  1  0  0  0
 12 14  1  1  0  0  0
 12  9  1  0  0  0  0
 14 13  1  6  0  0  0
 14 16  1  0  0  0  0
 16 17  1  6  0  0  0
 16 20  1  0  0  0  0
 16 18  1  0  0  0  0
 18 19  1  0  0  0  0
 19 23  1  1  0  0  0
 20 22  1  6  0  0  0
 20 21  1  0  0  0  0
 21 19  1  0  0  0  0
 21 15  1  1  0  0  0
 23 25  1  0  0  0  0
 23 24  1  0  0  0  0
 25 24  1  0  0  0  0
 26 27  2  0  0  0  0
 27 30  1  0  0  0  0
 30 28  2  0  0  0  0
 30 29  2  0  0  0  0
 31 32  1  6  0  0  0
 31 30  1  0  0  0  0
 31 40  1  0  0  0  0
 33 32  2  0  0  0  0
 35 34  1  6  0  0  0
 35 37  1  0  0  0  0
 36 38  1  0  0  0  0
 38 37  1  0  0  0  0
 38 33  1  6  0  0  0
 39 36  1  0  0  0  0
 39 35  1  0  0  0  0
 41 43  1  0  0  0  0
 43 40  1  0  0  0  0
 43 42  1  0  0  0  0
 44 43  2  0  0  0  0
M  END
>  <MODEL>
8

>  <REMARK>
 VINA RESULT:      -6.3      3.946      8.398
  Name = 
  11 active torsions:
  status: ('A' for Active; 'I' for Inactive)
    1  A    between atoms: C_1  and  C_24
    2  A    between atoms: C_2  and  C_38
    3  A    between atoms: C_6  and  C_30
    4  A    between atoms: C_8  and  S_42
    5  A    between atoms: C_11  and  C_41
    6  A    between atoms: C_17  and  C_20
    7  A    between atoms: C_24  and  O_39
    8  A    between atoms: C_24  and  S_42
    9  A    between atoms: P_27  and  O_39
   10  A    between atoms: C_37  and  C_44
   11  A    between atoms: C_41  and  C_43
                            x       y       z     vdW  Elec       q    Type
                         _______ _______ _______ _____ _____    ______ ____

>  <TORSDO>
F 11

$$$$
=
 OpenBabel11062422123D

 44 48  0  0  1  0  0  0  0  0999 V2000
  190.0590  173.1840  140.0220 C   0  0  0  0  0  3  0  0  0  0  0  0
  188.9430  172.5960  142.7710 C   0  0  0  0  0  3  0  0  0  0  0  0
  189.8050  171.4360  142.4830 C   0  0  0  0  0  3  0  0  0  0  0  0
  190.2710  171.9080  140.1320 N   0  0  0  0  0  0  0  0  0  0  0  0
  190.0890  174.1090  141.1900 C   0  0  0  0  0  2  0  0  0  0  0  0
  189.0170  173.7930  142.1760 C   0  0  0  0  0  0  0  0  0  0  0  0
  190.4820  171.1750  141.3530 C   0  0  0  0  0  0  0  0  0  0  0  0
  193.7830  169.4020  140.1800 S   0  0  0  0  0  0  0  0  0  0  0  0
  192.4750  170.0910  142.3870 C   0  0  0  0  0  2  0  0  0  0  0  0
  191.9960  169.6930  139.9800 C   0  0  0  0  0  2  0  0  0  0  0  0
  191.3660  169.9530  141.3470 C   0  0  2  0  0  3  0  0  0  0  0  0
  193.7880  170.4020  141.6920 C   0  0  2  0  0  3  0  0  0  0  0  0
  194.6900  172.0080  140.1530 O   0  0  0  0  0  1  0  0  0  0  0  0
  193.9510  171.8940  141.3350 C   0  0  2  0  0  3  0  0  0  0  0  0
  193.1760  175.7790  142.8030 F   0  0  0  0  0  0  0  0  0  0  0  0
  194.5770  172.7660  142.4450 C   0  0  1  0  0  0  0  0  0  0  0  0
  195.3440  171.9830  143.2930 F   0  0  0  0  0  0  0  0  0  0  0  0
  195.4530  173.8780  141.9000 C   0  0  0  0  0  2  0  0  0  0  0  0
  195.4080  174.9250  142.9860 C   0  0  2  0  0  3  0  0  0  0  0  0
  193.4870  173.4830  143.2560 C   0  0  2  0  0  3  0  0  0  0  0  0
  193.9790  174.9010  143.5130 C   0  0  2  0  0  3  0  0  0  0  0  0
  193.2400  172.8330  144.4660 O   0  0  0  0  0  1  0  0  0  0  0  0
  195.8550  176.2880  142.4800 C   0  0  0  0  0  3  0  0  0  0  0  0
  196.8180  176.7950  143.3240 O   0  0  0  0  0  0  0  0  0  0  0  0
  197.1950  176.2390  142.1630 O   0  0  0  0  0  0  0  0  0  0  0  0
  188.2310  174.9280  142.6830 C   0  0  0  0  0  3  0  0  0  0  0  0
  187.9650  176.0080  141.9550 C   0  0  0  0  0  3  0  0  0  0  0  0
  186.8130  178.3800  141.5530 O   0  0  0  0  0  0  0  0  0  0  0  0
  185.5470  176.7020  142.8040 O   0  0  0  0  0  0  0  0  0  0  0  0
  186.9140  177.2750  142.5670 S   0  0  0  0  0  0  0  0  0  0  0  0
  187.5730  177.8990  144.1150 C   0  0  2  0  0  3  0  0  0  0  0  0
  189.0360  178.2700  144.0530 C   0  0  0  0  0  3  0  0  0  0  0  0
  190.0760  177.7200  144.7080 C   0  0  0  0  0  3  0  0  0  0  0  0
  192.8650  174.9930  146.8880 O   0  0  0  0  0  1  0  0  0  0  0  0
  191.4800  174.9150  146.7510 C   0  0  2  0  0  3  0  0  0  0  0  0
  190.3170  177.0170  147.1250 C   0  0  0  0  0  2  0  0  0  0  0  0
  191.0720  175.4840  145.4010 C   0  0  0  0  0  2  0  0  0  0  0  0
  190.0800  176.5890  145.7020 C   0  0  2  0  0  3  0  0  0  0  0  0
  190.8150  175.7680  147.8190 C   0  0  0  0  0  2  0  0  0  0  0  0
  187.2790  177.0450  145.1800 O   0  0  0  0  0  0  0  0  0  0  0  0
  187.0090  178.2900  147.6490 O   0  0  0  0  0  1  0  0  0  0  0  0
  185.8270  179.1940  145.5000 O   0  0  0  0  0  0  0  0  0  0  0  0
  186.2330  177.9140  146.1930 P   0  0  0  0  0  0  0  0  0  0  0  0
  184.8480  176.9950  146.5130 O   0  0  0  0  0  1  0  0  0  0  0  0
  1  4  2  0  0  0  0
  1  5  1  0  0  0  0
  3  2  1  0  0  0  0
  4  7  1  0  0  0  0
  5  6  1  0  0  0  0
  6 26  1  0  0  0  0
  6  2  2  0  0  0  0
  7  3  2  0  0  0  0
  8 12  1  0  0  0  0
 10  8  1  0  0  0  0
 10 11  1  0  0  0  0
 11  7  1  6  0  0  0
 11  9  1  0  0  0  0
 12 14  1  6  0  0  0
 12  9  1  0  0  0  0
 14 13  1  6  0  0  0
 14 16  1  0  0  0  0
 16 20  1  0  0  0  0
 16 17  1  1  0  0  0
 18 16  1  0  0  0  0
 18 19  1  0  0  0  0
 19 23  1  6  0  0  0
 19 21  1  0  0  0  0
 20 21  1  0  0  0  0
 20 22  1  1  0  0  0
 21 15  1  6  0  0  0
 23 24  1  0  0  0  0
 25 23  1  0  0  0  0
 25 24  1  0  0  0  0
 27 30  1  0  0  0  0
 27 26  2  0  0  0  0
 28 30  2  0  0  0  0
 30 29  2  0  0  0  0
 30 31  1  0  0  0  0
 31 32  1  6  0  0  0
 31 40  1  0  0  0  0
 32 33  2  0  0  0  0
 35 34  1  1  0  0  0
 35 39  1  0  0  0  0
 36 39  1  0  0  0  0
 37 38  1  0  0  0  0
 37 35  1  0  0  0  0
 38 33  1  6  0  0  0
 38 36  1  0  0  0  0
 40 43  1  0  0  0  0
 42 43  2  0  0  0  0
 43 44  1  0  0  0  0
 43 41  1  0  0  0  0
M  END
>  <MODEL>
9

>  <REMARK>
 VINA RESULT:      -6.1      3.642      8.682
  Name = 
  11 active torsions:
  status: ('A' for Active; 'I' for Inactive)
    1  A    between atoms: C_1  and  C_24
    2  A    between atoms: C_2  and  C_38
    3  A    between atoms: C_6  and  C_30
    4  A    between atoms: C_8  and  S_42
    5  A    between atoms: C_11  and  C_41
    6  A    between atoms: C_17  and  C_20
    7  A    between atoms: C_24  and  O_39
    8  A    between atoms: C_24  and  S_42
    9  A    between atoms: P_27  and  O_39
   10  A    between atoms: C_37  and  C_44
   11  A    between atoms: C_41  and  C_43
                            x       y       z     vdW  Elec       q    Type
                         _______ _______ _______ _____ _____    ______ ____

>  <TORSDO>
F 11

$$$$
