=
 OpenBabel11062422443D

 29 32  0  0  1  0  0  0  0  0999 V2000
  185.4300  179.1350  146.1930 C   0  0  1  0  0  3  0  0  0  0  0  0
  188.0600  175.8720  141.4920 C   0  0  0  0  0  0  0  0  0  0  0  0
  188.9650  175.4230  146.3480 C   0  0  0  0  0  3  0  0  0  0  0  0
  190.0730  173.8990  144.8390 C   0  0  0  0  0  0  0  0  0  0  0  0
  187.0260  177.3380  143.1340 C   0  0  0  0  0  0  0  0  0  0  0  0
  187.9030  176.2520  142.8570 C   0  0  0  0  0  0  0  0  0  0  0  0
  189.8300  174.3530  146.1340 C   0  0  0  0  0  3  0  0  0  0  0  0
  187.3560  176.5530  140.5050 C   0  0  0  0  0  3  0  0  0  0  0  0
  186.3380  178.9710  148.3890 O   0  0  0  0  0  0  0  0  0  0  0  0
  188.9410  174.7660  141.0130 C   0  0  0  0  0  1  0  0  0  0  0  0
  188.3280  176.0580  145.2720 C   0  0  0  0  0  0  0  0  0  0  0  0
  185.9350  178.9410  144.7950 C   0  0  0  0  0  0  0  0  0  0  0  0
  184.0660  178.4840  146.3490 C   0  0  0  0  0  1  0  0  0  0  0  0
  186.8180  177.7850  144.4600 C   0  0  0  0  0  0  0  0  0  0  0  0
  187.2850  177.5670  146.8430 O   0  0  0  0  0  0  0  0  0  0  0  0
  185.5670  179.7910  143.8920 N   0  0  0  0  0  2  0  0  0  0  0  0
  188.5600  175.6110  143.9460 C   0  0  0  0  0  0  0  0  0  0  0  0
  189.4420  174.5300  143.7600 C   0  0  0  0  0  3  0  0  0  0  0  0
  186.3820  178.5690  147.1980 C   0  0  0  0  0  0  0  0  0  0  0  0
  186.3730  177.9450  142.1050 N   0  0  0  0  0  0  0  0  0  0  0  0
  187.4690  177.1350  145.5210 C   0  0  0  0  0  0  0  0  0  0  0  0
  186.5310  177.5700  140.8390 N   0  0  0  0  0  0  0  0  0  0  0  0
  190.9650  172.7990  144.6410 N   0  0  0  0  0  2  0  0  0  0  0  0
  192.2920  172.9280  144.0560 C   0  0  0  0  0  2  0  0  0  0  0  0
  193.0530  173.9450  144.7640 N   0  0  0  0  0  2  0  0  0  0  0  0
  193.2280  175.0590  143.8500 C   0  0  0  0  0  2  0  0  0  0  0  0
  192.7180  176.3420  144.4870 C   0  0  0  0  0  2  0  0  0  0  0  0
  191.1690  178.1560  143.8870 C   0  0  0  0  0  2  0  0  0  0  0  0
  191.9400  177.1450  143.4960 C   0  0  0  0  0  3  0  0  0  0  0  0
  1 13  1  6  0  0  0
  1 19  1  0  0  0  0
  2  6  1  0  0  0  0
  4  7  2  0  0  0  0
  5 14  1  0  0  0  0
  6  5  2  0  0  0  0
  6 17  1  0  0  0  0
  7  3  1  0  0  0  0
  8 22  1  0  0  0  0
  8  2  2  0  0  0  0
 10  2  1  0  0  0  0
 11 21  1  0  0  0  0
 11  3  2  0  0  0  0
 12  1  1  0  0  0  0
 14 12  1  0  0  0  0
 14 21  2  0  0  0  0
 15 19  1  0  0  0  0
 16 12  2  0  0  0  0
 17 11  1  0  0  0  0
 18 17  2  0  0  0  0
 18  4  1  0  0  0  0
 19  9  2  0  0  0  0
 20  5  1  0  0  0  0
 21 15  1  0  0  0  0
 22 20  2  0  0  0  0
 23  4  1  0  0  0  0
 24 23  1  0  0  0  0
 24 25  1  0  0  0  0
 26 27  1  0  0  0  0
 26 25  1  0  0  0  0
 29 28  2  0  0  0  0
 29 27  1  0  0  0  0
M  END
>  <MODEL>
1

>  <REMARK>
 VINA RESULT:      -7.5      0.000      0.000
  Name = 
  6 active torsions:
  status: ('A' for Active; 'I' for Inactive)
    1  A    between atoms: C_5  and  C_15
    2  A    between atoms: C_5  and  C_21
    3  A    between atoms: C_6  and  N_11
    4  A    between atoms: N_11  and  C_23
    5  A    between atoms: C_21  and  N_29
    6  A    between atoms: C_23  and  N_29
                            x       y       z     vdW  Elec       q    Type
                         _______ _______ _______ _____ _____    ______ ____

>  <TORSDO>
F 6

$$$$
=
 OpenBabel11062422443D

 29 32  0  0  1  0  0  0  0  0999 V2000
  190.8170  176.3500  145.2830 C   0  0  1  0  0  3  0  0  0  0  0  0
  184.9320  178.5170  145.8580 C   0  0  0  0  0  0  0  0  0  0  0  0
  187.4160  177.6150  141.6610 C   0  0  0  0  0  3  0  0  0  0  0  0
  185.1130  178.3190  141.4910 C   0  0  0  0  0  0  0  0  0  0  0  0
  187.2590  177.8090  145.8670 C   0  0  0  0  0  0  0  0  0  0  0  0
  186.0940  178.1430  145.1210 C   0  0  0  0  0  0  0  0  0  0  0  0
  186.3030  177.9280  140.8820 C   0  0  0  0  0  3  0  0  0  0  0  0
  184.9760  178.5260  147.2480 C   0  0  0  0  0  3  0  0  0  0  0  0
  191.8770  176.3790  143.1490 O   0  0  0  0  0  0  0  0  0  0  0  0
  183.6270  178.9070  145.2480 C   0  0  0  0  0  1  0  0  0  0  0  0
  187.3560  177.6880  143.0600 C   0  0  0  0  0  0  0  0  0  0  0  0
  189.7130  177.1090  145.9540 C   0  0  0  0  0  0  0  0  0  0  0  0
  190.6700  174.8630  145.5590 C   0  0  0  0  0  1  0  0  0  0  0  0
  188.4580  177.4350  145.2150 C   0  0  0  0  0  0  0  0  0  0  0  0
  189.6730  177.0130  143.1440 O   0  0  0  0  0  0  0  0  0  0  0  0
  189.8750  177.4520  147.1910 N   0  0  0  0  0  2  0  0  0  0  0  0
  186.1530  178.0820  143.7000 C   0  0  0  0  0  0  0  0  0  0  0  0
  185.0470  178.3950  142.8870 C   0  0  0  0  0  3  0  0  0  0  0  0
  190.8270  176.5940  143.8080 C   0  0  0  0  0  0  0  0  0  0  0  0
  187.2100  177.8410  147.2270 N   0  0  0  0  0  0  0  0  0  0  0  0
  188.4930  177.3720  143.8120 C   0  0  0  0  0  0  0  0  0  0  0  0
  186.1140  178.1870  147.8950 N   0  0  0  0  0  0  0  0  0  0  0  0
  183.9830  178.6370  140.6730 N   0  0  0  0  0  2  0  0  0  0  0  0
  182.7270  177.9010  140.7050 C   0  0  0  0  0  2  0  0  0  0  0  0
  181.7130  178.6730  141.4040 N   0  0  0  0  0  2  0  0  0  0  0  0
  180.5530  178.7420  140.5330 C   0  0  0  0  0  2  0  0  0  0  0  0
  179.2830  178.8520  141.3620 C   0  0  0  0  0  2  0  0  0  0  0  0
  178.3800  177.0110  142.7190 C   0  0  0  0  0  2  0  0  0  0  0  0
  178.6410  177.5120  141.5150 C   0  0  0  0  0  3  0  0  0  0  0  0
  1 13  1  6  0  0  0
  1 12  1  0  0  0  0
  2  8  1  0  0  0  0
  3 11  1  0  0  0  0
  4 18  2  0  0  0  0
  5 20  2  0  0  0  0
  6  2  2  0  0  0  0
  6  5  1  0  0  0  0
  7  4  1  0  0  0  0
  7  3  2  0  0  0  0
  8 22  2  0  0  0  0
  9 19  2  0  0  0  0
 10  2  1  0  0  0  0
 11 17  2  0  0  0  0
 11 21  1  0  0  0  0
 12 16  2  0  0  0  0
 14  5  1  0  0  0  0
 14 12  1  0  0  0  0
 15 19  1  0  0  0  0
 15 21  1  0  0  0  0
 17  6  1  0  0  0  0
 18 17  1  0  0  0  0
 19  1  1  0  0  0  0
 20 22  1  0  0  0  0
 21 14  2  0  0  0  0
 23 24  1  0  0  0  0
 23  4  1  0  0  0  0
 24 25  1  0  0  0  0
 26 27  1  0  0  0  0
 26 25  1  0  0  0  0
 27 29  1  0  0  0  0
 29 28  2  0  0  0  0
M  END
>  <MODEL>
2

>  <REMARK>
 VINA RESULT:      -7.0      3.751      7.959
  Name = 
  6 active torsions:
  status: ('A' for Active; 'I' for Inactive)
    1  A    between atoms: C_5  and  C_15
    2  A    between atoms: C_5  and  C_21
    3  A    between atoms: C_6  and  N_11
    4  A    between atoms: N_11  and  C_23
    5  A    between atoms: C_21  and  N_29
    6  A    between atoms: C_23  and  N_29
                            x       y       z     vdW  Elec       q    Type
                         _______ _______ _______ _____ _____    ______ ____

>  <TORSDO>
F 6

$$$$
=
 OpenBabel11062422443D

 29 32  0  0  1  0  0  0  0  0999 V2000
  194.2220  175.0580  145.8830 C   0  0  1  0  0  3  0  0  0  0  0  0
  189.2550  172.8540  142.7010 C   0  0  0  0  0  0  0  0  0  0  0  0
  189.7800  177.3460  144.7370 C   0  0  0  0  0  3  0  0  0  0  0  0
  187.7740  176.8990  143.4690 C   0  0  0  0  0  0  0  0  0  0  0  0
  191.2150  173.4510  144.0120 C   0  0  0  0  0  0  0  0  0  0  0  0
  189.9540  173.8290  143.4720 C   0  0  0  0  0  0  0  0  0  0  0  0
  188.5530  177.7690  144.2280 C   0  0  0  0  0  3  0  0  0  0  0  0
  189.8260  171.6020  142.4990 C   0  0  0  0  0  3  0  0  0  0  0  0
  194.0380  177.1130  147.0730 O   0  0  0  0  0  0  0  0  0  0  0  0
  187.9210  173.0680  142.0650 C   0  0  0  0  0  1  0  0  0  0  0  0
  190.2460  176.0460  144.4950 C   0  0  0  0  0  0  0  0  0  0  0  0
  193.2810  173.9920  145.4110 C   0  0  0  0  0  0  0  0  0  0  0  0
  195.2170  175.3980  144.7870 C   0  0  0  0  0  1  0  0  0  0  0  0
  191.9710  174.3550  144.7960 C   0  0  0  0  0  0  0  0  0  0  0  0
  192.2080  176.5610  145.8070 O   0  0  0  0  0  0  0  0  0  0  0  0
  193.6470  172.7570  145.5360 N   0  0  0  0  0  2  0  0  0  0  0  0
  189.4700  175.1440  143.7230 C   0  0  0  0  0  0  0  0  0  0  0  0
  188.2340  175.5990  143.2260 C   0  0  0  0  0  3  0  0  0  0  0  0
  193.4850  176.2890  146.3010 C   0  0  0  0  0  0  0  0  0  0  0  0
  191.7000  172.2050  143.7600 N   0  0  0  0  0  0  0  0  0  0  0  0
  191.4800  175.6510  145.0260 C   0  0  0  0  0  0  0  0  0  0  0  0
  191.0340  171.3120  143.0330 N   0  0  0  0  0  0  0  0  0  0  0  0
  186.5180  177.3530  142.9570 N   0  0  0  0  0  2  0  0  0  0  0  0
  186.0400  178.7230  143.0810 C   0  0  0  0  0  2  0  0  0  0  0  0
  184.7980  178.7520  143.8360 N   0  0  0  0  0  2  0  0  0  0  0  0
  185.1360  179.1250  145.1980 C   0  0  0  0  0  2  0  0  0  0  0  0
  184.4340  178.2020  146.1820 C   0  0  0  0  0  2  0  0  0  0  0  0
  186.3440  176.8670  146.9710 C   0  0  0  0  0  2  0  0  0  0  0  0
  185.1840  176.9170  146.3200 C   0  0  0  0  0  3  0  0  0  0  0  0
  1 13  1  6  0  0  0
  1 19  1  0  0  0  0
  2  6  1  0  0  0  0
  4  7  1  0  0  0  0
  5 14  1  0  0  0  0
  6 17  1  0  0  0  0
  6  5  2  0  0  0  0
  7  3  2  0  0  0  0
  8  2  2  0  0  0  0
  8 22  1  0  0  0  0
 10  2  1  0  0  0  0
 11  3  1  0  0  0  0
 11 21  1  0  0  0  0
 12 16  2  0  0  0  0
 12  1  1  0  0  0  0
 14 21  2  0  0  0  0
 14 12  1  0  0  0  0
 15 19  1  0  0  0  0
 17 11  2  0  0  0  0
 18  4  2  0  0  0  0
 18 17  1  0  0  0  0
 19  9  2  0  0  0  0
 20  5  1  0  0  0  0
 21 15  1  0  0  0  0
 22 20  2  0  0  0  0
 23 24  1  0  0  0  0
 23  4  1  0  0  0  0
 24 25  1  0  0  0  0
 25 26  1  0  0  0  0
 26 27  1  0  0  0  0
 27 29  1  0  0  0  0
 29 28  2  0  0  0  0
M  END
>  <MODEL>
3

>  <REMARK>
 VINA RESULT:      -6.8      2.274      6.846
  Name = 
  6 active torsions:
  status: ('A' for Active; 'I' for Inactive)
    1  A    between atoms: C_5  and  C_15
    2  A    between atoms: C_5  and  C_21
    3  A    between atoms: C_6  and  N_11
    4  A    between atoms: N_11  and  C_23
    5  A    between atoms: C_21  and  N_29
    6  A    between atoms: C_23  and  N_29
                            x       y       z     vdW  Elec       q    Type
                         _______ _______ _______ _____ _____    ______ ____

>  <TORSDO>
F 6

$$$$
=
 OpenBabel11062422443D

 29 32  0  0  1  0  0  0  0  0999 V2000
  185.5470  179.1010  146.3290 C   0  0  1  0  0  3  0  0  0  0  0  0
  187.8470  176.0070  141.3500 C   0  0  0  0  0  0  0  0  0  0  0  0
  189.0220  175.3370  146.1220 C   0  0  0  0  0  3  0  0  0  0  0  0
  190.0160  173.8640  144.4880 C   0  0  0  0  0  0  0  0  0  0  0  0
  186.9340  177.4160  143.1100 C   0  0  0  0  0  0  0  0  0  0  0  0
  187.7750  176.3300  142.7370 C   0  0  0  0  0  0  0  0  0  0  0  0
  189.8560  174.2640  145.8130 C   0  0  0  0  0  3  0  0  0  0  0  0
  187.0990  176.7400  140.4350 C   0  0  0  0  0  3  0  0  0  0  0  0
  186.5770  178.8300  148.4600 O   0  0  0  0  0  0  0  0  0  0  0  0
  188.6810  174.9100  140.7750 C   0  0  0  0  0  1  0  0  0  0  0  0
  188.3350  176.0270  145.1120 C   0  0  0  0  0  0  0  0  0  0  0  0
  185.9670  178.9610  144.8980 C   0  0  0  0  0  0  0  0  0  0  0  0
  184.1830  178.4640  146.5370 C   0  0  0  0  0  1  0  0  0  0  0  0
  186.8100  177.8080  144.4640 C   0  0  0  0  0  0  0  0  0  0  0  0
  187.4100  177.4800  146.8040 O   0  0  0  0  0  0  0  0  0  0  0  0
  185.5620  179.8540  144.0540 N   0  0  0  0  0  2  0  0  0  0  0  0
  188.4830  175.6340  143.7570 C   0  0  0  0  0  0  0  0  0  0  0  0
  189.3350  174.5490  143.4750 C   0  0  0  0  0  3  0  0  0  0  0  0
  186.5450  178.4800  147.2520 C   0  0  0  0  0  0  0  0  0  0  0  0
  186.2330  178.0750  142.1470 N   0  0  0  0  0  0  0  0  0  0  0  0
  187.5100  177.1030  145.4570 C   0  0  0  0  0  0  0  0  0  0  0  0
  186.3110  177.7530  140.8590 N   0  0  0  0  0  0  0  0  0  0  0  0
  190.8780  172.7610  144.1920 N   0  0  0  0  0  2  0  0  0  0  0  0
  192.2750  172.6930  144.5960 C   0  0  0  0  0  2  0  0  0  0  0  0
  192.9420  173.9500  144.2980 N   0  0  0  0  0  2  0  0  0  0  0  0
  194.1370  174.0050  145.1210 C   0  0  0  0  0  2  0  0  0  0  0  0
  194.5770  172.5990  145.4960 C   0  0  0  0  0  2  0  0  0  0  0  0
  196.7380  173.6310  146.0600 C   0  0  0  0  0  2  0  0  0  0  0  0
  196.0580  172.5490  145.6890 C   0  0  0  0  0  3  0  0  0  0  0  0
  1 13  1  6  0  0  0
  1 19  1  0  0  0  0
  2  6  1  0  0  0  0
  4  7  2  0  0  0  0
  5 14  1  0  0  0  0
  6  5  2  0  0  0  0
  6 17  1  0  0  0  0
  7  3  1  0  0  0  0
  8 22  1  0  0  0  0
  8  2  2  0  0  0  0
 10  2  1  0  0  0  0
 11 21  1  0  0  0  0
 11  3  2  0  0  0  0
 12  1  1  0  0  0  0
 14 12  1  0  0  0  0
 14 21  2  0  0  0  0
 15 19  1  0  0  0  0
 16 12  2  0  0  0  0
 17 11  1  0  0  0  0
 18 17  2  0  0  0  0
 18  4  1  0  0  0  0
 19  9  2  0  0  0  0
 20  5  1  0  0  0  0
 21 15  1  0  0  0  0
 22 20  2  0  0  0  0
 23  4  1  0  0  0  0
 23 24  1  0  0  0  0
 25 24  1  0  0  0  0
 25 26  1  0  0  0  0
 26 27  1  0  0  0  0
 27 29  1  0  0  0  0
 29 28  2  0  0  0  0
M  END
>  <MODEL>
4

>  <REMARK>
 VINA RESULT:      -6.7      1.303      2.061
  Name = 
  6 active torsions:
  status: ('A' for Active; 'I' for Inactive)
    1  A    between atoms: C_5  and  C_15
    2  A    between atoms: C_5  and  C_21
    3  A    between atoms: C_6  and  N_11
    4  A    between atoms: N_11  and  C_23
    5  A    between atoms: C_21  and  N_29
    6  A    between atoms: C_23  and  N_29
                            x       y       z     vdW  Elec       q    Type
                         _______ _______ _______ _____ _____    ______ ____

>  <TORSDO>
F 6

$$$$
=
 OpenBabel11062422443D

 29 32  0  0  1  0  0  0  0  0999 V2000
  184.5380  178.4380  144.2100 C   0  0  1  0  0  3  0  0  0  0  0  0
  189.5020  174.8900  145.7670 C   0  0  0  0  0  0  0  0  0  0  0  0
  187.6440  175.6520  141.2310 C   0  0  0  0  0  3  0  0  0  0  0  0
  189.6530  174.3270  141.4300 C   0  0  0  0  0  0  0  0  0  0  0  0
  187.4810  176.1960  145.4060 C   0  0  0  0  0  0  0  0  0  0  0  0
  188.5440  175.4250  144.8560 C   0  0  0  0  0  0  0  0  0  0  0  0
  188.6650  174.9100  140.6390 C   0  0  0  0  0  3  0  0  0  0  0  0
  189.3720  175.1470  147.1270 C   0  0  0  0  0  3  0  0  0  0  0  0
  183.6460  178.3100  142.0040 O   0  0  0  0  0  0  0  0  0  0  0  0
  190.6740  174.0530  145.3740 C   0  0  0  0  0  1  0  0  0  0  0  0
  187.5950  175.8230  142.6220 C   0  0  0  0  0  0  0  0  0  0  0  0
  185.3330  177.5430  145.1100 C   0  0  0  0  0  0  0  0  0  0  0  0
  185.0890  179.8530  144.2620 C   0  0  0  0  0  1  0  0  0  0  0  0
  186.4830  176.7570  144.5750 C   0  0  0  0  0  0  0  0  0  0  0  0
  185.5700  177.1080  142.3420 O   0  0  0  0  0  0  0  0  0  0  0  0
  185.0040  177.4890  146.3600 N   0  0  0  0  0  2  0  0  0  0  0  0
  188.5920  175.2390  143.4450 C   0  0  0  0  0  0  0  0  0  0  0  0
  189.6080  174.4920  142.8200 C   0  0  0  0  0  3  0  0  0  0  0  0
  184.5470  177.9400  142.8000 C   0  0  0  0  0  0  0  0  0  0  0  0
  187.4360  176.4010  146.7510 N   0  0  0  0  0  0  0  0  0  0  0  0
  186.5530  176.5690  143.1840 C   0  0  0  0  0  0  0  0  0  0  0  0
  188.3430  175.8960  147.5820 N   0  0  0  0  0  0  0  0  0  0  0  0
  190.6910  173.5680  140.8030 N   0  0  0  0  0  2  0  0  0  0  0  0
  191.8890  173.1110  141.4920 C   0  0  0  0  0  2  0  0  0  0  0  0
  192.9730  174.0590  141.2910 N   0  0  0  0  0  2  0  0  0  0  0  0
  193.1930  174.7300  142.5590 C   0  0  0  0  0  2  0  0  0  0  0  0
  192.8360  176.2030  142.4390 C   0  0  0  0  0  2  0  0  0  0  0  0
  191.4690  177.6190  143.9140 C   0  0  0  0  0  2  0  0  0  0  0  0
  192.4820  176.7670  143.7770 C   0  0  0  0  0  3  0  0  0  0  0  0
  1 13  1  6  0  0  0
  1 12  1  0  0  0  0
  2  8  1  0  0  0  0
  3 11  1  0  0  0  0
  4 18  2  0  0  0  0
  5 20  2  0  0  0  0
  6  5  1  0  0  0  0
  6  2  2  0  0  0  0
  7  3  2  0  0  0  0
  7  4  1  0  0  0  0
  8 22  2  0  0  0  0
  9 19  2  0  0  0  0
 10  2  1  0  0  0  0
 11 21  1  0  0  0  0
 11 17  2  0  0  0  0
 12 16  2  0  0  0  0
 14 12  1  0  0  0  0
 14  5  1  0  0  0  0
 15 19  1  0  0  0  0
 15 21  1  0  0  0  0
 17  6  1  0  0  0  0
 18 17  1  0  0  0  0
 19  1  1  0  0  0  0
 20 22  1  0  0  0  0
 21 14  2  0  0  0  0
 23  4  1  0  0  0  0
 23 24  1  0  0  0  0
 25 24  1  0  0  0  0
 25 26  1  0  0  0  0
 27 26  1  0  0  0  0
 27 29  1  0  0  0  0
 29 28  2  0  0  0  0
M  END
>  <MODEL>
5

>  <REMARK>
 VINA RESULT:      -6.5      2.563      3.866
  Name = 
  6 active torsions:
  status: ('A' for Active; 'I' for Inactive)
    1  A    between atoms: C_5  and  C_15
    2  A    between atoms: C_5  and  C_21
    3  A    between atoms: C_6  and  N_11
    4  A    between atoms: N_11  and  C_23
    5  A    between atoms: C_21  and  N_29
    6  A    between atoms: C_23  and  N_29
                            x       y       z     vdW  Elec       q    Type
                         _______ _______ _______ _____ _____    ______ ____

>  <TORSDO>
F 6

$$$$
=
 OpenBabel11062422443D

 29 32  0  0  1  0  0  0  0  0999 V2000
  185.3470  178.7120  142.4250 C   0  0  1  0  0  3  0  0  0  0  0  0
  189.8230  174.2980  142.0660 C   0  0  0  0  0  0  0  0  0  0  0  0
  188.9670  177.4250  145.8200 C   0  0  0  0  0  3  0  0  0  0  0  0
  190.7000  175.7660  146.0940 C   0  0  0  0  0  0  0  0  0  0  0  0
  188.1170  176.0270  141.9370 C   0  0  0  0  0  0  0  0  0  0  0  0
  189.1470  175.3890  142.6850 C   0  0  0  0  0  0  0  0  0  0  0  0
  189.9610  176.8350  146.5980 C   0  0  0  0  0  3  0  0  0  0  0  0
  189.4520  173.8970  140.7880 C   0  0  0  0  0  3  0  0  0  0  0  0
  185.4180  180.3180  144.1830 O   0  0  0  0  0  0  0  0  0  0  0  0
  190.9310  173.5180  142.6940 C   0  0  0  0  0  1  0  0  0  0  0  0
  188.6950  176.9560  144.5260 C   0  0  0  0  0  0  0  0  0  0  0  0
  186.3370  177.8430  141.7120 C   0  0  0  0  0  0  0  0  0  0  0  0
  184.0960  177.9160  142.7540 C   0  0  0  0  0  1  0  0  0  0  0  0
  187.4000  177.1230  142.4720 C   0  0  0  0  0  0  0  0  0  0  0  0
  187.0020  178.6660  144.3180 O   0  0  0  0  0  0  0  0  0  0  0  0
  186.2290  177.7230  140.4280 N   0  0  0  0  0  2  0  0  0  0  0  0
  189.4340  175.8680  143.9950 C   0  0  0  0  0  0  0  0  0  0  0  0
  190.4340  175.2950  144.8020 C   0  0  0  0  0  3  0  0  0  0  0  0
  185.9290  179.2860  143.6770 C   0  0  0  0  0  0  0  0  0  0  0  0
  187.8160  175.5640  140.6930 N   0  0  0  0  0  0  0  0  0  0  0  0
  187.6930  177.5750  143.7700 C   0  0  0  0  0  0  0  0  0  0  0  0
  188.4570  174.5400  140.1360 N   0  0  0  0  0  0  0  0  0  0  0  0
  191.7170  175.1760  146.9080 N   0  0  0  0  0  2  0  0  0  0  0  0
  193.1150  175.0750  146.5130 C   0  0  0  0  0  2  0  0  0  0  0  0
  193.7410  176.3870  146.5580 N   0  0  0  0  0  2  0  0  0  0  0  0
  193.9970  176.7840  145.1850 C   0  0  0  0  0  2  0  0  0  0  0  0
  194.5930  175.6210  144.4070 C   0  0  0  0  0  2  0  0  0  0  0  0
  193.0860  176.4160  142.6320 C   0  0  0  0  0  2  0  0  0  0  0  0
  194.0830  175.6150  143.0030 C   0  0  0  0  0  3  0  0  0  0  0  0
  1 13  1  1  0  0  0
  1 19  1  0  0  0  0
  2  6  1  0  0  0  0
  2 10  1  0  0  0  0
  3  7  1  0  0  0  0
  4  7  2  0  0  0  0
  4 23  1  0  0  0  0
  5 14  1  0  0  0  0
  5  6  2  0  0  0  0
  6 17  1  0  0  0  0
  8  2  2  0  0  0  0
 11  3  2  0  0  0  0
 12  1  1  0  0  0  0
 12 14  1  0  0  0  0
 14 21  2  0  0  0  0
 16 12  2  0  0  0  0
 17 11  1  0  0  0  0
 17 18  2  0  0  0  0
 18  4  1  0  0  0  0
 19  9  2  0  0  0  0
 19 15  1  0  0  0  0
 20  5  1  0  0  0  0
 21 15  1  0  0  0  0
 21 11  1  0  0  0  0
 22 20  2  0  0  0  0
 22  8  1  0  0  0  0
 24 25  1  0  0  0  0
 24 23  1  0  0  0  0
 26 25  1  0  0  0  0
 27 26  1  0  0  0  0
 28 29  2  0  0  0  0
 29 27  1  0  0  0  0
M  END
>  <MODEL>
6

>  <REMARK>
 VINA RESULT:      -6.5      2.144      2.866
  Name = 
  6 active torsions:
  status: ('A' for Active; 'I' for Inactive)
    1  A    between atoms: C_5  and  C_15
    2  A    between atoms: C_5  and  C_21
    3  A    between atoms: C_6  and  N_11
    4  A    between atoms: N_11  and  C_23
    5  A    between atoms: C_21  and  N_29
    6  A    between atoms: C_23  and  N_29
                            x       y       z     vdW  Elec       q    Type
                         _______ _______ _______ _____ _____    ______ ____

>  <TORSDO>
F 6

$$$$
=
 OpenBabel11062422443D

 29 32  0  0  1  0  0  0  0  0999 V2000
  185.5340  179.1290  146.2840 C   0  0  1  0  0  3  0  0  0  0  0  0
  187.8820  175.9650  141.3710 C   0  0  0  0  0  0  0  0  0  0  0  0
  188.9820  175.3350  146.1670 C   0  0  0  0  0  3  0  0  0  0  0  0
  189.9870  173.8370  144.5620 C   0  0  0  0  0  0  0  0  0  0  0  0
  186.9540  177.4000  143.1030 C   0  0  0  0  0  0  0  0  0  0  0  0
  187.7920  176.3030  142.7530 C   0  0  0  0  0  0  0  0  0  0  0  0
  189.8110  174.2530  145.8800 C   0  0  0  0  0  3  0  0  0  0  0  0
  187.1530  176.6950  140.4380 C   0  0  0  0  0  3  0  0  0  0  0  0
  186.5310  178.8720  148.4330 O   0  0  0  0  0  0  0  0  0  0  0  0
  188.7150  174.8560  140.8190 C   0  0  0  0  0  1  0  0  0  0  0  0
  188.3150  176.0200  145.1400 C   0  0  0  0  0  0  0  0  0  0  0  0
  185.9740  178.9710  144.8610 C   0  0  0  0  0  0  0  0  0  0  0  0
  184.1630  178.5050  146.4790 C   0  0  0  0  0  1  0  0  0  0  0  0
  186.8140  177.8070  144.4510 C   0  0  0  0  0  0  0  0  0  0  0  0
  187.3770  177.4980  146.8030 O   0  0  0  0  0  0  0  0  0  0  0  0
  185.5890  179.8590  144.0020 N   0  0  0  0  0  2  0  0  0  0  0  0
  188.4800  175.6120  143.7910 C   0  0  0  0  0  0  0  0  0  0  0  0
  189.3260  174.5180  143.5330 C   0  0  0  0  0  3  0  0  0  0  0  0
  186.5140  178.5090  147.2280 C   0  0  0  0  0  0  0  0  0  0  0  0
  186.2730  178.0540  142.1240 N   0  0  0  0  0  0  0  0  0  0  0  0
  187.4940  177.1070  145.4610 C   0  0  0  0  0  0  0  0  0  0  0  0
  186.3670  177.7190  140.8400 N   0  0  0  0  0  0  0  0  0  0  0  0
  190.8440  172.7240  144.2900 N   0  0  0  0  0  2  0  0  0  0  0  0
  191.5680  172.5460  143.0400 C   0  0  0  0  0  2  0  0  0  0  0  0
  191.2700  171.2410  142.4720 N   0  0  0  0  0  2  0  0  0  0  0  0
  191.6560  171.2850  141.0730 C   0  0  0  0  0  2  0  0  0  0  0  0
  190.4200  171.2560  140.1890 C   0  0  0  0  0  2  0  0  0  0  0  0
  189.7170  170.1360  138.1150 C   0  0  0  0  0  2  0  0  0  0  0  0
  190.5380  170.1780  139.1610 C   0  0  0  0  0  3  0  0  0  0  0  0
  1 13  1  6  0  0  0
  1 19  1  0  0  0  0
  2  6  1  0  0  0  0
  4  7  2  0  0  0  0
  5 14  1  0  0  0  0
  6  5  2  0  0  0  0
  6 17  1  0  0  0  0
  7  3  1  0  0  0  0
  8 22  1  0  0  0  0
  8  2  2  0  0  0  0
 10  2  1  0  0  0  0
 11 21  1  0  0  0  0
 11  3  2  0  0  0  0
 12  1  1  0  0  0  0
 14 12  1  0  0  0  0
 14 21  2  0  0  0  0
 15 19  1  0  0  0  0
 16 12  2  0  0  0  0
 17 11  1  0  0  0  0
 18 17  2  0  0  0  0
 18  4  1  0  0  0  0
 19  9  2  0  0  0  0
 20  5  1  0  0  0  0
 21 15  1  0  0  0  0
 22 20  2  0  0  0  0
 23  4  1  0  0  0  0
 24 23  1  0  0  0  0
 25 24  1  0  0  0  0
 26 25  1  0  0  0  0
 27 26  1  0  0  0  0
 28 29  2  0  0  0  0
 29 27  1  0  0  0  0
M  END
>  <MODEL>
7

>  <REMARK>
 VINA RESULT:      -6.3      1.805      3.003
  Name = 
  6 active torsions:
  status: ('A' for Active; 'I' for Inactive)
    1  A    between atoms: C_5  and  C_15
    2  A    between atoms: C_5  and  C_21
    3  A    between atoms: C_6  and  N_11
    4  A    between atoms: N_11  and  C_23
    5  A    between atoms: C_21  and  N_29
    6  A    between atoms: C_23  and  N_29
                            x       y       z     vdW  Elec       q    Type
                         _______ _______ _______ _____ _____    ______ ____

>  <TORSDO>
F 6

$$$$
=
 OpenBabel11062422443D

 29 32  0  0  1  0  0  0  0  0999 V2000
  185.0130  178.7350  144.6210 C   0  0  1  0  0  3  0  0  0  0  0  0
  190.6400  176.0710  145.5680 C   0  0  0  0  0  0  0  0  0  0  0  0
  187.7240  175.6220  141.5800 C   0  0  0  0  0  3  0  0  0  0  0  0
  189.8890  174.5530  141.5330 C   0  0  0  0  0  0  0  0  0  0  0  0
  188.4300  177.0830  145.4690 C   0  0  0  0  0  0  0  0  0  0  0  0
  189.4380  176.3010  144.8370 C   0  0  0  0  0  0  0  0  0  0  0  0
  188.6780  174.8550  140.9140 C   0  0  0  0  0  3  0  0  0  0  0  0
  190.7860  176.6180  146.8380 C   0  0  0  0  0  3  0  0  0  0  0  0
  183.6750  178.0330  142.7790 O   0  0  0  0  0  0  0  0  0  0  0  0
  191.7980  175.2700  145.0700 C   0  0  0  0  0  1  0  0  0  0  0  0
  187.9660  176.0990  142.8770 C   0  0  0  0  0  0  0  0  0  0  0  0
  186.1060  178.1390  145.4550 C   0  0  0  0  0  0  0  0  0  0  0  0
  185.3620  180.1670  144.2510 C   0  0  0  0  0  1  0  0  0  0  0  0
  187.2030  177.3530  144.8180 C   0  0  0  0  0  0  0  0  0  0  0  0
  185.7720  177.1090  142.8590 O   0  0  0  0  0  0  0  0  0  0  0  0
  186.0770  178.3420  146.7320 N   0  0  0  0  0  2  0  0  0  0  0  0
  189.1930  175.8050  143.5250 C   0  0  0  0  0  0  0  0  0  0  0  0
  190.1350  175.0250  142.8280 C   0  0  0  0  0  3  0  0  0  0  0  0
  184.7740  177.9330  143.3830 C   0  0  0  0  0  0  0  0  0  0  0  0
  188.6600  177.5830  146.7140 N   0  0  0  0  0  0  0  0  0  0  0  0
  186.9840  176.8620  143.5200 C   0  0  0  0  0  0  0  0  0  0  0  0
  189.7920  177.3600  147.3760 N   0  0  0  0  0  0  0  0  0  0  0  0
  190.8540  173.7640  140.8320 N   0  0  0  0  0  2  0  0  0  0  0  0
  190.6060  172.4060  140.3670 C   0  0  0  0  0  2  0  0  0  0  0  0
  190.5740  171.4910  141.4970 N   0  0  0  0  0  2  0  0  0  0  0  0
  191.8600  171.5920  142.1640 C   0  0  0  0  0  2  0  0  0  0  0  0
  191.6610  171.7150  143.6660 C   0  0  0  0  0  2  0  0  0  0  0  0
  189.6860  172.2940  145.0130 C   0  0  0  0  0  2  0  0  0  0  0  0
  190.2130  171.5910  144.0130 C   0  0  0  0  0  3  0  0  0  0  0  0
  1 13  1  6  0  0  0
  1 12  1  0  0  0  0
  2  8  1  0  0  0  0
  3 11  1  0  0  0  0
  4 18  2  0  0  0  0
  5 20  2  0  0  0  0
  6  5  1  0  0  0  0
  6  2  2  0  0  0  0
  7  4  1  0  0  0  0
  7  3  2  0  0  0  0
  8 22  2  0  0  0  0
  9 19  2  0  0  0  0
 10  2  1  0  0  0  0
 11 21  1  0  0  0  0
 11 17  2  0  0  0  0
 12 16  2  0  0  0  0
 14 12  1  0  0  0  0
 14  5  1  0  0  0  0
 15 19  1  0  0  0  0
 15 21  1  0  0  0  0
 17  6  1  0  0  0  0
 18 17  1  0  0  0  0
 19  1  1  0  0  0  0
 20 22  1  0  0  0  0
 21 14  2  0  0  0  0
 23  4  1  0  0  0  0
 24 23  1  0  0  0  0
 24 25  1  0  0  0  0
 25 26  1  0  0  0  0
 26 27  1  0  0  0  0
 27 29  1  0  0  0  0
 29 28  2  0  0  0  0
M  END
>  <MODEL>
8

>  <REMARK>
 VINA RESULT:      -6.3      2.618      4.302
  Name = 
  6 active torsions:
  status: ('A' for Active; 'I' for Inactive)
    1  A    between atoms: C_5  and  C_15
    2  A    between atoms: C_5  and  C_21
    3  A    between atoms: C_6  and  N_11
    4  A    between atoms: N_11  and  C_23
    5  A    between atoms: C_21  and  N_29
    6  A    between atoms: C_23  and  N_29
                            x       y       z     vdW  Elec       q    Type
                         _______ _______ _______ _____ _____    ______ ____

>  <TORSDO>
F 6

$$$$
=
 OpenBabel11062422443D

 29 32  0  0  1  0  0  0  0  0999 V2000
  194.9010  173.6200  144.4610 C   0  0  1  0  0  3  0  0  0  0  0  0
  189.9060  176.8520  146.5250 C   0  0  0  0  0  0  0  0  0  0  0  0
  190.4410  174.6080  142.1340 C   0  0  0  0  0  3  0  0  0  0  0  0
  188.3180  175.6460  142.6300 C   0  0  0  0  0  0  0  0  0  0  0  0
  191.9870  175.7700  145.8780 C   0  0  0  0  0  0  0  0  0  0  0  0
  190.6480  176.1250  145.5480 C   0  0  0  0  0  0  0  0  0  0  0  0
  189.1360  174.9270  141.7620 C   0  0  0  0  0  3  0  0  0  0  0  0
  190.5000  177.1660  147.7430 C   0  0  0  0  0  3  0  0  0  0  0  0
  195.0240  172.9830  142.1680 O   0  0  0  0  0  0  0  0  0  0  0  0
  188.4980  177.3150  146.3520 C   0  0  0  0  0  1  0  0  0  0  0  0
  190.9490  175.0040  143.3800 C   0  0  0  0  0  0  0  0  0  0  0  0
  194.2140  174.6910  145.2520 C   0  0  0  0  0  0  0  0  0  0  0  0
  194.7700  172.2830  145.1700 C   0  0  0  0  0  1  0  0  0  0  0  0
  192.7960  175.0550  144.9630 C   0  0  0  0  0  0  0  0  0  0  0  0
  193.0520  173.9720  142.7940 O   0  0  0  0  0  0  0  0  0  0  0  0
  194.8790  175.2710  146.1980 N   0  0  0  0  0  2  0  0  0  0  0  0
  190.1320  175.7360  144.2800 C   0  0  0  0  0  0  0  0  0  0  0  0
  188.8200  176.0460  143.8750 C   0  0  0  0  0  3  0  0  0  0  0  0
  194.3410  173.5200  143.0780 C   0  0  0  0  0  0  0  0  0  0  0  0
  192.4850  176.1150  147.0960 N   0  0  0  0  0  0  0  0  0  0  0  0
  192.2650  174.6730  143.7200 C   0  0  0  0  0  0  0  0  0  0  0  0
  191.7730  176.7890  147.9950 N   0  0  0  0  0  0  0  0  0  0  0  0
  186.9820  175.9640  142.2280 N   0  0  0  0  0  2  0  0  0  0  0  0
  185.9460  176.4140  143.1460 C   0  0  0  0  0  2  0  0  0  0  0  0
  185.4140  177.6940  142.7090 N   0  0  0  0  0  2  0  0  0  0  0  0
  186.1750  178.7270  143.3880 C   0  0  0  0  0  2  0  0  0  0  0  0
  185.2550  179.5670  144.2590 C   0  0  0  0  0  2  0  0  0  0  0  0
  184.4740  178.2880  146.2100 C   0  0  0  0  0  2  0  0  0  0  0  0
  185.3530  179.1400  145.6880 C   0  0  0  0  0  3  0  0  0  0  0  0
  1 13  1  1  0  0  0
  1 12  1  0  0  0  0
  2  8  1  0  0  0  0
  3 11  1  0  0  0  0
  4 18  2  0  0  0  0
  5 20  2  0  0  0  0
  6  5  1  0  0  0  0
  6  2  2  0  0  0  0
  7  3  2  0  0  0  0
  7  4  1  0  0  0  0
  8 22  2  0  0  0  0
  9 19  2  0  0  0  0
 10  2  1  0  0  0  0
 11 21  1  0  0  0  0
 11 17  2  0  0  0  0
 12 16  2  0  0  0  0
 14 12  1  0  0  0  0
 14  5  1  0  0  0  0
 15 19  1  0  0  0  0
 15 21  1  0  0  0  0
 17  6  1  0  0  0  0
 18 17  1  0  0  0  0
 19  1  1  0  0  0  0
 20 22  1  0  0  0  0
 21 14  2  0  0  0  0
 23  4  1  0  0  0  0
 23 24  1  0  0  0  0
 25 24  1  0  0  0  0
 25 26  1  0  0  0  0
 26 27  1  0  0  0  0
 27 29  1  0  0  0  0
 29 28  2  0  0  0  0
M  END
>  <MODEL>
9

>  <REMARK>
 VINA RESULT:      -6.1      3.029      7.554
  Name = 
  6 active torsions:
  status: ('A' for Active; 'I' for Inactive)
    1  A    between atoms: C_5  and  C_15
    2  A    between atoms: C_5  and  C_21
    3  A    between atoms: C_6  and  N_11
    4  A    between atoms: N_11  and  C_23
    5  A    between atoms: C_21  and  N_29
    6  A    between atoms: C_23  and  N_29
                            x       y       z     vdW  Elec       q    Type
                         _______ _______ _______ _____ _____    ______ ____

>  <TORSDO>
F 6

$$$$
